AV-unprocessed.smi:3202|AV-procd|sdf|12246|dock9
  -GOLD-   2272018 83D 1   1.00000     0.00000
 Structure written by MMmdl.
 43 44  0  0  0  0  0  0  0  0  2 V2000
  144.5010  131.8022  150.9795 C   0  0  0  0  0  0  0  0  0  0  0  0
  145.1107  133.1697  151.0742 C   0  0  0  0  0  0  0  0  0  0  0  0
  144.4999  134.4277  150.7973 C   0  0  0  0  0  0  0  0  0  0  0  0
  145.4833  135.3457  151.0458 C   0  0  0  0  0  0  0  0  0  0  0  0
  145.5110  136.8381  150.9340 C   0  0  0  0  0  0  0  0  0  0  0  0
  145.8969  137.5789  152.2334 C   0  0  1  0  0  0  0  0  0  0  0  0
  146.7308  138.8385  151.9467 C   0  0  0  0  0  0  0  0  0  0  0  0
  144.6871  137.9707  152.9936 N   0  3  0  0  0  0  0  0  0  0  0  0
  143.6361  136.9333  153.1275 C   0  0  2  0  0  0  0  0  0  0  0  0
  142.2261  137.4963  153.3454 C   0  0  0  0  0  0  0  0  0  0  0  0
  141.4470  136.3783  154.0492 C   0  0  0  0  0  0  0  0  0  0  0  0
  142.4816  135.3148  154.4487 C   0  0  0  0  0  0  0  0  0  0  0  0
  143.8663  135.9757  154.3163 C   0  0  0  0  0  0  0  0  0  0  0  0
  144.9545  134.9305  154.0062 C   0  0  0  0  0  0  0  0  0  0  0  0
  144.2206  136.7167  155.6268 C   0  0  0  0  0  0  0  0  0  0  0  0
  146.5900  134.6223  151.4280 N   0  0  0  0  0  0  0  0  0  0  0  0
  146.3726  133.2946  151.4558 N   0  0  0  0  0  0  0  0  0  0  0  0
  147.4877  135.0150  151.6740 H   0  0  0  0  0  0  0  0  0  0  0  0
  143.5099  131.8433  150.5271 H   0  0  0  0  0  0  0  0  0  0  0  0
  144.3968  131.3502  151.9661 H   0  0  0  0  0  0  0  0  0  0  0  0
  145.1145  131.1377  150.3702 H   0  0  0  0  0  0  0  0  0  0  0  0
  143.4905  134.6220  150.4660 H   0  0  0  0  0  0  0  0  0  0  0  0
  144.5270  137.1633  150.5995 H   0  0  0  0  0  0  0  0  0  0  0  0
  146.2007  137.1266  150.1393 H   0  0  0  0  0  0  0  0  0  0  0  0
  146.5027  136.9184  152.8555 H   0  0  0  0  0  0  0  0  0  0  0  0
  147.6687  138.5966  151.4469 H   0  0  0  0  0  0  0  0  0  0  0  0
  146.9842  139.3584  152.8713 H   0  0  0  0  0  0  0  0  0  0  0  0
  146.1878  139.5386  151.3106 H   0  0  0  0  0  0  0  0  0  0  0  0
  144.9922  138.1846  153.9324 H   0  0  0  0  0  0  0  0  0  0  0  0
  143.6255  136.3351  152.2141 H   0  0  0  0  0  0  0  0  0  0  0  0
  142.2599  138.3729  153.9938 H   0  0  0  0  0  0  0  0  0  0  0  0
  141.7549  137.7974  152.4089 H   0  0  0  0  0  0  0  0  0  0  0  0
  140.9338  136.7716  154.9274 H   0  0  0  0  0  0  0  0  0  0  0  0
  140.6880  135.9491  153.3943 H   0  0  0  0  0  0  0  0  0  0  0  0
  142.2972  134.9145  155.4464 H   0  0  0  0  0  0  0  0  0  0  0  0
  142.4019  134.4763  153.7549 H   0  0  0  0  0  0  0  0  0  0  0  0
  145.0440  134.2040  154.8147 H   0  0  0  0  0  0  0  0  0  0  0  0
  145.9299  135.4005  153.8766 H   0  0  0  0  0  0  0  0  0  0  0  0
  144.7335  134.3768  153.0931 H   0  0  0  0  0  0  0  0  0  0  0  0
  144.2823  136.0203  156.4639 H   0  0  0  0  0  0  0  0  0  0  0  0
  143.4761  137.4685  155.8890 H   0  0  0  0  0  0  0  0  0  0  0  0
  145.1858  137.2187  155.5586 H   0  0  0  0  0  0  0  0  0  0  0  0
  144.2913  138.8093  152.5935 H   0  0  0  0  0  0  0  0  0  0  0  0
  1 19  1  0  0  0  0
  1 20  1  0  0  0  0
  1 21  1  0  0  0  0
  1  2  1  0  0  0  0
  2 17  2  0  0  0  0
  2  3  1  0  0  0  0
  3  4  2  0  0  0  0
  3 22  1  0  0  0  0
  4 16  1  0  0  0  0
  4  5  1  0  0  0  0
  5  6  1  0  0  0  0
  5 23  1  0  0  0  0
  5 24  1  0  0  0  0
  6  7  1  0  0  0  0
  6  8  1  0  0  0  0
  6 25  1  0  0  0  0
  7 26  1  0  0  0  0
  7 27  1  0  0  0  0
  7 28  1  0  0  0  0
  8  9  1  0  0  0  0
  8 29  1  0  0  0  0
  8 43  1  0  0  0  0
  9 13  1  0  0  0  0
  9 10  1  0  0  0  0
  9 30  1  0  0  0  0
 10 11  1  0  0  0  0
 10 31  1  0  0  0  0
 10 32  1  0  0  0  0
 11 12  1  0  0  0  0
 11 33  1  0  0  0  0
 11 34  1  0  0  0  0
 12 13  1  0  0  0  0
 12 35  1  0  0  0  0
 12 36  1  0  0  0  0
 13 14  1  0  0  0  0
 13 15  1  0  0  0  0
 14 37  1  0  0  0  0
 14 38  1  0  0  0  0
 14 39  1  0  0  0  0
 15 40  1  0  0  0  0
 15 41  1  0  0  0  0
 15 42  1  0  0  0  0
 16 17  1  0  0  0  0
 16 18  1  0  0  0  0
M  CHG  1   8   1
M  END
> <s_m_source_file>
AV-unprocessed.smi

> <i_m_source_file_index>
3202

> <i_lp_mmshare_version>
43012

> <i_f3d_flags>
0

> <s_epik_input>
W0NIM11jMVtjSF1jKG5bbkhdMSlbQ0gyXVtDQEhdKFtDSDNdKVtOSF1bQ0BASF0oQzIoW0NIM10pW0NIM10pW0NIMl1bQ0gyXVtDSDJdMg==

> <s_epik_cmdline>
J2VwaWtfcHl0aG9uJywgJy1waCcsICc3LjAnLCAnLXRuJywgJzgnLCAnLW1hJywgJzIwMCcsICctbWV0YWxfYmluZGluZycsICctaW1hZScsICc8aW5maWxlLm1hZT4nLCAnLW9tYWUnLCAnPG91dGZpbGUubWFlPic=

> <r_lp_tautomer_probability>
0.5

> <r_epik_Ionization_Penalty>
0.000449684

> <r_epik_Ionization_Penalty_Charging>
0.000404963

> <r_epik_Ionization_Penalty_Neutral>
4.47208e-05

> <r_epik_State_Penalty>
0.41068

> <r_epik_Charging_Adjusted_Penalty>
0.411085

> <i_epik_Tot_Q>
1

> <i_epik_Tot_abs_Q>
1

> <r_epik_Metal_State_Penalty>
0.410687

> <b_epik_Metal_Only>
0

> <s_lp_Force_Field>
OPLS_2005

> <r_lp_Energy>
31.7221

> <b_lp_Chiralities_Consistent>
1

> <s_lp_Variant>
AV-unprocessed.smi:3202-6

> <Gold.Version>
5.8.1

> <Gold.Id.Protein>
6NUR|6NUR_protein|mol2

> <Gold.PLP.Fitness>
38.2019

> <Gold.PLP.PLP>
-30.8877

> <Gold.PLP.part.hbond>
-2.5233

> <Gold.PLP.part.metal>
0.0000

> <Gold.PLP.part.buried>
-0.8450

> <Gold.PLP.part.nonpolar>
-27.8517

> <Gold.PLP.part.repulsive>
0.2391

> <Gold.PLP.ligand.clash>
0.0000

> <Gold.PLP.ligand.torsion>
0.8478

> <Gold.PLP.Chemscore.Hbond>
3.0000

> <Gold.PLP.Chemscore.CHOScore>
0.0000

> <Gold.PLP.Chemscore.Metal>
0.0000

> <Gold.Chemscore.Hbonds>
donor molecule, donor type, donor heavy atom, donor atom, acceptor molecule, acceptor atom, score
      L1  H     8    43       P1 10175  2.00
      L1  H    16    18       P1  7948  1.00

> <Gold.PLP.Chemscore.Internal.Correction>
0.0098

> <Gold.Rescore>
     Score         DG    S(hbond)    S(metal)    S(lipo)     H(rot)  DE(clash)    DE(int)     intcor
     14.69     -17.18       1.95        0.00      76.34       1.46       1.46       1.03       ----

> <Gold.Chemscore.Fitness>
14.6908

> <Gold.Chemscore.DG>
-17.1795

> <Gold.Chemscore.ZeroCoef>
-5.4800

> <Gold.Chemscore.Hbond>
1.9475

> <Gold.Chemscore.Metal>
0.0000

> <Gold.Chemscore.Lipo>
76.3380

> <Gold.Chemscore.Internal_Hbond>
0.0000

> <Gold.Chemscore.DEClash>
1.4598

> <Gold.Chemscore.DEInternal>
1.0289

> <Gold.Chemscore.Rot>
1.4596

> <Gold.Chemscore.Internal.Correction>
   9.000000E+99

> <Gold.Chemscore.Hbonds>
donor molecule, donor type, donor heavy atom, donor atom, acceptor molecule, acceptor atom, score
      L1  H     8    43       P1 10175  1.00
      L1  H    16    18       P1  7948  0.74

> <Gold.Chemscore.Hbond.Weighted>
-6.5045

> <Gold.Chemscore.Metal.Weighted>
-0.0000

> <Gold.Chemscore.Lipo.Weighted>
-8.9315

> <Gold.Chemscore.Internal_Hbond.Weighted>
0.0000

> <Gold.Chemscore.DEClash.Weighted>
1.4598

> <Gold.Chemscore.DEInternal.Weighted>
1.0289

> <Gold.Chemscore.Rot.Weighted>
3.7365

> <Gold.Chemscore.Internal.Correction.Weighted>
   9.000000E+99

> <Gold.Protein.RotatedTorsions>
[ 6907 6896 6895 6894 ] final -146.71 input  -60.11 | X-H torsion
[ 7974 7965 7964 7962 ] final  -89.71 input  175.53 | X-H torsion
[ 8008 7997 7996 7995 ] final  139.59 input   59.86 | X-H torsion
[ 10167 10162 10161 10158 ] final  104.93 input  -65.29 | X-H torsion
[ 10718 10713 10712 10709 ] final  150.37 input   66.30 | X-H torsion
[ 10763 10752 10751 10750 ] final   77.08 input  -60.55 | X-H torsion
[ 11005 11000 10999 10996 ] final  171.91 input  -57.11 | X-H torsion

> <Gold.Protein.ActiveResidues>
 VAL166  LYS551  ARG553  GLY616  TRP617  ASP618  TYR619  PRO620  LYS621  CYS622 
 ASP623  PHE694  ASN695  SER759  ASP760  ASP761  ALA762  ILE779  LEU786  VAL792 
 PHE793  MET794  SER795  GLU796  ALA797  LYS798  CYS799  TRP800  GLU811  SER814 

> <Gold.Protein.RotatedAtoms>
  151.1455  133.4942  159.2595 H   0  0  0  0  0  0  0  0  0  0  0  0  # atno 6907 bound_to 6896
  151.1610  135.0273  159.8720 H   0  0  0  0  0  0  0  0  0  0  0  0  # atno 6908 bound_to 6896
  152.5463  134.1329  159.8499 H   0  0  0  0  0  0  0  0  0  0  0  0  # atno 6909 bound_to 6896
  145.4362  140.9557  143.2101 H   0  0  0  0  0  0  0  0  0  0  0  0  # atno 7974 bound_to 7965
  156.2988  140.2363  156.4263 H   0  0  0  0  0  0  0  0  0  0  0  0  # atno 8008 bound_to 7997
  154.8311  140.0433  157.1497 H   0  0  0  0  0  0  0  0  0  0  0  0  # atno 8009 bound_to 7997
  154.9207  140.3003  155.5221 H   0  0  0  0  0  0  0  0  0  0  0  0  # atno 8010 bound_to 7997
  139.7135  144.7073  151.0988 H   0  0  0  0  0  0  0  0  0  0  0  0  # atno 10167 bound_to 10162
  157.2844  131.0841  151.1508 H   0  0  0  0  0  0  0  0  0  0  0  0  # atno 10718 bound_to 10713
  153.0772  135.4927  154.8429 H   0  0  0  0  0  0  0  0  0  0  0  0  # atno 10763 bound_to 10752
  154.7103  135.3018  154.9209 H   0  0  0  0  0  0  0  0  0  0  0  0  # atno 10764 bound_to 10752
  153.9905  135.6778  153.4807 H   0  0  0  0  0  0  0  0  0  0  0  0  # atno 10765 bound_to 10752
  140.3241  134.7413  157.4086 H   0  0  0  0  0  0  0  0  0  0  0  0  # atno 11005 bound_to 11000
  144.8151  139.5892  143.7012 LP  0  0  0  0  0  0  0  0  0  0  0  0  # atno 17320 bound_to 7965
  146.2581  139.6348  142.9381 LP  0  0  0  0  0  0  0  0  0  0  0  0  # atno 17321 bound_to 7965
  140.7738  143.5261  150.9479 LP  0  0  0  0  0  0  0  0  0  0  0  0  # atno 17342 bound_to 10162
  139.8946  143.6910  152.3140 LP  0  0  0  0  0  0  0  0  0  0  0  0  # atno 17343 bound_to 10162
  157.2929  130.6805  149.6124 LP  0  0  0  0  0  0  0  0  0  0  0  0  # atno 17370 bound_to 10713
  155.9665  130.4415  150.5343 LP  0  0  0  0  0  0  0  0  0  0  0  0  # atno 17371 bound_to 10713
  140.0917  134.5592  155.8438 LP  0  0  0  0  0  0  0  0  0  0  0  0  # atno 17394 bound_to 11000
  141.2079  133.6669  156.6339 LP  0  0  0  0  0  0  0  0  0  0  0  0  # atno 17395 bound_to 11000

$$$$
