AV-unprocessed.smi:2260|AV-procd|sdf|9133|dock10
  -GOLD-   2272012343D 1   1.00000     0.00000
 Structure written by MMmdl.
 43 44  0  0  0  0  0  0  0  0  2 V2000
  152.1100  144.6764  159.9686 C   0  0  0  0  0  0  0  0  0  0  0  0
  152.5814  143.2344  160.0481 C   0  0  0  0  0  0  0  0  0  0  0  0
  153.0902  142.6407  161.1332 C   0  0  0  0  0  0  0  0  0  0  0  0
  153.4883  140.9607  160.8614 S   0  0  0  0  0  0  0  0  0  0  0  0
  152.9130  141.0897  159.1605 C   0  0  0  0  0  0  0  0  0  0  0  0
  152.9254  140.1429  158.3755 O   0  0  0  0  0  0  0  0  0  0  0  0
  152.4794  142.3942  158.9320 N   0  0  0  0  0  0  0  0  0  0  0  0
  151.9683  142.8183  157.6255 C   0  0  0  0  0  0  0  0  0  0  0  0
  150.7185  142.0172  157.2302 C   0  0  0  0  0  0  0  0  0  0  0  0
  150.3301  142.3045  155.8340 N   0  3  0  0  0  0  0  0  0  0  0  0
  149.8310  141.1452  155.0557 C   0  0  1  0  0  0  0  0  0  0  0  0
  150.6339  139.8645  155.3857 C   0  0  0  0  0  0  0  0  0  0  0  0
  150.1319  138.6567  154.5831 C   0  0  0  0  0  0  0  0  0  0  0  0
  148.6305  138.4331  154.7958 C   0  0  0  0  0  0  0  0  0  0  0  0
  147.8321  139.7043  154.4616 C   0  0  0  0  0  0  0  0  0  0  0  0
  148.2945  140.9538  155.2556 C   0  0  0  0  0  0  0  0  0  0  0  0
  147.9134  140.8004  156.7481 C   0  0  0  0  0  0  0  0  0  0  0  0
  147.5380  142.1743  154.6875 C   0  0  0  0  0  0  0  0  0  0  0  0
  151.8798  145.0519  160.9660 H   0  0  0  0  0  0  0  0  0  0  0  0
  151.2079  144.7825  159.3670 H   0  0  0  0  0  0  0  0  0  0  0  0
  152.8917  145.3059  159.5432 H   0  0  0  0  0  0  0  0  0  0  0  0
  153.2483  143.0982  162.0988 H   0  0  0  0  0  0  0  0  0  0  0  0
  151.7571  143.8878  157.6238 H   0  0  0  0  0  0  0  0  0  0  0  0
  152.7443  142.6815  156.8702 H   0  0  0  0  0  0  0  0  0  0  0  0
  150.9141  140.9491  157.3346 H   0  0  0  0  0  0  0  0  0  0  0  0
  149.8960  142.2604  157.9022 H   0  0  0  0  0  0  0  0  0  0  0  0
  149.6285  143.0310  155.8228 H   0  0  0  0  0  0  0  0  0  0  0  0
  149.9934  141.3709  153.9999 H   0  0  0  0  0  0  0  0  0  0  0  0
  151.6906  140.0072  155.1621 H   0  0  0  0  0  0  0  0  0  0  0  0
  150.5793  139.6452  156.4523 H   0  0  0  0  0  0  0  0  0  0  0  0
  150.3288  138.8168  153.5221 H   0  0  0  0  0  0  0  0  0  0  0  0
  150.6866  137.7623  154.8686 H   0  0  0  0  0  0  0  0  0  0  0  0
  148.2895  137.6092  154.1682 H   0  0  0  0  0  0  0  0  0  0  0  0
  148.4423  138.1252  155.8246 H   0  0  0  0  0  0  0  0  0  0  0  0
  147.9310  139.8973  153.3922 H   0  0  0  0  0  0  0  0  0  0  0  0
  146.7706  139.5201  154.6324 H   0  0  0  0  0  0  0  0  0  0  0  0
  146.8429  140.6264  156.8624 H   0  0  0  0  0  0  0  0  0  0  0  0
  148.1500  141.6973  157.3210 H   0  0  0  0  0  0  0  0  0  0  0  0
  148.4254  139.9674  157.2279 H   0  0  0  0  0  0  0  0  0  0  0  0
  146.4583  142.0378  154.7597 H   0  0  0  0  0  0  0  0  0  0  0  0
  147.7745  142.3381  153.6355 H   0  0  0  0  0  0  0  0  0  0  0  0
  147.7818  143.0917  155.2240 H   0  0  0  0  0  0  0  0  0  0  0  0
  151.1534  142.6501  155.3615 H   0  0  0  0  0  0  0  0  0  0  0  0
  1  2  1  0  0  0  0
  1 19  1  0  0  0  0
  1 20  1  0  0  0  0
  1 21  1  0  0  0  0
  2  7  1  0  0  0  0
  2  3  2  0  0  0  0
  3  4  1  0  0  0  0
  3 22  1  0  0  0  0
  4  5  1  0  0  0  0
  5  6  2  0  0  0  0
  5  7  1  0  0  0  0
  7  8  1  0  0  0  0
  8  9  1  0  0  0  0
  8 23  1  0  0  0  0
  8 24  1  0  0  0  0
  9 10  1  0  0  0  0
  9 25  1  0  0  0  0
  9 26  1  0  0  0  0
 10 11  1  0  0  0  0
 10 27  1  0  0  0  0
 10 43  1  0  0  0  0
 11 16  1  0  0  0  0
 11 12  1  0  0  0  0
 11 28  1  0  0  0  0
 12 13  1  0  0  0  0
 12 29  1  0  0  0  0
 12 30  1  0  0  0  0
 13 14  1  0  0  0  0
 13 31  1  0  0  0  0
 13 32  1  0  0  0  0
 14 15  1  0  0  0  0
 14 33  1  0  0  0  0
 14 34  1  0  0  0  0
 15 16  1  0  0  0  0
 15 35  1  0  0  0  0
 15 36  1  0  0  0  0
 16 17  1  0  0  0  0
 16 18  1  0  0  0  0
 17 37  1  0  0  0  0
 17 38  1  0  0  0  0
 17 39  1  0  0  0  0
 18 40  1  0  0  0  0
 18 41  1  0  0  0  0
 18 42  1  0  0  0  0
M  CHG  1  10   1
M  END
> <s_m_source_file>
AV-unprocessed.smi

> <i_m_source_file_index>
2260

> <i_lp_mmshare_version>
43012

> <i_f3d_flags>
0

> <s_epik_input>
W0NIM11jMVtjSF1zYyg9TyluMVtDSDJdW0NIMl1bTkhdW0NAQEhdKEMyKFtDSDNdKVtDSDNdKVtDSDJdW0NIMl1bQ0gyXVtDSDJdMg==

> <s_epik_cmdline>
J2VwaWtfcHl0aG9uJywgJy1waCcsICc3LjAnLCAnLXRuJywgJzgnLCAnLW1hJywgJzIwMCcsICctbWV0YWxfYmluZGluZycsICctaW1hZScsICc8aW5maWxlLm1hZT4nLCAnLW9tYWUnLCAnPG91dGZpbGUubWFlPic=

> <r_epik_Ionization_Penalty>
0.0114277

> <r_epik_Ionization_Penalty_Charging>
0.0114277

> <r_epik_Ionization_Penalty_Neutral>
2.57259e-08

> <r_epik_State_Penalty>
0.0087935

> <r_epik_Charging_Adjusted_Penalty>
0.0202212

> <i_epik_Tot_Q>
1

> <i_epik_Tot_abs_Q>
1

> <r_epik_Metal_State_Penalty>
0.0087935

> <b_epik_Metal_Only>
0

> <s_lp_Force_Field>
OPLS_2005

> <r_lp_Energy>
26.3159

> <b_lp_Chiralities_Consistent>
1

> <s_lp_Variant>
AV-unprocessed.smi:2260-2

> <Gold.Version>
5.8.1

> <Gold.Id.Protein>
6NUR|6NUR_protein|mol2

> <Gold.PLP.Fitness>
47.7687

> <Gold.PLP.PLP>
-40.7409

> <Gold.PLP.part.hbond>
-2.0000

> <Gold.PLP.part.metal>
0.0000

> <Gold.PLP.part.buried>
0.7729

> <Gold.PLP.part.nonpolar>
-37.6462

> <Gold.PLP.part.repulsive>
0.1512

> <Gold.PLP.ligand.clash>
0.0000

> <Gold.PLP.ligand.torsion>
0.5487

> <Gold.PLP.Chemscore.Hbond>
2.7037

> <Gold.PLP.Chemscore.CHOScore>
0.0000

> <Gold.PLP.Chemscore.Metal>
0.0000

> <Gold.Chemscore.Hbonds>
donor molecule, donor type, donor heavy atom, donor atom, acceptor molecule, acceptor atom, score
      L1  H    10    27       P1  8028  2.00
      P1  H  7997  8009       L1     6  0.73

> <Gold.PLP.Chemscore.Internal.Correction>
0.0143

> <Gold.Rescore>
     Score         DG    S(hbond)    S(metal)    S(lipo)     H(rot)  DE(clash)    DE(int)     intcor
     17.98     -20.39       1.80        0.00     108.42       1.48       1.60       0.80       ----

> <Gold.Chemscore.Fitness>
17.9840

> <Gold.Chemscore.DG>
-20.3904

> <Gold.Chemscore.ZeroCoef>
-5.4800

> <Gold.Chemscore.Hbond>
1.7994

> <Gold.Chemscore.Metal>
0.0000

> <Gold.Chemscore.Lipo>
108.4233

> <Gold.Chemscore.Internal_Hbond>
0.0000

> <Gold.Chemscore.DEClash>
1.6045

> <Gold.Chemscore.DEInternal>
0.8019

> <Gold.Chemscore.Rot>
1.4785

> <Gold.Chemscore.Internal.Correction>
   9.000000E+99

> <Gold.Chemscore.Hbonds>
donor molecule, donor type, donor heavy atom, donor atom, acceptor molecule, acceptor atom, score
      L1  H    10    27       P1  8028  0.99
      P1  H  7997  8009       L1     6  0.65

> <Gold.Chemscore.Hbond.Weighted>
-6.0099

> <Gold.Chemscore.Metal.Weighted>
-0.0000

> <Gold.Chemscore.Lipo.Weighted>
-12.6855

> <Gold.Chemscore.Internal_Hbond.Weighted>
0.0000

> <Gold.Chemscore.DEClash.Weighted>
1.6045

> <Gold.Chemscore.DEInternal.Weighted>
0.8019

> <Gold.Chemscore.Rot.Weighted>
3.7850

> <Gold.Chemscore.Internal.Correction.Weighted>
   9.000000E+99

> <Gold.Protein.RotatedTorsions>
[ 6907 6896 6895 6894 ] final  -72.87 input  -60.11 | X-H torsion
[ 7974 7965 7964 7962 ] final -172.30 input  175.53 | X-H torsion
[ 8008 7997 7996 7995 ] final  157.62 input   59.86 | X-H torsion
[ 10167 10162 10161 10158 ] final   -1.27 input  -65.29 | X-H torsion
[ 10718 10713 10712 10709 ] final  -15.63 input   66.30 | X-H torsion
[ 10763 10752 10751 10750 ] final  -23.36 input  -60.55 | X-H torsion
[ 11005 11000 10999 10996 ] final -131.48 input  -57.11 | X-H torsion

> <Gold.Protein.ActiveResidues>
 VAL166  LYS551  ARG553  GLY616  TRP617  ASP618  TYR619  PRO620  LYS621  CYS622 
 ASP623  PHE694  ASN695  SER759  ASP760  ASP761  ALA762  ILE779  LEU786  VAL792 
 PHE793  MET794  SER795  GLU796  ALA797  LYS798  CYS799  TRP800  GLU811  SER814 

> <Gold.Protein.RotatedAtoms>
  150.7152  134.5100  159.5602 H   0  0  0  0  0  0  0  0  0  0  0  0  # atno 6907 bound_to 6896
  152.2678  134.7962  160.0428 H   0  0  0  0  0  0  0  0  0  0  0  0  # atno 6908 bound_to 6896
  151.8653  133.3430  159.3754 H   0  0  0  0  0  0  0  0  0  0  0  0  # atno 6909 bound_to 6896
  144.7148  140.1792  143.6360 H   0  0  0  0  0  0  0  0  0  0  0  0  # atno 7974 bound_to 7965
  156.2353  140.1880  156.7136 H   0  0  0  0  0  0  0  0  0  0  0  0  # atno 8008 bound_to 7997
  154.6095  140.0624  156.9502 H   0  0  0  0  0  0  0  0  0  0  0  0  # atno 8009 bound_to 7997
  155.2040  140.3294  155.4341 H   0  0  0  0  0  0  0  0  0  0  0  0  # atno 8010 bound_to 7997
  140.6803  143.6795  150.8117 H   0  0  0  0  0  0  0  0  0  0  0  0  # atno 10167 bound_to 10162
  156.5990  130.4819  149.6248 H   0  0  0  0  0  0  0  0  0  0  0  0  # atno 10718 bound_to 10713
  153.6666  135.6974  153.5160 H   0  0  0  0  0  0  0  0  0  0  0  0  # atno 10763 bound_to 10752
  153.2590  135.4251  155.0874 H   0  0  0  0  0  0  0  0  0  0  0  0  # atno 10764 bound_to 10752
  154.8438  135.3550  154.6211 H   0  0  0  0  0  0  0  0  0  0  0  0  # atno 10765 bound_to 10752
  140.9255  134.1388  157.4279 H   0  0  0  0  0  0  0  0  0  0  0  0  # atno 11005 bound_to 11000
  145.8872  139.2355  143.1571 LP  0  0  0  0  0  0  0  0  0  0  0  0  # atno 17320 bound_to 7965
  145.9938  140.8579  143.0053 LP  0  0  0  0  0  0  0  0  0  0  0  0  # atno 17321 bound_to 7965
  140.0495  143.5264  152.2680 LP  0  0  0  0  0  0  0  0  0  0  0  0  # atno 17342 bound_to 10162
  139.6121  144.7611  151.2929 LP  0  0  0  0  0  0  0  0  0  0  0  0  # atno 17343 bound_to 10162
  156.2485  130.6893  151.1623 LP  0  0  0  0  0  0  0  0  0  0  0  0  # atno 17370 bound_to 10713
  157.7284  131.0632  150.5819 LP  0  0  0  0  0  0  0  0  0  0  0  0  # atno 17371 bound_to 10713
  139.8784  134.9987  156.5912 LP  0  0  0  0  0  0  0  0  0  0  0  0  # atno 17394 bound_to 11000
  140.7931  133.8566  155.8663 LP  0  0  0  0  0  0  0  0  0  0  0  0  # atno 17395 bound_to 11000

$$$$
