AV-unprocessed.smi:2790|AV-procd|sdf|10769|dock7
  -GOLD-   2272015203D 1   1.00000     0.00000
 Structure written by MMmdl.
 45 46  0  0  0  0  0  0  0  0  3 V2000
  148.3246  136.4766  155.2975 C   0  0  0  0  0  0  0  0  0  0  0  0
  149.5987  136.1900  154.6054 N   0  3  0  0  0  0  0  0  0  0  0  0
  150.1698  134.8853  155.0136 C   0  0  0  0  0  0  0  0  0  0  0  0
  150.5647  137.3136  154.7078 C   0  0  0  0  0  0  0  0  0  0  0  0
  150.7235  137.7491  156.1683 C   0  0  0  0  0  0  0  0  0  0  0  0
  150.8256  136.8746  157.0338 O   0  0  0  0  0  0  0  0  0  0  0  0
  150.7442  139.1065  156.2694 N   0  5  0  0  0  0  0  0  0  0  0  0
  150.3964  139.8414  157.4881 C   0  0  0  0  0  0  0  0  0  0  0  0
  150.1466  141.3734  157.1923 C   0  0  0  0  0  0  0  0  0  0  0  0
  151.0912  142.2296  158.0871 C   0  0  0  0  0  0  0  0  0  0  0  0
  151.1018  143.6477  158.0084 C   0  0  0  0  0  0  0  0  0  0  0  0
  151.9618  144.3851  158.8450 C   0  0  0  0  0  0  0  0  0  0  0  0
  152.7989  143.8165  159.7356 N   0  0  0  0  0  0  0  0  0  0  0  0
  152.8014  142.4714  159.8163 C   0  0  0  0  0  0  0  0  0  0  0  0
  151.9758  141.6434  159.0315 C   0  0  0  0  0  0  0  0  0  0  0  0
  150.3641  141.7203  155.6724 C   0  0  0  0  0  0  0  0  0  0  0  0
  149.2786  141.2201  154.6943 C   0  0  0  0  0  0  0  0  0  0  0  0
  147.8898  141.7129  155.1074 C   0  0  0  0  0  0  0  0  0  0  0  0
  147.5794  141.2894  156.5451 C   0  0  0  0  0  0  0  0  0  0  0  0
  148.6662  141.7785  157.5292 C   0  0  0  0  0  0  0  0  0  0  0  0
  148.4822  136.6085  156.3688 H   0  0  0  0  0  0  0  0  0  0  0  0
  147.6156  135.6611  155.1518 H   0  0  0  0  0  0  0  0  0  0  0  0
  147.8679  137.3844  154.9016 H   0  0  0  0  0  0  0  0  0  0  0  0
  150.4694  134.8997  156.0621 H   0  0  0  0  0  0  0  0  0  0  0  0
  151.0417  134.6298  154.4108 H   0  0  0  0  0  0  0  0  0  0  0  0
  149.4380  134.0884  154.8798 H   0  0  0  0  0  0  0  0  0  0  0  0
  151.5444  137.0084  154.3354 H   0  0  0  0  0  0  0  0  0  0  0  0
  150.2429  138.1509  154.0864 H   0  0  0  0  0  0  0  0  0  0  0  0
  149.5082  139.4145  157.9530 H   0  0  0  0  0  0  0  0  0  0  0  0
  151.1738  139.7629  158.2496 H   0  0  0  0  0  0  0  0  0  0  0  0
  150.4495  144.1795  157.3330 H   0  0  0  0  0  0  0  0  0  0  0  0
  151.9728  145.4640  158.7998 H   0  0  0  0  0  0  0  0  0  0  0  0
  153.4748  142.0382  160.5408 H   0  0  0  0  0  0  0  0  0  0  0  0
  152.0323  140.5768  159.1794 H   0  0  0  0  0  0  0  0  0  0  0  0
  150.3803  142.8065  155.5701 H   0  0  0  0  0  0  0  0  0  0  0  0
  151.3372  141.3842  155.3093 H   0  0  0  0  0  0  0  0  0  0  0  0
  149.5051  141.5737  153.6880 H   0  0  0  0  0  0  0  0  0  0  0  0
  149.2849  140.1313  154.6359 H   0  0  0  0  0  0  0  0  0  0  0  0
  147.8453  142.7998  155.0261 H   0  0  0  0  0  0  0  0  0  0  0  0
  147.1339  141.3180  154.4283 H   0  0  0  0  0  0  0  0  0  0  0  0
  146.6115  141.6943  156.8419 H   0  0  0  0  0  0  0  0  0  0  0  0
  147.4773  140.2049  156.5963 H   0  0  0  0  0  0  0  0  0  0  0  0
  148.3743  141.4738  158.5356 H   0  0  0  0  0  0  0  0  0  0  0  0
  148.6092  142.8683  157.5378 H   0  0  0  0  0  0  0  0  0  0  0  0
  149.3781  136.1181  153.6215 H   0  0  0  0  0  0  0  0  0  0  0  0
  1  2  1  0  0  0  0
  1 21  1  0  0  0  0
  1 22  1  0  0  0  0
  1 23  1  0  0  0  0
  2  3  1  0  0  0  0
  2  4  1  0  0  0  0
  2 45  1  0  0  0  0
  3 24  1  0  0  0  0
  3 25  1  0  0  0  0
  3 26  1  0  0  0  0
  4  5  1  0  0  0  0
  4 27  1  0  0  0  0
  4 28  1  0  0  0  0
  5  6  2  0  0  0  0
  5  7  1  0  0  0  0
  7  8  1  0  0  0  0
  8  9  1  0  0  0  0
  8 29  1  0  0  0  0
  8 30  1  0  0  0  0
  9 20  1  0  0  0  0
  9 10  1  0  0  0  0
  9 16  1  0  0  0  0
 10 15  1  0  0  0  0
 10 11  2  0  0  0  0
 11 12  1  0  0  0  0
 11 31  1  0  0  0  0
 12 13  2  0  0  0  0
 12 32  1  0  0  0  0
 13 14  1  0  0  0  0
 14 15  2  0  0  0  0
 14 33  1  0  0  0  0
 15 34  1  0  0  0  0
 16 17  1  0  0  0  0
 16 35  1  0  0  0  0
 16 36  1  0  0  0  0
 17 18  1  0  0  0  0
 17 37  1  0  0  0  0
 17 38  1  0  0  0  0
 18 19  1  0  0  0  0
 18 39  1  0  0  0  0
 18 40  1  0  0  0  0
 19 20  1  0  0  0  0
 19 41  1  0  0  0  0
 19 42  1  0  0  0  0
 20 43  1  0  0  0  0
 20 44  1  0  0  0  0
M  CHG  1   2   1
M  CHG  1   7  -1
M  END
> <s_m_source_file>
AV-unprocessed.smi

> <i_m_source_file_index>
2790

> <i_lp_mmshare_version>
43012

> <i_f3d_flags>
0

> <s_epik_input>
W0NIM11OKFtDSDNdKVtDSDJdQyg9TylbTkhdW0NIMl1DMShbQ0gyXVtDSDJdW0NIMl1bQ0gyXVtDSDJdMSljMltjSF1bY0hdbltjSF1bY0hdMg==

> <s_epik_cmdline>
J2VwaWtfcHl0aG9uJywgJy1waCcsICc3LjAnLCAnLXRuJywgJzgnLCAnLW1hJywgJzIwMCcsICctbWV0YWxfYmluZGluZycsICctaW1hZScsICc8aW5maWxlLm1hZT4nLCAnLW9tYWUnLCAnPG91dGZpbGUubWFlPic=

> <r_epik_Ionization_Penalty>
6.38592

> <r_epik_Ionization_Penalty_Charging>
6.21784

> <r_epik_Ionization_Penalty_Neutral>
0.168075

> <r_epik_State_Penalty>
6.29446

> <r_epik_Charging_Adjusted_Penalty>
12.5123

> <i_epik_Tot_Q>
0

> <i_epik_Tot_abs_Q>
2

> <r_epik_Metal_State_Penalty>
2.27801

> <b_epik_Metal_Only>
1

> <s_lp_Force_Field>
OPLS_2005

> <r_lp_Energy>
25.1562

> <b_lp_Chiralities_Consistent>
1

> <s_lp_Variant>
AV-unprocessed.smi:2790-4

> <Gold.Version>
5.8.1

> <Gold.Id.Protein>
6NUR|6NUR_protein|mol2

> <Gold.PLP.Fitness>
36.1669

> <Gold.PLP.PLP>
-34.9838

> <Gold.PLP.part.hbond>
-1.0000

> <Gold.PLP.part.metal>
0.0000

> <Gold.PLP.part.buried>
-5.4390

> <Gold.PLP.part.nonpolar>
-29.0364

> <Gold.PLP.part.repulsive>
0.0395

> <Gold.PLP.ligand.clash>
1.5198

> <Gold.PLP.ligand.torsion>
1.6844

> <Gold.PLP.Chemscore.Hbond>
2.0000

> <Gold.PLP.Chemscore.CHOScore>
0.0000

> <Gold.PLP.Chemscore.Metal>
0.0000

> <Gold.Chemscore.Hbonds>
donor molecule, donor type, donor heavy atom, donor atom, acceptor molecule, acceptor atom, score
      L1  H     2    45       P1  7948  2.00

> <Gold.PLP.Chemscore.Internal.Correction>
0.0716

> <Gold.Rescore>
     Score         DG    S(hbond)    S(metal)    S(lipo)     H(rot)  DE(clash)    DE(int)     intcor
     13.87     -16.69       0.97        0.00     102.84       1.59       0.00       2.81       ----

> <Gold.Chemscore.Fitness>
13.8741

> <Gold.Chemscore.DG>
-16.6854

> <Gold.Chemscore.ZeroCoef>
-5.4800

> <Gold.Chemscore.Hbond>
0.9739

> <Gold.Chemscore.Metal>
0.0000

> <Gold.Chemscore.Lipo>
102.8435

> <Gold.Chemscore.Internal_Hbond>
0.0000

> <Gold.Chemscore.DEClash>
0.0000

> <Gold.Chemscore.DEInternal>
2.8113

> <Gold.Chemscore.Rot>
1.5938

> <Gold.Chemscore.Internal.Correction>
   9.000000E+99

> <Gold.Chemscore.Hbonds>
donor molecule, donor type, donor heavy atom, donor atom, acceptor molecule, acceptor atom, score
      L1  H     2    45       P1  7948  0.70

> <Gold.Chemscore.Hbond.Weighted>
-3.2529

> <Gold.Chemscore.Metal.Weighted>
-0.0000

> <Gold.Chemscore.Lipo.Weighted>
-12.0327

> <Gold.Chemscore.Internal_Hbond.Weighted>
0.0000

> <Gold.Chemscore.DEClash.Weighted>
0.0000

> <Gold.Chemscore.DEInternal.Weighted>
2.8113

> <Gold.Chemscore.Rot.Weighted>
4.0802

> <Gold.Chemscore.Internal.Correction.Weighted>
   9.000000E+99

> <Gold.Protein.RotatedTorsions>
[ 6907 6896 6895 6894 ] final   30.23 input  -60.11 | X-H torsion
[ 7974 7965 7964 7962 ] final  140.84 input  175.53 | X-H torsion
[ 8008 7997 7996 7995 ] final  124.71 input   59.86 | X-H torsion
[ 10167 10162 10161 10158 ] final  176.52 input  -65.29 | X-H torsion
[ 10718 10713 10712 10709 ] final  155.72 input   66.30 | X-H torsion
[ 10763 10752 10751 10750 ] final   34.09 input  -60.55 | X-H torsion
[ 11005 11000 10999 10996 ] final -144.26 input  -57.11 | X-H torsion

> <Gold.Protein.ActiveResidues>
 VAL166  LYS551  ARG553  GLY616  TRP617  ASP618  TYR619  PRO620  LYS621  CYS622 
 ASP623  PHE694  ASN695  SER759  ASP760  ASP761  ALA762  ILE779  LEU786  VAL792 
 PHE793  MET794  SER795  GLU796  ALA797  LYS798  CYS799  TRP800  GLU811  SER814 

> <Gold.Protein.RotatedAtoms>
  152.0430  134.9700  160.0573 H   0  0  0  0  0  0  0  0  0  0  0  0  # atno 6907 bound_to 6896
  152.1131  133.4307  159.4648 H   0  0  0  0  0  0  0  0  0  0  0  0  # atno 6908 bound_to 6896
  150.6844  134.2544  159.4567 H   0  0  0  0  0  0  0  0  0  0  0  0  # atno 6909 bound_to 6896
  144.9150  139.5242  143.5690 H   0  0  0  0  0  0  0  0  0  0  0  0  # atno 7974 bound_to 7965
  156.2810  140.2733  156.1831 H   0  0  0  0  0  0  0  0  0  0  0  0  # atno 8008 bound_to 7997
  155.0535  140.0386  157.2570 H   0  0  0  0  0  0  0  0  0  0  0  0  # atno 8009 bound_to 7997
  154.7175  140.2681  155.6577 H   0  0  0  0  0  0  0  0  0  0  0  0  # atno 8010 bound_to 7997
  139.5218  144.2905  152.0468 H   0  0  0  0  0  0  0  0  0  0  0  0  # atno 10167 bound_to 10162
  157.2146  131.0705  151.1949 H   0  0  0  0  0  0  0  0  0  0  0  0  # atno 10718 bound_to 10713
  153.0180  135.6369  154.1614 H   0  0  0  0  0  0  0  0  0  0  0  0  # atno 10763 bound_to 10752
  154.1351  135.2838  155.3177 H   0  0  0  0  0  0  0  0  0  0  0  0  # atno 10764 bound_to 10752
  154.6165  135.5539  153.7591 H   0  0  0  0  0  0  0  0  0  0  0  0  # atno 10765 bound_to 10752
  140.8043  134.2820  157.4966 H   0  0  0  0  0  0  0  0  0  0  0  0  # atno 11005 bound_to 11000
  146.3177  139.7986  142.8970 LP  0  0  0  0  0  0  0  0  0  0  0  0  # atno 17320 bound_to 7965
  145.3390  141.0283  143.3403 LP  0  0  0  0  0  0  0  0  0  0  0  0  # atno 17321 bound_to 7965
  140.2356  144.4323  150.6281 LP  0  0  0  0  0  0  0  0  0  0  0  0  # atno 17342 bound_to 10162
  140.6325  143.2190  151.6464 LP  0  0  0  0  0  0  0  0  0  0  0  0  # atno 17343 bound_to 10162
  157.3638  130.7145  149.6519 LP  0  0  0  0  0  0  0  0  0  0  0  0  # atno 17370 bound_to 10713
  155.9687  130.4218  150.4487 LP  0  0  0  0  0  0  0  0  0  0  0  0  # atno 17371 bound_to 10713
  139.8719  134.9447  156.3889 LP  0  0  0  0  0  0  0  0  0  0  0  0  # atno 17394 bound_to 11000
  140.9263  133.7610  155.9969 LP  0  0  0  0  0  0  0  0  0  0  0  0  # atno 17395 bound_to 11000

$$$$
