AV-unprocessed.smi:1994|AV-procd|sdf|8075|dock8
  -GOLD-   2272010283D 1   1.00000     0.00000
 Structure written by MMmdl.
 40 42  0  0  0  0  0  0  0  0  2 V2000
  154.2504  138.9154  159.1704 C   0  0  0  0  0  0  0  0  0  0  0  0
  153.8260  140.1319  159.9227 C   0  0  0  0  0  0  0  0  0  0  0  0
  154.1360  140.4221  161.2181 N   0  3  0  0  0  0  0  0  0  0  0  0
  153.5594  141.6407  161.5802 C   0  0  0  0  0  0  0  0  0  0  0  0
  153.5920  142.3446  162.7801 C   0  0  0  0  0  0  0  0  0  0  0  0
  152.8907  143.5681  162.8152 C   0  0  0  0  0  0  0  0  0  0  0  0
  152.1932  144.0476  161.6873 C   0  0  0  0  0  0  0  0  0  0  0  0
  152.1666  143.3246  160.4763 C   0  0  0  0  0  0  0  0  0  0  0  0
  152.8639  142.1172  160.4503 C   0  0  0  0  0  0  0  0  0  0  0  0
  153.0594  141.1569  159.4521 N   0  0  0  0  0  0  0  0  0  0  0  0
  152.4475  141.3624  158.1307 C   0  0  0  0  0  0  0  0  0  0  0  0
  151.5109  140.2100  157.7141 C   0  0  1  0  0  0  0  0  0  0  0  0
  150.3018  140.2894  158.4418 O   0  0  0  0  0  0  0  0  0  0  0  0
  151.1842  140.2370  156.2146 C   0  0  0  0  0  0  0  0  0  0  0  0
  150.0142  139.4618  155.9906 O   0  0  0  0  0  0  0  0  0  0  0  0
  149.0629  139.9484  155.1197 C   0  0  0  0  0  0  0  0  0  0  0  0
  148.8561  141.3268  154.8569 C   0  0  0  0  0  0  0  0  0  0  0  0
  147.8600  141.7385  153.9503 C   0  0  0  0  0  0  0  0  0  0  0  0
  147.0596  140.7830  153.2974 C   0  0  0  0  0  0  0  0  0  0  0  0
  147.2567  139.4135  153.5529 C   0  0  0  0  0  0  0  0  0  0  0  0
  148.2526  139.0004  154.4589 C   0  0  0  0  0  0  0  0  0  0  0  0
  148.4334  137.6788  154.6946 F   0  0  0  0  0  0  0  0  0  0  0  0
  154.9665  138.3349  159.7528 H   0  0  0  0  0  0  0  0  0  0  0  0
  154.7195  139.1973  158.2276 H   0  0  0  0  0  0  0  0  0  0  0  0
  153.3862  138.2866  158.9555 H   0  0  0  0  0  0  0  0  0  0  0  0
  154.1249  141.9790  163.6456 H   0  0  0  0  0  0  0  0  0  0  0  0
  152.8877  144.1504  163.7253 H   0  0  0  0  0  0  0  0  0  0  0  0
  151.6679  144.9894  161.7517 H   0  0  0  0  0  0  0  0  0  0  0  0
  151.6292  143.6995  159.6173 H   0  0  0  0  0  0  0  0  0  0  0  0
  151.8986  142.3046  158.1607 H   0  0  0  0  0  0  0  0  0  0  0  0
  153.2479  141.4987  157.4022 H   0  0  0  0  0  0  0  0  0  0  0  0
  151.9722  139.2519  157.9549 H   0  0  0  0  0  0  0  0  0  0  0  0
  149.7783  139.5307  158.2354 H   0  0  0  0  0  0  0  0  0  0  0  0
  151.0059  141.2656  155.8956 H   0  0  0  0  0  0  0  0  0  0  0  0
  152.0255  139.8438  155.6408 H   0  0  0  0  0  0  0  0  0  0  0  0
  149.4482  142.0892  155.3397 H   0  0  0  0  0  0  0  0  0  0  0  0
  147.7098  142.7903  153.7558 H   0  0  0  0  0  0  0  0  0  0  0  0
  146.2960  141.0999  152.6025 H   0  0  0  0  0  0  0  0  0  0  0  0
  146.6435  138.6782  153.0532 H   0  0  0  0  0  0  0  0  0  0  0  0
  154.6998  139.8261  161.8105 H   0  0  0  0  0  0  0  0  0  0  0  0
  1  2  1  0  0  0  0
  1 23  1  0  0  0  0
  1 24  1  0  0  0  0
  1 25  1  0  0  0  0
  2 10  1  0  0  0  0
  2  3  2  0  0  0  0
  3  4  1  0  0  0  0
  3 40  1  0  0  0  0
  4  9  2  0  0  0  0
  4  5  1  0  0  0  0
  5  6  2  0  0  0  0
  5 26  1  0  0  0  0
  6  7  1  0  0  0  0
  6 27  1  0  0  0  0
  7  8  2  0  0  0  0
  7 28  1  0  0  0  0
  8  9  1  0  0  0  0
  8 29  1  0  0  0  0
  9 10  1  0  0  0  0
 10 11  1  0  0  0  0
 11 12  1  0  0  0  0
 11 30  1  0  0  0  0
 11 31  1  0  0  0  0
 12 13  1  0  0  0  0
 12 14  1  0  0  0  0
 12 32  1  0  0  0  0
 13 33  1  0  0  0  0
 14 15  1  0  0  0  0
 14 34  1  0  0  0  0
 14 35  1  0  0  0  0
 15 16  1  0  0  0  0
 16 21  1  0  0  0  0
 16 17  2  0  0  0  0
 17 18  1  0  0  0  0
 17 36  1  0  0  0  0
 18 19  2  0  0  0  0
 18 37  1  0  0  0  0
 19 20  1  0  0  0  0
 19 38  1  0  0  0  0
 20 21  2  0  0  0  0
 20 39  1  0  0  0  0
 21 22  1  0  0  0  0
M  CHG  1   3   1
M  END
> <s_m_source_file>
AV-unprocessed.smi

> <i_m_source_file_index>
1994

> <i_lp_mmshare_version>
43012

> <i_f3d_flags>
0

> <s_epik_input>
W2NIXTFbY0hdW2NIXVtjSF1jKGMxMiluKGMobjIpW0NIM10pW0NIMl1bQ0BIXShbT0hdKVtDSDJdT2MzW2NIXVtjSF1bY0hdW2NIXWMzRg==

> <s_epik_cmdline>
J2VwaWtfcHl0aG9uJywgJy1waCcsICc3LjAnLCAnLXRuJywgJzgnLCAnLW1hJywgJzIwMCcsICctbWV0YWxfYmluZGluZycsICctaW1hZScsICc8aW5maWxlLm1hZT4nLCAnLW9tYWUnLCAnPG91dGZpbGUubWFlPic=

> <r_lp_tautomer_probability>
1

> <r_epik_Ionization_Penalty>
1.03916

> <r_epik_Ionization_Penalty_Charging>
1.03916

> <r_epik_Ionization_Penalty_Neutral>
2.3993e-06

> <r_epik_State_Penalty>
1.09101

> <r_epik_Charging_Adjusted_Penalty>
2.13018

> <i_epik_Tot_Q>
1

> <i_epik_Tot_abs_Q>
1

> <r_epik_Metal_State_Penalty>
5.08156

> <b_epik_Metal_Only>
0

> <s_lp_Force_Field>
OPLS_2005

> <r_lp_Energy>
18.0159

> <b_lp_Chiralities_Consistent>
1

> <s_lp_Variant>
AV-unprocessed.smi:1994-4

> <Gold.Version>
5.8.1

> <Gold.Id.Protein>
6NUR|6NUR_protein|mol2

> <Gold.PLP.Fitness>
44.0162

> <Gold.PLP.PLP>
-45.9225

> <Gold.PLP.part.hbond>
0.0000

> <Gold.PLP.part.metal>
0.0000

> <Gold.PLP.part.buried>
-4.6073

> <Gold.PLP.part.nonpolar>
-40.5219

> <Gold.PLP.part.repulsive>
0.0132

> <Gold.PLP.ligand.clash>
0.0000

> <Gold.PLP.ligand.torsion>
0.9685

> <Gold.PLP.Chemscore.Hbond>
0.0000

> <Gold.PLP.Chemscore.CHOScore>
0.0000

> <Gold.PLP.Chemscore.Metal>
0.0000

> <Gold.PLP.Chemscore.Internal.Correction>
0.0307

> <Gold.Rescore>
     Score         DG    S(hbond)    S(metal)    S(lipo)     H(rot)  DE(clash)    DE(int)     intcor
     13.99     -15.01       0.00        0.00     131.13       2.27       0.12       0.90       ----

> <Gold.Chemscore.Fitness>
13.9894

> <Gold.Chemscore.DG>
-15.0089

> <Gold.Chemscore.ZeroCoef>
-5.4800

> <Gold.Chemscore.Hbond>
0.0000

> <Gold.Chemscore.Metal>
0.0000

> <Gold.Chemscore.Lipo>
131.1257

> <Gold.Chemscore.Internal_Hbond>
0.0000

> <Gold.Chemscore.DEClash>
0.1175

> <Gold.Chemscore.DEInternal>
0.9020

> <Gold.Chemscore.Rot>
2.2706

> <Gold.Chemscore.Internal.Correction>
   9.000000E+99

> <Gold.Chemscore.Hbond.Weighted>
-0.0000

> <Gold.Chemscore.Metal.Weighted>
-0.0000

> <Gold.Chemscore.Lipo.Weighted>
-15.3417

> <Gold.Chemscore.Internal_Hbond.Weighted>
0.0000

> <Gold.Chemscore.DEClash.Weighted>
0.1175

> <Gold.Chemscore.DEInternal.Weighted>
0.9020

> <Gold.Chemscore.Rot.Weighted>
5.8128

> <Gold.Chemscore.Internal.Correction.Weighted>
   9.000000E+99

> <Gold.Protein.RotatedTorsions>
[ 6907 6896 6895 6894 ] final  -81.14 input  -60.11 | X-H torsion
[ 7974 7965 7964 7962 ] final   66.30 input  175.53 | X-H torsion
[ 8008 7997 7996 7995 ] final  159.89 input   59.86 | X-H torsion
[ 10167 10162 10161 10158 ] final   64.38 input  -65.29 | X-H torsion
[ 10718 10713 10712 10709 ] final   36.52 input   66.30 | X-H torsion
[ 10763 10752 10751 10750 ] final   -7.47 input  -60.55 | X-H torsion
[ 11005 11000 10999 10996 ] final -163.43 input  -57.11 | X-H torsion

> <Gold.Protein.ActiveResidues>
 VAL166  LYS551  ARG553  GLY616  TRP617  ASP618  TYR619  PRO620  LYS621  CYS622 
 ASP623  PHE694  ASN695  SER759  ASP760  ASP761  ALA762  ILE779  LEU786  VAL792 
 PHE793  MET794  SER795  GLU796  ALA797  LYS798  CYS799  TRP800  GLU811  SER814 

> <Gold.Protein.RotatedAtoms>
  150.6917  134.3863  159.5056 H   0  0  0  0  0  0  0  0  0  0  0  0  # atno 6907 bound_to 6896
  152.1658  134.8872  160.0547 H   0  0  0  0  0  0  0  0  0  0  0  0  # atno 6908 bound_to 6896
  151.9916  133.3758  159.4184 H   0  0  0  0  0  0  0  0  0  0  0  0  # atno 6909 bound_to 6896
  145.8283  139.3124  143.1002 H   0  0  0  0  0  0  0  0  0  0  0  0  # atno 7974 bound_to 7965
  156.2209  140.1819  156.7479 H   0  0  0  0  0  0  0  0  0  0  0  0  # atno 8008 bound_to 7997
  154.5864  140.0658  156.9205 H   0  0  0  0  0  0  0  0  0  0  0  0  # atno 8009 bound_to 7997
  155.2413  140.3322  155.4294 H   0  0  0  0  0  0  0  0  0  0  0  0  # atno 8010 bound_to 7997
  140.1228  144.4716  150.6910 H   0  0  0  0  0  0  0  0  0  0  0  0  # atno 10167 bound_to 10162
  157.3358  130.7522  149.6878 H   0  0  0  0  0  0  0  0  0  0  0  0  # atno 10718 bound_to 10713
  153.4268  135.7011  153.6257 H   0  0  0  0  0  0  0  0  0  0  0  0  # atno 10763 bound_to 10752
  153.4689  135.3719  155.2380 H   0  0  0  0  0  0  0  0  0  0  0  0  # atno 10764 bound_to 10752
  154.8724  135.4038  154.3645 H   0  0  0  0  0  0  0  0  0  0  0  0  # atno 10765 bound_to 10752
  140.5982  134.4975  157.5202 H   0  0  0  0  0  0  0  0  0  0  0  0  # atno 11005 bound_to 11000
  145.9599  140.8843  143.0216 LP  0  0  0  0  0  0  0  0  0  0  0  0  # atno 17320 bound_to 7965
  144.6742  140.1798  143.7407 LP  0  0  0  0  0  0  0  0  0  0  0  0  # atno 17321 bound_to 7965
  140.6862  143.2351  151.5253 LP  0  0  0  0  0  0  0  0  0  0  0  0  # atno 17342 bound_to 10162
  139.5560  144.2275  152.1612 LP  0  0  0  0  0  0  0  0  0  0  0  0  # atno 17343 bound_to 10162
  155.9701  130.4182  150.4315 LP  0  0  0  0  0  0  0  0  0  0  0  0  # atno 17370 bound_to 10713
  157.2354  131.0513  151.2467 LP  0  0  0  0  0  0  0  0  0  0  0  0  # atno 17371 bound_to 10713
  139.9244  134.8085  156.1113 LP  0  0  0  0  0  0  0  0  0  0  0  0  # atno 17394 bound_to 11000
  141.0890  133.6722  156.2499 LP  0  0  0  0  0  0  0  0  0  0  0  0  # atno 17395 bound_to 11000

$$$$
