AV-unprocessed.smi:3270|AV-procd|sdf|12513|dock2
  -GOLD-   2272018423D 1   1.00000     0.00000
 Structure written by MMmdl.
 38 39  0  0  0  0  0  0  0  0  1 V2000
  153.0305  142.7011  161.9312 C   0  0  0  0  0  0  0  0  0  0  0  0
  153.2599  142.6808  160.4062 C   0  0  1  0  0  0  0  0  0  0  0  0
  153.1633  141.2656  159.8015 C   0  0  0  0  0  0  0  0  0  0  0  0
  153.9879  140.3992  160.0954 O   0  0  0  0  0  0  0  0  0  0  0  0
  152.1586  141.0450  158.9386 N   0  0  0  0  0  0  0  0  0  0  0  0
  151.8991  139.7751  158.2757 C   0  0  0  0  0  0  0  0  0  0  0  0
  150.6586  139.8882  157.3752 C   0  0  0  0  0  0  0  0  0  0  0  0
  150.6097  138.9307  156.2718 N   0  0  0  0  0  0  0  0  0  0  0  0
  150.3994  137.5576  156.7269 C   0  0  0  0  0  0  0  0  0  0  0  0
  150.3794  136.5607  155.5546 C   0  0  0  0  0  0  0  0  0  0  0  0
  151.5874  136.6715  154.8091 O   0  0  0  0  0  0  0  0  0  0  0  0
  151.8028  137.9864  154.3072 C   0  0  0  0  0  0  0  0  0  0  0  0
  151.8329  138.9842  155.4779 C   0  0  0  0  0  0  0  0  0  0  0  0
  152.3710  143.6176  159.7252 N   0  0  0  0  0  0  0  0  0  0  0  0
  151.7084  144.7029  160.2623 C   0  0  0  0  0  0  0  0  0  0  0  0
  151.0103  145.2991  159.2516 C   0  0  0  0  0  0  0  0  0  0  0  0
  151.3141  144.5007  158.1142 C   0  0  0  0  0  0  0  0  0  0  0  0
  152.1293  143.4985  158.3986 N   0  0  0  0  0  0  0  0  0  0  0  0
  153.7663  142.0871  162.4518 H   0  0  0  0  0  0  0  0  0  0  0  0
  152.0399  142.3295  162.1974 H   0  0  0  0  0  0  0  0  0  0  0  0
  153.1188  143.7146  162.3236 H   0  0  0  0  0  0  0  0  0  0  0  0
  154.2808  143.0211  160.2268 H   0  0  0  0  0  0  0  0  0  0  0  0
  151.5217  141.8038  158.7437 H   0  0  0  0  0  0  0  0  0  0  0  0
  152.7830  139.5048  157.6979 H   0  0  0  0  0  0  0  0  0  0  0  0
  151.7431  138.9918  159.0196 H   0  0  0  0  0  0  0  0  0  0  0  0
  149.7799  139.7396  158.0049 H   0  0  0  0  0  0  0  0  0  0  0  0
  150.5793  140.9041  156.9851 H   0  0  0  0  0  0  0  0  0  0  0  0
  151.1871  137.2747  157.4271 H   0  0  0  0  0  0  0  0  0  0  0  0
  149.4566  137.4767  157.2665 H   0  0  0  0  0  0  0  0  0  0  0  0
  150.2819  135.5403  155.9260 H   0  0  0  0  0  0  0  0  0  0  0  0
  149.5242  136.7480  154.9033 H   0  0  0  0  0  0  0  0  0  0  0  0
  152.7471  138.0104  153.7633 H   0  0  0  0  0  0  0  0  0  0  0  0
  151.0164  138.2464  153.5970 H   0  0  0  0  0  0  0  0  0  0  0  0
  151.9768  139.9919  155.0867 H   0  0  0  0  0  0  0  0  0  0  0  0
  152.6950  138.7695  156.1116 H   0  0  0  0  0  0  0  0  0  0  0  0
  151.7876  144.9580  161.3091 H   0  0  0  0  0  0  0  0  0  0  0  0
  150.3794  146.1732  159.3148 H   0  0  0  0  0  0  0  0  0  0  0  0
  150.9701  144.6198  157.0973 H   0  0  0  0  0  0  0  0  0  0  0  0
  1  2  1  0  0  0  0
  1 19  1  0  0  0  0
  1 20  1  0  0  0  0
  1 21  1  0  0  0  0
  2  3  1  0  0  0  0
  2 14  1  0  0  0  0
  2 22  1  0  0  0  0
  3  4  2  0  0  0  0
  3  5  1  0  0  0  0
  5  6  1  0  0  0  0
  5 23  1  0  0  0  0
  6  7  1  0  0  0  0
  6 24  1  0  0  0  0
  6 25  1  0  0  0  0
  7  8  1  0  0  0  0
  7 26  1  0  0  0  0
  7 27  1  0  0  0  0
  8 13  1  0  0  0  0
  8  9  1  0  0  0  0
  9 10  1  0  0  0  0
  9 28  1  0  0  0  0
  9 29  1  0  0  0  0
 10 11  1  0  0  0  0
 10 30  1  0  0  0  0
 10 31  1  0  0  0  0
 11 12  1  0  0  0  0
 12 13  1  0  0  0  0
 12 32  1  0  0  0  0
 12 33  1  0  0  0  0
 13 34  1  0  0  0  0
 13 35  1  0  0  0  0
 14 18  1  0  0  0  0
 14 15  1  0  0  0  0
 15 16  2  0  0  0  0
 15 36  1  0  0  0  0
 16 17  1  0  0  0  0
 16 37  1  0  0  0  0
 17 18  2  0  0  0  0
 17 38  1  0  0  0  0
M  END
> <s_m_source_file>
AV-unprocessed.smi

> <i_m_source_file_index>
3270

> <i_lp_mmshare_version>
43012

> <i_f3d_flags>
0

> <s_epik_input>
bjFbY0hdW2NIXVtjSF1uMVtDQEhdKFtDSDNdKUMoPU8pW05IXVtDSDJdW0NIMl1OMltDSDJdW0NIMl1PW0NIMl1bQ0gyXTI=

> <s_epik_cmdline>
J2VwaWtfcHl0aG9uJywgJy1waCcsICc3LjAnLCAnLXRuJywgJzgnLCAnLW1hJywgJzIwMCcsICctbWV0YWxfYmluZGluZycsICctaW1hZScsICc8aW5maWxlLm1hZT4nLCAnLW9tYWUnLCAnPG91dGZpbGUubWFlPic=

> <r_lp_tautomer_probability>
1

> <r_epik_Ionization_Penalty>
0.203323

> <r_epik_Ionization_Penalty_Charging>
0

> <r_epik_Ionization_Penalty_Neutral>
0.203323

> <r_epik_State_Penalty>
0.193192

> <r_epik_Charging_Adjusted_Penalty>
0.193192

> <i_epik_Tot_Q>
0

> <i_epik_Tot_abs_Q>
0

> <r_epik_Metal_State_Penalty>
0.193187

> <b_epik_Metal_Only>
0

> <s_lp_Force_Field>
OPLS_2005

> <r_lp_Energy>
25.3567

> <b_lp_Chiralities_Consistent>
1

> <s_lp_Variant>
AV-unprocessed.smi:3270-2

> <Gold.Version>
5.8.1

> <Gold.Id.Protein>
6NUR|6NUR_protein|mol2

> <Gold.PLP.Fitness>
45.1331

> <Gold.PLP.PLP>
-40.9305

> <Gold.PLP.part.hbond>
-1.0000

> <Gold.PLP.part.metal>
0.0000

> <Gold.PLP.part.buried>
-7.7146

> <Gold.PLP.part.nonpolar>
-33.3328

> <Gold.PLP.part.repulsive>
0.2953

> <Gold.PLP.ligand.clash>
0.0000

> <Gold.PLP.ligand.torsion>
0.9445

> <Gold.PLP.Chemscore.Hbond>
1.0000

> <Gold.PLP.Chemscore.CHOScore>
0.9853

> <Gold.PLP.Chemscore.Metal>
0.0000

> <Gold.Chemscore.Hbonds>
donor molecule, donor type, donor heavy atom, donor atom, acceptor molecule, acceptor atom, score
      P1  H 10752 10764       L1    11  1.00
      L1  C    17    38       P1  8028  1.00

> <Gold.PLP.Chemscore.Internal.Correction>
0.1356

> <Gold.Rescore>
     Score         DG    S(hbond)    S(metal)    S(lipo)     H(rot)  DE(clash)    DE(int)     intcor
     12.08     -14.92       0.98        0.00      92.82       1.83       0.07       2.77       ----

> <Gold.Chemscore.Fitness>
12.0763

> <Gold.Chemscore.DG>
-14.9184

> <Gold.Chemscore.ZeroCoef>
-5.4800

> <Gold.Chemscore.Hbond>
0.9764

> <Gold.Chemscore.Metal>
0.0000

> <Gold.Chemscore.Lipo>
92.8159

> <Gold.Chemscore.Internal_Hbond>
0.0000

> <Gold.Chemscore.DEClash>
0.0712

> <Gold.Chemscore.DEInternal>
2.7709

> <Gold.Chemscore.Rot>
1.8290

> <Gold.Chemscore.Internal.Correction>
   9.000000E+99

> <Gold.Chemscore.Hbonds>
donor molecule, donor type, donor heavy atom, donor atom, acceptor molecule, acceptor atom, score
      P1  H 10752 10764       L1    11  0.78

> <Gold.Chemscore.Hbond.Weighted>
-3.2610

> <Gold.Chemscore.Metal.Weighted>
-0.0000

> <Gold.Chemscore.Lipo.Weighted>
-10.8595

> <Gold.Chemscore.Internal_Hbond.Weighted>
0.0000

> <Gold.Chemscore.DEClash.Weighted>
0.0712

> <Gold.Chemscore.DEInternal.Weighted>
2.7709

> <Gold.Chemscore.Rot.Weighted>
4.6821

> <Gold.Chemscore.Internal.Correction.Weighted>
   9.000000E+99

> <Gold.Protein.RotatedTorsions>
[ 6907 6896 6895 6894 ] final   71.96 input  -60.11 | X-H torsion
[ 7974 7965 7964 7962 ] final   -1.04 input  175.53 | X-H torsion
[ 8008 7997 7996 7995 ] final    8.86 input   59.86 | X-H torsion
[ 10167 10162 10161 10158 ] final   61.49 input  -65.29 | X-H torsion
[ 10718 10713 10712 10709 ] final -128.26 input   66.30 | X-H torsion
[ 10763 10752 10751 10750 ] final  -71.14 input  -60.55 | X-H torsion
[ 11005 11000 10999 10996 ] final   63.02 input  -57.11 | X-H torsion

> <Gold.Protein.ActiveResidues>
 VAL166  LYS551  ARG553  GLY616  TRP617  ASP618  TYR619  PRO620  LYS621  CYS622 
 ASP623  PHE694  ASN695  SER759  ASP760  ASP761  ALA762  ILE779  LEU786  VAL792 
 PHE793  MET794  SER795  GLU796  ALA797  LYS798  CYS799  TRP800  GLU811  SER814 

> <Gold.Protein.RotatedAtoms>
  152.4841  134.4642  159.9614 H   0  0  0  0  0  0  0  0  0  0  0  0  # atno 6907 bound_to 6896
  151.4642  133.3579  159.2821 H   0  0  0  0  0  0  0  0  0  0  0  0  # atno 6908 bound_to 6896
  150.8936  134.8367  159.7371 H   0  0  0  0  0  0  0  0  0  0  0  0  # atno 6909 bound_to 6896
  146.2421  140.1361  142.8336 H   0  0  0  0  0  0  0  0  0  0  0  0  # atno 7974 bound_to 7965
  154.7724  140.2804  155.6127 H   0  0  0  0  0  0  0  0  0  0  0  0  # atno 8008 bound_to 7997
  156.2936  140.2639  156.2458 H   0  0  0  0  0  0  0  0  0  0  0  0  # atno 8009 bound_to 7997
  154.9883  140.0374  157.2298 H   0  0  0  0  0  0  0  0  0  0  0  0  # atno 8010 bound_to 7997
  140.1542  144.4434  150.6743 H   0  0  0  0  0  0  0  0  0  0  0  0  # atno 10167 bound_to 10162
  156.1934  130.6810  151.0452 H   0  0  0  0  0  0  0  0  0  0  0  0  # atno 10718 bound_to 10713
  154.4275  135.5972  153.6048 H   0  0  0  0  0  0  0  0  0  0  0  0  # atno 10763 bound_to 10752
  152.9797  135.5967  154.3880 H   0  0  0  0  0  0  0  0  0  0  0  0  # atno 10764 bound_to 10752
  154.3713  135.2841  155.2243 H   0  0  0  0  0  0  0  0  0  0  0  0  # atno 10765 bound_to 10752
  140.0053  134.6379  155.9865 H   0  0  0  0  0  0  0  0  0  0  0  0  # atno 11005 bound_to 11000
  145.0285  140.8852  143.5123 LP  0  0  0  0  0  0  0  0  0  0  0  0  # atno 17320 bound_to 7965
  145.1421  139.2566  143.5484 LP  0  0  0  0  0  0  0  0  0  0  0  0  # atno 17321 bound_to 7965
  140.6684  143.2276  151.5687 LP  0  0  0  0  0  0  0  0  0  0  0  0  # atno 17342 bound_to 10162
  139.5412  144.2644  152.1353 LP  0  0  0  0  0  0  0  0  0  0  0  0  # atno 17343 bound_to 10162
  157.6943  131.0799  150.7016 LP  0  0  0  0  0  0  0  0  0  0  0  0  # atno 17370 bound_to 10713
  156.7072  130.4641  149.5557 LP  0  0  0  0  0  0  0  0  0  0  0  0  # atno 17371 bound_to 10713
  141.1672  133.6537  156.4521 LP  0  0  0  0  0  0  0  0  0  0  0  0  # atno 17394 bound_to 11000
  140.4653  134.6803  157.5104 LP  0  0  0  0  0  0  0  0  0  0  0  0  # atno 17395 bound_to 11000

$$$$
