AV-unprocessed.smi:1265|AV-procd|sdf|5317|dock8
  -GOLD-   22720 4443D 1   1.00000     0.00000
 Structure written by MMmdl.
 45 47  0  0  0  0  0  0  0  0  2 V2000
  151.6582  140.9362  156.9881 O   0  0  0  0  0  0  0  0  0  0  0  0
  151.1303  142.0433  157.0838 C   0  0  0  0  0  0  0  0  0  0  0  0
  150.2814  142.5399  156.1730 N   0  0  0  0  0  0  0  0  0  0  0  0
  149.8629  141.8766  154.9384 C   0  0  0  0  0  0  0  0  0  0  0  0
  148.9164  140.6591  155.2026 C   0  0  1  0  0  0  0  0  0  0  0  0
  149.6880  139.5161  155.7825 N   0  0  0  0  0  0  0  0  0  0  0  0
  148.9004  138.3394  156.1793 C   0  0  0  0  0  0  0  0  0  0  0  0
  149.7637  137.2482  156.8356 C   0  0  0  0  0  0  0  0  0  0  0  0
  150.8141  136.8698  155.9565 O   0  0  0  0  0  0  0  0  0  0  0  0
  151.6474  137.9687  155.6149 C   0  0  0  0  0  0  0  0  0  0  0  0
  150.8060  139.0657  154.9417 C   0  0  0  0  0  0  0  0  0  0  0  0
  147.7545  141.1469  156.1163 C   0  0  0  0  0  0  0  0  0  0  0  0
  146.8375  142.0772  155.3147 C   0  0  0  0  0  0  0  0  0  0  0  0
  146.8513  141.5009  153.6008 S   0  0  0  0  0  0  0  0  0  0  0  0
  148.1942  140.3118  153.8752 C   0  0  0  0  0  0  0  0  0  0  0  0
  151.3113  142.9109  158.0950 N   0  0  0  0  0  0  0  0  0  0  0  0
  152.1032  142.7776  159.2696 C   0  0  0  0  0  0  0  0  0  0  0  0
  151.9669  143.7813  160.2549 C   0  0  0  0  0  0  0  0  0  0  0  0
  152.7307  143.7078  161.4374 C   0  0  0  0  0  0  0  0  0  0  0  0
  153.5907  142.6834  161.6191 N   0  3  0  0  0  0  0  0  0  0  0  0
  153.7637  141.7058  160.7043 C   0  0  0  0  0  0  0  0  0  0  0  0
  153.0283  141.7265  159.5015 C   0  0  0  0  0  0  0  0  0  0  0  0
  149.9030  143.4624  156.3311 H   0  0  0  0  0  0  0  0  0  0  0  0
  149.4130  142.5966  154.2554 H   0  0  0  0  0  0  0  0  0  0  0  0
  150.7637  141.5647  154.4118 H   0  0  0  0  0  0  0  0  0  0  0  0
  148.1364  138.6053  156.9059 H   0  0  0  0  0  0  0  0  0  0  0  0
  148.3907  137.9088  155.3181 H   0  0  0  0  0  0  0  0  0  0  0  0
  150.1791  137.6007  157.7812 H   0  0  0  0  0  0  0  0  0  0  0  0
  149.1568  136.3711  157.0608 H   0  0  0  0  0  0  0  0  0  0  0  0
  152.1421  138.3537  156.5081 H   0  0  0  0  0  0  0  0  0  0  0  0
  152.4303  137.6244  154.9390 H   0  0  0  0  0  0  0  0  0  0  0  0
  150.4290  138.6894  153.9901 H   0  0  0  0  0  0  0  0  0  0  0  0
  151.4791  139.8879  154.7097 H   0  0  0  0  0  0  0  0  0  0  0  0
  147.1191  140.3190  156.4221 H   0  0  0  0  0  0  0  0  0  0  0  0
  148.1043  141.6183  157.0345 H   0  0  0  0  0  0  0  0  0  0  0  0
  145.8217  142.0837  155.7105 H   0  0  0  0  0  0  0  0  0  0  0  0
  147.2030  143.1036  155.3453 H   0  0  0  0  0  0  0  0  0  0  0  0
  148.8701  140.3025  153.0196 H   0  0  0  0  0  0  0  0  0  0  0  0
  147.7267  139.3298  153.9191 H   0  0  0  0  0  0  0  0  0  0  0  0
  150.7734  143.7631  158.0369 H   0  0  0  0  0  0  0  0  0  0  0  0
  151.2796  144.6027  160.1111 H   0  0  0  0  0  0  0  0  0  0  0  0
  152.6807  144.4333  162.2362 H   0  0  0  0  0  0  0  0  0  0  0  0
  154.4849  140.9424  160.9575 H   0  0  0  0  0  0  0  0  0  0  0  0
  153.1999  140.9391  158.7849 H   0  0  0  0  0  0  0  0  0  0  0  0
  154.1351  142.6483  162.4816 H   0  0  0  0  0  0  0  0  0  0  0  0
  1  2  2  0  0  0  0
  2  3  1  0  0  0  0
  2 16  1  0  0  0  0
  3  4  1  0  0  0  0
  3 23  1  0  0  0  0
  4  5  1  0  0  0  0
  4 24  1  0  0  0  0
  4 25  1  0  0  0  0
  5 15  1  0  0  0  0
  5  6  1  0  0  0  0
  5 12  1  0  0  0  0
  6 11  1  0  0  0  0
  6  7  1  0  0  0  0
  7  8  1  0  0  0  0
  7 26  1  0  0  0  0
  7 27  1  0  0  0  0
  8  9  1  0  0  0  0
  8 28  1  0  0  0  0
  8 29  1  0  0  0  0
  9 10  1  0  0  0  0
 10 11  1  0  0  0  0
 10 30  1  0  0  0  0
 10 31  1  0  0  0  0
 11 32  1  0  0  0  0
 11 33  1  0  0  0  0
 12 13  1  0  0  0  0
 12 34  1  0  0  0  0
 12 35  1  0  0  0  0
 13 14  1  0  0  0  0
 13 36  1  0  0  0  0
 13 37  1  0  0  0  0
 14 15  1  0  0  0  0
 15 38  1  0  0  0  0
 15 39  1  0  0  0  0
 16 17  1  0  0  0  0
 16 40  1  0  0  0  0
 17 22  1  0  0  0  0
 17 18  2  0  0  0  0
 18 19  1  0  0  0  0
 18 41  1  0  0  0  0
 19 20  2  0  0  0  0
 19 42  1  0  0  0  0
 20 21  1  0  0  0  0
 20 45  1  0  0  0  0
 21 22  2  0  0  0  0
 21 43  1  0  0  0  0
 22 44  1  0  0  0  0
M  CHG  1  20   1
M  END
> <s_m_source_file>
AV-unprocessed.smi

> <i_m_source_file_index>
1265

> <i_lp_mmshare_version>
43012

> <i_f3d_flags>
0

> <s_epik_input>
W2NIXTFbY0hdbltjSF1bY0hdYzFbTkhdQyg9TylbTkhdW0NIMl1bQ0BdMihbQ0gyXVtDSDJdU1tDSDJdMilOM1tDSDJdW0NIMl1PW0NIMl1bQ0gyXTM=

> <s_epik_cmdline>
J2VwaWtfcHl0aG9uJywgJy1waCcsICc3LjAnLCAnLXRuJywgJzgnLCAnLW1hJywgJzIwMCcsICctbWV0YWxfYmluZGluZycsICctaW1hZScsICc8aW5maWxlLm1hZT4nLCAnLW9tYWUnLCAnPG91dGZpbGUubWFlPic=

> <r_epik_Ionization_Penalty>
1.06168

> <r_epik_Ionization_Penalty_Charging>
1.04215

> <r_epik_Ionization_Penalty_Neutral>
0.019527

> <r_epik_State_Penalty>
1.12733

> <r_epik_Charging_Adjusted_Penalty>
2.16948

> <i_epik_Tot_Q>
1

> <i_epik_Tot_abs_Q>
1

> <r_epik_Metal_State_Penalty>
1.22116

> <b_epik_Metal_Only>
0

> <s_lp_Force_Field>
OPLS_2005

> <r_lp_Energy>
64.97

> <b_lp_Chiralities_Consistent>
1

> <s_lp_Variant>
AV-unprocessed.smi:1265-3

> <Gold.Version>
5.8.1

> <Gold.Id.Protein>
6NUR|6NUR_protein|mol2

> <Gold.PLP.Fitness>
37.9890

> <Gold.PLP.PLP>
-35.7579

> <Gold.PLP.part.hbond>
-1.0000

> <Gold.PLP.part.metal>
0.0000

> <Gold.PLP.part.buried>
-2.3320

> <Gold.PLP.part.nonpolar>
-30.9246

> <Gold.PLP.part.repulsive>
0.2383

> <Gold.PLP.ligand.clash>
0.0000

> <Gold.PLP.ligand.torsion>
0.2197

> <Gold.PLP.Chemscore.Hbond>
0.8640

> <Gold.PLP.Chemscore.CHOScore>
0.0000

> <Gold.PLP.Chemscore.Metal>
0.0000

> <Gold.Chemscore.Hbonds>
donor molecule, donor type, donor heavy atom, donor atom, acceptor molecule, acceptor atom, score
      L1  H     3    23       P1  8028  0.90

> <Gold.PLP.Chemscore.Internal.Correction>
0.0785

> <Gold.Rescore>
     Score         DG    S(hbond)    S(metal)    S(lipo)     H(rot)  DE(clash)    DE(int)     intcor
     14.07     -17.12       0.98        0.00     103.84       1.47       0.35       2.71       ----

> <Gold.Chemscore.Fitness>
14.0672

> <Gold.Chemscore.DG>
-17.1214

> <Gold.Chemscore.ZeroCoef>
-5.4800

> <Gold.Chemscore.Hbond>
0.9780

> <Gold.Chemscore.Metal>
0.0000

> <Gold.Chemscore.Lipo>
103.8371

> <Gold.Chemscore.Internal_Hbond>
0.0000

> <Gold.Chemscore.DEClash>
0.3455

> <Gold.Chemscore.DEInternal>
2.7087

> <Gold.Chemscore.Rot>
1.4743

> <Gold.Chemscore.Internal.Correction>
   9.000000E+99

> <Gold.Chemscore.Hbonds>
donor molecule, donor type, donor heavy atom, donor atom, acceptor molecule, acceptor atom, score
      L1  H     3    23       P1  8028  0.88

> <Gold.Chemscore.Hbond.Weighted>
-3.2667

> <Gold.Chemscore.Metal.Weighted>
-0.0000

> <Gold.Chemscore.Lipo.Weighted>
-12.1489

> <Gold.Chemscore.Internal_Hbond.Weighted>
0.0000

> <Gold.Chemscore.DEClash.Weighted>
0.3455

> <Gold.Chemscore.DEInternal.Weighted>
2.7087

> <Gold.Chemscore.Rot.Weighted>
3.7742

> <Gold.Chemscore.Internal.Correction.Weighted>
   9.000000E+99

> <Gold.Protein.RotatedTorsions>
[ 6907 6896 6895 6894 ] final   42.45 input  -60.11 | X-H torsion
[ 7974 7965 7964 7962 ] final  160.70 input  175.53 | X-H torsion
[ 8008 7997 7996 7995 ] final   52.82 input   59.86 | X-H torsion
[ 10167 10162 10161 10158 ] final -110.31 input  -65.29 | X-H torsion
[ 10718 10713 10712 10709 ] final  -23.26 input   66.30 | X-H torsion
[ 10763 10752 10751 10750 ] final -120.08 input  -60.55 | X-H torsion
[ 11005 11000 10999 10996 ] final  175.61 input  -57.11 | X-H torsion

> <Gold.Protein.ActiveResidues>
 VAL166  LYS551  ARG553  GLY616  TRP617  ASP618  TYR619  PRO620  LYS621  CYS622 
 ASP623  PHE694  ASN695  SER759  ASP760  ASP761  ALA762  ILE779  LEU786  VAL792 
 PHE793  MET794  SER795  GLU796  ALA797  LYS798  CYS799  TRP800  GLU811  SER814 

> <Gold.Protein.RotatedAtoms>
  152.2080  134.8527  160.0500 H   0  0  0  0  0  0  0  0  0  0  0  0  # atno 6907 bound_to 6896
  151.9356  133.3618  159.3955 H   0  0  0  0  0  0  0  0  0  0  0  0  # atno 6908 bound_to 6896
  150.6970  134.4417  159.5339 H   0  0  0  0  0  0  0  0  0  0  0  0  # atno 6909 bound_to 6896
  144.7723  139.7794  143.6292 H   0  0  0  0  0  0  0  0  0  0  0  0  # atno 7974 bound_to 7965
  155.4580  140.3460  155.4309 H   0  0  0  0  0  0  0  0  0  0  0  0  # atno 8008 bound_to 7997
  156.1178  140.1479  156.9277 H   0  0  0  0  0  0  0  0  0  0  0  0  # atno 8009 bound_to 7997
  154.4802  140.0872  156.7337 H   0  0  0  0  0  0  0  0  0  0  0  0  # atno 8010 bound_to 7997
  140.1458  143.4240  152.1530 H   0  0  0  0  0  0  0  0  0  0  0  0  # atno 10167 bound_to 10162
  156.4934  130.4571  149.6742 H   0  0  0  0  0  0  0  0  0  0  0  0  # atno 10718 bound_to 10713
  154.8635  135.4215  154.2403 H   0  0  0  0  0  0  0  0  0  0  0  0  # atno 10763 bound_to 10752
  153.3369  135.6991  153.6905 H   0  0  0  0  0  0  0  0  0  0  0  0  # atno 10764 bound_to 10752
  153.5899  135.3557  155.2880 H   0  0  0  0  0  0  0  0  0  0  0  0  # atno 10765 bound_to 10752
  140.3641  134.7087  157.4350 H   0  0  0  0  0  0  0  0  0  0  0  0  # atno 11005 bound_to 11000
  146.1879  139.5103  142.9824 LP  0  0  0  0  0  0  0  0  0  0  0  0  # atno 17320 bound_to 7965
  145.6287  141.0308  143.1875 LP  0  0  0  0  0  0  0  0  0  0  0  0  # atno 17321 bound_to 7965
  139.5449  144.7290  151.4614 LP  0  0  0  0  0  0  0  0  0  0  0  0  # atno 17342 bound_to 10162
  140.6732  143.8247  150.7026 LP  0  0  0  0  0  0  0  0  0  0  0  0  # atno 17343 bound_to 10162
  156.3404  130.7379  151.2323 LP  0  0  0  0  0  0  0  0  0  0  0  0  # atno 17370 bound_to 10713
  157.7471  131.0405  150.4602 LP  0  0  0  0  0  0  0  0  0  0  0  0  # atno 17371 bound_to 10713
  140.0604  134.6004  155.8756 LP  0  0  0  0  0  0  0  0  0  0  0  0  # atno 17394 bound_to 11000
  141.1975  133.6597  156.5745 LP  0  0  0  0  0  0  0  0  0  0  0  0  # atno 17395 bound_to 11000

$$$$
