AV-unprocessed.smi:1471|AV-procd|sdf|5962|dock6
  -GOLD-   22720 6 53D 1   1.00000     0.00000
 Structure written by MMmdl.
 42 43  0  0  0  0  0  0  0  0  1 V2000
  145.4372  143.9979  153.1132 C   0  0  0  0  0  0  0  0  0  0  0  0
  145.6795  143.3609  154.4546 C   0  0  0  0  0  0  0  0  0  0  0  0
  146.6303  142.4883  154.5197 N   0  0  0  0  0  0  0  0  0  0  0  0
  146.9622  141.8659  155.7090 N   0  0  0  0  0  0  0  0  0  0  0  0
  148.0992  140.9337  155.6053 C   0  0  0  0  0  0  0  0  0  0  0  0
  149.3504  141.5466  154.9316 C   0  0  2  0  0  0  0  0  0  0  0  0
  149.3793  141.2026  153.5621 O   0  0  0  0  0  0  0  0  0  0  0  0
  150.6968  141.1633  155.5718 C   0  0  0  0  0  0  0  0  0  0  0  0
  150.7688  141.6393  156.9086 O   0  0  0  0  0  0  0  0  0  0  0  0
  152.0154  141.3810  157.5397 C   0  0  0  0  0  0  0  0  0  0  0  0
  152.2454  142.2471  158.7682 C   0  0  0  0  0  0  0  0  0  0  0  0
  152.6258  141.6557  159.9921 C   0  0  0  0  0  0  0  0  0  0  0  0
  152.8476  142.4559  161.1295 C   0  0  0  0  0  0  0  0  0  0  0  0
  152.6764  143.8510  161.0531 C   0  0  0  0  0  0  0  0  0  0  0  0
  152.2857  144.4446  159.8379 C   0  0  0  0  0  0  0  0  0  0  0  0
  152.0773  143.6474  158.6955 C   0  0  0  0  0  0  0  0  0  0  0  0
  151.7204  144.2346  157.5281 F   0  0  0  0  0  0  0  0  0  0  0  0
  146.3032  142.0580  156.8891 C   0  0  0  0  0  0  0  0  0  0  0  0
  146.6028  141.4677  157.9276 O   0  0  0  0  0  0  0  0  0  0  0  0
  145.2132  143.0325  156.8028 C   0  0  0  0  0  0  0  0  0  0  0  0
  144.5003  143.2640  158.0177 C   0  0  0  0  0  0  0  0  0  0  0  0
  143.9373  143.4384  159.0141 N   0  0  0  0  0  0  0  0  0  0  0  0
  144.9066  143.6768  155.6497 C   0  0  0  0  0  0  0  0  0  0  0  0
  143.7977  144.7110  155.5143 C   0  0  0  0  0  0  0  0  0  0  0  0
  144.4452  143.7450  152.7387 H   0  0  0  0  0  0  0  0  0  0  0  0
  146.1648  143.6690  152.3694 H   0  0  0  0  0  0  0  0  0  0  0  0
  145.5077  145.0835  153.1816 H   0  0  0  0  0  0  0  0  0  0  0  0
  148.3961  140.5512  156.5829 H   0  0  0  0  0  0  0  0  0  0  0  0
  147.7732  140.0591  155.0404 H   0  0  0  0  0  0  0  0  0  0  0  0
  149.2674  142.6336  154.9605 H   0  0  0  0  0  0  0  0  0  0  0  0
  150.0751  140.5772  153.4271 H   0  0  0  0  0  0  0  0  0  0  0  0
  150.8490  140.0830  155.5406 H   0  0  0  0  0  0  0  0  0  0  0  0
  151.4984  141.6065  154.9817 H   0  0  0  0  0  0  0  0  0  0  0  0
  152.0233  140.3350  157.8468 H   0  0  0  0  0  0  0  0  0  0  0  0
  152.8408  141.4903  156.8341 H   0  0  0  0  0  0  0  0  0  0  0  0
  152.7556  140.5857  160.0597 H   0  0  0  0  0  0  0  0  0  0  0  0
  153.1461  141.9995  162.0617 H   0  0  0  0  0  0  0  0  0  0  0  0
  152.8447  144.4656  161.9252 H   0  0  0  0  0  0  0  0  0  0  0  0
  152.1560  145.5152  159.7785 H   0  0  0  0  0  0  0  0  0  0  0  0
  143.2517  144.8559  156.4459 H   0  0  0  0  0  0  0  0  0  0  0  0
  143.0762  144.4042  154.7562 H   0  0  0  0  0  0  0  0  0  0  0  0
  144.2125  145.6772  155.2251 H   0  0  0  0  0  0  0  0  0  0  0  0
  1  2  1  0  0  0  0
  1 25  1  0  0  0  0
  1 26  1  0  0  0  0
  1 27  1  0  0  0  0
  2 23  1  0  0  0  0
  2  3  2  0  0  0  0
  3  4  1  0  0  0  0
  4  5  1  0  0  0  0
  4 18  1  0  0  0  0
  5  6  1  0  0  0  0
  5 28  1  0  0  0  0
  5 29  1  0  0  0  0
  6  7  1  0  0  0  0
  6  8  1  0  0  0  0
  6 30  1  0  0  0  0
  7 31  1  0  0  0  0
  8  9  1  0  0  0  0
  8 32  1  0  0  0  0
  8 33  1  0  0  0  0
  9 10  1  0  0  0  0
 10 11  1  0  0  0  0
 10 34  1  0  0  0  0
 10 35  1  0  0  0  0
 11 16  1  0  0  0  0
 11 12  2  0  0  0  0
 12 13  1  0  0  0  0
 12 36  1  0  0  0  0
 13 14  2  0  0  0  0
 13 37  1  0  0  0  0
 14 15  1  0  0  0  0
 14 38  1  0  0  0  0
 15 16  2  0  0  0  0
 15 39  1  0  0  0  0
 16 17  1  0  0  0  0
 18 19  2  0  0  0  0
 18 20  1  0  0  0  0
 20 21  1  0  0  0  0
 20 23  2  0  0  0  0
 21 22  3  0  0  0  0
 23 24  1  0  0  0  0
 24 40  1  0  0  0  0
 24 41  1  0  0  0  0
 24 42  1  0  0  0  0
M  END
> <s_m_source_file>
AV-unprocessed.smi

> <i_m_source_file_index>
1471

> <i_lp_mmshare_version>
43012

> <i_f3d_flags>
0

> <s_epik_input>
TiNDYyhjMVtDSDNdKWMoPU8pbihuYzFbQ0gzXSlbQ0gyXVtDQEhdKFtPSF0pW0NIMl1PW0NIMl1jMltjSF1bY0hdW2NIXVtjSF1jMkY=

> <s_epik_cmdline>
J2VwaWtfcHl0aG9uJywgJy1waCcsICc3LjAnLCAnLXRuJywgJzgnLCAnLW1hJywgJzIwMCcsICctbWV0YWxfYmluZGluZycsICctaW1hZScsICc8aW5maWxlLm1hZT4nLCAnLW9tYWUnLCAnPG91dGZpbGUubWFlPic=

> <r_lp_tautomer_probability>
1

> <r_epik_Ionization_Penalty>
6.13319e-08

> <r_epik_Ionization_Penalty_Charging>
2.19172e-10

> <r_epik_Ionization_Penalty_Neutral>
6.11128e-08

> <r_epik_State_Penalty>
-0

> <r_epik_Charging_Adjusted_Penalty>
2.19172e-10

> <i_epik_Tot_Q>
0

> <i_epik_Tot_abs_Q>
0

> <r_epik_Metal_State_Penalty>
-0

> <b_epik_Metal_Only>
0

> <s_lp_Force_Field>
OPLS_2005

> <r_lp_Energy>
27.5477

> <b_lp_Chiralities_Consistent>
1

> <s_lp_Variant>
AV-unprocessed.smi:1471-1

> <Gold.Version>
5.8.1

> <Gold.Id.Protein>
6NUR|6NUR_protein|mol2

> <Gold.PLP.Fitness>
50.8415

> <Gold.PLP.PLP>
-49.3637

> <Gold.PLP.part.hbond>
-3.0000

> <Gold.PLP.part.metal>
0.0000

> <Gold.PLP.part.buried>
-6.2193

> <Gold.PLP.part.nonpolar>
-39.3070

> <Gold.PLP.part.repulsive>
0.2864

> <Gold.PLP.ligand.clash>
0.0000

> <Gold.PLP.ligand.torsion>
0.7921

> <Gold.PLP.Chemscore.Hbond>
0.9920

> <Gold.PLP.Chemscore.CHOScore>
0.0000

> <Gold.PLP.Chemscore.Metal>
0.0000

> <Gold.Chemscore.Hbonds>
donor molecule, donor type, donor heavy atom, donor atom, acceptor molecule, acceptor atom, score
      P1  H  8011  8017       L1     7  0.98

> <Gold.PLP.Chemscore.Internal.Correction>
0.0861

> <Gold.Rescore>
     Score         DG    S(hbond)    S(metal)    S(lipo)     H(rot)  DE(clash)    DE(int)     intcor
     12.33     -15.19       0.78        0.00     118.59       2.65       0.24       2.62       ----

> <Gold.Chemscore.Fitness>
12.3327

> <Gold.Chemscore.DG>
-15.1905

> <Gold.Chemscore.ZeroCoef>
-5.4800

> <Gold.Chemscore.Hbond>
0.7819

> <Gold.Chemscore.Metal>
0.0000

> <Gold.Chemscore.Lipo>
118.5916

> <Gold.Chemscore.Internal_Hbond>
0.0000

> <Gold.Chemscore.DEClash>
0.2365

> <Gold.Chemscore.DEInternal>
2.6213

> <Gold.Chemscore.Rot>
2.6470

> <Gold.Chemscore.Internal.Correction>
   9.000000E+99

> <Gold.Chemscore.Hbonds>
donor molecule, donor type, donor heavy atom, donor atom, acceptor molecule, acceptor atom, score
      L1  H     7    31       P1  7957  0.01
      P1  H  8011  8017       L1     7  0.24

> <Gold.Chemscore.Hbond.Weighted>
-2.6115

> <Gold.Chemscore.Metal.Weighted>
-0.0000

> <Gold.Chemscore.Lipo.Weighted>
-13.8752

> <Gold.Chemscore.Internal_Hbond.Weighted>
0.0000

> <Gold.Chemscore.DEClash.Weighted>
0.2365

> <Gold.Chemscore.DEInternal.Weighted>
2.6213

> <Gold.Chemscore.Rot.Weighted>
6.7762

> <Gold.Chemscore.Internal.Correction.Weighted>
   9.000000E+99

> <Gold.Protein.RotatedTorsions>
[ 6907 6896 6895 6894 ] final   26.72 input  -60.11 | X-H torsion
[ 7974 7965 7964 7962 ] final -124.09 input  175.53 | X-H torsion
[ 8008 7997 7996 7995 ] final -122.18 input   59.86 | X-H torsion
[ 10167 10162 10161 10158 ] final  176.77 input  -65.29 | X-H torsion
[ 10718 10713 10712 10709 ] final  150.20 input   66.30 | X-H torsion
[ 10763 10752 10751 10750 ] final   69.52 input  -60.55 | X-H torsion
[ 11005 11000 10999 10996 ] final    9.73 input  -57.11 | X-H torsion

> <Gold.Protein.ActiveResidues>
 VAL166  LYS551  ARG553  GLY616  TRP617  ASP618  TYR619  PRO620  LYS621  CYS622 
 ASP623  PHE694  ASN695  SER759  ASP760  ASP761  ALA762  ILE779  LEU786  VAL792 
 PHE793  MET794  SER795  GLU796  ALA797  LYS798  CYS799  TRP800  GLU811  SER814 

> <Gold.Protein.RotatedAtoms>
  151.9916  134.9976  160.0561 H   0  0  0  0  0  0  0  0  0  0  0  0  # atno 6907 bound_to 6896
  152.1603  133.4572  159.4865 H   0  0  0  0  0  0  0  0  0  0  0  0  # atno 6908 bound_to 6896
  150.6887  134.1998  159.4361 H   0  0  0  0  0  0  0  0  0  0  0  0  # atno 6909 bound_to 6896
  145.0118  140.7912  143.4434 H   0  0  0  0  0  0  0  0  0  0  0  0  # atno 7974 bound_to 7965
  155.1601  140.0405  157.2840 H   0  0  0  0  0  0  0  0  0  0  0  0  # atno 8008 bound_to 7997
  154.6342  140.2531  155.7370 H   0  0  0  0  0  0  0  0  0  0  0  0  # atno 8009 bound_to 7997
  156.2500  140.2869  156.0707 H   0  0  0  0  0  0  0  0  0  0  0  0  # atno 8010 bound_to 7997
  139.5227  144.2877  152.0491 H   0  0  0  0  0  0  0  0  0  0  0  0  # atno 10167 bound_to 10162
  157.2865  131.0845  151.1493 H   0  0  0  0  0  0  0  0  0  0  0  0  # atno 10718 bound_to 10713
  153.0292  135.5207  154.7301 H   0  0  0  0  0  0  0  0  0  0  0  0  # atno 10763 bound_to 10752
  154.6331  135.2903  155.0195 H   0  0  0  0  0  0  0  0  0  0  0  0  # atno 10764 bound_to 10752
  154.1139  135.6618  153.4943 H   0  0  0  0  0  0  0  0  0  0  0  0  # atno 10765 bound_to 10752
  140.5225  134.0545  155.7849 H   0  0  0  0  0  0  0  0  0  0  0  0  # atno 11005 bound_to 11000
  145.2013  139.2250  143.5191 LP  0  0  0  0  0  0  0  0  0  0  0  0  # atno 17320 bound_to 7965
  146.3471  140.1831  142.8589 LP  0  0  0  0  0  0  0  0  0  0  0  0  # atno 17321 bound_to 7965
  140.2329  144.4350  150.6292 LP  0  0  0  0  0  0  0  0  0  0  0  0  # atno 17342 bound_to 10162
  140.6343  143.2192  151.6429 LP  0  0  0  0  0  0  0  0  0  0  0  0  # atno 17343 bound_to 10162
  157.2906  130.6794  149.6112 LP  0  0  0  0  0  0  0  0  0  0  0  0  # atno 17370 bound_to 10713
  155.9666  130.4422  150.5370 LP  0  0  0  0  0  0  0  0  0  0  0  0  # atno 17371 bound_to 10713
  141.1326  133.9276  157.2502 LP  0  0  0  0  0  0  0  0  0  0  0  0  # atno 17394 bound_to 11000
  139.9598  135.0157  156.9229 LP  0  0  0  0  0  0  0  0  0  0  0  0  # atno 17395 bound_to 11000

$$$$
