AV-unprocessed.smi:1757|AV-procd|sdf|7075|dock5
  -GOLD-   22720 8293D 1   1.00000     0.00000
 Structure written by MMmdl.
 40 41  0  0  0  0  0  0  0  0  2 V2000
  143.0489  133.3634  148.4665 C   0  0  0  0  0  0  0  0  0  0  0  0
  144.2566  133.6093  149.2834 N   0  3  2  0  0  0  0  0  0  0  0  0
  144.7671  132.3715  149.9235 C   0  0  0  0  0  0  0  0  0  0  0  0
  146.0927  132.6350  150.6573 C   0  0  0  0  0  0  0  0  0  0  0  0
  145.9401  133.7633  151.6909 C   0  0  1  0  0  0  0  0  0  0  0  0
  147.2362  134.0668  152.2923 N   0  0  0  0  0  0  0  0  0  0  0  0
  147.9924  133.2151  153.0002 C   0  0  0  0  0  0  0  0  0  0  0  0
  147.6685  132.0503  153.2310 O   0  0  0  0  0  0  0  0  0  0  0  0
  149.1184  133.8163  153.4257 N   0  0  0  0  0  0  0  0  0  0  0  0
  150.1855  133.2744  154.1606 C   0  0  0  0  0  0  0  0  0  0  0  0
  150.7204  132.0430  153.9522 C   0  0  0  0  0  0  0  0  0  0  0  0
  151.8365  131.5453  154.7403 C   0  0  0  0  0  0  0  0  0  0  0  0
  152.4294  130.1608  154.5318 C   0  0  0  0  0  0  0  0  0  0  0  0
  151.8080  129.5427  153.5279 F   0  0  0  0  0  0  0  0  0  0  0  0
  153.7218  130.2547  154.2197 F   0  0  0  0  0  0  0  0  0  0  0  0
  152.3156  129.4047  155.6238 F   0  0  0  0  0  0  0  0  0  0  0  0
  152.3219  132.3726  155.6835 C   0  0  0  0  0  0  0  0  0  0  0  0
  151.7867  133.6455  155.8938 N   0  0  0  0  0  0  0  0  0  0  0  0
  150.7503  134.1585  155.1937 C   0  0  0  0  0  0  0  0  0  0  0  0
  150.3370  135.2921  155.4355 O   0  0  0  0  0  0  0  0  0  0  0  0
  145.3690  135.0192  151.0112 C   0  0  0  0  0  0  0  0  0  0  0  0
  144.0605  134.7035  150.2670 C   0  0  0  0  0  0  0  0  0  0  0  0
  152.2107  134.2081  156.6171 H   0  0  0  0  0  0  0  0  0  0  0  0
  142.2198  133.0209  149.0871 H   0  0  0  0  0  0  0  0  0  0  0  0
  143.2453  132.6050  147.7080 H   0  0  0  0  0  0  0  0  0  0  0  0
  142.7393  134.2740  147.9527 H   0  0  0  0  0  0  0  0  0  0  0  0
  144.0217  131.9860  150.6213 H   0  0  0  0  0  0  0  0  0  0  0  0
  144.9191  131.6027  149.1649 H   0  0  0  0  0  0  0  0  0  0  0  0
  146.4300  131.7212  151.1481 H   0  0  0  0  0  0  0  0  0  0  0  0
  146.8628  132.8977  149.9302 H   0  0  0  0  0  0  0  0  0  0  0  0
  145.2311  133.4325  152.4525 H   0  0  0  0  0  0  0  0  0  0  0  0
  147.5867  135.0046  152.1612 H   0  0  0  0  0  0  0  0  0  0  0  0
  149.2041  134.8031  153.2291 H   0  0  0  0  0  0  0  0  0  0  0  0
  150.3392  131.4045  153.1722 H   0  0  0  0  0  0  0  0  0  0  0  0
  153.1444  132.1258  156.3388 H   0  0  0  0  0  0  0  0  0  0  0  0
  145.1919  135.7986  151.7535 H   0  0  0  0  0  0  0  0  0  0  0  0
  146.0970  135.4235  150.3061 H   0  0  0  0  0  0  0  0  0  0  0  0
  143.7102  135.5992  149.7527 H   0  0  0  0  0  0  0  0  0  0  0  0
  143.2827  134.4211  150.9786 H   0  0  0  0  0  0  0  0  0  0  0  0
  144.9747  133.9210  148.6449 H   0  0  0  0  0  0  0  0  0  0  0  0
  1  2  1  0  0  0  0
  1 24  1  0  0  0  0
  1 25  1  0  0  0  0
  1 26  1  0  0  0  0
  2 22  1  0  0  0  0
  2  3  1  0  0  0  0
  2 40  1  0  0  0  0
  3  4  1  0  0  0  0
  3 27  1  0  0  0  0
  3 28  1  0  0  0  0
  4  5  1  0  0  0  0
  4 29  1  0  0  0  0
  4 30  1  0  0  0  0
  5  6  1  0  0  0  0
  5 21  1  0  0  0  0
  5 31  1  0  0  0  0
  6  7  1  0  0  0  0
  6 32  1  0  0  0  0
  7  8  2  0  0  0  0
  7  9  1  0  0  0  0
  9 10  1  0  0  0  0
  9 33  1  0  0  0  0
 10 19  1  0  0  0  0
 10 11  2  0  0  0  0
 11 12  1  0  0  0  0
 11 34  1  0  0  0  0
 12 13  1  0  0  0  0
 12 17  2  0  0  0  0
 13 14  1  0  0  0  0
 13 15  1  0  0  0  0
 13 16  1  0  0  0  0
 17 18  1  0  0  0  0
 17 35  1  0  0  0  0
 18 23  1  0  0  0  0
 18 19  1  0  0  0  0
 19 20  2  0  0  0  0
 21 22  1  0  0  0  0
 21 36  1  0  0  0  0
 21 37  1  0  0  0  0
 22 38  1  0  0  0  0
 22 39  1  0  0  0  0
M  CHG  1   2   1
M  END
> <s_m_source_file>
AV-unprocessed.smi

> <i_m_source_file_index>
1757

> <i_lp_mmshare_version>
43012

> <i_f3d_flags>
0

> <s_epik_input>
W0NIM11OMVtDSDJdW0NIMl1bQ0hdKFtDSDJdW0NIMl0xKVtOSF1DKD1PKVtOSF1jMltjSF1jKEMoRikoRilGKVtjSF1bbkhdYzI9Tw==

> <s_epik_cmdline>
J2VwaWtfcHl0aG9uJywgJy1waCcsICc3LjAnLCAnLXRuJywgJzgnLCAnLW1hJywgJzIwMCcsICctbWV0YWxfYmluZGluZycsICctaW1hZScsICc8aW5maWxlLm1hZT4nLCAnLW9tYWUnLCAnPG91dGZpbGUubWFlPic=

> <r_lp_tautomer_probability>
1

> <r_epik_Ionization_Penalty>
0.00859077

> <r_epik_Ionization_Penalty_Charging>
0.00857233

> <r_epik_Ionization_Penalty_Neutral>
1.84472e-05

> <r_epik_State_Penalty>
-0

> <r_epik_Charging_Adjusted_Penalty>
0.00857233

> <i_epik_Tot_Q>
1

> <i_epik_Tot_abs_Q>
1

> <r_epik_Metal_State_Penalty>
0.377538

> <b_epik_Metal_Only>
0

> <s_lp_Force_Field>
OPLS_2005

> <r_lp_Energy>
26.9081

> <b_lp_Chiralities_Consistent>
1

> <s_lp_Variant>
AV-unprocessed.smi:1757-1

> <Gold.Version>
5.8.1

> <Gold.Id.Protein>
6NUR|6NUR_protein|mol2

> <Gold.PLP.Fitness>
43.5921

> <Gold.PLP.PLP>
-35.6605

> <Gold.PLP.part.hbond>
-3.0000

> <Gold.PLP.part.metal>
0.0000

> <Gold.PLP.part.buried>
-0.8384

> <Gold.PLP.part.nonpolar>
-31.8120

> <Gold.PLP.part.repulsive>
0.4972

> <Gold.PLP.ligand.clash>
0.0000

> <Gold.PLP.ligand.torsion>
0.3213

> <Gold.PLP.Chemscore.Hbond>
2.8560

> <Gold.PLP.Chemscore.CHOScore>
0.0000

> <Gold.PLP.Chemscore.Metal>
0.0000

> <Gold.Chemscore.Hbonds>
donor molecule, donor type, donor heavy atom, donor atom, acceptor molecule, acceptor atom, score
      L1  H     2    40       P1  7921  1.00
      L1  H     6    32       P1  7948  1.00
      L1  H     9    33       P1  7948  0.54

> <Gold.PLP.Chemscore.Internal.Correction>
0.0063

> <Gold.Rescore>
     Score         DG    S(hbond)    S(metal)    S(lipo)     H(rot)  DE(clash)    DE(int)     intcor
     18.85     -20.05       2.44        0.00      76.90       1.00       0.74       0.47       ----

> <Gold.Chemscore.Fitness>
18.8462

> <Gold.Chemscore.DG>
-20.0519

> <Gold.Chemscore.ZeroCoef>
-5.4800

> <Gold.Chemscore.Hbond>
2.4354

> <Gold.Chemscore.Metal>
0.0000

> <Gold.Chemscore.Lipo>
76.9032

> <Gold.Chemscore.Internal_Hbond>
0.0000

> <Gold.Chemscore.DEClash>
0.7367

> <Gold.Chemscore.DEInternal>
0.4690

> <Gold.Chemscore.Rot>
1.0000

> <Gold.Chemscore.Internal.Correction>
   9.000000E+99

> <Gold.Chemscore.Hbonds>
donor molecule, donor type, donor heavy atom, donor atom, acceptor molecule, acceptor atom, score
      L1  H     2    40       P1  7921  0.98
      L1  H     6    32       P1  7948  0.88
      L1  H     9    33       P1  7948  0.04

> <Gold.Chemscore.Hbond.Weighted>
-8.1342

> <Gold.Chemscore.Metal.Weighted>
-0.0000

> <Gold.Chemscore.Lipo.Weighted>
-8.9977

> <Gold.Chemscore.Internal_Hbond.Weighted>
0.0000

> <Gold.Chemscore.DEClash.Weighted>
0.7367

> <Gold.Chemscore.DEInternal.Weighted>
0.4690

> <Gold.Chemscore.Rot.Weighted>
2.5600

> <Gold.Chemscore.Internal.Correction.Weighted>
   9.000000E+99

> <Gold.Protein.RotatedTorsions>
[ 6907 6896 6895 6894 ] final   23.58 input  -60.11 | X-H torsion
[ 7974 7965 7964 7962 ] final  112.04 input  175.53 | X-H torsion
[ 8008 7997 7996 7995 ] final   66.26 input   59.86 | X-H torsion
[ 10167 10162 10161 10158 ] final   83.72 input  -65.29 | X-H torsion
[ 10718 10713 10712 10709 ] final  -95.97 input   66.30 | X-H torsion
[ 10763 10752 10751 10750 ] final  107.85 input  -60.55 | X-H torsion
[ 11005 11000 10999 10996 ] final   27.06 input  -57.11 | X-H torsion

> <Gold.Protein.ActiveResidues>
 VAL166  LYS551  ARG553  GLY616  TRP617  ASP618  TYR619  PRO620  LYS621  CYS622 
 ASP623  PHE694  ASN695  SER759  ASP760  ASP761  ALA762  ILE779  LEU786  VAL792 
 PHE793  MET794  SER795  GLU796  ALA797  LYS798  CYS799  TRP800  GLU811  SER814 

> <Gold.Protein.RotatedAtoms>
  151.9445  135.0198  160.0537 H   0  0  0  0  0  0  0  0  0  0  0  0  # atno 6907 bound_to 6896
  152.2007  133.4834  159.5065 H   0  0  0  0  0  0  0  0  0  0  0  0  # atno 6908 bound_to 6896
  150.6954  134.1511  159.4183 H   0  0  0  0  0  0  0  0  0  0  0  0  # atno 6909 bound_to 6896
  145.2346  139.2805  143.4150 H   0  0  0  0  0  0  0  0  0  0  0  0  # atno 7974 bound_to 7965
  155.6747  140.3497  155.4832 H   0  0  0  0  0  0  0  0  0  0  0  0  # atno 8008 bound_to 7997
  155.9658  140.1146  157.0878 H   0  0  0  0  0  0  0  0  0  0  0  0  # atno 8009 bound_to 7997
  154.4154  140.1166  156.5227 H   0  0  0  0  0  0  0  0  0  0  0  0  # atno 8010 bound_to 7997
  139.9154  144.6246  150.8494 H   0  0  0  0  0  0  0  0  0  0  0  0  # atno 10167 bound_to 10162
  156.0053  130.5132  150.6156 H   0  0  0  0  0  0  0  0  0  0  0  0  # atno 10718 bound_to 10713
  153.4124  135.3831  155.2059 H   0  0  0  0  0  0  0  0  0  0  0  0  # atno 10763 bound_to 10752
  154.8739  135.3797  154.4484 H   0  0  0  0  0  0  0  0  0  0  0  0  # atno 10764 bound_to 10752
  153.4994  135.7088  153.5902 H   0  0  0  0  0  0  0  0  0  0  0  0  # atno 10765 bound_to 10752
  140.3304  134.2445  155.7703 H   0  0  0  0  0  0  0  0  0  0  0  0  # atno 11005 bound_to 11000
  146.3344  140.2691  142.8605 LP  0  0  0  0  0  0  0  0  0  0  0  0  # atno 17320 bound_to 7965
  144.9645  140.8308  143.5493 LP  0  0  0  0  0  0  0  0  0  0  0  0  # atno 17321 bound_to 7965
  140.7675  143.3335  151.2359 LP  0  0  0  0  0  0  0  0  0  0  0  0  # atno 17342 bound_to 10162
  139.6906  143.9698  152.2857 LP  0  0  0  0  0  0  0  0  0  0  0  0  # atno 17343 bound_to 10162
  157.3981  131.0806  151.1333 LP  0  0  0  0  0  0  0  0  0  0  0  0  # atno 17370 bound_to 10713
  157.2003  130.6392  149.5736 LP  0  0  0  0  0  0  0  0  0  0  0  0  # atno 17371 bound_to 10713
  141.2065  133.7832  157.0174 LP  0  0  0  0  0  0  0  0  0  0  0  0  # atno 17394 bound_to 11000
  140.0866  134.9617  157.1709 LP  0  0  0  0  0  0  0  0  0  0  0  0  # atno 17395 bound_to 11000

$$$$
