AV-unprocessed.smi:1897|AV-procd|sdf|7687|dock4
  -GOLD-   22720 9423D 1   1.00000     0.00000
 Structure written by MMmdl.
 39 41  0  0  0  0  0  0  0  0  2 V2000
  152.6098  141.1274  159.3228 C   0  0  0  0  0  0  0  0  0  0  0  0
  152.1847  140.5508  158.0157 C   0  0  0  0  0  0  0  0  0  0  0  0
  152.8996  139.6240  157.3667 N   0  0  0  0  0  0  0  0  0  0  0  0
  152.2991  139.2343  156.1787 N   0  0  0  0  0  0  0  0  0  0  0  0
  151.1502  139.8900  155.9563 C   0  0  0  0  0  0  0  0  0  0  0  0
  150.3068  139.6744  154.8276 N   0  0  0  0  0  0  0  0  0  0  0  0
  148.9728  139.4897  154.7406 C   0  0  0  0  0  0  0  0  0  0  0  0
  148.2631  139.4881  155.7445 O   0  0  0  0  0  0  0  0  0  0  0  0
  148.4825  139.3108  153.5024 N   0  0  0  0  0  0  0  0  0  0  0  0
  147.0884  139.0347  153.1642 C   0  0  1  0  0  0  0  0  0  0  0  0
  146.8387  139.0082  151.6435 C   0  0  0  0  0  0  0  0  0  0  0  0
  145.9224  137.8008  151.4190 C   0  0  0  0  0  0  0  0  0  0  0  0
  146.3500  136.8639  152.4644 N   0  3  2  0  0  0  0  0  0  0  0  0
  145.5201  135.6693  152.7221 C   0  0  0  0  0  0  0  0  0  0  0  0
  146.2644  134.7641  153.7271 C   0  0  0  0  0  0  0  0  0  0  0  0
  146.6916  135.5304  154.9995 C   0  0  0  0  0  0  0  0  0  0  0  0
  147.4452  136.8337  154.6572 C   0  0  0  0  0  0  0  0  0  0  0  0
  146.5937  137.6623  153.6779 C   0  0  1  0  0  0  0  0  0  0  0  0
  150.6938  141.0284  157.2129 S   0  0  0  0  0  0  0  0  0  0  0  0
  153.6950  141.0892  159.4226 H   0  0  0  0  0  0  0  0  0  0  0  0
  152.1616  140.5636  160.1410 H   0  0  0  0  0  0  0  0  0  0  0  0
  152.2907  142.1671  159.3971 H   0  0  0  0  0  0  0  0  0  0  0  0
  150.7767  139.7588  153.9378 H   0  0  0  0  0  0  0  0  0  0  0  0
  149.1392  139.3359  152.7349 H   0  0  0  0  0  0  0  0  0  0  0  0
  146.4533  139.8117  153.5945 H   0  0  0  0  0  0  0  0  0  0  0  0
  146.4011  139.9360  151.2738 H   0  0  0  0  0  0  0  0  0  0  0  0
  147.7764  138.8518  151.1073 H   0  0  0  0  0  0  0  0  0  0  0  0
  144.8783  138.0768  151.5755 H   0  0  0  0  0  0  0  0  0  0  0  0
  146.0234  137.3743  150.4206 H   0  0  0  0  0  0  0  0  0  0  0  0
  144.5451  135.9653  153.1120 H   0  0  0  0  0  0  0  0  0  0  0  0
  145.3473  135.1323  151.7888 H   0  0  0  0  0  0  0  0  0  0  0  0
  145.6402  133.9116  153.9961 H   0  0  0  0  0  0  0  0  0  0  0  0
  147.1525  134.3522  153.2460 H   0  0  0  0  0  0  0  0  0  0  0  0
  145.8047  135.7716  155.5866 H   0  0  0  0  0  0  0  0  0  0  0  0
  147.3120  134.8929  155.6301 H   0  0  0  0  0  0  0  0  0  0  0  0
  147.6391  137.3989  155.5692 H   0  0  0  0  0  0  0  0  0  0  0  0
  148.4150  136.5989  154.2157 H   0  0  0  0  0  0  0  0  0  0  0  0
  145.6252  137.8440  154.1490 H   0  0  0  0  0  0  0  0  0  0  0  0
  147.2543  136.5258  152.1679 H   0  0  0  0  0  0  0  0  0  0  0  0
  1  2  1  0  0  0  0
  1 20  1  0  0  0  0
  1 21  1  0  0  0  0
  1 22  1  0  0  0  0
  2 19  1  0  0  0  0
  2  3  2  0  0  0  0
  3  4  1  0  0  0  0
  4  5  2  0  0  0  0
  5  6  1  0  0  0  0
  5 19  1  0  0  0  0
  6  7  1  0  0  0  0
  6 23  1  0  0  0  0
  7  8  2  0  0  0  0
  7  9  1  0  0  0  0
  9 10  1  0  0  0  0
  9 24  1  0  0  0  0
 10 18  1  0  0  0  0
 10 11  1  0  0  0  0
 10 25  1  0  0  0  0
 11 12  1  0  0  0  0
 11 26  1  0  0  0  0
 11 27  1  0  0  0  0
 12 13  1  0  0  0  0
 12 28  1  0  0  0  0
 12 29  1  0  0  0  0
 13 18  1  0  0  0  0
 13 14  1  0  0  0  0
 13 39  1  0  0  0  0
 14 15  1  0  0  0  0
 14 30  1  0  0  0  0
 14 31  1  0  0  0  0
 15 16  1  0  0  0  0
 15 32  1  0  0  0  0
 15 33  1  0  0  0  0
 16 17  1  0  0  0  0
 16 34  1  0  0  0  0
 16 35  1  0  0  0  0
 17 18  1  0  0  0  0
 17 36  1  0  0  0  0
 17 37  1  0  0  0  0
 18 38  1  0  0  0  0
M  CHG  1  13   1
M  END
> <s_m_source_file>
AV-unprocessed.smi

> <i_m_source_file_index>
1897

> <i_lp_mmshare_version>
43012

> <i_f3d_flags>
0

> <s_epik_input>
W0NIM11jMW5uYyhzMSlbTkhdQyg9TylbTkhdW0NASF0oW0NIMl1bQ0gyXTIpW0NAQEhdKE4yMylbQ0gyXVtDSDJdW0NIMl1bQ0gyXTM=

> <s_epik_cmdline>
J2VwaWtfcHl0aG9uJywgJy1waCcsICc3LjAnLCAnLXRuJywgJzgnLCAnLW1hJywgJzIwMCcsICctbWV0YWxfYmluZGluZycsICctaW1hZScsICc8aW5maWxlLm1hZT4nLCAnLW9tYWUnLCAnPG91dGZpbGUubWFlPic=

> <r_lp_tautomer_probability>
1

> <r_epik_Ionization_Penalty>
0.00228891

> <r_epik_Ionization_Penalty_Charging>
0.00107044

> <r_epik_Ionization_Penalty_Neutral>
0.00121847

> <r_epik_State_Penalty>
-0

> <r_epik_Charging_Adjusted_Penalty>
0.00107044

> <i_epik_Tot_Q>
1

> <i_epik_Tot_abs_Q>
1

> <r_epik_Metal_State_Penalty>
0.304057

> <b_epik_Metal_Only>
0

> <s_lp_Force_Field>
OPLS_2005

> <r_lp_Energy>
42.6082

> <b_lp_Chiralities_Consistent>
1

> <s_lp_Variant>
AV-unprocessed.smi:1897-4

> <Gold.Version>
5.8.1

> <Gold.Id.Protein>
6NUR|6NUR_protein|mol2

> <Gold.PLP.Fitness>
35.7520

> <Gold.PLP.PLP>
-24.5958

> <Gold.PLP.part.hbond>
-3.5132

> <Gold.PLP.part.metal>
0.0000

> <Gold.PLP.part.buried>
0.6957

> <Gold.PLP.part.nonpolar>
-22.9834

> <Gold.PLP.part.repulsive>
0.3018

> <Gold.PLP.ligand.clash>
0.0000

> <Gold.PLP.ligand.torsion>
0.4224

> <Gold.PLP.Chemscore.Hbond>
4.0000

> <Gold.PLP.Chemscore.CHOScore>
0.0000

> <Gold.PLP.Chemscore.Metal>
0.0000

> <Gold.Chemscore.Hbonds>
donor molecule, donor type, donor heavy atom, donor atom, acceptor molecule, acceptor atom, score
      L1  H     9    24       P1  7957  0.98
      L1  H    13    39       P1  7948  2.00
      P1  H  7997  8008       L1     3  1.00

> <Gold.PLP.Chemscore.Internal.Correction>
0.0011

> <Gold.Rescore>
     Score         DG    S(hbond)    S(metal)    S(lipo)     H(rot)  DE(clash)    DE(int)     intcor
     16.62     -18.36       2.66        0.00      55.88       1.00       1.22       0.52       ----

> <Gold.Chemscore.Fitness>
16.6180

> <Gold.Chemscore.DG>
-18.3561

> <Gold.Chemscore.ZeroCoef>
-5.4800

> <Gold.Chemscore.Hbond>
2.6641

> <Gold.Chemscore.Metal>
0.0000

> <Gold.Chemscore.Lipo>
55.8792

> <Gold.Chemscore.Internal_Hbond>
0.0000

> <Gold.Chemscore.DEClash>
1.2180

> <Gold.Chemscore.DEInternal>
0.5200

> <Gold.Chemscore.Rot>
1.0000

> <Gold.Chemscore.Internal.Correction>
   9.000000E+99

> <Gold.Chemscore.Hbonds>
donor molecule, donor type, donor heavy atom, donor atom, acceptor molecule, acceptor atom, score
      L1  H     9    24       P1  7957  0.93
      L1  H    13    39       P1  7948  1.00
      P1  H  7997  8008       L1     3  0.42

> <Gold.Chemscore.Hbond.Weighted>
-8.8982

> <Gold.Chemscore.Metal.Weighted>
-0.0000

> <Gold.Chemscore.Lipo.Weighted>
-6.5379

> <Gold.Chemscore.Internal_Hbond.Weighted>
0.0000

> <Gold.Chemscore.DEClash.Weighted>
1.2180

> <Gold.Chemscore.DEInternal.Weighted>
0.5200

> <Gold.Chemscore.Rot.Weighted>
2.5600

> <Gold.Chemscore.Internal.Correction.Weighted>
   9.000000E+99

> <Gold.Protein.RotatedTorsions>
[ 6907 6896 6895 6894 ] final  119.03 input  -60.11 | X-H torsion
[ 7974 7965 7964 7962 ] final  -56.39 input  175.53 | X-H torsion
[ 8008 7997 7996 7995 ] final  -78.44 input   59.86 | X-H torsion
[ 10167 10162 10161 10158 ] final  -97.92 input  -65.29 | X-H torsion
[ 10718 10713 10712 10709 ] final  143.69 input   66.30 | X-H torsion
[ 10763 10752 10751 10750 ] final -129.37 input  -60.55 | X-H torsion
[ 11005 11000 10999 10996 ] final  105.24 input  -57.11 | X-H torsion

> <Gold.Protein.ActiveResidues>
 VAL166  LYS551  ARG553  GLY616  TRP617  ASP618  TYR619  PRO620  LYS621  CYS622 
 ASP623  PHE694  ASN695  SER759  ASP760  ASP761  ALA762  ILE779  LEU786  VAL792 
 PHE793  MET794  SER795  GLU796  ALA797  LYS798  CYS799  TRP800  GLU811  SER814 

> <Gold.Protein.RotatedAtoms>
  152.4501  133.7613  159.6747 H   0  0  0  0  0  0  0  0  0  0  0  0  # atno 6907 bound_to 6896
  150.8411  133.7925  159.3067 H   0  0  0  0  0  0  0  0  0  0  0  0  # atno 6908 bound_to 6896
  151.5549  135.1069  160.0010 H   0  0  0  0  0  0  0  0  0  0  0  0  # atno 6909 bound_to 6896
  145.8632  140.8270  142.9926 H   0  0  0  0  0  0  0  0  0  0  0  0  # atno 7974 bound_to 7965
  154.5690  140.0694  156.8935 H   0  0  0  0  0  0  0  0  0  0  0  0  # atno 8008 bound_to 7997
  155.2669  140.3362  155.4250 H   0  0  0  0  0  0  0  0  0  0  0  0  # atno 8009 bound_to 7997
  156.2103  140.1756  156.7694 H   0  0  0  0  0  0  0  0  0  0  0  0  # atno 8010 bound_to 7997
  140.2784  143.3298  152.0466 H   0  0  0  0  0  0  0  0  0  0  0  0  # atno 10167 bound_to 10162
  157.3660  131.0972  151.0872 H   0  0  0  0  0  0  0  0  0  0  0  0  # atno 10718 bound_to 10713
  154.8757  135.3897  154.3909 H   0  0  0  0  0  0  0  0  0  0  0  0  # atno 10763 bound_to 10752
  153.4645  135.7029  153.6036 H   0  0  0  0  0  0  0  0  0  0  0  0  # atno 10764 bound_to 10752
  153.4520  135.3831  155.2257 H   0  0  0  0  0  0  0  0  0  0  0  0  # atno 10765 bound_to 10752
  139.8800  134.9329  156.5483 H   0  0  0  0  0  0  0  0  0  0  0  0  # atno 11005 bound_to 11000
  144.6726  140.1127  143.7454 LP  0  0  0  0  0  0  0  0  0  0  0  0  # atno 17320 bound_to 7965
  145.9224  139.2554  143.1373 LP  0  0  0  0  0  0  0  0  0  0  0  0  # atno 17321 bound_to 7965
  139.4969  144.6609  151.6467 LP  0  0  0  0  0  0  0  0  0  0  0  0  # atno 17342 bound_to 10162
  140.5832  143.9909  150.6280 LP  0  0  0  0  0  0  0  0  0  0  0  0  # atno 17343 bound_to 10162
  157.1994  130.6387  149.5733 LP  0  0  0  0  0  0  0  0  0  0  0  0  # atno 17370 bound_to 10713
  155.9746  130.4696  150.6401 LP  0  0  0  0  0  0  0  0  0  0  0  0  # atno 17371 bound_to 10713
  140.8259  133.8317  155.8938 LP  0  0  0  0  0  0  0  0  0  0  0  0  # atno 17394 bound_to 11000
  140.9375  134.1944  157.4821 LP  0  0  0  0  0  0  0  0  0  0  0  0  # atno 17395 bound_to 11000

$$$$
