AV-unprocessed.smi:1667|AV-procd|sdf|6678|dock1
  -GOLD-   22720 7393D 1   1.00000     0.00000
 Structure written by MMmdl.
 46 48  0  0  0  0  0  0  0  0  2 V2000
  145.6307  141.3873  159.1372 C   0  0  0  0  0  0  0  0  0  0  0  0
  145.7400  140.6508  157.8067 C   0  0  0  0  0  0  0  0  0  0  0  0
  145.3536  139.4863  157.7135 O   0  0  0  0  0  0  0  0  0  0  0  0
  146.2741  141.3466  156.7889 N   0  0  0  0  0  0  0  0  0  0  0  0
  146.5062  140.8729  155.4244 C   0  0  2  0  0  0  0  0  0  0  0  0
  145.3337  140.0106  154.9182 C   0  0  0  0  0  0  0  0  0  0  0  0
  147.8384  140.1924  155.2591 C   0  0  0  0  0  0  0  0  0  0  0  0
  148.0523  138.9757  154.6792 N   0  3  0  0  0  0  0  0  0  0  0  0
  149.4095  138.6601  154.7183 C   0  0  0  0  0  0  0  0  0  0  0  0
  150.0996  137.5460  154.2505 C   0  0  0  0  0  0  0  0  0  0  0  0
  151.4961  137.5390  154.4471 C   0  0  0  0  0  0  0  0  0  0  0  0
  152.1528  138.6106  155.0867 C   0  0  0  0  0  0  0  0  0  0  0  0
  151.4412  139.7335  155.5584 C   0  0  0  0  0  0  0  0  0  0  0  0
  150.0603  139.7311  155.3621 C   0  0  0  0  0  0  0  0  0  0  0  0
  149.0529  140.6443  155.6945 N   0  0  0  0  0  0  0  0  0  0  0  0
  149.4225  141.8804  156.4046 C   0  0  0  0  0  0  0  0  0  0  0  0
  150.3631  141.6431  157.6055 C   0  0  2  0  0  0  0  0  0  0  0  0
  149.8135  140.6703  158.4710 O   0  0  0  0  0  0  0  0  0  0  0  0
  150.6689  142.9443  158.3293 C   0  0  0  0  0  0  0  0  0  0  0  0
  150.1776  144.1729  157.8350 C   0  0  0  0  0  0  0  0  0  0  0  0
  150.4700  145.3760  158.5063 C   0  0  0  0  0  0  0  0  0  0  0  0
  151.2562  145.3579  159.6744 C   0  0  0  0  0  0  0  0  0  0  0  0
  151.7518  144.1363  160.1695 C   0  0  0  0  0  0  0  0  0  0  0  0
  152.5106  144.1182  161.2905 F   0  0  0  0  0  0  0  0  0  0  0  0
  151.4595  142.9331  159.4984 C   0  0  0  0  0  0  0  0  0  0  0  0
  146.5226  141.7664  154.8009 H   0  0  0  0  0  0  0  0  0  0  0  0
  146.5773  141.8659  159.3900 H   0  0  0  0  0  0  0  0  0  0  0  0
  145.3730  140.6978  159.9417 H   0  0  0  0  0  0  0  0  0  0  0  0
  144.8586  142.1548  159.0828 H   0  0  0  0  0  0  0  0  0  0  0  0
  146.5619  142.2950  156.9828 H   0  0  0  0  0  0  0  0  0  0  0  0
  145.4638  139.7548  153.8663 H   0  0  0  0  0  0  0  0  0  0  0  0
  144.3888  140.5467  155.0091 H   0  0  0  0  0  0  0  0  0  0  0  0
  145.2373  139.0784  155.4754 H   0  0  0  0  0  0  0  0  0  0  0  0
  149.5980  136.7250  153.7596 H   0  0  0  0  0  0  0  0  0  0  0  0
  152.0753  136.6956  154.0997 H   0  0  0  0  0  0  0  0  0  0  0  0
  153.2244  138.5704  155.2187 H   0  0  0  0  0  0  0  0  0  0  0  0
  151.9539  140.5488  156.0465 H   0  0  0  0  0  0  0  0  0  0  0  0
  149.8800  142.5604  155.6846 H   0  0  0  0  0  0  0  0  0  0  0  0
  148.5045  142.3640  156.7374 H   0  0  0  0  0  0  0  0  0  0  0  0
  151.3045  141.2281  157.2448 H   0  0  0  0  0  0  0  0  0  0  0  0
  148.8718  140.7497  158.4506 H   0  0  0  0  0  0  0  0  0  0  0  0
  149.5766  144.1966  156.9375 H   0  0  0  0  0  0  0  0  0  0  0  0
  150.0918  146.3130  158.1250 H   0  0  0  0  0  0  0  0  0  0  0  0
  151.4804  146.2805  160.1892 H   0  0  0  0  0  0  0  0  0  0  0  0
  151.8462  142.0018  159.8859 H   0  0  0  0  0  0  0  0  0  0  0  0
  147.3147  138.4035  154.2890 H   0  0  0  0  0  0  0  0  0  0  0  0
  1  2  1  0  0  0  0
  1 27  1  0  0  0  0
  1 28  1  0  0  0  0
  1 29  1  0  0  0  0
  2  3  2  0  0  0  0
  2  4  1  0  0  0  0
  4  5  1  0  0  0  0
  4 30  1  0  0  0  0
  5 26  1  0  0  0  0
  5  6  1  0  0  0  0
  5  7  1  0  0  0  0
  6 31  1  0  0  0  0
  6 32  1  0  0  0  0
  6 33  1  0  0  0  0
  7 15  1  0  0  0  0
  7  8  2  0  0  0  0
  8  9  1  0  0  0  0
  8 46  1  0  0  0  0
  9 14  2  0  0  0  0
  9 10  1  0  0  0  0
 10 11  2  0  0  0  0
 10 34  1  0  0  0  0
 11 12  1  0  0  0  0
 11 35  1  0  0  0  0
 12 13  2  0  0  0  0
 12 36  1  0  0  0  0
 13 14  1  0  0  0  0
 13 37  1  0  0  0  0
 14 15  1  0  0  0  0
 15 16  1  0  0  0  0
 16 17  1  0  0  0  0
 16 38  1  0  0  0  0
 16 39  1  0  0  0  0
 17 18  1  0  0  0  0
 17 19  1  0  0  0  0
 17 40  1  0  0  0  0
 18 41  1  0  0  0  0
 19 25  1  0  0  0  0
 19 20  2  0  0  0  0
 20 21  1  0  0  0  0
 20 42  1  0  0  0  0
 21 22  2  0  0  0  0
 21 43  1  0  0  0  0
 22 23  1  0  0  0  0
 22 44  1  0  0  0  0
 23 24  1  0  0  0  0
 23 25  2  0  0  0  0
 25 45  1  0  0  0  0
M  CHG  1   8   1
M  END
> <s_m_source_file>
AV-unprocessed.smi

> <i_m_source_file_index>
1667

> <i_lp_mmshare_version>
43012

> <i_f3d_flags>
0

> <s_epik_input>
W0NIM11DKD1PKVtOSF1bQ0BASF0oW0NIM10pYyhuMSluKGMoYzEyKVtjSF1bY0hdW2NIXVtjSF0yKVtDSDJdW0NASF0oW09IXSljM1tjSF1bY0hdW2NIXWMoRilbY0hdMw==

> <s_epik_cmdline>
J2VwaWtfcHl0aG9uJywgJy1waCcsICc3LjAnLCAnLXRuJywgJzgnLCAnLW1hJywgJzIwMCcsICctbWV0YWxfYmluZGluZycsICctaW1hZScsICc8aW5maWxlLm1hZT4nLCAnLW9tYWUnLCAnPG91dGZpbGUubWFlPic=

> <r_epik_Ionization_Penalty>
0.950383

> <r_epik_Ionization_Penalty_Charging>
0.950379

> <r_epik_Ionization_Penalty_Neutral>
3.60962e-06

> <r_epik_State_Penalty>
0.994584

> <r_epik_Charging_Adjusted_Penalty>
1.94496

> <i_epik_Tot_Q>
1

> <i_epik_Tot_abs_Q>
1

> <r_epik_Metal_State_Penalty>
1.10485

> <b_epik_Metal_Only>
0

> <s_lp_Force_Field>
OPLS_2005

> <r_lp_Energy>
9.34024

> <b_lp_Chiralities_Consistent>
1

> <s_lp_Variant>
AV-unprocessed.smi:1667-6

> <Gold.Version>
5.8.1

> <Gold.Id.Protein>
6NUR|6NUR_protein|mol2

> <Gold.PLP.Fitness>
58.1785

> <Gold.PLP.PLP>
-56.4835

> <Gold.PLP.part.hbond>
-2.0000

> <Gold.PLP.part.metal>
0.0000

> <Gold.PLP.part.buried>
0.8207

> <Gold.PLP.part.nonpolar>
-54.8881

> <Gold.PLP.part.repulsive>
0.2236

> <Gold.PLP.ligand.clash>
0.0032

> <Gold.PLP.ligand.torsion>
0.6855

> <Gold.PLP.Chemscore.Hbond>
0.9760

> <Gold.PLP.Chemscore.CHOScore>
0.0000

> <Gold.PLP.Chemscore.Metal>
0.0000

> <Gold.PLP.Chemscore.Internal.Correction>
0.1413

> <Gold.Rescore>
     Score         DG    S(hbond)    S(metal)    S(lipo)     H(rot)  DE(clash)    DE(int)     intcor
     13.80     -15.59       0.25        0.00     134.73       2.53       0.12       1.67       ----

> <Gold.Chemscore.Fitness>
13.7993

> <Gold.Chemscore.DG>
-15.5857

> <Gold.Chemscore.ZeroCoef>
-5.4800

> <Gold.Chemscore.Hbond>
0.2480

> <Gold.Chemscore.Metal>
0.0000

> <Gold.Chemscore.Lipo>
134.7268

> <Gold.Chemscore.Internal_Hbond>
0.0000

> <Gold.Chemscore.DEClash>
0.1168

> <Gold.Chemscore.DEInternal>
1.6696

> <Gold.Chemscore.Rot>
2.5335

> <Gold.Chemscore.Internal.Correction>
   9.000000E+99

> <Gold.Chemscore.Hbond.Weighted>
-0.8284

> <Gold.Chemscore.Metal.Weighted>
-0.0000

> <Gold.Chemscore.Lipo.Weighted>
-15.7630

> <Gold.Chemscore.Internal_Hbond.Weighted>
0.0000

> <Gold.Chemscore.DEClash.Weighted>
0.1168

> <Gold.Chemscore.DEInternal.Weighted>
1.6696

> <Gold.Chemscore.Rot.Weighted>
6.4856

> <Gold.Chemscore.Internal.Correction.Weighted>
   9.000000E+99

> <Gold.Protein.RotatedTorsions>
[ 6907 6896 6895 6894 ] final   95.63 input  -60.11 | X-H torsion
[ 7974 7965 7964 7962 ] final  -13.99 input  175.53 | X-H torsion
[ 8008 7997 7996 7995 ] final  125.80 input   59.86 | X-H torsion
[ 10167 10162 10161 10158 ] final   -8.46 input  -65.29 | X-H torsion
[ 10718 10713 10712 10709 ] final -109.59 input   66.30 | X-H torsion
[ 10763 10752 10751 10750 ] final   44.96 input  -60.55 | X-H torsion
[ 11005 11000 10999 10996 ] final   46.65 input  -57.11 | X-H torsion

> <Gold.Protein.ActiveResidues>
 VAL166  LYS551  ARG553  GLY616  TRP617  ASP618  TYR619  PRO620  LYS621  CYS622 
 ASP623  PHE694  ASN695  SER759  ASP760  ASP761  ALA762  ILE779  LEU786  VAL792 
 PHE793  MET794  SER795  GLU796  ALA797  LYS798  CYS799  TRP800  GLU811  SER814 

> <Gold.Protein.RotatedAtoms>
  152.5442  134.1011  159.8317 H   0  0  0  0  0  0  0  0  0  0  0  0  # atno 6907 bound_to 6896
  151.1088  133.5181  159.2614 H   0  0  0  0  0  0  0  0  0  0  0  0  # atno 6908 bound_to 6896
  151.1907  135.0410  159.8886 H   0  0  0  0  0  0  0  0  0  0  0  0  # atno 6909 bound_to 6896
  146.2092  140.3284  142.8397 H   0  0  0  0  0  0  0  0  0  0  0  0  # atno 7974 bound_to 7965
  156.2845  140.2708  156.2008 H   0  0  0  0  0  0  0  0  0  0  0  0  # atno 8008 bound_to 7997
  155.0363  140.0386  157.2511 H   0  0  0  0  0  0  0  0  0  0  0  0  # atno 8009 bound_to 7997
  154.7312  140.2707  155.6460 H   0  0  0  0  0  0  0  0  0  0  0  0  # atno 8010 bound_to 7997
  140.7059  143.5966  150.8840 H   0  0  0  0  0  0  0  0  0  0  0  0  # atno 10167 bound_to 10162
  156.0545  130.5772  150.8121 H   0  0  0  0  0  0  0  0  0  0  0  0  # atno 10718 bound_to 10713
  152.9832  135.6054  154.3359 H   0  0  0  0  0  0  0  0  0  0  0  0  # atno 10763 bound_to 10752
  154.3059  135.2772  155.2591 H   0  0  0  0  0  0  0  0  0  0  0  0  # atno 10764 bound_to 10752
  154.4822  135.5914  153.6454 H   0  0  0  0  0  0  0  0  0  0  0  0  # atno 10765 bound_to 10752
  140.1350  134.4657  155.8492 H   0  0  0  0  0  0  0  0  0  0  0  0  # atno 11005 bound_to 11000
  144.8870  140.7474  143.5951 LP  0  0  0  0  0  0  0  0  0  0  0  0  # atno 17320 bound_to 7965
  145.3206  139.1790  143.4590 LP  0  0  0  0  0  0  0  0  0  0  0  0  # atno 17321 bound_to 7965
  139.9691  143.6077  152.2979 LP  0  0  0  0  0  0  0  0  0  0  0  0  # atno 17342 bound_to 10162
  139.6657  144.7662  151.1877 LP  0  0  0  0  0  0  0  0  0  0  0  0  # atno 17343 bound_to 10162
  157.5502  131.0943  150.9705 LP  0  0  0  0  0  0  0  0  0  0  0  0  # atno 17370 bound_to 10713
  156.9967  130.5584  149.5308 LP  0  0  0  0  0  0  0  0  0  0  0  0  # atno 17371 bound_to 10713
  141.2177  133.6810  156.7140 LP  0  0  0  0  0  0  0  0  0  0  0  0  # atno 17394 bound_to 11000
  140.2794  134.8329  157.3919 LP  0  0  0  0  0  0  0  0  0  0  0  0  # atno 17395 bound_to 11000

$$$$
