AV-unprocessed.smi:1419|AV-procd|sdf|5780|dock3
  -GOLD-   22720 5423D 1   1.00000     0.00000
 Structure written by MMmdl.
 41 42  0  0  0  0  0  0  0  0  1 V2000
  150.8597  139.5547  156.1601 C   0  0  0  0  0  0  0  0  0  0  0  0
  150.2741  140.9376  156.4750 C   0  0  2  0  0  0  0  0  0  0  0  0
  149.9040  141.7002  155.1849 C   0  0  0  0  0  0  0  0  0  0  0  0
  148.5548  141.4128  154.7312 N   0  0  0  0  0  0  0  0  0  0  0  0
  148.1767  140.4920  153.7625 C   0  0  0  0  0  0  0  0  0  0  0  0
  146.8073  140.5768  153.6526 C   0  0  0  0  0  0  0  0  0  0  0  0
  146.3240  141.5308  154.5448 N   0  0  0  0  0  0  0  0  0  0  0  0
  147.4155  141.9802  155.1507 C   0  0  0  0  0  0  0  0  0  0  0  0
  151.2432  141.7016  157.2601 N   0  0  0  0  0  0  0  0  0  0  0  0
  151.8167  141.3013  158.4089 C   0  0  0  0  0  0  0  0  0  0  0  0
  151.6580  140.1677  158.8641 O   0  0  0  0  0  0  0  0  0  0  0  0
  152.5804  142.2423  159.0162 N   0  0  0  0  0  0  0  0  0  0  0  0
  152.4851  143.6967  158.8319 C   0  0  0  0  0  0  0  0  0  0  0  0
  151.7649  144.2851  160.0623 C   0  0  2  0  0  0  0  0  0  0  0  0
  151.6541  145.8116  159.9954 C   0  0  0  0  0  0  0  0  0  0  0  0
  152.4968  143.9421  161.2393 O   0  0  0  0  0  0  0  0  0  0  0  0
  152.6625  142.5366  161.4290 C   0  0  2  0  0  0  0  0  0  0  0  0
  153.4452  142.3159  162.7276 C   0  0  0  0  0  0  0  0  0  0  0  0
  153.3867  141.9459  160.2019 C   0  0  0  0  0  0  0  0  0  0  0  0
  150.1490  138.9473  155.5990 H   0  0  0  0  0  0  0  0  0  0  0  0
  151.1039  139.0135  157.0750 H   0  0  0  0  0  0  0  0  0  0  0  0
  151.7710  139.6340  155.5661 H   0  0  0  0  0  0  0  0  0  0  0  0
  149.3644  140.7769  157.0562 H   0  0  0  0  0  0  0  0  0  0  0  0
  149.9980  142.7764  155.3378 H   0  0  0  0  0  0  0  0  0  0  0  0
  150.5936  141.4371  154.3816 H   0  0  0  0  0  0  0  0  0  0  0  0
  148.8935  139.8758  153.2403 H   0  0  0  0  0  0  0  0  0  0  0  0
  146.1383  140.0286  153.0059 H   0  0  0  0  0  0  0  0  0  0  0  0
  147.3870  142.7480  155.9099 H   0  0  0  0  0  0  0  0  0  0  0  0
  151.4422  142.6388  156.9425 H   0  0  0  0  0  0  0  0  0  0  0  0
  153.4899  144.1140  158.7481 H   0  0  0  0  0  0  0  0  0  0  0  0
  151.9700  143.9926  157.9181 H   0  0  0  0  0  0  0  0  0  0  0  0
  150.7601  143.8658  160.1359 H   0  0  0  0  0  0  0  0  0  0  0  0
  151.0890  146.1264  159.1179 H   0  0  0  0  0  0  0  0  0  0  0  0
  152.6393  146.2762  159.9447 H   0  0  0  0  0  0  0  0  0  0  0  0
  151.1455  146.2037  160.8764 H   0  0  0  0  0  0  0  0  0  0  0  0
  151.6785  142.0750  161.5324 H   0  0  0  0  0  0  0  0  0  0  0  0
  153.5868  141.2528  162.9232 H   0  0  0  0  0  0  0  0  0  0  0  0
  152.9145  142.7425  163.5789 H   0  0  0  0  0  0  0  0  0  0  0  0
  154.4295  142.7825  162.6799 H   0  0  0  0  0  0  0  0  0  0  0  0
  153.5542  140.8765  160.3388 H   0  0  0  0  0  0  0  0  0  0  0  0
  154.3767  142.3912  160.0910 H   0  0  0  0  0  0  0  0  0  0  0  0
  1  2  1  0  0  0  0
  1 20  1  0  0  0  0
  1 21  1  0  0  0  0
  1 22  1  0  0  0  0
  2  3  1  0  0  0  0
  2  9  1  0  0  0  0
  2 23  1  0  0  0  0
  3  4  1  0  0  0  0
  3 24  1  0  0  0  0
  3 25  1  0  0  0  0
  4  8  1  0  0  0  0
  4  5  1  0  0  0  0
  5  6  2  0  0  0  0
  5 26  1  0  0  0  0
  6  7  1  0  0  0  0
  6 27  1  0  0  0  0
  7  8  2  0  0  0  0
  8 28  1  0  0  0  0
  9 10  1  0  0  0  0
  9 29  1  0  0  0  0
 10 11  2  0  0  0  0
 10 12  1  0  0  0  0
 12 19  1  0  0  0  0
 12 13  1  0  0  0  0
 13 14  1  0  0  0  0
 13 30  1  0  0  0  0
 13 31  1  0  0  0  0
 14 15  1  0  0  0  0
 14 16  1  0  0  0  0
 14 32  1  0  0  0  0
 15 33  1  0  0  0  0
 15 34  1  0  0  0  0
 15 35  1  0  0  0  0
 16 17  1  0  0  0  0
 17 18  1  0  0  0  0
 17 19  1  0  0  0  0
 17 36  1  0  0  0  0
 18 37  1  0  0  0  0
 18 38  1  0  0  0  0
 18 39  1  0  0  0  0
 19 40  1  0  0  0  0
 19 41  1  0  0  0  0
M  END
> <s_m_source_file>
AV-unprocessed.smi

> <i_m_source_file_index>
1419

> <i_lp_mmshare_version>
43012

> <i_f3d_flags>
0

> <s_epik_input>
W2NIXTFuW2NIXVtjSF1uMVtDSDJdW0NAQEhdKFtDSDNdKVtOSF1DKD1PKU4yW0NIMl1bQ0BASF0oW0NIM10pT1tDQEBIXShbQ0gzXSlbQ0gyXTI=

> <s_epik_cmdline>
J2VwaWtfcHl0aG9uJywgJy1waCcsICc3LjAnLCAnLXRuJywgJzgnLCAnLW1hJywgJzIwMCcsICctbWV0YWxfYmluZGluZycsICctaW1hZScsICc8aW5maWxlLm1hZT4nLCAnLW9tYWUnLCAnPG91dGZpbGUubWFlPic=

> <r_lp_tautomer_probability>
1

> <r_epik_Ionization_Penalty>
0.625124

> <r_epik_Ionization_Penalty_Charging>
0.625093

> <r_epik_Ionization_Penalty_Neutral>
3.17415e-05

> <r_epik_State_Penalty>
0.641455

> <r_epik_Charging_Adjusted_Penalty>
1.26655

> <i_epik_Tot_Q>
0

> <i_epik_Tot_abs_Q>
0

> <r_epik_Metal_State_Penalty>
0.307717

> <b_epik_Metal_Only>
0

> <s_lp_Force_Field>
OPLS_2005

> <r_lp_Energy>
27.7679

> <b_lp_Chiralities_Consistent>
1

> <s_lp_Variant>
AV-unprocessed.smi:1419-7

> <Gold.Version>
5.8.1

> <Gold.Id.Protein>
6NUR|6NUR_protein|mol2

> <Gold.PLP.Fitness>
48.8093

> <Gold.PLP.PLP>
-42.2718

> <Gold.PLP.part.hbond>
0.0000

> <Gold.PLP.part.metal>
0.0000

> <Gold.PLP.part.buried>
-0.5256

> <Gold.PLP.part.nonpolar>
-42.1086

> <Gold.PLP.part.repulsive>
0.3253

> <Gold.PLP.ligand.clash>
0.0000

> <Gold.PLP.ligand.torsion>
0.8178

> <Gold.PLP.Chemscore.Hbond>
0.0000

> <Gold.PLP.Chemscore.CHOScore>
2.6979

> <Gold.PLP.Chemscore.Metal>
0.0000

> <Gold.Chemscore.Hbonds>
donor molecule, donor type, donor heavy atom, donor atom, acceptor molecule, acceptor atom, score
      L1  C     5    26       P1  7957  0.98
      L1  C     6    27       P1 10175  0.94
      L1  C     8    28       P1  8028  0.74

> <Gold.PLP.Chemscore.Internal.Correction>
0.0795

> <Gold.Rescore>
     Score         DG    S(hbond)    S(metal)    S(lipo)     H(rot)  DE(clash)    DE(int)     intcor
     12.67     -13.70       0.00        0.00     104.76       1.58       0.23       0.80       ----

> <Gold.Chemscore.Fitness>
12.6696

> <Gold.Chemscore.DG>
-13.7006

> <Gold.Chemscore.ZeroCoef>
-5.4800

> <Gold.Chemscore.Hbond>
0.0000

> <Gold.Chemscore.Metal>
0.0000

> <Gold.Chemscore.Lipo>
104.7649

> <Gold.Chemscore.Internal_Hbond>
0.0000

> <Gold.Chemscore.DEClash>
0.2275

> <Gold.Chemscore.DEInternal>
0.8034

> <Gold.Chemscore.Rot>
1.5769

> <Gold.Chemscore.Internal.Correction>
   9.000000E+99

> <Gold.Chemscore.Hbond.Weighted>
-0.0000

> <Gold.Chemscore.Metal.Weighted>
-0.0000

> <Gold.Chemscore.Lipo.Weighted>
-12.2575

> <Gold.Chemscore.Internal_Hbond.Weighted>
0.0000

> <Gold.Chemscore.DEClash.Weighted>
0.2275

> <Gold.Chemscore.DEInternal.Weighted>
0.8034

> <Gold.Chemscore.Rot.Weighted>
4.0369

> <Gold.Chemscore.Internal.Correction.Weighted>
   9.000000E+99

> <Gold.Protein.RotatedTorsions>
[ 6907 6896 6895 6894 ] final  -94.42 input  -60.11 | X-H torsion
[ 7974 7965 7964 7962 ] final   46.56 input  175.53 | X-H torsion
[ 8008 7997 7996 7995 ] final  120.22 input   59.86 | X-H torsion
[ 10167 10162 10161 10158 ] final   79.96 input  -65.29 | X-H torsion
[ 10718 10713 10712 10709 ] final  -55.19 input   66.30 | X-H torsion
[ 10763 10752 10751 10750 ] final   86.69 input  -60.55 | X-H torsion
[ 11005 11000 10999 10996 ] final   59.68 input  -57.11 | X-H torsion

> <Gold.Protein.ActiveResidues>
 VAL166  LYS551  ARG553  GLY616  TRP617  ASP618  TYR619  PRO620  LYS621  CYS622 
 ASP623  PHE694  ASN695  SER759  ASP760  ASP761  ALA762  ILE779  LEU786  VAL792 
 PHE793  MET794  SER795  GLU796  ALA797  LYS798  CYS799  TRP800  GLU811  SER814 

> <Gold.Protein.RotatedAtoms>
  150.6941  134.1815  159.4250 H   0  0  0  0  0  0  0  0  0  0  0  0  # atno 6907 bound_to 6896
  151.9789  135.0036  160.0566 H   0  0  0  0  0  0  0  0  0  0  0  0  # atno 6908 bound_to 6896
  152.1773  133.4648  159.4977 H   0  0  0  0  0  0  0  0  0  0  0  0  # atno 6909 bound_to 6896
  146.0378  139.4843  142.9797 H   0  0  0  0  0  0  0  0  0  0  0  0  # atno 7974 bound_to 7965
  156.2632  140.2835  156.1115 H   0  0  0  0  0  0  0  0  0  0  0  0  # atno 8008 bound_to 7997
  155.1252  140.0393  157.2778 H   0  0  0  0  0  0  0  0  0  0  0  0  # atno 8009 bound_to 7997
  154.6640  140.2573  155.7084 H   0  0  0  0  0  0  0  0  0  0  0  0  # atno 8010 bound_to 7997
  139.9548  144.6001  150.8127 H   0  0  0  0  0  0  0  0  0  0  0  0  # atno 10167 bound_to 10162
  156.1389  130.4155  150.0138 H   0  0  0  0  0  0  0  0  0  0  0  0  # atno 10718 bound_to 10713
  153.1595  135.4571  154.9752 H   0  0  0  0  0  0  0  0  0  0  0  0  # atno 10763 bound_to 10752
  154.7887  135.3213  154.7830 H   0  0  0  0  0  0  0  0  0  0  0  0  # atno 10764 bound_to 10752
  153.8322  135.6937  153.4867 H   0  0  0  0  0  0  0  0  0  0  0  0  # atno 10765 bound_to 10752
  140.0286  134.6046  155.9538 H   0  0  0  0  0  0  0  0  0  0  0  0  # atno 11005 bound_to 11000
  145.6934  141.0157  143.1543 LP  0  0  0  0  0  0  0  0  0  0  0  0  # atno 17320 bound_to 7965
  144.7060  139.8559  143.7430 LP  0  0  0  0  0  0  0  0  0  0  0  0  # atno 17321 bound_to 7965
  140.7571  143.3080  151.2913 LP  0  0  0  0  0  0  0  0  0  0  0  0  # atno 17342 bound_to 10162
  139.6600  144.0207  152.2686 LP  0  0  0  0  0  0  0  0  0  0  0  0  # atno 17343 bound_to 10162
  156.8029  130.9297  151.3645 LP  0  0  0  0  0  0  0  0  0  0  0  0  # atno 17370 bound_to 10713
  157.6557  130.8922  149.9724 LP  0  0  0  0  0  0  0  0  0  0  0  0  # atno 17371 bound_to 10713
  141.1817  133.6548  156.5049 LP  0  0  0  0  0  0  0  0  0  0  0  0  # atno 17394 bound_to 11000
  140.4264  134.7141  157.4918 LP  0  0  0  0  0  0  0  0  0  0  0  0  # atno 17395 bound_to 11000

$$$$
