AV-unprocessed.smi:3255|AV-procd|sdf|12464|dock3
  -GOLD-   2272018363D 1   1.00000     0.00000
 Structure written by MMmdl.
 38 39  0  0  0  0  0  0  0  0  1 V2000
  148.8421  131.9115  153.3794 C   0  0  0  0  0  0  0  0  0  0  0  0
  147.6510  132.8857  153.3798 C   0  0  1  0  0  0  0  0  0  0  0  0
  148.1360  134.2583  153.4999 N   0  0  0  0  0  0  0  0  0  0  0  0
  148.2109  134.9556  154.6420 C   0  0  0  0  0  0  0  0  0  0  0  0
  147.9051  134.5073  155.7472 O   0  0  0  0  0  0  0  0  0  0  0  0
  148.6547  136.2029  154.4347 N   0  0  0  0  0  0  0  0  0  0  0  0
  148.8349  137.2066  155.4767 C   0  0  0  0  0  0  0  0  0  0  0  0
  149.3303  138.5408  154.8954 C   0  0  0  0  0  0  0  0  0  0  0  0
  150.7731  138.6464  154.9657 N   0  0  0  0  0  0  0  0  0  0  0  0
  151.7033  137.8002  154.3771 C   0  0  0  0  0  0  0  0  0  0  0  0
  152.9458  138.2913  154.7092 C   0  0  0  0  0  0  0  0  0  0  0  0
  152.8043  139.4325  155.4956 N   0  0  0  0  0  0  0  0  0  0  0  0
  151.4902  139.5807  155.6047 C   0  0  0  0  0  0  0  0  0  0  0  0
  146.7976  132.7645  152.1031 C   0  0  1  0  0  0  0  0  0  0  0  0
  146.1420  131.3977  151.8963 C   0  0  0  0  0  0  0  0  0  0  0  0
  144.9124  131.7076  151.0560 C   0  0  0  0  0  0  0  0  0  0  0  0
  144.7712  133.2291  151.1451 C   0  0  0  0  0  0  0  0  0  0  0  0
  145.6685  133.6224  152.1732 O   0  0  0  0  0  0  0  0  0  0  0  0
  148.5074  130.8753  153.3290 H   0  0  0  0  0  0  0  0  0  0  0  0
  149.4370  132.0132  154.2877 H   0  0  0  0  0  0  0  0  0  0  0  0
  149.5004  132.0906  152.5290 H   0  0  0  0  0  0  0  0  0  0  0  0
  147.0152  132.6585  154.2377 H   0  0  0  0  0  0  0  0  0  0  0  0
  148.4068  134.7183  152.6433 H   0  0  0  0  0  0  0  0  0  0  0  0
  148.8783  136.4794  153.4898 H   0  0  0  0  0  0  0  0  0  0  0  0
  147.9006  137.3494  156.0227 H   0  0  0  0  0  0  0  0  0  0  0  0
  149.5586  136.8215  156.1956 H   0  0  0  0  0  0  0  0  0  0  0  0
  149.0240  138.6423  153.8533 H   0  0  0  0  0  0  0  0  0  0  0  0
  148.8983  139.3835  155.4369 H   0  0  0  0  0  0  0  0  0  0  0  0
  151.4118  136.9437  153.7870 H   0  0  0  0  0  0  0  0  0  0  0  0
  153.9226  137.9148  154.4439 H   0  0  0  0  0  0  0  0  0  0  0  0
  151.0386  140.3891  156.1609 H   0  0  0  0  0  0  0  0  0  0  0  0
  147.3862  133.0302  151.2224 H   0  0  0  0  0  0  0  0  0  0  0  0
  146.8088  130.6795  151.4185 H   0  0  0  0  0  0  0  0  0  0  0  0
  145.8297  130.9799  152.8544 H   0  0  0  0  0  0  0  0  0  0  0  0
  145.0433  131.3925  150.0203 H   0  0  0  0  0  0  0  0  0  0  0  0
  144.0342  131.1985  151.4543 H   0  0  0  0  0  0  0  0  0  0  0  0
  145.0732  133.6978  150.2073 H   0  0  0  0  0  0  0  0  0  0  0  0
  143.7520  133.5440  151.3707 H   0  0  0  0  0  0  0  0  0  0  0  0
  1  2  1  0  0  0  0
  1 19  1  0  0  0  0
  1 20  1  0  0  0  0
  1 21  1  0  0  0  0
  2  3  1  0  0  0  0
  2 14  1  0  0  0  0
  2 22  1  0  0  0  0
  3  4  1  0  0  0  0
  3 23  1  0  0  0  0
  4  5  2  0  0  0  0
  4  6  1  0  0  0  0
  6  7  1  0  0  0  0
  6 24  1  0  0  0  0
  7  8  1  0  0  0  0
  7 25  1  0  0  0  0
  7 26  1  0  0  0  0
  8  9  1  0  0  0  0
  8 27  1  0  0  0  0
  8 28  1  0  0  0  0
  9 13  1  0  0  0  0
  9 10  1  0  0  0  0
 10 11  2  0  0  0  0
 10 29  1  0  0  0  0
 11 12  1  0  0  0  0
 11 30  1  0  0  0  0
 12 13  2  0  0  0  0
 13 31  1  0  0  0  0
 14 18  1  0  0  0  0
 14 15  1  0  0  0  0
 14 32  1  0  0  0  0
 15 16  1  0  0  0  0
 15 33  1  0  0  0  0
 15 34  1  0  0  0  0
 16 17  1  0  0  0  0
 16 35  1  0  0  0  0
 16 36  1  0  0  0  0
 17 18  1  0  0  0  0
 17 37  1  0  0  0  0
 17 38  1  0  0  0  0
M  END
> <s_m_source_file>
AV-unprocessed.smi

> <i_m_source_file_index>
3255

> <i_lp_mmshare_version>
43012

> <i_f3d_flags>
0

> <s_epik_input>
TzFbQ0gyXVtDSDJdW0NIMl1bQ0BIXTFbQ0BIXShbQ0gzXSlbTkhdQyg9TylbTkhdW0NIMl1bQ0gyXW4yW2NIXVtjSF1uW2NIXTI=

> <s_epik_cmdline>
J2VwaWtfcHl0aG9uJywgJy1waCcsICc3LjAnLCAnLXRuJywgJzgnLCAnLW1hJywgJzIwMCcsICctbWV0YWxfYmluZGluZycsICctaW1hZScsICc8aW5maWxlLm1hZT4nLCAnLW9tYWUnLCAnPG91dGZpbGUubWFlPic=

> <r_lp_tautomer_probability>
1

> <r_epik_Ionization_Penalty>
0.620274

> <r_epik_Ionization_Penalty_Charging>
0.620225

> <r_epik_Ionization_Penalty_Neutral>
4.91362e-05

> <r_epik_State_Penalty>
0.636186

> <r_epik_Charging_Adjusted_Penalty>
1.25641

> <i_epik_Tot_Q>
0

> <i_epik_Tot_abs_Q>
0

> <r_epik_Metal_State_Penalty>
0.306491

> <b_epik_Metal_Only>
0

> <s_lp_Force_Field>
OPLS_2005

> <r_lp_Energy>
17.3194

> <b_lp_Chiralities_Consistent>
1

> <s_lp_Variant>
AV-unprocessed.smi:3255-8

> <Gold.Version>
5.8.1

> <Gold.Id.Protein>
6NUR|6NUR_protein|mol2

> <Gold.PLP.Fitness>
43.2728

> <Gold.PLP.PLP>
-32.4394

> <Gold.PLP.part.hbond>
-3.2297

> <Gold.PLP.part.metal>
0.0000

> <Gold.PLP.part.buried>
-4.0153

> <Gold.PLP.part.nonpolar>
-26.2538

> <Gold.PLP.part.repulsive>
0.1309

> <Gold.PLP.ligand.clash>
0.0000

> <Gold.PLP.ligand.torsion>
0.5498

> <Gold.PLP.Chemscore.Hbond>
2.9600

> <Gold.PLP.Chemscore.CHOScore>
1.0000

> <Gold.PLP.Chemscore.Metal>
0.0000

> <Gold.Chemscore.Hbonds>
donor molecule, donor type, donor heavy atom, donor atom, acceptor molecule, acceptor atom, score
      L1  H     3    23       P1  7948  0.98
      L1  H     6    24       P1  7948  1.00
      P1  H  7997  8008       L1    12  1.00
      L1  C    10    29       P1  7949  1.00

> <Gold.PLP.Chemscore.Internal.Correction>
0.0529

> <Gold.Rescore>
     Score         DG    S(hbond)    S(metal)    S(lipo)     H(rot)  DE(clash)    DE(int)     intcor
     15.19     -15.97       2.75        0.00      58.91       2.18       0.00       0.77       ----

> <Gold.Chemscore.Fitness>
15.1942

> <Gold.Chemscore.DG>
-15.9678

> <Gold.Chemscore.ZeroCoef>
-5.4800

> <Gold.Chemscore.Hbond>
2.7496

> <Gold.Chemscore.Metal>
0.0000

> <Gold.Chemscore.Lipo>
58.9071

> <Gold.Chemscore.Internal_Hbond>
0.0000

> <Gold.Chemscore.DEClash>
0.0009

> <Gold.Chemscore.DEInternal>
0.7727

> <Gold.Chemscore.Rot>
2.1828

> <Gold.Chemscore.Internal.Correction>
   9.000000E+99

> <Gold.Chemscore.Hbonds>
donor molecule, donor type, donor heavy atom, donor atom, acceptor molecule, acceptor atom, score
      L1  H     3    23       P1  7948  0.28
      L1  H     6    24       P1  7948  0.97
      P1  H  7997  8008       L1    12  0.88

> <Gold.Chemscore.Hbond.Weighted>
-9.1838

> <Gold.Chemscore.Metal.Weighted>
-0.0000

> <Gold.Chemscore.Lipo.Weighted>
-6.8921

> <Gold.Chemscore.Internal_Hbond.Weighted>
0.0000

> <Gold.Chemscore.DEClash.Weighted>
0.0009

> <Gold.Chemscore.DEInternal.Weighted>
0.7727

> <Gold.Chemscore.Rot.Weighted>
5.5881

> <Gold.Chemscore.Internal.Correction.Weighted>
   9.000000E+99

> <Gold.Protein.RotatedTorsions>
[ 6907 6896 6895 6894 ] final  176.52 input  -60.11 | X-H torsion
[ 7974 7965 7964 7962 ] final  -53.19 input  175.53 | X-H torsion
[ 8008 7997 7996 7995 ] final  -24.91 input   59.86 | X-H torsion
[ 10167 10162 10161 10158 ] final  -53.52 input  -65.29 | X-H torsion
[ 10718 10713 10712 10709 ] final  120.63 input   66.30 | X-H torsion
[ 10763 10752 10751 10750 ] final   19.10 input  -60.55 | X-H torsion
[ 11005 11000 10999 10996 ] final  -42.78 input  -57.11 | X-H torsion

> <Gold.Protein.ActiveResidues>
 VAL166  LYS551  ARG553  GLY616  TRP617  ASP618  TYR619  PRO620  LYS621  CYS622 
 ASP623  PHE694  ASN695  SER759  ASP760  ASP761  ALA762  ILE779  LEU786  VAL792 
 PHE793  MET794  SER795  GLU796  ALA797  LYS798  CYS799  TRP800  GLU811  SER814 

> <Gold.Protein.RotatedAtoms>
  151.7187  133.3314  159.3309 H   0  0  0  0  0  0  0  0  0  0  0  0  # atno 6907 bound_to 6896
  150.7662  134.6467  159.6275 H   0  0  0  0  0  0  0  0  0  0  0  0  # atno 6908 bound_to 6896
  152.3665  134.6798  160.0242 H   0  0  0  0  0  0  0  0  0  0  0  0  # atno 6909 bound_to 6896
  145.8995  140.8005  142.9750 H   0  0  0  0  0  0  0  0  0  0  0  0  # atno 7974 bound_to 7965
  154.4503  140.1940  156.0538 H   0  0  0  0  0  0  0  0  0  0  0  0  # atno 8008 bound_to 7997
  156.0634  140.3294  155.7461 H   0  0  0  0  0  0  0  0  0  0  0  0  # atno 8009 bound_to 7997
  155.5376  140.0583  157.2867 H   0  0  0  0  0  0  0  0  0  0  0  0  # atno 8010 bound_to 7997
  140.6480  143.2548  151.4804 H   0  0  0  0  0  0  0  0  0  0  0  0  # atno 10167 bound_to 10162
  157.5877  131.1068  150.8062 H   0  0  0  0  0  0  0  0  0  0  0  0  # atno 10718 bound_to 10713
  153.1191  135.6715  153.9366 H   0  0  0  0  0  0  0  0  0  0  0  0  # atno 10763 bound_to 10752
  153.8886  135.3049  155.3448 H   0  0  0  0  0  0  0  0  0  0  0  0  # atno 10764 bound_to 10752
  154.7605  135.4990  153.9534 H   0  0  0  0  0  0  0  0  0  0  0  0  # atno 10765 bound_to 10752
  141.0339  133.6808  156.2642 H   0  0  0  0  0  0  0  0  0  0  0  0  # atno 11005 bound_to 11000
  144.6735  140.1655  143.7419 LP  0  0  0  0  0  0  0  0  0  0  0  0  # atno 17320 bound_to 7965
  145.8808  139.2322  143.1606 LP  0  0  0  0  0  0  0  0  0  0  0  0  # atno 17321 bound_to 7965
  139.5692  144.1968  152.1812 LP  0  0  0  0  0  0  0  0  0  0  0  0  # atno 17342 bound_to 10162
  140.1259  144.5332  150.6833 LP  0  0  0  0  0  0  0  0  0  0  0  0  # atno 17343 bound_to 10162
  156.8492  130.5074  149.5313 LP  0  0  0  0  0  0  0  0  0  0  0  0  # atno 17370 bound_to 10713
  156.0927  130.5908  150.9761 LP  0  0  0  0  0  0  0  0  0  0  0  0  # atno 17371 bound_to 10713
  140.6357  134.5218  157.5564 LP  0  0  0  0  0  0  0  0  0  0  0  0  # atno 17394 bound_to 11000
  139.9227  134.8117  156.1162 LP  0  0  0  0  0  0  0  0  0  0  0  0  # atno 17395 bound_to 11000

$$$$
