AV-unprocessed.smi:1881|AV-procd|sdf|7640|dock6
  -GOLD-   22720 9363D 1   1.00000     0.00000
 Structure written by MMmdl.
 51 52  0  0  0  0  0  0  0  0  2 V2000
  150.6442  142.0967  157.1088 C   0  0  0  0  0  0  0  0  0  0  0  0
  150.9332  140.5941  157.3540 C   0  0  0  0  0  0  0  0  0  0  0  0
  152.2194  140.5495  158.2227 C   0  0  0  0  0  0  0  0  0  0  0  0
  149.8319  139.9064  158.1936 C   0  0  0  0  0  0  0  0  0  0  0  0
  151.1900  139.8159  156.0217 C   0  0  0  0  0  0  0  0  0  0  0  0
  151.0378  140.4335  154.9651 O   0  0  0  0  0  0  0  0  0  0  0  0
  151.5637  138.5049  155.9895 N   0  0  0  0  0  0  0  0  0  0  0  0
  151.7815  137.5861  157.1151 C   0  0  0  0  0  0  0  0  0  0  0  0
  150.6408  136.5525  157.1495 C   0  0  0  0  0  0  0  0  0  0  0  0
  150.5547  135.7775  155.8142 C   0  0  0  0  0  0  0  0  0  0  0  0
  149.3258  134.8603  155.7951 C   0  0  0  0  0  0  0  0  0  0  0  0
  148.9782  134.2667  156.8166 O   0  0  0  0  0  0  0  0  0  0  0  0
  148.6912  134.7332  154.6185 N   0  0  0  0  0  0  0  0  0  0  0  0
  147.5205  133.8946  154.3716 C   0  0  0  0  0  0  0  0  0  0  0  0
  147.6565  133.0297  153.1017 C   0  0  0  0  0  0  0  0  0  0  0  0
  146.3970  132.9749  152.2536 C   0  0  0  0  0  0  0  0  0  0  0  0
  145.2319  133.6923  152.6006 C   0  0  0  0  0  0  0  0  0  0  0  0
  144.0820  133.5718  151.7931 C   0  0  0  0  0  0  0  0  0  0  0  0
  144.1201  132.7371  150.6571 C   0  0  0  0  0  0  0  0  0  0  0  0
  145.3098  132.0436  150.3562 C   0  0  0  0  0  0  0  0  0  0  0  0
  146.3911  132.1864  151.1535 N   0  3  0  0  0  0  0  0  0  0  0  0
  150.5467  136.7513  154.6133 C   0  0  0  0  0  0  0  0  0  0  0  0
  151.6964  137.7694  154.7201 C   0  0  0  0  0  0  0  0  0  0  0  0
  150.8839  142.6948  157.9886 H   0  0  0  0  0  0  0  0  0  0  0  0
  149.5997  142.3101  156.8957 H   0  0  0  0  0  0  0  0  0  0  0  0
  151.2428  142.4924  156.2872 H   0  0  0  0  0  0  0  0  0  0  0  0
  153.0660  141.0179  157.7179 H   0  0  0  0  0  0  0  0  0  0  0  0
  152.5076  139.5279  158.4766 H   0  0  0  0  0  0  0  0  0  0  0  0
  152.0822  141.0760  159.1682 H   0  0  0  0  0  0  0  0  0  0  0  0
  149.7461  140.3705  159.1766 H   0  0  0  0  0  0  0  0  0  0  0  0
  150.0618  138.8523  158.3556 H   0  0  0  0  0  0  0  0  0  0  0  0
  148.8428  139.9496  157.7456 H   0  0  0  0  0  0  0  0  0  0  0  0
  152.7346  137.0734  156.9772 H   0  0  0  0  0  0  0  0  0  0  0  0
  151.8760  138.0678  158.0790 H   0  0  0  0  0  0  0  0  0  0  0  0
  150.8016  135.8573  157.9745 H   0  0  0  0  0  0  0  0  0  0  0  0
  149.6978  137.0611  157.3560 H   0  0  0  0  0  0  0  0  0  0  0  0
  151.4506  135.1593  155.7312 H   0  0  0  0  0  0  0  0  0  0  0  0
  149.0433  135.2634  153.8343 H   0  0  0  0  0  0  0  0  0  0  0  0
  147.3130  133.2619  155.2364 H   0  0  0  0  0  0  0  0  0  0  0  0
  146.6576  134.5527  154.2676 H   0  0  0  0  0  0  0  0  0  0  0  0
  148.4716  133.4142  152.4876 H   0  0  0  0  0  0  0  0  0  0  0  0
  147.9432  132.0140  153.3780 H   0  0  0  0  0  0  0  0  0  0  0  0
  145.2149  134.3197  153.4798 H   0  0  0  0  0  0  0  0  0  0  0  0
  143.1798  134.1099  152.0447 H   0  0  0  0  0  0  0  0  0  0  0  0
  143.2487  132.6291  150.0280 H   0  0  0  0  0  0  0  0  0  0  0  0
  145.4271  131.3814  149.5110 H   0  0  0  0  0  0  0  0  0  0  0  0
  150.6348  136.1943  153.6797 H   0  0  0  0  0  0  0  0  0  0  0  0
  149.5987  137.2902  154.5632 H   0  0  0  0  0  0  0  0  0  0  0  0
  151.6953  138.4123  153.8395 H   0  0  0  0  0  0  0  0  0  0  0  0
  152.6575  137.2536  154.6931 H   0  0  0  0  0  0  0  0  0  0  0  0
  147.2390  131.6691  150.9214 H   0  0  0  0  0  0  0  0  0  0  0  0
  1  2  1  0  0  0  0
  1 24  1  0  0  0  0
  1 25  1  0  0  0  0
  1 26  1  0  0  0  0
  2  3  1  0  0  0  0
  2  4  1  0  0  0  0
  2  5  1  0  0  0  0
  3 27  1  0  0  0  0
  3 28  1  0  0  0  0
  3 29  1  0  0  0  0
  4 30  1  0  0  0  0
  4 31  1  0  0  0  0
  4 32  1  0  0  0  0
  5  6  2  0  0  0  0
  5  7  1  0  0  0  0
  7 23  1  0  0  0  0
  7  8  1  0  0  0  0
  8  9  1  0  0  0  0
  8 33  1  0  0  0  0
  8 34  1  0  0  0  0
  9 10  1  0  0  0  0
  9 35  1  0  0  0  0
  9 36  1  0  0  0  0
 10 11  1  0  0  0  0
 10 22  1  0  0  0  0
 10 37  1  0  0  0  0
 11 12  2  0  0  0  0
 11 13  1  0  0  0  0
 13 14  1  0  0  0  0
 13 38  1  0  0  0  0
 14 15  1  0  0  0  0
 14 39  1  0  0  0  0
 14 40  1  0  0  0  0
 15 16  1  0  0  0  0
 15 41  1  0  0  0  0
 15 42  1  0  0  0  0
 16 21  1  0  0  0  0
 16 17  2  0  0  0  0
 17 18  1  0  0  0  0
 17 43  1  0  0  0  0
 18 19  2  0  0  0  0
 18 44  1  0  0  0  0
 19 20  1  0  0  0  0
 19 45  1  0  0  0  0
 20 21  2  0  0  0  0
 20 46  1  0  0  0  0
 21 51  1  0  0  0  0
 22 23  1  0  0  0  0
 22 47  1  0  0  0  0
 22 48  1  0  0  0  0
 23 49  1  0  0  0  0
 23 50  1  0  0  0  0
M  CHG  1  21   1
M  END
> <s_m_source_file>
AV-unprocessed.smi

> <i_m_source_file_index>
1881

> <i_lp_mmshare_version>
43012

> <i_f3d_flags>
0

> <s_epik_input>
W0NIM11DKFtDSDNdKShbQ0gzXSlDKD1PKU4xW0NIMl1bQ0gyXVtDSF0oW0NIMl1bQ0gyXTEpQyg9TylbTkhdW0NIMl1bQ0gyXWMyW2NIXVtjSF1bY0hdW2NIXW4y

> <s_epik_cmdline>
J2VwaWtfcHl0aG9uJywgJy1waCcsICc3LjAnLCAnLXRuJywgJzgnLCAnLW1hJywgJzIwMCcsICctbWV0YWxfYmluZGluZycsICctaW1hZScsICc8aW5maWxlLm1hZT4nLCAnLW9tYWUnLCAnPG91dGZpbGUubWFlPic=

> <r_epik_Ionization_Penalty>
1.84673

> <r_epik_Ionization_Penalty_Charging>
1.84673

> <r_epik_Ionization_Penalty_Neutral>
1.24553e-07

> <r_epik_State_Penalty>
1.9639

> <r_epik_Charging_Adjusted_Penalty>
3.81063

> <i_epik_Tot_Q>
1

> <i_epik_Tot_abs_Q>
1

> <r_epik_Metal_State_Penalty>
1.98977

> <b_epik_Metal_Only>
0

> <s_lp_Force_Field>
OPLS_2005

> <r_lp_Energy>
43.8057

> <b_lp_Chiralities_Consistent>
1

> <s_lp_Variant>
AV-unprocessed.smi:1881-2

> <Gold.Version>
5.8.1

> <Gold.Id.Protein>
6NUR|6NUR_protein|mol2

> <Gold.PLP.Fitness>
45.5403

> <Gold.PLP.PLP>
-38.8291

> <Gold.PLP.part.hbond>
-3.0000

> <Gold.PLP.part.metal>
0.0000

> <Gold.PLP.part.buried>
-4.1858

> <Gold.PLP.part.nonpolar>
-33.0576

> <Gold.PLP.part.repulsive>
0.1437

> <Gold.PLP.ligand.clash>
0.3082

> <Gold.PLP.ligand.torsion>
1.0042

> <Gold.PLP.Chemscore.Hbond>
2.9760

> <Gold.PLP.Chemscore.CHOScore>
0.0000

> <Gold.PLP.Chemscore.Metal>
0.0000

> <Gold.Chemscore.Hbonds>
donor molecule, donor type, donor heavy atom, donor atom, acceptor molecule, acceptor atom, score
      L1  H    13    38       P1  7948  0.65
      L1  H    21    51       P1 10747  1.00
      P1  H  7989  7998       L1     6  1.00

> <Gold.PLP.Chemscore.Internal.Correction>
0.0999

> <Gold.Rescore>
     Score         DG    S(hbond)    S(metal)    S(lipo)     H(rot)  DE(clash)    DE(int)     intcor
     18.49     -19.86       2.29        0.00      93.86       1.65       0.21       1.16       ----

> <Gold.Chemscore.Fitness>
18.4917

> <Gold.Chemscore.DG>
-19.8594

> <Gold.Chemscore.ZeroCoef>
-5.4800

> <Gold.Chemscore.Hbond>
2.2851

> <Gold.Chemscore.Metal>
0.0000

> <Gold.Chemscore.Lipo>
93.8576

> <Gold.Chemscore.Internal_Hbond>
0.0000

> <Gold.Chemscore.DEClash>
0.2092

> <Gold.Chemscore.DEInternal>
1.1585

> <Gold.Chemscore.Rot>
1.6540

> <Gold.Chemscore.Internal.Correction>
   9.000000E+99

> <Gold.Chemscore.Hbonds>
donor molecule, donor type, donor heavy atom, donor atom, acceptor molecule, acceptor atom, score
      L1  H    13    38       P1  7948  0.39
      L1  H    21    51       P1 10747  0.93
      P1  H  7989  7998       L1     6  0.96

> <Gold.Chemscore.Hbond.Weighted>
-7.6322

> <Gold.Chemscore.Metal.Weighted>
-0.0000

> <Gold.Chemscore.Lipo.Weighted>
-10.9813

> <Gold.Chemscore.Internal_Hbond.Weighted>
0.0000

> <Gold.Chemscore.DEClash.Weighted>
0.2092

> <Gold.Chemscore.DEInternal.Weighted>
1.1585

> <Gold.Chemscore.Rot.Weighted>
4.2342

> <Gold.Chemscore.Internal.Correction.Weighted>
   9.000000E+99

> <Gold.Protein.RotatedTorsions>
[ 6907 6896 6895 6894 ] final   99.11 input  -60.11 | X-H torsion
[ 7974 7965 7964 7962 ] final  110.42 input  175.53 | X-H torsion
[ 8008 7997 7996 7995 ] final -167.98 input   59.86 | X-H torsion
[ 10167 10162 10161 10158 ] final -107.17 input  -65.29 | X-H torsion
[ 10718 10713 10712 10709 ] final  137.31 input   66.30 | X-H torsion
[ 10763 10752 10751 10750 ] final   60.79 input  -60.55 | X-H torsion
[ 11005 11000 10999 10996 ] final  -13.91 input  -57.11 | X-H torsion

> <Gold.Protein.ActiveResidues>
 VAL166  LYS551  ARG553  GLY616  TRP617  ASP618  TYR619  PRO620  LYS621  CYS622 
 ASP623  PHE694  ASN695  SER759  ASP760  ASP761  ALA762  ILE779  LEU786  VAL792 
 PHE793  MET794  SER795  GLU796  ALA797  LYS798  CYS799  TRP800  GLU811  SER814 

> <Gold.Protein.RotatedAtoms>
  152.5398  134.0478  159.8096 H   0  0  0  0  0  0  0  0  0  0  0  0  # atno 6907 bound_to 6896
  151.0624  133.5525  159.2640 H   0  0  0  0  0  0  0  0  0  0  0  0  # atno 6908 bound_to 6896
  151.2419  135.0600  159.9082 H   0  0  0  0  0  0  0  0  0  0  0  0  # atno 6909 bound_to 6896
  145.2552  139.2724  143.4046 H   0  0  0  0  0  0  0  0  0  0  0  0  # atno 7974 bound_to 7965
  155.8852  140.1015  157.1458 H   0  0  0  0  0  0  0  0  0  0  0  0  # atno 8008 bound_to 7997
  154.4009  140.1321  156.4309 H   0  0  0  0  0  0  0  0  0  0  0  0  # atno 8009 bound_to 7997
  155.7597  140.3463  155.5194 H   0  0  0  0  0  0  0  0  0  0  0  0  # atno 8010 bound_to 7997
  140.1798  143.3975  152.1290 H   0  0  0  0  0  0  0  0  0  0  0  0  # atno 10167 bound_to 10162
  157.4374  131.1054  151.0182 H   0  0  0  0  0  0  0  0  0  0  0  0  # atno 10718 bound_to 10713
  152.9931  135.5524  154.5930 H   0  0  0  0  0  0  0  0  0  0  0  0  # atno 10763 bound_to 10752
  154.5287  135.2812  155.1201 H   0  0  0  0  0  0  0  0  0  0  0  0  # atno 10764 bound_to 10752
  154.2525  135.6396  153.5298 H   0  0  0  0  0  0  0  0  0  0  0  0  # atno 10765 bound_to 10752
  140.7809  133.8363  155.9291 H   0  0  0  0  0  0  0  0  0  0  0  0  # atno 11005 bound_to 11000
  146.3291  140.2954  142.8617 LP  0  0  0  0  0  0  0  0  0  0  0  0  # atno 17320 bound_to 7965
  144.9467  140.8136  143.5597 LP  0  0  0  0  0  0  0  0  0  0  0  0  # atno 17321 bound_to 7965
  139.5301  144.7149  151.5087 LP  0  0  0  0  0  0  0  0  0  0  0  0  # atno 17342 bound_to 10162
  140.6527  143.8664  150.6802 LP  0  0  0  0  0  0  0  0  0  0  0  0  # atno 17343 bound_to 10162
  157.1057  130.6000  149.5470 LP  0  0  0  0  0  0  0  0  0  0  0  0  # atno 17370 bound_to 10713
  155.9936  130.4997  150.7385 LP  0  0  0  0  0  0  0  0  0  0  0  0  # atno 17371 bound_to 10713
  140.9483  134.1812  157.4747 LP  0  0  0  0  0  0  0  0  0  0  0  0  # atno 17394 bound_to 11000
  139.8742  134.9899  156.5478 LP  0  0  0  0  0  0  0  0  0  0  0  0  # atno 17395 bound_to 11000

$$$$
