AV-unprocessed.smi:104|AV-procd|sdf|1005|dock1
  -GOLD-   2262017593D 1   1.00000     0.00000
 Structure written by MMmdl.
 47 49  0  0  0  0  0  0  0  0  1 V2000
  153.6735  140.9685  160.5776 C   0  0  0  0  0  0  0  0  0  0  0  0
  153.4794  139.5766  159.9910 C   0  0  0  0  0  0  0  0  0  0  0  0
  154.4187  138.9517  159.4994 O   0  0  0  0  0  0  0  0  0  0  0  0
  152.2064  139.1552  160.0844 O   0  0  0  0  0  0  0  0  0  0  0  0
  151.8485  137.8328  159.7053 C   0  0  0  0  0  0  0  0  0  0  0  0
  150.3219  137.7003  159.5611 C   0  0  2  0  0  0  0  0  0  0  0  0
  149.9225  136.3315  159.5078 O   0  0  0  0  0  0  0  0  0  0  0  0
  148.7549  136.2147  158.7487 C   0  0  1  0  0  0  0  0  0  0  0  0
  147.6782  135.5759  159.5650 N   0  0  0  0  0  0  0  0  0  0  0  0
  146.8051  134.5771  159.1993 C   0  0  0  0  0  0  0  0  0  0  0  0
  146.8221  133.7988  157.4611 Br  0  0  0  0  0  0  0  0  0  0  0  0
  145.9374  134.1871  160.0903 N   0  0  0  0  0  0  0  0  0  0  0  0
  146.2271  135.0038  161.1760 C   0  0  0  0  0  0  0  0  0  0  0  0
  145.6837  135.1385  162.4784 C   0  0  0  0  0  0  0  0  0  0  0  0
  144.6680  134.3889  162.9285 N   0  0  0  0  0  0  0  0  0  0  0  0
  146.2116  136.0693  163.3071 N   0  0  0  0  0  0  0  0  0  0  0  0
  147.2233  136.8322  162.8819 C   0  0  0  0  0  0  0  0  0  0  0  0
  147.8366  136.8211  161.6956 N   0  0  0  0  0  0  0  0  0  0  0  0
  147.3071  135.8801  160.8602 C   0  0  0  0  0  0  0  0  0  0  0  0
  148.3362  137.6227  158.3316 C   0  0  2  0  0  0  0  0  0  0  0  0
  147.6721  137.6048  157.0749 O   0  0  0  0  0  0  0  0  0  0  0  0
  147.2928  138.7548  156.4963 C   0  0  0  0  0  0  0  0  0  0  0  0
  146.6623  138.5329  155.1284 C   0  0  0  0  0  0  0  0  0  0  0  0
  147.4237  139.8832  156.9704 O   0  0  0  0  0  0  0  0  0  0  0  0
  149.6771  138.3443  158.3282 C   0  0  2  0  0  0  0  0  0  0  0  0
  150.4448  138.0333  157.1662 O   0  0  0  0  0  0  0  0  0  0  0  0
  151.4009  138.8736  156.7298 C   0  0  0  0  0  0  0  0  0  0  0  0
  151.6403  138.7497  155.2317 C   0  0  0  0  0  0  0  0  0  0  0  0
  152.0371  139.6704  157.4194 O   0  0  0  0  0  0  0  0  0  0  0  0
  153.3229  141.7249  159.8756 H   0  0  0  0  0  0  0  0  0  0  0  0
  154.7280  141.1515  160.7858 H   0  0  0  0  0  0  0  0  0  0  0  0
  153.1156  141.0729  161.5082 H   0  0  0  0  0  0  0  0  0  0  0  0
  152.3776  137.4934  158.8140 H   0  0  0  0  0  0  0  0  0  0  0  0
  152.1776  137.1822  160.5157 H   0  0  0  0  0  0  0  0  0  0  0  0
  149.8548  138.1208  160.4526 H   0  0  0  0  0  0  0  0  0  0  0  0
  148.9390  135.5420  157.9111 H   0  0  0  0  0  0  0  0  0  0  0  0
  144.2548  133.6890  162.3290 H   0  0  0  0  0  0  0  0  0  0  0  0
  144.3181  134.5250  163.8659 H   0  0  0  0  0  0  0  0  0  0  0  0
  147.5950  137.5547  163.5936 H   0  0  0  0  0  0  0  0  0  0  0  0
  147.7014  138.0351  159.1184 H   0  0  0  0  0  0  0  0  0  0  0  0
  145.7753  137.9056  155.2178 H   0  0  0  0  0  0  0  0  0  0  0  0
  147.3705  138.0405  154.4618 H   0  0  0  0  0  0  0  0  0  0  0  0
  146.3708  139.4836  154.6816 H   0  0  0  0  0  0  0  0  0  0  0  0
  149.5670  139.4218  158.4592 H   0  0  0  0  0  0  0  0  0  0  0  0
  150.7240  138.9664  154.6826 H   0  0  0  0  0  0  0  0  0  0  0  0
  151.9644  137.7389  154.9836 H   0  0  0  0  0  0  0  0  0  0  0  0
  152.4114  139.4495  154.9080 H   0  0  0  0  0  0  0  0  0  0  0  0
  1  2  1  0  0  0  0
  1 30  1  0  0  0  0
  1 31  1  0  0  0  0
  1 32  1  0  0  0  0
  2  3  2  0  0  0  0
  2  4  1  0  0  0  0
  4  5  1  0  0  0  0
  5  6  1  0  0  0  0
  5 33  1  0  0  0  0
  5 34  1  0  0  0  0
  6 25  1  0  0  0  0
  6  7  1  0  0  0  0
  6 35  1  0  0  0  0
  7  8  1  0  0  0  0
  8  9  1  0  0  0  0
  8 20  1  0  0  0  0
  8 36  1  0  0  0  0
  9 19  1  0  0  0  0
  9 10  1  0  0  0  0
 10 11  1  0  0  0  0
 10 12  2  0  0  0  0
 12 13  1  0  0  0  0
 13 19  2  0  0  0  0
 13 14  1  0  0  0  0
 14 15  1  0  0  0  0
 14 16  2  0  0  0  0
 15 37  1  0  0  0  0
 15 38  1  0  0  0  0
 16 17  1  0  0  0  0
 17 18  2  0  0  0  0
 17 39  1  0  0  0  0
 18 19  1  0  0  0  0
 20 21  1  0  0  0  0
 20 25  1  0  0  0  0
 20 40  1  0  0  0  0
 21 22  1  0  0  0  0
 22 23  1  0  0  0  0
 22 24  2  0  0  0  0
 23 41  1  0  0  0  0
 23 42  1  0  0  0  0
 23 43  1  0  0  0  0
 25 26  1  0  0  0  0
 25 44  1  0  0  0  0
 26 27  1  0  0  0  0
 27 28  1  0  0  0  0
 27 29  2  0  0  0  0
 28 45  1  0  0  0  0
 28 46  1  0  0  0  0
 28 47  1  0  0  0  0
M  END
> <s_m_source_file>
AV-unprocessed.smi

> <i_m_source_file_index>
104

> <i_lp_mmshare_version>
43012

> <i_f3d_flags>
0

> <s_epik_input>
W0NIM11DKD1PKU9bQ0gyXVtDQEBIXTFPW0NASF0oW0NAQEhdKE9DKD1PKVtDSDNdKVtDQEhdMU9DKD1PKVtDSDNdKW4oYyhCciluMiljKGMyMyluW2NIXW5jM1tOSDJd

> <s_epik_cmdline>
J2VwaWtfcHl0aG9uJywgJy1waCcsICc3LjAnLCAnLXRuJywgJzgnLCAnLW1hJywgJzIwMCcsICctbWV0YWxfYmluZGluZycsICctaW1hZScsICc8aW5maWxlLm1hZT4nLCAnLW9tYWUnLCAnPG91dGZpbGUubWFlPic=

> <r_lp_tautomer_probability>
1

> <r_epik_Ionization_Penalty>
7.36622e-05

> <r_epik_Ionization_Penalty_Charging>
0

> <r_epik_Ionization_Penalty_Neutral>
7.36622e-05

> <r_epik_State_Penalty>
-0

> <r_epik_Charging_Adjusted_Penalty>
0

> <i_epik_Tot_Q>
0

> <i_epik_Tot_abs_Q>
0

> <r_epik_Metal_State_Penalty>
-0

> <b_epik_Metal_Only>
0

> <s_epik_Chemistry_Notes>
This compound has an ester and may undergo hydrolysis at high or low pH. This compound contains an acetal/aminal-like group ( X-CH(R)-Y where X, Y are N, S, or O) that may be acid/base labile, releasing an aldehyde.

> <s_lp_Force_Field>
OPLS_2005

> <r_lp_Energy>
18.0917

> <b_lp_Chiralities_Consistent>
1

> <s_lp_Variant>
AV-unprocessed.smi:104-13

> <Gold.Version>
5.8.1

> <Gold.Id.Protein>
6NUR|6NUR_protein|mol2

> <Gold.PLP.Fitness>
39.3043

> <Gold.PLP.PLP>
-32.9936

> <Gold.PLP.part.hbond>
-4.0000

> <Gold.PLP.part.metal>
0.0000

> <Gold.PLP.part.buried>
-3.7351

> <Gold.PLP.part.nonpolar>
-25.0066

> <Gold.PLP.part.repulsive>
0.0760

> <Gold.PLP.ligand.clash>
0.0000

> <Gold.PLP.ligand.torsion>
1.2301

> <Gold.PLP.Chemscore.Hbond>
2.6736

> <Gold.PLP.Chemscore.CHOScore>
0.0000

> <Gold.PLP.Chemscore.Metal>
0.0000

> <Gold.Chemscore.Hbonds>
donor molecule, donor type, donor heavy atom, donor atom, acceptor molecule, acceptor atom, score
      P1  H  6896  6907       L1     7  1.00
      P1  H  6931  6943       L1    18  1.00
      P1  H  6934  6947       L1    18  0.03

> <Gold.PLP.Chemscore.Internal.Correction>
0.7502

> <Gold.Rescore>
     Score         DG    S(hbond)    S(metal)    S(lipo)     H(rot)  DE(clash)    DE(int)     intcor
      6.06      -7.71       2.61        0.00      38.88       4.31       0.23       1.43       ----

> <Gold.Chemscore.Fitness>
6.0554

> <Gold.Chemscore.DG>
-7.7106

> <Gold.Chemscore.ZeroCoef>
-5.4800

> <Gold.Chemscore.Hbond>
2.6071

> <Gold.Chemscore.Metal>
0.0000

> <Gold.Chemscore.Lipo>
38.8794

> <Gold.Chemscore.Internal_Hbond>
0.0000

> <Gold.Chemscore.DEClash>
0.2292

> <Gold.Chemscore.DEInternal>
1.4261

> <Gold.Chemscore.Rot>
4.3070

> <Gold.Chemscore.Internal.Correction>
   9.000000E+99

> <Gold.Chemscore.Hbonds>
donor molecule, donor type, donor heavy atom, donor atom, acceptor molecule, acceptor atom, score
      P1  H  6896  6907       L1     7  0.97
      P1  H  6931  6943       L1    18  0.26
      P1  H  6934  6947       L1    18  0.01

> <Gold.Chemscore.Hbond.Weighted>
-8.7076

> <Gold.Chemscore.Metal.Weighted>
-0.0000

> <Gold.Chemscore.Lipo.Weighted>
-4.5489

> <Gold.Chemscore.Internal_Hbond.Weighted>
0.0000

> <Gold.Chemscore.DEClash.Weighted>
0.2292

> <Gold.Chemscore.DEInternal.Weighted>
1.4261

> <Gold.Chemscore.Rot.Weighted>
11.0259

> <Gold.Chemscore.Internal.Correction.Weighted>
   9.000000E+99

> <Gold.Protein.RotatedTorsions>
[ 6907 6896 6895 6894 ] final  -43.35 input  -60.11 | X-H torsion
[ 7974 7965 7964 7962 ] final -135.36 input  175.53 | X-H torsion
[ 8008 7997 7996 7995 ] final -147.49 input   59.86 | X-H torsion
[ 10167 10162 10161 10158 ] final   99.67 input  -65.29 | X-H torsion
[ 10718 10713 10712 10709 ] final   83.19 input   66.30 | X-H torsion
[ 10763 10752 10751 10750 ] final  -93.26 input  -60.55 | X-H torsion
[ 11005 11000 10999 10996 ] final  137.23 input  -57.11 | X-H torsion

> <Gold.Protein.ActiveResidues>
 VAL166  LYS551  ARG553  GLY616  TRP617  ASP618  TYR619  PRO620  LYS621  CYS622 
 ASP623  PHE694  ASN695  SER759  ASP760  ASP761  ALA762  ILE779  LEU786  VAL792 
 PHE793  MET794  SER795  GLU796  ALA797  LYS798  CYS799  TRP800  GLU811  SER814 

> <Gold.Protein.RotatedAtoms>
  150.9450  134.8855  159.7635 H   0  0  0  0  0  0  0  0  0  0  0  0  # atno 6907 bound_to 6896
  152.5096  134.3888  159.9386 H   0  0  0  0  0  0  0  0  0  0  0  0  # atno 6908 bound_to 6896
  151.3907  133.3750  159.2755 H   0  0  0  0  0  0  0  0  0  0  0  0  # atno 6909 bound_to 6896
  144.9021  140.6784  143.5078 H   0  0  0  0  0  0  0  0  0  0  0  0  # atno 7974 bound_to 7965
  155.5763  140.0639  157.2794 H   0  0  0  0  0  0  0  0  0  0  0  0  # atno 8008 bound_to 7997
  154.4346  140.1860  156.0977 H   0  0  0  0  0  0  0  0  0  0  0  0  # atno 8009 bound_to 7997
  156.0338  140.3303  155.7173 H   0  0  0  0  0  0  0  0  0  0  0  0  # atno 8010 bound_to 7997
  139.7597  144.6958  151.0311 H   0  0  0  0  0  0  0  0  0  0  0  0  # atno 10167 bound_to 10162
  157.6874  131.0080  150.2487 H   0  0  0  0  0  0  0  0  0  0  0  0  # atno 10718 bound_to 10713
  154.6941  135.5201  153.8434 H   0  0  0  0  0  0  0  0  0  0  0  0  # atno 10763 bound_to 10752
  153.0654  135.6583  154.0376 H   0  0  0  0  0  0  0  0  0  0  0  0  # atno 10764 bound_to 10752
  154.0245  135.2990  155.3356 H   0  0  0  0  0  0  0  0  0  0  0  0  # atno 10765 bound_to 10752
  140.0100  134.9443  157.0257 H   0  0  0  0  0  0  0  0  0  0  0  0  # atno 11005 bound_to 11000
  145.3599  139.1684  143.4389 LP  0  0  0  0  0  0  0  0  0  0  0  0  # atno 17320 bound_to 7965
  146.3114  140.3660  142.8669 LP  0  0  0  0  0  0  0  0  0  0  0  0  # atno 17321 bound_to 7965
  140.7806  143.4712  151.0144 LP  0  0  0  0  0  0  0  0  0  0  0  0  # atno 17342 bound_to 10162
  139.8398  143.7579  152.3180 LP  0  0  0  0  0  0  0  0  0  0  0  0  # atno 17343 bound_to 10162
  156.3087  130.3769  149.7681 LP  0  0  0  0  0  0  0  0  0  0  0  0  # atno 17370 bound_to 10713
  156.5289  130.8248  151.3230 LP  0  0  0  0  0  0  0  0  0  0  0  0  # atno 17371 bound_to 10713
  140.4572  134.1522  155.7187 LP  0  0  0  0  0  0  0  0  0  0  0  0  # atno 17394 bound_to 11000
  141.1704  133.8620  157.1588 LP  0  0  0  0  0  0  0  0  0  0  0  0  # atno 17395 bound_to 11000

$$$$
