AV-unprocessed.smi:234|AV-procd|sdf|1797|dock6
  -GOLD-   2262020363D 1   1.00000     0.00000
 Structure written by MMmdl.
 59 62  0  0  0  0  0  0  0  0  1 V2000
  144.6373  136.9034  162.6718 C   0  0  0  0  0  0  0  0  0  0  0  0
  146.0436  136.3377  162.4322 C   0  0  0  0  0  0  0  0  0  0  0  0
  146.1902  135.8420  161.1093 O   0  0  0  0  0  0  0  0  0  0  0  0
  147.4287  135.1819  160.8628 C   0  0  2  0  0  0  0  0  0  0  0  0
  148.5302  136.2150  160.6229 C   0  0  0  0  0  0  0  0  0  0  0  0
  148.1445  136.1522  159.1381 C   0  0  1  0  0  0  0  0  0  0  0  0
  149.2838  136.2239  158.2170 N   0  0  0  0  0  0  0  0  0  0  0  0
  149.0306  136.0029  156.7970 C   0  0  0  0  0  0  0  0  0  0  0  0
  150.2061  137.1960  158.4238 C   0  0  0  0  0  0  0  0  0  0  0  0
  151.1681  137.0368  159.3717 N   0  0  0  0  0  0  0  0  0  0  0  0
  152.0695  138.0003  159.5824 C   0  0  0  0  0  0  0  0  0  0  0  0
  152.1889  139.1798  158.9698 N   0  0  0  0  0  0  0  0  0  0  0  0
  151.2241  139.3450  158.0199 C   0  0  0  0  0  0  0  0  0  0  0  0
  150.1986  138.4145  157.6913 C   0  0  0  0  0  0  0  0  0  0  0  0
  149.3978  138.9270  156.6782 N   0  0  0  0  0  0  0  0  0  0  0  0
  149.9237  140.0931  156.4186 C   0  0  0  0  0  0  0  0  0  0  0  0
  151.0298  140.4206  157.1709 N   0  0  0  0  0  0  0  0  0  0  0  0
  151.8132  141.6436  157.0794 C   0  0  0  0  0  0  0  0  0  0  0  0
  151.2187  142.8159  157.9042 C   0  0  2  0  0  0  0  0  0  0  0  0
  149.8096  142.7874  157.7447 O   0  0  0  0  0  0  0  0  0  0  0  0
  151.7120  144.1899  157.4609 C   0  0  0  0  0  0  0  0  0  0  0  0
  151.5864  145.0212  158.7280 C   0  0  0  0  0  0  0  0  0  0  0  0
  152.0124  144.1166  159.7316 O   0  0  0  0  0  0  0  0  0  0  0  0
  151.5180  142.8131  159.4298 C   0  0  2  0  0  0  0  0  0  0  0  0
  152.5621  141.8008  159.9264 C   0  0  0  0  0  0  0  0  0  0  0  0
  147.5993  134.7189  159.3923 C   0  0  0  0  0  0  0  0  0  0  0  0
  148.5746  133.5429  159.2195 C   0  0  0  0  0  0  0  0  0  0  0  0
  146.3143  134.3331  158.6541 C   0  0  0  0  0  0  0  0  0  0  0  0
  144.5570  137.3273  163.6728 H   0  0  0  0  0  0  0  0  0  0  0  0
  143.8709  136.1341  162.5770 H   0  0  0  0  0  0  0  0  0  0  0  0
  144.4087  137.6941  161.9569 H   0  0  0  0  0  0  0  0  0  0  0  0
  146.7748  137.1341  162.5708 H   0  0  0  0  0  0  0  0  0  0  0  0
  146.2871  135.5638  163.1620 H   0  0  0  0  0  0  0  0  0  0  0  0
  147.7048  134.4309  161.6056 H   0  0  0  0  0  0  0  0  0  0  0  0
  148.3625  137.1818  161.0989 H   0  0  0  0  0  0  0  0  0  0  0  0
  149.5283  135.8293  160.8385 H   0  0  0  0  0  0  0  0  0  0  0  0
  147.3454  136.8569  158.9001 H   0  0  0  0  0  0  0  0  0  0  0  0
  149.2656  136.8846  156.1983 H   0  0  0  0  0  0  0  0  0  0  0  0
  147.9847  135.7581  156.6160 H   0  0  0  0  0  0  0  0  0  0  0  0
  149.6382  135.1736  156.4345 H   0  0  0  0  0  0  0  0  0  0  0  0
  152.7996  137.7963  160.3516 H   0  0  0  0  0  0  0  0  0  0  0  0
  149.5230  140.7482  155.6586 H   0  0  0  0  0  0  0  0  0  0  0  0
  152.8280  141.4210  157.4116 H   0  0  0  0  0  0  0  0  0  0  0  0
  151.8852  141.9126  156.0253 H   0  0  0  0  0  0  0  0  0  0  0  0
  149.5673  143.4441  157.1095 H   0  0  0  0  0  0  0  0  0  0  0  0
  152.7652  144.1382  157.1827 H   0  0  0  0  0  0  0  0  0  0  0  0
  151.1641  144.6057  156.6141 H   0  0  0  0  0  0  0  0  0  0  0  0
  152.2030  145.9200  158.7074 H   0  0  0  0  0  0  0  0  0  0  0  0
  150.5508  145.3135  158.9076 H   0  0  0  0  0  0  0  0  0  0  0  0
  150.5985  142.6652  159.9993 H   0  0  0  0  0  0  0  0  0  0  0  0
  152.2431  140.7750  159.7416 H   0  0  0  0  0  0  0  0  0  0  0  0
  152.7156  141.9043  161.0008 H   0  0  0  0  0  0  0  0  0  0  0  0
  153.5278  141.9515  159.4431 H   0  0  0  0  0  0  0  0  0  0  0  0
  148.7452  133.3084  158.1686 H   0  0  0  0  0  0  0  0  0  0  0  0
  148.1919  132.6392  159.6948 H   0  0  0  0  0  0  0  0  0  0  0  0
  149.5490  133.7482  159.6636 H   0  0  0  0  0  0  0  0  0  0  0  0
  146.5035  134.1013  157.6060 H   0  0  0  0  0  0  0  0  0  0  0  0
  145.5798  135.1383  158.6742 H   0  0  0  0  0  0  0  0  0  0  0  0
  145.8460  133.4560  159.1007 H   0  0  0  0  0  0  0  0  0  0  0  0
  1  2  1  0  0  0  0
  1 29  1  0  0  0  0
  1 30  1  0  0  0  0
  1 31  1  0  0  0  0
  2  3  1  0  0  0  0
  2 32  1  0  0  0  0
  2 33  1  0  0  0  0
  3  4  1  0  0  0  0
  4 26  1  0  0  0  0
  4  5  1  0  0  0  0
  4 34  1  0  0  0  0
  5  6  1  0  0  0  0
  5 35  1  0  0  0  0
  5 36  1  0  0  0  0
  6  7  1  0  0  0  0
  6 26  1  0  0  0  0
  6 37  1  0  0  0  0
  7  8  1  0  0  0  0
  7  9  1  0  0  0  0
  8 38  1  0  0  0  0
  8 39  1  0  0  0  0
  8 40  1  0  0  0  0
  9 14  1  0  0  0  0
  9 10  2  0  0  0  0
 10 11  1  0  0  0  0
 11 12  2  0  0  0  0
 11 41  1  0  0  0  0
 12 13  1  0  0  0  0
 13 17  1  0  0  0  0
 13 14  2  0  0  0  0
 14 15  1  0  0  0  0
 15 16  2  0  0  0  0
 16 17  1  0  0  0  0
 16 42  1  0  0  0  0
 17 18  1  0  0  0  0
 18 19  1  0  0  0  0
 18 43  1  0  0  0  0
 18 44  1  0  0  0  0
 19 24  1  0  0  0  0
 19 20  1  0  0  0  0
 19 21  1  0  0  0  0
 20 45  1  0  0  0  0
 21 22  1  0  0  0  0
 21 46  1  0  0  0  0
 21 47  1  0  0  0  0
 22 23  1  0  0  0  0
 22 48  1  0  0  0  0
 22 49  1  0  0  0  0
 23 24  1  0  0  0  0
 24 25  1  0  0  0  0
 24 50  1  0  0  0  0
 25 51  1  0  0  0  0
 25 52  1  0  0  0  0
 25 53  1  0  0  0  0
 26 27  1  0  0  0  0
 26 28  1  0  0  0  0
 27 54  1  0  0  0  0
 27 55  1  0  0  0  0
 27 56  1  0  0  0  0
 28 57  1  0  0  0  0
 28 58  1  0  0  0  0
 28 59  1  0  0  0  0
M  END
> <s_m_source_file>
AV-unprocessed.smi

> <i_m_source_file_index>
234

> <i_lp_mmshare_version>
43012

> <i_f3d_flags>
0

> <s_epik_input>
W0NIM11bQ0gyXU9bQ0BASF0oQzEoW0NIM10pW0NIM10pW0NIMl1bQ0BIXTFOKFtDSDNdKWMobltjSF1uMiljKGMyMyluW2NIXW4zW0NIMl1bQ0BAXTQoW09IXSlbQ0gyXVtDSDJdT1tDQEhdNFtDSDNd

> <s_epik_cmdline>
J2VwaWtfcHl0aG9uJywgJy1waCcsICc3LjAnLCAnLXRuJywgJzgnLCAnLW1hJywgJzIwMCcsICctbWV0YWxfYmluZGluZycsICctaW1hZScsICc8aW5maWxlLm1hZT4nLCAnLW9tYWUnLCAnPG91dGZpbGUubWFlPic=

> <r_lp_tautomer_probability>
1

> <r_epik_Ionization_Penalty>
0.00349132

> <r_epik_Ionization_Penalty_Charging>
0

> <r_epik_Ionization_Penalty_Neutral>
0.00349132

> <r_epik_State_Penalty>
0.00242418

> <r_epik_Charging_Adjusted_Penalty>
0.00242418

> <i_epik_Tot_Q>
0

> <i_epik_Tot_abs_Q>
0

> <r_epik_Metal_State_Penalty>
-0

> <b_epik_Metal_Only>
0

> <s_lp_Force_Field>
OPLS_2005

> <r_lp_Energy>
49.2938

> <b_lp_Chiralities_Consistent>
1

> <s_lp_Variant>
AV-unprocessed.smi:234-13

> <Gold.Version>
5.8.1

> <Gold.Id.Protein>
6NUR|6NUR_protein|mol2

> <Gold.PLP.Fitness>
42.9033

> <Gold.PLP.PLP>
-38.8554

> <Gold.PLP.part.hbond>
-2.0000

> <Gold.PLP.part.metal>
0.0000

> <Gold.PLP.part.buried>
-8.4173

> <Gold.PLP.part.nonpolar>
-29.0045

> <Gold.PLP.part.repulsive>
0.0193

> <Gold.PLP.ligand.clash>
0.0000

> <Gold.PLP.ligand.torsion>
1.5510

> <Gold.PLP.Chemscore.Hbond>
1.9913

> <Gold.PLP.Chemscore.CHOScore>
0.0000

> <Gold.PLP.Chemscore.Metal>
0.0000

> <Gold.Chemscore.Hbonds>
donor molecule, donor type, donor heavy atom, donor atom, acceptor molecule, acceptor atom, score
      L1  H    20    45       P1  8028  0.98
      P1  H  6896  6909       L1    10  1.00

> <Gold.PLP.Chemscore.Internal.Correction>
1.1761

> <Gold.Rescore>
     Score         DG    S(hbond)    S(metal)    S(lipo)     H(rot)  DE(clash)    DE(int)     intcor
      8.82     -16.44       1.79        0.00      99.91       2.62       1.28       6.34       ----

> <Gold.Chemscore.Fitness>
8.8248

> <Gold.Chemscore.DG>
-16.4425

> <Gold.Chemscore.ZeroCoef>
-5.4800

> <Gold.Chemscore.Hbond>
1.7919

> <Gold.Chemscore.Metal>
0.0000

> <Gold.Chemscore.Lipo>
99.9108

> <Gold.Chemscore.Internal_Hbond>
0.0000

> <Gold.Chemscore.DEClash>
1.2760

> <Gold.Chemscore.DEInternal>
6.3418

> <Gold.Chemscore.Rot>
2.6219

> <Gold.Chemscore.Internal.Correction>
   9.000000E+99

> <Gold.Chemscore.Hbonds>
donor molecule, donor type, donor heavy atom, donor atom, acceptor molecule, acceptor atom, score
      L1  H    20    45       P1  8028  0.86
      P1  H  6896  6909       L1    10  0.40

> <Gold.Chemscore.Hbond.Weighted>
-5.9851

> <Gold.Chemscore.Metal.Weighted>
-0.0000

> <Gold.Chemscore.Lipo.Weighted>
-11.6896

> <Gold.Chemscore.Internal_Hbond.Weighted>
0.0000

> <Gold.Chemscore.DEClash.Weighted>
1.2760

> <Gold.Chemscore.DEInternal.Weighted>
6.3418

> <Gold.Chemscore.Rot.Weighted>
6.7121

> <Gold.Chemscore.Internal.Correction.Weighted>
   9.000000E+99

> <Gold.Protein.RotatedTorsions>
[ 6907 6896 6895 6894 ] final   89.01 input  -60.11 | X-H torsion
[ 7974 7965 7964 7962 ] final  -78.20 input  175.53 | X-H torsion
[ 8008 7997 7996 7995 ] final   60.65 input   59.86 | X-H torsion
[ 10167 10162 10161 10158 ] final  -66.90 input  -65.29 | X-H torsion
[ 10718 10713 10712 10709 ] final  -51.13 input   66.30 | X-H torsion
[ 10763 10752 10751 10750 ] final   76.17 input  -60.55 | X-H torsion
[ 11005 11000 10999 10996 ] final  166.43 input  -57.11 | X-H torsion

> <Gold.Protein.ActiveResidues>
 VAL166  LYS551  ARG553  GLY616  TRP617  ASP618  TYR619  PRO620  LYS621  CYS622 
 ASP623  PHE694  ASN695  SER759  ASP760  ASP761  ALA762  ILE779  LEU786  VAL792 
 PHE793  MET794  SER795  GLU796  ALA797  LYS798  CYS799  TRP800  GLU811  SER814 

> <Gold.Protein.RotatedAtoms>
  152.5431  134.2033  159.8720 H   0  0  0  0  0  0  0  0  0  0  0  0  # atno 6907 bound_to 6896
  151.2020  133.4598  159.2604 H   0  0  0  0  0  0  0  0  0  0  0  0  # atno 6908 bound_to 6896
  151.0980  134.9968  159.8490 H   0  0  0  0  0  0  0  0  0  0  0  0  # atno 6909 bound_to 6896
  145.5896  140.9432  143.1299 H   0  0  0  0  0  0  0  0  0  0  0  0  # atno 7974 bound_to 7965
  155.5858  140.3492  155.4552 H   0  0  0  0  0  0  0  0  0  0  0  0  # atno 8008 bound_to 7997
  156.0339  140.1280  157.0254 H   0  0  0  0  0  0  0  0  0  0  0  0  # atno 8009 bound_to 7997
  154.4363  140.1038  156.6125 H   0  0  0  0  0  0  0  0  0  0  0  0  # atno 8010 bound_to 7997
  140.5623  143.2313  151.6703 H   0  0  0  0  0  0  0  0  0  0  0  0  # atno 10167 bound_to 10162
  156.1738  130.4149  149.9607 H   0  0  0  0  0  0  0  0  0  0  0  0  # atno 10718 bound_to 10713
  153.0706  135.4961  154.8296 H   0  0  0  0  0  0  0  0  0  0  0  0  # atno 10763 bound_to 10752
  154.7017  135.3003  154.9333 H   0  0  0  0  0  0  0  0  0  0  0  0  # atno 10764 bound_to 10752
  154.0055  135.6761  153.4814 H   0  0  0  0  0  0  0  0  0  0  0  0  # atno 10765 bound_to 10752
  140.2664  134.7861  157.3636 H   0  0  0  0  0  0  0  0  0  0  0  0  # atno 11005 bound_to 11000
  144.7357  139.7593  143.7330 LP  0  0  0  0  0  0  0  0  0  0  0  0  # atno 17320 bound_to 7965
  146.1656  139.4787  142.9960 LP  0  0  0  0  0  0  0  0  0  0  0  0  # atno 17321 bound_to 7965
  139.5076  144.3641  152.0534 LP  0  0  0  0  0  0  0  0  0  0  0  0  # atno 17342 bound_to 10162
  140.2768  144.3903  150.6132 LP  0  0  0  0  0  0  0  0  0  0  0  0  # atno 17343 bound_to 10162
  156.7399  130.9075  151.3631 LP  0  0  0  0  0  0  0  0  0  0  0  0  # atno 17370 bound_to 10713
  157.6821  130.9150  150.0294 LP  0  0  0  0  0  0  0  0  0  0  0  0  # atno 17371 bound_to 10713
  140.1415  134.4966  155.8028 LP  0  0  0  0  0  0  0  0  0  0  0  0  # atno 17394 bound_to 11000
  141.2183  133.6827  156.7219 LP  0  0  0  0  0  0  0  0  0  0  0  0  # atno 17395 bound_to 11000

$$$$
