AV-unprocessed.smi:944|AV-procd|sdf|4231|dock5
  -GOLD-   22720 2143D 1   1.00000     0.00000
 Structure written by MMmdl.
 28 28  0  0  0  0  0  0  0  0  1 V2000
  153.1119  142.8768  162.7091 C   0  0  0  0  0  0  0  0  0  0  0  0
  153.1335  142.6749  161.2687 N   0  0  0  0  0  0  0  0  0  0  0  0
  152.1839  143.1145  160.4307 C   0  0  0  0  0  0  0  0  0  0  0  0
  151.1966  143.7490  160.8066 O   0  0  0  0  0  0  0  0  0  0  0  0
  152.3955  142.8020  158.9399 C   0  0  2  0  0  0  0  0  0  0  0  0
  152.2712  144.1185  158.1550 C   0  0  0  0  0  0  0  0  0  0  0  0
  151.3637  141.8888  158.4521 N   0  0  0  0  0  0  0  0  0  0  0  0
  151.5844  140.6638  157.9480 C   0  0  0  0  0  0  0  0  0  0  0  0
  152.7051  140.1682  157.8329 O   0  0  0  0  0  0  0  0  0  0  0  0
  150.3503  139.8765  157.5068 C   0  0  0  0  0  0  0  0  0  0  0  0
  150.0363  140.1357  156.1136 N   0  0  0  0  0  0  0  0  0  0  0  0
  149.9730  141.2845  155.4378 C   0  0  0  0  0  0  0  0  0  0  0  0
  149.6440  141.1377  154.1619 N   0  0  0  0  0  0  0  0  0  0  0  0
  149.5101  139.7786  154.1157 C   0  0  0  0  0  0  0  0  0  0  0  0
  149.7336  139.1298  155.2586 N   0  0  0  0  0  0  0  0  0  0  0  0
  153.9955  142.4261  163.1610 H   0  0  0  0  0  0  0  0  0  0  0  0
  152.2288  142.4148  163.1525 H   0  0  0  0  0  0  0  0  0  0  0  0
  153.1087  143.9401  162.9528 H   0  0  0  0  0  0  0  0  0  0  0  0
  153.9149  142.1638  160.8843 H   0  0  0  0  0  0  0  0  0  0  0  0
  153.3854  142.3701  158.7788 H   0  0  0  0  0  0  0  0  0  0  0  0
  153.0230  144.8421  158.4726 H   0  0  0  0  0  0  0  0  0  0  0  0
  151.2904  144.5788  158.2845 H   0  0  0  0  0  0  0  0  0  0  0  0
  152.4164  143.9491  157.0875 H   0  0  0  0  0  0  0  0  0  0  0  0
  150.4080  142.2097  158.5125 H   0  0  0  0  0  0  0  0  0  0  0  0
  150.5241  138.8071  157.6329 H   0  0  0  0  0  0  0  0  0  0  0  0
  149.4947  140.1399  158.1308 H   0  0  0  0  0  0  0  0  0  0  0  0
  150.1686  142.2463  155.8893 H   0  0  0  0  0  0  0  0  0  0  0  0
  149.2390  139.2516  153.2128 H   0  0  0  0  0  0  0  0  0  0  0  0
  1  2  1  0  0  0  0
  1 16  1  0  0  0  0
  1 17  1  0  0  0  0
  1 18  1  0  0  0  0
  2  3  1  0  0  0  0
  2 19  1  0  0  0  0
  3  4  2  0  0  0  0
  3  5  1  0  0  0  0
  5  6  1  0  0  0  0
  5  7  1  0  0  0  0
  5 20  1  0  0  0  0
  6 21  1  0  0  0  0
  6 22  1  0  0  0  0
  6 23  1  0  0  0  0
  7  8  1  0  0  0  0
  7 24  1  0  0  0  0
  8  9  2  0  0  0  0
  8 10  1  0  0  0  0
 10 11  1  0  0  0  0
 10 25  1  0  0  0  0
 10 26  1  0  0  0  0
 11 15  1  0  0  0  0
 11 12  1  0  0  0  0
 12 13  2  0  0  0  0
 12 27  1  0  0  0  0
 13 14  1  0  0  0  0
 14 15  2  0  0  0  0
 14 28  1  0  0  0  0
M  END
> <s_m_source_file>
AV-unprocessed.smi

> <i_m_source_file_index>
944

> <i_lp_mmshare_version>
43012

> <i_f3d_flags>
0

> <s_epik_input>
W0NIM11bTkhdQyg9TylbQ0BIXShbQ0gzXSlbTkhdQyg9TylbQ0gyXW4xW2NIXW5bY0hdbjE=

> <s_epik_cmdline>
J2VwaWtfcHl0aG9uJywgJy1waCcsICc3LjAnLCAnLXRuJywgJzgnLCAnLW1hJywgJzIwMCcsICctbWV0YWxfYmluZGluZycsICctaW1hZScsICc8aW5maWxlLm1hZT4nLCAnLW9tYWUnLCAnPG91dGZpbGUubWFlPic=

> <r_lp_tautomer_probability>
1

> <r_epik_Ionization_Penalty>
7.54354e-06

> <r_epik_Ionization_Penalty_Charging>
0

> <r_epik_Ionization_Penalty_Neutral>
7.54354e-06

> <r_epik_State_Penalty>
-0

> <r_epik_Charging_Adjusted_Penalty>
0

> <i_epik_Tot_Q>
0

> <i_epik_Tot_abs_Q>
0

> <r_epik_Metal_State_Penalty>
-0

> <b_epik_Metal_Only>
0

> <s_lp_Force_Field>
OPLS_2005

> <r_lp_Energy>
4.44665

> <b_lp_Chiralities_Consistent>
1

> <s_lp_Variant>
AV-unprocessed.smi:944-1

> <Gold.Version>
5.8.1

> <Gold.Id.Protein>
6NUR|6NUR_protein|mol2

> <Gold.PLP.Fitness>
39.1740

> <Gold.PLP.PLP>
-29.6002

> <Gold.PLP.part.hbond>
-3.7266

> <Gold.PLP.part.metal>
0.0000

> <Gold.PLP.part.buried>
-1.4258

> <Gold.PLP.part.nonpolar>
-24.6386

> <Gold.PLP.part.repulsive>
0.5098

> <Gold.PLP.ligand.clash>
0.0000

> <Gold.PLP.ligand.torsion>
0.6498

> <Gold.PLP.Chemscore.Hbond>
1.6599

> <Gold.PLP.Chemscore.CHOScore>
1.9611

> <Gold.PLP.Chemscore.Metal>
0.0000

> <Gold.Chemscore.Hbonds>
donor molecule, donor type, donor heavy atom, donor atom, acceptor molecule, acceptor atom, score
      P1  H  7989  7998       L1    13  0.12
      P1  H  7997  8009       L1     9  1.00
      P1  H  8011  8017       L1    13  0.37
      L1  C    12    27       P1  8028  0.34
      L1  C    14    28       P1  7957  0.88

> <Gold.PLP.Chemscore.Internal.Correction>
0.0105

> <Gold.Rescore>
     Score         DG    S(hbond)    S(metal)    S(lipo)     H(rot)  DE(clash)    DE(int)     intcor
      6.87      -8.99       1.75        0.00      40.03       2.74       1.53       0.58       ----

> <Gold.Chemscore.Fitness>
6.8740

> <Gold.Chemscore.DG>
-8.9854

> <Gold.Chemscore.ZeroCoef>
-5.4800

> <Gold.Chemscore.Hbond>
1.7494

> <Gold.Chemscore.Metal>
0.0000

> <Gold.Chemscore.Lipo>
40.0288

> <Gold.Chemscore.Internal_Hbond>
0.0000

> <Gold.Chemscore.DEClash>
1.5310

> <Gold.Chemscore.DEInternal>
0.5804

> <Gold.Chemscore.Rot>
2.7426

> <Gold.Chemscore.Internal.Correction>
   9.000000E+99

> <Gold.Chemscore.Hbonds>
donor molecule, donor type, donor heavy atom, donor atom, acceptor molecule, acceptor atom, score
      P1  H  7997  8009       L1     9  0.89
      P1  H  8011  8017       L1    13  0.38

> <Gold.Chemscore.Hbond.Weighted>
-5.8429

> <Gold.Chemscore.Metal.Weighted>
-0.0000

> <Gold.Chemscore.Lipo.Weighted>
-4.6834

> <Gold.Chemscore.Internal_Hbond.Weighted>
0.0000

> <Gold.Chemscore.DEClash.Weighted>
1.5310

> <Gold.Chemscore.DEInternal.Weighted>
0.5804

> <Gold.Chemscore.Rot.Weighted>
7.0210

> <Gold.Chemscore.Internal.Correction.Weighted>
   9.000000E+99

> <Gold.Protein.RotatedTorsions>
[ 6907 6896 6895 6894 ] final  -20.76 input  -60.11 | X-H torsion
[ 7974 7965 7964 7962 ] final  -11.72 input  175.53 | X-H torsion
[ 8008 7997 7996 7995 ] final  173.13 input   59.86 | X-H torsion
[ 10167 10162 10161 10158 ] final   92.87 input  -65.29 | X-H torsion
[ 10718 10713 10712 10709 ] final -125.03 input   66.30 | X-H torsion
[ 10763 10752 10751 10750 ] final  156.49 input  -60.55 | X-H torsion
[ 11005 11000 10999 10996 ] final   15.46 input  -57.11 | X-H torsion

> <Gold.Protein.ActiveResidues>
 VAL166  LYS551  ARG553  GLY616  TRP617  ASP618  TYR619  PRO620  LYS621  CYS622 
 ASP623  PHE694  ASN695  SER759  ASP760  ASP761  ALA762  ILE779  LEU786  VAL792 
 PHE793  MET794  SER795  GLU796  ALA797  LYS798  CYS799  TRP800  GLU811  SER814 

> <Gold.Protein.RotatedAtoms>
  151.2434  135.0597  159.9033 H   0  0  0  0  0  0  0  0  0  0  0  0  # atno 6907 bound_to 6896
  152.5390  134.0409  159.8077 H   0  0  0  0  0  0  0  0  0  0  0  0  # atno 6908 bound_to 6896
  151.0606  133.5498  159.2666 H   0  0  0  0  0  0  0  0  0  0  0  0  # atno 6909 bound_to 6896
  146.2177  140.2953  142.8371 H   0  0  0  0  0  0  0  0  0  0  0  0  # atno 7974 bound_to 7965
  156.1106  140.1468  156.9344 H   0  0  0  0  0  0  0  0  0  0  0  0  # atno 8008 bound_to 7997
  154.4764  140.0893  156.7316 H   0  0  0  0  0  0  0  0  0  0  0  0  # atno 8009 bound_to 7997
  155.4603  140.3438  155.4314 H   0  0  0  0  0  0  0  0  0  0  0  0  # atno 8010 bound_to 7997
  139.8235  144.6720  150.9489 H   0  0  0  0  0  0  0  0  0  0  0  0  # atno 10167 bound_to 10162
  156.1640  130.6621  151.0089 H   0  0  0  0  0  0  0  0  0  0  0  0  # atno 10718 bound_to 10713
  154.1852  135.2797  155.3039 H   0  0  0  0  0  0  0  0  0  0  0  0  # atno 10763 bound_to 10752
  154.5972  135.5541  153.7341 H   0  0  0  0  0  0  0  0  0  0  0  0  # atno 10764 bound_to 10752
  153.0127  135.6383  154.1990 H   0  0  0  0  0  0  0  0  0  0  0  0  # atno 10765 bound_to 10752
  140.4580  134.1156  155.7712 H   0  0  0  0  0  0  0  0  0  0  0  0  # atno 11005 bound_to 11000
  144.9097  140.7742  143.5815 LP  0  0  0  0  0  0  0  0  0  0  0  0  # atno 17320 bound_to 7965
  145.2883  139.1893  143.4754 LP  0  0  0  0  0  0  0  0  0  0  0  0  # atno 17321 bound_to 7965
  140.7812  143.4069  151.1057 LP  0  0  0  0  0  0  0  0  0  0  0  0  # atno 17342 bound_to 10162
  139.7727  143.8470  152.3123 LP  0  0  0  0  0  0  0  0  0  0  0  0  # atno 17343 bound_to 10162
  157.6754  131.0851  150.7508 LP  0  0  0  0  0  0  0  0  0  0  0  0  # atno 17370 bound_to 10713
  156.7570  130.4786  149.5445 LP  0  0  0  0  0  0  0  0  0  0  0  0  # atno 17371 bound_to 10713
  141.1634  133.8749  157.1784 LP  0  0  0  0  0  0  0  0  0  0  0  0  # atno 17394 bound_to 11000
  139.9963  135.0045  157.0090 LP  0  0  0  0  0  0  0  0  0  0  0  0  # atno 17395 bound_to 11000

$$$$
