AV-unprocessed.smi:276|AV-procd|sdf|2075|dock7
  -GOLD-   2262021333D 1   1.00000     0.00000
 Structure written by MMmdl.
 57 61  0  0  0  0  0  0  0  0  1 V2000
  143.9954  133.0073  161.4550 C   0  0  0  0  0  0  0  0  0  0  0  0
  144.7347  134.1814  161.1686 O   0  0  0  0  0  0  0  0  0  0  0  0
  145.8263  134.3782  162.0567 C   0  0  1  0  0  0  0  0  0  0  0  0
  147.0436  133.5079  161.7063 C   0  0  0  0  0  0  0  0  0  0  0  0
  147.5672  134.6477  160.8097 C   0  0  1  0  0  0  0  0  0  0  0  0
  147.1638  134.4581  159.4091 N   0  0  0  0  0  0  0  0  0  0  0  0
  147.6036  133.2174  158.7789 C   0  0  0  0  0  0  0  0  0  0  0  0
  147.4090  135.5005  158.5862 C   0  0  0  0  0  0  0  0  0  0  0  0
  146.5746  135.6631  157.5297 N   0  0  0  0  0  0  0  0  0  0  0  0
  146.7589  136.6815  156.6843 C   0  0  0  0  0  0  0  0  0  0  0  0
  147.7028  137.6252  156.7064 N   0  0  0  0  0  0  0  0  0  0  0  0
  148.5537  137.4510  157.7579 C   0  0  0  0  0  0  0  0  0  0  0  0
  148.4826  136.4229  158.7391 C   0  0  0  0  0  0  0  0  0  0  0  0
  149.5214  136.5654  159.6514 N   0  0  0  0  0  0  0  0  0  0  0  0
  150.1702  137.6173  159.2327 C   0  0  0  0  0  0  0  0  0  0  0  0
  149.6622  138.2060  158.0968 N   0  0  0  0  0  0  0  0  0  0  0  0
  150.1886  139.3728  157.4122 C   0  0  0  0  0  0  0  0  0  0  0  0
  151.4906  139.9170  158.0400 C   0  0  1  0  0  0  0  0  0  0  0  0
  152.4428  140.0133  156.9993 O   0  0  0  0  0  0  0  0  0  0  0  0
  151.3533  141.2945  158.7295 C   0  0  2  0  0  0  0  0  0  0  0  0
  151.0848  142.4538  157.7640 C   0  0  0  0  0  0  0  0  0  0  0  0
  151.6442  143.6361  158.5197 C   0  0  0  0  0  0  0  0  0  0  0  0
  152.8899  143.0258  159.1472 C   0  0  0  0  0  0  0  0  0  0  0  0
  152.5622  141.6630  159.3954 O   0  0  0  0  0  0  0  0  0  0  0  0
  146.6717  135.5975  161.6500 C   0  0  0  0  0  0  0  0  0  0  0  0
  147.3081  136.4407  162.7691 C   0  0  0  0  0  0  0  0  0  0  0  0
  146.1785  137.4557  162.5786 C   0  0  0  0  0  0  0  0  0  0  0  0
  146.0221  136.9080  161.1595 C   0  0  0  0  0  0  0  0  0  0  0  0
  143.1778  132.9083  160.7413 H   0  0  0  0  0  0  0  0  0  0  0  0
  143.5645  133.0505  162.4560 H   0  0  0  0  0  0  0  0  0  0  0  0
  144.6168  132.1148  161.3794 H   0  0  0  0  0  0  0  0  0  0  0  0
  145.5425  134.3689  163.1103 H   0  0  0  0  0  0  0  0  0  0  0  0
  147.6879  133.3361  162.5698 H   0  0  0  0  0  0  0  0  0  0  0  0
  146.8088  132.5677  161.2087 H   0  0  0  0  0  0  0  0  0  0  0  0
  148.6349  134.8219  160.9451 H   0  0  0  0  0  0  0  0  0  0  0  0
  147.5125  133.2549  157.6920 H   0  0  0  0  0  0  0  0  0  0  0  0
  146.9992  132.3790  159.1230 H   0  0  0  0  0  0  0  0  0  0  0  0
  148.6458  133.0098  159.0238 H   0  0  0  0  0  0  0  0  0  0  0  0
  146.0488  136.7492  155.8735 H   0  0  0  0  0  0  0  0  0  0  0  0
  151.0495  137.9880  159.7389 H   0  0  0  0  0  0  0  0  0  0  0  0
  150.3582  139.1022  156.3692 H   0  0  0  0  0  0  0  0  0  0  0  0
  149.4191  140.1460  157.4119 H   0  0  0  0  0  0  0  0  0  0  0  0
  151.8730  139.1954  158.7627 H   0  0  0  0  0  0  0  0  0  0  0  0
  152.1388  139.5001  156.2664 H   0  0  0  0  0  0  0  0  0  0  0  0
  150.5594  141.2643  159.4775 H   0  0  0  0  0  0  0  0  0  0  0  0
  151.6376  142.3157  156.8336 H   0  0  0  0  0  0  0  0  0  0  0  0
  150.0284  142.5670  157.5186 H   0  0  0  0  0  0  0  0  0  0  0  0
  151.8635  144.4919  157.8807 H   0  0  0  0  0  0  0  0  0  0  0  0
  150.9456  143.9535  159.2952 H   0  0  0  0  0  0  0  0  0  0  0  0
  153.7250  143.0586  158.4462 H   0  0  0  0  0  0  0  0  0  0  0  0
  153.1924  143.5370  160.0612 H   0  0  0  0  0  0  0  0  0  0  0  0
  147.3348  135.9657  163.7502 H   0  0  0  0  0  0  0  0  0  0  0  0
  148.2846  136.8415  162.4913 H   0  0  0  0  0  0  0  0  0  0  0  0
  145.3115  137.2504  163.2088 H   0  0  0  0  0  0  0  0  0  0  0  0
  146.4855  138.5003  162.6353 H   0  0  0  0  0  0  0  0  0  0  0  0
  146.6342  137.4669  160.4515 H   0  0  0  0  0  0  0  0  0  0  0  0
  144.9920  136.8173  160.8146 H   0  0  0  0  0  0  0  0  0  0  0  0
  1  2  1  0  0  0  0
  1 29  1  0  0  0  0
  1 30  1  0  0  0  0
  1 31  1  0  0  0  0
  2  3  1  0  0  0  0
  3 25  1  0  0  0  0
  3  4  1  0  0  0  0
  3 32  1  0  0  0  0
  4  5  1  0  0  0  0
  4 33  1  0  0  0  0
  4 34  1  0  0  0  0
  5  6  1  0  0  0  0
  5 25  1  0  0  0  0
  5 35  1  0  0  0  0
  6  7  1  0  0  0  0
  6  8  1  0  0  0  0
  7 36  1  0  0  0  0
  7 37  1  0  0  0  0
  7 38  1  0  0  0  0
  8 13  1  0  0  0  0
  8  9  2  0  0  0  0
  9 10  1  0  0  0  0
 10 11  2  0  0  0  0
 10 39  1  0  0  0  0
 11 12  1  0  0  0  0
 12 16  1  0  0  0  0
 12 13  2  0  0  0  0
 13 14  1  0  0  0  0
 14 15  2  0  0  0  0
 15 16  1  0  0  0  0
 15 40  1  0  0  0  0
 16 17  1  0  0  0  0
 17 18  1  0  0  0  0
 17 41  1  0  0  0  0
 17 42  1  0  0  0  0
 18 19  1  0  0  0  0
 18 20  1  0  0  0  0
 18 43  1  0  0  0  0
 19 44  1  0  0  0  0
 20 24  1  0  0  0  0
 20 21  1  0  0  0  0
 20 45  1  0  0  0  0
 21 22  1  0  0  0  0
 21 46  1  0  0  0  0
 21 47  1  0  0  0  0
 22 23  1  0  0  0  0
 22 48  1  0  0  0  0
 22 49  1  0  0  0  0
 23 24  1  0  0  0  0
 23 50  1  0  0  0  0
 23 51  1  0  0  0  0
 25 28  1  0  0  0  0
 25 26  1  0  0  0  0
 26 27  1  0  0  0  0
 26 52  1  0  0  0  0
 26 53  1  0  0  0  0
 27 28  1  0  0  0  0
 27 54  1  0  0  0  0
 27 55  1  0  0  0  0
 28 56  1  0  0  0  0
 28 57  1  0  0  0  0
M  END
> <s_m_source_file>
AV-unprocessed.smi

> <i_m_source_file_index>
276

> <i_lp_mmshare_version>
43012

> <i_f3d_flags>
0

> <s_epik_input>
W0NIMl0xW0NIMl1bQ0gyXUMxMltDQEhdKE9bQ0gzXSlbQ0gyXVtDQEhdMk4oW0NIM10pYyhuW2NIXW4zKWMoYzM0KW5bY0hdbjRbQ0gyXVtDQEhdKFtPSF0pW0NAQEhdNVtDSDJdW0NIMl1bQ0gyXU81

> <s_epik_cmdline>
J2VwaWtfcHl0aG9uJywgJy1waCcsICc3LjAnLCAnLXRuJywgJzgnLCAnLW1hJywgJzIwMCcsICctbWV0YWxfYmluZGluZycsICctaW1hZScsICc8aW5maWxlLm1hZT4nLCAnLW9tYWUnLCAnPG91dGZpbGUubWFlPic=

> <r_lp_tautomer_probability>
1

> <r_epik_Ionization_Penalty>
0.00204117

> <r_epik_Ionization_Penalty_Charging>
0

> <r_epik_Ionization_Penalty_Neutral>
0.00204117

> <r_epik_State_Penalty>
0.00127401

> <r_epik_Charging_Adjusted_Penalty>
0.00127401

> <i_epik_Tot_Q>
0

> <i_epik_Tot_abs_Q>
0

> <r_epik_Metal_State_Penalty>
-0

> <b_epik_Metal_Only>
0

> <s_lp_Force_Field>
OPLS_2005

> <r_lp_Energy>
56.2402

> <b_lp_Chiralities_Consistent>
1

> <s_lp_Variant>
AV-unprocessed.smi:276-6

> <Gold.Version>
5.8.1

> <Gold.Id.Protein>
6NUR|6NUR_protein|mol2

> <Gold.PLP.Fitness>
47.1812

> <Gold.PLP.PLP>
-43.7485

> <Gold.PLP.part.hbond>
-2.0000

> <Gold.PLP.part.metal>
0.0000

> <Gold.PLP.part.buried>
-3.9921

> <Gold.PLP.part.nonpolar>
-37.1648

> <Gold.PLP.part.repulsive>
0.0158

> <Gold.PLP.ligand.clash>
0.0000

> <Gold.PLP.ligand.torsion>
1.6626

> <Gold.PLP.Chemscore.Hbond>
2.0000

> <Gold.PLP.Chemscore.CHOScore>
0.0000

> <Gold.PLP.Chemscore.Metal>
0.0000

> <Gold.Chemscore.Hbonds>
donor molecule, donor type, donor heavy atom, donor atom, acceptor molecule, acceptor atom, score
      P1  H  6896  6908       L1    14  0.73
      P1  H  7997  8008       L1    19  0.75

> <Gold.PLP.Chemscore.Internal.Correction>
0.7580

> <Gold.Rescore>
     Score         DG    S(hbond)    S(metal)    S(lipo)     H(rot)  DE(clash)    DE(int)     intcor
     13.32     -15.18       1.51        0.00      99.23       2.72       0.07       1.80       ----

> <Gold.Chemscore.Fitness>
13.3177

> <Gold.Chemscore.DG>
-15.1826

> <Gold.Chemscore.ZeroCoef>
-5.4800

> <Gold.Chemscore.Hbond>
1.5116

> <Gold.Chemscore.Metal>
0.0000

> <Gold.Chemscore.Lipo>
99.2302

> <Gold.Chemscore.Internal_Hbond>
0.0000

> <Gold.Chemscore.DEClash>
0.0679

> <Gold.Chemscore.DEInternal>
1.7970

> <Gold.Chemscore.Rot>
2.7172

> <Gold.Chemscore.Internal.Correction>
   9.000000E+99

> <Gold.Chemscore.Hbonds>
donor molecule, donor type, donor heavy atom, donor atom, acceptor molecule, acceptor atom, score
      P1  H  6896  6908       L1    14  0.46
      P1  H  7997  8008       L1    19  0.09

> <Gold.Chemscore.Hbond.Weighted>
-5.0486

> <Gold.Chemscore.Metal.Weighted>
-0.0000

> <Gold.Chemscore.Lipo.Weighted>
-11.6099

> <Gold.Chemscore.Internal_Hbond.Weighted>
0.0000

> <Gold.Chemscore.DEClash.Weighted>
0.0679

> <Gold.Chemscore.DEInternal.Weighted>
1.7970

> <Gold.Chemscore.Rot.Weighted>
6.9560

> <Gold.Chemscore.Internal.Correction.Weighted>
   9.000000E+99

> <Gold.Protein.RotatedTorsions>
[ 6907 6896 6895 6894 ] final -165.83 input  -60.11 | X-H torsion
[ 7974 7965 7964 7962 ] final   65.75 input  175.53 | X-H torsion
[ 8008 7997 7996 7995 ] final  -42.16 input   59.86 | X-H torsion
[ 10167 10162 10161 10158 ] final   47.11 input  -65.29 | X-H torsion
[ 10718 10713 10712 10709 ] final  -97.58 input   66.30 | X-H torsion
[ 10763 10752 10751 10750 ] final  133.00 input  -60.55 | X-H torsion
[ 11005 11000 10999 10996 ] final  112.92 input  -57.11 | X-H torsion

> <Gold.Protein.ActiveResidues>
 VAL166  LYS551  ARG553  GLY616  TRP617  ASP618  TYR619  PRO620  LYS621  CYS622 
 ASP623  PHE694  ASN695  SER759  ASP760  ASP761  ALA762  ILE779  LEU786  VAL792 
 PHE793  MET794  SER795  GLU796  ALA797  LYS798  CYS799  TRP800  GLU811  SER814 

> <Gold.Protein.RotatedAtoms>
  151.4339  133.3662  159.2772 H   0  0  0  0  0  0  0  0  0  0  0  0  # atno 6907 bound_to 6896
  150.9206  134.8625  159.7497 H   0  0  0  0  0  0  0  0  0  0  0  0  # atno 6908 bound_to 6896
  152.4979  134.4276  159.9553 H   0  0  0  0  0  0  0  0  0  0  0  0  # atno 6909 bound_to 6896
  145.8348  139.3160  143.0966 H   0  0  0  0  0  0  0  0  0  0  0  0  # atno 7974 bound_to 7965
  154.4000  140.1481  156.3309 H   0  0  0  0  0  0  0  0  0  0  0  0  # atno 8008 bound_to 7997
  155.8444  140.3460  155.5631 H   0  0  0  0  0  0  0  0  0  0  0  0  # atno 8009 bound_to 7997
  155.8052  140.0876  157.1925 H   0  0  0  0  0  0  0  0  0  0  0  0  # atno 8010 bound_to 7997
  140.3070  144.2866  150.6207 H   0  0  0  0  0  0  0  0  0  0  0  0  # atno 10167 bound_to 10162
  156.0087  130.5201  150.6396 H   0  0  0  0  0  0  0  0  0  0  0  0  # atno 10718 bound_to 10713
  153.7999  135.3143  155.3389 H   0  0  0  0  0  0  0  0  0  0  0  0  # atno 10763 bound_to 10752
  154.8093  135.4677  154.0477 H   0  0  0  0  0  0  0  0  0  0  0  0  # atno 10764 bound_to 10752
  153.1821  135.6895  153.8551 H   0  0  0  0  0  0  0  0  0  0  0  0  # atno 10765 bound_to 10752
  139.8939  134.9539  156.6660 H   0  0  0  0  0  0  0  0  0  0  0  0  # atno 11005 bound_to 11000
  145.9531  140.8894  143.0249 LP  0  0  0  0  0  0  0  0  0  0  0  0  # atno 17320 bound_to 7965
  144.6737  140.1707  143.7414 LP  0  0  0  0  0  0  0  0  0  0  0  0  # atno 17321 bound_to 7965
  140.5602  143.2193  151.7779 LP  0  0  0  0  0  0  0  0  0  0  0  0  # atno 17342 bound_to 10162
  139.4902  144.4359  151.9819 LP  0  0  0  0  0  0  0  0  0  0  0  0  # atno 17343 bound_to 10162
  157.4178  131.0832  151.1159 LP  0  0  0  0  0  0  0  0  0  0  0  0  # atno 17370 bound_to 10713
  157.1771  130.6293  149.5659 LP  0  0  0  0  0  0  0  0  0  0  0  0  # atno 17371 bound_to 10713
  140.7410  133.8977  155.8278 LP  0  0  0  0  0  0  0  0  0  0  0  0  # atno 17394 bound_to 11000
  141.0077  134.1063  157.4253 LP  0  0  0  0  0  0  0  0  0  0  0  0  # atno 17395 bound_to 11000

$$$$
