AV-unprocessed.smi:133|AV-procd|sdf|1166|dock8
  -GOLD-   2262018303D 1   1.00000     0.00000
 Structure written by MMmdl.
 47 50  0  0  0  0  0  0  0  0  1 V2000
  153.0989  139.1714  156.5011 O   0  0  0  0  0  0  0  0  0  0  0  0
  152.1770  139.7097  155.8898 C   0  0  0  0  0  0  0  0  0  0  0  0
  151.7142  139.0762  154.5648 C   0  0  0  0  0  0  0  0  0  0  0  0
  150.2653  138.7796  154.4756 N   0  0  0  0  0  0  0  0  0  0  0  0
  149.3854  139.8084  154.0550 C   0  0  0  0  0  0  0  0  0  0  0  0
  149.8058  140.9308  153.7713 O   0  0  0  0  0  0  0  0  0  0  0  0
  147.9731  139.4473  153.9998 C   0  0  0  0  0  0  0  0  0  0  0  0
  147.0659  140.3635  153.6216 F   0  0  0  0  0  0  0  0  0  0  0  0
  147.5608  138.2063  154.3299 C   0  0  0  0  0  0  0  0  0  0  0  0
  148.4314  137.2111  154.7334 N   0  0  0  0  0  0  0  0  0  0  0  0
  147.9232  135.8375  155.1055 C   0  0  1  0  0  0  0  0  0  0  0  0
  146.3897  135.8245  155.1242 C   0  0  0  0  0  0  0  0  0  0  0  0
  146.0594  135.2085  153.7810 C   0  0  0  0  0  0  0  0  0  0  0  0
  147.2221  134.2421  153.5928 C   0  0  0  0  0  0  0  0  0  0  0  0
  148.3484  134.9217  154.1372 O   0  0  0  0  0  0  0  0  0  0  0  0
  149.8123  137.4868  154.8324 C   0  0  0  0  0  0  0  0  0  0  0  0
  150.6005  136.6279  155.2334 O   0  0  0  0  0  0  0  0  0  0  0  0
  151.5571  140.8356  156.2966 N   0  0  0  0  0  0  0  0  0  0  0  0
  151.8006  141.6151  157.4586 C   0  0  0  0  0  0  0  0  0  0  0  0
  152.5508  141.1448  158.5725 C   0  0  0  0  0  0  0  0  0  0  0  0
  152.7491  141.9634  159.7061 C   0  0  0  0  0  0  0  0  0  0  0  0
  152.1785  143.2470  159.7104 C   0  0  0  0  0  0  0  0  0  0  0  0
  151.4297  143.7047  158.6346 C   0  0  0  0  0  0  0  0  0  0  0  0
  151.2208  142.9045  157.4982 C   0  0  0  0  0  0  0  0  0  0  0  0
  150.9180  145.0996  158.8692 C   0  0  0  0  0  0  0  0  0  0  0  0
  151.3033  145.3954  160.3391 C   0  0  0  0  0  0  0  0  0  0  0  0
  152.2671  144.2766  160.8033 C   0  0  0  0  0  0  0  0  0  0  0  0
  152.0225  139.7358  153.7522 H   0  0  0  0  0  0  0  0  0  0  0  0
  152.3048  138.1735  154.4000 H   0  0  0  0  0  0  0  0  0  0  0  0
  146.5030  137.9944  154.2783 H   0  0  0  0  0  0  0  0  0  0  0  0
  148.3765  135.5833  156.0648 H   0  0  0  0  0  0  0  0  0  0  0  0
  146.0579  135.1745  155.9347 H   0  0  0  0  0  0  0  0  0  0  0  0
  145.9662  136.8187  155.2734 H   0  0  0  0  0  0  0  0  0  0  0  0
  145.0875  134.7147  153.7637 H   0  0  0  0  0  0  0  0  0  0  0  0
  146.0707  135.9710  153.0012 H   0  0  0  0  0  0  0  0  0  0  0  0
  147.0528  133.3266  154.1615 H   0  0  0  0  0  0  0  0  0  0  0  0
  147.3820  133.9715  152.5488 H   0  0  0  0  0  0  0  0  0  0  0  0
  150.8797  141.2188  155.6539 H   0  0  0  0  0  0  0  0  0  0  0  0
  152.9740  140.1522  158.5835 H   0  0  0  0  0  0  0  0  0  0  0  0
  153.3219  141.6086  160.5501 H   0  0  0  0  0  0  0  0  0  0  0  0
  150.6356  143.2758  156.6693 H   0  0  0  0  0  0  0  0  0  0  0  0
  151.4142  145.7873  158.1838 H   0  0  0  0  0  0  0  0  0  0  0  0
  149.8415  145.1601  158.7066 H   0  0  0  0  0  0  0  0  0  0  0  0
  151.7232  146.3930  160.4709 H   0  0  0  0  0  0  0  0  0  0  0  0
  150.4002  145.3479  160.9488 H   0  0  0  0  0  0  0  0  0  0  0  0
  151.9776  143.8580  161.7678 H   0  0  0  0  0  0  0  0  0  0  0  0
  153.2923  144.6413  160.8744 H   0  0  0  0  0  0  0  0  0  0  0  0
  1  2  2  0  0  0  0
  2  3  1  0  0  0  0
  2 18  1  0  0  0  0
  3  4  1  0  0  0  0
  3 28  1  0  0  0  0
  3 29  1  0  0  0  0
  4 16  1  0  0  0  0
  4  5  1  0  0  0  0
  5  6  2  0  0  0  0
  5  7  1  0  0  0  0
  7  8  1  0  0  0  0
  7  9  2  0  0  0  0
  9 10  1  0  0  0  0
  9 30  1  0  0  0  0
 10 11  1  0  0  0  0
 10 16  1  0  0  0  0
 11 15  1  0  0  0  0
 11 12  1  0  0  0  0
 11 31  1  0  0  0  0
 12 13  1  0  0  0  0
 12 32  1  0  0  0  0
 12 33  1  0  0  0  0
 13 14  1  0  0  0  0
 13 34  1  0  0  0  0
 13 35  1  0  0  0  0
 14 15  1  0  0  0  0
 14 36  1  0  0  0  0
 14 37  1  0  0  0  0
 16 17  2  0  0  0  0
 18 19  1  0  0  0  0
 18 38  1  0  0  0  0
 19 24  1  0  0  0  0
 19 20  2  0  0  0  0
 20 21  1  0  0  0  0
 20 39  1  0  0  0  0
 21 22  2  0  0  0  0
 21 40  1  0  0  0  0
 22 27  1  0  0  0  0
 22 23  1  0  0  0  0
 23 24  2  0  0  0  0
 23 25  1  0  0  0  0
 24 41  1  0  0  0  0
 25 26  1  0  0  0  0
 25 42  1  0  0  0  0
 25 43  1  0  0  0  0
 26 27  1  0  0  0  0
 26 44  1  0  0  0  0
 26 45  1  0  0  0  0
 27 46  1  0  0  0  0
 27 47  1  0  0  0  0
M  END
> <s_m_source_file>
AV-unprocessed.smi

> <i_m_source_file_index>
133

> <i_lp_mmshare_version>
43012

> <i_f3d_flags>
0

> <s_epik_input>
W0NIMl0xW0NIMl1bQ0gyXWMoYzEyKVtjSF1jKFtjSF1bY0hdMilbTkhdQyg9TylbQ0gyXW4zYyg9TyljKEYpW2NIXW4oYzM9TylbQ0BASF00W0NIMl1bQ0gyXVtDSDJdTzQ=

> <s_epik_cmdline>
J2VwaWtfcHl0aG9uJywgJy1waCcsICc3LjAnLCAnLXRuJywgJzgnLCAnLW1hJywgJzIwMCcsICctbWV0YWxfYmluZGluZycsICctaW1hZScsICc8aW5maWxlLm1hZT4nLCAnLW9tYWUnLCAnPG91dGZpbGUubWFlPic=

> <r_lp_tautomer_probability>
1

> <r_epik_Ionization_Penalty>
4.05675e-06

> <r_epik_Ionization_Penalty_Charging>
3.88729e-08

> <r_epik_Ionization_Penalty_Neutral>
4.01788e-06

> <r_epik_State_Penalty>
-0

> <r_epik_Charging_Adjusted_Penalty>
3.88729e-08

> <i_epik_Tot_Q>
0

> <i_epik_Tot_abs_Q>
0

> <r_epik_Metal_State_Penalty>
-0

> <b_epik_Metal_Only>
0

> <s_epik_Chemistry_Notes>
This compound contains an acetal/aminal-like group ( X-CH(R)-Y where X, Y are N, S, or O) that may be acid/base labile, releasing an aldehyde.

> <s_lp_Force_Field>
OPLS_2005

> <r_lp_Energy>
47.0615

> <b_lp_Chiralities_Consistent>
1

> <s_lp_Variant>
AV-unprocessed.smi:133-2

> <Gold.Version>
5.8.1

> <Gold.Id.Protein>
6NUR|6NUR_protein|mol2

> <Gold.PLP.Fitness>
50.3533

> <Gold.PLP.PLP>
-44.5952

> <Gold.PLP.part.hbond>
-2.8338

> <Gold.PLP.part.metal>
0.0000

> <Gold.PLP.part.buried>
-4.0845

> <Gold.PLP.part.nonpolar>
-38.6419

> <Gold.PLP.part.repulsive>
3.7632

> <Gold.PLP.ligand.clash>
0.0000

> <Gold.PLP.ligand.torsion>
0.5881

> <Gold.PLP.Chemscore.Hbond>
2.3048

> <Gold.PLP.Chemscore.CHOScore>
0.0000

> <Gold.PLP.Chemscore.Metal>
0.0000

> <Gold.Chemscore.Hbonds>
donor molecule, donor type, donor heavy atom, donor atom, acceptor molecule, acceptor atom, score
      P1  H  7989  7998       L1     6  0.40
      P1  H  7997  8010       L1     1  1.00
      P1  H  8011  8017       L1     6  0.87

> <Gold.PLP.Chemscore.Internal.Correction>
0.0198

> <Gold.Rescore>
     Score         DG    S(hbond)    S(metal)    S(lipo)     H(rot)  DE(clash)    DE(int)     intcor
     17.26     -21.82       2.15        0.00     113.06       1.59       1.81       2.75       ----

> <Gold.Chemscore.Fitness>
17.2609

> <Gold.Chemscore.DG>
-21.8198

> <Gold.Chemscore.ZeroCoef>
-5.4800

> <Gold.Chemscore.Hbond>
2.1479

> <Gold.Chemscore.Metal>
0.0000

> <Gold.Chemscore.Lipo>
113.0622

> <Gold.Chemscore.Internal_Hbond>
0.0000

> <Gold.Chemscore.DEClash>
1.8096

> <Gold.Chemscore.DEInternal>
2.7492

> <Gold.Chemscore.Rot>
1.5869

> <Gold.Chemscore.Internal.Correction>
   9.000000E+99

> <Gold.Chemscore.Hbonds>
donor molecule, donor type, donor heavy atom, donor atom, acceptor molecule, acceptor atom, score
      P1  H  7989  7998       L1     6  0.31
      P1  H  7997  8010       L1     1  0.89
      P1  H  8011  8017       L1     6  0.81

> <Gold.Chemscore.Hbond.Weighted>
-7.1739

> <Gold.Chemscore.Metal.Weighted>
-0.0000

> <Gold.Chemscore.Lipo.Weighted>
-13.2283

> <Gold.Chemscore.Internal_Hbond.Weighted>
0.0000

> <Gold.Chemscore.DEClash.Weighted>
1.8096

> <Gold.Chemscore.DEInternal.Weighted>
2.7492

> <Gold.Chemscore.Rot.Weighted>
4.0624

> <Gold.Chemscore.Internal.Correction.Weighted>
   9.000000E+99

> <Gold.Protein.RotatedTorsions>
[ 6907 6896 6895 6894 ] final  -11.90 input  -60.11 | X-H torsion
[ 7974 7965 7964 7962 ] final -168.37 input  175.53 | X-H torsion
[ 8008 7997 7996 7995 ] final   53.77 input   59.86 | X-H torsion
[ 10167 10162 10161 10158 ] final  -16.18 input  -65.29 | X-H torsion
[ 10718 10713 10712 10709 ] final   34.51 input   66.30 | X-H torsion
[ 10763 10752 10751 10750 ] final  -47.00 input  -60.55 | X-H torsion
[ 11005 11000 10999 10996 ] final -106.41 input  -57.11 | X-H torsion

> <Gold.Protein.ActiveResidues>
 VAL166  LYS551  ARG553  GLY616  TRP617  ASP618  TYR619  PRO620  LYS621  CYS622 
 ASP623  PHE694  ASN695  SER759  ASP760  ASP761  ALA762  ILE779  LEU786  VAL792 
 PHE793  MET794  SER795  GLU796  ALA797  LYS798  CYS799  TRP800  GLU811  SER814 

> <Gold.Protein.RotatedAtoms>
  151.3790  135.0936  159.9489 H   0  0  0  0  0  0  0  0  0  0  0  0  # atno 6907 bound_to 6896
  152.5114  133.9091  159.7489 H   0  0  0  0  0  0  0  0  0  0  0  0  # atno 6908 bound_to 6896
  150.9520  133.6484  159.2799 H   0  0  0  0  0  0  0  0  0  0  0  0  # atno 6909 bound_to 6896
  144.7204  140.2380  143.6295 H   0  0  0  0  0  0  0  0  0  0  0  0  # atno 7974 bound_to 7965
  155.4737  140.3466  155.4329 H   0  0  0  0  0  0  0  0  0  0  0  0  # atno 8008 bound_to 7997
  156.1084  140.1454  156.9402 H   0  0  0  0  0  0  0  0  0  0  0  0  # atno 8009 bound_to 7997
  154.4739  140.0891  156.7193 H   0  0  0  0  0  0  0  0  0  0  0  0  # atno 8010 bound_to 7997
  140.7230  143.5142  150.9712 H   0  0  0  0  0  0  0  0  0  0  0  0  # atno 10167 bound_to 10162
  157.3112  130.7400  149.6726 H   0  0  0  0  0  0  0  0  0  0  0  0  # atno 10718 bound_to 10713
  154.0543  135.6627  153.4804 H   0  0  0  0  0  0  0  0  0  0  0  0  # atno 10763 bound_to 10752
  153.0451  135.5119  154.7721 H   0  0  0  0  0  0  0  0  0  0  0  0  # atno 10764 bound_to 10752
  154.6737  135.3033  154.9674 H   0  0  0  0  0  0  0  0  0  0  0  0  # atno 10765 bound_to 10752
  141.1006  133.8891  157.1852 H   0  0  0  0  0  0  0  0  0  0  0  0  # atno 11005 bound_to 11000
  145.8347  139.2102  143.1862 LP  0  0  0  0  0  0  0  0  0  0  0  0  # atno 17320 bound_to 7965
  146.0400  140.8175  142.9833 LP  0  0  0  0  0  0  0  0  0  0  0  0  # atno 17321 bound_to 7965
  139.8857  143.7016  152.3151 LP  0  0  0  0  0  0  0  0  0  0  0  0  # atno 17342 bound_to 10162
  139.7314  144.7581  151.0796 LP  0  0  0  0  0  0  0  0  0  0  0  0  # atno 17343 bound_to 10162
  155.9678  130.4251  150.4637 LP  0  0  0  0  0  0  0  0  0  0  0  0  # atno 17370 bound_to 10713
  157.2635  131.0572  151.2305 LP  0  0  0  0  0  0  0  0  0  0  0  0  # atno 17371 bound_to 10713
  139.9856  135.0083  156.9854 LP  0  0  0  0  0  0  0  0  0  0  0  0  # atno 17394 bound_to 11000
  140.5032  134.1077  155.7254 LP  0  0  0  0  0  0  0  0  0  0  0  0  # atno 17395 bound_to 11000

$$$$
