AV-unprocessed.smi:1364|AV-procd|sdf|5567|dock8
  -GOLD-   22720 5163D 1   1.00000     0.00000
 Structure written by MMmdl.
 40 41  0  0  0  0  0  0  0  0  1 V2000
  154.8152  143.7936  168.2665 C   0  0  0  0  0  0  0  0  0  0  0  0
  155.5875  143.0534  167.1547 C   0  0  0  0  0  0  0  0  0  0  0  0
  157.0736  143.4640  167.2159 C   0  0  0  0  0  0  0  0  0  0  0  0
  155.4809  141.5293  167.4011 C   0  0  0  0  0  0  0  0  0  0  0  0
  155.0110  143.4801  165.7812 C   0  0  0  0  0  0  0  0  0  0  0  0
  155.0161  144.6736  165.4775 O   0  0  0  0  0  0  0  0  0  0  0  0
  154.5063  142.5151  164.9866 N   0  0  0  0  0  0  0  0  0  0  0  0
  153.9307  142.6371  163.6932 C   0  0  0  0  0  0  0  0  0  0  0  0
  154.1052  141.6981  162.6508 C   0  0  0  0  0  0  0  0  0  0  0  0
  153.4643  141.9215  161.4171 C   0  0  0  0  0  0  0  0  0  0  0  0
  152.6580  143.0726  161.2524 C   0  0  0  0  0  0  0  0  0  0  0  0
  152.0085  143.3165  160.0223 N   0  0  0  0  0  0  0  0  0  0  0  0
  152.1025  144.6585  159.4502 C   0  0  0  0  0  0  0  0  0  0  0  0
  151.1076  144.8173  158.2880 C   0  0  0  0  0  0  0  0  0  0  0  0
  151.3289  143.7929  157.3246 O   0  0  0  0  0  0  0  0  0  0  0  0
  151.1229  142.4961  157.8751 C   0  0  0  0  0  0  0  0  0  0  0  0
  152.1154  142.2537  159.0254 C   0  0  0  0  0  0  0  0  0  0  0  0
  152.4761  143.9587  162.2624 N   0  0  0  0  0  0  0  0  0  0  0  0
  153.0927  143.7412  163.4426 C   0  0  0  0  0  0  0  0  0  0  0  0
  155.1952  143.5299  169.2541 H   0  0  0  0  0  0  0  0  0  0  0  0
  153.7536  143.5426  168.2488 H   0  0  0  0  0  0  0  0  0  0  0  0
  154.8988  144.8770  168.1691 H   0  0  0  0  0  0  0  0  0  0  0  0
  157.2043  144.5407  167.0984 H   0  0  0  0  0  0  0  0  0  0  0  0
  157.6549  142.9742  166.4335 H   0  0  0  0  0  0  0  0  0  0  0  0
  157.5196  143.1891  168.1724 H   0  0  0  0  0  0  0  0  0  0  0  0
  155.8980  141.2607  168.3723 H   0  0  0  0  0  0  0  0  0  0  0  0
  156.0278  140.9574  166.6501 H   0  0  0  0  0  0  0  0  0  0  0  0
  154.4445  141.1887  167.3947 H   0  0  0  0  0  0  0  0  0  0  0  0
  154.4777  141.5884  165.3871 H   0  0  0  0  0  0  0  0  0  0  0  0
  154.6992  140.8063  162.7758 H   0  0  0  0  0  0  0  0  0  0  0  0
  153.5834  141.1996  160.6232 H   0  0  0  0  0  0  0  0  0  0  0  0
  151.8893  145.4101  160.2113 H   0  0  0  0  0  0  0  0  0  0  0  0
  153.1201  144.8298  159.0965 H   0  0  0  0  0  0  0  0  0  0  0  0
  150.0783  144.7772  158.6484 H   0  0  0  0  0  0  0  0  0  0  0  0
  151.2397  145.7886  157.8110 H   0  0  0  0  0  0  0  0  0  0  0  0
  150.0933  142.3957  158.2224 H   0  0  0  0  0  0  0  0  0  0  0  0
  151.2684  141.7517  157.0923 H   0  0  0  0  0  0  0  0  0  0  0  0
  153.1354  142.2362  158.6397 H   0  0  0  0  0  0  0  0  0  0  0  0
  151.9235  141.2722  159.4562 H   0  0  0  0  0  0  0  0  0  0  0  0
  152.9131  144.4786  164.2114 H   0  0  0  0  0  0  0  0  0  0  0  0
  1  2  1  0  0  0  0
  1 20  1  0  0  0  0
  1 21  1  0  0  0  0
  1 22  1  0  0  0  0
  2  3  1  0  0  0  0
  2  4  1  0  0  0  0
  2  5  1  0  0  0  0
  3 23  1  0  0  0  0
  3 24  1  0  0  0  0
  3 25  1  0  0  0  0
  4 26  1  0  0  0  0
  4 27  1  0  0  0  0
  4 28  1  0  0  0  0
  5  6  2  0  0  0  0
  5  7  1  0  0  0  0
  7  8  1  0  0  0  0
  7 29  1  0  0  0  0
  8 19  1  0  0  0  0
  8  9  2  0  0  0  0
  9 10  1  0  0  0  0
  9 30  1  0  0  0  0
 10 11  2  0  0  0  0
 10 31  1  0  0  0  0
 11 12  1  0  0  0  0
 11 18  1  0  0  0  0
 12 17  1  0  0  0  0
 12 13  1  0  0  0  0
 13 14  1  0  0  0  0
 13 32  1  0  0  0  0
 13 33  1  0  0  0  0
 14 15  1  0  0  0  0
 14 34  1  0  0  0  0
 14 35  1  0  0  0  0
 15 16  1  0  0  0  0
 16 17  1  0  0  0  0
 16 36  1  0  0  0  0
 16 37  1  0  0  0  0
 17 38  1  0  0  0  0
 17 39  1  0  0  0  0
 18 19  2  0  0  0  0
 19 40  1  0  0  0  0
M  END
> <s_m_source_file>
AV-unprocessed.smi

> <i_m_source_file_index>
1364

> <i_lp_mmshare_version>
43012

> <i_f3d_flags>
0

> <s_epik_input>
W0NIM11DKFtDSDNdKShbQ0gzXSlDKD1PKVtOSF1jMVtjSF1bY0hdYyhuW2NIXTEpTjJbQ0gyXVtDSDJdT1tDSDJdW0NIMl0y

> <s_epik_cmdline>
J2VwaWtfcHl0aG9uJywgJy1waCcsICc3LjAnLCAnLXRuJywgJzgnLCAnLW1hJywgJzIwMCcsICctbWV0YWxfYmluZGluZycsICctaW1hZScsICc8aW5maWxlLm1hZT4nLCAnLW9tYWUnLCAnPG91dGZpbGUubWFlPic=

> <r_lp_tautomer_probability>
1

> <r_epik_Ionization_Penalty>
0.000770434

> <r_epik_Ionization_Penalty_Charging>
0

> <r_epik_Ionization_Penalty_Neutral>
0.000770434

> <r_epik_State_Penalty>
0.00047801

> <r_epik_Charging_Adjusted_Penalty>
0.00047801

> <i_epik_Tot_Q>
0

> <i_epik_Tot_abs_Q>
0

> <r_epik_Metal_State_Penalty>
-0

> <b_epik_Metal_Only>
0

> <s_lp_Force_Field>
OPLS_2005

> <r_lp_Energy>
28.9923

> <b_lp_Chiralities_Consistent>
1

> <s_lp_Variant>
AV-unprocessed.smi:1364-1

> <Gold.Version>
5.8.1

> <Gold.Id.Protein>
6NUR|6NUR_protein|mol2

> <Gold.PLP.Fitness>
43.0559

> <Gold.PLP.PLP>
-43.6609

> <Gold.PLP.part.hbond>
-1.0000

> <Gold.PLP.part.metal>
0.0000

> <Gold.PLP.part.buried>
-5.0212

> <Gold.PLP.part.nonpolar>
-37.4308

> <Gold.PLP.part.repulsive>
0.9488

> <Gold.PLP.ligand.clash>
0.0000

> <Gold.PLP.ligand.torsion>
0.4778

> <Gold.PLP.Chemscore.Hbond>
0.0000

> <Gold.PLP.Chemscore.CHOScore>
0.0000

> <Gold.PLP.Chemscore.Metal>
0.0000

> <Gold.PLP.Chemscore.Internal.Correction>
0.3506

> <Gold.Rescore>
     Score         DG    S(hbond)    S(metal)    S(lipo)     H(rot)  DE(clash)    DE(int)     intcor
     13.27     -15.05       0.00        0.00     107.31       1.17       0.11       1.67       ----

> <Gold.Chemscore.Fitness>
13.2712

> <Gold.Chemscore.DG>
-15.0465

> <Gold.Chemscore.ZeroCoef>
-5.4800

> <Gold.Chemscore.Hbond>
0.0000

> <Gold.Chemscore.Metal>
0.0000

> <Gold.Chemscore.Lipo>
107.3098

> <Gold.Chemscore.Internal_Hbond>
0.0000

> <Gold.Chemscore.DEClash>
0.1067

> <Gold.Chemscore.DEInternal>
1.6686

> <Gold.Chemscore.Rot>
1.1675

> <Gold.Chemscore.Internal.Correction>
   9.000000E+99

> <Gold.Chemscore.Hbond.Weighted>
-0.0000

> <Gold.Chemscore.Metal.Weighted>
-0.0000

> <Gold.Chemscore.Lipo.Weighted>
-12.5552

> <Gold.Chemscore.Internal_Hbond.Weighted>
0.0000

> <Gold.Chemscore.DEClash.Weighted>
0.1067

> <Gold.Chemscore.DEInternal.Weighted>
1.6686

> <Gold.Chemscore.Rot.Weighted>
2.9888

> <Gold.Chemscore.Internal.Correction.Weighted>
   9.000000E+99

> <Gold.Protein.RotatedTorsions>
[ 6907 6896 6895 6894 ] final   35.26 input  -60.11 | X-H torsion
[ 7974 7965 7964 7962 ] final    0.36 input  175.53 | X-H torsion
[ 8008 7997 7996 7995 ] final  -69.63 input   59.86 | X-H torsion
[ 10167 10162 10161 10158 ] final   67.19 input  -65.29 | X-H torsion
[ 10718 10713 10712 10709 ] final -146.75 input   66.30 | X-H torsion
[ 10763 10752 10751 10750 ] final  124.83 input  -60.55 | X-H torsion
[ 11005 11000 10999 10996 ] final  -49.74 input  -57.11 | X-H torsion

> <Gold.Protein.ActiveResidues>
 VAL166  LYS551  ARG553  GLY616  TRP617  ASP618  TYR619  PRO620  LYS621  CYS622 
 ASP623  PHE694  ASN695  SER759  ASP760  ASP761  ALA762  ILE779  LEU786  VAL792 
 PHE793  MET794  SER795  GLU796  ALA797  LYS798  CYS799  TRP800  GLU811  SER814 

> <Gold.Protein.RotatedAtoms>
  152.1137  134.9256  160.0565 H   0  0  0  0  0  0  0  0  0  0  0  0  # atno 6907 bound_to 6896
  152.0424  133.3978  159.4350 H   0  0  0  0  0  0  0  0  0  0  0  0  # atno 6908 bound_to 6896
  150.6845  134.3321  159.4875 H   0  0  0  0  0  0  0  0  0  0  0  0  # atno 6909 bound_to 6896
  146.2434  140.1149  142.8342 H   0  0  0  0  0  0  0  0  0  0  0  0  # atno 7974 bound_to 7965
  154.4952  140.0850  156.7681 H   0  0  0  0  0  0  0  0  0  0  0  0  # atno 8008 bound_to 7997
  155.4133  140.3442  155.4247 H   0  0  0  0  0  0  0  0  0  0  0  0  # atno 8009 bound_to 7997
  156.1384  140.1522  156.8946 H   0  0  0  0  0  0  0  0  0  0  0  0  # atno 8010 bound_to 7997
  140.0923  144.4977  150.7091 H   0  0  0  0  0  0  0  0  0  0  0  0  # atno 10167 bound_to 10162
  156.3989  130.7924  151.2132 H   0  0  0  0  0  0  0  0  0  0  0  0  # atno 10718 bound_to 10713
  153.6676  135.3336  155.3144 H   0  0  0  0  0  0  0  0  0  0  0  0  # atno 10763 bound_to 10752
  154.8499  135.4378  154.1738 H   0  0  0  0  0  0  0  0  0  0  0  0  # atno 10764 bound_to 10752
  153.2721  135.7001  153.7546 H   0  0  0  0  0  0  0  0  0  0  0  0  # atno 10765 bound_to 10752
  141.0776  133.6661  156.3629 H   0  0  0  0  0  0  0  0  0  0  0  0  # atno 11005 bound_to 11000
  145.0456  140.8978  143.5026 LP  0  0  0  0  0  0  0  0  0  0  0  0  # atno 17320 bound_to 7965
  145.1237  139.2677  143.5575 LP  0  0  0  0  0  0  0  0  0  0  0  0  # atno 17321 bound_to 7965
  140.7022  143.2443  151.4831 LP  0  0  0  0  0  0  0  0  0  0  0  0  # atno 17342 bound_to 10162
  139.5718  144.1911  152.1847 LP  0  0  0  0  0  0  0  0  0  0  0  0  # atno 17343 bound_to 10162
  157.7503  131.0293  150.4086 LP  0  0  0  0  0  0  0  0  0  0  0  0  # atno 17370 bound_to 10713
  156.4361  130.3982  149.6728 LP  0  0  0  0  0  0  0  0  0  0  0  0  # atno 17371 bound_to 10713
  140.5539  134.6001  157.5415 LP  0  0  0  0  0  0  0  0  0  0  0  0  # atno 17394 bound_to 11000
  139.9589  134.7487  156.0281 LP  0  0  0  0  0  0  0  0  0  0  0  0  # atno 17395 bound_to 11000

$$$$
