AV-unprocessed.smi:3117|AV-procd|sdf|11885|dock4
  -GOLD-   2272017273D 1   1.00000     0.00000
 Structure written by MMmdl.
 36 36  0  0  0  0  0  0  0  0  1 V2000
  149.2338  142.0791  158.2654 C   0  0  0  0  0  0  0  0  0  0  0  0
  150.3415  141.7512  157.2506 C   0  0  1  0  0  0  0  0  0  0  0  0
  149.7585  141.8235  155.9034 N   0  0  0  0  0  0  0  0  0  0  0  0
  148.7097  140.8534  155.5890 C   0  0  0  0  0  0  0  0  0  0  0  0
  148.1766  141.0270  154.1522 C   0  0  0  0  0  0  0  0  0  0  0  0
  147.3336  139.8247  153.6910 C   0  0  0  0  0  0  0  0  0  0  0  0
  147.4254  142.3580  153.9690 C   0  0  0  0  0  0  0  0  0  0  0  0
  149.3096  141.0775  153.3093 O   0  0  0  0  0  0  0  0  0  0  0  0
  151.5943  142.6541  157.4733 C   0  0  1  0  0  0  0  0  0  0  0  0
  151.4073  144.1230  157.0394 C   0  0  0  0  0  0  0  0  0  0  0  0
  152.1919  142.5144  158.8006 N   0  0  0  0  0  0  0  0  0  0  0  0
  152.4654  143.5117  159.7151 C   0  0  0  0  0  0  0  0  0  0  0  0
  153.0512  142.9278  160.8014 C   0  0  0  0  0  0  0  0  0  0  0  0
  153.1046  141.5497  160.4546 C   0  0  0  0  0  0  0  0  0  0  0  0
  152.5932  141.3060  159.2598 N   0  0  0  0  0  0  0  0  0  0  0  0
  149.5923  141.9788  159.2901 H   0  0  0  0  0  0  0  0  0  0  0  0
  148.3866  141.4020  158.1525 H   0  0  0  0  0  0  0  0  0  0  0  0
  148.8607  143.0956  158.1401 H   0  0  0  0  0  0  0  0  0  0  0  0
  150.6334  140.7189  157.4475 H   0  0  0  0  0  0  0  0  0  0  0  0
  149.4049  142.7605  155.7399 H   0  0  0  0  0  0  0  0  0  0  0  0
  149.0887  139.8398  155.6919 H   0  0  0  0  0  0  0  0  0  0  0  0
  147.8875  140.9561  156.2985 H   0  0  0  0  0  0  0  0  0  0  0  0
  146.4165  139.7338  154.2740 H   0  0  0  0  0  0  0  0  0  0  0  0
  147.8848  138.8893  153.7949 H   0  0  0  0  0  0  0  0  0  0  0  0
  147.0438  139.9226  152.6441 H   0  0  0  0  0  0  0  0  0  0  0  0
  146.5168  142.3875  154.5709 H   0  0  0  0  0  0  0  0  0  0  0  0
  147.1320  142.5084  152.9294 H   0  0  0  0  0  0  0  0  0  0  0  0
  148.0424  143.2070  154.2655 H   0  0  0  0  0  0  0  0  0  0  0  0
  149.2331  140.3906  152.6647 H   0  0  0  0  0  0  0  0  0  0  0  0
  152.3542  142.2868  156.7818 H   0  0  0  0  0  0  0  0  0  0  0  0
  151.0533  144.1808  156.0100 H   0  0  0  0  0  0  0  0  0  0  0  0
  152.3550  144.6604  157.0853 H   0  0  0  0  0  0  0  0  0  0  0  0
  150.6996  144.6701  157.6575 H   0  0  0  0  0  0  0  0  0  0  0  0
  152.2235  144.5456  159.5179 H   0  0  0  0  0  0  0  0  0  0  0  0
  153.3934  143.4119  161.7040 H   0  0  0  0  0  0  0  0  0  0  0  0
  153.4983  140.7253  161.0306 H   0  0  0  0  0  0  0  0  0  0  0  0
  1  2  1  0  0  0  0
  1 16  1  0  0  0  0
  1 17  1  0  0  0  0
  1 18  1  0  0  0  0
  2  3  1  0  0  0  0
  2  9  1  0  0  0  0
  2 19  1  0  0  0  0
  3  4  1  0  0  0  0
  3 20  1  0  0  0  0
  4  5  1  0  0  0  0
  4 21  1  0  0  0  0
  4 22  1  0  0  0  0
  5  6  1  0  0  0  0
  5  7  1  0  0  0  0
  5  8  1  0  0  0  0
  6 23  1  0  0  0  0
  6 24  1  0  0  0  0
  6 25  1  0  0  0  0
  7 26  1  0  0  0  0
  7 27  1  0  0  0  0
  7 28  1  0  0  0  0
  8 29  1  0  0  0  0
  9 10  1  0  0  0  0
  9 11  1  0  0  0  0
  9 30  1  0  0  0  0
 10 31  1  0  0  0  0
 10 32  1  0  0  0  0
 10 33  1  0  0  0  0
 11 15  1  0  0  0  0
 11 12  1  0  0  0  0
 12 13  2  0  0  0  0
 12 34  1  0  0  0  0
 13 14  1  0  0  0  0
 13 35  1  0  0  0  0
 14 15  2  0  0  0  0
 14 36  1  0  0  0  0
M  END
> <s_m_source_file>
AV-unprocessed.smi

> <i_m_source_file_index>
3117

> <i_lp_mmshare_version>
43012

> <i_f3d_flags>
0

> <s_epik_input>
W0NIM11DKFtDSDNdKShbT0hdKVtDSDJdW05IXVtDQEBIXShbQ0gzXSlbQ0BIXShbQ0gzXSluMVtjSF1bY0hdW2NIXW4x

> <s_epik_cmdline>
J2VwaWtfcHl0aG9uJywgJy1waCcsICc3LjAnLCAnLXRuJywgJzgnLCAnLW1hJywgJzIwMCcsICctbWV0YWxfYmluZGluZycsICctaW1hZScsICc8aW5maWxlLm1hZT4nLCAnLW9tYWUnLCAnPG91dGZpbGUubWFlPic=

> <r_lp_tautomer_probability>
1

> <r_epik_Ionization_Penalty>
2.13419

> <r_epik_Ionization_Penalty_Charging>
0

> <r_epik_Ionization_Penalty_Neutral>
2.13419

> <r_epik_State_Penalty>
2.27148

> <r_epik_Charging_Adjusted_Penalty>
2.27148

> <i_epik_Tot_Q>
0

> <i_epik_Tot_abs_Q>
0

> <r_epik_Metal_State_Penalty>
2.27029

> <b_epik_Metal_Only>
0

> <s_lp_Force_Field>
OPLS_2005

> <r_lp_Energy>
16.3619

> <b_lp_Chiralities_Consistent>
1

> <s_lp_Variant>
AV-unprocessed.smi:3117-8

> <Gold.Version>
5.8.1

> <Gold.Id.Protein>
6NUR|6NUR_protein|mol2

> <Gold.PLP.Fitness>
42.6551

> <Gold.PLP.PLP>
-34.1807

> <Gold.PLP.part.hbond>
-3.4510

> <Gold.PLP.part.metal>
0.0000

> <Gold.PLP.part.buried>
-2.7987

> <Gold.PLP.part.nonpolar>
-27.8221

> <Gold.PLP.part.repulsive>
0.0000

> <Gold.PLP.ligand.clash>
0.0000

> <Gold.PLP.ligand.torsion>
0.2632

> <Gold.PLP.Chemscore.Hbond>
2.9010

> <Gold.PLP.Chemscore.CHOScore>
0.0000

> <Gold.PLP.Chemscore.Metal>
0.0000

> <Gold.Chemscore.Hbonds>
donor molecule, donor type, donor heavy atom, donor atom, acceptor molecule, acceptor atom, score
      L1  H     3    20       P1  8028  1.00
      L1  H     8    29       P1  7957  0.83
      P1  H  7989  7998       L1     8  0.04
      P1  H  8011  8017       L1     8  1.00

> <Gold.PLP.Chemscore.Internal.Correction>
0.2978

> <Gold.Rescore>
     Score         DG    S(hbond)    S(metal)    S(lipo)     H(rot)  DE(clash)    DE(int)     intcor
     16.96     -18.27       2.30        0.00      91.41       2.19       1.09       0.22       ----

> <Gold.Chemscore.Fitness>
16.9583

> <Gold.Chemscore.DG>
-18.2664

> <Gold.Chemscore.ZeroCoef>
-5.4800

> <Gold.Chemscore.Hbond>
2.3034

> <Gold.Chemscore.Metal>
0.0000

> <Gold.Chemscore.Lipo>
91.4076

> <Gold.Chemscore.Internal_Hbond>
0.0000

> <Gold.Chemscore.DEClash>
1.0876

> <Gold.Chemscore.DEInternal>
0.2205

> <Gold.Chemscore.Rot>
2.1882

> <Gold.Chemscore.Internal.Correction>
   9.000000E+99

> <Gold.Chemscore.Hbonds>
donor molecule, donor type, donor heavy atom, donor atom, acceptor molecule, acceptor atom, score
      L1  H     3    20       P1  8028  0.93
      L1  H     8    29       P1  7957  0.80
      P1  H  8011  8017       L1     8  0.30

> <Gold.Chemscore.Hbond.Weighted>
-7.6935

> <Gold.Chemscore.Metal.Weighted>
-0.0000

> <Gold.Chemscore.Lipo.Weighted>
-10.6947

> <Gold.Chemscore.Internal_Hbond.Weighted>
0.0000

> <Gold.Chemscore.DEClash.Weighted>
1.0876

> <Gold.Chemscore.DEInternal.Weighted>
0.2205

> <Gold.Chemscore.Rot.Weighted>
5.6018

> <Gold.Chemscore.Internal.Correction.Weighted>
   9.000000E+99

> <Gold.Protein.RotatedTorsions>
[ 6907 6896 6895 6894 ] final   54.76 input  -60.11 | X-H torsion
[ 7974 7965 7964 7962 ] final  158.16 input  175.53 | X-H torsion
[ 8008 7997 7996 7995 ] final  161.62 input   59.86 | X-H torsion
[ 10167 10162 10161 10158 ] final   -6.25 input  -65.29 | X-H torsion
[ 10718 10713 10712 10709 ] final -149.16 input   66.30 | X-H torsion
[ 10763 10752 10751 10750 ] final  160.78 input  -60.55 | X-H torsion
[ 11005 11000 10999 10996 ] final  114.72 input  -57.11 | X-H torsion

> <Gold.Protein.ActiveResidues>
 VAL166  LYS551  ARG553  GLY616  TRP617  ASP618  TYR619  PRO620  LYS621  CYS622 
 ASP623  PHE694  ASN695  SER759  ASP760  ASP761  ALA762  ILE779  LEU786  VAL792 
 PHE793  MET794  SER795  GLU796  ALA797  LYS798  CYS799  TRP800  GLU811  SER814 

> <Gold.Protein.RotatedAtoms>
  152.3471  134.7056  160.0246 H   0  0  0  0  0  0  0  0  0  0  0  0  # atno 6907 bound_to 6896
  151.7423  133.3317  159.3377 H   0  0  0  0  0  0  0  0  0  0  0  0  # atno 6908 bound_to 6896
  150.7516  134.6200  159.6175 H   0  0  0  0  0  0  0  0  0  0  0  0  # atno 6909 bound_to 6896
  144.7861  139.7440  143.6240 H   0  0  0  0  0  0  0  0  0  0  0  0  # atno 7974 bound_to 7965
  156.2090  140.1772  156.7736 H   0  0  0  0  0  0  0  0  0  0  0  0  # atno 8008 bound_to 7997
  154.5696  140.0685  156.8974 H   0  0  0  0  0  0  0  0  0  0  0  0  # atno 8009 bound_to 7997
  155.2698  140.3341  155.4268 H   0  0  0  0  0  0  0  0  0  0  0  0  # atno 8010 bound_to 7997
  140.6990  143.6216  150.8607 H   0  0  0  0  0  0  0  0  0  0  0  0  # atno 10167 bound_to 10162
  156.4296  130.8069  151.2295 H   0  0  0  0  0  0  0  0  0  0  0  0  # atno 10718 bound_to 10713
  154.2527  135.2771  155.2810 H   0  0  0  0  0  0  0  0  0  0  0  0  # atno 10763 bound_to 10752
  154.5451  135.5691  153.6877 H   0  0  0  0  0  0  0  0  0  0  0  0  # atno 10764 bound_to 10752
  152.9977  135.6261  154.2674 H   0  0  0  0  0  0  0  0  0  0  0  0  # atno 10765 bound_to 10752
  139.8989  134.9572  156.6936 H   0  0  0  0  0  0  0  0  0  0  0  0  # atno 11005 bound_to 11000
  146.2094  139.5440  142.9691 LP  0  0  0  0  0  0  0  0  0  0  0  0  # atno 17320 bound_to 7965
  145.5917  141.0368  143.2066 LP  0  0  0  0  0  0  0  0  0  0  0  0  # atno 17321 bound_to 7965
  139.9936  143.5820  152.2901 LP  0  0  0  0  0  0  0  0  0  0  0  0  # atno 17342 bound_to 10162
  139.6484  144.7659  151.2197 LP  0  0  0  0  0  0  0  0  0  0  0  0  # atno 17343 bound_to 10162
  157.7508  131.0202  150.3701 LP  0  0  0  0  0  0  0  0  0  0  0  0  # atno 17370 bound_to 10713
  156.4035  130.3920  149.6942 LP  0  0  0  0  0  0  0  0  0  0  0  0  # atno 17371 bound_to 10713
  140.7206  133.9144  155.8144 LP  0  0  0  0  0  0  0  0  0  0  0  0  # atno 17394 bound_to 11000
  141.0230  134.0862  157.4099 LP  0  0  0  0  0  0  0  0  0  0  0  0  # atno 17395 bound_to 11000

$$$$
