AV-unprocessed.smi:743|AV-procd|sdf|3563|dock6
  -GOLD-   22720 0563D 1   1.00000     0.00000
 Structure written by MMmdl.
 29 30  0  0  0  0  0  0  0  0  2 V2000
  141.9988  135.1057  153.5475 C   0  0  0  0  0  0  0  0  0  0  0  0
  143.1883  135.1306  152.7234 N   0  0  0  0  0  0  0  0  0  0  0  0
  144.1144  134.1316  152.5183 C   0  0  0  0  0  0  0  0  0  0  0  0
  145.0608  134.6133  151.6543 C   0  0  0  0  0  0  0  0  0  0  0  0
  146.2904  133.9316  151.0880 C   0  0  1  0  0  0  0  0  0  0  0  0
  147.3075  133.7459  152.1266 N   0  0  0  0  0  0  0  0  0  0  0  0
  147.5369  132.6234  152.8335 C   0  0  0  0  0  0  0  0  0  0  0  0
  148.3367  132.6072  153.7656 O   0  0  0  0  0  0  0  0  0  0  0  0
  146.8212  131.3223  152.4326 C   0  0  0  0  0  0  0  0  0  0  0  0
  145.6407  131.5174  151.4637 C   0  0  0  0  0  0  0  0  0  0  0  0
  145.9627  132.5812  150.4055 C   0  0  1  0  0  0  0  0  0  0  0  0
  144.8878  132.6987  149.4025 N   0  3  0  0  0  0  0  0  0  0  0  0
  144.6171  135.9442  151.4016 C   0  0  0  0  0  0  0  0  0  0  0  0
  143.4965  136.2471  152.0341 N   0  0  0  0  0  0  0  0  0  0  0  0
  146.8487  132.2504  149.8613 H   0  0  0  0  0  0  0  0  0  0  0  0
  141.8863  134.1262  154.0129 H   0  0  0  0  0  0  0  0  0  0  0  0
  141.1200  135.3094  152.9348 H   0  0  0  0  0  0  0  0  0  0  0  0
  142.0750  135.8624  154.3289 H   0  0  0  0  0  0  0  0  0  0  0  0
  144.0212  133.1662  152.9946 H   0  0  0  0  0  0  0  0  0  0  0  0
  146.7430  134.5807  150.3374 H   0  0  0  0  0  0  0  0  0  0  0  0
  147.8317  134.5683  152.3900 H   0  0  0  0  0  0  0  0  0  0  0  0
  147.5668  130.6808  151.9619 H   0  0  0  0  0  0  0  0  0  0  0  0
  146.4865  130.7985  153.3285 H   0  0  0  0  0  0  0  0  0  0  0  0
  145.4109  130.5669  150.9812 H   0  0  0  0  0  0  0  0  0  0  0  0
  144.7471  131.7971  152.0235 H   0  0  0  0  0  0  0  0  0  0  0  0
  144.0268  132.9576  149.8631 H   0  0  0  0  0  0  0  0  0  0  0  0
  144.7651  131.8125  148.9336 H   0  0  0  0  0  0  0  0  0  0  0  0
  145.0732  136.6943  150.7724 H   0  0  0  0  0  0  0  0  0  0  0  0
  145.1329  133.4065  148.7250 H   0  0  0  0  0  0  0  0  0  0  0  0
  1  2  1  0  0  0  0
  1 16  1  0  0  0  0
  1 17  1  0  0  0  0
  1 18  1  0  0  0  0
  2 14  1  0  0  0  0
  2  3  1  0  0  0  0
  3  4  2  0  0  0  0
  3 19  1  0  0  0  0
  4  5  1  0  0  0  0
  4 13  1  0  0  0  0
  5 11  1  0  0  0  0
  5  6  1  0  0  0  0
  5 20  1  0  0  0  0
  6  7  1  0  0  0  0
  6 21  1  0  0  0  0
  7  8  2  0  0  0  0
  7  9  1  0  0  0  0
  9 10  1  0  0  0  0
  9 22  1  0  0  0  0
  9 23  1  0  0  0  0
 10 11  1  0  0  0  0
 10 24  1  0  0  0  0
 10 25  1  0  0  0  0
 11 15  1  0  0  0  0
 11 12  1  0  0  0  0
 12 26  1  0  0  0  0
 12 27  1  0  0  0  0
 12 29  1  0  0  0  0
 13 14  2  0  0  0  0
 13 28  1  0  0  0  0
M  CHG  1  12   1
M  END
> <s_m_source_file>
AV-unprocessed.smi

> <i_m_source_file_index>
743

> <i_lp_mmshare_version>
43012

> <i_f3d_flags>
0

> <s_epik_input>
W0NIM11uMVtjSF1jKFtjSF1uMSlbQ0BASF0yW05IXUMoPU8pW0NIMl1bQ0gyXVtDQEBIXTJbTkgyXQ==

> <s_epik_cmdline>
J2VwaWtfcHl0aG9uJywgJy1waCcsICc3LjAnLCAnLXRuJywgJzgnLCAnLW1hJywgJzIwMCcsICctbWV0YWxfYmluZGluZycsICctaW1hZScsICc8aW5maWxlLm1hZT4nLCAnLW9tYWUnLCAnPG91dGZpbGUubWFlPic=

> <r_lp_tautomer_probability>
1

> <r_epik_Ionization_Penalty>
0.00878543

> <r_epik_Ionization_Penalty_Charging>
0.00874185

> <r_epik_Ionization_Penalty_Neutral>
4.35793e-05

> <r_epik_State_Penalty>
0.00660351

> <r_epik_Charging_Adjusted_Penalty>
0.0153454

> <i_epik_Tot_Q>
1

> <i_epik_Tot_abs_Q>
1

> <r_epik_Metal_State_Penalty>
0.00660727

> <b_epik_Metal_Only>
0

> <s_lp_Force_Field>
OPLS_2005

> <r_lp_Energy>
11.1602

> <b_lp_Chiralities_Consistent>
1

> <s_lp_Variant>
AV-unprocessed.smi:743-4

> <Gold.Version>
5.8.1

> <Gold.Id.Protein>
6NUR|6NUR_protein|mol2

> <Gold.PLP.Fitness>
34.0700

> <Gold.PLP.PLP>
-23.5112

> <Gold.PLP.part.hbond>
-2.0000

> <Gold.PLP.part.metal>
0.0000

> <Gold.PLP.part.buried>
-3.4872

> <Gold.PLP.part.nonpolar>
-19.0298

> <Gold.PLP.part.repulsive>
0.5146

> <Gold.PLP.ligand.clash>
0.0000

> <Gold.PLP.ligand.torsion>
0.1448

> <Gold.PLP.Chemscore.Hbond>
1.9760

> <Gold.PLP.Chemscore.CHOScore>
1.6339

> <Gold.PLP.Chemscore.Metal>
0.0000

> <Gold.Chemscore.Hbonds>
donor molecule, donor type, donor heavy atom, donor atom, acceptor molecule, acceptor atom, score
      L1  H     6    21       P1  7948  0.98
      L1  H    12    29       P1  7921  1.00
      L1  C     3    19       P1 10957  0.73
      L1  C    13    28       P1 10171  0.88

> <Gold.PLP.Chemscore.Internal.Correction>
0.0187

> <Gold.Rescore>
     Score         DG    S(hbond)    S(metal)    S(lipo)     H(rot)  DE(clash)    DE(int)     intcor
     13.63     -13.82       1.65        0.00      46.04       1.00       0.08       0.11       ----

> <Gold.Chemscore.Fitness>
13.6261

> <Gold.Chemscore.DG>
-13.8205

> <Gold.Chemscore.ZeroCoef>
-5.4800

> <Gold.Chemscore.Hbond>
1.6510

> <Gold.Chemscore.Metal>
0.0000

> <Gold.Chemscore.Lipo>
46.0363

> <Gold.Chemscore.Internal_Hbond>
0.0000

> <Gold.Chemscore.DEClash>
0.0834

> <Gold.Chemscore.DEInternal>
0.1110

> <Gold.Chemscore.Rot>
1.0000

> <Gold.Chemscore.Internal.Correction>
   9.000000E+99

> <Gold.Chemscore.Hbonds>
donor molecule, donor type, donor heavy atom, donor atom, acceptor molecule, acceptor atom, score
      L1  H     6    21       P1  7948  0.53
      L1  H    12    29       P1  7921  0.56

> <Gold.Chemscore.Hbond.Weighted>
-5.5142

> <Gold.Chemscore.Metal.Weighted>
-0.0000

> <Gold.Chemscore.Lipo.Weighted>
-5.3863

> <Gold.Chemscore.Internal_Hbond.Weighted>
0.0000

> <Gold.Chemscore.DEClash.Weighted>
0.0834

> <Gold.Chemscore.DEInternal.Weighted>
0.1110

> <Gold.Chemscore.Rot.Weighted>
2.5600

> <Gold.Chemscore.Internal.Correction.Weighted>
   9.000000E+99

> <Gold.Protein.RotatedTorsions>
[ 6907 6896 6895 6894 ] final  -18.58 input  -60.11 | X-H torsion
[ 7974 7965 7964 7962 ] final   -0.08 input  175.53 | X-H torsion
[ 8008 7997 7996 7995 ] final  103.48 input   59.86 | X-H torsion
[ 10167 10162 10161 10158 ] final -112.90 input  -65.29 | X-H torsion
[ 10718 10713 10712 10709 ] final   -2.94 input   66.30 | X-H torsion
[ 10763 10752 10751 10750 ] final  -56.48 input  -60.55 | X-H torsion
[ 11005 11000 10999 10996 ] final  164.42 input  -57.11 | X-H torsion

> <Gold.Protein.ActiveResidues>
 VAL166  LYS551  ARG553  GLY616  TRP617  ASP618  TYR619  PRO620  LYS621  CYS622 
 ASP623  PHE694  ASN695  SER759  ASP760  ASP761  ALA762  ILE779  LEU786  VAL792 
 PHE793  MET794  SER795  GLU796  ALA797  LYS798  CYS799  TRP800  GLU811  SER814 

> <Gold.Protein.RotatedAtoms>
  151.2760  135.0699  159.9151 H   0  0  0  0  0  0  0  0  0  0  0  0  # atno 6907 bound_to 6896
  152.5342  134.0081  159.7936 H   0  0  0  0  0  0  0  0  0  0  0  0  # atno 6908 bound_to 6896
  151.0327  133.5726  159.2690 H   0  0  0  0  0  0  0  0  0  0  0  0  # atno 6909 bound_to 6896
  146.2430  140.1216  142.8340 H   0  0  0  0  0  0  0  0  0  0  0  0  # atno 7974 bound_to 7965
  156.1488  140.3164  155.8614 H   0  0  0  0  0  0  0  0  0  0  0  0  # atno 8008 bound_to 7997
  155.4012  140.0500  157.3053 H   0  0  0  0  0  0  0  0  0  0  0  0  # atno 8009 bound_to 7997
  154.5040  140.2140  155.9301 H   0  0  0  0  0  0  0  0  0  0  0  0  # atno 8010 bound_to 7997
  140.1177  143.4471  152.1711 H   0  0  0  0  0  0  0  0  0  0  0  0  # atno 10167 bound_to 10162
  156.7834  130.5338  149.5747 H   0  0  0  0  0  0  0  0  0  0  0  0  # atno 10718 bound_to 10713
  154.2073  135.6400  153.5105 H   0  0  0  0  0  0  0  0  0  0  0  0  # atno 10763 bound_to 10752
  152.9998  135.5465  154.6252 H   0  0  0  0  0  0  0  0  0  0  0  0  # atno 10764 bound_to 10752
  154.5680  135.2914  155.0829 H   0  0  0  0  0  0  0  0  0  0  0  0  # atno 10765 bound_to 10752
  140.2457  134.8016  157.3454 H   0  0  0  0  0  0  0  0  0  0  0  0  # atno 11005 bound_to 11000
  145.0401  140.8939  143.5057 LP  0  0  0  0  0  0  0  0  0  0  0  0  # atno 17320 bound_to 7965
  145.1295  139.2641  143.5546 LP  0  0  0  0  0  0  0  0  0  0  0  0  # atno 17321 bound_to 7965
  139.5585  144.7390  151.4223 LP  0  0  0  0  0  0  0  0  0  0  0  0  # atno 17342 bound_to 10162
  140.6890  143.7907  150.7227 LP  0  0  0  0  0  0  0  0  0  0  0  0  # atno 17343 bound_to 10162
  156.1204  130.6105  151.0184 LP  0  0  0  0  0  0  0  0  0  0  0  0  # atno 17370 bound_to 10713
  157.6635  131.0876  150.7782 LP  0  0  0  0  0  0  0  0  0  0  0  0  # atno 17371 bound_to 10713
  140.1608  134.4731  155.7896 LP  0  0  0  0  0  0  0  0  0  0  0  0  # atno 17394 bound_to 11000
  141.2206  133.6900  156.7541 LP  0  0  0  0  0  0  0  0  0  0  0  0  # atno 17395 bound_to 11000

$$$$
