AV-unprocessed.smi:3184|AV-procd|sdf|12164|dock7
  -GOLD-   2272018 03D 1   1.00000     0.00000
 Structure written by MMmdl.
 34 35  0  0  0  0  0  0  0  0  1 V2000
  151.3724  140.0774  155.6611 C   0  0  0  0  0  0  0  0  0  0  0  0
  150.8991  141.3987  156.2830 C   0  0  1  0  0  0  0  0  0  0  0  0
  149.3739  141.4148  156.4995 C   0  0  0  0  0  0  0  0  0  0  0  0
  148.6457  141.0815  155.2887 N   0  0  0  0  0  0  0  0  0  0  0  0
  147.9143  141.9461  154.4856 C   0  0  0  0  0  0  0  0  0  0  0  0
  147.3930  141.1862  153.4629 C   0  0  0  0  0  0  0  0  0  0  0  0
  147.7901  139.8598  153.6147 N   0  0  0  0  0  0  0  0  0  0  0  0
  148.5300  139.8755  154.7157 C   0  0  0  0  0  0  0  0  0  0  0  0
  151.5843  141.6137  157.5558 N   0  0  0  0  0  0  0  0  0  0  0  0
  151.5284  142.7288  158.3040 C   0  0  0  0  0  0  0  0  0  0  0  0
  150.9227  143.7430  157.9556 O   0  0  0  0  0  0  0  0  0  0  0  0
  152.1840  142.6321  159.4810 N   0  0  0  0  0  0  0  0  0  0  0  0
  152.9958  141.4994  159.9372 C   0  0  0  0  0  0  0  0  0  0  0  0
  153.6736  141.9654  161.2259 C   0  0  0  0  0  0  0  0  0  0  0  0
  152.7531  143.0539  161.7590 C   0  0  0  0  0  0  0  0  0  0  0  0
  152.1445  143.6768  160.5026 C   0  0  0  0  0  0  0  0  0  0  0  0
  150.8859  139.9003  154.7014 H   0  0  0  0  0  0  0  0  0  0  0  0
  151.1484  139.2296  156.3093 H   0  0  0  0  0  0  0  0  0  0  0  0
  152.4488  140.0886  155.4862 H   0  0  0  0  0  0  0  0  0  0  0  0
  151.1450  142.2016  155.5855 H   0  0  0  0  0  0  0  0  0  0  0  0
  149.0951  140.6942  157.2694 H   0  0  0  0  0  0  0  0  0  0  0  0
  149.0437  142.3933  156.8518 H   0  0  0  0  0  0  0  0  0  0  0  0
  147.8244  142.9998  154.7048 H   0  0  0  0  0  0  0  0  0  0  0  0
  146.7672  141.4893  152.6365 H   0  0  0  0  0  0  0  0  0  0  0  0
  148.9933  138.9868  155.1190 H   0  0  0  0  0  0  0  0  0  0  0  0
  152.1125  140.8347  157.9215 H   0  0  0  0  0  0  0  0  0  0  0  0
  152.3406  140.6498  160.1364 H   0  0  0  0  0  0  0  0  0  0  0  0
  153.7352  141.1945  159.1952 H   0  0  0  0  0  0  0  0  0  0  0  0
  153.8293  141.1552  161.9390 H   0  0  0  0  0  0  0  0  0  0  0  0
  154.6481  142.3959  160.9916 H   0  0  0  0  0  0  0  0  0  0  0  0
  151.9644  142.6011  162.3613 H   0  0  0  0  0  0  0  0  0  0  0  0
  153.2735  143.7817  162.3824 H   0  0  0  0  0  0  0  0  0  0  0  0
  152.7435  144.5239  160.1656 H   0  0  0  0  0  0  0  0  0  0  0  0
  151.1298  144.0321  160.6896 H   0  0  0  0  0  0  0  0  0  0  0  0
  1  2  1  0  0  0  0
  1 17  1  0  0  0  0
  1 18  1  0  0  0  0
  1 19  1  0  0  0  0
  2  3  1  0  0  0  0
  2  9  1  0  0  0  0
  2 20  1  0  0  0  0
  3  4  1  0  0  0  0
  3 21  1  0  0  0  0
  3 22  1  0  0  0  0
  4  8  1  0  0  0  0
  4  5  1  0  0  0  0
  5  6  2  0  0  0  0
  5 23  1  0  0  0  0
  6  7  1  0  0  0  0
  6 24  1  0  0  0  0
  7  8  2  0  0  0  0
  8 25  1  0  0  0  0
  9 10  1  0  0  0  0
  9 26  1  0  0  0  0
 10 11  2  0  0  0  0
 10 12  1  0  0  0  0
 12 16  1  0  0  0  0
 12 13  1  0  0  0  0
 13 14  1  0  0  0  0
 13 27  1  0  0  0  0
 13 28  1  0  0  0  0
 14 15  1  0  0  0  0
 14 29  1  0  0  0  0
 14 30  1  0  0  0  0
 15 16  1  0  0  0  0
 15 31  1  0  0  0  0
 15 32  1  0  0  0  0
 16 33  1  0  0  0  0
 16 34  1  0  0  0  0
M  END
> <s_m_source_file>
AV-unprocessed.smi

> <i_m_source_file_index>
3184

> <i_lp_mmshare_version>
43012

> <i_f3d_flags>
0

> <s_epik_input>
W2NIXTFuW2NIXVtjSF1uMVtDSDJdW0NAQEhdKFtDSDNdKVtOSF1DKD1PKU4yW0NIMl1bQ0gyXVtDSDJdW0NIMl0y

> <s_epik_cmdline>
J2VwaWtfcHl0aG9uJywgJy1waCcsICc3LjAnLCAnLXRuJywgJzgnLCAnLW1hJywgJzIwMCcsICctbWV0YWxfYmluZGluZycsICctaW1hZScsICc8aW5maWxlLm1hZT4nLCAnLW9tYWUnLCAnPG91dGZpbGUubWFlPic=

> <r_lp_tautomer_probability>
1

> <r_epik_Ionization_Penalty>
0.625774

> <r_epik_Ionization_Penalty_Charging>
0.625709

> <r_epik_Ionization_Penalty_Neutral>
6.46152e-05

> <r_epik_State_Penalty>
0.642123

> <r_epik_Charging_Adjusted_Penalty>
1.26783

> <i_epik_Tot_Q>
0

> <i_epik_Tot_abs_Q>
0

> <r_epik_Metal_State_Penalty>
0.307922

> <b_epik_Metal_Only>
0

> <s_lp_Force_Field>
OPLS_2005

> <r_lp_Energy>
35.7196

> <b_lp_Chiralities_Consistent>
1

> <s_lp_Variant>
AV-unprocessed.smi:3184-4

> <Gold.Version>
5.8.1

> <Gold.Id.Protein>
6NUR|6NUR_protein|mol2

> <Gold.PLP.Fitness>
38.9671

> <Gold.PLP.PLP>
-36.3846

> <Gold.PLP.part.hbond>
0.0000

> <Gold.PLP.part.metal>
0.0000

> <Gold.PLP.part.buried>
-3.7447

> <Gold.PLP.part.nonpolar>
-32.9242

> <Gold.PLP.part.repulsive>
1.0805

> <Gold.PLP.ligand.clash>
0.0000

> <Gold.PLP.ligand.torsion>
0.2167

> <Gold.PLP.Chemscore.Hbond>
0.0000

> <Gold.PLP.Chemscore.CHOScore>
1.0000

> <Gold.PLP.Chemscore.Metal>
0.0000

> <Gold.Chemscore.Hbonds>
donor molecule, donor type, donor heavy atom, donor atom, acceptor molecule, acceptor atom, score
      L1  C     5    23       P1  8028  1.00

> <Gold.PLP.Chemscore.Internal.Correction>
0.0159

> <Gold.Rescore>
     Score         DG    S(hbond)    S(metal)    S(lipo)     H(rot)  DE(clash)    DE(int)     intcor
     10.31     -10.65       0.00        0.00      79.25       1.60       0.03       0.31       ----

> <Gold.Chemscore.Fitness>
10.3108

> <Gold.Chemscore.DG>
-10.6543

> <Gold.Chemscore.ZeroCoef>
-5.4800

> <Gold.Chemscore.Hbond>
0.0000

> <Gold.Chemscore.Metal>
0.0000

> <Gold.Chemscore.Lipo>
79.2532

> <Gold.Chemscore.Internal_Hbond>
0.0000

> <Gold.Chemscore.DEClash>
0.0314

> <Gold.Chemscore.DEInternal>
0.3121

> <Gold.Chemscore.Rot>
1.6009

> <Gold.Chemscore.Internal.Correction>
   9.000000E+99

> <Gold.Chemscore.Hbond.Weighted>
-0.0000

> <Gold.Chemscore.Metal.Weighted>
-0.0000

> <Gold.Chemscore.Lipo.Weighted>
-9.2726

> <Gold.Chemscore.Internal_Hbond.Weighted>
0.0000

> <Gold.Chemscore.DEClash.Weighted>
0.0314

> <Gold.Chemscore.DEInternal.Weighted>
0.3121

> <Gold.Chemscore.Rot.Weighted>
4.0983

> <Gold.Chemscore.Internal.Correction.Weighted>
   9.000000E+99

> <Gold.Protein.RotatedTorsions>
[ 6907 6896 6895 6894 ] final  -51.49 input  -60.11 | X-H torsion
[ 7974 7965 7964 7962 ] final  -90.98 input  175.53 | X-H torsion
[ 8008 7997 7996 7995 ] final    5.38 input   59.86 | X-H torsion
[ 10167 10162 10161 10158 ] final  -16.09 input  -65.29 | X-H torsion
[ 10718 10713 10712 10709 ] final -172.13 input   66.30 | X-H torsion
[ 10763 10752 10751 10750 ] final  167.45 input  -60.55 | X-H torsion
[ 11005 11000 10999 10996 ] final  -74.62 input  -57.11 | X-H torsion

> <Gold.Protein.ActiveResidues>
 VAL166  LYS551  ARG553  GLY616  TRP617  ASP618  TYR619  PRO620  LYS621  CYS622 
 ASP623  PHE694  ASN695  SER759  ASP760  ASP761  ALA762  ILE779  LEU786  VAL792 
 PHE793  MET794  SER795  GLU796  ALA797  LYS798  CYS799  TRP800  GLU811  SER814 

> <Gold.Protein.RotatedAtoms>
  150.8606  134.7957  159.7079 H   0  0  0  0  0  0  0  0  0  0  0  0  # atno 6907 bound_to 6896
  152.4644  134.5105  159.9762 H   0  0  0  0  0  0  0  0  0  0  0  0  # atno 6908 bound_to 6896
  151.5210  133.3428  159.2937 H   0  0  0  0  0  0  0  0  0  0  0  0  # atno 6909 bound_to 6896
  145.4192  140.9550  143.2190 H   0  0  0  0  0  0  0  0  0  0  0  0  # atno 7974 bound_to 7965
  154.7277  140.2724  155.6484 H   0  0  0  0  0  0  0  0  0  0  0  0  # atno 8008 bound_to 7997
  156.2841  140.2722  156.1892 H   0  0  0  0  0  0  0  0  0  0  0  0  # atno 8009 bound_to 7997
  155.0423  140.0371  157.2504 H   0  0  0  0  0  0  0  0  0  0  0  0  # atno 8010 bound_to 7997
  140.7228  143.5151  150.9702 H   0  0  0  0  0  0  0  0  0  0  0  0  # atno 10167 bound_to 10162
  156.7511  130.9378  151.3114 H   0  0  0  0  0  0  0  0  0  0  0  0  # atno 10718 bound_to 10713
  154.3539  135.2753  155.2357 H   0  0  0  0  0  0  0  0  0  0  0  0  # atno 10763 bound_to 10752
  154.4574  135.5916  153.6236 H   0  0  0  0  0  0  0  0  0  0  0  0  # atno 10764 bound_to 10752
  152.9848  135.6056  154.3753 H   0  0  0  0  0  0  0  0  0  0  0  0  # atno 10765 bound_to 10752
  141.1637  133.6918  156.7393 H   0  0  0  0  0  0  0  0  0  0  0  0  # atno 11005 bound_to 11000
  144.8257  139.5715  143.6967 LP  0  0  0  0  0  0  0  0  0  0  0  0  # atno 17320 bound_to 7965
  146.2665  139.6533  142.9325 LP  0  0  0  0  0  0  0  0  0  0  0  0  # atno 17321 bound_to 7965
  139.8866  143.7005  152.3150 LP  0  0  0  0  0  0  0  0  0  0  0  0  # atno 17342 bound_to 10162
  139.7306  144.7583  151.0808 LP  0  0  0  0  0  0  0  0  0  0  0  0  # atno 17343 bound_to 10162
  157.6776  130.9110  150.0189 LP  0  0  0  0  0  0  0  0  0  0  0  0  # atno 17370 bound_to 10713
  156.1401  130.3642  149.9596 LP  0  0  0  0  0  0  0  0  0  0  0  0  # atno 17371 bound_to 10713
  140.2686  134.8410  157.3826 LP  0  0  0  0  0  0  0  0  0  0  0  0  # atno 17394 bound_to 11000
  140.1542  134.4810  155.7939 LP  0  0  0  0  0  0  0  0  0  0  0  0  # atno 17395 bound_to 11000

$$$$
