AV-unprocessed.smi:2014|AV-procd|sdf|8162|dock5
  -GOLD-   2272010413D 1   1.00000     0.00000
 Structure written by MMmdl.
 46 48  0  0  0  0  0  0  0  0  1 V2000
  143.1934  135.0319  161.7222 C   0  0  0  0  0  0  0  0  0  0  0  0
  144.6106  134.9657  162.3088 C   0  0  2  0  0  0  0  0  0  0  0  0
  145.4066  136.2502  162.0064 C   0  0  0  0  0  0  0  0  0  0  0  0
  146.8363  136.1853  162.5763 C   0  0  0  0  0  0  0  0  0  0  0  0
  147.6033  134.9427  162.0839 C   0  0  2  0  0  0  0  0  0  0  0  0
  147.8991  135.0743  160.6588 N   0  0  0  0  0  0  0  0  0  0  0  0
  148.2972  136.1950  160.0389 C   0  0  0  0  0  0  0  0  0  0  0  0
  148.4125  137.2812  160.6070 O   0  0  0  0  0  0  0  0  0  0  0  0
  148.6054  136.0638  158.5419 C   0  0  0  0  0  0  0  0  0  0  0  0
  149.1831  137.3042  157.9822 N   0  0  0  0  0  0  0  0  0  0  0  0
  150.4698  137.7020  158.4281 C   0  0  0  0  0  0  0  0  0  0  0  0
  151.0999  137.0199  159.2388 O   0  0  0  0  0  0  0  0  0  0  0  0
  150.9669  138.9593  157.8748 C   0  0  0  0  0  0  0  0  0  0  0  0
  152.2429  139.4081  158.3247 C   0  0  0  0  0  0  0  0  0  0  0  0
  153.2887  139.7626  158.6715 N   0  0  0  0  0  0  0  0  0  0  0  0
  150.2392  139.6610  156.9816 C   0  0  0  0  0  0  0  0  0  0  0  0
  149.0079  139.2366  156.5315 N   0  0  0  0  0  0  0  0  0  0  0  0
  148.1843  140.0740  155.7055 C   0  0  0  0  0  0  0  0  0  0  0  0
  148.5000  140.2455  154.2322 C   0  0  0  0  0  0  0  0  0  0  0  0
  148.7482  141.3818  155.1938 C   0  0  0  0  0  0  0  0  0  0  0  0
  148.4220  138.0669  157.0635 C   0  0  0  0  0  0  0  0  0  0  0  0
  147.2799  137.7253  156.7470 O   0  0  0  0  0  0  0  0  0  0  0  0
  146.7945  133.6611  162.3826 C   0  0  0  0  0  0  0  0  0  0  0  0
  145.3714  133.7258  161.8014 C   0  0  0  0  0  0  0  0  0  0  0  0
  143.2175  135.1121  160.6349 H   0  0  0  0  0  0  0  0  0  0  0  0
  142.6481  135.8936  162.1081 H   0  0  0  0  0  0  0  0  0  0  0  0
  142.6207  134.1399  161.9776 H   0  0  0  0  0  0  0  0  0  0  0  0
  144.5138  134.8789  163.3922 H   0  0  0  0  0  0  0  0  0  0  0  0
  145.4482  136.4119  160.9285 H   0  0  0  0  0  0  0  0  0  0  0  0
  144.8887  137.1142  162.4240 H   0  0  0  0  0  0  0  0  0  0  0  0
  147.3822  137.0936  162.3177 H   0  0  0  0  0  0  0  0  0  0  0  0
  146.7842  136.1647  163.6655 H   0  0  0  0  0  0  0  0  0  0  0  0
  148.5530  134.8935  162.6194 H   0  0  0  0  0  0  0  0  0  0  0  0
  147.8286  134.2326  160.1055 H   0  0  0  0  0  0  0  0  0  0  0  0
  149.2776  135.2208  158.3710 H   0  0  0  0  0  0  0  0  0  0  0  0
  147.6861  135.7761  158.0301 H   0  0  0  0  0  0  0  0  0  0  0  0
  150.6368  140.5899  156.5984 H   0  0  0  0  0  0  0  0  0  0  0  0
  147.1271  140.0844  155.9653 H   0  0  0  0  0  0  0  0  0  0  0  0
  149.3733  139.7362  153.8290 H   0  0  0  0  0  0  0  0  0  0  0  0
  147.6592  140.3399  153.5481 H   0  0  0  0  0  0  0  0  0  0  0  0
  148.0740  142.2345  155.1500 H   0  0  0  0  0  0  0  0  0  0  0  0
  149.7847  141.6196  155.4251 H   0  0  0  0  0  0  0  0  0  0  0  0
  147.3108  132.7792  162.0025 H   0  0  0  0  0  0  0  0  0  0  0  0
  146.7304  133.5255  163.4628 H   0  0  0  0  0  0  0  0  0  0  0  0
  144.8280  132.8198  162.0713 H   0  0  0  0  0  0  0  0  0  0  0  0
  145.4196  133.7392  160.7115 H   0  0  0  0  0  0  0  0  0  0  0  0
  1  2  1  0  0  0  0
  1 25  1  0  0  0  0
  1 26  1  0  0  0  0
  1 27  1  0  0  0  0
  2 24  1  0  0  0  0
  2  3  1  0  0  0  0
  2 28  1  0  0  0  0
  3  4  1  0  0  0  0
  3 29  1  0  0  0  0
  3 30  1  0  0  0  0
  4  5  1  0  0  0  0
  4 31  1  0  0  0  0
  4 32  1  0  0  0  0
  5  6  1  0  0  0  0
  5 23  1  0  0  0  0
  5 33  1  0  0  0  0
  6  7  1  0  0  0  0
  6 34  1  0  0  0  0
  7  8  2  0  0  0  0
  7  9  1  0  0  0  0
  9 10  1  0  0  0  0
  9 35  1  0  0  0  0
  9 36  1  0  0  0  0
 10 21  1  0  0  0  0
 10 11  1  0  0  0  0
 11 12  2  0  0  0  0
 11 13  1  0  0  0  0
 13 14  1  0  0  0  0
 13 16  2  0  0  0  0
 14 15  3  0  0  0  0
 16 17  1  0  0  0  0
 16 37  1  0  0  0  0
 17 18  1  0  0  0  0
 17 21  1  0  0  0  0
 18 20  1  0  0  0  0
 18 19  1  0  0  0  0
 18 38  1  0  0  0  0
 19 20  1  0  0  0  0
 19 39  1  0  0  0  0
 19 40  1  0  0  0  0
 20 41  1  0  0  0  0
 20 42  1  0  0  0  0
 21 22  2  0  0  0  0
 23 24  1  0  0  0  0
 23 43  1  0  0  0  0
 23 44  1  0  0  0  0
 24 45  1  0  0  0  0
 24 46  1  0  0  0  0
M  END
> <s_m_source_file>
AV-unprocessed.smi

> <i_m_source_file_index>
2014

> <i_lp_mmshare_version>
43012

> <i_f3d_flags>
0

> <s_epik_input>
W0NIM11bQ0BASF0xW0NIMl1bQ0gyXVtDQEhdKFtDSDJdW0NIMl0xKVtOSF1DKD1PKVtDSDJdbjJjKD1PKWMoQyNOKVtjSF1uKGMyPU8pW0NIXTNbQ0gyXVtDSDJdMw==

> <s_epik_cmdline>
J2VwaWtfcHl0aG9uJywgJy1waCcsICc3LjAnLCAnLXRuJywgJzgnLCAnLW1hJywgJzIwMCcsICctbWV0YWxfYmluZGluZycsICctaW1hZScsICc8aW5maWxlLm1hZT4nLCAnLW9tYWUnLCAnPG91dGZpbGUubWFlPic=

> <r_lp_tautomer_probability>
1

> <r_epik_Ionization_Penalty>
1.91358e-08

> <r_epik_Ionization_Penalty_Charging>
8.89021e-11

> <r_epik_Ionization_Penalty_Neutral>
1.90469e-08

> <r_epik_State_Penalty>
-0

> <r_epik_Charging_Adjusted_Penalty>
8.89021e-11

> <i_epik_Tot_Q>
0

> <i_epik_Tot_abs_Q>
0

> <r_epik_Metal_State_Penalty>
-0

> <b_epik_Metal_Only>
0

> <s_lp_Force_Field>
OPLS_2005

> <r_lp_Energy>
34.0364

> <b_lp_Chiralities_Consistent>
1

> <s_lp_Variant>
AV-unprocessed.smi:2014-2

> <Gold.Version>
5.8.1

> <Gold.Id.Protein>
6NUR|6NUR_protein|mol2

> <Gold.PLP.Fitness>
44.1426

> <Gold.PLP.PLP>
-35.5655

> <Gold.PLP.part.hbond>
-3.6008

> <Gold.PLP.part.metal>
0.0000

> <Gold.PLP.part.buried>
-4.2330

> <Gold.PLP.part.nonpolar>
-28.0033

> <Gold.PLP.part.repulsive>
0.0979

> <Gold.PLP.ligand.clash>
0.0000

> <Gold.PLP.ligand.torsion>
0.5050

> <Gold.PLP.Chemscore.Hbond>
3.1240

> <Gold.PLP.Chemscore.CHOScore>
0.0000

> <Gold.PLP.Chemscore.Metal>
0.0000

> <Gold.Chemscore.Hbonds>
donor molecule, donor type, donor heavy atom, donor atom, acceptor molecule, acceptor atom, score
      P1  H  6896  6908       L1    12  1.00
      P1  H  6931  6943       L1     8  0.74
      P1  H  6934  6947       L1     8  0.39
      P1  H  7997  8009       L1    15  0.81

> <Gold.PLP.Chemscore.Internal.Correction>
0.2150

> <Gold.Rescore>
     Score         DG    S(hbond)    S(metal)    S(lipo)     H(rot)  DE(clash)    DE(int)     intcor
     20.15     -21.28       3.24        0.00      79.90       1.70       0.57       0.57       ----

> <Gold.Chemscore.Fitness>
20.1475

> <Gold.Chemscore.DG>
-21.2829

> <Gold.Chemscore.ZeroCoef>
-5.4800

> <Gold.Chemscore.Hbond>
3.2384

> <Gold.Chemscore.Metal>
0.0000

> <Gold.Chemscore.Lipo>
79.9019

> <Gold.Chemscore.Internal_Hbond>
0.0000

> <Gold.Chemscore.DEClash>
0.5698

> <Gold.Chemscore.DEInternal>
0.5656

> <Gold.Chemscore.Rot>
1.7038

> <Gold.Chemscore.Internal.Correction>
   9.000000E+99

> <Gold.Chemscore.Hbonds>
donor molecule, donor type, donor heavy atom, donor atom, acceptor molecule, acceptor atom, score
      P1  H  6896  6908       L1    12  0.92
      P1  H  6931  6943       L1     8  0.74
      P1  H  6934  6947       L1     8  0.38
      P1  H  7997  8009       L1    15  0.68

> <Gold.Chemscore.Hbond.Weighted>
-10.8162

> <Gold.Chemscore.Metal.Weighted>
-0.0000

> <Gold.Chemscore.Lipo.Weighted>
-9.3485

> <Gold.Chemscore.Internal_Hbond.Weighted>
0.0000

> <Gold.Chemscore.DEClash.Weighted>
0.5698

> <Gold.Chemscore.DEInternal.Weighted>
0.5656

> <Gold.Chemscore.Rot.Weighted>
4.3618

> <Gold.Chemscore.Internal.Correction.Weighted>
   9.000000E+99

> <Gold.Protein.RotatedTorsions>
[ 6907 6896 6895 6894 ] final -123.59 input  -60.11 | X-H torsion
[ 7974 7965 7964 7962 ] final  -29.70 input  175.53 | X-H torsion
[ 8008 7997 7996 7995 ] final  150.89 input   59.86 | X-H torsion
[ 10167 10162 10161 10158 ] final  -89.87 input  -65.29 | X-H torsion
[ 10718 10713 10712 10709 ] final    6.59 input   66.30 | X-H torsion
[ 10763 10752 10751 10750 ] final  109.29 input  -60.55 | X-H torsion
[ 11005 11000 10999 10996 ] final -112.10 input  -57.11 | X-H torsion

> <Gold.Protein.ActiveResidues>
 VAL166  LYS551  ARG553  GLY616  TRP617  ASP618  TYR619  PRO620  LYS621  CYS622 
 ASP623  PHE694  ASN695  SER759  ASP760  ASP761  ALA762  ILE779  LEU786  VAL792 
 PHE793  MET794  SER795  GLU796  ALA797  LYS798  CYS799  TRP800  GLU811  SER814 

> <Gold.Protein.RotatedAtoms>
  150.8685  133.7539  159.2968 H   0  0  0  0  0  0  0  0  0  0  0  0  # atno 6907 bound_to 6896
  151.5158  135.1064  159.9875 H   0  0  0  0  0  0  0  0  0  0  0  0  # atno 6908 bound_to 6896
  152.4678  133.7918  159.6961 H   0  0  0  0  0  0  0  0  0  0  0  0  # atno 6909 bound_to 6896
  146.1197  140.5446  142.8741 H   0  0  0  0  0  0  0  0  0  0  0  0  # atno 7974 bound_to 7965
  156.2697  140.2062  156.6089 H   0  0  0  0  0  0  0  0  0  0  0  0  # atno 8008 bound_to 7997
  154.6847  140.0536  157.0326 H   0  0  0  0  0  0  0  0  0  0  0  0  # atno 8009 bound_to 7997
  155.0950  140.3200  155.4566 H   0  0  0  0  0  0  0  0  0  0  0  0  # atno 8010 bound_to 7997
  140.3605  143.2844  151.9619 H   0  0  0  0  0  0  0  0  0  0  0  0  # atno 10167 bound_to 10162
  156.9245  130.5803  149.5648 H   0  0  0  0  0  0  0  0  0  0  0  0  # atno 10718 bound_to 10713
  153.4327  135.3784  155.2180 H   0  0  0  0  0  0  0  0  0  0  0  0  # atno 10763 bound_to 10752
  154.8750  135.3844  154.4248 H   0  0  0  0  0  0  0  0  0  0  0  0  # atno 10764 bound_to 10752
  153.4783  135.7088  153.6016 H   0  0  0  0  0  0  0  0  0  0  0  0  # atno 10765 bound_to 10752
  141.0695  133.9403  157.2513 H   0  0  0  0  0  0  0  0  0  0  0  0  # atno 11005 bound_to 11000
  144.7586  140.5367  143.6752 LP  0  0  0  0  0  0  0  0  0  0  0  0  # atno 17320 bound_to 7965
  145.5492  139.1476  143.3404 LP  0  0  0  0  0  0  0  0  0  0  0  0  # atno 17321 bound_to 7965
  139.4814  144.5996  151.7628 LP  0  0  0  0  0  0  0  0  0  0  0  0  # atno 17342 bound_to 10162
  140.5131  144.0994  150.6001 LP  0  0  0  0  0  0  0  0  0  0  0  0  # atno 17343 bound_to 10162
  156.0476  130.5550  150.8915 LP  0  0  0  0  0  0  0  0  0  0  0  0  # atno 17370 bound_to 10713
  157.5887  131.0945  150.9155 LP  0  0  0  0  0  0  0  0  0  0  0  0  # atno 17371 bound_to 10713
  139.9509  135.0175  156.8991 LP  0  0  0  0  0  0  0  0  0  0  0  0  # atno 17394 bound_to 11000
  140.5703  134.0450  155.7428 LP  0  0  0  0  0  0  0  0  0  0  0  0  # atno 17395 bound_to 11000

$$$$
