AV-unprocessed.smi:199|AV-procd|sdf|1563|dock2
  -GOLD-   2262019433D 1   1.00000     0.00000
 Structure written by MMmdl.
 51 55  0  0  0  0  0  0  0  0  1 V2000
  152.2022  140.5718  158.3208 C   0  0  0  0  0  0  0  0  0  0  0  0
  151.4399  141.8297  158.7655 C   0  0  1  0  0  0  0  0  0  0  0  0
  152.2863  142.5577  159.6519 O   0  0  0  0  0  0  0  0  0  0  0  0
  152.0015  143.9397  159.5268 C   0  0  0  0  0  0  0  0  0  0  0  0
  151.8015  144.0964  158.0277 C   0  0  0  0  0  0  0  0  0  0  0  0
  151.0328  142.8334  157.6492 C   0  0  2  0  0  0  0  0  0  0  0  0
  149.6492  143.1057  157.8015 O   0  0  0  0  0  0  0  0  0  0  0  0
  151.2709  142.3748  156.1859 C   0  0  0  0  0  0  0  0  0  0  0  0
  150.2194  141.5088  155.6737 N   0  0  0  0  0  0  0  0  0  0  0  0
  149.0261  141.9048  155.1158 C   0  0  0  0  0  0  0  0  0  0  0  0
  148.2463  140.9342  154.7277 N   0  0  0  0  0  0  0  0  0  0  0  0
  148.9501  139.7759  155.0389 C   0  0  0  0  0  0  0  0  0  0  0  0
  148.7005  138.3790  154.8893 C   0  0  0  0  0  0  0  0  0  0  0  0
  147.5745  137.8468  154.3378 N   0  0  0  0  0  0  0  0  0  0  0  0
  146.6190  137.0910  155.1317 C   0  0  1  0  0  0  0  0  0  0  0  0
  145.8886  138.1703  155.9556 C   0  0  0  0  0  0  0  0  0  0  0  0
  145.8693  139.3456  154.9638 C   0  0  0  0  0  0  0  0  0  0  0  0
  146.5714  138.7193  153.7389 C   0  0  2  0  0  0  0  0  0  0  0  0
  145.5993  137.7231  153.0696 C   0  0  1  0  0  0  0  0  0  0  0  0
  145.9353  137.3721  151.6041 C   0  0  0  0  0  0  0  0  0  0  0  0
  146.3088  138.5022  150.8415 O   0  0  0  0  0  0  0  0  0  0  0  0
  145.6680  136.5391  154.0544 C   0  0  0  0  0  0  0  0  0  0  0  0
  149.6501  137.5269  155.3601 N   0  0  0  0  0  0  0  0  0  0  0  0
  150.7699  137.9942  155.9167 C   0  0  0  0  0  0  0  0  0  0  0  0
  151.1390  139.2605  156.1075 N   0  0  0  0  0  0  0  0  0  0  0  0
  150.1900  140.1253  155.6498 C   0  0  0  0  0  0  0  0  0  0  0  0
  151.6025  139.9592  157.6476 H   0  0  0  0  0  0  0  0  0  0  0  0
  152.4574  139.9538  159.1819 H   0  0  0  0  0  0  0  0  0  0  0  0
  153.1337  140.8257  157.8147 H   0  0  0  0  0  0  0  0  0  0  0  0
  150.5620  141.5152  159.3331 H   0  0  0  0  0  0  0  0  0  0  0  0
  151.0897  144.1829  160.0744 H   0  0  0  0  0  0  0  0  0  0  0  0
  152.8145  144.5557  159.9116 H   0  0  0  0  0  0  0  0  0  0  0  0
  151.2947  145.0227  157.7532 H   0  0  0  0  0  0  0  0  0  0  0  0
  152.7806  144.0977  157.5477 H   0  0  0  0  0  0  0  0  0  0  0  0
  149.3236  143.4642  156.9903 H   0  0  0  0  0  0  0  0  0  0  0  0
  151.3436  143.2361  155.5216 H   0  0  0  0  0  0  0  0  0  0  0  0
  152.2183  141.8406  156.1034 H   0  0  0  0  0  0  0  0  0  0  0  0
  148.7526  142.9434  155.0003 H   0  0  0  0  0  0  0  0  0  0  0  0
  147.0356  136.2905  155.7396 H   0  0  0  0  0  0  0  0  0  0  0  0
  144.8904  137.8578  156.2641 H   0  0  0  0  0  0  0  0  0  0  0  0
  146.4547  138.4310  156.8508 H   0  0  0  0  0  0  0  0  0  0  0  0
  144.8620  139.7006  154.7438 H   0  0  0  0  0  0  0  0  0  0  0  0
  146.4419  140.1868  155.3565 H   0  0  0  0  0  0  0  0  0  0  0  0
  146.9579  139.4615  153.0396 H   0  0  0  0  0  0  0  0  0  0  0  0
  144.5913  138.1401  153.0713 H   0  0  0  0  0  0  0  0  0  0  0  0
  146.7484  136.6463  151.5707 H   0  0  0  0  0  0  0  0  0  0  0  0
  145.0737  136.9042  151.1272 H   0  0  0  0  0  0  0  0  0  0  0  0
  145.5547  138.8015  150.3569 H   0  0  0  0  0  0  0  0  0  0  0  0
  146.0961  135.6519  153.5861 H   0  0  0  0  0  0  0  0  0  0  0  0
  144.6915  136.2659  154.4556 H   0  0  0  0  0  0  0  0  0  0  0  0
  151.4704  137.2464  156.2576 H   0  0  0  0  0  0  0  0  0  0  0  0
  1  2  1  0  0  0  0
  1 27  1  0  0  0  0
  1 28  1  0  0  0  0
  1 29  1  0  0  0  0
  2  6  1  0  0  0  0
  2  3  1  0  0  0  0
  2 30  1  0  0  0  0
  3  4  1  0  0  0  0
  4  5  1  0  0  0  0
  4 31  1  0  0  0  0
  4 32  1  0  0  0  0
  5  6  1  0  0  0  0
  5 33  1  0  0  0  0
  5 34  1  0  0  0  0
  6  7  1  0  0  0  0
  6  8  1  0  0  0  0
  7 35  1  0  0  0  0
  8  9  1  0  0  0  0
  8 36  1  0  0  0  0
  8 37  1  0  0  0  0
  9 26  1  0  0  0  0
  9 10  1  0  0  0  0
 10 11  2  0  0  0  0
 10 38  1  0  0  0  0
 11 12  1  0  0  0  0
 12 26  2  0  0  0  0
 12 13  1  0  0  0  0
 13 14  1  0  0  0  0
 13 23  2  0  0  0  0
 14 18  1  0  0  0  0
 14 15  1  0  0  0  0
 15 22  1  0  0  0  0
 15 16  1  0  0  0  0
 15 39  1  0  0  0  0
 16 17  1  0  0  0  0
 16 40  1  0  0  0  0
 16 41  1  0  0  0  0
 17 18  1  0  0  0  0
 17 42  1  0  0  0  0
 17 43  1  0  0  0  0
 18 19  1  0  0  0  0
 18 44  1  0  0  0  0
 19 20  1  0  0  0  0
 19 22  1  0  0  0  0
 19 45  1  0  0  0  0
 20 21  1  0  0  0  0
 20 46  1  0  0  0  0
 20 47  1  0  0  0  0
 21 48  1  0  0  0  0
 22 49  1  0  0  0  0
 22 50  1  0  0  0  0
 23 24  1  0  0  0  0
 24 25  2  0  0  0  0
 24 51  1  0  0  0  0
 25 26  1  0  0  0  0
M  END
> <s_m_source_file>
AV-unprocessed.smi

> <i_m_source_file_index>
199

> <i_lp_mmshare_version>
43012

> <i_f3d_flags>
0

> <s_epik_input>
W0NIMl0xW0NIMl1PW0NAQEhdKFtDSDNdKVtDQEBdMShbT0hdKVtDSDJdbihbY0hdbjIpYyhjMjMpbltjSF1uYzNOKFtDQEBIXTQ1KVtDQEhdKFtDSDJdW0NIMl00KVtDQEhdKFtDSDJdNSlbQ0gyXVtPSF0=

> <s_epik_cmdline>
J2VwaWtfcHl0aG9uJywgJy1waCcsICc3LjAnLCAnLXRuJywgJzgnLCAnLW1hJywgJzIwMCcsICctbWV0YWxfYmluZGluZycsICctaW1hZScsICc8aW5maWxlLm1hZT4nLCAnLW9tYWUnLCAnPG91dGZpbGUubWFlPic=

> <r_lp_tautomer_probability>
1

> <r_epik_Ionization_Penalty>
0.00583903

> <r_epik_Ionization_Penalty_Charging>
0

> <r_epik_Ionization_Penalty_Neutral>
0.00583903

> <r_epik_State_Penalty>
-0

> <r_epik_Charging_Adjusted_Penalty>
0

> <i_epik_Tot_Q>
0

> <i_epik_Tot_abs_Q>
0

> <r_epik_Metal_State_Penalty>
-0

> <b_epik_Metal_Only>
0

> <s_lp_Force_Field>
OPLS_2005

> <r_lp_Energy>
85.2134

> <b_lp_Chiralities_Consistent>
1

> <s_lp_Variant>
AV-unprocessed.smi:199-4

> <Gold.Version>
5.8.1

> <Gold.Id.Protein>
6NUR|6NUR_protein|mol2

> <Gold.PLP.Fitness>
42.5688

> <Gold.PLP.PLP>
-32.3051

> <Gold.PLP.part.hbond>
-3.1522

> <Gold.PLP.part.metal>
0.0000

> <Gold.PLP.part.buried>
-4.0094

> <Gold.PLP.part.nonpolar>
-26.0626

> <Gold.PLP.part.repulsive>
0.7412

> <Gold.PLP.ligand.clash>
0.0000

> <Gold.PLP.ligand.torsion>
0.8925

> <Gold.PLP.Chemscore.Hbond>
2.9920

> <Gold.PLP.Chemscore.CHOScore>
1.0000

> <Gold.PLP.Chemscore.Metal>
0.0000

> <Gold.Chemscore.Hbonds>
donor molecule, donor type, donor heavy atom, donor atom, acceptor molecule, acceptor atom, score
      L1  H     7    35       P1  8028  1.00
      L1  H    21    48       P1 10171  1.00
      P1  H  7954  7966       L1    21  0.60
      L1  C    10    38       P1  8028  0.63

> <Gold.PLP.Chemscore.Internal.Correction>
0.0728

> <Gold.Rescore>
     Score         DG    S(hbond)    S(metal)    S(lipo)     H(rot)  DE(clash)    DE(int)     intcor
      7.20     -13.67       1.96        0.00      81.36       3.07       2.83       3.63       ----

> <Gold.Chemscore.Fitness>
7.2047

> <Gold.Chemscore.DG>
-13.6728

> <Gold.Chemscore.ZeroCoef>
-5.4800

> <Gold.Chemscore.Hbond>
1.9582

> <Gold.Chemscore.Metal>
0.0000

> <Gold.Chemscore.Lipo>
81.3593

> <Gold.Chemscore.Internal_Hbond>
0.0000

> <Gold.Chemscore.DEClash>
2.8345

> <Gold.Chemscore.DEInternal>
3.6336

> <Gold.Chemscore.Rot>
3.0729

> <Gold.Chemscore.Internal.Correction>
   9.000000E+99

> <Gold.Chemscore.Hbonds>
donor molecule, donor type, donor heavy atom, donor atom, acceptor molecule, acceptor atom, score
      L1  H     7    35       P1  8028  0.88
      L1  H    21    48       P1 10171  0.96
      P1  H  7954  7966       L1    21  0.26

> <Gold.Chemscore.Hbond.Weighted>
-6.5405

> <Gold.Chemscore.Metal.Weighted>
-0.0000

> <Gold.Chemscore.Lipo.Weighted>
-9.5190

> <Gold.Chemscore.Internal_Hbond.Weighted>
0.0000

> <Gold.Chemscore.DEClash.Weighted>
2.8345

> <Gold.Chemscore.DEInternal.Weighted>
3.6336

> <Gold.Chemscore.Rot.Weighted>
7.8667

> <Gold.Chemscore.Internal.Correction.Weighted>
   9.000000E+99

> <Gold.Protein.RotatedTorsions>
[ 6907 6896 6895 6894 ] final  163.64 input  -60.11 | X-H torsion
[ 7974 7965 7964 7962 ] final   37.47 input  175.53 | X-H torsion
[ 8008 7997 7996 7995 ] final  -36.15 input   59.86 | X-H torsion
[ 10167 10162 10161 10158 ] final  -32.60 input  -65.29 | X-H torsion
[ 10718 10713 10712 10709 ] final  112.16 input   66.30 | X-H torsion
[ 10763 10752 10751 10750 ] final -122.44 input  -60.55 | X-H torsion
[ 11005 11000 10999 10996 ] final   36.55 input  -57.11 | X-H torsion

> <Gold.Protein.ActiveResidues>
 VAL166  LYS551  ARG553  GLY616  TRP617  ASP618  TYR619  PRO620  LYS621  CYS622 
 ASP623  PHE694  ASN695  SER759  ASP760  ASP761  ALA762  ILE779  LEU786  VAL792 
 PHE793  MET794  SER795  GLU796  ALA797  LYS798  CYS799  TRP800  GLU811  SER814 

> <Gold.Protein.RotatedAtoms>
  151.9221  133.3588  159.3900 H   0  0  0  0  0  0  0  0  0  0  0  0  # atno 6907 bound_to 6896
  150.7035  134.4624  159.5396 H   0  0  0  0  0  0  0  0  0  0  0  0  # atno 6908 bound_to 6896
  152.2250  134.8377  160.0532 H   0  0  0  0  0  0  0  0  0  0  0  0  # atno 6909 bound_to 6896
  146.1135  139.5890  142.9337 H   0  0  0  0  0  0  0  0  0  0  0  0  # atno 7974 bound_to 7965
  154.4079  140.1638  156.2328 H   0  0  0  0  0  0  0  0  0  0  0  0  # atno 8008 bound_to 7997
  155.9268  140.3417  155.6194 H   0  0  0  0  0  0  0  0  0  0  0  0  # atno 8009 bound_to 7997
  155.7155  140.0762  157.2343 H   0  0  0  0  0  0  0  0  0  0  0  0  # atno 8010 bound_to 7997
  140.7218  143.3682  151.1829 H   0  0  0  0  0  0  0  0  0  0  0  0  # atno 10167 bound_to 10162
  157.6407  131.0963  150.6854 H   0  0  0  0  0  0  0  0  0  0  0  0  # atno 10718 bound_to 10713
  154.8689  135.4132  154.2783 H   0  0  0  0  0  0  0  0  0  0  0  0  # atno 10763 bound_to 10752
  153.3680  135.7006  153.6665 H   0  0  0  0  0  0  0  0  0  0  0  0  # atno 10764 bound_to 10752
  153.5539  135.3623  155.2743 H   0  0  0  0  0  0  0  0  0  0  0  0  # atno 10765 bound_to 10752
  140.2314  134.3522  155.7962 H   0  0  0  0  0  0  0  0  0  0  0  0  # atno 11005 bound_to 11000
  145.5615  141.0404  143.2223 LP  0  0  0  0  0  0  0  0  0  0  0  0  # atno 17320 bound_to 7965
  144.7532  139.7141  143.7264 LP  0  0  0  0  0  0  0  0  0  0  0  0  # atno 17321 bound_to 7965
  139.7248  143.9165  152.2999 LP  0  0  0  0  0  0  0  0  0  0  0  0  # atno 17342 bound_to 10162
  139.8935  144.6952  150.8744 LP  0  0  0  0  0  0  0  0  0  0  0  0  # atno 17343 bound_to 10162
  156.7178  130.4671  149.5530 LP  0  0  0  0  0  0  0  0  0  0  0  0  # atno 17370 bound_to 10713
  156.1686  130.6422  151.0809 LP  0  0  0  0  0  0  0  0  0  0  0  0  # atno 17371 bound_to 10713
  141.2217  133.7248  156.8738 LP  0  0  0  0  0  0  0  0  0  0  0  0  # atno 17394 bound_to 11000
  140.1746  134.9076  157.2875 LP  0  0  0  0  0  0  0  0  0  0  0  0  # atno 17395 bound_to 11000

$$$$
