AV-unprocessed.smi:160|AV-procd|sdf|1362|dock9
  -GOLD-   2262019 73D 1   1.00000     0.00000
 Structure written by MMmdl.
 28 29  0  0  0  0  0  0  0  0  2 V2000
  151.9024  137.2962  153.9486 N   0  5  0  0  0  0  0  0  0  0  0  0
  152.0421  138.4197  154.6857 C   0  0  0  0  0  0  0  0  0  0  0  0
  153.0407  138.7516  155.3238 O   0  0  0  0  0  0  0  0  0  0  0  0
  150.8284  139.3186  154.6956 C   0  0  0  0  0  0  0  0  0  0  0  0
  150.9041  140.5862  155.2045 N   0  0  0  0  0  0  0  0  0  0  0  0
  149.6496  140.9689  155.0086 C   0  0  0  0  0  0  0  0  0  0  0  0
  148.8740  140.0375  154.4471 N   0  0  0  0  0  0  0  0  0  0  0  0
  147.4275  140.0936  154.0681 C   0  0  1  0  0  0  0  0  0  0  0  0
  147.3094  139.5780  152.7761 O   0  0  0  0  0  0  0  0  0  0  0  0
  146.2545  138.6208  152.7164 C   0  0  1  0  0  0  0  0  0  0  0  0
  146.4934  137.6081  151.5825 C   0  0  0  0  0  0  0  0  0  0  0  0
  146.6977  138.2843  150.3602 O   0  0  0  0  0  0  0  0  0  0  0  0
  146.2030  138.0309  154.1329 C   0  0  1  0  0  0  0  0  0  0  0  0
  147.1464  136.9845  154.2856 O   0  0  0  0  0  0  0  0  0  0  0  0
  146.5266  139.2478  154.9911 C   0  0  1  0  0  0  0  0  0  0  0  0
  147.0666  138.9182  156.2605 O   0  0  0  0  0  0  0  0  0  0  0  0
  149.6369  138.9398  154.2226 N   0  0  0  0  0  0  0  0  0  0  0  0
  147.1819  141.1560  154.0892 H   0  0  0  0  0  0  0  0  0  0  0  0
  145.3201  139.1595  152.5465 H   0  0  0  0  0  0  0  0  0  0  0  0
  145.2168  137.6293  154.3675 H   0  0  0  0  0  0  0  0  0  0  0  0
  145.6102  139.8187  155.1467 H   0  0  0  0  0  0  0  0  0  0  0  0
  151.5025  137.3774  153.0061 H   0  0  0  0  0  0  0  0  0  0  0  0
  149.2871  141.9480  155.2850 H   0  0  0  0  0  0  0  0  0  0  0  0
  147.3419  136.9594  151.8033 H   0  0  0  0  0  0  0  0  0  0  0  0
  145.6185  136.9694  151.4574 H   0  0  0  0  0  0  0  0  0  0  0  0
  145.8605  138.5859  150.0425 H   0  0  0  0  0  0  0  0  0  0  0  0
  147.3161  136.8680  155.2082 H   0  0  0  0  0  0  0  0  0  0  0  0
  147.9706  139.1919  156.2842 H   0  0  0  0  0  0  0  0  0  0  0  0
  1  2  1  0  0  0  0
  1 22  1  0  0  0  0
  2  3  2  0  0  0  0
  2  4  1  0  0  0  0
  4 17  2  0  0  0  0
  4  5  1  0  0  0  0
  5  6  2  0  0  0  0
  6  7  1  0  0  0  0
  6 23  1  0  0  0  0
  7  8  1  0  0  0  0
  7 17  1  0  0  0  0
  8 18  1  0  0  0  0
  8 15  1  0  0  0  0
  8  9  1  0  0  0  0
  9 10  1  0  0  0  0
 10 19  1  0  0  0  0
 10 11  1  0  0  0  0
 10 13  1  0  0  0  0
 11 12  1  0  0  0  0
 11 24  1  0  0  0  0
 11 25  1  0  0  0  0
 12 26  1  0  0  0  0
 13 20  1  0  0  0  0
 13 14  1  0  0  0  0
 13 15  1  0  0  0  0
 14 27  1  0  0  0  0
 15 21  1  0  0  0  0
 15 16  1  0  0  0  0
 16 28  1  0  0  0  0
M  CHG  1   1  -1
M  END
> <s_m_source_file>
AV-unprocessed.smi

> <i_m_source_file_index>
160

> <i_lp_mmshare_version>
43012

> <i_f3d_flags>
0

> <s_epik_input>
W05IMl1DKD1PKWMxbltjSF1uKG4xKVtDQEBIXTJPW0NASF0oW0NIMl1bT0hdKVtDQEBIXShbT0hdKVtDQEhdMltPSF0=

> <s_epik_cmdline>
J2VwaWtfcHl0aG9uJywgJy1waCcsICc3LjAnLCAnLXRuJywgJzgnLCAnLW1hJywgJzIwMCcsICctbWV0YWxfYmluZGluZycsICctaW1hZScsICc8aW5maWxlLm1hZT4nLCAnLW9tYWUnLCAnPG91dGZpbGUubWFlPic=

> <r_lp_tautomer_probability>
1

> <r_epik_Ionization_Penalty>
6.6993

> <r_epik_Ionization_Penalty_Charging>
6.6993

> <r_epik_Ionization_Penalty_Neutral>
6.01698e-06

> <r_epik_State_Penalty>
6.69929

> <r_epik_Charging_Adjusted_Penalty>
13.3986

> <i_epik_Tot_Q>
-1

> <i_epik_Tot_abs_Q>
1

> <r_epik_Metal_State_Penalty>
2.62798

> <b_epik_Metal_Only>
1

> <s_epik_Chemistry_Notes>
This compound contains an acetal/aminal-like group ( X-CH(R)-Y where X, Y are N, S, or O) that may be acid/base labile, releasing an aldehyde.

> <s_lp_Force_Field>
OPLS_2005

> <r_lp_Energy>
51.4857

> <b_lp_Chiralities_Consistent>
1

> <s_lp_Variant>
AV-unprocessed.smi:160-20

> <Gold.Version>
5.8.1

> <Gold.Id.Protein>
6NUR|6NUR_protein|mol2

> <Gold.PLP.Fitness>
42.0908

> <Gold.PLP.PLP>
-23.9587

> <Gold.PLP.part.hbond>
-6.5634

> <Gold.PLP.part.metal>
0.0000

> <Gold.PLP.part.buried>
-0.6576

> <Gold.PLP.part.nonpolar>
-17.5977

> <Gold.PLP.part.repulsive>
1.5867

> <Gold.PLP.ligand.clash>
0.0000

> <Gold.PLP.ligand.torsion>
0.3912

> <Gold.PLP.Chemscore.Hbond>
5.9351

> <Gold.PLP.Chemscore.CHOScore>
0.3682

> <Gold.PLP.Chemscore.Metal>
0.0000

> <Gold.Chemscore.Hbonds>
donor molecule, donor type, donor heavy atom, donor atom, acceptor molecule, acceptor atom, score
      L1  H     1    22       P1  7949  0.58
      L1  H    12    26       P1 10171  1.00
      P1  H  7954  7966       L1    12  0.80
      P1  H  7989  7998       L1     5  0.05
      P1  H  7997  8008       L1     3  0.86
      P1  H 10752 10765       L1     1  2.00
      L1  C     6    23       P1  8028  0.28

> <Gold.PLP.Chemscore.Internal.Correction>
0.0045

> <Gold.Rescore>
     Score         DG    S(hbond)    S(metal)    S(lipo)     H(rot)  DE(clash)    DE(int)     intcor
      8.94      -9.80       3.87        0.00      14.75       4.04       0.39       0.47       ----

> <Gold.Chemscore.Fitness>
8.9395

> <Gold.Chemscore.DG>
-9.7962

> <Gold.Chemscore.ZeroCoef>
-5.4800

> <Gold.Chemscore.Hbond>
3.8724

> <Gold.Chemscore.Metal>
0.0000

> <Gold.Chemscore.Lipo>
14.7467

> <Gold.Chemscore.Internal_Hbond>
0.0000

> <Gold.Chemscore.DEClash>
0.3902

> <Gold.Chemscore.DEInternal>
0.4665

> <Gold.Chemscore.Rot>
4.0403

> <Gold.Chemscore.Internal.Correction>
   9.000000E+99

> <Gold.Chemscore.Hbonds>
donor molecule, donor type, donor heavy atom, donor atom, acceptor molecule, acceptor atom, score
      L1  H     1    22       P1  7949  0.50
      L1  H    12    26       P1 10171  0.97
      P1  H  7954  7966       L1    12  0.43
      P1  H  7997  8008       L1     3  0.82
      P1  H 10752 10765       L1     1  0.67

> <Gold.Chemscore.Hbond.Weighted>
-12.9339

> <Gold.Chemscore.Metal.Weighted>
-0.0000

> <Gold.Chemscore.Lipo.Weighted>
-1.7254

> <Gold.Chemscore.Internal_Hbond.Weighted>
0.0000

> <Gold.Chemscore.DEClash.Weighted>
0.3902

> <Gold.Chemscore.DEInternal.Weighted>
0.4665

> <Gold.Chemscore.Rot.Weighted>
10.3431

> <Gold.Chemscore.Internal.Correction.Weighted>
   9.000000E+99

> <Gold.Protein.RotatedTorsions>
[ 6907 6896 6895 6894 ] final  -54.57 input  -60.11 | X-H torsion
[ 7974 7965 7964 7962 ] final   -4.01 input  175.53 | X-H torsion
[ 8008 7997 7996 7995 ] final  -33.29 input   59.86 | X-H torsion
[ 10167 10162 10161 10158 ] final   94.53 input  -65.29 | X-H torsion
[ 10718 10713 10712 10709 ] final  -96.77 input   66.30 | X-H torsion
[ 10763 10752 10751 10750 ] final  144.88 input  -60.55 | X-H torsion
[ 11005 11000 10999 10996 ] final -145.91 input  -57.11 | X-H torsion

> <Gold.Protein.ActiveResidues>
 VAL166  LYS551  ARG553  GLY616  TRP617  ASP618  TYR619  PRO620  LYS621  CYS622 
 ASP623  PHE694  ASN695  SER759  ASP760  ASP761  ALA762  ILE779  LEU786  VAL792 
 PHE793  MET794  SER795  GLU796  ALA797  LYS798  CYS799  TRP800  GLU811  SER814 

> <Gold.Protein.RotatedAtoms>
  150.8327  134.7586  159.6866 H   0  0  0  0  0  0  0  0  0  0  0  0  # atno 6907 bound_to 6896
  152.4428  134.5552  159.9888 H   0  0  0  0  0  0  0  0  0  0  0  0  # atno 6908 bound_to 6896
  151.5709  133.3352  159.3025 H   0  0  0  0  0  0  0  0  0  0  0  0  # atno 6909 bound_to 6896
  146.2380  140.1807  142.8332 H   0  0  0  0  0  0  0  0  0  0  0  0  # atno 7974 bound_to 7965
  154.4153  140.1715  156.1864 H   0  0  0  0  0  0  0  0  0  0  0  0  # atno 8008 bound_to 7997
  155.9640  140.3391  155.6492 H   0  0  0  0  0  0  0  0  0  0  0  0  # atno 8009 bound_to 7997
  155.6712  140.0712  157.2510 H   0  0  0  0  0  0  0  0  0  0  0  0  # atno 8010 bound_to 7997
  139.8075  144.6788  150.9684 H   0  0  0  0  0  0  0  0  0  0  0  0  # atno 10167 bound_to 10162
  156.0069  130.5165  150.6275 H   0  0  0  0  0  0  0  0  0  0  0  0  # atno 10718 bound_to 10713
  153.9962  135.2927  155.3407 H   0  0  0  0  0  0  0  0  0  0  0  0  # atno 10763 bound_to 10752
  154.7186  135.5119  153.8780 H   0  0  0  0  0  0  0  0  0  0  0  0  # atno 10764 bound_to 10752
  153.0787  135.6672  154.0208 H   0  0  0  0  0  0  0  0  0  0  0  0  # atno 10765 bound_to 10752
  140.7874  134.3008  157.5025 H   0  0  0  0  0  0  0  0  0  0  0  0  # atno 11005 bound_to 11000
  144.9937  140.8570  143.5324 LP  0  0  0  0  0  0  0  0  0  0  0  0  # atno 17320 bound_to 7965
  145.1816  139.2348  143.5289 LP  0  0  0  0  0  0  0  0  0  0  0  0  # atno 17321 bound_to 7965
  140.7819  143.4219  151.0829 LP  0  0  0  0  0  0  0  0  0  0  0  0  # atno 17342 bound_to 10162
  139.7887  143.8250  152.3148 LP  0  0  0  0  0  0  0  0  0  0  0  0  # atno 17343 bound_to 10162
  157.4079  131.0819  151.1248 LP  0  0  0  0  0  0  0  0  0  0  0  0  # atno 17370 bound_to 10713
  157.1889  130.6343  149.5697 LP  0  0  0  0  0  0  0  0  0  0  0  0  # atno 17371 bound_to 10713
  139.8735  134.9354  156.3634 LP  0  0  0  0  0  0  0  0  0  0  0  0  # atno 17394 bound_to 11000
  140.9423  133.7506  156.0162 LP  0  0  0  0  0  0  0  0  0  0  0  0  # atno 17395 bound_to 11000

$$$$
