AV-unprocessed.smi:282|AV-procd|sdf|2117|dock2
  -GOLD-   2262021413D 1   1.00000     0.00000
 Structure written by MMmdl.
 65 69  0  0  0  0  0  0  0  0  2 V2000
  146.9692  141.9909  155.2404 C   0  0  0  0  0  0  0  0  0  0  0  0
  148.3870  141.4517  155.4702 C   0  0  0  0  0  0  0  0  0  0  0  0
  148.6089  140.9025  156.8965 C   0  0  2  0  0  0  0  0  0  0  0  0
  148.4036  141.9902  157.9718 C   0  0  0  0  0  0  0  0  0  0  0  0
  149.5112  142.9808  157.9813 N   0  3  1  0  0  0  0  0  0  0  0  0
  149.2813  144.0616  158.9737 C   0  0  0  0  0  0  0  0  0  0  0  0
  150.3715  145.1411  158.8859 C   0  0  0  0  0  0  0  0  0  0  0  0
  151.7645  144.5250  159.0620 C   0  0  0  0  0  0  0  0  0  0  0  0
  151.9713  143.4003  158.0394 C   0  0  0  0  0  0  0  0  0  0  0  0
  150.8525  142.3446  158.1326 C   0  0  2  0  0  0  0  0  0  0  0  0
  151.0564  141.2360  157.0779 C   0  0  0  0  0  0  0  0  0  0  0  0
  149.9338  140.2962  157.0588 N   0  0  0  0  0  0  0  0  0  0  0  0
  150.0016  139.1786  157.8331 C   0  0  0  0  0  0  0  0  0  0  0  0
  151.2119  138.7172  158.2478 N   0  0  0  0  0  0  0  0  0  0  0  0
  151.2975  137.6198  159.0046 C   0  0  0  0  0  0  0  0  0  0  0  0
  150.3143  136.8407  159.4560 N   0  0  0  0  0  0  0  0  0  0  0  0
  149.0951  137.2934  159.0473 C   0  0  0  0  0  0  0  0  0  0  0  0
  148.8517  138.4402  158.2380 C   0  0  0  0  0  0  0  0  0  0  0  0
  147.4878  138.5691  158.0063 N   0  0  0  0  0  0  0  0  0  0  0  0
  146.9565  137.5642  158.6463 C   0  0  0  0  0  0  0  0  0  0  0  0
  147.8475  136.7548  159.3148 N   0  0  0  0  0  0  0  0  0  0  0  0
  147.5256  135.5650  160.0919 C   0  0  0  0  0  0  0  0  0  0  0  0
  146.4513  135.7691  161.2080 C   0  0  0  0  0  0  0  0  0  0  0  0
  146.7189  137.0703  162.0107 C   0  0  0  0  0  0  0  0  0  0  0  0
  147.9904  137.0668  162.6290 O   0  0  0  0  0  0  0  0  0  0  0  0
  145.0361  135.8390  160.5808 C   0  0  0  0  0  0  0  0  0  0  0  0
  144.5504  134.4786  160.0479 C   0  0  0  0  0  0  0  0  0  0  0  0
  144.5780  133.5106  161.0888 O   0  0  0  0  0  0  0  0  0  0  0  0
  145.8856  133.2895  161.6014 C   0  0  0  0  0  0  0  0  0  0  0  0
  146.4347  134.5912  162.2143 C   0  0  0  0  0  0  0  0  0  0  0  0
  146.8603  142.3752  154.2261 H   0  0  0  0  0  0  0  0  0  0  0  0
  146.7420  142.8051  155.9288 H   0  0  0  0  0  0  0  0  0  0  0  0
  146.2180  141.2134  155.3810 H   0  0  0  0  0  0  0  0  0  0  0  0
  148.6126  140.6922  154.7216 H   0  0  0  0  0  0  0  0  0  0  0  0
  149.0913  142.2640  155.2882 H   0  0  0  0  0  0  0  0  0  0  0  0
  147.8331  140.1569  157.0666 H   0  0  0  0  0  0  0  0  0  0  0  0
  147.4516  142.4985  157.8130 H   0  0  0  0  0  0  0  0  0  0  0  0
  148.3447  141.5210  158.9554 H   0  0  0  0  0  0  0  0  0  0  0  0
  148.3061  144.5174  158.7974 H   0  0  0  0  0  0  0  0  0  0  0  0
  149.2549  143.6355  159.9781 H   0  0  0  0  0  0  0  0  0  0  0  0
  150.3119  145.6471  157.9214 H   0  0  0  0  0  0  0  0  0  0  0  0
  150.2028  145.9038  159.6469 H   0  0  0  0  0  0  0  0  0  0  0  0
  152.5334  145.2889  158.9437 H   0  0  0  0  0  0  0  0  0  0  0  0
  151.8694  144.1295  160.0732 H   0  0  0  0  0  0  0  0  0  0  0  0
  151.9981  143.8243  157.0344 H   0  0  0  0  0  0  0  0  0  0  0  0
  152.9419  142.9305  158.2026 H   0  0  0  0  0  0  0  0  0  0  0  0
  150.8905  141.8920  159.1247 H   0  0  0  0  0  0  0  0  0  0  0  0
  151.1477  141.6795  156.0864 H   0  0  0  0  0  0  0  0  0  0  0  0
  151.9995  140.7144  157.2471 H   0  0  0  0  0  0  0  0  0  0  0  0
  152.2966  137.3222  159.2874 H   0  0  0  0  0  0  0  0  0  0  0  0
  145.8912  137.3851  158.6487 H   0  0  0  0  0  0  0  0  0  0  0  0
  147.1873  134.8001  159.3918 H   0  0  0  0  0  0  0  0  0  0  0  0
  148.4568  135.1787  160.5039 H   0  0  0  0  0  0  0  0  0  0  0  0
  146.6703  137.9409  161.3556 H   0  0  0  0  0  0  0  0  0  0  0  0
  145.9570  137.2254  162.7751 H   0  0  0  0  0  0  0  0  0  0  0  0
  148.2690  136.1702  162.7370 H   0  0  0  0  0  0  0  0  0  0  0  0
  144.3215  136.1826  161.3298 H   0  0  0  0  0  0  0  0  0  0  0  0
  145.0080  136.5772  159.7785 H   0  0  0  0  0  0  0  0  0  0  0  0
  143.5262  134.5683  159.6859 H   0  0  0  0  0  0  0  0  0  0  0  0
  145.1501  134.1414  159.2020 H   0  0  0  0  0  0  0  0  0  0  0  0
  145.8313  132.5150  162.3665 H   0  0  0  0  0  0  0  0  0  0  0  0
  146.5363  132.9043  160.8164 H   0  0  0  0  0  0  0  0  0  0  0  0
  147.4250  134.4216  162.6354 H   0  0  0  0  0  0  0  0  0  0  0  0
  145.7993  134.8499  163.0627 H   0  0  0  0  0  0  0  0  0  0  0  0
  149.5060  143.4193  157.0717 H   0  0  0  0  0  0  0  0  0  0  0  0
  1  2  1  0  0  0  0
  1 31  1  0  0  0  0
  1 32  1  0  0  0  0
  1 33  1  0  0  0  0
  2  3  1  0  0  0  0
  2 34  1  0  0  0  0
  2 35  1  0  0  0  0
  3 12  1  0  0  0  0
  3  4  1  0  0  0  0
  3 36  1  0  0  0  0
  4  5  1  0  0  0  0
  4 37  1  0  0  0  0
  4 38  1  0  0  0  0
  5 10  1  0  0  0  0
  5  6  1  0  0  0  0
  5 65  1  0  0  0  0
  6  7  1  0  0  0  0
  6 39  1  0  0  0  0
  6 40  1  0  0  0  0
  7  8  1  0  0  0  0
  7 41  1  0  0  0  0
  7 42  1  0  0  0  0
  8  9  1  0  0  0  0
  8 43  1  0  0  0  0
  8 44  1  0  0  0  0
  9 10  1  0  0  0  0
  9 45  1  0  0  0  0
  9 46  1  0  0  0  0
 10 11  1  0  0  0  0
 10 47  1  0  0  0  0
 11 12  1  0  0  0  0
 11 48  1  0  0  0  0
 11 49  1  0  0  0  0
 12 13  1  0  0  0  0
 13 18  1  0  0  0  0
 13 14  2  0  0  0  0
 14 15  1  0  0  0  0
 15 16  2  0  0  0  0
 15 50  1  0  0  0  0
 16 17  1  0  0  0  0
 17 21  1  0  0  0  0
 17 18  2  0  0  0  0
 18 19  1  0  0  0  0
 19 20  2  0  0  0  0
 20 21  1  0  0  0  0
 20 51  1  0  0  0  0
 21 22  1  0  0  0  0
 22 23  1  0  0  0  0
 22 52  1  0  0  0  0
 22 53  1  0  0  0  0
 23 30  1  0  0  0  0
 23 24  1  0  0  0  0
 23 26  1  0  0  0  0
 24 25  1  0  0  0  0
 24 54  1  0  0  0  0
 24 55  1  0  0  0  0
 25 56  1  0  0  0  0
 26 27  1  0  0  0  0
 26 57  1  0  0  0  0
 26 58  1  0  0  0  0
 27 28  1  0  0  0  0
 27 59  1  0  0  0  0
 27 60  1  0  0  0  0
 28 29  1  0  0  0  0
 29 30  1  0  0  0  0
 29 61  1  0  0  0  0
 29 62  1  0  0  0  0
 30 63  1  0  0  0  0
 30 64  1  0  0  0  0
M  CHG  1   5   1
M  END
> <s_m_source_file>
AV-unprocessed.smi

> <i_m_source_file_index>
282

> <i_lp_mmshare_version>
43012

> <i_f3d_flags>
0

> <s_epik_input>
W0NIMl0xW0NIMl1bQ0gyXVtDSDJdW0NAQEhdKE4xMilbQ0gyXU4oW0NAQEhdKFtDSDJdMilbQ0gyXVtDSDNdKWMobltjSF1uMyljKGMzNCluW2NIXW40W0NIMl1DNShbQ0gyXVtPSF0pW0NIMl1bQ0gyXU9bQ0gyXVtDSDJdNQ==

> <s_epik_cmdline>
J2VwaWtfcHl0aG9uJywgJy1waCcsICc3LjAnLCAnLXRuJywgJzgnLCAnLW1hJywgJzIwMCcsICctbWV0YWxfYmluZGluZycsICctaW1hZScsICc8aW5maWxlLm1hZT4nLCAnLW9tYWUnLCAnPG91dGZpbGUubWFlPic=

> <r_lp_tautomer_probability>
1

> <r_epik_Ionization_Penalty>
0.00308583

> <r_epik_Ionization_Penalty_Charging>
0.00300384

> <r_epik_Ionization_Penalty_Neutral>
8.19894e-05

> <r_epik_State_Penalty>
-0

> <r_epik_Charging_Adjusted_Penalty>
0.00300384

> <i_epik_Tot_Q>
1

> <i_epik_Tot_abs_Q>
1

> <r_epik_Metal_State_Penalty>
-0

> <b_epik_Metal_Only>
0

> <s_lp_Force_Field>
OPLS_2005

> <r_lp_Energy>
57.6145

> <b_lp_Chiralities_Consistent>
1

> <s_lp_Variant>
AV-unprocessed.smi:282-1

> <Gold.Version>
5.8.1

> <Gold.Id.Protein>
6NUR|6NUR_protein|mol2

> <Gold.PLP.Fitness>
54.5197

> <Gold.PLP.PLP>
-43.6546

> <Gold.PLP.part.hbond>
-3.2063

> <Gold.PLP.part.metal>
0.0000

> <Gold.PLP.part.buried>
-1.8703

> <Gold.PLP.part.nonpolar>
-37.3269

> <Gold.PLP.part.repulsive>
0.1059

> <Gold.PLP.ligand.clash>
0.0000

> <Gold.PLP.ligand.torsion>
0.3798

> <Gold.PLP.Chemscore.Hbond>
3.7660

> <Gold.PLP.Chemscore.CHOScore>
0.0000

> <Gold.PLP.Chemscore.Metal>
0.0000

> <Gold.Chemscore.Hbonds>
donor molecule, donor type, donor heavy atom, donor atom, acceptor molecule, acceptor atom, score
      L1  H     5    65       P1  8028  2.00
      P1  H  6896  6907       L1    16  1.00
      P1  H  6931  6943       L1    25  0.91

> <Gold.PLP.Chemscore.Internal.Correction>
0.3267

> <Gold.Rescore>
     Score         DG    S(hbond)    S(metal)    S(lipo)     H(rot)  DE(clash)    DE(int)     intcor
     18.48     -20.46       2.45        0.00     106.27       2.20       0.18       1.80       ----

> <Gold.Chemscore.Fitness>
18.4850

> <Gold.Chemscore.DG>
-20.4644

> <Gold.Chemscore.ZeroCoef>
-5.4800

> <Gold.Chemscore.Hbond>
2.4530

> <Gold.Chemscore.Metal>
0.0000

> <Gold.Chemscore.Lipo>
106.2749

> <Gold.Chemscore.Internal_Hbond>
0.0000

> <Gold.Chemscore.DEClash>
0.1753

> <Gold.Chemscore.DEInternal>
1.8042

> <Gold.Chemscore.Rot>
2.2042

> <Gold.Chemscore.Internal.Correction>
   9.000000E+99

> <Gold.Chemscore.Hbonds>
donor molecule, donor type, donor heavy atom, donor atom, acceptor molecule, acceptor atom, score
      L1  H     5    65       P1  8028  0.87
      P1  H  6896  6907       L1    16  0.76
      P1  H  6931  6943       L1    25  0.72

> <Gold.Chemscore.Hbond.Weighted>
-8.1931

> <Gold.Chemscore.Metal.Weighted>
-0.0000

> <Gold.Chemscore.Lipo.Weighted>
-12.4342

> <Gold.Chemscore.Internal_Hbond.Weighted>
0.0000

> <Gold.Chemscore.DEClash.Weighted>
0.1753

> <Gold.Chemscore.DEInternal.Weighted>
1.8042

> <Gold.Chemscore.Rot.Weighted>
5.6429

> <Gold.Chemscore.Internal.Correction.Weighted>
   9.000000E+99

> <Gold.Protein.RotatedTorsions>
[ 6907 6896 6895 6894 ] final  -39.19 input  -60.11 | X-H torsion
[ 7974 7965 7964 7962 ] final   -1.02 input  175.53 | X-H torsion
[ 8008 7997 7996 7995 ] final  -84.13 input   59.86 | X-H torsion
[ 10167 10162 10161 10158 ] final  114.03 input  -65.29 | X-H torsion
[ 10718 10713 10712 10709 ] final -128.93 input   66.30 | X-H torsion
[ 10763 10752 10751 10750 ] final   45.25 input  -60.55 | X-H torsion
[ 11005 11000 10999 10996 ] final    5.82 input  -57.11 | X-H torsion

> <Gold.Protein.ActiveResidues>
 VAL166  LYS551  ARG553  GLY616  TRP617  ASP618  TYR619  PRO620  LYS621  CYS622 
 ASP623  PHE694  ASN695  SER759  ASP760  ASP761  ALA762  ILE779  LEU786  VAL792 
 PHE793  MET794  SER795  GLU796  ALA797  LYS798  CYS799  TRP800  GLU811  SER814 

> <Gold.Protein.RotatedAtoms>
  150.9933  134.9263  159.7911 H   0  0  0  0  0  0  0  0  0  0  0  0  # atno 6907 bound_to 6896
  152.5257  134.3252  159.9173 H   0  0  0  0  0  0  0  0  0  0  0  0  # atno 6908 bound_to 6896
  151.3258  133.3980  159.2693 H   0  0  0  0  0  0  0  0  0  0  0  0  # atno 6909 bound_to 6896
  146.2421  140.1358  142.8336 H   0  0  0  0  0  0  0  0  0  0  0  0  # atno 7974 bound_to 7965
  154.6265  140.0609  156.9679 H   0  0  0  0  0  0  0  0  0  0  0  0  # atno 8008 bound_to 7997
  155.1734  140.3293  155.4370 H   0  0  0  0  0  0  0  0  0  0  0  0  # atno 8009 bound_to 7997
  156.2460  140.1910  156.6835 H   0  0  0  0  0  0  0  0  0  0  0  0  # atno 8010 bound_to 7997
  139.6418  144.7124  151.2221 H   0  0  0  0  0  0  0  0  0  0  0  0  # atno 10167 bound_to 10162
  156.1998  130.6850  151.0525 H   0  0  0  0  0  0  0  0  0  0  0  0  # atno 10718 bound_to 10713
  152.9827  135.6045  154.3406 H   0  0  0  0  0  0  0  0  0  0  0  0  # atno 10763 bound_to 10752
  154.3103  135.2771  155.2571 H   0  0  0  0  0  0  0  0  0  0  0  0  # atno 10764 bound_to 10752
  154.4784  135.5923  153.6427 H   0  0  0  0  0  0  0  0  0  0  0  0  # atno 10765 bound_to 10752
  140.5664  134.0144  155.7991 H   0  0  0  0  0  0  0  0  0  0  0  0  # atno 11005 bound_to 11000
  145.0288  140.8854  143.5122 LP  0  0  0  0  0  0  0  0  0  0  0  0  # atno 17320 bound_to 7965
  145.1418  139.2567  143.5486 LP  0  0  0  0  0  0  0  0  0  0  0  0  # atno 17321 bound_to 7965
  140.7495  143.6298  150.8433 LP  0  0  0  0  0  0  0  0  0  0  0  0  # atno 17342 bound_to 10162
  139.9937  143.5819  152.2901 LP  0  0  0  0  0  0  0  0  0  0  0  0  # atno 17343 bound_to 10162
  157.6979  131.0787  150.6912 LP  0  0  0  0  0  0  0  0  0  0  0  0  # atno 17370 bound_to 10713
  156.6970  130.4612  149.5583 LP  0  0  0  0  0  0  0  0  0  0  0  0  # atno 17371 bound_to 10713
  141.1083  133.9658  157.2957 LP  0  0  0  0  0  0  0  0  0  0  0  0  # atno 17394 bound_to 11000
  139.9383  135.0194  156.8626 LP  0  0  0  0  0  0  0  0  0  0  0  0  # atno 17395 bound_to 11000

$$$$
