AV-unprocessed.smi:1395|AV-procd|sdf|5673|dock5
  -GOLD-   22720 5293D 1   1.00000     0.00000
 Structure written by MMmdl.
 42 43  0  0  0  0  0  0  0  0  3 V2000
  153.3196  138.8914  159.8422 C   0  0  0  0  0  0  0  0  0  0  0  0
  152.9546  140.3641  159.7496 C   0  0  0  0  0  0  0  0  0  0  0  0
  153.6707  141.3025  160.5231 C   0  0  0  0  0  0  0  0  0  0  0  0
  153.3312  142.6636  160.4371 C   0  0  0  0  0  0  0  0  0  0  0  0
  152.2831  143.0309  159.5760 C   0  0  0  0  0  0  0  0  0  0  0  0
  151.5939  142.1409  158.8332 N   0  0  0  0  0  0  0  0  0  0  0  0
  151.9078  140.8230  158.9056 C   0  0  0  0  0  0  0  0  0  0  0  0
  151.2281  139.8297  158.1453 N   0  0  0  0  0  0  0  0  0  0  0  0
  151.5828  139.2927  156.9646 C   0  0  0  0  0  0  0  0  0  0  0  0
  152.5565  139.6286  156.2903 O   0  0  0  0  0  0  0  0  0  0  0  0
  150.7286  138.3263  156.5970 N   0  0  0  0  0  0  0  0  0  0  0  0
  150.8223  137.5308  155.3726 C   0  0  2  0  0  0  0  0  0  0  0  0
  150.6889  138.4358  154.1357 C   0  0  0  0  0  0  0  0  0  0  0  0
  149.2569  138.9782  153.9695 C   0  0  0  0  0  0  0  0  0  0  0  0
  148.2591  137.8785  153.9261 N   0  3  2  0  0  0  0  0  0  0  0  0
  146.8886  138.3791  153.6524 C   0  0  0  0  0  0  0  0  0  0  0  0
  146.8389  139.0799  152.2909 C   0  0  0  0  0  0  0  0  0  0  0  0
  146.6760  140.4123  152.4028 N   0  5  0  0  0  0  0  0  0  0  0  0
  146.9292  138.4128  151.2624 O   0  0  0  0  0  0  0  0  0  0  0  0
  148.3351  137.0158  155.1364 C   0  0  0  0  0  0  0  0  0  0  0  0
  149.7457  136.4290  155.3139 C   0  0  0  0  0  0  0  0  0  0  0  0
  154.1568  138.7320  160.5224 H   0  0  0  0  0  0  0  0  0  0  0  0
  153.6055  138.5061  158.8632 H   0  0  0  0  0  0  0  0  0  0  0  0
  152.4727  138.3117  160.2108 H   0  0  0  0  0  0  0  0  0  0  0  0
  154.4716  140.9866  161.1754 H   0  0  0  0  0  0  0  0  0  0  0  0
  153.8600  143.4063  161.0160 H   0  0  0  0  0  0  0  0  0  0  0  0
  151.9900  144.0657  159.4793 H   0  0  0  0  0  0  0  0  0  0  0  0
  150.3817  139.4732  158.5633 H   0  0  0  0  0  0  0  0  0  0  0  0
  149.9526  138.1250  157.2103 H   0  0  0  0  0  0  0  0  0  0  0  0
  151.8091  137.0648  155.3512 H   0  0  0  0  0  0  0  0  0  0  0  0
  151.3986  139.2621  154.1924 H   0  0  0  0  0  0  0  0  0  0  0  0
  150.9587  137.8664  153.2452 H   0  0  0  0  0  0  0  0  0  0  0  0
  149.0107  139.6598  154.7851 H   0  0  0  0  0  0  0  0  0  0  0  0
  149.2025  139.5583  153.0476 H   0  0  0  0  0  0  0  0  0  0  0  0
  146.1617  137.5683  153.7374 H   0  0  0  0  0  0  0  0  0  0  0  0
  146.6091  139.1233  154.3994 H   0  0  0  0  0  0  0  0  0  0  0  0
  145.7387  140.7852  152.5954 H   0  0  0  0  0  0  0  0  0  0  0  0
  148.0518  137.5939  156.0172 H   0  0  0  0  0  0  0  0  0  0  0  0
  147.6222  136.1947  155.0604 H   0  0  0  0  0  0  0  0  0  0  0  0
  149.9607  135.7637  154.4767 H   0  0  0  0  0  0  0  0  0  0  0  0
  149.7797  135.8038  156.2068 H   0  0  0  0  0  0  0  0  0  0  0  0
  148.5045  137.2987  153.1360 H   0  0  0  0  0  0  0  0  0  0  0  0
  1  2  1  0  0  0  0
  1 22  1  0  0  0  0
  1 23  1  0  0  0  0
  1 24  1  0  0  0  0
  2  7  1  0  0  0  0
  2  3  2  0  0  0  0
  3  4  1  0  0  0  0
  3 25  1  0  0  0  0
  4  5  2  0  0  0  0
  4 26  1  0  0  0  0
  5  6  1  0  0  0  0
  5 27  1  0  0  0  0
  6  7  2  0  0  0  0
  7  8  1  0  0  0  0
  8  9  1  0  0  0  0
  8 28  1  0  0  0  0
  9 10  2  0  0  0  0
  9 11  1  0  0  0  0
 11 12  1  0  0  0  0
 11 29  1  0  0  0  0
 12 21  1  0  0  0  0
 12 13  1  0  0  0  0
 12 30  1  0  0  0  0
 13 14  1  0  0  0  0
 13 31  1  0  0  0  0
 13 32  1  0  0  0  0
 14 15  1  0  0  0  0
 14 33  1  0  0  0  0
 14 34  1  0  0  0  0
 15 16  1  0  0  0  0
 15 20  1  0  0  0  0
 15 42  1  0  0  0  0
 16 17  1  0  0  0  0
 16 35  1  0  0  0  0
 16 36  1  0  0  0  0
 17 18  1  0  0  0  0
 17 19  2  0  0  0  0
 18 37  1  0  0  0  0
 20 21  1  0  0  0  0
 20 38  1  0  0  0  0
 20 39  1  0  0  0  0
 21 40  1  0  0  0  0
 21 41  1  0  0  0  0
M  CHG  1  15   1
M  CHG  1  18  -1
M  END
> <s_m_source_file>
AV-unprocessed.smi

> <i_m_source_file_index>
1395

> <i_lp_mmshare_version>
43012

> <i_f3d_flags>
0

> <s_epik_input>
W0NIM11jMVtjSF1bY0hdW2NIXW5jMVtOSF1DKD1PKVtOSF1bQ0hdMltDSDJdW0NIMl1OKFtDSDJdW0NIMl0yKVtDSDJdQyg9TylbTkgyXQ==

> <s_epik_cmdline>
J2VwaWtfcHl0aG9uJywgJy1waCcsICc3LjAnLCAnLXRuJywgJzgnLCAnLW1hJywgJzIwMCcsICctbWV0YWxfYmluZGluZycsICctaW1hZScsICc8aW5maWxlLm1hZT4nLCAnLW9tYWUnLCAnPG91dGZpbGUubWFlPic=

> <r_epik_Ionization_Penalty>
5.72885

> <r_epik_Ionization_Penalty_Charging>
5.7288

> <r_epik_Ionization_Penalty_Neutral>
4.54304e-05

> <r_epik_State_Penalty>
6.54882

> <r_epik_Charging_Adjusted_Penalty>
12.2776

> <i_epik_Tot_Q>
0

> <i_epik_Tot_abs_Q>
2

> <r_epik_Metal_State_Penalty>
2.51297

> <b_epik_Metal_Only>
1

> <s_lp_Force_Field>
OPLS_2005

> <r_lp_Energy>
8.5501

> <b_lp_Chiralities_Consistent>
1

> <s_lp_Variant>
AV-unprocessed.smi:1395-5

> <Gold.Version>
5.8.1

> <Gold.Id.Protein>
6NUR|6NUR_protein|mol2

> <Gold.PLP.Fitness>
48.9370

> <Gold.PLP.PLP>
-35.6819

> <Gold.PLP.part.hbond>
-4.4408

> <Gold.PLP.part.metal>
0.0000

> <Gold.PLP.part.buried>
-4.7401

> <Gold.PLP.part.nonpolar>
-27.9909

> <Gold.PLP.part.repulsive>
1.3235

> <Gold.PLP.ligand.clash>
0.0000

> <Gold.PLP.ligand.torsion>
0.8741

> <Gold.PLP.Chemscore.Hbond>
4.9920

> <Gold.PLP.Chemscore.CHOScore>
0.0000

> <Gold.PLP.Chemscore.Metal>
0.0000

> <Gold.Chemscore.Hbonds>
donor molecule, donor type, donor heavy atom, donor atom, acceptor molecule, acceptor atom, score
      L1  H    15    42       P1  7948  2.00
      L1  H    18    37       P1 10175  0.86
      P1  H  7954  7966       L1    19  1.00
      P1  H  7997  8009       L1    10  1.00

> <Gold.PLP.Chemscore.Internal.Correction>
0.0274

> <Gold.Rescore>
     Score         DG    S(hbond)    S(metal)    S(lipo)     H(rot)  DE(clash)    DE(int)     intcor
     20.28     -22.68       3.90        0.00      77.98       1.93       1.57       0.84       ----

> <Gold.Chemscore.Fitness>
20.2761

> <Gold.Chemscore.DG>
-22.6789

> <Gold.Chemscore.ZeroCoef>
-5.4800

> <Gold.Chemscore.Hbond>
3.9002

> <Gold.Chemscore.Metal>
0.0000

> <Gold.Chemscore.Lipo>
77.9793

> <Gold.Chemscore.Internal_Hbond>
0.0000

> <Gold.Chemscore.DEClash>
1.5664

> <Gold.Chemscore.DEInternal>
0.8365

> <Gold.Chemscore.Rot>
1.9341

> <Gold.Chemscore.Internal.Correction>
   9.000000E+99

> <Gold.Chemscore.Hbonds>
donor molecule, donor type, donor heavy atom, donor atom, acceptor molecule, acceptor atom, score
      L1  H    15    42       P1  7948  1.00
      L1  H    18    37       P1 10175  0.20
      P1  H  7954  7966       L1    19  0.99
      P1  H  7997  8009       L1    10  1.00

> <Gold.Chemscore.Hbond.Weighted>
-13.0266

> <Gold.Chemscore.Metal.Weighted>
-0.0000

> <Gold.Chemscore.Lipo.Weighted>
-9.1236

> <Gold.Chemscore.Internal_Hbond.Weighted>
0.0000

> <Gold.Chemscore.DEClash.Weighted>
1.5664

> <Gold.Chemscore.DEInternal.Weighted>
0.8365

> <Gold.Chemscore.Rot.Weighted>
4.9512

> <Gold.Chemscore.Internal.Correction.Weighted>
   9.000000E+99

> <Gold.Protein.RotatedTorsions>
[ 6907 6896 6895 6894 ] final -137.13 input  -60.11 | X-H torsion
[ 7974 7965 7964 7962 ] final  129.36 input  175.53 | X-H torsion
[ 8008 7997 7996 7995 ] final -163.18 input   59.86 | X-H torsion
[ 10167 10162 10161 10158 ] final   17.19 input  -65.29 | X-H torsion
[ 10718 10713 10712 10709 ] final -174.50 input   66.30 | X-H torsion
[ 10763 10752 10751 10750 ] final  147.26 input  -60.55 | X-H torsion
[ 11005 11000 10999 10996 ] final  147.95 input  -57.11 | X-H torsion

> <Gold.Protein.ActiveResidues>
 VAL166  LYS551  ARG553  GLY616  TRP617  ASP618  TYR619  PRO620  LYS621  CYS622 
 ASP623  PHE694  ASN695  SER759  ASP760  ASP761  ALA762  ILE779  LEU786  VAL792 
 PHE793  MET794  SER795  GLU796  ALA797  LYS798  CYS799  TRP800  GLU811  SER814 

> <Gold.Protein.RotatedAtoms>
  151.0186  133.5898  159.2673 H   0  0  0  0  0  0  0  0  0  0  0  0  # atno 6907 bound_to 6896
  151.3023  135.0771  159.9253 H   0  0  0  0  0  0  0  0  0  0  0  0  # atno 6908 bound_to 6896
  152.5317  133.9865  159.7885 H   0  0  0  0  0  0  0  0  0  0  0  0  # atno 6909 bound_to 6896
  145.0295  139.4059  143.5157 H   0  0  0  0  0  0  0  0  0  0  0  0  # atno 7974 bound_to 7965
  155.8175  140.0914  157.1868 H   0  0  0  0  0  0  0  0  0  0  0  0  # atno 8008 bound_to 7997
  154.3979  140.1443  156.3520 H   0  0  0  0  0  0  0  0  0  0  0  0  # atno 8009 bound_to 7997
  155.8301  140.3443  155.5569 H   0  0  0  0  0  0  0  0  0  0  0  0  # atno 8010 bound_to 7997
  140.5744  143.9101  150.6738 H   0  0  0  0  0  0  0  0  0  0  0  0  # atno 10167 bound_to 10162
  156.7860  130.9501  151.3120 H   0  0  0  0  0  0  0  0  0  0  0  0  # atno 10718 bound_to 10713
  154.0354  135.2894  155.3362 H   0  0  0  0  0  0  0  0  0  0  0  0  # atno 10763 bound_to 10752
  154.6962  135.5207  153.8465 H   0  0  0  0  0  0  0  0  0  0  0  0  # atno 10764 bound_to 10752
  153.0622  135.6618  154.0563 H   0  0  0  0  0  0  0  0  0  0  0  0  # atno 10765 bound_to 10752
  140.0918  134.9036  157.1663 H   0  0  0  0  0  0  0  0  0  0  0  0  # atno 11005 bound_to 11000
  146.3496  139.9837  142.8693 LP  0  0  0  0  0  0  0  0  0  0  0  0  # atno 17320 bound_to 7965
  145.1790  140.9758  143.4277 LP  0  0  0  0  0  0  0  0  0  0  0  0  # atno 17321 bound_to 7965
  140.2584  143.3542  152.1344 LP  0  0  0  0  0  0  0  0  0  0  0  0  # atno 17342 bound_to 10162
  139.5134  144.6933  151.5701 LP  0  0  0  0  0  0  0  0  0  0  0  0  # atno 17343 bound_to 10162
  157.6623  130.8977  149.9857 LP  0  0  0  0  0  0  0  0  0  0  0  0  # atno 17370 bound_to 10713
  156.1188  130.3646  149.9922 LP  0  0  0  0  0  0  0  0  0  0  0  0  # atno 17371 bound_to 10713
  140.3341  134.2777  155.7223 LP  0  0  0  0  0  0  0  0  0  0  0  0  # atno 17394 bound_to 11000
  141.2080  133.7789  157.0084 LP  0  0  0  0  0  0  0  0  0  0  0  0  # atno 17395 bound_to 11000

$$$$
