AV-unprocessed.smi:1824|AV-procd|sdf|7406|dock4
  -GOLD-   22720 9 83D 1   1.00000     0.00000
 Structure written by MMmdl.
 45 47  0  0  0  0  0  0  0  0  2 V2000
  150.2299  138.0651  156.6478 C   0  0  0  0  0  0  0  0  0  0  0  0
  150.2965  138.1059  155.1106 C   0  0  1  0  0  0  0  0  0  0  0  0
  149.0654  137.4824  154.4249 C   0  0  0  0  0  0  0  0  0  0  0  0
  147.8831  138.3700  154.5471 N   0  3  2  0  0  0  0  0  0  0  0  0
  146.6413  137.7928  153.9718 C   0  0  0  0  0  0  0  0  0  0  0  0
  146.3333  136.3901  154.5323 C   0  0  1  0  0  0  0  0  0  0  0  0
  144.9384  136.2814  154.7461 O   0  0  0  0  0  0  0  0  0  0  0  0
  146.7961  135.2734  153.5766 C   0  0  0  0  0  0  0  0  0  0  0  0
  145.9738  135.1900  152.3822 N   0  0  0  0  0  0  0  0  0  0  0  0
  145.7469  136.1702  151.4864 C   0  0  0  0  0  0  0  0  0  0  0  0
  144.9614  135.8816  150.4531 N   0  0  0  0  0  0  0  0  0  0  0  0
  144.6402  134.5592  150.7062 C   0  0  0  0  0  0  0  0  0  0  0  0
  143.8330  133.6560  149.9783 C   0  0  0  0  0  0  0  0  0  0  0  0
  143.6496  132.3340  150.4343 C   0  0  0  0  0  0  0  0  0  0  0  0
  142.8754  131.4804  149.7229 F   0  0  0  0  0  0  0  0  0  0  0  0
  144.2680  131.8965  151.6244 C   0  0  0  0  0  0  0  0  0  0  0  0
  144.0877  130.6253  152.0545 F   0  0  0  0  0  0  0  0  0  0  0  0
  145.0750  132.7791  152.3676 C   0  0  0  0  0  0  0  0  0  0  0  0
  145.2569  134.0964  151.9077 C   0  0  0  0  0  0  0  0  0  0  0  0
  148.1942  139.7141  154.0095 C   0  0  0  0  0  0  0  0  0  0  0  0
  149.4128  140.3118  154.7363 C   0  0  2  0  0  0  0  0  0  0  0  0
  149.8243  141.6674  154.1510 C   0  0  0  0  0  0  0  0  0  0  0  0
  150.5218  139.4247  154.6120 O   0  0  0  0  0  0  0  0  0  0  0  0
  150.1897  137.0361  157.0056 H   0  0  0  0  0  0  0  0  0  0  0  0
  149.3514  138.5772  157.0398 H   0  0  0  0  0  0  0  0  0  0  0  0
  151.1126  138.5304  157.0871 H   0  0  0  0  0  0  0  0  0  0  0  0
  151.1690  137.5202  154.8193 H   0  0  0  0  0  0  0  0  0  0  0  0
  149.2803  137.3206  153.3672 H   0  0  0  0  0  0  0  0  0  0  0  0
  148.8651  136.5019  154.8556 H   0  0  0  0  0  0  0  0  0  0  0  0
  145.7946  138.4465  154.1884 H   0  0  0  0  0  0  0  0  0  0  0  0
  146.7297  137.7620  152.8847 H   0  0  0  0  0  0  0  0  0  0  0  0
  146.8320  136.2486  155.4907 H   0  0  0  0  0  0  0  0  0  0  0  0
  144.4871  136.7153  154.0378 H   0  0  0  0  0  0  0  0  0  0  0  0
  147.8341  135.4260  153.2777 H   0  0  0  0  0  0  0  0  0  0  0  0
  146.7576  134.3077  154.0824 H   0  0  0  0  0  0  0  0  0  0  0  0
  146.1858  137.1510  151.5981 H   0  0  0  0  0  0  0  0  0  0  0  0
  143.3545  133.9795  149.0658 H   0  0  0  0  0  0  0  0  0  0  0  0
  145.5493  132.4452  153.2782 H   0  0  0  0  0  0  0  0  0  0  0  0
  148.3848  139.6434  152.9372 H   0  0  0  0  0  0  0  0  0  0  0  0
  147.3345  140.3726  154.1400 H   0  0  0  0  0  0  0  0  0  0  0  0
  149.1746  140.4587  155.7900 H   0  0  0  0  0  0  0  0  0  0  0  0
  149.0136  142.3921  154.2295 H   0  0  0  0  0  0  0  0  0  0  0  0
  150.0938  141.5794  153.0981 H   0  0  0  0  0  0  0  0  0  0  0  0
  150.6855  142.0754  154.6811 H   0  0  0  0  0  0  0  0  0  0  0  0
  147.7047  138.4946  155.5338 H   0  0  0  0  0  0  0  0  0  0  0  0
  1  2  1  0  0  0  0
  1 24  1  0  0  0  0
  1 25  1  0  0  0  0
  1 26  1  0  0  0  0
  2 23  1  0  0  0  0
  2  3  1  0  0  0  0
  2 27  1  0  0  0  0
  3  4  1  0  0  0  0
  3 28  1  0  0  0  0
  3 29  1  0  0  0  0
  4  5  1  0  0  0  0
  4 20  1  0  0  0  0
  4 45  1  0  0  0  0
  5  6  1  0  0  0  0
  5 30  1  0  0  0  0
  5 31  1  0  0  0  0
  6  7  1  0  0  0  0
  6  8  1  0  0  0  0
  6 32  1  0  0  0  0
  7 33  1  0  0  0  0
  8  9  1  0  0  0  0
  8 34  1  0  0  0  0
  8 35  1  0  0  0  0
  9 19  1  0  0  0  0
  9 10  1  0  0  0  0
 10 11  2  0  0  0  0
 10 36  1  0  0  0  0
 11 12  1  0  0  0  0
 12 19  2  0  0  0  0
 12 13  1  0  0  0  0
 13 14  2  0  0  0  0
 13 37  1  0  0  0  0
 14 15  1  0  0  0  0
 14 16  1  0  0  0  0
 16 17  1  0  0  0  0
 16 18  2  0  0  0  0
 18 19  1  0  0  0  0
 18 38  1  0  0  0  0
 20 21  1  0  0  0  0
 20 39  1  0  0  0  0
 20 40  1  0  0  0  0
 21 22  1  0  0  0  0
 21 23  1  0  0  0  0
 21 41  1  0  0  0  0
 22 42  1  0  0  0  0
 22 43  1  0  0  0  0
 22 44  1  0  0  0  0
M  CHG  1   4   1
M  END
> <s_m_source_file>
AV-unprocessed.smi

> <i_m_source_file_index>
1824

> <i_lp_mmshare_version>
43012

> <i_f3d_flags>
0

> <s_epik_input>
W0NIM11bQ0BASF0xW0NIMl1OKFtDSDJdW0NASF0oTzEpW0NIM10pW0NIMl1bQ0BIXShbT0hdKVtDSDJdbihbY0hdbjIpYyhjMjMpW2NIXWMoRiljKEYpW2NIXTM=

> <s_epik_cmdline>
J2VwaWtfcHl0aG9uJywgJy1waCcsICc3LjAnLCAnLXRuJywgJzgnLCAnLW1hJywgJzIwMCcsICctbWV0YWxfYmluZGluZycsICctaW1hZScsICc8aW5maWxlLm1hZT4nLCAnLW9tYWUnLCAnPG91dGZpbGUubWFlPic=

> <r_epik_Ionization_Penalty>
0.61967

> <r_epik_Ionization_Penalty_Charging>
0.608065

> <r_epik_Ionization_Penalty_Neutral>
0.0116057

> <r_epik_State_Penalty>
0.664205

> <r_epik_Charging_Adjusted_Penalty>
1.27227

> <i_epik_Tot_Q>
1

> <i_epik_Tot_abs_Q>
1

> <r_epik_Metal_State_Penalty>
0.654947

> <b_epik_Metal_Only>
0

> <s_lp_Force_Field>
OPLS_2005

> <r_lp_Energy>
22.8883

> <b_lp_Chiralities_Consistent>
1

> <s_lp_Variant>
AV-unprocessed.smi:1824-14

> <Gold.Version>
5.8.1

> <Gold.Id.Protein>
6NUR|6NUR_protein|mol2

> <Gold.PLP.Fitness>
43.4397

> <Gold.PLP.PLP>
-38.8295

> <Gold.PLP.part.hbond>
-1.0000

> <Gold.PLP.part.metal>
0.0000

> <Gold.PLP.part.buried>
-4.8335

> <Gold.PLP.part.nonpolar>
-33.1856

> <Gold.PLP.part.repulsive>
0.2588

> <Gold.PLP.ligand.clash>
0.0000

> <Gold.PLP.ligand.torsion>
0.6267

> <Gold.PLP.Chemscore.Hbond>
1.0000

> <Gold.PLP.Chemscore.CHOScore>
0.9330

> <Gold.PLP.Chemscore.Metal>
0.0000

> <Gold.Chemscore.Hbonds>
donor molecule, donor type, donor heavy atom, donor atom, acceptor molecule, acceptor atom, score
      P1  H  7989  7998       L1    23  0.45
      L1  C    10    36       P1  7948  0.02

> <Gold.PLP.Chemscore.Internal.Correction>
0.0646

> <Gold.Rescore>
     Score         DG    S(hbond)    S(metal)    S(lipo)     H(rot)  DE(clash)    DE(int)     intcor
     12.64     -13.30       1.43        0.00      77.04       2.33       0.00       0.66       ----

> <Gold.Chemscore.Fitness>
12.6425

> <Gold.Chemscore.DG>
-13.3045

> <Gold.Chemscore.ZeroCoef>
-5.4800

> <Gold.Chemscore.Hbond>
1.4261

> <Gold.Chemscore.Metal>
0.0000

> <Gold.Chemscore.Lipo>
77.0412

> <Gold.Chemscore.Internal_Hbond>
0.0000

> <Gold.Chemscore.DEClash>
0.0015

> <Gold.Chemscore.DEInternal>
0.6606

> <Gold.Chemscore.Rot>
2.3251

> <Gold.Chemscore.Internal.Correction>
   9.000000E+99

> <Gold.Chemscore.Hbonds>
donor molecule, donor type, donor heavy atom, donor atom, acceptor molecule, acceptor atom, score
      P1  H  7989  7998       L1    23  0.03

> <Gold.Chemscore.Hbond.Weighted>
-4.7630

> <Gold.Chemscore.Metal.Weighted>
-0.0000

> <Gold.Chemscore.Lipo.Weighted>
-9.0138

> <Gold.Chemscore.Internal_Hbond.Weighted>
0.0000

> <Gold.Chemscore.DEClash.Weighted>
0.0015

> <Gold.Chemscore.DEInternal.Weighted>
0.6606

> <Gold.Chemscore.Rot.Weighted>
5.9523

> <Gold.Chemscore.Internal.Correction.Weighted>
   9.000000E+99

> <Gold.Protein.RotatedTorsions>
[ 6907 6896 6895 6894 ] final -138.43 input  -60.11 | X-H torsion
[ 7974 7965 7964 7962 ] final  113.64 input  175.53 | X-H torsion
[ 8008 7997 7996 7995 ] final  102.18 input   59.86 | X-H torsion
[ 10167 10162 10161 10158 ] final  160.65 input  -65.29 | X-H torsion
[ 10718 10713 10712 10709 ] final    3.39 input   66.30 | X-H torsion
[ 10763 10752 10751 10750 ] final  -45.91 input  -60.55 | X-H torsion
[ 11005 11000 10999 10996 ] final  -51.41 input  -57.11 | X-H torsion

> <Gold.Protein.ActiveResidues>
 VAL166  LYS551  ARG553  GLY616  TRP617  ASP618  TYR619  PRO620  LYS621  CYS622 
 ASP623  PHE694  ASN695  SER759  ASP760  ASP761  ALA762  ILE779  LEU786  VAL792 
 PHE793  MET794  SER795  GLU796  ALA797  LYS798  CYS799  TRP800  GLU811  SER814 

> <Gold.Protein.RotatedAtoms>
  151.0349  133.5757  159.2656 H   0  0  0  0  0  0  0  0  0  0  0  0  # atno 6907 bound_to 6896
  151.2825  135.0717  159.9184 H   0  0  0  0  0  0  0  0  0  0  0  0  # atno 6908 bound_to 6896
  152.5352  134.0061  159.7971 H   0  0  0  0  0  0  0  0  0  0  0  0  # atno 6909 bound_to 6896
  145.2144  139.2891  143.4251 H   0  0  0  0  0  0  0  0  0  0  0  0  # atno 7974 bound_to 7965
  156.1369  140.3185  155.8434 H   0  0  0  0  0  0  0  0  0  0  0  0  # atno 8008 bound_to 7997
  155.4228  140.0513  157.3041 H   0  0  0  0  0  0  0  0  0  0  0  0  # atno 8009 bound_to 7997
  154.4944  140.2105  155.9491 H   0  0  0  0  0  0  0  0  0  0  0  0  # atno 8010 bound_to 7997
  139.4842  144.4613  151.8701 H   0  0  0  0  0  0  0  0  0  0  0  0  # atno 10167 bound_to 10162
  156.8771  130.5640  149.5654 H   0  0  0  0  0  0  0  0  0  0  0  0  # atno 10718 bound_to 10713
  154.0363  135.6650  153.4785 H   0  0  0  0  0  0  0  0  0  0  0  0  # atno 10763 bound_to 10752
  153.0519  135.5079  154.7884 H   0  0  0  0  0  0  0  0  0  0  0  0  # atno 10764 bound_to 10752
  154.6846  135.3051  154.9531 H   0  0  0  0  0  0  0  0  0  0  0  0  # atno 10765 bound_to 10752
  141.0870  133.6640  156.3874 H   0  0  0  0  0  0  0  0  0  0  0  0  # atno 11005 bound_to 11000
  146.3390  140.2430  142.8596 LP  0  0  0  0  0  0  0  0  0  0  0  0  # atno 17320 bound_to 7965
  144.9825  140.8472  143.5389 LP  0  0  0  0  0  0  0  0  0  0  0  0  # atno 17321 bound_to 7965
  140.4075  144.2412  150.5890 LP  0  0  0  0  0  0  0  0  0  0  0  0  # atno 17342 bound_to 10162
  140.4998  143.2321  151.8696 LP  0  0  0  0  0  0  0  0  0  0  0  0  # atno 17343 bound_to 10162
  156.0696  130.5732  150.9357 LP  0  0  0  0  0  0  0  0  0  0  0  0  # atno 17370 bound_to 10713
  157.6162  131.0933  150.8706 LP  0  0  0  0  0  0  0  0  0  0  0  0  # atno 17371 bound_to 10713
  140.5341  134.6184  157.5359 LP  0  0  0  0  0  0  0  0  0  0  0  0  # atno 17394 bound_to 11000
  139.9689  134.7326  156.0081 LP  0  0  0  0  0  0  0  0  0  0  0  0  # atno 17395 bound_to 11000

$$$$
