AV-unprocessed.smi:3185|AV-procd|sdf|12166|dock1
  -GOLD-   2272018 03D 1   1.00000     0.00000
 Structure written by MMmdl.
 38 39  0  0  0  0  0  0  0  0  2 V2000
  144.1906  142.2692  161.5985 N   0  0  0  0  0  0  0  0  0  0  0  0
  145.0984  142.8063  161.1246 C   0  0  0  0  0  0  0  0  0  0  0  0
  146.2533  143.4882  160.5216 C   0  0  0  0  0  0  0  0  0  0  0  0
  146.6062  142.9354  159.1361 C   0  0  0  0  0  0  0  0  0  0  0  0
  148.0744  143.1808  158.7684 C   0  0  0  0  0  0  0  0  0  0  0  0
  148.3378  142.7923  157.3672 N   0  3  0  0  0  0  0  0  0  0  0  0
  149.2304  141.6239  157.1799 C   0  0  1  0  0  0  0  0  0  0  0  0
  149.8723  141.5966  155.7697 C   0  0  0  0  0  0  0  0  0  0  0  0
  150.8543  140.4252  155.6089 C   0  0  0  0  0  0  0  0  0  0  0  0
  151.9160  140.4163  156.7178 C   0  0  0  0  0  0  0  0  0  0  0  0
  151.2559  140.3702  158.1049 C   0  0  0  0  0  0  0  0  0  0  0  0
  150.2742  141.5387  158.3323 C   0  0  1  0  0  0  0  0  0  0  0  0
  150.9873  142.7838  158.6289 N   0  0  0  0  0  0  0  0  0  0  0  0
  151.2407  143.8240  157.7568 C   0  0  0  0  0  0  0  0  0  0  0  0
  151.8955  144.7999  158.4515 C   0  0  0  0  0  0  0  0  0  0  0  0
  151.9846  144.2723  159.7683 C   0  0  0  0  0  0  0  0  0  0  0  0
  151.4360  143.0735  159.8717 N   0  0  0  0  0  0  0  0  0  0  0  0
  146.0184  144.5513  160.4605 H   0  0  0  0  0  0  0  0  0  0  0  0
  147.0972  143.3804  161.2035 H   0  0  0  0  0  0  0  0  0  0  0  0
  146.3965  141.8652  159.1111 H   0  0  0  0  0  0  0  0  0  0  0  0
  145.9583  143.3960  158.3888 H   0  0  0  0  0  0  0  0  0  0  0  0
  148.3176  144.2354  158.9046 H   0  0  0  0  0  0  0  0  0  0  0  0
  148.7163  142.6101  159.4393 H   0  0  0  0  0  0  0  0  0  0  0  0
  147.4604  142.6030  156.9030 H   0  0  0  0  0  0  0  0  0  0  0  0
  148.6078  140.7318  157.2662 H   0  0  0  0  0  0  0  0  0  0  0  0
  149.1008  141.5024  155.0059 H   0  0  0  0  0  0  0  0  0  0  0  0
  150.3848  142.5330  155.5540 H   0  0  0  0  0  0  0  0  0  0  0  0
  150.3037  139.4839  155.6273 H   0  0  0  0  0  0  0  0  0  0  0  0
  151.3376  140.4791  154.6328 H   0  0  0  0  0  0  0  0  0  0  0  0
  152.5704  139.5532  156.5928 H   0  0  0  0  0  0  0  0  0  0  0  0
  152.5528  141.2971  156.6313 H   0  0  0  0  0  0  0  0  0  0  0  0
  150.7176  139.4270  158.2069 H   0  0  0  0  0  0  0  0  0  0  0  0
  152.0215  140.3629  158.8817 H   0  0  0  0  0  0  0  0  0  0  0  0
  149.7153  141.3052  159.2402 H   0  0  0  0  0  0  0  0  0  0  0  0
  150.9366  143.7846  156.7210 H   0  0  0  0  0  0  0  0  0  0  0  0
  152.2481  145.7499  158.0780 H   0  0  0  0  0  0  0  0  0  0  0  0
  152.4246  144.7224  160.6462 H   0  0  0  0  0  0  0  0  0  0  0  0
  148.7731  143.5821  156.9125 H   0  0  0  0  0  0  0  0  0  0  0  0
  1  2  3  0  0  0  0
  2  3  1  0  0  0  0
  3  4  1  0  0  0  0
  3 18  1  0  0  0  0
  3 19  1  0  0  0  0
  4  5  1  0  0  0  0
  4 20  1  0  0  0  0
  4 21  1  0  0  0  0
  5  6  1  0  0  0  0
  5 22  1  0  0  0  0
  5 23  1  0  0  0  0
  6  7  1  0  0  0  0
  6 24  1  0  0  0  0
  6 38  1  0  0  0  0
  7 12  1  0  0  0  0
  7  8  1  0  0  0  0
  7 25  1  0  0  0  0
  8  9  1  0  0  0  0
  8 26  1  0  0  0  0
  8 27  1  0  0  0  0
  9 10  1  0  0  0  0
  9 28  1  0  0  0  0
  9 29  1  0  0  0  0
 10 11  1  0  0  0  0
 10 30  1  0  0  0  0
 10 31  1  0  0  0  0
 11 12  1  0  0  0  0
 11 32  1  0  0  0  0
 11 33  1  0  0  0  0
 12 13  1  0  0  0  0
 12 34  1  0  0  0  0
 13 17  1  0  0  0  0
 13 14  1  0  0  0  0
 14 15  2  0  0  0  0
 14 35  1  0  0  0  0
 15 16  1  0  0  0  0
 15 36  1  0  0  0  0
 16 17  2  0  0  0  0
 16 37  1  0  0  0  0
M  CHG  1   6   1
M  END
> <s_m_source_file>
AV-unprocessed.smi

> <i_m_source_file_index>
3185

> <i_lp_mmshare_version>
43012

> <i_f3d_flags>
0

> <s_epik_input>
TiNDW0NIMl1bQ0gyXVtDSDJdW05IXVtDQEBIXTFbQ0gyXVtDSDJdW0NIMl1bQ0gyXVtDQEhdMW4yW2NIXVtjSF1bY0hdbjI=

> <s_epik_cmdline>
J2VwaWtfcHl0aG9uJywgJy1waCcsICc3LjAnLCAnLXRuJywgJzgnLCAnLW1hJywgJzIwMCcsICctbWV0YWxfYmluZGluZycsICctaW1hZScsICc8aW5maWxlLm1hZT4nLCAnLW9tYWUnLCAnPG91dGZpbGUubWFlPic=

> <r_lp_tautomer_probability>
1

> <r_epik_Ionization_Penalty>
0.0143465

> <r_epik_Ionization_Penalty_Charging>
0.0143338

> <r_epik_Ionization_Penalty_Neutral>
1.27047e-05

> <r_epik_State_Penalty>
0.0112058

> <r_epik_Charging_Adjusted_Penalty>
0.0255397

> <i_epik_Tot_Q>
1

> <i_epik_Tot_abs_Q>
1

> <r_epik_Metal_State_Penalty>
0.0112253

> <b_epik_Metal_Only>
0

> <s_lp_Force_Field>
OPLS_2005

> <r_lp_Energy>
18.1439

> <b_lp_Chiralities_Consistent>
1

> <s_lp_Variant>
AV-unprocessed.smi:3185-2

> <Gold.Version>
5.8.1

> <Gold.Id.Protein>
6NUR|6NUR_protein|mol2

> <Gold.PLP.Fitness>
42.0029

> <Gold.PLP.PLP>
-35.7508

> <Gold.PLP.part.hbond>
-2.7968

> <Gold.PLP.part.metal>
0.0000

> <Gold.PLP.part.buried>
-3.1952

> <Gold.PLP.part.nonpolar>
-29.5483

> <Gold.PLP.part.repulsive>
0.0562

> <Gold.PLP.ligand.clash>
0.0000

> <Gold.PLP.ligand.torsion>
1.4520

> <Gold.PLP.Chemscore.Hbond>
2.0000

> <Gold.PLP.Chemscore.CHOScore>
1.0000

> <Gold.PLP.Chemscore.Metal>
0.0000

> <Gold.Chemscore.Hbonds>
donor molecule, donor type, donor heavy atom, donor atom, acceptor molecule, acceptor atom, score
      L1  H     6    38       P1  8028  2.00
      L1  C    14    35       P1  8028  0.97

> <Gold.PLP.Chemscore.Internal.Correction>
0.1561

> <Gold.Rescore>
     Score         DG    S(hbond)    S(metal)    S(lipo)     H(rot)  DE(clash)    DE(int)     intcor
     10.39     -12.44       0.77        0.00      78.57       1.88       0.07       1.98       ----

> <Gold.Chemscore.Fitness>
10.3889

> <Gold.Chemscore.DG>
-12.4359

> <Gold.Chemscore.ZeroCoef>
-5.4800

> <Gold.Chemscore.Hbond>
0.7690

> <Gold.Chemscore.Metal>
0.0000

> <Gold.Chemscore.Lipo>
78.5675

> <Gold.Chemscore.Internal_Hbond>
0.0000

> <Gold.Chemscore.DEClash>
0.0708

> <Gold.Chemscore.DEInternal>
1.9762

> <Gold.Chemscore.Rot>
1.8769

> <Gold.Chemscore.Internal.Correction>
   9.000000E+99

> <Gold.Chemscore.Hbonds>
donor molecule, donor type, donor heavy atom, donor atom, acceptor molecule, acceptor atom, score
      L1  H     6    38       P1  8028  0.38

> <Gold.Chemscore.Hbond.Weighted>
-2.5684

> <Gold.Chemscore.Metal.Weighted>
-0.0000

> <Gold.Chemscore.Lipo.Weighted>
-9.1924

> <Gold.Chemscore.Internal_Hbond.Weighted>
0.0000

> <Gold.Chemscore.DEClash.Weighted>
0.0708

> <Gold.Chemscore.DEInternal.Weighted>
1.9762

> <Gold.Chemscore.Rot.Weighted>
4.8049

> <Gold.Chemscore.Internal.Correction.Weighted>
   9.000000E+99

> <Gold.Protein.RotatedTorsions>
[ 6907 6896 6895 6894 ] final -118.63 input  -60.11 | X-H torsion
[ 7974 7965 7964 7962 ] final   26.93 input  175.53 | X-H torsion
[ 8008 7997 7996 7995 ] final   28.40 input   59.86 | X-H torsion
[ 10167 10162 10161 10158 ] final  -70.43 input  -65.29 | X-H torsion
[ 10718 10713 10712 10709 ] final -145.33 input   66.30 | X-H torsion
[ 10763 10752 10751 10750 ] final -110.61 input  -60.55 | X-H torsion
[ 11005 11000 10999 10996 ] final  101.50 input  -57.11 | X-H torsion

> <Gold.Protein.ActiveResidues>
 VAL166  LYS551  ARG553  GLY616  TRP617  ASP618  TYR619  PRO620  LYS621  CYS622 
 ASP623  PHE694  ASN695  SER759  ASP760  ASP761  ALA762  ILE779  LEU786  VAL792 
 PHE793  MET794  SER795  GLU796  ALA797  LYS798  CYS799  TRP800  GLU811  SER814 

> <Gold.Protein.RotatedAtoms>
  150.8236  133.8210  159.3128 H   0  0  0  0  0  0  0  0  0  0  0  0  # atno 6907 bound_to 6896
  151.5961  135.1048  160.0059 H   0  0  0  0  0  0  0  0  0  0  0  0  # atno 6908 bound_to 6896
  152.4323  133.7258  159.6616 H   0  0  0  0  0  0  0  0  0  0  0  0  # atno 6909 bound_to 6896
  146.1811  139.7261  142.8899 H   0  0  0  0  0  0  0  0  0  0  0  0  # atno 7974 bound_to 7965
  155.0581  140.3187  155.4669 H   0  0  0  0  0  0  0  0  0  0  0  0  # atno 8008 bound_to 7997
  156.2819  140.2134  156.5652 H   0  0  0  0  0  0  0  0  0  0  0  0  # atno 8009 bound_to 7997
  154.7154  140.0494  157.0577 H   0  0  0  0  0  0  0  0  0  0  0  0  # atno 8010 bound_to 7997
  140.5353  143.2318  151.7188 H   0  0  0  0  0  0  0  0  0  0  0  0  # atno 10167 bound_to 10162
  156.3811  130.7837  151.2029 H   0  0  0  0  0  0  0  0  0  0  0  0  # atno 10718 bound_to 10713
  154.8257  135.4558  154.0911 H   0  0  0  0  0  0  0  0  0  0  0  0  # atno 10763 bound_to 10752
  153.2227  135.6896  153.7987 H   0  0  0  0  0  0  0  0  0  0  0  0  # atno 10764 bound_to 10752
  153.7398  135.3314  155.3278 H   0  0  0  0  0  0  0  0  0  0  0  0  # atno 10765 bound_to 10752
  139.8773  134.9185  156.4916 H   0  0  0  0  0  0  0  0  0  0  0  0  # atno 11005 bound_to 11000
  145.4072  141.0392  143.3037 LP  0  0  0  0  0  0  0  0  0  0  0  0  # atno 17320 bound_to 7965
  144.8317  139.5617  143.6940 LP  0  0  0  0  0  0  0  0  0  0  0  0  # atno 17321 bound_to 7965
  139.4969  144.4052  152.0140 LP  0  0  0  0  0  0  0  0  0  0  0  0  # atno 17342 bound_to 10162
  140.3157  144.3487  150.6022 LP  0  0  0  0  0  0  0  0  0  0  0  0  # atno 17343 bound_to 10162
  157.7492  131.0344  150.4315 LP  0  0  0  0  0  0  0  0  0  0  0  0  # atno 17370 bound_to 10713
  156.4559  130.4021  149.6607 LP  0  0  0  0  0  0  0  0  0  0  0  0  # atno 17371 bound_to 10713
  140.8654  133.8028  155.9308 LP  0  0  0  0  0  0  0  0  0  0  0  0  # atno 17394 bound_to 11000
  140.9007  134.2382  157.5043 LP  0  0  0  0  0  0  0  0  0  0  0  0  # atno 17395 bound_to 11000

$$$$
