AV-unprocessed.smi:3259|AV-procd|sdf|12473|dock5
  -GOLD-   2272018373D 1   1.00000     0.00000
 Structure written by MMmdl.
 39 40  0  0  0  0  0  0  0  0  1 V2000
  152.6391  138.7313  154.9593 C   0  0  0  0  0  0  0  0  0  0  0  0
  151.9148  139.1614  156.1053 O   0  0  0  0  0  0  0  0  0  0  0  0
  150.4921  139.2889  155.9757 C   0  0  2  0  0  0  0  0  0  0  0  0
  150.1312  139.9720  154.6504 C   0  0  0  0  0  0  0  0  0  0  0  0
  149.8826  139.8182  157.2882 C   0  0  0  0  0  0  0  0  0  0  0  0
  149.9114  138.3779  157.7957 C   0  0  1  0  0  0  0  0  0  0  0  0
  148.7417  138.0401  158.5970 N   0  0  0  0  0  0  0  0  0  0  0  0
  148.4468  136.8040  159.0270 C   0  0  0  0  0  0  0  0  0  0  0  0
  149.1876  135.8350  158.8640 O   0  0  0  0  0  0  0  0  0  0  0  0
  147.1015  136.6308  159.7345 C   0  0  0  0  0  0  0  0  0  0  0  0
  147.2844  136.2265  161.1185 N   0  0  0  0  0  0  0  0  0  0  0  0
  146.9236  135.0380  161.7191 C   0  0  0  0  0  0  0  0  0  0  0  0
  147.3195  135.1046  163.0241 C   0  0  0  0  0  0  0  0  0  0  0  0
  147.9194  136.3905  163.1300 C   0  0  0  0  0  0  0  0  0  0  0  0
  147.8962  137.0598  161.9887 N   0  0  0  0  0  0  0  0  0  0  0  0
  149.8390  137.9099  156.3188 C   0  0  0  0  0  0  0  0  0  0  0  0
  148.4322  137.6660  155.7370 C   0  0  0  0  0  0  0  0  0  0  0  0
  150.6535  136.6585  155.9735 C   0  0  0  0  0  0  0  0  0  0  0  0
  153.7063  138.8360  155.1544 H   0  0  0  0  0  0  0  0  0  0  0  0
  152.4064  139.3211  154.0733 H   0  0  0  0  0  0  0  0  0  0  0  0
  152.4553  137.6798  154.7390 H   0  0  0  0  0  0  0  0  0  0  0  0
  149.0546  139.9912  154.4843 H   0  0  0  0  0  0  0  0  0  0  0  0
  150.5835  139.4565  153.8029 H   0  0  0  0  0  0  0  0  0  0  0  0
  150.4580  141.0111  154.6248 H   0  0  0  0  0  0  0  0  0  0  0  0
  150.5009  140.5070  157.8625 H   0  0  0  0  0  0  0  0  0  0  0  0
  148.8746  140.2156  157.1566 H   0  0  0  0  0  0  0  0  0  0  0  0
  150.8632  138.1369  158.2751 H   0  0  0  0  0  0  0  0  0  0  0  0
  148.0806  138.7808  158.7799 H   0  0  0  0  0  0  0  0  0  0  0  0
  146.5350  137.5630  159.7042 H   0  0  0  0  0  0  0  0  0  0  0  0
  146.5084  135.8754  159.2177 H   0  0  0  0  0  0  0  0  0  0  0  0
  146.4260  134.2505  161.1723 H   0  0  0  0  0  0  0  0  0  0  0  0
  147.1997  134.3495  163.7868 H   0  0  0  0  0  0  0  0  0  0  0  0
  148.3679  136.8543  163.9961 H   0  0  0  0  0  0  0  0  0  0  0  0
  147.9696  136.7729  156.1589 H   0  0  0  0  0  0  0  0  0  0  0  0
  148.4662  137.5277  154.6559 H   0  0  0  0  0  0  0  0  0  0  0  0
  147.7541  138.4965  155.9337 H   0  0  0  0  0  0  0  0  0  0  0  0
  150.1530  135.7491  156.3078 H   0  0  0  0  0  0  0  0  0  0  0  0
  151.6346  136.6661  156.4487 H   0  0  0  0  0  0  0  0  0  0  0  0
  150.8139  136.5716  154.8985 H   0  0  0  0  0  0  0  0  0  0  0  0
  1  2  1  0  0  0  0
  1 19  1  0  0  0  0
  1 20  1  0  0  0  0
  1 21  1  0  0  0  0
  2  3  1  0  0  0  0
  3 16  1  0  0  0  0
  3  4  1  0  0  0  0
  3  5  1  0  0  0  0
  4 22  1  0  0  0  0
  4 23  1  0  0  0  0
  4 24  1  0  0  0  0
  5  6  1  0  0  0  0
  5 25  1  0  0  0  0
  5 26  1  0  0  0  0
  6  7  1  0  0  0  0
  6 16  1  0  0  0  0
  6 27  1  0  0  0  0
  7  8  1  0  0  0  0
  7 28  1  0  0  0  0
  8  9  2  0  0  0  0
  8 10  1  0  0  0  0
 10 11  1  0  0  0  0
 10 29  1  0  0  0  0
 10 30  1  0  0  0  0
 11 15  1  0  0  0  0
 11 12  1  0  0  0  0
 12 13  2  0  0  0  0
 12 31  1  0  0  0  0
 13 14  1  0  0  0  0
 13 32  1  0  0  0  0
 14 15  2  0  0  0  0
 14 33  1  0  0  0  0
 16 17  1  0  0  0  0
 16 18  1  0  0  0  0
 17 34  1  0  0  0  0
 17 35  1  0  0  0  0
 17 36  1  0  0  0  0
 18 37  1  0  0  0  0
 18 38  1  0  0  0  0
 18 39  1  0  0  0  0
M  END
> <s_m_source_file>
AV-unprocessed.smi

> <i_m_source_file_index>
3259

> <i_lp_mmshare_version>
43012

> <i_f3d_flags>
0

> <s_epik_input>
W0NIM11PW0NAQF0xKFtDSDNdKVtDSDJdW0NASF0oQzEoW0NIM10pW0NIM10pW05IXUMoPU8pW0NIMl1uMltjSF1bY0hdW2NIXW4y

> <s_epik_cmdline>
J2VwaWtfcHl0aG9uJywgJy1waCcsICc3LjAnLCAnLXRuJywgJzgnLCAnLW1hJywgJzIwMCcsICctbWV0YWxfYmluZGluZycsICctaW1hZScsICc8aW5maWxlLm1hZT4nLCAnLW9tYWUnLCAnPG91dGZpbGUubWFlPic=

> <r_lp_tautomer_probability>
1

> <r_epik_Ionization_Penalty>
1.78399e-05

> <r_epik_Ionization_Penalty_Charging>
0

> <r_epik_Ionization_Penalty_Neutral>
1.78399e-05

> <r_epik_State_Penalty>
-0

> <r_epik_Charging_Adjusted_Penalty>
0

> <i_epik_Tot_Q>
0

> <i_epik_Tot_abs_Q>
0

> <r_epik_Metal_State_Penalty>
-0

> <b_epik_Metal_Only>
0

> <s_lp_Force_Field>
OPLS_2005

> <r_lp_Energy>
22.327

> <b_lp_Chiralities_Consistent>
1

> <s_lp_Variant>
AV-unprocessed.smi:3259-2

> <Gold.Version>
5.8.1

> <Gold.Id.Protein>
6NUR|6NUR_protein|mol2

> <Gold.PLP.Fitness>
37.8243

> <Gold.PLP.PLP>
-30.7679

> <Gold.PLP.part.hbond>
-3.0000

> <Gold.PLP.part.metal>
0.0000

> <Gold.PLP.part.buried>
-4.0480

> <Gold.PLP.part.nonpolar>
-23.9869

> <Gold.PLP.part.repulsive>
0.1319

> <Gold.PLP.ligand.clash>
0.0000

> <Gold.PLP.ligand.torsion>
0.3850

> <Gold.PLP.Chemscore.Hbond>
2.4805

> <Gold.PLP.Chemscore.CHOScore>
0.0000

> <Gold.PLP.Chemscore.Metal>
0.0000

> <Gold.Chemscore.Hbonds>
donor molecule, donor type, donor heavy atom, donor atom, acceptor molecule, acceptor atom, score
      P1  H  6896  6908       L1     9  0.94
      P1  H  6931  6943       L1    15  1.00
      P1  H  6934  6947       L1    15  0.12

> <Gold.PLP.Chemscore.Internal.Correction>
0.3850

> <Gold.Rescore>
     Score         DG    S(hbond)    S(metal)    S(lipo)     H(rot)  DE(clash)    DE(int)     intcor
     15.08     -15.59       1.97        0.00      64.98       1.60       0.01       0.49       ----

> <Gold.Chemscore.Fitness>
15.0850

> <Gold.Chemscore.DG>
-15.5883

> <Gold.Chemscore.ZeroCoef>
-5.4800

> <Gold.Chemscore.Hbond>
1.9736

> <Gold.Chemscore.Metal>
0.0000

> <Gold.Chemscore.Lipo>
64.9791

> <Gold.Chemscore.Internal_Hbond>
0.0000

> <Gold.Chemscore.DEClash>
0.0089

> <Gold.Chemscore.DEInternal>
0.4944

> <Gold.Chemscore.Rot>
1.5962

> <Gold.Chemscore.Internal.Correction>
   9.000000E+99

> <Gold.Chemscore.Hbonds>
donor molecule, donor type, donor heavy atom, donor atom, acceptor molecule, acceptor atom, score
      P1  H  6896  6908       L1     9  0.90
      P1  H  6931  6943       L1    15  0.84
      P1  H  6934  6947       L1    15  0.02

> <Gold.Chemscore.Hbond.Weighted>
-6.5920

> <Gold.Chemscore.Metal.Weighted>
-0.0000

> <Gold.Chemscore.Lipo.Weighted>
-7.6026

> <Gold.Chemscore.Internal_Hbond.Weighted>
0.0000

> <Gold.Chemscore.DEClash.Weighted>
0.0089

> <Gold.Chemscore.DEInternal.Weighted>
0.4944

> <Gold.Chemscore.Rot.Weighted>
4.0862

> <Gold.Chemscore.Internal.Correction.Weighted>
   9.000000E+99

> <Gold.Protein.RotatedTorsions>
[ 6907 6896 6895 6894 ] final -177.96 input  -60.11 | X-H torsion
[ 7974 7965 7964 7962 ] final  140.79 input  175.53 | X-H torsion
[ 8008 7997 7996 7995 ] final  -25.00 input   59.86 | X-H torsion
[ 10167 10162 10161 10158 ] final   22.02 input  -65.29 | X-H torsion
[ 10718 10713 10712 10709 ] final   22.56 input   66.30 | X-H torsion
[ 10763 10752 10751 10750 ] final -140.12 input  -60.55 | X-H torsion
[ 11005 11000 10999 10996 ] final   92.17 input  -57.11 | X-H torsion

> <Gold.Protein.ActiveResidues>
 VAL166  LYS551  ARG553  GLY616  TRP617  ASP618  TYR619  PRO620  LYS621  CYS622 
 ASP623  PHE694  ASN695  SER759  ASP760  ASP761  ALA762  ILE779  LEU786  VAL792 
 PHE793  MET794  SER795  GLU796  ALA797  LYS798  CYS799  TRP800  GLU811  SER814 

> <Gold.Protein.RotatedAtoms>
  151.6295  133.3333  159.3105 H   0  0  0  0  0  0  0  0  0  0  0  0  # atno 6907 bound_to 6896
  150.8064  134.7195  159.6659 H   0  0  0  0  0  0  0  0  0  0  0  0  # atno 6908 bound_to 6896
  152.4159  134.6046  160.0061 H   0  0  0  0  0  0  0  0  0  0  0  0  # atno 6909 bound_to 6896
  144.9155  139.5236  143.5688 H   0  0  0  0  0  0  0  0  0  0  0  0  # atno 7974 bound_to 7965
  154.4499  140.1938  156.0552 H   0  0  0  0  0  0  0  0  0  0  0  0  # atno 8008 bound_to 7997
  156.0624  140.3295  155.7450 H   0  0  0  0  0  0  0  0  0  0  0  0  # atno 8009 bound_to 7997
  155.5391  140.0585  157.2864 H   0  0  0  0  0  0  0  0  0  0  0  0  # atno 8010 bound_to 7997
  140.5381  143.9725  150.6503 H   0  0  0  0  0  0  0  0  0  0  0  0  # atno 10167 bound_to 10162
  157.1541  130.6687  149.6021 H   0  0  0  0  0  0  0  0  0  0  0  0  # atno 10718 bound_to 10713
  154.8588  135.3562  154.5656 H   0  0  0  0  0  0  0  0  0  0  0  0  # atno 10763 bound_to 10752
  153.6270  135.7004  153.5294 H   0  0  0  0  0  0  0  0  0  0  0  0  # atno 10764 bound_to 10752
  153.3081  135.4186  155.1272 H   0  0  0  0  0  0  0  0  0  0  0  0  # atno 10765 bound_to 10752
  139.8827  134.8717  156.3533 H   0  0  0  0  0  0  0  0  0  0  0  0  # atno 11005 bound_to 11000
  146.3180  139.7994  142.8968 LP  0  0  0  0  0  0  0  0  0  0  0  0  # atno 17320 bound_to 7965
  145.3383  141.0282  143.3407 LP  0  0  0  0  0  0  0  0  0  0  0  0  # atno 17321 bound_to 7965
  140.3118  143.3193  152.0871 LP  0  0  0  0  0  0  0  0  0  0  0  0  # atno 17342 bound_to 10162
  139.4978  144.6631  151.6419 LP  0  0  0  0  0  0  0  0  0  0  0  0  # atno 17343 bound_to 10162
  155.9765  130.4734  150.6534 LP  0  0  0  0  0  0  0  0  0  0  0  0  # atno 17370 bound_to 10713
  157.4194  131.0834  151.1146 LP  0  0  0  0  0  0  0  0  0  0  0  0  # atno 17371 bound_to 10713
  140.9579  133.7408  156.0361 LP  0  0  0  0  0  0  0  0  0  0  0  0  # atno 17394 bound_to 11000
  140.8026  134.3492  157.5435 LP  0  0  0  0  0  0  0  0  0  0  0  0  # atno 17395 bound_to 11000

$$$$
