AV-unprocessed.smi:72|AV-procd|sdf|698|dock7
  -GOLD-   2262017 13D 1   1.00000     0.00000
 Structure written by MMmdl.
 30 31  0  0  0  0  0  0  0  0  2 V2000
  142.9846  139.5468  155.1640 N   0  0  0  0  0  0  0  0  0  0  0  0
  144.2853  139.6298  155.6152 C   0  0  0  0  0  0  0  0  0  0  0  0
  145.2836  139.7917  154.6712 N   0  3  0  0  0  0  0  0  0  0  0  0
  146.5920  139.8848  154.9432 C   0  0  0  0  0  0  0  0  0  0  0  0
  146.9917  139.8216  156.1960 N   0  0  0  0  0  0  0  0  0  0  0  0
  148.4553  139.9285  156.5359 C   0  0  1  0  0  0  0  0  0  0  0  0
  149.1234  138.9227  155.8368 O   0  0  0  0  0  0  0  0  0  0  0  0
  150.2938  139.4572  155.2282 C   0  0  1  0  0  0  0  0  0  0  0  0
  150.7590  138.5779  154.0538 C   0  0  0  0  0  0  0  0  0  0  0  0
  149.6860  138.3379  153.1689 O   0  0  0  0  0  0  0  0  0  0  0  0
  149.9158  140.9100  154.9071 C   0  0  1  0  0  0  0  0  0  0  0  0
  149.1926  140.9894  153.6895 O   0  0  0  0  0  0  0  0  0  0  0  0
  149.0619  141.2831  156.1132 C   0  0  1  0  0  0  0  0  0  0  0  0
  148.1372  142.3204  155.8330 O   0  0  0  0  0  0  0  0  0  0  0  0
  146.0404  139.6665  157.2372 C   0  0  0  0  0  0  0  0  0  0  0  0
  146.3991  139.6268  158.4132 O   0  0  0  0  0  0  0  0  0  0  0  0
  144.6947  139.5729  156.8523 N   0  0  0  0  0  0  0  0  0  0  0  0
  148.5501  139.7317  157.6046 H   0  0  0  0  0  0  0  0  0  0  0  0
  151.0709  139.4636  155.9952 H   0  0  0  0  0  0  0  0  0  0  0  0
  150.7955  141.5493  154.8235 H   0  0  0  0  0  0  0  0  0  0  0  0
  149.7126  141.6080  156.9262 H   0  0  0  0  0  0  0  0  0  0  0  0
  142.1929  139.4286  155.7806 H   0  0  0  0  0  0  0  0  0  0  0  0
  142.7187  139.5997  154.1912 H   0  0  0  0  0  0  0  0  0  0  0  0
  147.2998  140.0089  154.1339 H   0  0  0  0  0  0  0  0  0  0  0  0
  151.5512  139.0853  153.5028 H   0  0  0  0  0  0  0  0  0  0  0  0
  151.1713  137.6294  154.3984 H   0  0  0  0  0  0  0  0  0  0  0  0
  149.7092  137.4305  152.9048 H   0  0  0  0  0  0  0  0  0  0  0  0
  149.3808  140.2137  153.1823 H   0  0  0  0  0  0  0  0  0  0  0  0
  148.5724  143.1501  155.9580 H   0  0  0  0  0  0  0  0  0  0  0  0
  145.0007  139.8437  153.7031 H   0  0  0  0  0  0  0  0  0  0  0  0
  1  2  1  0  0  0  0
  1 22  1  0  0  0  0
  1 23  1  0  0  0  0
  2 17  2  0  0  0  0
  2  3  1  0  0  0  0
  3  4  2  0  0  0  0
  3 30  1  0  0  0  0
  4  5  1  0  0  0  0
  4 24  1  0  0  0  0
  5  6  1  0  0  0  0
  5 15  1  0  0  0  0
  6 18  1  0  0  0  0
  6 13  1  0  0  0  0
  6  7  1  0  0  0  0
  7  8  1  0  0  0  0
  8 19  1  0  0  0  0
  8  9  1  0  0  0  0
  8 11  1  0  0  0  0
  9 10  1  0  0  0  0
  9 25  1  0  0  0  0
  9 26  1  0  0  0  0
 10 27  1  0  0  0  0
 11 20  1  0  0  0  0
 11 12  1  0  0  0  0
 11 13  1  0  0  0  0
 12 28  1  0  0  0  0
 13 21  1  0  0  0  0
 13 14  1  0  0  0  0
 14 29  1  0  0  0  0
 15 16  2  0  0  0  0
 15 17  1  0  0  0  0
M  CHG  1   3   1
M  END
> <s_m_source_file>
AV-unprocessed.smi

> <i_m_source_file_index>
72

> <i_lp_mmshare_version>
43012

> <i_f3d_flags>
0

> <s_epik_input>
W05IMl1jMW5bY0hdbihjKD1PKW4xKVtDQEBIXTJPW0NASF0oW0NIMl1bT0hdKVtDQEBIXShbT0hdKVtDQEhdMltPSF0=

> <s_epik_cmdline>
J2VwaWtfcHl0aG9uJywgJy1waCcsICc3LjAnLCAnLXRuJywgJzgnLCAnLW1hJywgJzIwMCcsICctbWV0YWxfYmluZGluZycsICctaW1hZScsICc8aW5maWxlLm1hZT4nLCAnLW9tYWUnLCAnPG91dGZpbGUubWFlPic=

> <r_lp_tautomer_probability>
4.77166e-05

> <r_epik_Ionization_Penalty>
0.104979

> <r_epik_Ionization_Penalty_Charging>
0.0999619

> <r_epik_Ionization_Penalty_Neutral>
0.00501745

> <r_epik_State_Penalty>
2.51541

> <r_epik_Charging_Adjusted_Penalty>
2.61537

> <i_epik_Tot_Q>
1

> <i_epik_Tot_abs_Q>
1

> <r_epik_Metal_State_Penalty>
3.53763

> <b_epik_Metal_Only>
0

> <s_epik_Chemistry_Notes>
This compound contains an acetal/aminal-like group ( X-CH(R)-Y where X, Y are N, S, or O) that may be acid/base labile, releasing an aldehyde.

> <s_lp_Force_Field>
OPLS_2005

> <r_lp_Energy>
38.8596

> <b_lp_Chiralities_Consistent>
1

> <s_lp_Variant>
AV-unprocessed.smi:72-36

> <Gold.Version>
5.8.1

> <Gold.Id.Protein>
6NUR|6NUR_protein|mol2

> <Gold.PLP.Fitness>
37.0071

> <Gold.PLP.PLP>
-18.7292

> <Gold.PLP.part.hbond>
-8.9243

> <Gold.PLP.part.metal>
0.0000

> <Gold.PLP.part.buried>
-0.4483

> <Gold.PLP.part.nonpolar>
-8.6997

> <Gold.PLP.part.repulsive>
0.0363

> <Gold.PLP.ligand.clash>
0.0000

> <Gold.PLP.ligand.torsion>
0.0520

> <Gold.PLP.Chemscore.Hbond>
6.1189

> <Gold.PLP.Chemscore.CHOScore>
0.0000

> <Gold.PLP.Chemscore.Metal>
0.0000

> <Gold.Chemscore.Hbonds>
donor molecule, donor type, donor heavy atom, donor atom, acceptor molecule, acceptor atom, score
      L1  H     1    23       P1 10175  0.56
      L1  H     3    30       P1 10175  1.82
      L1  H    10    27       P1  7948  0.90
      L1  H    12    28       P1  7957  0.55
      L1  H    14    29       P1  8028  1.00
      P1  H  8011  8017       L1    12  0.88

> <Gold.PLP.Chemscore.Internal.Correction>
0.0252

> <Gold.Rescore>
     Score         DG    S(hbond)    S(metal)    S(lipo)     H(rot)  DE(clash)    DE(int)     intcor
     11.26     -11.83       4.07        0.00      27.30       4.08       0.42       0.16       ----

> <Gold.Chemscore.Fitness>
11.2552

> <Gold.Chemscore.DG>
-11.8314

> <Gold.Chemscore.ZeroCoef>
-5.4800

> <Gold.Chemscore.Hbond>
4.0713

> <Gold.Chemscore.Metal>
0.0000

> <Gold.Chemscore.Lipo>
27.2959

> <Gold.Chemscore.Internal_Hbond>
0.0000

> <Gold.Chemscore.DEClash>
0.4154

> <Gold.Chemscore.DEInternal>
0.1608

> <Gold.Chemscore.Rot>
4.0783

> <Gold.Chemscore.Internal.Correction>
   9.000000E+99

> <Gold.Chemscore.Hbonds>
donor molecule, donor type, donor heavy atom, donor atom, acceptor molecule, acceptor atom, score
      L1  H     1    23       P1 10175  0.56
      L1  H     3    30       P1 10175  0.88
      L1  H    10    27       P1  7948  0.44
      L1  H    12    28       P1  7957  0.51
      L1  H    14    29       P1  8028  0.96
      P1  H  8011  8017       L1    12  0.17

> <Gold.Chemscore.Hbond.Weighted>
-13.5982

> <Gold.Chemscore.Metal.Weighted>
-0.0000

> <Gold.Chemscore.Lipo.Weighted>
-3.1936

> <Gold.Chemscore.Internal_Hbond.Weighted>
0.0000

> <Gold.Chemscore.DEClash.Weighted>
0.4154

> <Gold.Chemscore.DEInternal.Weighted>
0.1608

> <Gold.Chemscore.Rot.Weighted>
10.4404

> <Gold.Chemscore.Internal.Correction.Weighted>
   9.000000E+99

> <Gold.Protein.RotatedTorsions>
[ 6907 6896 6895 6894 ] final -161.54 input  -60.11 | X-H torsion
[ 7974 7965 7964 7962 ] final   44.29 input  175.53 | X-H torsion
[ 8008 7997 7996 7995 ] final   62.02 input   59.86 | X-H torsion
[ 10167 10162 10161 10158 ] final  -80.86 input  -65.29 | X-H torsion
[ 10718 10713 10712 10709 ] final  -88.39 input   66.30 | X-H torsion
[ 10763 10752 10751 10750 ] final  143.18 input  -60.55 | X-H torsion
[ 11005 11000 10999 10996 ] final  127.67 input  -57.11 | X-H torsion

> <Gold.Protein.ActiveResidues>
 VAL166  LYS551  ARG553  GLY616  TRP617  ASP618  TYR619  PRO620  LYS621  CYS622 
 ASP623  PHE694  ASN695  SER759  ASP760  ASP761  ALA762  ILE779  LEU786  VAL792 
 PHE793  MET794  SER795  GLU796  ALA797  LYS798  CYS799  TRP800  GLU811  SER814 

> <Gold.Protein.RotatedAtoms>
  151.3663  133.3871  159.2694 H   0  0  0  0  0  0  0  0  0  0  0  0  # atno 6907 bound_to 6896
  150.9686  134.9064  159.7785 H   0  0  0  0  0  0  0  0  0  0  0  0  # atno 6908 bound_to 6896
  152.5176  134.3624  159.9341 H   0  0  0  0  0  0  0  0  0  0  0  0  # atno 6909 bound_to 6896
  146.0582  139.5091  142.9675 H   0  0  0  0  0  0  0  0  0  0  0  0  # atno 7974 bound_to 7965
  155.6077  140.3494  155.4613 H   0  0  0  0  0  0  0  0  0  0  0  0  # atno 8008 bound_to 7997
  156.0179  140.1247  157.0412 H   0  0  0  0  0  0  0  0  0  0  0  0  # atno 8009 bound_to 7997
  154.4304  140.1068  156.5908 H   0  0  0  0  0  0  0  0  0  0  0  0  # atno 8010 bound_to 7997
  140.4465  143.2497  151.8551 H   0  0  0  0  0  0  0  0  0  0  0  0  # atno 10167 bound_to 10162
  155.9984  130.4834  150.5011 H   0  0  0  0  0  0  0  0  0  0  0  0  # atno 10718 bound_to 10713
  153.9681  135.2953  155.3429 H   0  0  0  0  0  0  0  0  0  0  0  0  # atno 10763 bound_to 10752
  154.7337  135.5056  153.9010 H   0  0  0  0  0  0  0  0  0  0  0  0  # atno 10764 bound_to 10752
  153.0913  135.6708  153.9960 H   0  0  0  0  0  0  0  0  0  0  0  0  # atno 10765 bound_to 10752
  139.9519  134.9620  156.8888 H   0  0  0  0  0  0  0  0  0  0  0  0  # atno 11005 bound_to 11000
  145.6607  141.0241  143.1710 LP  0  0  0  0  0  0  0  0  0  0  0  0  # atno 17320 bound_to 7965
  144.7160  139.8197  143.7398 LP  0  0  0  0  0  0  0  0  0  0  0  0  # atno 17321 bound_to 7965
  139.4793  144.5169  151.8855 LP  0  0  0  0  0  0  0  0  0  0  0  0  # atno 17342 bound_to 10162
  140.4258  144.2183  150.5887 LP  0  0  0  0  0  0  0  0  0  0  0  0  # atno 17343 bound_to 10162
  157.2996  131.0642  151.2078 LP  0  0  0  0  0  0  0  0  0  0  0  0  # atno 17370 bound_to 10713
  157.3062  130.6867  149.6190 LP  0  0  0  0  0  0  0  0  0  0  0  0  # atno 17371 bound_to 10713
  140.5698  134.0454  155.7426 LP  0  0  0  0  0  0  0  0  0  0  0  0  # atno 17394 bound_to 11000
  141.1184  133.9502  157.2777 LP  0  0  0  0  0  0  0  0  0  0  0  0  # atno 17395 bound_to 11000

$$$$
