AV-unprocessed.smi:1161|AV-procd|sdf|4918|dock3
  -GOLD-   22720 3503D 1   1.00000     0.00000
 Structure written by MMmdl.
 46 47  0  0  0  0  0  0  0  0  1 V2000
  145.2859  134.0891  150.9208 C   0  0  0  0  0  0  0  0  0  0  0  0
  145.7823  135.5397  150.7892 C   0  0  0  0  0  0  0  0  0  0  0  0
  145.4121  136.4930  151.9537 C   0  0  2  0  0  0  0  0  0  0  0  0
  145.7066  135.8629  153.3330 C   0  0  0  0  0  0  0  0  0  0  0  0
  144.0220  136.7361  151.8509 O   0  0  0  0  0  0  0  0  0  0  0  0
  146.1349  137.8508  151.7369 C   0  0  0  0  0  0  0  0  0  0  0  0
  147.4613  137.9330  152.3444 N   0  0  0  0  0  0  0  0  0  0  0  0
  147.8455  138.8484  153.2443 C   0  0  0  0  0  0  0  0  0  0  0  0
  147.1073  139.7367  153.6691 O   0  0  0  0  0  0  0  0  0  0  0  0
  149.1305  138.6751  153.5968 N   0  0  0  0  0  0  0  0  0  0  0  0
  149.8840  139.4181  154.5440 C   0  0  0  0  0  0  0  0  0  0  0  0
  151.2045  139.0947  154.9314 C   0  0  0  0  0  0  0  0  0  0  0  0
  151.8623  139.9192  155.8641 C   0  0  0  0  0  0  0  0  0  0  0  0
  151.1899  141.0501  156.3839 C   0  0  0  0  0  0  0  0  0  0  0  0
  151.8316  141.8849  157.3237 N   0  0  0  0  0  0  0  0  0  0  0  0
  151.3227  143.2517  157.4037 C   0  0  0  0  0  0  0  0  0  0  0  0
  152.2832  144.1341  158.2202 C   0  0  0  0  0  0  0  0  0  0  0  0
  152.5085  143.5494  159.4988 O   0  0  0  0  0  0  0  0  0  0  0  0
  153.1101  142.2633  159.3938 C   0  0  0  0  0  0  0  0  0  0  0  0
  152.1734  141.3157  158.6257 C   0  0  0  0  0  0  0  0  0  0  0  0
  149.9264  141.3612  156.0030 N   0  0  0  0  0  0  0  0  0  0  0  0
  149.3017  140.5717  155.1046 C   0  0  0  0  0  0  0  0  0  0  0  0
  145.5408  133.5179  150.0279 H   0  0  0  0  0  0  0  0  0  0  0  0
  144.2033  134.0416  151.0381 H   0  0  0  0  0  0  0  0  0  0  0  0
  145.7415  133.5792  151.7688 H   0  0  0  0  0  0  0  0  0  0  0  0
  146.8665  135.5203  150.6719 H   0  0  0  0  0  0  0  0  0  0  0  0
  145.3929  135.9486  149.8555 H   0  0  0  0  0  0  0  0  0  0  0  0
  146.7709  135.6582  153.4505 H   0  0  0  0  0  0  0  0  0  0  0  0
  145.1714  134.9243  153.4733 H   0  0  0  0  0  0  0  0  0  0  0  0
  145.4018  136.5123  154.1539 H   0  0  0  0  0  0  0  0  0  0  0  0
  143.8870  137.4595  151.2571 H   0  0  0  0  0  0  0  0  0  0  0  0
  146.2974  137.9992  150.6689 H   0  0  0  0  0  0  0  0  0  0  0  0
  145.5108  138.6877  152.0572 H   0  0  0  0  0  0  0  0  0  0  0  0
  148.1361  137.2415  152.0522 H   0  0  0  0  0  0  0  0  0  0  0  0
  149.6432  137.9695  153.0887 H   0  0  0  0  0  0  0  0  0  0  0  0
  151.7266  138.2425  154.5243 H   0  0  0  0  0  0  0  0  0  0  0  0
  152.8653  139.6693  156.1765 H   0  0  0  0  0  0  0  0  0  0  0  0
  151.1899  143.6903  156.4157 H   0  0  0  0  0  0  0  0  0  0  0  0
  150.3404  143.2331  157.8773 H   0  0  0  0  0  0  0  0  0  0  0  0
  153.2311  144.2644  157.6958 H   0  0  0  0  0  0  0  0  0  0  0  0
  151.8558  145.1276  158.3553 H   0  0  0  0  0  0  0  0  0  0  0  0
  154.0781  142.3417  158.8962 H   0  0  0  0  0  0  0  0  0  0  0  0
  153.2976  141.8753  160.3950 H   0  0  0  0  0  0  0  0  0  0  0  0
  151.2605  141.1482  159.1989 H   0  0  0  0  0  0  0  0  0  0  0  0
  152.6619  140.3488  158.4977 H   0  0  0  0  0  0  0  0  0  0  0  0
  148.2995  140.8685  154.8317 H   0  0  0  0  0  0  0  0  0  0  0  0
  1  2  1  0  0  0  0
  1 23  1  0  0  0  0
  1 24  1  0  0  0  0
  1 25  1  0  0  0  0
  2  3  1  0  0  0  0
  2 26  1  0  0  0  0
  2 27  1  0  0  0  0
  3  4  1  0  0  0  0
  3  5  1  0  0  0  0
  3  6  1  0  0  0  0
  4 28  1  0  0  0  0
  4 29  1  0  0  0  0
  4 30  1  0  0  0  0
  5 31  1  0  0  0  0
  6  7  1  0  0  0  0
  6 32  1  0  0  0  0
  6 33  1  0  0  0  0
  7  8  1  0  0  0  0
  7 34  1  0  0  0  0
  8  9  2  0  0  0  0
  8 10  1  0  0  0  0
 10 11  1  0  0  0  0
 10 35  1  0  0  0  0
 11 22  1  0  0  0  0
 11 12  2  0  0  0  0
 12 13  1  0  0  0  0
 12 36  1  0  0  0  0
 13 14  2  0  0  0  0
 13 37  1  0  0  0  0
 14 15  1  0  0  0  0
 14 21  1  0  0  0  0
 15 20  1  0  0  0  0
 15 16  1  0  0  0  0
 16 17  1  0  0  0  0
 16 38  1  0  0  0  0
 16 39  1  0  0  0  0
 17 18  1  0  0  0  0
 17 40  1  0  0  0  0
 17 41  1  0  0  0  0
 18 19  1  0  0  0  0
 19 20  1  0  0  0  0
 19 42  1  0  0  0  0
 19 43  1  0  0  0  0
 20 44  1  0  0  0  0
 20 45  1  0  0  0  0
 21 22  2  0  0  0  0
 22 46  1  0  0  0  0
M  END
> <s_m_source_file>
AV-unprocessed.smi

> <i_m_source_file_index>
1161

> <i_lp_mmshare_version>
43012

> <i_f3d_flags>
0

> <s_epik_input>
W0NIM11bQ0gyXVtDQEBdKFtDSDNdKShbT0hdKVtDSDJdW05IXUMoPU8pW05IXWMxW2NIXVtjSF1jKG5bY0hdMSlOMltDSDJdW0NIMl1PW0NIMl1bQ0gyXTI=

> <s_epik_cmdline>
J2VwaWtfcHl0aG9uJywgJy1waCcsICc3LjAnLCAnLXRuJywgJzgnLCAnLW1hJywgJzIwMCcsICctbWV0YWxfYmluZGluZycsICctaW1hZScsICc8aW5maWxlLm1hZT4nLCAnLW9tYWUnLCAnPG91dGZpbGUubWFlPic=

> <r_lp_tautomer_probability>
1

> <r_epik_Ionization_Penalty>
0.00208949

> <r_epik_Ionization_Penalty_Charging>
0

> <r_epik_Ionization_Penalty_Neutral>
0.00208949

> <r_epik_State_Penalty>
0.00140033

> <r_epik_Charging_Adjusted_Penalty>
0.00140033

> <i_epik_Tot_Q>
0

> <i_epik_Tot_abs_Q>
0

> <r_epik_Metal_State_Penalty>
-0

> <b_epik_Metal_Only>
0

> <s_lp_Force_Field>
OPLS_2005

> <r_lp_Energy>
23.4822

> <b_lp_Chiralities_Consistent>
1

> <s_lp_Variant>
AV-unprocessed.smi:1161-2

> <Gold.Version>
5.8.1

> <Gold.Id.Protein>
6NUR|6NUR_protein|mol2

> <Gold.PLP.Fitness>
47.1427

> <Gold.PLP.PLP>
-41.1686

> <Gold.PLP.part.hbond>
-4.1191

> <Gold.PLP.part.metal>
0.0000

> <Gold.PLP.part.buried>
-1.5378

> <Gold.PLP.part.nonpolar>
-37.0709

> <Gold.PLP.part.repulsive>
0.4109

> <Gold.PLP.ligand.clash>
0.0000

> <Gold.PLP.ligand.torsion>
0.9053

> <Gold.PLP.Chemscore.Hbond>
2.4626

> <Gold.PLP.Chemscore.CHOScore>
0.0000

> <Gold.PLP.Chemscore.Metal>
0.0000

> <Gold.Chemscore.Hbonds>
donor molecule, donor type, donor heavy atom, donor atom, acceptor molecule, acceptor atom, score
      L1  H     5    31       P1 10171  1.00
      L1  H     7    34       P1  7948  0.41
      L1  H    10    35       P1  7948  0.38

> <Gold.PLP.Chemscore.Internal.Correction>
0.3967

> <Gold.Rescore>
     Score         DG    S(hbond)    S(metal)    S(lipo)     H(rot)  DE(clash)    DE(int)     intcor
     16.17     -18.80       2.29        0.00      95.68       2.16       0.35       2.28       ----

> <Gold.Chemscore.Fitness>
16.1695

> <Gold.Chemscore.DG>
-18.7986

> <Gold.Chemscore.ZeroCoef>
-5.4800

> <Gold.Chemscore.Hbond>
2.2938

> <Gold.Chemscore.Metal>
0.0000

> <Gold.Chemscore.Lipo>
95.6849

> <Gold.Chemscore.Internal_Hbond>
0.0000

> <Gold.Chemscore.DEClash>
0.3462

> <Gold.Chemscore.DEInternal>
2.2829

> <Gold.Chemscore.Rot>
2.1633

> <Gold.Chemscore.Internal.Correction>
   9.000000E+99

> <Gold.Chemscore.Hbonds>
donor molecule, donor type, donor heavy atom, donor atom, acceptor molecule, acceptor atom, score
      L1  H     5    31       P1 10171  1.00
      L1  H     7    34       P1  7948  0.39
      L1  H    10    35       P1  7948  0.30

> <Gold.Chemscore.Hbond.Weighted>
-7.6614

> <Gold.Chemscore.Metal.Weighted>
-0.0000

> <Gold.Chemscore.Lipo.Weighted>
-11.1951

> <Gold.Chemscore.Internal_Hbond.Weighted>
0.0000

> <Gold.Chemscore.DEClash.Weighted>
0.3462

> <Gold.Chemscore.DEInternal.Weighted>
2.2829

> <Gold.Chemscore.Rot.Weighted>
5.5379

> <Gold.Chemscore.Internal.Correction.Weighted>
   9.000000E+99

> <Gold.Protein.RotatedTorsions>
[ 6907 6896 6895 6894 ] final   58.06 input  -60.11 | X-H torsion
[ 7974 7965 7964 7962 ] final -148.16 input  175.53 | X-H torsion
[ 8008 7997 7996 7995 ] final -120.58 input   59.86 | X-H torsion
[ 10167 10162 10161 10158 ] final  168.01 input  -65.29 | X-H torsion
[ 10718 10713 10712 10709 ] final -126.92 input   66.30 | X-H torsion
[ 10763 10752 10751 10750 ] final  114.24 input  -60.55 | X-H torsion
[ 11005 11000 10999 10996 ] final  122.92 input  -57.11 | X-H torsion

> <Gold.Protein.ActiveResidues>
 VAL166  LYS551  ARG553  GLY616  TRP617  ASP618  TYR619  PRO620  LYS621  CYS622 
 ASP623  PHE694  ASN695  SER759  ASP760  ASP761  ALA762  ILE779  LEU786  VAL792 
 PHE793  MET794  SER795  GLU796  ALA797  LYS798  CYS799  TRP800  GLU811  SER814 

> <Gold.Protein.RotatedAtoms>
  152.3789  134.6621  160.0149 H   0  0  0  0  0  0  0  0  0  0  0  0  # atno 6907 bound_to 6896
  151.6890  133.3305  159.3246 H   0  0  0  0  0  0  0  0  0  0  0  0  # atno 6908 bound_to 6896
  150.7732  134.6651  159.6405 H   0  0  0  0  0  0  0  0  0  0  0  0  # atno 6909 bound_to 6896
  144.8047  140.5232  143.5683 H   0  0  0  0  0  0  0  0  0  0  0  0  # atno 7974 bound_to 7965
  155.1341  140.0400  157.2782 H   0  0  0  0  0  0  0  0  0  0  0  0  # atno 8008 bound_to 7997
  154.6521  140.2571  155.7176 H   0  0  0  0  0  0  0  0  0  0  0  0  # atno 8009 bound_to 7997
  156.2582  140.2834  156.0959 H   0  0  0  0  0  0  0  0  0  0  0  0  # atno 8010 bound_to 7997
  139.4958  144.3861  151.9569 H   0  0  0  0  0  0  0  0  0  0  0  0  # atno 10167 bound_to 10162
  156.1810  130.6731  151.0304 H   0  0  0  0  0  0  0  0  0  0  0  0  # atno 10718 bound_to 10713
  153.5044  135.3631  155.2556 H   0  0  0  0  0  0  0  0  0  0  0  0  # atno 10763 bound_to 10752
  154.8746  135.4007  154.3441 H   0  0  0  0  0  0  0  0  0  0  0  0  # atno 10764 bound_to 10752
  153.4083  135.7077  153.6443 H   0  0  0  0  0  0  0  0  0  0  0  0  # atno 10765 bound_to 10752
  139.9290  134.9641  156.8182 H   0  0  0  0  0  0  0  0  0  0  0  0  # atno 11005 bound_to 11000
  145.5468  139.1476  143.3416 LP  0  0  0  0  0  0  0  0  0  0  0  0  # atno 17320 bound_to 7965
  146.2336  140.5607  142.8965 LP  0  0  0  0  0  0  0  0  0  0  0  0  # atno 17321 bound_to 7965
  140.3298  144.3330  150.5990 LP  0  0  0  0  0  0  0  0  0  0  0  0  # atno 17342 bound_to 10162
  140.5655  143.2187  151.7691 LP  0  0  0  0  0  0  0  0  0  0  0  0  # atno 17343 bound_to 10162
  157.6868  131.0822  150.7221 LP  0  0  0  0  0  0  0  0  0  0  0  0  # atno 17370 bound_to 10713
  156.7278  130.4700  149.5507 LP  0  0  0  0  0  0  0  0  0  0  0  0  # atno 17371 bound_to 10713
  140.6256  133.9953  155.7638 LP  0  0  0  0  0  0  0  0  0  0  0  0  # atno 17394 bound_to 11000
  141.0866  133.9981  157.3304 LP  0  0  0  0  0  0  0  0  0  0  0  0  # atno 17395 bound_to 11000

$$$$
