AV-unprocessed.smi:2691|AV-procd|sdf|10392|dock7
  -GOLD-   2272014423D 1   1.00000     0.00000
 Structure written by MMmdl.
 50 52  0  0  0  0  0  0  0  0  2 V2000
  152.2788  143.5433  160.5954 C   0  0  0  0  0  0  0  0  0  0  0  0
  151.7954  142.7171  159.4156 C   0  0  0  0  0  0  0  0  0  0  0  0
  152.0588  141.3283  159.4118 C   0  0  0  0  0  0  0  0  0  0  0  0
  151.6024  140.5990  158.3200 C   0  0  0  0  0  0  0  0  0  0  0  0
  151.6974  139.2374  158.0224 N   0  3  0  0  0  0  0  0  0  0  0  0
  151.0914  138.9900  156.8278 C   0  0  0  0  0  0  0  0  0  0  0  0
  150.6129  140.1741  156.3586 N   0  0  0  0  0  0  0  0  0  0  0  0
  149.8746  140.4738  155.1248 C   0  0  0  0  0  0  0  0  0  0  0  0
  148.8822  139.3588  154.7398 C   0  0  2  0  0  0  0  0  0  0  0  0
  149.6172  138.3135  154.1327 O   0  0  0  0  0  0  0  0  0  0  0  0
  147.8084  139.8605  153.7492 C   0  0  0  0  0  0  0  0  0  0  0  0
  147.0223  138.7501  153.1871 N   0  0  0  0  0  0  0  0  0  0  0  0
  146.9843  138.6533  151.7821 C   0  0  0  0  0  0  0  0  0  0  0  0
  146.3092  137.7267  151.1803 N   0  0  0  0  0  0  0  0  0  0  0  0
  145.5922  136.7891  151.9321 C   0  0  0  0  0  0  0  0  0  0  0  0
  144.8175  135.7287  151.1603 C   0  0  0  0  0  0  0  0  0  0  0  0
  143.3501  135.6589  151.6124 C   0  0  0  0  0  0  0  0  0  0  0  0
  145.5028  134.3560  151.2454 C   0  0  0  0  0  0  0  0  0  0  0  0
  145.5945  136.8442  153.2862 C   0  0  0  0  0  0  0  0  0  0  0  0
  146.3435  137.8830  153.9928 C   0  0  0  0  0  0  0  0  0  0  0  0
  146.3551  137.9728  155.2204 O   0  0  0  0  0  0  0  0  0  0  0  0
  150.9076  141.2053  157.2558 C   0  0  0  0  0  0  0  0  0  0  0  0
  150.6402  142.5718  157.2426 C   0  0  0  0  0  0  0  0  0  0  0  0
  151.0957  143.3308  158.3442 C   0  0  0  0  0  0  0  0  0  0  0  0
  150.8195  144.8246  158.3577 C   0  0  0  0  0  0  0  0  0  0  0  0
  152.7804  142.9230  161.3387 H   0  0  0  0  0  0  0  0  0  0  0  0
  151.4407  144.0384  161.0868 H   0  0  0  0  0  0  0  0  0  0  0  0
  152.9861  144.3043  160.2649 H   0  0  0  0  0  0  0  0  0  0  0  0
  152.5913  140.8543  160.2234 H   0  0  0  0  0  0  0  0  0  0  0  0
  151.0017  138.0287  156.3426 H   0  0  0  0  0  0  0  0  0  0  0  0
  149.3612  141.4270  155.2578 H   0  0  0  0  0  0  0  0  0  0  0  0
  150.6064  140.6248  154.3299 H   0  0  0  0  0  0  0  0  0  0  0  0
  148.4105  138.9742  155.6448 H   0  0  0  0  0  0  0  0  0  0  0  0
  149.8352  138.5720  153.2497 H   0  0  0  0  0  0  0  0  0  0  0  0
  147.1321  140.5462  154.2637 H   0  0  0  0  0  0  0  0  0  0  0  0
  148.2568  140.4743  152.9654 H   0  0  0  0  0  0  0  0  0  0  0  0
  147.5543  139.4129  151.2441 H   0  0  0  0  0  0  0  0  0  0  0  0
  144.8158  136.0226  150.1093 H   0  0  0  0  0  0  0  0  0  0  0  0
  142.8664  136.6324  151.5260 H   0  0  0  0  0  0  0  0  0  0  0  0
  143.2624  135.3338  152.6497 H   0  0  0  0  0  0  0  0  0  0  0  0
  142.7854  134.9564  150.9988 H   0  0  0  0  0  0  0  0  0  0  0  0
  146.5335  134.4101  150.8930 H   0  0  0  0  0  0  0  0  0  0  0  0
  144.9833  133.6218  150.6294 H   0  0  0  0  0  0  0  0  0  0  0  0
  145.5189  133.9773  152.2676 H   0  0  0  0  0  0  0  0  0  0  0  0
  145.0374  136.1174  153.8594 H   0  0  0  0  0  0  0  0  0  0  0  0
  150.1063  143.0370  156.4272 H   0  0  0  0  0  0  0  0  0  0  0  0
  150.3003  145.1423  157.4530 H   0  0  0  0  0  0  0  0  0  0  0  0
  151.7511  145.3874  158.4205 H   0  0  0  0  0  0  0  0  0  0  0  0
  150.1951  145.0901  159.2110 H   0  0  0  0  0  0  0  0  0  0  0  0
  152.1392  138.5267  158.5917 H   0  0  0  0  0  0  0  0  0  0  0  0
  1  2  1  0  0  0  0
  1 26  1  0  0  0  0
  1 27  1  0  0  0  0
  1 28  1  0  0  0  0
  2 24  1  0  0  0  0
  2  3  2  0  0  0  0
  3  4  1  0  0  0  0
  3 29  1  0  0  0  0
  4 22  2  0  0  0  0
  4  5  1  0  0  0  0
  5  6  2  0  0  0  0
  5 50  1  0  0  0  0
  6  7  1  0  0  0  0
  6 30  1  0  0  0  0
  7  8  1  0  0  0  0
  7 22  1  0  0  0  0
  8  9  1  0  0  0  0
  8 31  1  0  0  0  0
  8 32  1  0  0  0  0
  9 10  1  0  0  0  0
  9 11  1  0  0  0  0
  9 33  1  0  0  0  0
 10 34  1  0  0  0  0
 11 12  1  0  0  0  0
 11 35  1  0  0  0  0
 11 36  1  0  0  0  0
 12 20  1  0  0  0  0
 12 13  1  0  0  0  0
 13 14  2  0  0  0  0
 13 37  1  0  0  0  0
 14 15  1  0  0  0  0
 15 16  1  0  0  0  0
 15 19  2  0  0  0  0
 16 17  1  0  0  0  0
 16 18  1  0  0  0  0
 16 38  1  0  0  0  0
 17 39  1  0  0  0  0
 17 40  1  0  0  0  0
 17 41  1  0  0  0  0
 18 42  1  0  0  0  0
 18 43  1  0  0  0  0
 18 44  1  0  0  0  0
 19 20  1  0  0  0  0
 19 45  1  0  0  0  0
 20 21  2  0  0  0  0
 22 23  1  0  0  0  0
 23 24  2  0  0  0  0
 23 46  1  0  0  0  0
 24 25  1  0  0  0  0
 25 47  1  0  0  0  0
 25 48  1  0  0  0  0
 25 49  1  0  0  0  0
M  CHG  1   5   1
M  END
> <s_m_source_file>
AV-unprocessed.smi

> <i_m_source_file_index>
2691

> <i_lp_mmshare_version>
43012

> <i_f3d_flags>
0

> <s_epik_input>
W0NIM11jKFtjSF0xKWMoW0NIM10pW2NIXWMoYzEyKW4oW2NIXW4yKVtDSDJdW0NASF0oW09IXSlbQ0gyXW4zW2NIXW5jKFtDSF0oW0NIM10pW0NIM10pW2NIXWMzPU8=

> <s_epik_cmdline>
J2VwaWtfcHl0aG9uJywgJy1waCcsICc3LjAnLCAnLXRuJywgJzgnLCAnLW1hJywgJzIwMCcsICctbWV0YWxfYmluZGluZycsICctaW1hZScsICc8aW5maWxlLm1hZT4nLCAnLW9tYWUnLCAnPG91dGZpbGUubWFlPic=

> <r_lp_tautomer_probability>
1

> <r_epik_Ionization_Penalty>
1.0357

> <r_epik_Ionization_Penalty_Charging>
1.03568

> <r_epik_Ionization_Penalty_Neutral>
1.29543e-05

> <r_epik_State_Penalty>
1.08724

> <r_epik_Charging_Adjusted_Penalty>
2.12292

> <i_epik_Tot_Q>
1

> <i_epik_Tot_abs_Q>
1

> <r_epik_Metal_State_Penalty>
1.18376

> <b_epik_Metal_Only>
0

> <s_lp_Force_Field>
OPLS_2005

> <r_lp_Energy>
24.5824

> <b_lp_Chiralities_Consistent>
1

> <s_lp_Variant>
AV-unprocessed.smi:2691-3

> <Gold.Version>
5.8.1

> <Gold.Id.Protein>
6NUR|6NUR_protein|mol2

> <Gold.PLP.Fitness>
50.7454

> <Gold.PLP.PLP>
-46.7925

> <Gold.PLP.part.hbond>
-2.0000

> <Gold.PLP.part.metal>
0.0000

> <Gold.PLP.part.buried>
-4.0405

> <Gold.PLP.part.nonpolar>
-44.3044

> <Gold.PLP.part.repulsive>
2.7546

> <Gold.PLP.ligand.clash>
0.0000

> <Gold.PLP.ligand.torsion>
0.7947

> <Gold.PLP.Chemscore.Hbond>
1.0000

> <Gold.PLP.Chemscore.CHOScore>
0.8206

> <Gold.PLP.Chemscore.Metal>
0.0000

> <Gold.Chemscore.Hbonds>
donor molecule, donor type, donor heavy atom, donor atom, acceptor molecule, acceptor atom, score
      L1  C    13    37       P1  7957  1.00

> <Gold.PLP.Chemscore.Internal.Correction>
0.0805

> <Gold.Rescore>
     Score         DG    S(hbond)    S(metal)    S(lipo)     H(rot)  DE(clash)    DE(int)     intcor
     12.56     -16.30       0.96        0.00     120.19       2.52       1.79       1.95       ----

> <Gold.Chemscore.Fitness>
12.5578

> <Gold.Chemscore.DG>
-16.2984

> <Gold.Chemscore.ZeroCoef>
-5.4800

> <Gold.Chemscore.Hbond>
0.9605

> <Gold.Chemscore.Metal>
0.0000

> <Gold.Chemscore.Lipo>
120.1871

> <Gold.Chemscore.Internal_Hbond>
0.0000

> <Gold.Chemscore.DEClash>
1.7899

> <Gold.Chemscore.DEInternal>
1.9507

> <Gold.Chemscore.Rot>
2.5202

> <Gold.Chemscore.Internal.Correction>
   9.000000E+99

> <Gold.Chemscore.Hbond.Weighted>
-3.2082

> <Gold.Chemscore.Metal.Weighted>
-0.0000

> <Gold.Chemscore.Lipo.Weighted>
-14.0619

> <Gold.Chemscore.Internal_Hbond.Weighted>
0.0000

> <Gold.Chemscore.DEClash.Weighted>
1.7899

> <Gold.Chemscore.DEInternal.Weighted>
1.9507

> <Gold.Chemscore.Rot.Weighted>
6.4517

> <Gold.Chemscore.Internal.Correction.Weighted>
   9.000000E+99

> <Gold.Protein.RotatedTorsions>
[ 6907 6896 6895 6894 ] final  158.42 input  -60.11 | X-H torsion
[ 7974 7965 7964 7962 ] final    6.35 input  175.53 | X-H torsion
[ 8008 7997 7996 7995 ] final  150.52 input   59.86 | X-H torsion
[ 10167 10162 10161 10158 ] final  162.54 input  -65.29 | X-H torsion
[ 10718 10713 10712 10709 ] final -173.92 input   66.30 | X-H torsion
[ 10763 10752 10751 10750 ] final  171.80 input  -60.55 | X-H torsion
[ 11005 11000 10999 10996 ] final -168.31 input  -57.11 | X-H torsion

> <Gold.Protein.ActiveResidues>
 VAL166  LYS551  ARG553  GLY616  TRP617  ASP618  TYR619  PRO620  LYS621  CYS622 
 ASP623  PHE694  ASN695  SER759  ASP760  ASP761  ALA762  ILE779  LEU786  VAL792 
 PHE793  MET794  SER795  GLU796  ALA797  LYS798  CYS799  TRP800  GLU811  SER814 

> <Gold.Protein.RotatedAtoms>
  152.0006  133.3824  159.4179 H   0  0  0  0  0  0  0  0  0  0  0  0  # atno 6907 bound_to 6896
  150.6910  134.3838  159.5055 H   0  0  0  0  0  0  0  0  0  0  0  0  # atno 6908 bound_to 6896
  152.1585  134.8931  160.0594 H   0  0  0  0  0  0  0  0  0  0  0  0  # atno 6909 bound_to 6896
  146.2435  140.0246  142.8395 H   0  0  0  0  0  0  0  0  0  0  0  0  # atno 7974 bound_to 7965
  156.2712  140.2072  156.6031 H   0  0  0  0  0  0  0  0  0  0  0  0  # atno 8008 bound_to 7997
  154.6891  140.0532  157.0369 H   0  0  0  0  0  0  0  0  0  0  0  0  # atno 8009 bound_to 7997
  155.0892  140.3194  155.4581 H   0  0  0  0  0  0  0  0  0  0  0  0  # atno 8010 bound_to 7997
  139.4862  144.4427  151.8931 H   0  0  0  0  0  0  0  0  0  0  0  0  # atno 10167 bound_to 10162
  156.7775  130.9471  151.3120 H   0  0  0  0  0  0  0  0  0  0  0  0  # atno 10718 bound_to 10713
  154.4170  135.2757  155.2000 H   0  0  0  0  0  0  0  0  0  0  0  0  # atno 10763 bound_to 10752
  154.3962  135.6055  153.5874 H   0  0  0  0  0  0  0  0  0  0  0  0  # atno 10764 bound_to 10752
  152.9832  135.5915  154.4460 H   0  0  0  0  0  0  0  0  0  0  0  0  # atno 10765 bound_to 10752
  140.5434  134.5499  157.5105 H   0  0  0  0  0  0  0  0  0  0  0  0  # atno 11005 bound_to 11000
  145.1210  140.9462  143.4600 LP  0  0  0  0  0  0  0  0  0  0  0  0  # atno 17320 bound_to 7965
  145.0481  139.3204  143.5942 LP  0  0  0  0  0  0  0  0  0  0  0  0  # atno 17321 bound_to 7965
  140.3880  144.2652  150.5902 LP  0  0  0  0  0  0  0  0  0  0  0  0  # atno 17342 bound_to 10162
  140.5173  143.2275  151.8444 LP  0  0  0  0  0  0  0  0  0  0  0  0  # atno 17343 bound_to 10162
  157.6662  130.9010  149.9938 LP  0  0  0  0  0  0  0  0  0  0  0  0  # atno 17370 bound_to 10713
  156.1239  130.3645  149.9842 LP  0  0  0  0  0  0  0  0  0  0  0  0  # atno 17371 bound_to 10713
  139.9492  134.7647  156.0489 LP  0  0  0  0  0  0  0  0  0  0  0  0  # atno 17394 bound_to 11000
  141.1214  133.6612  156.3224 LP  0  0  0  0  0  0  0  0  0  0  0  0  # atno 17395 bound_to 11000

$$$$
