AV-unprocessed.smi:2906|AV-procd|sdf|11164|dock10
  -GOLD-   2272016 53D 1   1.00000     0.00000
 Structure written by MMmdl.
 39 40  0  0  0  0  0  0  0  0  2 V2000
  149.1147  133.3092  152.6150 C   0  0  0  0  0  0  0  0  0  0  0  0
  148.6282  134.2649  153.7168 C   0  0  0  0  0  0  0  0  0  0  0  0
  149.5177  134.2679  154.9715 C   0  0  0  0  0  0  0  0  0  0  0  0
  149.6544  133.2343  155.6286 O   0  0  0  0  0  0  0  0  0  0  0  0
  150.1308  135.4198  155.3155 N   0  0  0  0  0  0  0  0  0  0  0  0
  149.9757  136.6663  154.5705 C   0  0  0  0  0  0  0  0  0  0  0  0
  150.6429  137.7492  155.4174 C   0  0  0  0  0  0  0  0  0  0  0  0
  151.6464  136.9960  156.2903 C   0  0  1  0  0  0  0  0  0  0  0  0
  151.8602  137.6404  157.5830 N   0  0  0  0  0  0  0  0  0  0  0  0
  152.3701  138.8665  157.7690 C   0  0  0  0  0  0  0  0  0  0  0  0
  152.7089  139.5446  156.7961 O   0  0  0  0  0  0  0  0  0  0  0  0
  152.4518  139.2330  159.0687 N   0  5  0  0  0  0  0  0  0  0  0  0
  152.5362  140.5334  159.3937 C   0  0  0  0  0  0  0  0  0  0  0  0
  152.2569  141.5205  158.5353 N   0  0  0  0  0  0  0  0  0  0  0  0
  152.4081  142.7976  159.0823 C   0  0  0  0  0  0  0  0  0  0  0  0
  152.1266  144.0089  158.2463 C   0  0  0  0  0  0  0  0  0  0  0  0
  152.2404  145.3094  159.0495 C   0  0  0  0  0  0  0  0  0  0  0  0
  152.8278  142.7770  160.3871 C   0  0  0  0  0  0  0  0  0  0  0  0
  153.0414  141.1507  160.9683 S   0  0  0  0  0  0  0  0  0  0  0  0
  151.0284  135.6028  156.4554 C   0  0  0  0  0  0  0  0  0  0  0  0
  148.4561  133.3560  151.7475 H   0  0  0  0  0  0  0  0  0  0  0  0
  149.1273  132.2750  152.9615 H   0  0  0  0  0  0  0  0  0  0  0  0
  150.1199  133.5659  152.2789 H   0  0  0  0  0  0  0  0  0  0  0  0
  148.5817  135.2773  153.3142 H   0  0  0  0  0  0  0  0  0  0  0  0
  147.6134  133.9883  154.0039 H   0  0  0  0  0  0  0  0  0  0  0  0
  150.4803  136.5693  153.6083 H   0  0  0  0  0  0  0  0  0  0  0  0
  148.9274  136.9026  154.3816 H   0  0  0  0  0  0  0  0  0  0  0  0
  151.1118  138.5266  154.8131 H   0  0  0  0  0  0  0  0  0  0  0  0
  149.8876  138.2285  156.0424 H   0  0  0  0  0  0  0  0  0  0  0  0
  152.5919  136.8984  155.7530 H   0  0  0  0  0  0  0  0  0  0  0  0
  151.5965  137.1180  158.4056 H   0  0  0  0  0  0  0  0  0  0  0  0
  152.8160  144.0467  157.4020 H   0  0  0  0  0  0  0  0  0  0  0  0
  151.1280  143.9406  157.8134 H   0  0  0  0  0  0  0  0  0  0  0  0
  152.0288  146.1746  158.4210 H   0  0  0  0  0  0  0  0  0  0  0  0
  153.2433  145.4329  159.4592 H   0  0  0  0  0  0  0  0  0  0  0  0
  151.5354  145.3205  159.8813 H   0  0  0  0  0  0  0  0  0  0  0  0
  153.0258  143.6146  161.0385 H   0  0  0  0  0  0  0  0  0  0  0  0
  150.4415  135.5380  157.3734 H   0  0  0  0  0  0  0  0  0  0  0  0
  151.8055  134.8385  156.4958 H   0  0  0  0  0  0  0  0  0  0  0  0
  1  2  1  0  0  0  0
  1 21  1  0  0  0  0
  1 22  1  0  0  0  0
  1 23  1  0  0  0  0
  2  3  1  0  0  0  0
  2 24  1  0  0  0  0
  2 25  1  0  0  0  0
  3  4  2  0  0  0  0
  3  5  1  0  0  0  0
  5 20  1  0  0  0  0
  5  6  1  0  0  0  0
  6  7  1  0  0  0  0
  6 26  1  0  0  0  0
  6 27  1  0  0  0  0
  7  8  1  0  0  0  0
  7 28  1  0  0  0  0
  7 29  1  0  0  0  0
  8  9  1  0  0  0  0
  8 20  1  0  0  0  0
  8 30  1  0  0  0  0
  9 10  1  0  0  0  0
  9 31  1  0  0  0  0
 10 11  2  0  0  0  0
 10 12  1  0  0  0  0
 12 13  1  0  0  0  0
 13 19  1  0  0  0  0
 13 14  2  0  0  0  0
 14 15  1  0  0  0  0
 15 16  1  0  0  0  0
 15 18  2  0  0  0  0
 16 17  1  0  0  0  0
 16 32  1  0  0  0  0
 16 33  1  0  0  0  0
 17 34  1  0  0  0  0
 17 35  1  0  0  0  0
 17 36  1  0  0  0  0
 18 19  1  0  0  0  0
 18 37  1  0  0  0  0
 20 38  1  0  0  0  0
 20 39  1  0  0  0  0
M  CHG  1  12  -1
M  END
> <s_m_source_file>
AV-unprocessed.smi

> <i_m_source_file_index>
2906

> <i_lp_mmshare_version>
43012

> <i_f3d_flags>
0

> <s_epik_input>
W0NIM11bQ0gyXUMoPU8pTjFbQ0gyXVtDSDJdW0NASF0oW0NIMl0xKVtOSF1DKD1PKVtOSF1jMm5jKFtjSF1zMilbQ0gyXVtDSDNd

> <s_epik_cmdline>
J2VwaWtfcHl0aG9uJywgJy1waCcsICc3LjAnLCAnLXRuJywgJzgnLCAnLW1hJywgJzIwMCcsICctbWV0YWxfYmluZGluZycsICctaW1hZScsICc8aW5maWxlLm1hZT4nLCAnLW9tYWUnLCAnPG91dGZpbGUubWFlPic=

> <r_lp_tautomer_probability>
1

> <r_epik_Ionization_Penalty>
7.20119

> <r_epik_Ionization_Penalty_Charging>
5.87168

> <r_epik_Ionization_Penalty_Neutral>
1.32951

> <r_epik_State_Penalty>
5.87165

> <r_epik_Charging_Adjusted_Penalty>
11.7433

> <i_epik_Tot_Q>
-1

> <i_epik_Tot_abs_Q>
1

> <r_epik_Metal_State_Penalty>
1.83511

> <b_epik_Metal_Only>
1

> <s_lp_Force_Field>
OPLS_2005

> <r_lp_Energy>
20.3379

> <b_lp_Chiralities_Consistent>
1

> <s_lp_Variant>
AV-unprocessed.smi:2906-3

> <Gold.Version>
5.8.1

> <Gold.Id.Protein>
6NUR|6NUR_protein|mol2

> <Gold.PLP.Fitness>
40.5146

> <Gold.PLP.PLP>
-37.8491

> <Gold.PLP.part.hbond>
-1.0000

> <Gold.PLP.part.metal>
0.0000

> <Gold.PLP.part.buried>
-5.2801

> <Gold.PLP.part.nonpolar>
-32.0303

> <Gold.PLP.part.repulsive>
0.1020

> <Gold.PLP.ligand.clash>
0.0000

> <Gold.PLP.ligand.torsion>
0.1779

> <Gold.PLP.Chemscore.Hbond>
1.0000

> <Gold.PLP.Chemscore.CHOScore>
0.0000

> <Gold.PLP.Chemscore.Metal>
0.0000

> <Gold.Chemscore.Hbonds>
donor molecule, donor type, donor heavy atom, donor atom, acceptor molecule, acceptor atom, score
      P1  H  7997  8009       L1    11  1.00

> <Gold.PLP.Chemscore.Internal.Correction>
0.0213

> <Gold.Rescore>
     Score         DG    S(hbond)    S(metal)    S(lipo)     H(rot)  DE(clash)    DE(int)     intcor
     13.44     -15.49       0.99        0.00      87.50       1.39       0.03       2.02       ----

> <Gold.Chemscore.Fitness>
13.4434

> <Gold.Chemscore.DG>
-15.4861

> <Gold.Chemscore.ZeroCoef>
-5.4800

> <Gold.Chemscore.Hbond>
0.9926

> <Gold.Chemscore.Metal>
0.0000

> <Gold.Chemscore.Lipo>
87.5044

> <Gold.Chemscore.Internal_Hbond>
0.0000

> <Gold.Chemscore.DEClash>
0.0263

> <Gold.Chemscore.DEInternal>
2.0164

> <Gold.Chemscore.Rot>
1.3856

> <Gold.Chemscore.Internal.Correction>
   9.000000E+99

> <Gold.Chemscore.Hbonds>
donor molecule, donor type, donor heavy atom, donor atom, acceptor molecule, acceptor atom, score
      P1  H  7997  8009       L1    11  0.98

> <Gold.Chemscore.Hbond.Weighted>
-3.3152

> <Gold.Chemscore.Metal.Weighted>
-0.0000

> <Gold.Chemscore.Lipo.Weighted>
-10.2380

> <Gold.Chemscore.Internal_Hbond.Weighted>
0.0000

> <Gold.Chemscore.DEClash.Weighted>
0.0263

> <Gold.Chemscore.DEInternal.Weighted>
2.0164

> <Gold.Chemscore.Rot.Weighted>
3.5471

> <Gold.Chemscore.Internal.Correction.Weighted>
   9.000000E+99

> <Gold.Protein.RotatedTorsions>
[ 6907 6896 6895 6894 ] final   -6.56 input  -60.11 | X-H torsion
[ 7974 7965 7964 7962 ] final  -74.04 input  175.53 | X-H torsion
[ 8008 7997 7996 7995 ] final -177.41 input   59.86 | X-H torsion
[ 10167 10162 10161 10158 ] final  109.71 input  -65.29 | X-H torsion
[ 10718 10713 10712 10709 ] final  168.44 input   66.30 | X-H torsion
[ 10763 10752 10751 10750 ] final  -28.24 input  -60.55 | X-H torsion
[ 11005 11000 10999 10996 ] final  125.41 input  -57.11 | X-H torsion

> <Gold.Protein.ActiveResidues>
 VAL166  LYS551  ARG553  GLY616  TRP617  ASP618  TYR619  PRO620  LYS621  CYS622 
 ASP623  PHE694  ASN695  SER759  ASP760  ASP761  ALA762  ILE779  LEU786  VAL792 
 PHE793  MET794  SER795  GLU796  ALA797  LYS798  CYS799  TRP800  GLU811  SER814 

> <Gold.Protein.RotatedAtoms>
  151.4636  135.1040  159.9731 H   0  0  0  0  0  0  0  0  0  0  0  0  # atno 6907 bound_to 6896
  152.4844  133.8330  159.7124 H   0  0  0  0  0  0  0  0  0  0  0  0  # atno 6908 bound_to 6896
  150.8940  133.7144  159.2923 H   0  0  0  0  0  0  0  0  0  0  0  0  # atno 6909 bound_to 6896
  145.6443  140.9302  143.1019 H   0  0  0  0  0  0  0  0  0  0  0  0  # atno 7974 bound_to 7965
  156.0066  140.1232  157.0495 H   0  0  0  0  0  0  0  0  0  0  0  0  # atno 8008 bound_to 7997
  154.4261  140.1096  156.5840 H   0  0  0  0  0  0  0  0  0  0  0  0  # atno 8009 bound_to 7997
  155.6138  140.3471  155.4633 H   0  0  0  0  0  0  0  0  0  0  0  0  # atno 8010 bound_to 7997
  139.6745  144.7123  151.1626 H   0  0  0  0  0  0  0  0  0  0  0  0  # atno 10167 bound_to 10162
  157.0371  131.0276  151.2725 H   0  0  0  0  0  0  0  0  0  0  0  0  # atno 10718 bound_to 10713
  153.7451  135.6930  153.4958 H   0  0  0  0  0  0  0  0  0  0  0  0  # atno 10763 bound_to 10752
  153.2042  135.4425  155.0302 H   0  0  0  0  0  0  0  0  0  0  0  0  # atno 10764 bound_to 10752
  154.8207  135.3420  154.6974 H   0  0  0  0  0  0  0  0  0  0  0  0  # atno 10765 bound_to 10752
  139.9405  134.9636  156.8554 H   0  0  0  0  0  0  0  0  0  0  0  0  # atno 11005 bound_to 11000
  144.7146  139.8244  143.7403 LP  0  0  0  0  0  0  0  0  0  0  0  0  # atno 17320 bound_to 7965
  146.1256  139.4281  143.0201 LP  0  0  0  0  0  0  0  0  0  0  0  0  # atno 17321 bound_to 7965
  140.7630  143.5792  150.8912 LP  0  0  0  0  0  0  0  0  0  0  0  0  # atno 17342 bound_to 10162
  139.9460  143.6327  152.3041 LP  0  0  0  0  0  0  0  0  0  0  0  0  # atno 17343 bound_to 10162
  157.5133  130.7952  149.7728 LP  0  0  0  0  0  0  0  0  0  0  0  0  # atno 17370 bound_to 10713
  156.0050  130.3860  150.2464 LP  0  0  0  0  0  0  0  0  0  0  0  0  # atno 17371 bound_to 10713
  140.5964  134.0213  155.7520 LP  0  0  0  0  0  0  0  0  0  0  0  0  # atno 17394 bound_to 11000
  141.1037  133.9727  157.3034 LP  0  0  0  0  0  0  0  0  0  0  0  0  # atno 17395 bound_to 11000

$$$$
