AV-unprocessed.smi:3124|AV-procd|sdf|11904|dock8
  -GOLD-   2272017283D 1   1.00000     0.00000
 Structure written by MMmdl.
 24 24  0  0  0  0  0  0  0  0  2 V2000
  141.0917  137.0662  154.1963 C   0  0  0  0  0  0  0  0  0  0  0  0
  141.8115  135.8961  153.5926 C   0  0  0  0  0  0  0  0  0  0  0  0
  142.8110  135.9068  152.5760 C   0  0  0  0  0  0  0  0  0  0  0  0
  143.1326  134.5882  152.3994 C   0  0  0  0  0  0  0  0  0  0  0  0
  144.0962  133.8973  151.4838 C   0  0  0  0  0  0  0  0  0  0  0  0
  143.7231  132.4467  151.1192 C   0  0  2  0  0  0  0  0  0  0  0  0
  144.9688  131.5954  150.8374 C   0  0  0  0  0  0  0  0  0  0  0  0
  142.8137  132.4120  149.9584 N   0  3  0  0  0  0  0  0  0  0  0  0
  142.3358  133.8847  153.2738 N   0  0  0  0  0  0  0  0  0  0  0  0
  141.5319  134.6719  154.0116 N   0  0  0  0  0  0  0  0  0  0  0  0
  142.3302  132.8798  153.3783 H   0  0  0  0  0  0  0  0  0  0  0  0
  141.1418  137.9379  153.5436 H   0  0  0  0  0  0  0  0  0  0  0  0
  141.5317  137.3429  155.1545 H   0  0  0  0  0  0  0  0  0  0  0  0
  140.0381  136.8413  154.3653 H   0  0  0  0  0  0  0  0  0  0  0  0
  143.2236  136.7589  152.0568 H   0  0  0  0  0  0  0  0  0  0  0  0
  144.2082  134.4832  150.5703 H   0  0  0  0  0  0  0  0  0  0  0  0
  145.0780  133.9007  151.9588 H   0  0  0  0  0  0  0  0  0  0  0  0
  143.1959  131.9967  151.9614 H   0  0  0  0  0  0  0  0  0  0  0  0
  145.6329  131.5734  151.7023 H   0  0  0  0  0  0  0  0  0  0  0  0
  145.5368  131.9876  149.9931 H   0  0  0  0  0  0  0  0  0  0  0  0
  144.6980  130.5645  150.6069 H   0  0  0  0  0  0  0  0  0  0  0  0
  142.4174  131.4876  149.8661 H   0  0  0  0  0  0  0  0  0  0  0  0
  143.3302  132.6405  149.1205 H   0  0  0  0  0  0  0  0  0  0  0  0
  142.0719  133.0845  150.0897 H   0  0  0  0  0  0  0  0  0  0  0  0
  1  2  1  0  0  0  0
  1 12  1  0  0  0  0
  1 13  1  0  0  0  0
  1 14  1  0  0  0  0
  2 10  2  0  0  0  0
  2  3  1  0  0  0  0
  3  4  2  0  0  0  0
  3 15  1  0  0  0  0
  4  5  1  0  0  0  0
  4  9  1  0  0  0  0
  5  6  1  0  0  0  0
  5 16  1  0  0  0  0
  5 17  1  0  0  0  0
  6  7  1  0  0  0  0
  6  8  1  0  0  0  0
  6 18  1  0  0  0  0
  7 19  1  0  0  0  0
  7 20  1  0  0  0  0
  7 21  1  0  0  0  0
  8 22  1  0  0  0  0
  8 23  1  0  0  0  0
  8 24  1  0  0  0  0
  9 11  1  0  0  0  0
  9 10  1  0  0  0  0
M  CHG  1   8   1
M  END
> <s_m_source_file>
AV-unprocessed.smi

> <i_m_source_file_index>
3124

> <i_lp_mmshare_version>
43012

> <i_f3d_flags>
0

> <s_epik_input>
W0NIM11jMVtjSF1jKFtuSF1uMSlbQ0gyXVtDQEhdKFtDSDNdKVtOSDJd

> <s_epik_cmdline>
J2VwaWtfcHl0aG9uJywgJy1waCcsICc3LjAnLCAnLXRuJywgJzgnLCAnLW1hJywgJzIwMCcsICctbWV0YWxfYmluZGluZycsICctaW1hZScsICc8aW5maWxlLm1hZT4nLCAnLW9tYWUnLCAnPG91dGZpbGUubWFlPic=

> <r_lp_tautomer_probability>
0.5

> <r_epik_Ionization_Penalty>
0.00227197

> <r_epik_Ionization_Penalty_Charging>
0.00223142

> <r_epik_Ionization_Penalty_Neutral>
4.05538e-05

> <r_epik_State_Penalty>
0.446108

> <r_epik_Charging_Adjusted_Penalty>
0.448339

> <i_epik_Tot_Q>
1

> <i_epik_Tot_abs_Q>
1

> <r_epik_Metal_State_Penalty>
0.444886

> <b_epik_Metal_Only>
0

> <s_lp_Force_Field>
OPLS_2005

> <r_lp_Energy>
4.61412

> <b_lp_Chiralities_Consistent>
1

> <s_lp_Variant>
AV-unprocessed.smi:3124-3

> <Gold.Version>
5.8.1

> <Gold.Id.Protein>
6NUR|6NUR_protein|mol2

> <Gold.PLP.Fitness>
34.3593

> <Gold.PLP.PLP>
-21.7569

> <Gold.PLP.part.hbond>
-4.0000

> <Gold.PLP.part.metal>
0.0000

> <Gold.PLP.part.buried>
-6.0973

> <Gold.PLP.part.nonpolar>
-12.3382

> <Gold.PLP.part.repulsive>
0.3274

> <Gold.PLP.ligand.clash>
0.0000

> <Gold.PLP.ligand.torsion>
0.6946

> <Gold.PLP.Chemscore.Hbond>
4.6628

> <Gold.PLP.Chemscore.CHOScore>
0.0000

> <Gold.PLP.Chemscore.Metal>
0.0000

> <Gold.Chemscore.Hbonds>
donor molecule, donor type, donor heavy atom, donor atom, acceptor molecule, acceptor atom, score
      L1  H     8    22       P1 10952  0.96
      L1  H     8    24       P1 10186  2.00
      L1  H     9    11       P1 10957  0.69
      P1  H 11000 11005       L1    10  0.89

> <Gold.PLP.Chemscore.Internal.Correction>
0.0033

> <Gold.Rescore>
     Score         DG    S(hbond)    S(metal)    S(lipo)     H(rot)  DE(clash)    DE(int)     intcor
     18.65     -19.41       3.66        0.00      42.93       1.30       0.01       0.74       ----

> <Gold.Chemscore.Fitness>
18.6510

> <Gold.Chemscore.DG>
-19.4062

> <Gold.Chemscore.ZeroCoef>
-5.4800

> <Gold.Chemscore.Hbond>
3.6610

> <Gold.Chemscore.Metal>
0.0000

> <Gold.Chemscore.Lipo>
42.9324

> <Gold.Chemscore.Internal_Hbond>
0.0000

> <Gold.Chemscore.DEClash>
0.0133

> <Gold.Chemscore.DEInternal>
0.7419

> <Gold.Chemscore.Rot>
1.2987

> <Gold.Chemscore.Internal.Correction>
   9.000000E+99

> <Gold.Chemscore.Hbonds>
donor molecule, donor type, donor heavy atom, donor atom, acceptor molecule, acceptor atom, score
      L1  H     8    22       P1 10952  0.88
      L1  H     8    24       P1 10186  0.98
      L1  H     9    11       P1 10957  0.46
      P1  H 11000 11005       L1    10  0.83

> <Gold.Chemscore.Hbond.Weighted>
-12.2277

> <Gold.Chemscore.Metal.Weighted>
-0.0000

> <Gold.Chemscore.Lipo.Weighted>
-5.0231

> <Gold.Chemscore.Internal_Hbond.Weighted>
0.0000

> <Gold.Chemscore.DEClash.Weighted>
0.0133

> <Gold.Chemscore.DEInternal.Weighted>
0.7419

> <Gold.Chemscore.Rot.Weighted>
3.3246

> <Gold.Chemscore.Internal.Correction.Weighted>
   9.000000E+99

> <Gold.Protein.RotatedTorsions>
[ 6907 6896 6895 6894 ] final -162.34 input  -60.11 | X-H torsion
[ 7974 7965 7964 7962 ] final  -45.62 input  175.53 | X-H torsion
[ 8008 7997 7996 7995 ] final -172.58 input   59.86 | X-H torsion
[ 10167 10162 10161 10158 ] final -107.61 input  -65.29 | X-H torsion
[ 10718 10713 10712 10709 ] final   -0.60 input   66.30 | X-H torsion
[ 10763 10752 10751 10750 ] final  147.88 input  -60.55 | X-H torsion
[ 11005 11000 10999 10996 ] final    3.07 input  -57.11 | X-H torsion

> <Gold.Protein.ActiveResidues>
 VAL166  LYS551  ARG553  GLY616  TRP617  ASP618  TYR619  PRO620  LYS621  CYS622 
 ASP623  PHE694  ASN695  SER759  ASP760  ASP761  ALA762  ILE779  LEU786  VAL792 
 PHE793  MET794  SER795  GLU796  ALA797  LYS798  CYS799  TRP800  GLU811  SER814 

> <Gold.Protein.RotatedAtoms>
  151.3788  133.3828  159.2707 H   0  0  0  0  0  0  0  0  0  0  0  0  # atno 6907 bound_to 6896
  150.9593  134.8984  159.7731 H   0  0  0  0  0  0  0  0  0  0  0  0  # atno 6908 bound_to 6896
  152.5143  134.3747  159.9382 H   0  0  0  0  0  0  0  0  0  0  0  0  # atno 6909 bound_to 6896
  145.9802  140.7291  142.9367 H   0  0  0  0  0  0  0  0  0  0  0  0  # atno 7974 bound_to 7965
  155.9464  140.1118  157.1013 H   0  0  0  0  0  0  0  0  0  0  0  0  # atno 8008 bound_to 7997
  154.4100  140.1209  156.5061 H   0  0  0  0  0  0  0  0  0  0  0  0  # atno 8009 bound_to 7997
  155.6897  140.3472  155.4891 H   0  0  0  0  0  0  0  0  0  0  0  0  # atno 8010 bound_to 7997
  140.1751  143.4011  152.1324 H   0  0  0  0  0  0  0  0  0  0  0  0  # atno 10167 bound_to 10162
  156.8180  130.5447  149.5700 H   0  0  0  0  0  0  0  0  0  0  0  0  # atno 10718 bound_to 10713
  154.0456  135.2886  155.3348 H   0  0  0  0  0  0  0  0  0  0  0  0  # atno 10763 bound_to 10752
  154.6902  135.5229  153.8384 H   0  0  0  0  0  0  0  0  0  0  0  0  # atno 10764 bound_to 10752
  153.0582  135.6603  154.0656 H   0  0  0  0  0  0  0  0  0  0  0  0  # atno 10765 bound_to 10752
  140.5972  133.9869  155.8115 H   0  0  0  0  0  0  0  0  0  0  0  0  # atno 11005 bound_to 11000
  144.6859  140.2896  143.7280 LP  0  0  0  0  0  0  0  0  0  0  0  0  # atno 17320 bound_to 7965
  145.7780  139.1881  143.2174 LP  0  0  0  0  0  0  0  0  0  0  0  0  # atno 17321 bound_to 7965
  139.5320  144.7170  151.5022 LP  0  0  0  0  0  0  0  0  0  0  0  0  # atno 17342 bound_to 10162
  140.6556  143.8606  150.6832 LP  0  0  0  0  0  0  0  0  0  0  0  0  # atno 17343 bound_to 10162
  156.1005  130.5965  150.9886 LP  0  0  0  0  0  0  0  0  0  0  0  0  # atno 17370 bound_to 10713
  157.6471  131.0902  150.8129 LP  0  0  0  0  0  0  0  0  0  0  0  0  # atno 17371 bound_to 10713
  141.0896  133.9937  157.3258 LP  0  0  0  0  0  0  0  0  0  0  0  0  # atno 17394 bound_to 11000
  139.9248  135.0201  156.8195 LP  0  0  0  0  0  0  0  0  0  0  0  0  # atno 17395 bound_to 11000

$$$$
