AV-unprocessed.smi:157|AV-procd|sdf|1306|dock6
  -GOLD-   2262018593D 1   1.00000     0.00000
 Structure written by MMmdl.
 35 37  0  0  0  0  0  0  0  0  1 V2000
  151.6985  136.9681  154.3708 O   0  0  0  0  0  0  0  0  0  0  0  0
  152.0994  137.8551  155.3937 C   0  0  0  0  0  0  0  0  0  0  0  0
  151.7061  139.2959  155.0351 C   0  0  2  0  0  0  0  0  0  0  0  0
  152.2345  140.1708  156.0280 O   0  0  0  0  0  0  0  0  0  0  0  0
  151.3631  141.2427  156.1502 C   0  0  2  0  0  0  0  0  0  0  0  0
  151.5860  141.9024  157.4743 N   0  0  0  0  0  0  0  0  0  0  0  0
  150.9891  143.0179  157.9145 C   0  0  0  0  0  0  0  0  0  0  0  0
  151.3635  143.4010  159.1235 N   0  0  0  0  0  0  0  0  0  0  0  0
  152.2968  142.4391  159.5066 C   0  0  0  0  0  0  0  0  0  0  0  0
  152.4535  141.5026  158.4947 C   0  0  0  0  0  0  0  0  0  0  0  0
  153.2245  140.3735  158.2946 N   0  0  0  0  0  0  0  0  0  0  0  0
  153.7398  139.7977  159.3348 C   0  0  0  0  0  0  0  0  0  0  0  0
  153.7291  140.1829  160.6676 N   0  0  0  0  0  0  0  0  0  0  0  0
  154.0740  141.5227  161.1119 C   0  0  0  0  0  0  0  0  0  0  0  0
  152.9787  142.5613  160.8393 C   0  0  2  0  0  0  0  0  0  0  0  0
  151.9759  142.4497  161.8286 O   0  0  0  0  0  0  0  0  0  0  0  0
  149.9729  140.6320  156.0719 C   0  0  0  0  0  0  0  0  0  0  0  0
  150.1813  139.5523  155.0211 C   0  0  1  0  0  0  0  0  0  0  0  0
  149.7753  140.0264  153.7523 O   0  0  0  0  0  0  0  0  0  0  0  0
  152.1569  139.5776  154.0812 H   0  0  0  0  0  0  0  0  0  0  0  0
  151.5647  141.9924  155.3836 H   0  0  0  0  0  0  0  0  0  0  0  0
  153.4134  143.5559  160.9428 H   0  0  0  0  0  0  0  0  0  0  0  0
  149.6044  138.6590  155.2633 H   0  0  0  0  0  0  0  0  0  0  0  0
  151.5355  137.4692  153.5863 H   0  0  0  0  0  0  0  0  0  0  0  0
  151.6539  137.5522  156.3418 H   0  0  0  0  0  0  0  0  0  0  0  0
  153.1813  137.7793  155.5060 H   0  0  0  0  0  0  0  0  0  0  0  0
  150.2630  143.5655  157.3316 H   0  0  0  0  0  0  0  0  0  0  0  0
  154.2839  138.8628  159.1933 H   0  0  0  0  0  0  0  0  0  0  0  0
  153.9629  139.4944  161.3681 H   0  0  0  0  0  0  0  0  0  0  0  0
  154.3386  141.5067  162.1696 H   0  0  0  0  0  0  0  0  0  0  0  0
  154.9782  141.8172  160.5771 H   0  0  0  0  0  0  0  0  0  0  0  0
  152.0051  143.2259  162.3671 H   0  0  0  0  0  0  0  0  0  0  0  0
  149.7240  140.1789  157.0327 H   0  0  0  0  0  0  0  0  0  0  0  0
  149.2192  141.3801  155.8219 H   0  0  0  0  0  0  0  0  0  0  0  0
  148.8328  140.0975  153.7476 H   0  0  0  0  0  0  0  0  0  0  0  0
  1  2  1  0  0  0  0
  1 24  1  0  0  0  0
  2  3  1  0  0  0  0
  2 25  1  0  0  0  0
  2 26  1  0  0  0  0
  3 20  1  0  0  0  0
  3 18  1  0  0  0  0
  3  4  1  0  0  0  0
  4  5  1  0  0  0  0
  5 21  1  0  0  0  0
  5  6  1  0  0  0  0
  5 17  1  0  0  0  0
  6 10  1  0  0  0  0
  6  7  1  0  0  0  0
  7  8  2  0  0  0  0
  7 27  1  0  0  0  0
  8  9  1  0  0  0  0
  9 15  1  0  0  0  0
  9 10  2  0  0  0  0
 10 11  1  0  0  0  0
 11 12  2  0  0  0  0
 12 13  1  0  0  0  0
 12 28  1  0  0  0  0
 13 14  1  0  0  0  0
 13 29  1  0  0  0  0
 14 15  1  0  0  0  0
 14 30  1  0  0  0  0
 14 31  1  0  0  0  0
 15 22  1  0  0  0  0
 15 16  1  0  0  0  0
 16 32  1  0  0  0  0
 17 18  1  0  0  0  0
 17 33  1  0  0  0  0
 17 34  1  0  0  0  0
 18 23  1  0  0  0  0
 18 19  1  0  0  0  0
 19 35  1  0  0  0  0
M  END
> <s_m_source_file>
AV-unprocessed.smi

> <i_m_source_file_index>
157

> <i_lp_mmshare_version>
43012

> <i_f3d_flags>
0

> <s_epik_input>
W09IXVtDSDJdW0NASF0xT1tDQEhdKFtDSDJdW0NAQEhdMVtPSF0pbihbY0hdbjIpYyhjMjMpTj1bQ0hdW05IXVtDSDJdW0NASF0zW09IXQ==

> <s_epik_cmdline>
J2VwaWtfcHl0aG9uJywgJy1waCcsICc3LjAnLCAnLXRuJywgJzgnLCAnLW1hJywgJzIwMCcsICctbWV0YWxfYmluZGluZycsICctaW1hZScsICc8aW5maWxlLm1hZT4nLCAnLW9tYWUnLCAnPG91dGZpbGUubWFlPic=

> <r_lp_tautomer_probability>
1

> <r_epik_Ionization_Penalty>
0.0357149

> <r_epik_Ionization_Penalty_Charging>
0.0355056

> <r_epik_Ionization_Penalty_Neutral>
0.000209255

> <r_epik_State_Penalty>
0.0296046

> <r_epik_Charging_Adjusted_Penalty>
0.0651102

> <i_epik_Tot_Q>
0

> <i_epik_Tot_abs_Q>
0

> <r_epik_Metal_State_Penalty>
3.03559e-05

> <b_epik_Metal_Only>
0

> <s_epik_Chemistry_Notes>
This compound has an imine and may undergo hydrolysis. This compound contains an acetal/aminal-like group ( X-CH(R)-Y where X, Y are N, S, or O) that may be acid/base labile, releasing an aldehyde.

> <s_lp_Force_Field>
OPLS_2005

> <r_lp_Energy>
43.6155

> <b_lp_Chiralities_Consistent>
1

> <s_lp_Variant>
AV-unprocessed.smi:157-16

> <Gold.Version>
5.8.1

> <Gold.Id.Protein>
6NUR|6NUR_protein|mol2

> <Gold.PLP.Fitness>
47.8250

> <Gold.PLP.PLP>
-36.0622

> <Gold.PLP.part.hbond>
-6.6831

> <Gold.PLP.part.metal>
0.0000

> <Gold.PLP.part.buried>
-5.2165

> <Gold.PLP.part.nonpolar>
-24.3917

> <Gold.PLP.part.repulsive>
0.1014

> <Gold.PLP.ligand.clash>
0.7327

> <Gold.PLP.ligand.torsion>
0.1140

> <Gold.PLP.Chemscore.Hbond>
3.2328

> <Gold.PLP.Chemscore.CHOScore>
1.0000

> <Gold.PLP.Chemscore.Metal>
0.0000

> <Gold.Chemscore.Hbonds>
donor molecule, donor type, donor heavy atom, donor atom, acceptor molecule, acceptor atom, score
      P1  H  6933  6945       L1    16  0.70
      P1  H  7989  7998       L1    19  0.40
      P1  H  7997  8009       L1    11  0.86
      P1  H 10752 10763       L1     1  1.00
      L1  C     7    27       P1  8028  1.00

> <Gold.PLP.Chemscore.Internal.Correction>
0.0251

> <Gold.Rescore>
     Score         DG    S(hbond)    S(metal)    S(lipo)     H(rot)  DE(clash)    DE(int)     intcor
      6.96      -9.17       1.89        0.00      57.16       3.64       0.35       1.87       ----

> <Gold.Chemscore.Fitness>
6.9555

> <Gold.Chemscore.DG>
-9.1682

> <Gold.Chemscore.ZeroCoef>
-5.4800

> <Gold.Chemscore.Hbond>
1.8890

> <Gold.Chemscore.Metal>
0.0000

> <Gold.Chemscore.Lipo>
57.1603

> <Gold.Chemscore.Internal_Hbond>
0.0000

> <Gold.Chemscore.DEClash>
0.3466

> <Gold.Chemscore.DEInternal>
1.8660

> <Gold.Chemscore.Rot>
3.6362

> <Gold.Chemscore.Internal.Correction>
   9.000000E+99

> <Gold.Chemscore.Hbonds>
donor molecule, donor type, donor heavy atom, donor atom, acceptor molecule, acceptor atom, score
      P1  H  6933  6945       L1    16  0.20
      P1  H  7989  7998       L1    19  0.02
      P1  H  7997  8009       L1    11  0.25
      P1  H 10752 10763       L1     1  0.52

> <Gold.Chemscore.Hbond.Weighted>
-6.3091

> <Gold.Chemscore.Metal.Weighted>
-0.0000

> <Gold.Chemscore.Lipo.Weighted>
-6.6878

> <Gold.Chemscore.Internal_Hbond.Weighted>
0.0000

> <Gold.Chemscore.DEClash.Weighted>
0.3466

> <Gold.Chemscore.DEInternal.Weighted>
1.8660

> <Gold.Chemscore.Rot.Weighted>
9.3087

> <Gold.Chemscore.Internal.Correction.Weighted>
   9.000000E+99

> <Gold.Protein.RotatedTorsions>
[ 6907 6896 6895 6894 ] final -138.98 input  -60.11 | X-H torsion
[ 7974 7965 7964 7962 ] final  158.10 input  175.53 | X-H torsion
[ 8008 7997 7996 7995 ] final  155.80 input   59.86 | X-H torsion
[ 10167 10162 10161 10158 ] final -156.34 input  -65.29 | X-H torsion
[ 10718 10713 10712 10709 ] final  -74.04 input   66.30 | X-H torsion
[ 10763 10752 10751 10750 ] final   26.95 input  -60.55 | X-H torsion
[ 11005 11000 10999 10996 ] final  153.96 input  -57.11 | X-H torsion

> <Gold.Protein.ActiveResidues>
 VAL166  LYS551  ARG553  GLY616  TRP617  ASP618  TYR619  PRO620  LYS621  CYS622 
 ASP623  PHE694  ASN695  SER759  ASP760  ASP761  ALA762  ILE779  LEU786  VAL792 
 PHE793  MET794  SER795  GLU796  ALA797  LYS798  CYS799  TRP800  GLU811  SER814 

> <Gold.Protein.RotatedAtoms>
  151.0420  133.5698  159.2650 H   0  0  0  0  0  0  0  0  0  0  0  0  # atno 6907 bound_to 6896
  151.2741  135.0693  159.9155 H   0  0  0  0  0  0  0  0  0  0  0  0  # atno 6908 bound_to 6896
  152.5366  134.0145  159.8007 H   0  0  0  0  0  0  0  0  0  0  0  0  # atno 6909 bound_to 6896
  144.7865  139.7431  143.6239 H   0  0  0  0  0  0  0  0  0  0  0  0  # atno 7974 bound_to 7965
  156.2458  140.1930  156.6857 H   0  0  0  0  0  0  0  0  0  0  0  0  # atno 8008 bound_to 7997
  154.6289  140.0598  156.9734 H   0  0  0  0  0  0  0  0  0  0  0  0  # atno 8009 bound_to 7997
  155.1742  140.3271  155.4389 H   0  0  0  0  0  0  0  0  0  0  0  0  # atno 8010 bound_to 7997
  139.6858  143.9503  152.2360 H   0  0  0  0  0  0  0  0  0  0  0  0  # atno 10167 bound_to 10162
  156.0257  130.4408  150.2832 H   0  0  0  0  0  0  0  0  0  0  0  0  # atno 10718 bound_to 10713
  153.0588  135.6548  154.0513 H   0  0  0  0  0  0  0  0  0  0  0  0  # atno 10763 bound_to 10752
  154.0185  135.2922  155.3385 H   0  0  0  0  0  0  0  0  0  0  0  0  # atno 10764 bound_to 10752
  154.6916  135.5280  153.8468 H   0  0  0  0  0  0  0  0  0  0  0  0  # atno 10765 bound_to 10752
  140.1445  134.8716  157.2374 H   0  0  0  0  0  0  0  0  0  0  0  0  # atno 11005 bound_to 11000
  146.2099  139.5448  142.9688 LP  0  0  0  0  0  0  0  0  0  0  0  0  # atno 17320 bound_to 7965
  145.5908  141.0370  143.2071 LP  0  0  0  0  0  0  0  0  0  0  0  0  # atno 17321 bound_to 7965
  139.9306  144.6744  150.8367 LP  0  0  0  0  0  0  0  0  0  0  0  0  # atno 17342 bound_to 10162
  140.7667  143.3311  151.2408 LP  0  0  0  0  0  0  0  0  0  0  0  0  # atno 17343 bound_to 10162
  157.0936  131.0176  151.3112 LP  0  0  0  0  0  0  0  0  0  0  0  0  # atno 17370 bound_to 10713
  157.4835  130.7779  149.7437 LP  0  0  0  0  0  0  0  0  0  0  0  0  # atno 17371 bound_to 10713
  140.2681  134.3493  155.7383 LP  0  0  0  0  0  0  0  0  0  0  0  0  # atno 17394 bound_to 11000
  141.2191  133.7407  156.9181 LP  0  0  0  0  0  0  0  0  0  0  0  0  # atno 17395 bound_to 11000

$$$$
