AV-unprocessed.smi:3034|AV-procd|sdf|11578|dock1
  -GOLD-   2272016543D 1   1.00000     0.00000
 Structure written by MMmdl.
 32 32  0  0  0  0  0  0  0  0  1 V2000
  147.3043  139.5248  153.0500 C   0  0  0  0  0  0  0  0  0  0  0  0
  147.0697  139.9908  154.4907 C   0  0  0  0  0  0  0  0  0  0  0  0
  148.2991  139.7776  155.3850 C   0  0  0  0  0  0  0  0  0  0  0  0
  149.6499  140.9648  154.9760 S   0  0  0  0  0  0  0  0  0  0  0  0
  150.9360  140.2504  154.9734 O   0  0  0  0  0  0  0  0  0  0  0  0
  149.2441  141.7701  153.8145 O   0  0  0  0  0  0  0  0  0  0  0  0
  149.6400  142.0118  156.3442 N   0  0  0  0  0  0  0  0  0  0  0  0
  150.8219  142.0224  157.2064 C   0  0  0  0  0  0  0  0  0  0  0  0
  150.5876  142.9017  158.4473 C   0  0  1  0  0  0  0  0  0  0  0  0
  149.2482  142.7393  158.8752 O   0  0  0  0  0  0  0  0  0  0  0  0
  151.5874  142.5688  159.5481 C   0  0  0  0  0  0  0  0  0  0  0  0
  152.6349  141.6405  159.3451 C   0  0  0  0  0  0  0  0  0  0  0  0
  153.5353  141.3993  160.4007 C   0  0  0  0  0  0  0  0  0  0  0  0
  153.3622  142.0938  161.6128 C   0  0  0  0  0  0  0  0  0  0  0  0
  152.2923  143.0042  161.7152 C   0  0  0  0  0  0  0  0  0  0  0  0
  151.4239  143.2431  160.7093 N   0  0  0  0  0  0  0  0  0  0  0  0
  146.4169  139.6915  152.4391 H   0  0  0  0  0  0  0  0  0  0  0  0
  147.5379  138.4605  153.0136 H   0  0  0  0  0  0  0  0  0  0  0  0
  148.1310  140.0667  152.5903 H   0  0  0  0  0  0  0  0  0  0  0  0
  146.8010  141.0475  154.4867 H   0  0  0  0  0  0  0  0  0  0  0  0
  146.2149  139.4555  154.9048 H   0  0  0  0  0  0  0  0  0  0  0  0
  148.0285  139.9341  156.4293 H   0  0  0  0  0  0  0  0  0  0  0  0
  148.6915  138.7645  155.2961 H   0  0  0  0  0  0  0  0  0  0  0  0
  149.3817  142.9603  156.0726 H   0  0  0  0  0  0  0  0  0  0  0  0
  151.0875  141.0028  157.4886 H   0  0  0  0  0  0  0  0  0  0  0  0
  151.6553  142.4207  156.6259 H   0  0  0  0  0  0  0  0  0  0  0  0
  150.7183  143.9519  158.1804 H   0  0  0  0  0  0  0  0  0  0  0  0
  148.8662  142.0232  158.3914 H   0  0  0  0  0  0  0  0  0  0  0  0
  152.7553  141.1240  158.4044 H   0  0  0  0  0  0  0  0  0  0  0  0
  154.3460  140.6957  160.2813 H   0  0  0  0  0  0  0  0  0  0  0  0
  154.0340  141.9346  162.4432 H   0  0  0  0  0  0  0  0  0  0  0  0
  152.1307  143.5568  162.6289 H   0  0  0  0  0  0  0  0  0  0  0  0
  1  2  1  0  0  0  0
  1 17  1  0  0  0  0
  1 18  1  0  0  0  0
  1 19  1  0  0  0  0
  2  3  1  0  0  0  0
  2 20  1  0  0  0  0
  2 21  1  0  0  0  0
  3  4  1  0  0  0  0
  3 22  1  0  0  0  0
  3 23  1  0  0  0  0
  4  5  2  0  0  0  0
  4  6  2  0  0  0  0
  4  7  1  0  0  0  0
  7  8  1  0  0  0  0
  7 24  1  0  0  0  0
  8  9  1  0  0  0  0
  8 25  1  0  0  0  0
  8 26  1  0  0  0  0
  9 10  1  0  0  0  0
  9 11  1  0  0  0  0
  9 27  1  0  0  0  0
 10 28  1  0  0  0  0
 11 16  1  0  0  0  0
 11 12  2  0  0  0  0
 12 13  1  0  0  0  0
 12 29  1  0  0  0  0
 13 14  2  0  0  0  0
 13 30  1  0  0  0  0
 14 15  1  0  0  0  0
 14 31  1  0  0  0  0
 15 16  2  0  0  0  0
 15 32  1  0  0  0  0
M  END
> <s_m_source_file>
AV-unprocessed.smi

> <i_m_source_file_index>
3034

> <i_lp_mmshare_version>
43012

> <i_f3d_flags>
0

> <s_epik_input>
W0NIM11bQ0gyXVtDSDJdUyg9TykoPU8pW05IXVtDSDJdW0NASF0oW09IXSljMVtjSF1bY0hdW2NIXVtjSF1uMQ==

> <s_epik_cmdline>
J2VwaWtfcHl0aG9uJywgJy1waCcsICc3LjAnLCAnLXRuJywgJzgnLCAnLW1hJywgJzIwMCcsICctbWV0YWxfYmluZGluZycsICctaW1hZScsICc8aW5maWxlLm1hZT4nLCAnLW9tYWUnLCAnPG91dGZpbGUubWFlPic=

> <r_epik_Ionization_Penalty>
0.00187371

> <r_epik_Ionization_Penalty_Charging>
0

> <r_epik_Ionization_Penalty_Neutral>
0.00187371

> <r_epik_State_Penalty>
0.0012608

> <r_epik_Charging_Adjusted_Penalty>
0.0012608

> <i_epik_Tot_Q>
0

> <i_epik_Tot_abs_Q>
0

> <r_epik_Metal_State_Penalty>
0.0168387

> <b_epik_Metal_Only>
0

> <s_lp_Force_Field>
OPLS_2005

> <r_lp_Energy>
4.76334

> <b_lp_Chiralities_Consistent>
1

> <s_lp_Variant>
AV-unprocessed.smi:3034-2

> <Gold.Version>
5.8.1

> <Gold.Id.Protein>
6NUR|6NUR_protein|mol2

> <Gold.PLP.Fitness>
41.7757

> <Gold.PLP.PLP>
-34.5643

> <Gold.PLP.part.hbond>
-4.9090

> <Gold.PLP.part.metal>
0.0000

> <Gold.PLP.part.buried>
-3.9546

> <Gold.PLP.part.nonpolar>
-24.5508

> <Gold.PLP.part.repulsive>
0.3535

> <Gold.PLP.ligand.clash>
0.0000

> <Gold.PLP.ligand.torsion>
0.5366

> <Gold.PLP.Chemscore.Hbond>
2.6240

> <Gold.PLP.Chemscore.CHOScore>
0.0000

> <Gold.PLP.Chemscore.Metal>
0.0000

> <Gold.Chemscore.Hbonds>
donor molecule, donor type, donor heavy atom, donor atom, acceptor molecule, acceptor atom, score
      L1  H     7    24       P1  8028  1.00
      P1  H  7989  7998       L1     5  1.00
      P1  H  8011  8017       L1     6  0.59

> <Gold.PLP.Chemscore.Internal.Correction>
0.4126

> <Gold.Rescore>
     Score         DG    S(hbond)    S(metal)    S(lipo)     H(rot)  DE(clash)    DE(int)     intcor
     16.21     -16.70       2.58        0.00      79.76       2.63       0.03       0.46       ----

> <Gold.Chemscore.Fitness>
16.2075

> <Gold.Chemscore.DG>
-16.7046

> <Gold.Chemscore.ZeroCoef>
-5.4800

> <Gold.Chemscore.Hbond>
2.5806

> <Gold.Chemscore.Metal>
0.0000

> <Gold.Chemscore.Lipo>
79.7593

> <Gold.Chemscore.Internal_Hbond>
0.0000

> <Gold.Chemscore.DEClash>
0.0339

> <Gold.Chemscore.DEInternal>
0.4633

> <Gold.Chemscore.Rot>
2.6275

> <Gold.Chemscore.Internal.Correction>
   9.000000E+99

> <Gold.Chemscore.Hbonds>
donor molecule, donor type, donor heavy atom, donor atom, acceptor molecule, acceptor atom, score
      L1  H     7    24       P1  8028  1.00
      P1  H  7989  7998       L1     5  0.25
      P1  H  8011  8017       L1     6  0.60

> <Gold.Chemscore.Hbond.Weighted>
-8.6193

> <Gold.Chemscore.Metal.Weighted>
-0.0000

> <Gold.Chemscore.Lipo.Weighted>
-9.3318

> <Gold.Chemscore.Internal_Hbond.Weighted>
0.0000

> <Gold.Chemscore.DEClash.Weighted>
0.0339

> <Gold.Chemscore.DEInternal.Weighted>
0.4633

> <Gold.Chemscore.Rot.Weighted>
6.7265

> <Gold.Chemscore.Internal.Correction.Weighted>
   9.000000E+99

> <Gold.Protein.RotatedTorsions>
[ 6907 6896 6895 6894 ] final  -82.21 input  -60.11 | X-H torsion
[ 7974 7965 7964 7962 ] final  -88.80 input  175.53 | X-H torsion
[ 8008 7997 7996 7995 ] final  102.29 input   59.86 | X-H torsion
[ 10167 10162 10161 10158 ] final   50.31 input  -65.29 | X-H torsion
[ 10718 10713 10712 10709 ] final  126.86 input   66.30 | X-H torsion
[ 10763 10752 10751 10750 ] final  -97.26 input  -60.55 | X-H torsion
[ 11005 11000 10999 10996 ] final  140.48 input  -57.11 | X-H torsion

> <Gold.Protein.ActiveResidues>
 VAL166  LYS551  ARG553  GLY616  TRP617  ASP618  TYR619  PRO620  LYS621  CYS622 
 ASP623  PHE694  ASN695  SER759  ASP760  ASP761  ALA762  ILE779  LEU786  VAL792 
 PHE793  MET794  SER795  GLU796  ALA797  LYS798  CYS799  TRP800  GLU811  SER814 

> <Gold.Protein.RotatedAtoms>
  150.6900  134.3699  159.4987 H   0  0  0  0  0  0  0  0  0  0  0  0  # atno 6907 bound_to 6896
  152.1516  134.8981  160.0557 H   0  0  0  0  0  0  0  0  0  0  0  0  # atno 6908 bound_to 6896
  152.0076  133.3814  159.4243 H   0  0  0  0  0  0  0  0  0  0  0  0  # atno 6909 bound_to 6896
  145.4483  140.9560  143.2036 H   0  0  0  0  0  0  0  0  0  0  0  0  # atno 7974 bound_to 7965
  156.1379  140.3183  155.8449 H   0  0  0  0  0  0  0  0  0  0  0  0  # atno 8008 bound_to 7997
  155.4210  140.0512  157.3043 H   0  0  0  0  0  0  0  0  0  0  0  0  # atno 8009 bound_to 7997
  154.4952  140.2108  155.9475 H   0  0  0  0  0  0  0  0  0  0  0  0  # atno 8010 bound_to 7997
  140.2737  144.3236  150.6283 H   0  0  0  0  0  0  0  0  0  0  0  0  # atno 10167 bound_to 10162
  157.5383  131.1097  150.8900 H   0  0  0  0  0  0  0  0  0  0  0  0  # atno 10718 bound_to 10713
  154.7312  135.5053  153.8967 H   0  0  0  0  0  0  0  0  0  0  0  0  # atno 10763 bound_to 10752
  153.0951  135.6670  153.9786 H   0  0  0  0  0  0  0  0  0  0  0  0  # atno 10764 bound_to 10752
  153.9587  135.3050  155.3414 H   0  0  0  0  0  0  0  0  0  0  0  0  # atno 10765 bound_to 10752
  140.0331  134.9342  157.0700 H   0  0  0  0  0  0  0  0  0  0  0  0  # atno 11005 bound_to 11000
  144.8077  139.6020  143.7043 LP  0  0  0  0  0  0  0  0  0  0  0  0  # atno 17320 bound_to 7965
  146.2518  139.6216  142.9422 LP  0  0  0  0  0  0  0  0  0  0  0  0  # atno 17321 bound_to 7965
  140.5869  143.2169  151.7326 LP  0  0  0  0  0  0  0  0  0  0  0  0  # atno 17342 bound_to 10162
  139.4981  144.3998  152.0193 LP  0  0  0  0  0  0  0  0  0  0  0  0  # atno 17343 bound_to 10162
  156.9461  130.5402  149.5281 LP  0  0  0  0  0  0  0  0  0  0  0  0  # atno 17370 bound_to 10713
  156.0476  130.5550  150.8916 LP  0  0  0  0  0  0  0  0  0  0  0  0  # atno 17371 bound_to 10713
  140.4193  134.1898  155.7164 LP  0  0  0  0  0  0  0  0  0  0  0  0  # atno 17394 bound_to 11000
  141.1842  133.8349  157.1148 LP  0  0  0  0  0  0  0  0  0  0  0  0  # atno 17395 bound_to 11000

$$$$
