AV-unprocessed.smi:1695|AV-procd|sdf|6794|dock10
  -GOLD-   22720 7563D 1   1.00000     0.00000
 Structure written by MMmdl.
 52 54  0  0  0  0  0  0  0  0  3 V2000
  152.8788  143.4245  161.1687 C   0  0  0  0  0  0  0  0  0  0  0  0
  152.5518  142.7105  159.8681 C   0  0  0  0  0  0  0  0  0  0  0  0
  151.5192  143.2296  159.0548 C   0  0  0  0  0  0  0  0  0  0  0  0
  151.2424  142.5534  157.8726 C   0  0  0  0  0  0  0  0  0  0  0  0
  150.3028  142.8066  156.8706 N   0  3  0  0  0  0  0  0  0  0  0  0
  150.4084  141.8593  155.8979 C   0  0  0  0  0  0  0  0  0  0  0  0
  151.3981  141.0009  156.2676 N   0  0  0  0  0  0  0  0  0  0  0  0
  151.9202  139.8089  155.5860 C   0  0  0  0  0  0  0  0  0  0  0  0
  150.8132  138.9539  154.9374 C   0  0  1  0  0  0  0  0  0  0  0  0
  150.2541  139.6653  153.8501 O   0  0  0  0  0  0  0  0  0  0  0  0
  151.3608  137.6087  154.4210 C   0  0  0  0  0  0  0  0  0  0  0  0
  150.3814  136.5004  154.5623 N   0  3  1  0  0  0  0  0  0  0  0  0
  151.0320  135.1665  154.5127 C   0  0  0  0  0  0  0  0  0  0  0  0
  149.9877  134.0335  154.5087 C   0  0  0  0  0  0  0  0  0  0  0  0
  148.9976  134.1126  155.6897 C   0  0  1  0  0  0  0  0  0  0  0  0
  149.6130  133.6303  157.0167 C   0  0  0  0  0  0  0  0  0  0  0  0
  149.0708  132.5462  157.5769 N   0  0  0  0  0  0  0  0  0  0  0  0
  150.5595  134.2195  157.5340 O   0  0  0  0  0  0  0  0  0  0  0  0
  148.4215  135.5416  155.7810 C   0  0  0  0  0  0  0  0  0  0  0  0
  149.5035  136.6387  155.7543 C   0  0  0  0  0  0  0  0  0  0  0  0
  151.9516  141.3986  157.4893 C   0  0  0  0  0  0  0  0  0  0  0  0
  152.9740  140.8752  158.2772 C   0  0  0  0  0  0  0  0  0  0  0  0
  153.2701  141.5485  159.4839 C   0  0  0  0  0  0  0  0  0  0  0  0
  154.3783  141.0001  160.3665 C   0  0  0  0  0  0  0  0  0  0  0  0
  152.2479  144.3023  161.3119 H   0  0  0  0  0  0  0  0  0  0  0  0
  153.9173  143.7565  161.1735 H   0  0  0  0  0  0  0  0  0  0  0  0
  152.7232  142.7604  162.0192 H   0  0  0  0  0  0  0  0  0  0  0  0
  150.9690  144.1145  159.3408 H   0  0  0  0  0  0  0  0  0  0  0  0
  149.8130  141.7988  154.9978 H   0  0  0  0  0  0  0  0  0  0  0  0
  152.6298  140.1490  154.8301 H   0  0  0  0  0  0  0  0  0  0  0  0
  152.4931  139.2250  156.3078 H   0  0  0  0  0  0  0  0  0  0  0  0
  150.0257  138.7873  155.6708 H   0  0  0  0  0  0  0  0  0  0  0  0
  149.8354  139.0473  153.2700 H   0  0  0  0  0  0  0  0  0  0  0  0
  151.6330  137.7300  153.3709 H   0  0  0  0  0  0  0  0  0  0  0  0
  152.2817  137.3426  154.9425 H   0  0  0  0  0  0  0  0  0  0  0  0
  151.6331  135.0889  153.6060 H   0  0  0  0  0  0  0  0  0  0  0  0
  151.7222  135.0619  155.3502 H   0  0  0  0  0  0  0  0  0  0  0  0
  149.4247  134.0769  153.5754 H   0  0  0  0  0  0  0  0  0  0  0  0
  150.4939  133.0671  154.5035 H   0  0  0  0  0  0  0  0  0  0  0  0
  148.1677  133.4407  155.4642 H   0  0  0  0  0  0  0  0  0  0  0  0
  149.4362  132.1880  158.4474 H   0  0  0  0  0  0  0  0  0  0  0  0
  148.2931  132.0858  157.1258 H   0  0  0  0  0  0  0  0  0  0  0  0
  147.7402  135.6999  154.9438 H   0  0  0  0  0  0  0  0  0  0  0  0
  147.8139  135.6474  156.6809 H   0  0  0  0  0  0  0  0  0  0  0  0
  150.1073  136.6117  156.6615 H   0  0  0  0  0  0  0  0  0  0  0  0
  149.0092  137.6089  155.7479 H   0  0  0  0  0  0  0  0  0  0  0  0
  153.5214  139.9915  157.9844 H   0  0  0  0  0  0  0  0  0  0  0  0
  154.8264  140.1044  159.9351 H   0  0  0  0  0  0  0  0  0  0  0  0
  153.9896  140.7365  161.3503 H   0  0  0  0  0  0  0  0  0  0  0  0
  155.1690  141.7400  160.4927 H   0  0  0  0  0  0  0  0  0  0  0  0
  149.7853  136.5491  153.7482 H   0  0  0  0  0  0  0  0  0  0  0  0
  149.6393  143.5708  156.8484 H   0  0  0  0  0  0  0  0  0  0  0  0
  1  2  1  0  0  0  0
  1 25  1  0  0  0  0
  1 26  1  0  0  0  0
  1 27  1  0  0  0  0
  2 23  1  0  0  0  0
  2  3  2  0  0  0  0
  3  4  1  0  0  0  0
  3 28  1  0  0  0  0
  4 21  2  0  0  0  0
  4  5  1  0  0  0  0
  5  6  2  0  0  0  0
  5 52  1  0  0  0  0
  6  7  1  0  0  0  0
  6 29  1  0  0  0  0
  7  8  1  0  0  0  0
  7 21  1  0  0  0  0
  8  9  1  0  0  0  0
  8 30  1  0  0  0  0
  8 31  1  0  0  0  0
  9 10  1  0  0  0  0
  9 11  1  0  0  0  0
  9 32  1  0  0  0  0
 10 33  1  0  0  0  0
 11 12  1  0  0  0  0
 11 34  1  0  0  0  0
 11 35  1  0  0  0  0
 12 20  1  0  0  0  0
 12 13  1  0  0  0  0
 12 51  1  0  0  0  0
 13 14  1  0  0  0  0
 13 36  1  0  0  0  0
 13 37  1  0  0  0  0
 14 15  1  0  0  0  0
 14 38  1  0  0  0  0
 14 39  1  0  0  0  0
 15 16  1  0  0  0  0
 15 19  1  0  0  0  0
 15 40  1  0  0  0  0
 16 17  1  0  0  0  0
 16 18  2  0  0  0  0
 17 41  1  0  0  0  0
 17 42  1  0  0  0  0
 19 20  1  0  0  0  0
 19 43  1  0  0  0  0
 19 44  1  0  0  0  0
 20 45  1  0  0  0  0
 20 46  1  0  0  0  0
 21 22  1  0  0  0  0
 22 23  2  0  0  0  0
 22 47  1  0  0  0  0
 23 24  1  0  0  0  0
 24 48  1  0  0  0  0
 24 49  1  0  0  0  0
 24 50  1  0  0  0  0
M  CHG  1   5   1
M  CHG  1  12   1
M  END
> <s_m_source_file>
AV-unprocessed.smi

> <i_m_source_file_index>
1695

> <i_lp_mmshare_version>
43012

> <i_f3d_flags>
0

> <s_epik_input>
W0NIM11jKFtjSF0xKWMoW0NIM10pW2NIXWMoYzEyKW4oW2NIXW4yKVtDSDJdW0NASF0oW09IXSlbQ0gyXU4zW0NIMl1bQ0gyXVtDSF0oQyg9TylbTkgyXSlbQ0gyXVtDSDJdMw==

> <s_epik_cmdline>
J2VwaWtfcHl0aG9uJywgJy1waCcsICc3LjAnLCAnLXRuJywgJzgnLCAnLW1hJywgJzIwMCcsICctbWV0YWxfYmluZGluZycsICctaW1hZScsICc8aW5maWxlLm1hZT4nLCAnLW9tYWUnLCAnPG91dGZpbGUubWFlPic=

> <r_epik_Ionization_Penalty>
1.20173

> <r_epik_Ionization_Penalty_Charging>
1.20172

> <r_epik_Ionization_Penalty_Neutral>
1.7852e-06

> <r_epik_State_Penalty>
1.28089

> <r_epik_Charging_Adjusted_Penalty>
2.48261

> <i_epik_Tot_Q>
2

> <i_epik_Tot_abs_Q>
2

> <r_epik_Metal_State_Penalty>
1.35652

> <b_epik_Metal_Only>
0

> <s_lp_Force_Field>
OPLS_2005

> <r_lp_Energy>
25.0715

> <b_lp_Chiralities_Consistent>
1

> <s_lp_Variant>
AV-unprocessed.smi:1695-6

> <Gold.Version>
5.8.1

> <Gold.Id.Protein>
6NUR|6NUR_protein|mol2

> <Gold.PLP.Fitness>
61.7054

> <Gold.PLP.PLP>
-45.6868

> <Gold.PLP.part.hbond>
-5.0000

> <Gold.PLP.part.metal>
0.0000

> <Gold.PLP.part.buried>
-5.7595

> <Gold.PLP.part.nonpolar>
-35.3998

> <Gold.PLP.part.repulsive>
0.1087

> <Gold.PLP.ligand.clash>
0.0000

> <Gold.PLP.ligand.torsion>
1.0467

> <Gold.PLP.Chemscore.Hbond>
6.0208

> <Gold.PLP.Chemscore.CHOScore>
0.0000

> <Gold.PLP.Chemscore.Metal>
0.0000

> <Gold.Chemscore.Hbonds>
donor molecule, donor type, donor heavy atom, donor atom, acceptor molecule, acceptor atom, score
      L1  H     5    52       P1  8028  1.63
      L1  H    10    33       P1  7957  0.04
      L1  H    12    51       P1  7948  1.89
      P1  H  6896  6907       L1    18  0.62
      P1  H  7989  7998       L1    10  0.98

> <Gold.PLP.Chemscore.Internal.Correction>
0.0495

> <Gold.Rescore>
     Score         DG    S(hbond)    S(metal)    S(lipo)     H(rot)  DE(clash)    DE(int)     intcor
     20.57     -23.25       3.54        0.00     114.53       2.91       0.60       2.07       ----

> <Gold.Chemscore.Fitness>
20.5716

> <Gold.Chemscore.DG>
-23.2457

> <Gold.Chemscore.ZeroCoef>
-5.4800

> <Gold.Chemscore.Hbond>
3.5394

> <Gold.Chemscore.Metal>
0.0000

> <Gold.Chemscore.Lipo>
114.5341

> <Gold.Chemscore.Internal_Hbond>
0.0000

> <Gold.Chemscore.DEClash>
0.6014

> <Gold.Chemscore.DEInternal>
2.0727

> <Gold.Chemscore.Rot>
2.9127

> <Gold.Chemscore.Internal.Correction>
   9.000000E+99

> <Gold.Chemscore.Hbonds>
donor molecule, donor type, donor heavy atom, donor atom, acceptor molecule, acceptor atom, score
      L1  H     5    52       P1  8028  0.80
      L1  H    10    33       P1  7957  0.05
      L1  H    12    51       P1  7948  0.40
      P1  H  6896  6907       L1    18  0.56
      P1  H  7989  7998       L1    10  0.28

> <Gold.Chemscore.Hbond.Weighted>
-11.8217

> <Gold.Chemscore.Metal.Weighted>
-0.0000

> <Gold.Chemscore.Lipo.Weighted>
-13.4005

> <Gold.Chemscore.Internal_Hbond.Weighted>
0.0000

> <Gold.Chemscore.DEClash.Weighted>
0.6014

> <Gold.Chemscore.DEInternal.Weighted>
2.0727

> <Gold.Chemscore.Rot.Weighted>
7.4565

> <Gold.Chemscore.Internal.Correction.Weighted>
   9.000000E+99

> <Gold.Protein.RotatedTorsions>
[ 6907 6896 6895 6894 ] final -108.12 input  -60.11 | X-H torsion
[ 7974 7965 7964 7962 ] final  -55.43 input  175.53 | X-H torsion
[ 8008 7997 7996 7995 ] final   17.41 input   59.86 | X-H torsion
[ 10167 10162 10161 10158 ] final -133.89 input  -65.29 | X-H torsion
[ 10718 10713 10712 10709 ] final -150.36 input   66.30 | X-H torsion
[ 10763 10752 10751 10750 ] final  -37.73 input  -60.55 | X-H torsion
[ 11005 11000 10999 10996 ] final  -72.53 input  -57.11 | X-H torsion

> <Gold.Protein.ActiveResidues>
 VAL166  LYS551  ARG553  GLY616  TRP617  ASP618  TYR619  PRO620  LYS621  CYS622 
 ASP623  PHE694  ASN695  SER759  ASP760  ASP761  ALA762  ILE779  LEU786  VAL792 
 PHE793  MET794  SER795  GLU796  ALA797  LYS798  CYS799  TRP800  GLU811  SER814 

> <Gold.Protein.RotatedAtoms>
  150.7483  133.9724  159.3549 H   0  0  0  0  0  0  0  0  0  0  0  0  # atno 6907 bound_to 6896
  151.7659  135.0796  160.0362 H   0  0  0  0  0  0  0  0  0  0  0  0  # atno 6908 bound_to 6896
  152.3372  133.5988  159.5887 H   0  0  0  0  0  0  0  0  0  0  0  0  # atno 6909 bound_to 6896
  145.8743  140.8193  142.9872 H   0  0  0  0  0  0  0  0  0  0  0  0  # atno 7974 bound_to 7965
  154.8910  140.2987  155.5371 H   0  0  0  0  0  0  0  0  0  0  0  0  # atno 8008 bound_to 7997
  156.3021  140.2424  156.3859 H   0  0  0  0  0  0  0  0  0  0  0  0  # atno 8009 bound_to 7997
  154.8619  140.0405  157.1659 H   0  0  0  0  0  0  0  0  0  0  0  0  # atno 8010 bound_to 7997
  139.8937  143.6692  152.2608 H   0  0  0  0  0  0  0  0  0  0  0  0  # atno 10167 bound_to 10162
  156.4451  130.8140  151.2371 H   0  0  0  0  0  0  0  0  0  0  0  0  # atno 10718 bound_to 10713
  153.9012  135.6802  153.4755 H   0  0  0  0  0  0  0  0  0  0  0  0  # atno 10763 bound_to 10752
  153.1128  135.4775  154.9062 H   0  0  0  0  0  0  0  0  0  0  0  0  # atno 10764 bound_to 10752
  154.7574  135.3201  154.8398 H   0  0  0  0  0  0  0  0  0  0  0  0  # atno 10765 bound_to 10752
  141.1610  133.6850  156.7073 H   0  0  0  0  0  0  0  0  0  0  0  0  # atno 11005 bound_to 11000
  144.6726  140.1286  143.7445 LP  0  0  0  0  0  0  0  0  0  0  0  0  # atno 17320 bound_to 7965
  145.9100  139.2481  143.1443 LP  0  0  0  0  0  0  0  0  0  0  0  0  # atno 17321 bound_to 7965
  139.7087  144.7624  151.1149 LP  0  0  0  0  0  0  0  0  0  0  0  0  # atno 17342 bound_to 10162
  140.7721  143.5360  150.9368 LP  0  0  0  0  0  0  0  0  0  0  0  0  # atno 17343 bound_to 10162
  157.7505  131.0156  150.3510 LP  0  0  0  0  0  0  0  0  0  0  0  0  # atno 17370 bound_to 10713
  156.3876  130.3892  149.7054 LP  0  0  0  0  0  0  0  0  0  0  0  0  # atno 17371 bound_to 10713
  140.2914  134.8237  157.4020 LP  0  0  0  0  0  0  0  0  0  0  0  0  # atno 17394 bound_to 11000
  140.1343  134.5054  155.8080 LP  0  0  0  0  0  0  0  0  0  0  0  0  # atno 17395 bound_to 11000

$$$$
