AV-unprocessed.smi:181|AV-procd|sdf|1454|dock8
  -GOLD-   2262019253D 1   1.00000     0.00000
 Structure written by MMmdl.
 50 53  0  0  0  0  0  0  0  0  1 V2000
  147.6664  136.2645  158.5557 C   0  0  0  0  0  0  0  0  0  0  0  0
  147.3629  136.8713  157.1805 C   0  0  0  0  0  0  0  0  0  0  0  0
  148.3393  136.4882  156.1580 N   0  0  0  0  0  0  0  0  0  0  0  0
  149.1494  137.4688  155.6778 C   0  0  0  0  0  0  0  0  0  0  0  0
  149.8792  137.2495  154.5537 N   0  0  0  0  0  0  0  0  0  0  0  0
  150.6805  138.2027  154.0703 C   0  0  0  0  0  0  0  0  0  0  0  0
  150.8941  139.4316  154.5434 N   0  0  0  0  0  0  0  0  0  0  0  0
  150.1542  139.6647  155.6646 C   0  0  0  0  0  0  0  0  0  0  0  0
  149.2674  138.7463  156.2949 C   0  0  0  0  0  0  0  0  0  0  0  0
  148.6846  139.3409  157.4081 N   0  0  0  0  0  0  0  0  0  0  0  0
  149.2069  140.5361  157.4412 C   0  0  0  0  0  0  0  0  0  0  0  0
  150.0912  140.8194  156.4249 N   0  0  0  0  0  0  0  0  0  0  0  0
  150.8070  142.0692  156.2172 C   0  0  0  0  0  0  0  0  0  0  0  0
  151.0280  142.8948  157.5098 C   0  0  0  0  0  0  0  0  0  0  0  0
  149.7802  143.4480  157.8902 O   0  0  0  0  0  0  0  0  0  0  0  0
  151.5574  142.0395  158.6823 C   0  0  0  0  0  0  0  0  0  0  0  0
  151.9733  142.9018  159.8876 C   0  0  0  0  0  0  0  0  0  0  0  0
  152.9219  143.8823  159.4854 O   0  0  0  0  0  0  0  0  0  0  0  0
  152.3949  144.7983  158.5335 C   0  0  0  0  0  0  0  0  0  0  0  0
  152.0112  144.0525  157.2432 C   0  0  0  0  0  0  0  0  0  0  0  0
  148.5710  135.0657  155.8509 C   0  0  1  0  0  0  0  0  0  0  0  0
  147.7302  134.5464  154.6677 C   0  0  0  0  0  0  0  0  0  0  0  0
  148.5941  133.4472  154.0320 C   0  0  0  0  0  0  0  0  0  0  0  0
  149.9433  133.7506  154.4722 N   0  0  0  0  0  0  0  0  0  0  0  0
  149.9877  134.6527  155.4523 C   0  0  0  0  0  0  0  0  0  0  0  0
  151.0111  135.0866  155.9769 O   0  0  0  0  0  0  0  0  0  0  0  0
  146.9603  136.6289  159.3017 H   0  0  0  0  0  0  0  0  0  0  0  0
  148.6698  136.5286  158.8905 H   0  0  0  0  0  0  0  0  0  0  0  0
  147.5878  135.1778  158.5383 H   0  0  0  0  0  0  0  0  0  0  0  0
  146.3716  136.5579  156.8520 H   0  0  0  0  0  0  0  0  0  0  0  0
  147.3073  137.9540  157.2912 H   0  0  0  0  0  0  0  0  0  0  0  0
  151.2277  137.9439  153.1761 H   0  0  0  0  0  0  0  0  0  0  0  0
  148.9514  141.2531  158.2077 H   0  0  0  0  0  0  0  0  0  0  0  0
  151.7684  141.8294  155.7611 H   0  0  0  0  0  0  0  0  0  0  0  0
  150.2616  142.6584  155.4785 H   0  0  0  0  0  0  0  0  0  0  0  0
  149.4224  143.9193  157.1535 H   0  0  0  0  0  0  0  0  0  0  0  0
  150.8128  141.3083  158.9988 H   0  0  0  0  0  0  0  0  0  0  0  0
  152.4253  141.4695  158.3479 H   0  0  0  0  0  0  0  0  0  0  0  0
  151.1072  143.3834  160.3439 H   0  0  0  0  0  0  0  0  0  0  0  0
  152.4239  142.2732  160.6558 H   0  0  0  0  0  0  0  0  0  0  0  0
  151.5375  145.3261  158.9541 H   0  0  0  0  0  0  0  0  0  0  0  0
  153.1522  145.5516  158.3164 H   0  0  0  0  0  0  0  0  0  0  0  0
  152.9221  143.6556  156.7928 H   0  0  0  0  0  0  0  0  0  0  0  0
  151.5922  144.7513  156.5176 H   0  0  0  0  0  0  0  0  0  0  0  0
  148.3215  134.4766  156.7349 H   0  0  0  0  0  0  0  0  0  0  0  0
  146.7579  134.1706  154.9878 H   0  0  0  0  0  0  0  0  0  0  0  0
  147.5457  135.3217  153.9235 H   0  0  0  0  0  0  0  0  0  0  0  0
  148.3112  132.4607  154.4011 H   0  0  0  0  0  0  0  0  0  0  0  0
  148.5208  133.4436  152.9441 H   0  0  0  0  0  0  0  0  0  0  0  0
  150.7606  133.3360  154.0485 H   0  0  0  0  0  0  0  0  0  0  0  0
  1  2  1  0  0  0  0
  1 27  1  0  0  0  0
  1 28  1  0  0  0  0
  1 29  1  0  0  0  0
  2  3  1  0  0  0  0
  2 30  1  0  0  0  0
  2 31  1  0  0  0  0
  3  4  1  0  0  0  0
  3 21  1  0  0  0  0
  4  9  1  0  0  0  0
  4  5  2  0  0  0  0
  5  6  1  0  0  0  0
  6  7  2  0  0  0  0
  6 32  1  0  0  0  0
  7  8  1  0  0  0  0
  8 12  1  0  0  0  0
  8  9  2  0  0  0  0
  9 10  1  0  0  0  0
 10 11  2  0  0  0  0
 11 12  1  0  0  0  0
 11 33  1  0  0  0  0
 12 13  1  0  0  0  0
 13 14  1  0  0  0  0
 13 34  1  0  0  0  0
 13 35  1  0  0  0  0
 14 20  1  0  0  0  0
 14 15  1  0  0  0  0
 14 16  1  0  0  0  0
 15 36  1  0  0  0  0
 16 17  1  0  0  0  0
 16 37  1  0  0  0  0
 16 38  1  0  0  0  0
 17 18  1  0  0  0  0
 17 39  1  0  0  0  0
 17 40  1  0  0  0  0
 18 19  1  0  0  0  0
 19 20  1  0  0  0  0
 19 41  1  0  0  0  0
 19 42  1  0  0  0  0
 20 43  1  0  0  0  0
 20 44  1  0  0  0  0
 21 25  1  0  0  0  0
 21 22  1  0  0  0  0
 21 45  1  0  0  0  0
 22 23  1  0  0  0  0
 22 46  1  0  0  0  0
 22 47  1  0  0  0  0
 23 24  1  0  0  0  0
 23 48  1  0  0  0  0
 23 49  1  0  0  0  0
 24 25  1  0  0  0  0
 24 50  1  0  0  0  0
 25 26  2  0  0  0  0
M  END
> <s_m_source_file>
AV-unprocessed.smi

> <i_m_source_file_index>
181

> <i_lp_mmshare_version>
43012

> <i_f3d_flags>
0

> <s_epik_input>
Tz1DMVtOSF1bQ0gyXVtDSDJdW0NASF0xTihbQ0gyXVtDSDNdKWMobltjSF1uMiljKGMyMyluW2NIXW4zW0NIMl1DNChbT0hdKVtDSDJdW0NIMl1PW0NIMl1bQ0gyXTQ=

> <s_epik_cmdline>
J2VwaWtfcHl0aG9uJywgJy1waCcsICc3LjAnLCAnLXRuJywgJzgnLCAnLW1hJywgJzIwMCcsICctbWV0YWxfYmluZGluZycsICctaW1hZScsICc8aW5maWxlLm1hZT4nLCAnLW9tYWUnLCAnPG91dGZpbGUubWFlPic=

> <r_lp_tautomer_probability>
1

> <r_epik_Ionization_Penalty>
0.000985257

> <r_epik_Ionization_Penalty_Charging>
0

> <r_epik_Ionization_Penalty_Neutral>
0.000985257

> <r_epik_State_Penalty>
0.000517047

> <r_epik_Charging_Adjusted_Penalty>
0.000517047

> <i_epik_Tot_Q>
0

> <i_epik_Tot_abs_Q>
0

> <r_epik_Metal_State_Penalty>
-0

> <b_epik_Metal_Only>
0

> <s_lp_Force_Field>
OPLS_2005

> <r_lp_Energy>
36.1044

> <b_lp_Chiralities_Consistent>
1

> <s_lp_Variant>
AV-unprocessed.smi:181-2

> <Gold.Version>
5.8.1

> <Gold.Id.Protein>
6NUR|6NUR_protein|mol2

> <Gold.PLP.Fitness>
44.5108

> <Gold.PLP.PLP>
-35.1943

> <Gold.PLP.part.hbond>
-3.1614

> <Gold.PLP.part.metal>
0.0000

> <Gold.PLP.part.buried>
-4.9791

> <Gold.PLP.part.nonpolar>
-28.7757

> <Gold.PLP.part.repulsive>
1.0080

> <Gold.PLP.ligand.clash>
0.0000

> <Gold.PLP.ligand.torsion>
1.3456

> <Gold.PLP.Chemscore.Hbond>
3.0000

> <Gold.PLP.Chemscore.CHOScore>
0.9106

> <Gold.PLP.Chemscore.Metal>
0.0000

> <Gold.Chemscore.Hbonds>
donor molecule, donor type, donor heavy atom, donor atom, acceptor molecule, acceptor atom, score
      L1  H    15    36       P1  8028  1.00
      P1  H  7989  7998       L1     7  1.00
      P1  H 10752 10763       L1    26  0.28
      L1  C     6    32       P1  7949  0.88

> <Gold.PLP.Chemscore.Internal.Correction>
0.2757

> <Gold.Rescore>
     Score         DG    S(hbond)    S(metal)    S(lipo)     H(rot)  DE(clash)    DE(int)     intcor
      9.09     -17.43       2.52        0.00      84.73       2.49       1.61       6.73       ----

> <Gold.Chemscore.Fitness>
9.0948

> <Gold.Chemscore.DG>
-17.4330

> <Gold.Chemscore.ZeroCoef>
-5.4800

> <Gold.Chemscore.Hbond>
2.5189

> <Gold.Chemscore.Metal>
0.0000

> <Gold.Chemscore.Lipo>
84.7305

> <Gold.Chemscore.Internal_Hbond>
0.0000

> <Gold.Chemscore.DEClash>
1.6077

> <Gold.Chemscore.DEInternal>
6.7305

> <Gold.Chemscore.Rot>
2.4897

> <Gold.Chemscore.Internal.Correction>
   9.000000E+99

> <Gold.Chemscore.Hbonds>
donor molecule, donor type, donor heavy atom, donor atom, acceptor molecule, acceptor atom, score
      L1  H    15    36       P1  8028  0.55
      P1  H  7989  7998       L1     7  0.98
      P1  H 10752 10763       L1    26  0.26

> <Gold.Chemscore.Hbond.Weighted>
-8.4130

> <Gold.Chemscore.Metal.Weighted>
-0.0000

> <Gold.Chemscore.Lipo.Weighted>
-9.9135

> <Gold.Chemscore.Internal_Hbond.Weighted>
0.0000

> <Gold.Chemscore.DEClash.Weighted>
1.6077

> <Gold.Chemscore.DEInternal.Weighted>
6.7305

> <Gold.Chemscore.Rot.Weighted>
6.3735

> <Gold.Chemscore.Internal.Correction.Weighted>
   9.000000E+99

> <Gold.Protein.RotatedTorsions>
[ 6907 6896 6895 6894 ] final -144.46 input  -60.11 | X-H torsion
[ 7974 7965 7964 7962 ] final  139.39 input  175.53 | X-H torsion
[ 8008 7997 7996 7995 ] final  -73.54 input   59.86 | X-H torsion
[ 10167 10162 10161 10158 ] final  -61.68 input  -65.29 | X-H torsion
[ 10718 10713 10712 10709 ] final -111.86 input   66.30 | X-H torsion
[ 10763 10752 10751 10750 ] final   80.20 input  -60.55 | X-H torsion
[ 11005 11000 10999 10996 ] final  137.10 input  -57.11 | X-H torsion

> <Gold.Protein.ActiveResidues>
 VAL166  LYS551  ARG553  GLY616  TRP617  ASP618  TYR619  PRO620  LYS621  CYS622 
 ASP623  PHE694  ASN695  SER759  ASP760  ASP761  ALA762  ILE779  LEU786  VAL792 
 PHE793  MET794  SER795  GLU796  ALA797  LYS798  CYS799  TRP800  GLU811  SER814 

> <Gold.Protein.RotatedAtoms>
  151.1144  133.5149  159.2604 H   0  0  0  0  0  0  0  0  0  0  0  0  # atno 6907 bound_to 6896
  151.1931  135.0410  159.8851 H   0  0  0  0  0  0  0  0  0  0  0  0  # atno 6908 bound_to 6896
  152.5452  134.0981  159.8359 H   0  0  0  0  0  0  0  0  0  0  0  0  # atno 6909 bound_to 6896
  144.9284  139.5079  143.5630 H   0  0  0  0  0  0  0  0  0  0  0  0  # atno 7974 bound_to 7965
  154.5256  140.0777  156.8251 H   0  0  0  0  0  0  0  0  0  0  0  0  # atno 8008 bound_to 7997
  155.3484  140.3411  155.4221 H   0  0  0  0  0  0  0  0  0  0  0  0  # atno 8009 bound_to 7997
  156.1727  140.1625  156.8404 H   0  0  0  0  0  0  0  0  0  0  0  0  # atno 8010 bound_to 7997
  140.5990  143.2357  151.5972 H   0  0  0  0  0  0  0  0  0  0  0  0  # atno 10167 bound_to 10162
  156.0672  130.5890  150.8431 H   0  0  0  0  0  0  0  0  0  0  0  0  # atno 10718 bound_to 10713
  153.1014  135.4811  154.8873 H   0  0  0  0  0  0  0  0  0  0  0  0  # atno 10763 bound_to 10752
  154.7382  135.3076  154.8776 H   0  0  0  0  0  0  0  0  0  0  0  0  # atno 10764 bound_to 10752
  153.9392  135.6836  153.4798 H   0  0  0  0  0  0  0  0  0  0  0  0  # atno 10765 bound_to 10752
  140.0091  134.9446  157.0239 H   0  0  0  0  0  0  0  0  0  0  0  0  # atno 11005 bound_to 11000
  146.3236  139.8215  142.8926 LP  0  0  0  0  0  0  0  0  0  0  0  0  # atno 17320 bound_to 7965
  145.3182  141.0237  143.3515 LP  0  0  0  0  0  0  0  0  0  0  0  0  # atno 17321 bound_to 7965
  139.5278  144.3007  152.1075 LP  0  0  0  0  0  0  0  0  0  0  0  0  # atno 17342 bound_to 10162
  140.2185  144.4491  150.6353 LP  0  0  0  0  0  0  0  0  0  0  0  0  # atno 17343 bound_to 10162
  157.5721  131.0946  150.9402 LP  0  0  0  0  0  0  0  0  0  0  0  0  # atno 17370 bound_to 10713
  156.9616  130.5457  149.5286 LP  0  0  0  0  0  0  0  0  0  0  0  0  # atno 17371 bound_to 10713
  140.4587  134.1507  155.7189 LP  0  0  0  0  0  0  0  0  0  0  0  0  # atno 17394 bound_to 11000
  141.1698  133.8631  157.1605 LP  0  0  0  0  0  0  0  0  0  0  0  0  # atno 17395 bound_to 11000

$$$$
