AV-unprocessed.smi:1844|AV-procd|sdf|7510|dock4
  -GOLD-   22720 9213D 1   1.00000     0.00000
 Structure written by MMmdl.
 45 46  0  0  0  0  0  0  0  0  1 V2000
  148.0634  130.0535  159.6356 C   0  0  0  0  0  0  0  0  0  0  0  0
  147.8751  131.4394  160.0369 N   0  0  0  0  0  0  0  0  0  0  0  0
  148.5726  132.4761  159.5438 C   0  0  0  0  0  0  0  0  0  0  0  0
  149.4480  132.3192  158.6908 O   0  0  0  0  0  0  0  0  0  0  0  0
  148.1893  133.7714  160.1112 C   0  0  0  0  0  0  0  0  0  0  0  0
  147.5576  133.9142  161.4147 C   0  0  0  0  0  0  0  0  0  0  0  0
  147.2324  135.1327  161.8891 C   0  0  0  0  0  0  0  0  0  0  0  0
  147.4936  136.3547  161.1230 C   0  0  0  0  0  0  0  0  0  0  0  0
  147.2003  137.4708  161.5528 O   0  0  0  0  0  0  0  0  0  0  0  0
  148.0824  136.1759  159.9017 N   0  0  0  0  0  0  0  0  0  0  0  0
  148.3937  137.3289  159.0401 C   0  0  0  0  0  0  0  0  0  0  0  0
  149.8995  137.5615  158.8512 C   0  0  0  0  0  0  0  0  0  0  0  0
  150.7259  136.8558  159.4310 O   0  0  0  0  0  0  0  0  0  0  0  0
  150.2328  138.5527  158.0101 N   0  0  0  0  0  0  0  0  0  0  0  0
  151.5915  138.9732  157.6609 C   0  0  2  0  0  0  0  0  0  0  0  0
  152.2411  139.6897  158.8620 C   0  0  0  0  0  0  0  0  0  0  0  0
  151.6076  141.0658  159.1319 C   0  0  0  0  0  0  0  0  0  0  0  0
  151.6412  141.9495  157.8763 C   0  0  0  0  0  0  0  0  0  0  0  0
  150.9718  141.2507  156.6820 C   0  0  0  0  0  0  0  0  0  0  0  0
  151.6091  139.8742  156.3993 C   0  0  2  0  0  0  0  0  0  0  0  0
  150.9785  139.2014  155.1680 C   0  0  0  0  0  0  0  0  0  0  0  0
  148.4246  134.8996  159.4128 C   0  0  0  0  0  0  0  0  0  0  0  0
  147.3630  129.4134  160.1719 H   0  0  0  0  0  0  0  0  0  0  0  0
  149.0755  129.7175  159.8640 H   0  0  0  0  0  0  0  0  0  0  0  0
  147.8879  129.9305  158.5662 H   0  0  0  0  0  0  0  0  0  0  0  0
  147.1698  131.6260  160.7348 H   0  0  0  0  0  0  0  0  0  0  0  0
  147.3370  133.0543  162.0298 H   0  0  0  0  0  0  0  0  0  0  0  0
  146.7655  135.2136  162.8597 H   0  0  0  0  0  0  0  0  0  0  0  0
  147.9446  137.2029  158.0541 H   0  0  0  0  0  0  0  0  0  0  0  0
  147.9369  138.2335  159.4461 H   0  0  0  0  0  0  0  0  0  0  0  0
  149.4810  139.0670  157.5742 H   0  0  0  0  0  0  0  0  0  0  0  0
  152.1974  138.0903  157.4503 H   0  0  0  0  0  0  0  0  0  0  0  0
  152.1751  139.0664  159.7547 H   0  0  0  0  0  0  0  0  0  0  0  0
  153.3057  139.8222  158.6652 H   0  0  0  0  0  0  0  0  0  0  0  0
  150.5762  140.9403  159.4637 H   0  0  0  0  0  0  0  0  0  0  0  0
  152.1335  141.5613  159.9484 H   0  0  0  0  0  0  0  0  0  0  0  0
  151.1452  142.8995  158.0771 H   0  0  0  0  0  0  0  0  0  0  0  0
  152.6756  142.1883  157.6263 H   0  0  0  0  0  0  0  0  0  0  0  0
  149.9050  141.1347  156.8773 H   0  0  0  0  0  0  0  0  0  0  0  0
  151.0531  141.8867  155.7997 H   0  0  0  0  0  0  0  0  0  0  0  0
  152.6569  140.0519  156.1525 H   0  0  0  0  0  0  0  0  0  0  0  0
  149.9072  139.0446  155.2970 H   0  0  0  0  0  0  0  0  0  0  0  0
  151.4366  138.2310  154.9745 H   0  0  0  0  0  0  0  0  0  0  0  0
  151.1149  139.8137  154.2764 H   0  0  0  0  0  0  0  0  0  0  0  0
  148.8944  134.9076  158.4391 H   0  0  0  0  0  0  0  0  0  0  0  0
  1  2  1  0  0  0  0
  1 23  1  0  0  0  0
  1 24  1  0  0  0  0
  1 25  1  0  0  0  0
  2  3  1  0  0  0  0
  2 26  1  0  0  0  0
  3  4  2  0  0  0  0
  3  5  1  0  0  0  0
  5 22  2  0  0  0  0
  5  6  1  0  0  0  0
  6  7  2  0  0  0  0
  6 27  1  0  0  0  0
  7  8  1  0  0  0  0
  7 28  1  0  0  0  0
  8  9  2  0  0  0  0
  8 10  1  0  0  0  0
 10 11  1  0  0  0  0
 10 22  1  0  0  0  0
 11 12  1  0  0  0  0
 11 29  1  0  0  0  0
 11 30  1  0  0  0  0
 12 13  2  0  0  0  0
 12 14  1  0  0  0  0
 14 15  1  0  0  0  0
 14 31  1  0  0  0  0
 15 20  1  0  0  0  0
 15 16  1  0  0  0  0
 15 32  1  0  0  0  0
 16 17  1  0  0  0  0
 16 33  1  0  0  0  0
 16 34  1  0  0  0  0
 17 18  1  0  0  0  0
 17 35  1  0  0  0  0
 17 36  1  0  0  0  0
 18 19  1  0  0  0  0
 18 37  1  0  0  0  0
 18 38  1  0  0  0  0
 19 20  1  0  0  0  0
 19 39  1  0  0  0  0
 19 40  1  0  0  0  0
 20 21  1  0  0  0  0
 20 41  1  0  0  0  0
 21 42  1  0  0  0  0
 21 43  1  0  0  0  0
 21 44  1  0  0  0  0
 22 45  1  0  0  0  0
M  END
> <s_m_source_file>
AV-unprocessed.smi

> <i_m_source_file_index>
1844

> <i_lp_mmshare_version>
43012

> <i_f3d_flags>
0

> <s_epik_input>
W0NIM11bTkhdQyg9TyljMVtjSF1bY0hdYyg9TyluKFtjSF0xKVtDSDJdQyg9TylbTkhdW0NAQEhdMltDSDJdW0NIMl1bQ0gyXVtDSDJdW0NASF0yW0NIM10=

> <s_epik_cmdline>
J2VwaWtfcHl0aG9uJywgJy1waCcsICc3LjAnLCAnLXRuJywgJzgnLCAnLW1hJywgJzIwMCcsICctbWV0YWxfYmluZGluZycsICctaW1hZScsICc8aW5maWxlLm1hZT4nLCAnLW9tYWUnLCAnPG91dGZpbGUubWFlPic=

> <r_lp_tautomer_probability>
1

> <r_epik_Ionization_Penalty>
3.66612e-07

> <r_epik_Ionization_Penalty_Charging>
5.18929e-08

> <r_epik_Ionization_Penalty_Neutral>
3.14719e-07

> <r_epik_State_Penalty>
-0

> <r_epik_Charging_Adjusted_Penalty>
5.18929e-08

> <i_epik_Tot_Q>
0

> <i_epik_Tot_abs_Q>
0

> <r_epik_Metal_State_Penalty>
-0

> <b_epik_Metal_Only>
0

> <s_lp_Force_Field>
OPLS_2005

> <r_lp_Energy>
22.5965

> <b_lp_Chiralities_Consistent>
1

> <s_lp_Variant>
AV-unprocessed.smi:1844-3

> <Gold.Version>
5.8.1

> <Gold.Id.Protein>
6NUR|6NUR_protein|mol2

> <Gold.PLP.Fitness>
42.8684

> <Gold.PLP.PLP>
-32.8315

> <Gold.PLP.part.hbond>
-4.0000

> <Gold.PLP.part.metal>
0.0000

> <Gold.PLP.part.buried>
-3.3814

> <Gold.PLP.part.nonpolar>
-25.5461

> <Gold.PLP.part.repulsive>
0.1207

> <Gold.PLP.ligand.clash>
0.0000

> <Gold.PLP.ligand.torsion>
0.4591

> <Gold.PLP.Chemscore.Hbond>
3.6480

> <Gold.PLP.Chemscore.CHOScore>
0.0000

> <Gold.PLP.Chemscore.Metal>
0.0000

> <Gold.Chemscore.Hbonds>
donor molecule, donor type, donor heavy atom, donor atom, acceptor molecule, acceptor atom, score
      P1  H  6896  6907       L1    13  1.00
      P1  H  6896  6909       L1     4  1.00
      P1  H  6931  6943       L1     9  0.72
      P1  H  6934  6947       L1     9  0.91

> <Gold.PLP.Chemscore.Internal.Correction>
0.0111

> <Gold.Rescore>
     Score         DG    S(hbond)    S(metal)    S(lipo)     H(rot)  DE(clash)    DE(int)     intcor
     18.38     -19.90       2.96        0.00      71.37       1.49       0.03       1.49       ----

> <Gold.Chemscore.Fitness>
18.3781

> <Gold.Chemscore.DG>
-19.8974

> <Gold.Chemscore.ZeroCoef>
-5.4800

> <Gold.Chemscore.Hbond>
2.9604

> <Gold.Chemscore.Metal>
0.0000

> <Gold.Chemscore.Lipo>
71.3676

> <Gold.Chemscore.Internal_Hbond>
0.0000

> <Gold.Chemscore.DEClash>
0.0272

> <Gold.Chemscore.DEInternal>
1.4921

> <Gold.Chemscore.Rot>
1.4923

> <Gold.Chemscore.Internal.Correction>
   9.000000E+99

> <Gold.Chemscore.Hbonds>
donor molecule, donor type, donor heavy atom, donor atom, acceptor molecule, acceptor atom, score
      P1  H  6896  6907       L1    13  1.00
      P1  H  6896  6909       L1     4  0.41
      P1  H  6931  6943       L1     9  0.24
      P1  H  6934  6947       L1     9  0.88

> <Gold.Chemscore.Hbond.Weighted>
-9.8878

> <Gold.Chemscore.Metal.Weighted>
-0.0000

> <Gold.Chemscore.Lipo.Weighted>
-8.3500

> <Gold.Chemscore.Internal_Hbond.Weighted>
0.0000

> <Gold.Chemscore.DEClash.Weighted>
0.0272

> <Gold.Chemscore.DEInternal.Weighted>
1.4921

> <Gold.Chemscore.Rot.Weighted>
3.8204

> <Gold.Chemscore.Internal.Correction.Weighted>
   9.000000E+99

> <Gold.Protein.RotatedTorsions>
[ 6907 6896 6895 6894 ] final  -13.46 input  -60.11 | X-H torsion
[ 7974 7965 7964 7962 ] final   -2.78 input  175.53 | X-H torsion
[ 8008 7997 7996 7995 ] final  -51.49 input   59.86 | X-H torsion
[ 10167 10162 10161 10158 ] final -103.30 input  -65.29 | X-H torsion
[ 10718 10713 10712 10709 ] final   55.64 input   66.30 | X-H torsion
[ 10763 10752 10751 10750 ] final  -82.20 input  -60.55 | X-H torsion
[ 11005 11000 10999 10996 ] final    4.81 input  -57.11 | X-H torsion

> <Gold.Protein.ActiveResidues>
 VAL166  LYS551  ARG553  GLY616  TRP617  ASP618  TYR619  PRO620  LYS621  CYS622 
 ASP623  PHE694  ASN695  SER759  ASP760  ASP761  ALA762  ILE779  LEU786  VAL792 
 PHE793  MET794  SER795  GLU796  ALA797  LYS798  CYS799  TRP800  GLU811  SER814 

> <Gold.Protein.RotatedAtoms>
  151.3546  135.0891  159.9414 H   0  0  0  0  0  0  0  0  0  0  0  0  # atno 6907 bound_to 6896
  152.5178  133.9318  159.7595 H   0  0  0  0  0  0  0  0  0  0  0  0  # atno 6908 bound_to 6896
  150.9701  133.6299  159.2769 H   0  0  0  0  0  0  0  0  0  0  0  0  # atno 6909 bound_to 6896
  146.2399  140.1623  142.8332 H   0  0  0  0  0  0  0  0  0  0  0  0  # atno 7974 bound_to 7965
  154.4084  140.1247  156.4837 H   0  0  0  0  0  0  0  0  0  0  0  0  # atno 8008 bound_to 7997
  155.7059  140.3494  155.4933 H   0  0  0  0  0  0  0  0  0  0  0  0  # atno 8009 bound_to 7997
  155.9343  140.1075  157.1097 H   0  0  0  0  0  0  0  0  0  0  0  0  # atno 8010 bound_to 7997
  140.2215  143.3673  152.0966 H   0  0  0  0  0  0  0  0  0  0  0  0  # atno 10167 bound_to 10162
  157.5362  130.8665  149.8757 H   0  0  0  0  0  0  0  0  0  0  0  0  # atno 10718 bound_to 10713
  154.5728  135.5599  153.7111 H   0  0  0  0  0  0  0  0  0  0  0  0  # atno 10763 bound_to 10752
  153.0054  135.6301  154.2090 H   0  0  0  0  0  0  0  0  0  0  0  0  # atno 10764 bound_to 10752
  154.2030  135.2877  155.2964 H   0  0  0  0  0  0  0  0  0  0  0  0  # atno 10765 bound_to 10752
  140.5777  134.0042  155.8035 H   0  0  0  0  0  0  0  0  0  0  0  0  # atno 11005 bound_to 11000
  145.0079  140.8689  143.5242 LP  0  0  0  0  0  0  0  0  0  0  0  0  # atno 17320 bound_to 7965
  145.1652  139.2435  143.5371 LP  0  0  0  0  0  0  0  0  0  0  0  0  # atno 17321 bound_to 7965
  139.5142  144.6945  151.5668 LP  0  0  0  0  0  0  0  0  0  0  0  0  # atno 17342 bound_to 10162
  140.6252  143.9183  150.6558 LP  0  0  0  0  0  0  0  0  0  0  0  0  # atno 17343 bound_to 10162
  156.0460  130.3728  150.1315 LP  0  0  0  0  0  0  0  0  0  0  0  0  # atno 17370 bound_to 10713
  156.9498  130.9771  151.3500 LP  0  0  0  0  0  0  0  0  0  0  0  0  # atno 17371 bound_to 10713
  141.1016  133.9759  157.3069 LP  0  0  0  0  0  0  0  0  0  0  0  0  # atno 17394 bound_to 11000
  139.9332  135.0198  156.8468 LP  0  0  0  0  0  0  0  0  0  0  0  0  # atno 17395 bound_to 11000

$$$$
