AV-unprocessed.smi:304|AV-procd|sdf|2278|dock5
  -GOLD-   2262022173D 1   1.00000     0.00000
 Structure written by MMmdl.
 37 39  0  0  0  0  0  0  0  0  2 V2000
  146.8819  139.6023  151.3787 O   0  0  0  0  0  0  0  0  0  0  0  0
  146.7701  138.6938  152.4561 C   0  0  2  0  0  0  0  0  0  0  0  0
  145.7651  137.5927  152.0806 C   0  0  0  0  0  0  0  0  0  0  0  0
  145.5180  136.7745  153.2113 O   0  0  0  0  0  0  0  0  0  0  0  0
  146.2387  135.5545  153.1918 C   0  0  0  0  0  0  0  0  0  0  0  0
  145.6031  134.6630  152.1709 C   0  0  0  0  0  0  0  0  0  0  0  0
  146.0480  133.4287  151.7703 C   0  0  0  0  0  0  0  0  0  0  0  0
  145.2185  132.8226  150.7815 C   0  0  0  0  0  0  0  0  0  0  0  0
  144.1443  133.5997  150.4400 C   0  0  0  0  0  0  0  0  0  0  0  0
  144.1308  135.0969  151.3293 S   0  0  0  0  0  0  0  0  0  0  0  0
  146.4283  139.4098  153.7797 C   0  0  0  0  0  0  0  0  0  0  0  0
  147.4916  140.3175  154.2321 N   0  0  0  0  0  0  0  0  0  0  0  0
  147.4615  141.6640  154.4258 C   0  0  0  0  0  0  0  0  0  0  0  0
  148.7013  142.0477  154.8385 N   0  3  0  0  0  0  0  0  0  0  0  0
  149.5363  140.9303  154.9098 C   0  0  0  0  0  0  0  0  0  0  0  0
  150.8737  140.8138  155.2742 C   0  0  0  0  0  0  0  0  0  0  0  0
  151.4305  139.5182  155.2428 C   0  0  0  0  0  0  0  0  0  0  0  0
  152.7286  139.3487  155.5889 F   0  0  0  0  0  0  0  0  0  0  0  0
  150.6620  138.3983  154.8603 C   0  0  0  0  0  0  0  0  0  0  0  0
  151.2350  137.1716  154.8473 F   0  0  0  0  0  0  0  0  0  0  0  0
  149.3068  138.5291  154.4920 C   0  0  0  0  0  0  0  0  0  0  0  0
  148.7652  139.8140  154.5234 C   0  0  0  0  0  0  0  0  0  0  0  0
  147.7958  139.6944  151.1581 H   0  0  0  0  0  0  0  0  0  0  0  0
  147.7515  138.2291  152.5584 H   0  0  0  0  0  0  0  0  0  0  0  0
  144.8377  138.0241  151.6997 H   0  0  0  0  0  0  0  0  0  0  0  0
  146.1857  136.9767  151.2845 H   0  0  0  0  0  0  0  0  0  0  0  0
  147.2834  135.7364  152.9359 H   0  0  0  0  0  0  0  0  0  0  0  0
  146.2097  135.0784  154.1727 H   0  0  0  0  0  0  0  0  0  0  0  0
  146.9348  132.9435  152.1499 H   0  0  0  0  0  0  0  0  0  0  0  0
  145.4354  131.8513  150.3619 H   0  0  0  0  0  0  0  0  0  0  0  0
  143.3639  133.3852  149.7250 H   0  0  0  0  0  0  0  0  0  0  0  0
  145.4961  139.9697  153.7055 H   0  0  0  0  0  0  0  0  0  0  0  0
  146.2746  138.6726  154.5686 H   0  0  0  0  0  0  0  0  0  0  0  0
  146.6095  142.3116  154.2757 H   0  0  0  0  0  0  0  0  0  0  0  0
  151.4655  141.6678  155.5688 H   0  0  0  0  0  0  0  0  0  0  0  0
  148.7279  137.6632  154.2060 H   0  0  0  0  0  0  0  0  0  0  0  0
  148.9565  143.0035  155.0531 H   0  0  0  0  0  0  0  0  0  0  0  0
  1  2  1  0  0  0  0
  1 23  1  0  0  0  0
  2  3  1  0  0  0  0
  2 11  1  0  0  0  0
  2 24  1  0  0  0  0
  3  4  1  0  0  0  0
  3 25  1  0  0  0  0
  3 26  1  0  0  0  0
  4  5  1  0  0  0  0
  5  6  1  0  0  0  0
  5 27  1  0  0  0  0
  5 28  1  0  0  0  0
  6 10  1  0  0  0  0
  6  7  2  0  0  0  0
  7  8  1  0  0  0  0
  7 29  1  0  0  0  0
  8  9  2  0  0  0  0
  8 30  1  0  0  0  0
  9 10  1  0  0  0  0
  9 31  1  0  0  0  0
 11 12  1  0  0  0  0
 11 32  1  0  0  0  0
 11 33  1  0  0  0  0
 12 22  1  0  0  0  0
 12 13  1  0  0  0  0
 13 14  2  0  0  0  0
 13 34  1  0  0  0  0
 14 15  1  0  0  0  0
 14 37  1  0  0  0  0
 15 22  2  0  0  0  0
 15 16  1  0  0  0  0
 16 17  2  0  0  0  0
 16 35  1  0  0  0  0
 17 18  1  0  0  0  0
 17 19  1  0  0  0  0
 19 20  1  0  0  0  0
 19 21  2  0  0  0  0
 21 22  1  0  0  0  0
 21 36  1  0  0  0  0
M  CHG  1  14   1
M  END
> <s_m_source_file>
AV-unprocessed.smi

> <i_m_source_file_index>
304

> <i_lp_mmshare_version>
43012

> <i_f3d_flags>
0

> <s_epik_input>
W2NIXTFjKEYpYyhGKVtjSF1jKGMxMiluKFtjSF1uMilbQ0gyXVtDQEhdKFtPSF0pW0NIMl1PW0NIMl1jM1tjSF1bY0hdW2NIXXMz

> <s_epik_cmdline>
J2VwaWtfcHl0aG9uJywgJy1waCcsICc3LjAnLCAnLXRuJywgJzgnLCAnLW1hJywgJzIwMCcsICctbWV0YWxfYmluZGluZycsICctaW1hZScsICc8aW5maWxlLm1hZT4nLCAnLW9tYWUnLCAnPG91dGZpbGUubWFlPic=

> <r_epik_Ionization_Penalty>
2.17745

> <r_epik_Ionization_Penalty_Charging>
2.17744

> <r_epik_Ionization_Penalty_Neutral>
1.26231e-06

> <r_epik_State_Penalty>
2.31922

> <r_epik_Charging_Adjusted_Penalty>
4.49666

> <i_epik_Tot_Q>
1

> <i_epik_Tot_abs_Q>
1

> <r_epik_Metal_State_Penalty>
6.40003

> <b_epik_Metal_Only>
0

> <s_lp_Force_Field>
OPLS_2005

> <r_lp_Energy>
12.8656

> <b_lp_Chiralities_Consistent>
1

> <s_lp_Variant>
AV-unprocessed.smi:304-3

> <Gold.Version>
5.8.1

> <Gold.Id.Protein>
6NUR|6NUR_protein|mol2

> <Gold.PLP.Fitness>
50.1125

> <Gold.PLP.PLP>
-38.9483

> <Gold.PLP.part.hbond>
-2.0000

> <Gold.PLP.part.metal>
0.0000

> <Gold.PLP.part.buried>
0.8167

> <Gold.PLP.part.nonpolar>
-38.0831

> <Gold.PLP.part.repulsive>
0.3431

> <Gold.PLP.ligand.clash>
0.0000

> <Gold.PLP.ligand.torsion>
0.4369

> <Gold.PLP.Chemscore.Hbond>
3.0000

> <Gold.PLP.Chemscore.CHOScore>
0.9827

> <Gold.PLP.Chemscore.Metal>
0.0000

> <Gold.Chemscore.Hbonds>
donor molecule, donor type, donor heavy atom, donor atom, acceptor molecule, acceptor atom, score
      L1  H     1    23       P1  7957  1.00
      L1  H    14    37       P1  8028  2.00
      L1  C     9    31       P1 10186  0.86

> <Gold.PLP.Chemscore.Internal.Correction>
0.0902

> <Gold.Rescore>
     Score         DG    S(hbond)    S(metal)    S(lipo)     H(rot)  DE(clash)    DE(int)     intcor
     14.72     -15.45       1.98        0.00      88.46       2.73       0.16       0.57       ----

> <Gold.Chemscore.Fitness>
14.7211

> <Gold.Chemscore.DG>
-15.4525

> <Gold.Chemscore.ZeroCoef>
-5.4800

> <Gold.Chemscore.Hbond>
1.9762

> <Gold.Chemscore.Metal>
0.0000

> <Gold.Chemscore.Lipo>
88.4613

> <Gold.Chemscore.Internal_Hbond>
0.0000

> <Gold.Chemscore.DEClash>
0.1641

> <Gold.Chemscore.DEInternal>
0.5674

> <Gold.Chemscore.Rot>
2.7258

> <Gold.Chemscore.Internal.Correction>
   9.000000E+99

> <Gold.Chemscore.Hbonds>
donor molecule, donor type, donor heavy atom, donor atom, acceptor molecule, acceptor atom, score
      L1  H     1    23       P1  7957  0.93
      L1  H    14    37       P1  8028  1.00

> <Gold.Chemscore.Hbond.Weighted>
-6.6006

> <Gold.Chemscore.Metal.Weighted>
-0.0000

> <Gold.Chemscore.Lipo.Weighted>
-10.3500

> <Gold.Chemscore.Internal_Hbond.Weighted>
0.0000

> <Gold.Chemscore.DEClash.Weighted>
0.1641

> <Gold.Chemscore.DEInternal.Weighted>
0.5674

> <Gold.Chemscore.Rot.Weighted>
6.9781

> <Gold.Chemscore.Internal.Correction.Weighted>
   9.000000E+99

> <Gold.Protein.RotatedTorsions>
[ 6907 6896 6895 6894 ] final   35.55 input  -60.11 | X-H torsion
[ 7974 7965 7964 7962 ] final   92.92 input  175.53 | X-H torsion
[ 8008 7997 7996 7995 ] final   34.93 input   59.86 | X-H torsion
[ 10167 10162 10161 10158 ] final  152.74 input  -65.29 | X-H torsion
[ 10718 10713 10712 10709 ] final  172.78 input   66.30 | X-H torsion
[ 10763 10752 10751 10750 ] final  -11.57 input  -60.55 | X-H torsion
[ 11005 11000 10999 10996 ] final  -69.98 input  -57.11 | X-H torsion

> <Gold.Protein.ActiveResidues>
 VAL166  LYS551  ARG553  GLY616  TRP617  ASP618  TYR619  PRO620  LYS621  CYS622 
 ASP623  PHE694  ASN695  SER759  ASP760  ASP761  ALA762  ILE779  LEU786  VAL792 
 PHE793  MET794  SER795  GLU796  ALA797  LYS798  CYS799  TRP800  GLU811  SER814 

> <Gold.Protein.RotatedAtoms>
  152.1177  134.9228  160.0564 H   0  0  0  0  0  0  0  0  0  0  0  0  # atno 6907 bound_to 6896
  152.0381  133.3961  159.4334 H   0  0  0  0  0  0  0  0  0  0  0  0  # atno 6908 bound_to 6896
  150.6847  134.3366  159.4893 H   0  0  0  0  0  0  0  0  0  0  0  0  # atno 6909 bound_to 6896
  145.4858  139.2277  143.2857 H   0  0  0  0  0  0  0  0  0  0  0  0  # atno 7974 bound_to 7965
  155.1628  140.3285  155.4408 H   0  0  0  0  0  0  0  0  0  0  0  0  # atno 8008 bound_to 7997
  156.2537  140.1957  156.6685 H   0  0  0  0  0  0  0  0  0  0  0  0  # atno 8009 bound_to 7997
  154.6393  140.0572  156.9812 H   0  0  0  0  0  0  0  0  0  0  0  0  # atno 8010 bound_to 7997
  139.4831  144.5332  151.7688 H   0  0  0  0  0  0  0  0  0  0  0  0  # atno 10167 bound_to 10162
  156.9739  131.0098  151.2898 H   0  0  0  0  0  0  0  0  0  0  0  0  # atno 10718 bound_to 10713
  153.4858  135.7017  153.5912 H   0  0  0  0  0  0  0  0  0  0  0  0  # atno 10763 bound_to 10752
  153.4106  135.3849  155.2048 H   0  0  0  0  0  0  0  0  0  0  0  0  # atno 10764 bound_to 10752
  154.8719  135.3903  154.4312 H   0  0  0  0  0  0  0  0  0  0  0  0  # atno 10765 bound_to 10752
  141.1565  133.6778  156.6682 H   0  0  0  0  0  0  0  0  0  0  0  0  # atno 11005 bound_to 11000
  146.2314  140.5648  142.8974 LP  0  0  0  0  0  0  0  0  0  0  0  0  # atno 17320 bound_to 7965
  144.7862  140.5941  143.6572 LP  0  0  0  0  0  0  0  0  0  0  0  0  # atno 17321 bound_to 7965
  140.4861  144.1379  150.5941 LP  0  0  0  0  0  0  0  0  0  0  0  0  # atno 17342 bound_to 10162
  140.4223  143.2606  151.9699 LP  0  0  0  0  0  0  0  0  0  0  0  0  # atno 17343 bound_to 10162
  157.5573  130.8222  149.8221 LP  0  0  0  0  0  0  0  0  0  0  0  0  # atno 17370 bound_to 10713
  156.0272  130.3776  150.1790 LP  0  0  0  0  0  0  0  0  0  0  0  0  # atno 17371 bound_to 10713
  140.3195  134.8019  157.4241 LP  0  0  0  0  0  0  0  0  0  0  0  0  # atno 17394 bound_to 11000
  140.1109  134.5347  155.8267 LP  0  0  0  0  0  0  0  0  0  0  0  0  # atno 17395 bound_to 11000

$$$$
