AV-unprocessed.smi:66|AV-procd|sdf|622|dock6
  -GOLD-   2262016513D 1   1.00000     0.00000
 Structure written by MMmdl.
 28 30  0  0  0  0  0  0  0  0  2 V2000
  152.4035  137.5872  154.2760 O   0  0  0  0  0  0  0  0  0  0  0  0
  152.2187  138.7427  154.7158 C   0  0  0  0  0  0  0  0  0  0  0  0
  153.0980  139.6272  154.8219 O   0  5  0  0  0  0  0  0  0  0  0  0
  150.7921  139.0947  155.1557 C   0  0  1  0  0  0  0  0  0  0  0  0
  150.2020  140.2778  154.3775 C   0  0  0  0  0  0  0  0  0  0  0  0
  148.7043  140.0121  154.4903 C   0  0  1  0  0  0  0  0  0  0  0  0
  147.9568  140.6664  153.4869 O   0  0  0  0  0  0  0  0  0  0  0  0
  148.6151  138.4874  154.3904 C   0  0  0  0  0  0  0  0  0  0  0  0
  149.8716  137.9798  154.9288 N   0  0  0  0  0  0  0  0  0  0  0  0
  149.7407  137.0329  155.9553 C   0  0  0  0  0  0  0  0  0  0  0  0
  149.8849  137.3979  157.2509 N   0  0  0  0  0  0  0  0  0  0  0  0
  149.7260  136.4486  158.1842 C   0  0  0  0  0  0  0  0  0  0  0  0
  149.4246  135.1477  158.0303 N   0  0  0  0  0  0  0  0  0  0  0  0
  149.2731  134.7818  156.7494 C   0  0  0  0  0  0  0  0  0  0  0  0
  148.9581  133.5114  156.2853 N   0  0  0  0  0  0  0  0  0  0  0  0
  148.9315  133.6984  154.9651 C   0  0  0  0  0  0  0  0  0  0  0  0
  149.1891  134.9435  154.5302 N   0  0  0  0  0  0  0  0  0  0  0  0
  149.4203  135.6969  155.6673 C   0  0  0  0  0  0  0  0  0  0  0  0
  149.2174  135.2403  153.5650 H   0  0  0  0  0  0  0  0  0  0  0  0
  150.8076  139.3536  156.2153 H   0  0  0  0  0  0  0  0  0  0  0  0
  150.4914  141.2430  154.7942 H   0  0  0  0  0  0  0  0  0  0  0  0
  150.5110  140.2535  153.3304 H   0  0  0  0  0  0  0  0  0  0  0  0
  148.3527  140.3352  155.4714 H   0  0  0  0  0  0  0  0  0  0  0  0
  148.3589  140.4866  152.6508 H   0  0  0  0  0  0  0  0  0  0  0  0
  147.7338  138.1030  154.9069 H   0  0  0  0  0  0  0  0  0  0  0  0
  148.5518  138.1682  153.3492 H   0  0  0  0  0  0  0  0  0  0  0  0
  149.8540  136.7771  159.2049 H   0  0  0  0  0  0  0  0  0  0  0  0
  148.7154  132.8910  154.2809 H   0  0  0  0  0  0  0  0  0  0  0  0
  1  2  2  0  0  0  0
  2  3  1  0  0  0  0
  2  4  1  0  0  0  0
  4  9  1  0  0  0  0
  4  5  1  0  0  0  0
  4 20  1  0  0  0  0
  5  6  1  0  0  0  0
  5 21  1  0  0  0  0
  5 22  1  0  0  0  0
  6  7  1  0  0  0  0
  6  8  1  0  0  0  0
  6 23  1  0  0  0  0
  7 24  1  0  0  0  0
  8  9  1  0  0  0  0
  8 25  1  0  0  0  0
  8 26  1  0  0  0  0
  9 10  1  0  0  0  0
 10 18  1  0  0  0  0
 10 11  2  0  0  0  0
 11 12  1  0  0  0  0
 12 13  2  0  0  0  0
 12 27  1  0  0  0  0
 13 14  1  0  0  0  0
 14 18  2  0  0  0  0
 14 15  1  0  0  0  0
 15 16  2  0  0  0  0
 16 17  1  0  0  0  0
 16 28  1  0  0  0  0
 17 19  1  0  0  0  0
 17 18  1  0  0  0  0
M  CHG  1   3  -1
M  END
> <s_m_source_file>
AV-unprocessed.smi

> <i_m_source_file_index>
66

> <i_lp_mmshare_version>
43012

> <i_f3d_flags>
0

> <s_epik_input>
Tz1DKFtPSF0pW0NAQEhdMVtDSDJdW0NAQEhdKFtPSF0pW0NIMl1OMWMobltjSF1uMiljKGMyMylbbkhdW2NIXW4z

> <s_epik_cmdline>
J2VwaWtfcHl0aG9uJywgJy1waCcsICc3LjAnLCAnLXRuJywgJzgnLCAnLW1hJywgJzIwMCcsICctbWV0YWxfYmluZGluZycsICctaW1hZScsICc8aW5maWxlLm1hZT4nLCAnLW9tYWUnLCAnPG91dGZpbGUubWFlPic=

> <r_lp_tautomer_probability>
0.0419193

> <r_epik_Ionization_Penalty>
0.0157405

> <r_epik_Ionization_Penalty_Charging>
0.000248217

> <r_epik_Ionization_Penalty_Neutral>
0.0154923

> <r_epik_State_Penalty>
1.99742

> <r_epik_Charging_Adjusted_Penalty>
1.99767

> <i_epik_Tot_Q>
-1

> <i_epik_Tot_abs_Q>
1

> <r_epik_Metal_State_Penalty>
2.31035

> <b_epik_Metal_Only>
0

> <s_lp_Force_Field>
OPLS_2005

> <r_lp_Energy>
24.7496

> <b_lp_Chiralities_Consistent>
1

> <s_lp_Variant>
AV-unprocessed.smi:66-6

> <Gold.Version>
5.8.1

> <Gold.Id.Protein>
6NUR|6NUR_protein|mol2

> <Gold.PLP.Fitness>
40.5875

> <Gold.PLP.PLP>
-22.3268

> <Gold.PLP.part.hbond>
-6.0000

> <Gold.PLP.part.metal>
0.0000

> <Gold.PLP.part.buried>
-2.0695

> <Gold.PLP.part.nonpolar>
-15.9641

> <Gold.PLP.part.repulsive>
0.3320

> <Gold.PLP.ligand.clash>
0.0000

> <Gold.PLP.ligand.torsion>
0.6429

> <Gold.PLP.Chemscore.Hbond>
6.4723

> <Gold.PLP.Chemscore.CHOScore>
0.0000

> <Gold.PLP.Chemscore.Metal>
0.0000

> <Gold.Chemscore.Hbonds>
donor molecule, donor type, donor heavy atom, donor atom, acceptor molecule, acceptor atom, score
      L1  H     7    24       P1  7957  1.00
      L1  H    17    19       P1  7948  1.00
      P1  H  6896  6908       L1    13  0.84
      P1  H  7989  7998       L1     3  0.03
      P1  H  7997  8008       L1     3  2.00
      P1  H 10752 10764       L1     1  1.38

> <Gold.PLP.Chemscore.Internal.Correction>
0.1297

> <Gold.Rescore>
     Score         DG    S(hbond)    S(metal)    S(lipo)     H(rot)  DE(clash)    DE(int)     intcor
     13.44     -15.39       3.78        0.00      31.14       2.48       1.69       0.26       ----

> <Gold.Chemscore.Fitness>
13.4448

> <Gold.Chemscore.DG>
-15.3928

> <Gold.Chemscore.ZeroCoef>
-5.4800

> <Gold.Chemscore.Hbond>
3.7750

> <Gold.Chemscore.Metal>
0.0000

> <Gold.Chemscore.Lipo>
31.1399

> <Gold.Chemscore.Internal_Hbond>
0.0000

> <Gold.Chemscore.DEClash>
1.6921

> <Gold.Chemscore.DEInternal>
0.2559

> <Gold.Chemscore.Rot>
2.4762

> <Gold.Chemscore.Internal.Correction>
   9.000000E+99

> <Gold.Chemscore.Hbonds>
donor molecule, donor type, donor heavy atom, donor atom, acceptor molecule, acceptor atom, score
      L1  H     7    24       P1  7957  0.97
      L1  H    17    19       P1  7948  0.30
      P1  H  6896  6908       L1    13  0.43
      P1  H  7997  8008       L1     3  1.00
      P1  H 10752 10764       L1     1  0.67

> <Gold.Chemscore.Hbond.Weighted>
-12.6085

> <Gold.Chemscore.Metal.Weighted>
-0.0000

> <Gold.Chemscore.Lipo.Weighted>
-3.6434

> <Gold.Chemscore.Internal_Hbond.Weighted>
0.0000

> <Gold.Chemscore.DEClash.Weighted>
1.6921

> <Gold.Chemscore.DEInternal.Weighted>
0.2559

> <Gold.Chemscore.Rot.Weighted>
6.3391

> <Gold.Chemscore.Internal.Correction.Weighted>
   9.000000E+99

> <Gold.Protein.RotatedTorsions>
[ 6907 6896 6895 6894 ] final  139.59 input  -60.11 | X-H torsion
[ 7974 7965 7964 7962 ] final -159.64 input  175.53 | X-H torsion
[ 8008 7997 7996 7995 ] final  -10.28 input   59.86 | X-H torsion
[ 10167 10162 10161 10158 ] final   97.11 input  -65.29 | X-H torsion
[ 10718 10713 10712 10709 ] final  -77.15 input   66.30 | X-H torsion
[ 10763 10752 10751 10750 ] final  -89.20 input  -60.55 | X-H torsion
[ 11005 11000 10999 10996 ] final   60.06 input  -57.11 | X-H torsion

> <Gold.Protein.ActiveResidues>
 VAL166  LYS551  ARG553  GLY616  TRP617  ASP618  TYR619  PRO620  LYS621  CYS622 
 ASP623  PHE694  ASN695  SER759  ASP760  ASP761  ALA762  ILE779  LEU786  VAL792 
 PHE793  MET794  SER795  GLU796  ALA797  LYS798  CYS799  TRP800  GLU811  SER814 

> <Gold.Protein.RotatedAtoms>
  152.2531  133.5232  159.5336 H   0  0  0  0  0  0  0  0  0  0  0  0  # atno 6907 bound_to 6896
  150.7100  134.0933  159.3948 H   0  0  0  0  0  0  0  0  0  0  0  0  # atno 6908 bound_to 6896
  151.8852  135.0438  160.0543 H   0  0  0  0  0  0  0  0  0  0  0  0  # atno 6909 bound_to 6896
  144.7457  140.3656  143.6087 H   0  0  0  0  0  0  0  0  0  0  0  0  # atno 7974 bound_to 7965
  154.5569  140.2333  155.8396 H   0  0  0  0  0  0  0  0  0  0  0  0  # atno 8008 bound_to 7997
  156.1996  140.3056  155.9458 H   0  0  0  0  0  0  0  0  0  0  0  0  # atno 8009 bound_to 7997
  155.2963  140.0429  157.3017 H   0  0  0  0  0  0  0  0  0  0  0  0  # atno 8010 bound_to 7997
  139.7831  144.6881  150.9995 H   0  0  0  0  0  0  0  0  0  0  0  0  # atno 10167 bound_to 10162
  156.0153  130.4484  150.3301 H   0  0  0  0  0  0  0  0  0  0  0  0  # atno 10718 bound_to 10713
  154.6527  135.5349  153.7921 H   0  0  0  0  0  0  0  0  0  0  0  0  # atno 10763 bound_to 10752
  153.0395  135.6486  154.0992 H   0  0  0  0  0  0  0  0  0  0  0  0  # atno 10764 bound_to 10752
  154.0908  135.2940  155.3252 H   0  0  0  0  0  0  0  0  0  0  0  0  # atno 10765 bound_to 10752
  140.0259  134.6084  155.9574 H   0  0  0  0  0  0  0  0  0  0  0  0  # atno 11005 bound_to 11000
  145.7131  139.1690  143.2527 LP  0  0  0  0  0  0  0  0  0  0  0  0  # atno 17320 bound_to 7965
  146.1332  140.7157  142.9402 LP  0  0  0  0  0  0  0  0  0  0  0  0  # atno 17321 bound_to 7965
  140.7819  143.4461  151.0480 LP  0  0  0  0  0  0  0  0  0  0  0  0  # atno 17342 bound_to 10162
  139.8141  143.7910  152.3173 LP  0  0  0  0  0  0  0  0  0  0  0  0  # atno 17343 bound_to 10162
  157.1399  131.0294  151.2932 LP  0  0  0  0  0  0  0  0  0  0  0  0  # atno 17370 bound_to 10713
  157.4480  130.7582  149.7127 LP  0  0  0  0  0  0  0  0  0  0  0  0  # atno 17371 bound_to 10713
  141.1802  133.6545  156.4990 LP  0  0  0  0  0  0  0  0  0  0  0  0  # atno 17394 bound_to 11000
  140.4308  134.7104  157.4940 LP  0  0  0  0  0  0  0  0  0  0  0  0  # atno 17395 bound_to 11000

$$$$
