AV-unprocessed.smi:2628|AV-procd|sdf|10243|dock10
  -GOLD-   2272014253D 1   1.00000     0.00000
 Structure written by MMmdl.
 38 38  0  0  0  0  0  0  0  0  1 V2000
  145.6295  132.2123  149.8954 C   0  0  0  0  0  0  0  0  0  0  0  0
  146.6723  133.1559  150.5040 C   0  0  0  0  0  0  0  0  0  0  0  0
  146.0732  134.0867  151.5708 C   0  0  0  0  0  0  0  0  0  0  0  0
  145.0318  135.0899  151.0332 C   0  0  0  0  0  0  0  0  0  0  0  0
  143.9088  135.3142  151.9272 N   0  0  0  0  0  0  0  0  0  0  0  0
  143.5866  136.5704  152.4487 C   0  0  0  0  0  0  0  0  0  0  0  0
  144.3895  137.6447  152.0926 N   0  0  0  0  0  0  0  0  0  0  0  0
  142.5286  136.7660  153.2897 C   0  0  0  0  0  0  0  0  0  0  0  0
  142.2471  138.0384  153.7900 N   0  0  0  0  0  0  0  0  0  0  0  0
  141.1975  138.5016  154.6853 C   0  0  0  0  0  0  0  0  0  0  0  0
  139.8093  138.2851  154.0732 C   0  0  0  0  0  0  0  0  0  0  0  0
  138.8211  138.4901  155.0695 O   0  0  0  0  0  0  0  0  0  0  0  0
  137.5768  137.9053  154.7279 C   0  0  0  0  0  0  0  0  0  0  0  0
  141.6840  135.6239  153.6814 C   0  0  0  0  0  0  0  0  0  0  0  0
  140.7078  135.6521  154.4291 O   0  0  0  0  0  0  0  0  0  0  0  0
  142.0610  134.3991  153.1364 N   0  0  0  0  0  0  0  0  0  0  0  0
  143.1346  134.1841  152.2819 C   0  0  0  0  0  0  0  0  0  0  0  0
  143.3671  133.0419  151.8845 O   0  0  0  0  0  0  0  0  0  0  0  0
  141.5067  133.5943  153.3900 H   0  0  0  0  0  0  0  0  0  0  0  0
  146.0832  131.5663  149.1436 H   0  0  0  0  0  0  0  0  0  0  0  0
  144.8270  132.7710  149.4131 H   0  0  0  0  0  0  0  0  0  0  0  0
  145.1830  131.5735  150.6578 H   0  0  0  0  0  0  0  0  0  0  0  0
  147.4782  132.5669  150.9432 H   0  0  0  0  0  0  0  0  0  0  0  0
  147.1196  133.7464  149.7042 H   0  0  0  0  0  0  0  0  0  0  0  0
  145.6292  133.4854  152.3647 H   0  0  0  0  0  0  0  0  0  0  0  0
  146.8805  134.6502  152.0397 H   0  0  0  0  0  0  0  0  0  0  0  0
  145.4843  136.0689  150.8739 H   0  0  0  0  0  0  0  0  0  0  0  0
  144.6573  134.7959  150.0519 H   0  0  0  0  0  0  0  0  0  0  0  0
  145.1828  137.5352  151.4778 H   0  0  0  0  0  0  0  0  0  0  0  0
  144.1614  138.5903  152.3639 H   0  0  0  0  0  0  0  0  0  0  0  0
  142.8638  138.7746  153.4791 H   0  0  0  0  0  0  0  0  0  0  0  0
  141.2599  137.9428  155.6194 H   0  0  0  0  0  0  0  0  0  0  0  0
  141.3475  139.5555  154.9217 H   0  0  0  0  0  0  0  0  0  0  0  0
  139.6550  138.9593  153.2290 H   0  0  0  0  0  0  0  0  0  0  0  0
  139.7337  137.2648  153.6941 H   0  0  0  0  0  0  0  0  0  0  0  0
  136.8527  138.0942  155.5205 H   0  0  0  0  0  0  0  0  0  0  0  0
  137.6693  136.8253  154.6062 H   0  0  0  0  0  0  0  0  0  0  0  0
  137.1823  138.3297  153.8037 H   0  0  0  0  0  0  0  0  0  0  0  0
  1  2  1  0  0  0  0
  1 20  1  0  0  0  0
  1 21  1  0  0  0  0
  1 22  1  0  0  0  0
  2  3  1  0  0  0  0
  2 23  1  0  0  0  0
  2 24  1  0  0  0  0
  3  4  1  0  0  0  0
  3 25  1  0  0  0  0
  3 26  1  0  0  0  0
  4  5  1  0  0  0  0
  4 27  1  0  0  0  0
  4 28  1  0  0  0  0
  5 17  1  0  0  0  0
  5  6  1  0  0  0  0
  6  7  1  0  0  0  0
  6  8  2  0  0  0  0
  7 29  1  0  0  0  0
  7 30  1  0  0  0  0
  8  9  1  0  0  0  0
  8 14  1  0  0  0  0
  9 10  1  0  0  0  0
  9 31  1  0  0  0  0
 10 11  1  0  0  0  0
 10 32  1  0  0  0  0
 10 33  1  0  0  0  0
 11 12  1  0  0  0  0
 11 34  1  0  0  0  0
 11 35  1  0  0  0  0
 12 13  1  0  0  0  0
 13 36  1  0  0  0  0
 13 37  1  0  0  0  0
 13 38  1  0  0  0  0
 14 15  2  0  0  0  0
 14 16  1  0  0  0  0
 16 19  1  0  0  0  0
 16 17  1  0  0  0  0
 17 18  2  0  0  0  0
M  END
> <s_m_source_file>
AV-unprocessed.smi

> <i_m_source_file_index>
2628

> <i_lp_mmshare_version>
43012

> <i_f3d_flags>
0

> <s_epik_input>
W0NIM11bQ0gyXVtDSDJdW0NIMl1uMWMoW05IMl0pYyhjKD1PKVtuSF1jMT1PKVtOSF1bQ0gyXVtDSDJdT1tDSDNd

> <s_epik_cmdline>
J2VwaWtfcHl0aG9uJywgJy1waCcsICc3LjAnLCAnLXRuJywgJzgnLCAnLW1hJywgJzIwMCcsICctbWV0YWxfYmluZGluZycsICctaW1hZScsICc8aW5maWxlLm1hZT4nLCAnLW9tYWUnLCAnPG91dGZpbGUubWFlPic=

> <r_lp_tautomer_probability>
1

> <r_epik_Ionization_Penalty>
1.09794e-05

> <r_epik_Ionization_Penalty_Charging>
2.75876e-06

> <r_epik_Ionization_Penalty_Neutral>
8.2206e-06

> <r_epik_State_Penalty>
-0

> <r_epik_Charging_Adjusted_Penalty>
2.75876e-06

> <i_epik_Tot_Q>
0

> <i_epik_Tot_abs_Q>
0

> <r_epik_Metal_State_Penalty>
-0

> <b_epik_Metal_Only>
0

> <s_epik_Chemistry_Notes>
This compound has an imine and may undergo hydrolysis.

> <s_lp_Force_Field>
OPLS_2005

> <r_lp_Energy>
18.1798

> <b_lp_Chiralities_Consistent>
1

> <s_lp_Variant>
AV-unprocessed.smi:2628-1

> <Gold.Version>
5.8.1

> <Gold.Id.Protein>
6NUR|6NUR_protein|mol2

> <Gold.PLP.Fitness>
40.7423

> <Gold.PLP.PLP>
-33.0239

> <Gold.PLP.part.hbond>
-3.9070

> <Gold.PLP.part.metal>
0.0000

> <Gold.PLP.part.buried>
-6.9972

> <Gold.PLP.part.nonpolar>
-23.3475

> <Gold.PLP.part.repulsive>
0.5030

> <Gold.PLP.ligand.clash>
0.0000

> <Gold.PLP.ligand.torsion>
0.3966

> <Gold.PLP.Chemscore.Hbond>
2.8288

> <Gold.PLP.Chemscore.CHOScore>
0.0000

> <Gold.PLP.Chemscore.Metal>
0.0000

> <Gold.Chemscore.Hbonds>
donor molecule, donor type, donor heavy atom, donor atom, acceptor molecule, acceptor atom, score
      L1  H     7    30       P1 10175  1.00
      L1  H     9    31       P1 10175  0.86
      P1  H 11000 11005       L1    15  0.94

> <Gold.PLP.Chemscore.Internal.Correction>
0.0254

> <Gold.Rescore>
     Score         DG    S(hbond)    S(metal)    S(lipo)     H(rot)  DE(clash)    DE(int)     intcor
     12.26     -15.30       2.90        0.00      52.39       2.35       0.13       2.90       ----

> <Gold.Chemscore.Fitness>
12.2593

> <Gold.Chemscore.DG>
-15.2973

> <Gold.Chemscore.ZeroCoef>
-5.4800

> <Gold.Chemscore.Hbond>
2.9039

> <Gold.Chemscore.Metal>
0.0000

> <Gold.Chemscore.Lipo>
52.3942

> <Gold.Chemscore.Internal_Hbond>
0.0000

> <Gold.Chemscore.DEClash>
0.1338

> <Gold.Chemscore.DEInternal>
2.9041

> <Gold.Chemscore.Rot>
2.3484

> <Gold.Chemscore.Internal.Correction>
   9.000000E+99

> <Gold.Chemscore.Hbonds>
donor molecule, donor type, donor heavy atom, donor atom, acceptor molecule, acceptor atom, score
      L1  H     7    30       P1 10175  1.00
      L1  H     9    31       P1 10175  0.84
      P1  H 11000 11005       L1    15  0.91

> <Gold.Chemscore.Hbond.Weighted>
-9.6992

> <Gold.Chemscore.Metal.Weighted>
-0.0000

> <Gold.Chemscore.Lipo.Weighted>
-6.1301

> <Gold.Chemscore.Internal_Hbond.Weighted>
0.0000

> <Gold.Chemscore.DEClash.Weighted>
0.1338

> <Gold.Chemscore.DEInternal.Weighted>
2.9041

> <Gold.Chemscore.Rot.Weighted>
6.0120

> <Gold.Chemscore.Internal.Correction.Weighted>
   9.000000E+99

> <Gold.Protein.RotatedTorsions>
[ 6907 6896 6895 6894 ] final -138.76 input  -60.11 | X-H torsion
[ 7974 7965 7964 7962 ] final  -60.16 input  175.53 | X-H torsion
[ 8008 7997 7996 7995 ] final -109.90 input   59.86 | X-H torsion
[ 10167 10162 10161 10158 ] final -133.55 input  -65.29 | X-H torsion
[ 10718 10713 10712 10709 ] final -124.52 input   66.30 | X-H torsion
[ 10763 10752 10751 10750 ] final -170.37 input  -60.55 | X-H torsion
[ 11005 11000 10999 10996 ] final   46.85 input  -57.11 | X-H torsion

> <Gold.Protein.ActiveResidues>
 VAL166  LYS551  ARG553  GLY616  TRP617  ASP618  TYR619  PRO620  LYS621  CYS622 
 ASP623  PHE694  ASN695  SER759  ASP760  ASP761  ALA762  ILE779  LEU786  VAL792 
 PHE793  MET794  SER795  GLU796  ALA797  LYS798  CYS799  TRP800  GLU811  SER814 

> <Gold.Protein.RotatedAtoms>
  151.0392  133.5722  159.2652 H   0  0  0  0  0  0  0  0  0  0  0  0  # atno 6907 bound_to 6896
  151.2774  135.0702  159.9166 H   0  0  0  0  0  0  0  0  0  0  0  0  # atno 6908 bound_to 6896
  152.5360  134.0112  159.7993 H   0  0  0  0  0  0  0  0  0  0  0  0  # atno 6909 bound_to 6896
  145.8189  140.8552  143.0143 H   0  0  0  0  0  0  0  0  0  0  0  0  # atno 7974 bound_to 7965
  154.9663  140.0398  157.2214 H   0  0  0  0  0  0  0  0  0  0  0  0  # atno 8008 bound_to 7997
  154.7842  140.2824  155.6018 H   0  0  0  0  0  0  0  0  0  0  0  0  # atno 8009 bound_to 7997
  156.2940  140.2586  156.2674 H   0  0  0  0  0  0  0  0  0  0  0  0  # atno 8010 bound_to 7997
  139.8971  143.6652  152.2602 H   0  0  0  0  0  0  0  0  0  0  0  0  # atno 10167 bound_to 10162
  156.1595  130.6591  151.0029 H   0  0  0  0  0  0  0  0  0  0  0  0  # atno 10718 bound_to 10713
  154.6423  135.2900  155.0089 H   0  0  0  0  0  0  0  0  0  0  0  0  # atno 10763 bound_to 10752
  154.1211  135.6548  153.4907 H   0  0  0  0  0  0  0  0  0  0  0  0  # atno 10764 bound_to 10752
  153.0332  135.5288  154.7295 H   0  0  0  0  0  0  0  0  0  0  0  0  # atno 10765 bound_to 10752
  140.1332  134.4679  155.8506 H   0  0  0  0  0  0  0  0  0  0  0  0  # atno 11005 bound_to 11000
  144.6749  140.0504  143.7479 LP  0  0  0  0  0  0  0  0  0  0  0  0  # atno 17320 bound_to 7965
  145.9696  139.2860  143.1106 LP  0  0  0  0  0  0  0  0  0  0  0  0  # atno 17321 bound_to 7965
  139.7058  144.7628  151.1196 LP  0  0  0  0  0  0  0  0  0  0  0  0  # atno 17342 bound_to 10162
  140.7714  143.5397  150.9327 LP  0  0  0  0  0  0  0  0  0  0  0  0  # atno 17343 bound_to 10162
  157.6721  131.0859  150.7586 LP  0  0  0  0  0  0  0  0  0  0  0  0  # atno 17370 bound_to 10713
  156.7649  130.4810  149.5429 LP  0  0  0  0  0  0  0  0  0  0  0  0  # atno 17371 bound_to 10713
  141.2174  133.6804  156.7108 LP  0  0  0  0  0  0  0  0  0  0  0  0  # atno 17394 bound_to 11000
  140.2816  134.8312  157.3938 LP  0  0  0  0  0  0  0  0  0  0  0  0  # atno 17395 bound_to 11000

$$$$
