AV-unprocessed.smi:17|AV-procd|sdf|101|dock8
  -GOLD-   2262015253D 1   1.00000     0.00000
 Structure written by MMmdl.
 57 59  0  0  0  0  0  0  0  0  1 V2000
  147.6986  136.3974  162.8774 C   0  0  0  0  0  0  0  0  0  0  0  0
  148.0889  135.6329  161.6044 C   0  0  0  0  0  0  0  0  0  0  0  0
  147.1693  135.8931  160.4928 N   0  0  0  0  0  0  0  0  0  0  0  0
  147.5595  136.7516  159.5111 C   0  0  0  0  0  0  0  0  0  0  0  0
  146.6120  137.2154  158.6536 N   0  0  0  0  0  0  0  0  0  0  0  0
  146.9346  138.0697  157.6794 C   0  0  0  0  0  0  0  0  0  0  0  0
  148.1297  138.5775  157.3792 N   0  0  0  0  0  0  0  0  0  0  0  0
  149.0927  138.1038  158.2192 C   0  0  0  0  0  0  0  0  0  0  0  0
  148.8997  137.1965  159.3014 C   0  0  0  0  0  0  0  0  0  0  0  0
  150.1231  136.9347  159.9105 N   0  0  0  0  0  0  0  0  0  0  0  0
  150.9807  137.6548  159.2414 C   0  0  0  0  0  0  0  0  0  0  0  0
  150.4474  138.3839  158.2046 N   0  0  0  0  0  0  0  0  0  0  0  0
  151.1733  139.2550  157.2978 C   0  0  0  0  0  0  0  0  0  0  0  0
  150.7560  140.7412  157.4576 C   0  0  2  0  0  0  0  0  0  0  0  0
  150.3312  141.3104  156.0835 C   0  0  0  0  0  0  0  0  0  0  0  0
  149.1615  142.0966  156.1742 O   0  0  0  0  0  0  0  0  0  0  0  0
  151.8820  141.5688  158.1349 C   0  0  1  0  0  0  0  0  0  0  0  0
  151.5419  143.0174  158.4405 C   0  0  0  0  0  0  0  0  0  0  0  0
  152.5940  143.3864  159.4782 C   0  0  0  0  0  0  0  0  0  0  0  0
  152.8128  142.1999  160.2299 O   0  0  0  0  0  0  0  0  0  0  0  0
  152.2716  141.0792  159.5368 C   0  0  0  0  0  0  0  0  0  0  0  0
  145.8257  135.3040  160.4637 C   0  0  2  0  0  0  0  0  0  0  0  0
  145.5212  134.5467  161.7669 C   0  0  0  0  0  0  0  0  0  0  0  0
  145.5898  134.4183  159.2212 C   0  0  0  0  0  0  0  0  0  0  0  0
  143.8579  133.7730  159.1034 S   0  0  0  0  0  0  0  0  0  0  0  0
  144.0878  131.9586  159.3093 C   0  0  0  0  0  0  0  0  0  0  0  0
  143.1131  134.2589  160.2746 O   0  0  0  0  0  0  0  0  0  0  0  0
  143.3354  134.0204  157.7506 O   0  0  0  0  0  0  0  0  0  0  0  0
  148.3810  136.1601  163.6934 H   0  0  0  0  0  0  0  0  0  0  0  0
  146.6906  136.1385  163.2023 H   0  0  0  0  0  0  0  0  0  0  0  0
  147.7333  137.4758  162.7210 H   0  0  0  0  0  0  0  0  0  0  0  0
  149.1111  135.8815  161.3186 H   0  0  0  0  0  0  0  0  0  0  0  0
  148.0986  134.5671  161.8281 H   0  0  0  0  0  0  0  0  0  0  0  0
  146.1182  138.3923  157.0503 H   0  0  0  0  0  0  0  0  0  0  0  0
  152.0343  137.6667  159.4802 H   0  0  0  0  0  0  0  0  0  0  0  0
  152.2420  139.1159  157.4604 H   0  0  0  0  0  0  0  0  0  0  0  0
  150.9964  138.8963  156.2830 H   0  0  0  0  0  0  0  0  0  0  0  0
  149.8802  140.7828  158.1083 H   0  0  0  0  0  0  0  0  0  0  0  0
  151.1361  141.8959  155.6378 H   0  0  0  0  0  0  0  0  0  0  0  0
  150.1053  140.4996  155.3901 H   0  0  0  0  0  0  0  0  0  0  0  0
  149.3337  142.9396  155.7830 H   0  0  0  0  0  0  0  0  0  0  0  0
  152.7718  141.5539  157.5031 H   0  0  0  0  0  0  0  0  0  0  0  0
  151.5838  143.6645  157.5640 H   0  0  0  0  0  0  0  0  0  0  0  0
  150.5447  143.0927  158.8770 H   0  0  0  0  0  0  0  0  0  0  0  0
  153.5275  143.6673  158.9892 H   0  0  0  0  0  0  0  0  0  0  0  0
  152.2819  144.2133  160.1165 H   0  0  0  0  0  0  0  0  0  0  0  0
  151.3951  140.7321  160.0855 H   0  0  0  0  0  0  0  0  0  0  0  0
  152.9939  140.2635  159.5082 H   0  0  0  0  0  0  0  0  0  0  0  0
  145.0858  136.0980  160.3922 H   0  0  0  0  0  0  0  0  0  0  0  0
  144.4910  134.1905  161.7805 H   0  0  0  0  0  0  0  0  0  0  0  0
  145.6553  135.1913  162.6361 H   0  0  0  0  0  0  0  0  0  0  0  0
  146.1708  133.6804  161.8910 H   0  0  0  0  0  0  0  0  0  0  0  0
  145.8470  134.9179  158.2881 H   0  0  0  0  0  0  0  0  0  0  0  0
  146.2337  133.5410  159.2889 H   0  0  0  0  0  0  0  0  0  0  0  0
  143.1114  131.4764  159.3513 H   0  0  0  0  0  0  0  0  0  0  0  0
  144.6267  131.7597  160.2349 H   0  0  0  0  0  0  0  0  0  0  0  0
  144.6455  131.5535  158.4683 H   0  0  0  0  0  0  0  0  0  0  0  0
  1  2  1  0  0  0  0
  1 29  1  0  0  0  0
  1 30  1  0  0  0  0
  1 31  1  0  0  0  0
  2  3  1  0  0  0  0
  2 32  1  0  0  0  0
  2 33  1  0  0  0  0
  3  4  1  0  0  0  0
  3 22  1  0  0  0  0
  4  9  1  0  0  0  0
  4  5  2  0  0  0  0
  5  6  1  0  0  0  0
  6  7  2  0  0  0  0
  6 34  1  0  0  0  0
  7  8  1  0  0  0  0
  8 12  1  0  0  0  0
  8  9  2  0  0  0  0
  9 10  1  0  0  0  0
 10 11  2  0  0  0  0
 11 12  1  0  0  0  0
 11 35  1  0  0  0  0
 12 13  1  0  0  0  0
 13 14  1  0  0  0  0
 13 36  1  0  0  0  0
 13 37  1  0  0  0  0
 14 15  1  0  0  0  0
 14 17  1  0  0  0  0
 14 38  1  0  0  0  0
 15 16  1  0  0  0  0
 15 39  1  0  0  0  0
 15 40  1  0  0  0  0
 16 41  1  0  0  0  0
 17 21  1  0  0  0  0
 17 18  1  0  0  0  0
 17 42  1  0  0  0  0
 18 19  1  0  0  0  0
 18 43  1  0  0  0  0
 18 44  1  0  0  0  0
 19 20  1  0  0  0  0
 19 45  1  0  0  0  0
 19 46  1  0  0  0  0
 20 21  1  0  0  0  0
 21 47  1  0  0  0  0
 21 48  1  0  0  0  0
 22 23  1  0  0  0  0
 22 24  1  0  0  0  0
 22 49  1  0  0  0  0
 23 50  1  0  0  0  0
 23 51  1  0  0  0  0
 23 52  1  0  0  0  0
 24 25  1  0  0  0  0
 24 53  1  0  0  0  0
 24 54  1  0  0  0  0
 25 26  1  0  0  0  0
 25 27  2  0  0  0  0
 25 28  2  0  0  0  0
 26 55  1  0  0  0  0
 26 56  1  0  0  0  0
 26 57  1  0  0  0  0
M  END
> <s_m_source_file>
AV-unprocessed.smi

> <i_m_source_file_index>
17

> <i_lp_mmshare_version>
43012

> <i_f3d_flags>
0

> <s_epik_input>
W0NIM11TKD1PKSg9TylbQ0gyXVtDQEBIXShbQ0gzXSlOKFtDSDJdW0NIM10pYyhuW2NIXW4xKWMoYzEyKW5bY0hdbjJbQ0gyXVtDQEhdKFtDSDJdW09IXSlbQ0BASF0zW0NIMl1bQ0gyXU9bQ0gyXTM=

> <s_epik_cmdline>
J2VwaWtfcHl0aG9uJywgJy1waCcsICc3LjAnLCAnLXRuJywgJzgnLCAnLW1hJywgJzIwMCcsICctbWV0YWxfYmluZGluZycsICctaW1hZScsICc8aW5maWxlLm1hZT4nLCAnLW9tYWUnLCAnPG91dGZpbGUubWFlPic=

> <r_lp_tautomer_probability>
1

> <r_epik_Ionization_Penalty>
0.00119955

> <r_epik_Ionization_Penalty_Charging>
0

> <r_epik_Ionization_Penalty_Neutral>
0.00119955

> <r_epik_State_Penalty>
0.000665399

> <r_epik_Charging_Adjusted_Penalty>
0.000665399

> <i_epik_Tot_Q>
0

> <i_epik_Tot_abs_Q>
0

> <r_epik_Metal_State_Penalty>
-0

> <b_epik_Metal_Only>
0

> <s_lp_Force_Field>
OPLS_2005

> <r_lp_Energy>
37.2201

> <b_lp_Chiralities_Consistent>
1

> <s_lp_Variant>
AV-unprocessed.smi:17-3

> <Gold.Version>
5.8.1

> <Gold.Id.Protein>
6NUR|6NUR_protein|mol2

> <Gold.PLP.Fitness>
43.5006

> <Gold.PLP.PLP>
-37.8383

> <Gold.PLP.part.hbond>
-3.1593

> <Gold.PLP.part.metal>
0.0000

> <Gold.PLP.part.buried>
-7.7780

> <Gold.PLP.part.nonpolar>
-26.9964

> <Gold.PLP.part.repulsive>
0.0583

> <Gold.PLP.ligand.clash>
0.0000

> <Gold.PLP.ligand.torsion>
1.7347

> <Gold.PLP.Chemscore.Hbond>
2.8208

> <Gold.PLP.Chemscore.CHOScore>
0.0000

> <Gold.PLP.Chemscore.Metal>
0.0000

> <Gold.Chemscore.Hbonds>
donor molecule, donor type, donor heavy atom, donor atom, acceptor molecule, acceptor atom, score
      L1  H    16    41       P1  8028  0.96
      P1  H  6896  6909       L1    10  0.68
      P1  H 11000 11005       L1    28  0.49

> <Gold.PLP.Chemscore.Internal.Correction>
0.6694

> <Gold.Rescore>
     Score         DG    S(hbond)    S(metal)    S(lipo)     H(rot)  DE(clash)    DE(int)     intcor
     10.85     -15.39       2.70        0.00      84.46       3.51       0.00       4.54       ----

> <Gold.Chemscore.Fitness>
10.8479

> <Gold.Chemscore.DG>
-15.3894

> <Gold.Chemscore.ZeroCoef>
-5.4800

> <Gold.Chemscore.Hbond>
2.6954

> <Gold.Chemscore.Metal>
0.0000

> <Gold.Chemscore.Lipo>
84.4584

> <Gold.Chemscore.Internal_Hbond>
0.0000

> <Gold.Chemscore.DEClash>
0.0038

> <Gold.Chemscore.DEInternal>
4.5378

> <Gold.Chemscore.Rot>
3.5059

> <Gold.Chemscore.Internal.Correction>
   9.000000E+99

> <Gold.Chemscore.Hbonds>
donor molecule, donor type, donor heavy atom, donor atom, acceptor molecule, acceptor atom, score
      L1  H    16    41       P1  8028  0.92
      P1  H  6896  6909       L1    10  0.29
      P1  H 11000 11005       L1    28  0.47

> <Gold.Chemscore.Hbond.Weighted>
-9.0028

> <Gold.Chemscore.Metal.Weighted>
-0.0000

> <Gold.Chemscore.Lipo.Weighted>
-9.8816

> <Gold.Chemscore.Internal_Hbond.Weighted>
0.0000

> <Gold.Chemscore.DEClash.Weighted>
0.0038

> <Gold.Chemscore.DEInternal.Weighted>
4.5378

> <Gold.Chemscore.Rot.Weighted>
8.9750

> <Gold.Chemscore.Internal.Correction.Weighted>
   9.000000E+99

> <Gold.Protein.RotatedTorsions>
[ 6907 6896 6895 6894 ] final   74.30 input  -60.11 | X-H torsion
[ 7974 7965 7964 7962 ] final   60.69 input  175.53 | X-H torsion
[ 8008 7997 7996 7995 ] final   69.11 input   59.86 | X-H torsion
[ 10167 10162 10161 10158 ] final -137.60 input  -65.29 | X-H torsion
[ 10718 10713 10712 10709 ] final  -96.93 input   66.30 | X-H torsion
[ 10763 10752 10751 10750 ] final  171.95 input  -60.55 | X-H torsion
[ 11005 11000 10999 10996 ] final  -99.47 input  -57.11 | X-H torsion

> <Gold.Protein.ActiveResidues>
 VAL166  LYS551  ARG553  GLY616  TRP617  ASP618  TYR619  PRO620  LYS621  CYS622 
 ASP623  PHE694  ASN695  SER759  ASP760  ASP761  ALA762  ILE779  LEU786  VAL792 
 PHE793  MET794  SER795  GLU796  ALA797  LYS798  CYS799  TRP800  GLU811  SER814 

> <Gold.Protein.RotatedAtoms>
  152.4969  134.4291  159.9506 H   0  0  0  0  0  0  0  0  0  0  0  0  # atno 6907 bound_to 6896
  151.4268  133.3675  159.2771 H   0  0  0  0  0  0  0  0  0  0  0  0  # atno 6908 bound_to 6896
  150.9183  134.8623  159.7531 H   0  0  0  0  0  0  0  0  0  0  0  0  # atno 6909 bound_to 6896
  145.8932  139.3526  143.0637 H   0  0  0  0  0  0  0  0  0  0  0  0  # atno 7974 bound_to 7965
  155.7186  140.3493  155.5006 H   0  0  0  0  0  0  0  0  0  0  0  0  # atno 8008 bound_to 7997
  155.9290  140.1081  157.1169 H   0  0  0  0  0  0  0  0  0  0  0  0  # atno 8009 bound_to 7997
  154.4082  140.1235  156.4765 H   0  0  0  0  0  0  0  0  0  0  0  0  # atno 8010 bound_to 7997
  139.8562  143.7135  152.2654 H   0  0  0  0  0  0  0  0  0  0  0  0  # atno 10167 bound_to 10162
  156.0072  130.5172  150.6299 H   0  0  0  0  0  0  0  0  0  0  0  0  # atno 10718 bound_to 10713
  154.4192  135.2757  155.1987 H   0  0  0  0  0  0  0  0  0  0  0  0  # atno 10763 bound_to 10752
  154.3940  135.6060  153.5863 H   0  0  0  0  0  0  0  0  0  0  0  0  # atno 10764 bound_to 10752
  152.9832  135.5910  154.4485 H   0  0  0  0  0  0  0  0  0  0  0  0  # atno 10765 bound_to 10752
  141.1307  133.8324  157.0975 H   0  0  0  0  0  0  0  0  0  0  0  0  # atno 11005 bound_to 11000
  145.8882  140.9320  143.0565 LP  0  0  0  0  0  0  0  0  0  0  0  0  # atno 17320 bound_to 7965
  144.6731  140.0871  143.7467 LP  0  0  0  0  0  0  0  0  0  0  0  0  # atno 17321 bound_to 7965
  139.7418  144.7557  151.0641 LP  0  0  0  0  0  0  0  0  0  0  0  0  # atno 17342 bound_to 10162
  140.7781  143.4964  150.9827 LP  0  0  0  0  0  0  0  0  0  0  0  0  # atno 17343 bound_to 10162
  157.4099  131.0822  151.1230 LP  0  0  0  0  0  0  0  0  0  0  0  0  # atno 17370 bound_to 10713
  157.1865  130.6333  149.5690 LP  0  0  0  0  0  0  0  0  0  0  0  0  # atno 17371 bound_to 10713
  140.0354  134.9881  157.0860 LP  0  0  0  0  0  0  0  0  0  0  0  0  # atno 17394 bound_to 11000
  140.4219  134.1871  155.7165 LP  0  0  0  0  0  0  0  0  0  0  0  0  # atno 17395 bound_to 11000

$$$$
