AV-unprocessed.smi:1966|AV-procd|sdf|7952|dock6
  -GOLD-   2272010123D 1   1.00000     0.00000
 Structure written by MMmdl.
 53 54  0  0  0  0  0  0  0  0  1 V2000
  147.1082  142.5804  158.6543 C   0  0  0  0  0  0  0  0  0  0  0  0
  146.1627  142.3285  157.4849 C   0  0  0  0  0  0  0  0  0  0  0  0
  145.0425  142.8377  157.4764 O   0  0  0  0  0  0  0  0  0  0  0  0
  146.6281  141.5426  156.5010 N   0  0  0  0  0  0  0  0  0  0  0  0
  145.8885  141.1661  155.2939 C   0  0  2  0  0  0  0  0  0  0  0  0
  146.0428  139.6490  155.0689 C   0  0  0  0  0  0  0  0  0  0  0  0
  146.7330  138.9805  155.8399 O   0  0  0  0  0  0  0  0  0  0  0  0
  145.3832  139.1466  154.0088 N   0  0  0  0  0  0  0  0  0  0  0  0
  145.3681  137.8071  153.5361 C   0  0  0  0  0  0  0  0  0  0  0  0
  146.1490  136.7650  154.0889 C   0  0  0  0  0  0  0  0  0  0  0  0
  146.0703  135.4798  153.5197 C   0  0  0  0  0  0  0  0  0  0  0  0
  145.2216  135.2766  152.4126 C   0  0  0  0  0  0  0  0  0  0  0  0
  145.1421  133.9973  151.8445 N   0  0  0  0  0  0  0  0  0  0  0  0
  146.4238  133.3072  151.7816 C   0  0  0  0  0  0  0  0  0  0  0  0
  146.2410  131.8607  151.2809 C   0  0  1  0  0  0  0  0  0  0  0  0
  145.6317  130.9178  152.3337 C   0  0  0  0  0  0  0  0  0  0  0  0
  145.4997  131.8528  150.0575 O   0  0  0  0  0  0  0  0  0  0  0  0
  144.2336  132.5110  150.1173 C   0  0  2  0  0  0  0  0  0  0  0  0
  143.5889  132.4271  148.7302 C   0  0  0  0  0  0  0  0  0  0  0  0
  144.4344  133.9678  150.5724 C   0  0  0  0  0  0  0  0  0  0  0  0
  144.4818  136.2721  151.8691 N   0  0  0  0  0  0  0  0  0  0  0  0
  144.5632  137.5026  152.4186 C   0  0  0  0  0  0  0  0  0  0  0  0
  146.4726  141.9468  154.0792 C   0  0  0  0  0  0  0  0  0  0  0  0
  148.0134  141.9883  154.1088 C   0  0  0  0  0  0  0  0  0  0  0  0
  145.9329  143.3885  153.9726 C   0  0  0  0  0  0  0  0  0  0  0  0
  147.6258  141.6636  158.9385 H   0  0  0  0  0  0  0  0  0  0  0  0
  146.5582  142.9435  159.5231 H   0  0  0  0  0  0  0  0  0  0  0  0
  147.8530  143.3287  158.3826 H   0  0  0  0  0  0  0  0  0  0  0  0
  147.5582  141.1619  156.5987 H   0  0  0  0  0  0  0  0  0  0  0  0
  144.8337  141.4228  155.4155 H   0  0  0  0  0  0  0  0  0  0  0  0
  144.7739  139.7878  153.5214 H   0  0  0  0  0  0  0  0  0  0  0  0
  146.8142  136.9290  154.9226 H   0  0  0  0  0  0  0  0  0  0  0  0
  146.6560  134.6675  153.9247 H   0  0  0  0  0  0  0  0  0  0  0  0
  147.0862  133.8444  151.1011 H   0  0  0  0  0  0  0  0  0  0  0  0
  146.9019  133.3130  152.7619 H   0  0  0  0  0  0  0  0  0  0  0  0
  147.2287  131.4669  151.0405 H   0  0  0  0  0  0  0  0  0  0  0  0
  146.2765  130.8512  153.2103 H   0  0  0  0  0  0  0  0  0  0  0  0
  145.5159  129.9106  151.9332 H   0  0  0  0  0  0  0  0  0  0  0  0
  144.6546  131.2564  152.6772 H   0  0  0  0  0  0  0  0  0  0  0  0
  143.5840  131.9937  150.8235 H   0  0  0  0  0  0  0  0  0  0  0  0
  142.6124  132.9119  148.7211 H   0  0  0  0  0  0  0  0  0  0  0  0
  143.4468  131.3889  148.4291 H   0  0  0  0  0  0  0  0  0  0  0  0
  144.2105  132.9109  147.9762 H   0  0  0  0  0  0  0  0  0  0  0  0
  143.4696  134.4662  150.6760 H   0  0  0  0  0  0  0  0  0  0  0  0
  145.0045  134.5189  149.8229 H   0  0  0  0  0  0  0  0  0  0  0  0
  143.9609  138.2682  151.9514 H   0  0  0  0  0  0  0  0  0  0  0  0
  146.1862  141.4271  153.1630 H   0  0  0  0  0  0  0  0  0  0  0  0
  148.3775  142.4622  155.0208 H   0  0  0  0  0  0  0  0  0  0  0  0
  148.4076  142.5524  153.2631 H   0  0  0  0  0  0  0  0  0  0  0  0
  148.4500  140.9911  154.0541 H   0  0  0  0  0  0  0  0  0  0  0  0
  146.1402  143.9552  154.8809 H   0  0  0  0  0  0  0  0  0  0  0  0
  144.8566  143.4143  153.8013 H   0  0  0  0  0  0  0  0  0  0  0  0
  146.3951  143.9194  153.1399 H   0  0  0  0  0  0  0  0  0  0  0  0
  1  2  1  0  0  0  0
  1 26  1  0  0  0  0
  1 27  1  0  0  0  0
  1 28  1  0  0  0  0
  2  3  2  0  0  0  0
  2  4  1  0  0  0  0
  4  5  1  0  0  0  0
  4 29  1  0  0  0  0
  5  6  1  0  0  0  0
  5 23  1  0  0  0  0
  5 30  1  0  0  0  0
  6  7  2  0  0  0  0
  6  8  1  0  0  0  0
  8  9  1  0  0  0  0
  8 31  1  0  0  0  0
  9 22  1  0  0  0  0
  9 10  2  0  0  0  0
 10 11  1  0  0  0  0
 10 32  1  0  0  0  0
 11 12  2  0  0  0  0
 11 33  1  0  0  0  0
 12 13  1  0  0  0  0
 12 21  1  0  0  0  0
 13 20  1  0  0  0  0
 13 14  1  0  0  0  0
 14 15  1  0  0  0  0
 14 34  1  0  0  0  0
 14 35  1  0  0  0  0
 15 16  1  0  0  0  0
 15 17  1  0  0  0  0
 15 36  1  0  0  0  0
 16 37  1  0  0  0  0
 16 38  1  0  0  0  0
 16 39  1  0  0  0  0
 17 18  1  0  0  0  0
 18 19  1  0  0  0  0
 18 20  1  0  0  0  0
 18 40  1  0  0  0  0
 19 41  1  0  0  0  0
 19 42  1  0  0  0  0
 19 43  1  0  0  0  0
 20 44  1  0  0  0  0
 20 45  1  0  0  0  0
 21 22  2  0  0  0  0
 22 46  1  0  0  0  0
 23 24  1  0  0  0  0
 23 25  1  0  0  0  0
 23 47  1  0  0  0  0
 24 48  1  0  0  0  0
 24 49  1  0  0  0  0
 24 50  1  0  0  0  0
 25 51  1  0  0  0  0
 25 52  1  0  0  0  0
 25 53  1  0  0  0  0
M  END
> <s_m_source_file>
AV-unprocessed.smi

> <i_m_source_file_index>
1966

> <i_lp_mmshare_version>
43012

> <i_f3d_flags>
0

> <s_epik_input>
W0NIM11DKD1PKVtOSF1bQ0BASF0oW0NIXShbQ0gzXSlbQ0gzXSlDKD1PKVtOSF1jMVtjSF1bY0hdYyhuW2NIXTEpTjJbQ0gyXVtDQEBIXShbQ0gzXSlPW0NAQEhdKFtDSDNdKVtDSDJdMg==

> <s_epik_cmdline>
J2VwaWtfcHl0aG9uJywgJy1waCcsICc3LjAnLCAnLXRuJywgJzgnLCAnLW1hJywgJzIwMCcsICctbWV0YWxfYmluZGluZycsICctaW1hZScsICc8aW5maWxlLm1hZT4nLCAnLW9tYWUnLCAnPG91dGZpbGUubWFlPic=

> <r_lp_tautomer_probability>
1

> <r_epik_Ionization_Penalty>
0.000679699

> <r_epik_Ionization_Penalty_Charging>
0

> <r_epik_Ionization_Penalty_Neutral>
0.000679699

> <r_epik_State_Penalty>
0.000430485

> <r_epik_Charging_Adjusted_Penalty>
0.000430485

> <i_epik_Tot_Q>
0

> <i_epik_Tot_abs_Q>
0

> <r_epik_Metal_State_Penalty>
-0

> <b_epik_Metal_Only>
0

> <s_lp_Force_Field>
OPLS_2005

> <r_lp_Energy>
29.6381

> <b_lp_Chiralities_Consistent>
1

> <s_lp_Variant>
AV-unprocessed.smi:1966-5

> <Gold.Version>
5.8.1

> <Gold.Id.Protein>
6NUR|6NUR_protein|mol2

> <Gold.PLP.Fitness>
39.5560

> <Gold.PLP.PLP>
-32.5489

> <Gold.PLP.part.hbond>
-1.0000

> <Gold.PLP.part.metal>
0.0000

> <Gold.PLP.part.buried>
-0.2903

> <Gold.PLP.part.nonpolar>
-31.5102

> <Gold.PLP.part.repulsive>
0.4972

> <Gold.PLP.ligand.clash>
0.0000

> <Gold.PLP.ligand.torsion>
0.9022

> <Gold.PLP.Chemscore.Hbond>
1.0000

> <Gold.PLP.Chemscore.CHOScore>
1.8862

> <Gold.PLP.Chemscore.Metal>
0.0000

> <Gold.Chemscore.Hbonds>
donor molecule, donor type, donor heavy atom, donor atom, acceptor molecule, acceptor atom, score
      L1  H     8    31       P1 10175  1.00
      L1  C    22    46       P1 10171  0.90
      L1  C    22    46       P1 10175  1.00

> <Gold.PLP.Chemscore.Internal.Correction>
0.1530

> <Gold.Rescore>
     Score         DG    S(hbond)    S(metal)    S(lipo)     H(rot)  DE(clash)    DE(int)     intcor
     12.81     -14.59       1.00        0.00      86.04       1.68       0.23       1.55       ----

> <Gold.Chemscore.Fitness>
12.8134

> <Gold.Chemscore.DG>
-14.5922

> <Gold.Chemscore.ZeroCoef>
-5.4800

> <Gold.Chemscore.Hbond>
0.9985

> <Gold.Chemscore.Metal>
0.0000

> <Gold.Chemscore.Lipo>
86.0450

> <Gold.Chemscore.Internal_Hbond>
0.0000

> <Gold.Chemscore.DEClash>
0.2333

> <Gold.Chemscore.DEInternal>
1.5454

> <Gold.Chemscore.Rot>
1.6759

> <Gold.Chemscore.Internal.Correction>
   9.000000E+99

> <Gold.Chemscore.Hbonds>
donor molecule, donor type, donor heavy atom, donor atom, acceptor molecule, acceptor atom, score
      L1  H     8    31       P1 10175  1.00

> <Gold.Chemscore.Hbond.Weighted>
-3.3351

> <Gold.Chemscore.Metal.Weighted>
-0.0000

> <Gold.Chemscore.Lipo.Weighted>
-10.0673

> <Gold.Chemscore.Internal_Hbond.Weighted>
0.0000

> <Gold.Chemscore.DEClash.Weighted>
0.2333

> <Gold.Chemscore.DEInternal.Weighted>
1.5454

> <Gold.Chemscore.Rot.Weighted>
4.2902

> <Gold.Chemscore.Internal.Correction.Weighted>
   9.000000E+99

> <Gold.Protein.RotatedTorsions>
[ 6907 6896 6895 6894 ] final  -20.73 input  -60.11 | X-H torsion
[ 7974 7965 7964 7962 ] final  176.25 input  175.53 | X-H torsion
[ 8008 7997 7996 7995 ] final   90.90 input   59.86 | X-H torsion
[ 10167 10162 10161 10158 ] final  -20.25 input  -65.29 | X-H torsion
[ 10718 10713 10712 10709 ] final  -88.72 input   66.30 | X-H torsion
[ 10763 10752 10751 10750 ] final  -67.57 input  -60.55 | X-H torsion
[ 11005 11000 10999 10996 ] final  -42.02 input  -57.11 | X-H torsion

> <Gold.Protein.ActiveResidues>
 VAL166  LYS551  ARG553  GLY616  TRP617  ASP618  TYR619  PRO620  LYS621  CYS622 
 ASP623  PHE694  ASN695  SER759  ASP760  ASP761  ALA762  ILE779  LEU786  VAL792 
 PHE793  MET794  SER795  GLU796  ALA797  LYS798  CYS799  TRP800  GLU811  SER814 

> <Gold.Protein.RotatedAtoms>
  151.2437  135.0598  159.9034 H   0  0  0  0  0  0  0  0  0  0  0  0  # atno 6907 bound_to 6896
  152.5389  134.0406  159.8076 H   0  0  0  0  0  0  0  0  0  0  0  0  # atno 6908 bound_to 6896
  151.0604  133.5500  159.2666 H   0  0  0  0  0  0  0  0  0  0  0  0  # atno 6909 bound_to 6896
  144.7187  140.0068  143.6440 H   0  0  0  0  0  0  0  0  0  0  0  0  # atno 7974 bound_to 7965
  156.0175  140.3344  155.7004 H   0  0  0  0  0  0  0  0  0  0  0  0  # atno 8008 bound_to 7997
  155.6070  140.0661  157.2734 H   0  0  0  0  0  0  0  0  0  0  0  0  # atno 8009 bound_to 7997
  154.4303  140.1800  156.1220 H   0  0  0  0  0  0  0  0  0  0  0  0  # atno 8010 bound_to 7997
  140.7275  143.4740  151.0207 H   0  0  0  0  0  0  0  0  0  0  0  0  # atno 10167 bound_to 10162
  155.9983  130.4846  150.5062 H   0  0  0  0  0  0  0  0  0  0  0  0  # atno 10718 bound_to 10713
  154.3764  135.6084  153.5767 H   0  0  0  0  0  0  0  0  0  0  0  0  # atno 10763 bound_to 10752
  152.9789  135.5850  154.4462 H   0  0  0  0  0  0  0  0  0  0  0  0  # atno 10764 bound_to 10752
  154.4224  135.2846  155.1944 H   0  0  0  0  0  0  0  0  0  0  0  0  # atno 10765 bound_to 10752
  141.0287  133.6830  156.2537 H   0  0  0  0  0  0  0  0  0  0  0  0  # atno 11005 bound_to 11000
  146.0291  139.3318  143.0766 LP  0  0  0  0  0  0  0  0  0  0  0  0  # atno 17320 bound_to 7965
  145.8475  140.9547  143.0767 LP  0  0  0  0  0  0  0  0  0  0  0  0  # atno 17321 bound_to 7965
  139.8434  143.7533  152.3180 LP  0  0  0  0  0  0  0  0  0  0  0  0  # atno 17342 bound_to 10162
  139.7690  144.7482  151.0252 LP  0  0  0  0  0  0  0  0  0  0  0  0  # atno 17343 bound_to 10162
  157.3041  131.0651  151.2048 LP  0  0  0  0  0  0  0  0  0  0  0  0  # atno 17370 bound_to 10713
  157.3017  130.6846  149.6167 LP  0  0  0  0  0  0  0  0  0  0  0  0  # atno 17371 bound_to 10713
  140.6446  134.5130  157.5572 LP  0  0  0  0  0  0  0  0  0  0  0  0  # atno 17394 bound_to 11000
  139.9193  134.8182  156.1263 LP  0  0  0  0  0  0  0  0  0  0  0  0  # atno 17395 bound_to 11000

$$$$
