AV-unprocessed.smi:2010|AV-procd|sdf|8151|dock3
  -GOLD-   2272010393D 1   1.00000     0.00000
 Structure written by MMmdl.
 40 41  0  0  0  0  0  0  0  0  2 V2000
  152.2170  145.0909  159.1271 C   0  0  0  0  0  0  0  0  0  0  0  0
  152.0504  143.5735  159.2895 C   0  0  0  0  0  0  0  0  0  0  0  0
  153.3611  142.9004  159.7192 C   0  0  0  0  0  0  0  0  0  0  0  0
  153.1869  141.3810  159.8722 C   0  0  0  0  0  0  0  0  0  0  0  0
  152.6553  140.7700  158.6352 N   0  0  0  0  0  0  0  0  0  0  0  0
  152.8458  139.0495  158.4382 S   0  0  0  0  0  0  0  0  0  0  0  0
  152.0172  138.4487  159.4949 O   0  0  0  0  0  0  0  0  0  0  0  0
  152.4941  138.7334  157.0428 O   0  0  0  0  0  0  0  0  0  0  0  0
  154.4414  138.9418  158.7603 N   0  5  0  0  0  0  0  0  0  0  0  0
  154.9466  138.3772  160.0125 C   0  0  2  0  0  0  0  0  0  0  0  0
  156.4803  138.3092  159.9406 C   0  0  0  0  0  0  0  0  0  0  0  0
  154.2747  137.0098  160.3196 C   0  0  0  0  0  0  0  0  0  0  0  0
  154.2186  136.6344  161.7305 N   0  0  0  0  0  0  0  0  0  0  0  0
  153.5962  137.2947  162.7731 C   0  0  0  0  0  0  0  0  0  0  0  0
  153.7871  136.5531  163.9034 C   0  0  0  0  0  0  0  0  0  0  0  0
  154.5330  135.4310  163.4477 C   0  0  0  0  0  0  0  0  0  0  0  0
  154.7773  135.4747  162.1490 N   0  0  0  0  0  0  0  0  0  0  0  0
  151.4056  141.3900  158.1548 C   0  0  0  0  0  0  0  0  0  0  0  0
  151.5636  142.9113  157.9929 C   0  0  0  0  0  0  0  0  0  0  0  0
  152.9582  145.3291  158.3636 H   0  0  0  0  0  0  0  0  0  0  0  0
  152.5406  145.5516  160.0609 H   0  0  0  0  0  0  0  0  0  0  0  0
  151.2765  145.5598  158.8365 H   0  0  0  0  0  0  0  0  0  0  0  0
  151.3035  143.3998  160.0655 H   0  0  0  0  0  0  0  0  0  0  0  0
  154.1424  143.1046  158.9858 H   0  0  0  0  0  0  0  0  0  0  0  0
  153.7077  143.3230  160.6626 H   0  0  0  0  0  0  0  0  0  0  0  0
  154.1423  140.9284  160.1338 H   0  0  0  0  0  0  0  0  0  0  0  0
  152.5054  141.1597  160.6943 H   0  0  0  0  0  0  0  0  0  0  0  0
  154.7087  139.0293  160.8530 H   0  0  0  0  0  0  0  0  0  0  0  0
  156.8940  137.8696  160.8484 H   0  0  0  0  0  0  0  0  0  0  0  0
  156.9108  139.3054  159.8339 H   0  0  0  0  0  0  0  0  0  0  0  0
  156.8215  137.7123  159.0941 H   0  0  0  0  0  0  0  0  0  0  0  0
  153.2465  137.0405  159.9577 H   0  0  0  0  0  0  0  0  0  0  0  0
  154.7525  136.2078  159.7571 H   0  0  0  0  0  0  0  0  0  0  0  0
  153.0800  138.2315  162.6237 H   0  0  0  0  0  0  0  0  0  0  0  0
  153.4440  136.7767  164.9025 H   0  0  0  0  0  0  0  0  0  0  0  0
  154.8969  134.5884  164.0168 H   0  0  0  0  0  0  0  0  0  0  0  0
  151.1239  140.9618  157.1934 H   0  0  0  0  0  0  0  0  0  0  0  0
  150.6023  141.1578  158.8549 H   0  0  0  0  0  0  0  0  0  0  0  0
  150.6115  143.3453  157.6858 H   0  0  0  0  0  0  0  0  0  0  0  0
  152.2700  143.1157  157.1867 H   0  0  0  0  0  0  0  0  0  0  0  0
  1  2  1  0  0  0  0
  1 20  1  0  0  0  0
  1 21  1  0  0  0  0
  1 22  1  0  0  0  0
  2 19  1  0  0  0  0
  2  3  1  0  0  0  0
  2 23  1  0  0  0  0
  3  4  1  0  0  0  0
  3 24  1  0  0  0  0
  3 25  1  0  0  0  0
  4  5  1  0  0  0  0
  4 26  1  0  0  0  0
  4 27  1  0  0  0  0
  5  6  1  0  0  0  0
  5 18  1  0  0  0  0
  6  7  2  0  0  0  0
  6  8  2  0  0  0  0
  6  9  1  0  0  0  0
  9 10  1  0  0  0  0
 10 11  1  0  0  0  0
 10 12  1  0  0  0  0
 10 28  1  0  0  0  0
 11 29  1  0  0  0  0
 11 30  1  0  0  0  0
 11 31  1  0  0  0  0
 12 13  1  0  0  0  0
 12 32  1  0  0  0  0
 12 33  1  0  0  0  0
 13 17  1  0  0  0  0
 13 14  1  0  0  0  0
 14 15  2  0  0  0  0
 14 34  1  0  0  0  0
 15 16  1  0  0  0  0
 15 35  1  0  0  0  0
 16 17  2  0  0  0  0
 16 36  1  0  0  0  0
 18 19  1  0  0  0  0
 18 37  1  0  0  0  0
 18 38  1  0  0  0  0
 19 39  1  0  0  0  0
 19 40  1  0  0  0  0
M  CHG  1   9  -1
M  END
> <s_m_source_file>
AV-unprocessed.smi

> <i_m_source_file_index>
2010

> <i_lp_mmshare_version>
43012

> <i_f3d_flags>
0

> <s_epik_input>
W0NIM11bQ0hdMVtDSDJdW0NIMl1OKFtDSDJdW0NIMl0xKVMoPU8pKD1PKVtOSF1bQ0BIXShbQ0gzXSlbQ0gyXW4yW2NIXVtjSF1bY0hdbjI=

> <s_epik_cmdline>
J2VwaWtfcHl0aG9uJywgJy1waCcsICc3LjAnLCAnLXRuJywgJzgnLCAnLW1hJywgJzIwMCcsICctbWV0YWxfYmluZGluZycsICctaW1hZScsICc8aW5maWxlLm1hZT4nLCAnLW9tYWUnLCAnPG91dGZpbGUubWFlPic=

> <r_lp_tautomer_probability>
1

> <r_epik_Ionization_Penalty>
1.75622

> <r_epik_Ionization_Penalty_Charging>
1.7562

> <r_epik_Ionization_Penalty_Neutral>
2.39925e-05

> <r_epik_State_Penalty>
1.86645

> <r_epik_Charging_Adjusted_Penalty>
3.62264

> <i_epik_Tot_Q>
-1

> <i_epik_Tot_abs_Q>
1

> <r_epik_Metal_State_Penalty>
0.460135

> <b_epik_Metal_Only>
0

> <s_lp_Force_Field>
OPLS_2005

> <r_lp_Energy>
7.98706

> <b_lp_Chiralities_Consistent>
1

> <s_lp_Variant>
AV-unprocessed.smi:2010-3

> <Gold.Version>
5.8.1

> <Gold.Id.Protein>
6NUR|6NUR_protein|mol2

> <Gold.PLP.Fitness>
42.7948

> <Gold.PLP.PLP>
-37.4734

> <Gold.PLP.part.hbond>
-1.2590

> <Gold.PLP.part.metal>
0.0000

> <Gold.PLP.part.buried>
-4.8257

> <Gold.PLP.part.nonpolar>
-31.6583

> <Gold.PLP.part.repulsive>
0.0000

> <Gold.PLP.ligand.clash>
0.0000

> <Gold.PLP.ligand.torsion>
1.2000

> <Gold.PLP.Chemscore.Hbond>
2.0000

> <Gold.PLP.Chemscore.CHOScore>
0.0000

> <Gold.PLP.Chemscore.Metal>
0.0000

> <Gold.Chemscore.Hbonds>
donor molecule, donor type, donor heavy atom, donor atom, acceptor molecule, acceptor atom, score
      P1  H  7997  8009       L1     9  2.00

> <Gold.PLP.Chemscore.Internal.Correction>
1.7213

> <Gold.Rescore>
     Score         DG    S(hbond)    S(metal)    S(lipo)     H(rot)  DE(clash)    DE(int)     intcor
     14.10     -16.70       0.89        0.00     104.22       1.54       0.03       2.57       ----

> <Gold.Chemscore.Fitness>
14.1000

> <Gold.Chemscore.DG>
-16.7023

> <Gold.Chemscore.ZeroCoef>
-5.4800

> <Gold.Chemscore.Hbond>
0.8879

> <Gold.Chemscore.Metal>
0.0000

> <Gold.Chemscore.Lipo>
104.2167

> <Gold.Chemscore.Internal_Hbond>
0.0000

> <Gold.Chemscore.DEClash>
0.0310

> <Gold.Chemscore.DEInternal>
2.5713

> <Gold.Chemscore.Rot>
1.5377

> <Gold.Chemscore.Internal.Correction>
   9.000000E+99

> <Gold.Chemscore.Hbonds>
donor molecule, donor type, donor heavy atom, donor atom, acceptor molecule, acceptor atom, score
      P1  H  7997  8009       L1     9  0.39

> <Gold.Chemscore.Hbond.Weighted>
-2.9655

> <Gold.Chemscore.Metal.Weighted>
-0.0000

> <Gold.Chemscore.Lipo.Weighted>
-12.1934

> <Gold.Chemscore.Internal_Hbond.Weighted>
0.0000

> <Gold.Chemscore.DEClash.Weighted>
0.0310

> <Gold.Chemscore.DEInternal.Weighted>
2.5713

> <Gold.Chemscore.Rot.Weighted>
3.9365

> <Gold.Chemscore.Internal.Correction.Weighted>
   9.000000E+99

> <Gold.Protein.RotatedTorsions>
[ 6907 6896 6895 6894 ] final   10.59 input  -60.11 | X-H torsion
[ 7974 7965 7964 7962 ] final  -76.02 input  175.53 | X-H torsion
[ 8008 7997 7996 7995 ] final  110.54 input   59.86 | X-H torsion
[ 10167 10162 10161 10158 ] final  -44.64 input  -65.29 | X-H torsion
[ 10718 10713 10712 10709 ] final  -13.14 input   66.30 | X-H torsion
[ 10763 10752 10751 10750 ] final  134.46 input  -60.55 | X-H torsion
[ 11005 11000 10999 10996 ] final  123.88 input  -57.11 | X-H torsion

> <Gold.Protein.ActiveResidues>
 VAL166  LYS551  ARG553  GLY616  TRP617  ASP618  TYR619  PRO620  LYS621  CYS622 
 ASP623  PHE694  ASN695  SER759  ASP760  ASP761  ALA762  ILE779  LEU786  VAL792 
 PHE793  MET794  SER795  GLU796  ALA797  LYS798  CYS799  TRP800  GLU811  SER814 

> <Gold.Protein.RotatedAtoms>
  151.7407  135.0855  160.0314 H   0  0  0  0  0  0  0  0  0  0  0  0  # atno 6907 bound_to 6896
  152.3481  133.6142  159.5933 H   0  0  0  0  0  0  0  0  0  0  0  0  # atno 6908 bound_to 6896
  150.7522  133.9533  159.3534 H   0  0  0  0  0  0  0  0  0  0  0  0  # atno 6909 bound_to 6896
  145.6183  140.9369  143.1152 H   0  0  0  0  0  0  0  0  0  0  0  0  # atno 7974 bound_to 7965
  156.2060  140.3037  155.9627 H   0  0  0  0  0  0  0  0  0  0  0  0  # atno 8008 bound_to 7997
  155.2841  140.0439  157.3035 H   0  0  0  0  0  0  0  0  0  0  0  0  # atno 8009 bound_to 7997
  154.5633  140.2327  155.8310 H   0  0  0  0  0  0  0  0  0  0  0  0  # atno 8010 bound_to 7997
  140.6889  143.2920  151.3525 H   0  0  0  0  0  0  0  0  0  0  0  0  # atno 10167 bound_to 10162
  156.6346  130.4911  149.6117 H   0  0  0  0  0  0  0  0  0  0  0  0  # atno 10718 bound_to 10713
  153.8239  135.3112  155.3413 H   0  0  0  0  0  0  0  0  0  0  0  0  # atno 10763 bound_to 10752
  154.8001  135.4732  154.0258 H   0  0  0  0  0  0  0  0  0  0  0  0  # atno 10764 bound_to 10752
  153.1676  135.6872  153.8743 H   0  0  0  0  0  0  0  0  0  0  0  0  # atno 10765 bound_to 10752
  139.9333  134.9641  156.8325 H   0  0  0  0  0  0  0  0  0  0  0  0  # atno 11005 bound_to 11000
  144.7241  139.7932  143.7371 LP  0  0  0  0  0  0  0  0  0  0  0  0  # atno 17320 bound_to 7965
  146.1451  139.4518  143.0084 LP  0  0  0  0  0  0  0  0  0  0  0  0  # atno 17321 bound_to 7965
  139.6272  144.0790  152.2445 LP  0  0  0  0  0  0  0  0  0  0  0  0  # atno 17342 bound_to 10162
  140.0254  144.6121  150.7532 LP  0  0  0  0  0  0  0  0  0  0  0  0  # atno 17343 bound_to 10162
  156.2207  130.6735  151.1366 LP  0  0  0  0  0  0  0  0  0  0  0  0  # atno 17370 bound_to 10713
  157.7190  131.0693  150.6214 LP  0  0  0  0  0  0  0  0  0  0  0  0  # atno 17371 bound_to 10713
  140.6144  134.0052  155.7591 LP  0  0  0  0  0  0  0  0  0  0  0  0  # atno 17394 bound_to 11000
  141.0933  133.9883  157.3201 LP  0  0  0  0  0  0  0  0  0  0  0  0  # atno 17395 bound_to 11000

$$$$
