AV-unprocessed.smi:1515|AV-procd|sdf|6117|dock6
  -GOLD-   22720 6253D 1   1.00000     0.00000
 Structure written by MMmdl.
 34 35  0  0  0  0  0  0  0  0  1 V2000
  146.1234  142.5224  153.9682 C   0  0  0  0  0  0  0  0  0  0  0  0
  147.3986  142.3962  154.5882 O   0  0  0  0  0  0  0  0  0  0  0  0
  148.0414  141.1739  154.5328 C   0  0  0  0  0  0  0  0  0  0  0  0
  147.4359  140.1569  153.8693 N   0  0  0  0  0  0  0  0  0  0  0  0
  148.0641  138.9650  153.8076 C   0  0  0  0  0  0  0  0  0  0  0  0
  149.3204  138.7255  154.3931 C   0  0  0  0  0  0  0  0  0  0  0  0
  149.9501  139.7780  155.0825 C   0  0  0  0  0  0  0  0  0  0  0  0
  149.2973  141.0319  155.1683 C   0  0  0  0  0  0  0  0  0  0  0  0
  149.8539  142.1675  155.8200 N   0  0  0  0  0  0  0  0  0  0  0  0
  150.8861  142.2203  156.6790 C   0  0  0  0  0  0  0  0  0  0  0  0
  151.5153  141.2482  157.0960 O   0  0  0  0  0  0  0  0  0  0  0  0
  151.1423  143.4831  157.0493 N   0  0  0  0  0  0  0  0  0  0  0  0
  152.2012  143.8967  157.9632 C   0  0  0  0  0  0  0  0  0  0  0  0
  151.7612  143.7705  159.4198 C   0  0  0  0  0  0  0  0  0  0  0  0
  152.0287  144.9144  160.4117 C   0  0  0  0  0  0  0  0  0  0  0  0
  152.2523  143.8597  161.4979 C   0  0  0  0  0  0  0  0  0  0  0  0
  152.5567  142.8665  160.3732 C   0  0  0  0  0  0  0  0  0  0  0  0
  145.7586  143.5410  154.0995 H   0  0  0  0  0  0  0  0  0  0  0  0
  145.3924  141.8490  154.4181 H   0  0  0  0  0  0  0  0  0  0  0  0
  146.1786  142.3269  152.8964 H   0  0  0  0  0  0  0  0  0  0  0  0
  147.5532  138.1806  153.2691 H   0  0  0  0  0  0  0  0  0  0  0  0
  149.7934  137.7582  154.3107 H   0  0  0  0  0  0  0  0  0  0  0  0
  150.9234  139.6061  155.5147 H   0  0  0  0  0  0  0  0  0  0  0  0
  149.3765  143.0399  155.6453 H   0  0  0  0  0  0  0  0  0  0  0  0
  150.5673  144.2166  156.6616 H   0  0  0  0  0  0  0  0  0  0  0  0
  153.0670  143.2604  157.7791 H   0  0  0  0  0  0  0  0  0  0  0  0
  152.5236  144.9153  157.7404 H   0  0  0  0  0  0  0  0  0  0  0  0
  150.7068  143.4921  159.4815 H   0  0  0  0  0  0  0  0  0  0  0  0
  152.9356  145.4754  160.1793 H   0  0  0  0  0  0  0  0  0  0  0  0
  151.1800  145.5773  160.5826 H   0  0  0  0  0  0  0  0  0  0  0  0
  153.0879  144.0633  162.1683 H   0  0  0  0  0  0  0  0  0  0  0  0
  151.3408  143.6148  162.0453 H   0  0  0  0  0  0  0  0  0  0  0  0
  152.1354  141.8710  160.5158 H   0  0  0  0  0  0  0  0  0  0  0  0
  153.6193  142.8218  160.1283 H   0  0  0  0  0  0  0  0  0  0  0  0
  1  2  1  0  0  0  0
  1 18  1  0  0  0  0
  1 19  1  0  0  0  0
  1 20  1  0  0  0  0
  2  3  1  0  0  0  0
  3  8  1  0  0  0  0
  3  4  2  0  0  0  0
  4  5  1  0  0  0  0
  5  6  2  0  0  0  0
  5 21  1  0  0  0  0
  6  7  1  0  0  0  0
  6 22  1  0  0  0  0
  7  8  2  0  0  0  0
  7 23  1  0  0  0  0
  8  9  1  0  0  0  0
  9 10  1  0  0  0  0
  9 24  1  0  0  0  0
 10 11  2  0  0  0  0
 10 12  1  0  0  0  0
 12 13  1  0  0  0  0
 12 25  1  0  0  0  0
 13 14  1  0  0  0  0
 13 26  1  0  0  0  0
 13 27  1  0  0  0  0
 14 17  1  0  0  0  0
 14 15  1  0  0  0  0
 14 28  1  0  0  0  0
 15 16  1  0  0  0  0
 15 29  1  0  0  0  0
 15 30  1  0  0  0  0
 16 17  1  0  0  0  0
 16 31  1  0  0  0  0
 16 32  1  0  0  0  0
 17 33  1  0  0  0  0
 17 34  1  0  0  0  0
M  END
> <s_m_source_file>
AV-unprocessed.smi

> <i_m_source_file_index>
1515

> <i_lp_mmshare_version>
43012

> <i_f3d_flags>
0

> <s_epik_input>
W0NIM11PYzFuW2NIXVtjSF1bY0hdYzFbTkhdQyg9TylbTkhdW0NIMl1bQ0hdMltDSDJdW0NIMl1bQ0gyXTI=

> <s_epik_cmdline>
J2VwaWtfcHl0aG9uJywgJy1waCcsICc3LjAnLCAnLXRuJywgJzgnLCAnLW1hJywgJzIwMCcsICctbWV0YWxfYmluZGluZycsICctaW1hZScsICc8aW5maWxlLm1hZT4nLCAnLW9tYWUnLCAnPG91dGZpbGUubWFlPic=

> <r_lp_tautomer_probability>
1

> <r_epik_Ionization_Penalty>
9.92152e-05

> <r_epik_Ionization_Penalty_Charging>
0

> <r_epik_Ionization_Penalty_Neutral>
9.92152e-05

> <r_epik_State_Penalty>
-0

> <r_epik_Charging_Adjusted_Penalty>
0

> <i_epik_Tot_Q>
0

> <i_epik_Tot_abs_Q>
0

> <r_epik_Metal_State_Penalty>
-0

> <b_epik_Metal_Only>
0

> <s_lp_Force_Field>
OPLS_2005

> <r_lp_Energy>
15.166

> <b_lp_Chiralities_Consistent>
1

> <s_lp_Variant>
AV-unprocessed.smi:1515-1

> <Gold.Version>
5.8.1

> <Gold.Id.Protein>
6NUR|6NUR_protein|mol2

> <Gold.PLP.Fitness>
48.0198

> <Gold.PLP.PLP>
-40.8168

> <Gold.PLP.part.hbond>
-2.0000

> <Gold.PLP.part.metal>
0.0000

> <Gold.PLP.part.buried>
-4.9891

> <Gold.PLP.part.nonpolar>
-35.4056

> <Gold.PLP.part.repulsive>
1.6132

> <Gold.PLP.ligand.clash>
0.0000

> <Gold.PLP.ligand.torsion>
0.9186

> <Gold.PLP.Chemscore.Hbond>
1.9920

> <Gold.PLP.Chemscore.CHOScore>
1.0000

> <Gold.PLP.Chemscore.Metal>
0.0000

> <Gold.Chemscore.Hbonds>
donor molecule, donor type, donor heavy atom, donor atom, acceptor molecule, acceptor atom, score
      L1  H     9    24       P1  8028  1.00
      L1  H    12    25       P1  8028  0.99
      L1  C     5    21       P1  7948  0.33

> <Gold.PLP.Chemscore.Internal.Correction>
0.0643

> <Gold.Rescore>
     Score         DG    S(hbond)    S(metal)    S(lipo)     H(rot)  DE(clash)    DE(int)     intcor
     16.93     -19.15       1.96        0.00      92.34       1.44       0.05       2.16       ----

> <Gold.Chemscore.Fitness>
16.9277

> <Gold.Chemscore.DG>
-19.1459

> <Gold.Chemscore.ZeroCoef>
-5.4800

> <Gold.Chemscore.Hbond>
1.9598

> <Gold.Chemscore.Metal>
0.0000

> <Gold.Chemscore.Lipo>
92.3439

> <Gold.Chemscore.Internal_Hbond>
0.0000

> <Gold.Chemscore.DEClash>
0.0547

> <Gold.Chemscore.DEInternal>
2.1636

> <Gold.Chemscore.Rot>
1.4391

> <Gold.Chemscore.Internal.Correction>
   9.000000E+99

> <Gold.Chemscore.Hbonds>
donor molecule, donor type, donor heavy atom, donor atom, acceptor molecule, acceptor atom, score
      L1  H     9    24       P1  8028  1.00
      L1  H    12    25       P1  8028  0.90

> <Gold.Chemscore.Hbond.Weighted>
-6.5457

> <Gold.Chemscore.Metal.Weighted>
-0.0000

> <Gold.Chemscore.Lipo.Weighted>
-10.8042

> <Gold.Chemscore.Internal_Hbond.Weighted>
0.0000

> <Gold.Chemscore.DEClash.Weighted>
0.0547

> <Gold.Chemscore.DEInternal.Weighted>
2.1636

> <Gold.Chemscore.Rot.Weighted>
3.6840

> <Gold.Chemscore.Internal.Correction.Weighted>
   9.000000E+99

> <Gold.Protein.RotatedTorsions>
[ 6907 6896 6895 6894 ] final  -52.86 input  -60.11 | X-H torsion
[ 7974 7965 7964 7962 ] final   -6.88 input  175.53 | X-H torsion
[ 8008 7997 7996 7995 ] final   46.72 input   59.86 | X-H torsion
[ 10167 10162 10161 10158 ] final   45.62 input  -65.29 | X-H torsion
[ 10718 10713 10712 10709 ] final   65.79 input   66.30 | X-H torsion
[ 10763 10752 10751 10750 ] final   85.66 input  -60.55 | X-H torsion
[ 11005 11000 10999 10996 ] final   54.97 input  -57.11 | X-H torsion

> <Gold.Protein.ActiveResidues>
 VAL166  LYS551  ARG553  GLY616  TRP617  ASP618  TYR619  PRO620  LYS621  CYS622 
 ASP623  PHE694  ASN695  SER759  ASP760  ASP761  ALA762  ILE779  LEU786  VAL792 
 PHE793  MET794  SER795  GLU796  ALA797  LYS798  CYS799  TRP800  GLU811  SER814 

> <Gold.Protein.RotatedAtoms>
  150.8479  134.7794  159.6984 H   0  0  0  0  0  0  0  0  0  0  0  0  # atno 6907 bound_to 6896
  152.4551  134.5306  159.9819 H   0  0  0  0  0  0  0  0  0  0  0  0  # atno 6908 bound_to 6896
  151.5433  133.3391  159.2975 H   0  0  0  0  0  0  0  0  0  0  0  0  # atno 6909 bound_to 6896
  146.2320  140.2236  142.8338 H   0  0  0  0  0  0  0  0  0  0  0  0  # atno 7974 bound_to 7965
  155.3571  140.3416  155.4240 H   0  0  0  0  0  0  0  0  0  0  0  0  # atno 8008 bound_to 7997
  156.1733  140.1639  156.8443 H   0  0  0  0  0  0  0  0  0  0  0  0  # atno 8009 bound_to 7997
  154.5256  140.0757  156.8234 H   0  0  0  0  0  0  0  0  0  0  0  0  # atno 8010 bound_to 7997
  140.3223  144.2690  150.6181 H   0  0  0  0  0  0  0  0  0  0  0  0  # atno 10167 bound_to 10162
  157.6128  130.9233  150.0023 H   0  0  0  0  0  0  0  0  0  0  0  0  # atno 10718 bound_to 10713
  153.1496  135.4609  154.9617 H   0  0  0  0  0  0  0  0  0  0  0  0  # atno 10763 bound_to 10752
  154.7814  135.3189  154.7984 H   0  0  0  0  0  0  0  0  0  0  0  0  # atno 10764 bound_to 10752
  153.8492  135.6923  153.4848 H   0  0  0  0  0  0  0  0  0  0  0  0  # atno 10765 bound_to 10752
  140.0644  134.5557  155.9115 H   0  0  0  0  0  0  0  0  0  0  0  0  # atno 11005 bound_to 11000
  144.9613  140.8277  143.5512 LP  0  0  0  0  0  0  0  0  0  0  0  0  # atno 17320 bound_to 7965
  145.2207  139.2160  143.5094 LP  0  0  0  0  0  0  0  0  0  0  0  0  # atno 17321 bound_to 7965
  140.5472  143.2212  151.7987 LP  0  0  0  0  0  0  0  0  0  0  0  0  # atno 17342 bound_to 10162
  139.4872  144.4524  151.9639 LP  0  0  0  0  0  0  0  0  0  0  0  0  # atno 17343 bound_to 10162
  156.1237  130.3645  149.9844 LP  0  0  0  0  0  0  0  0  0  0  0  0  # atno 17370 bound_to 10713
  156.7919  130.9259  151.3646 LP  0  0  0  0  0  0  0  0  0  0  0  0  # atno 17371 bound_to 10713
  141.1987  133.6602  156.5803 LP  0  0  0  0  0  0  0  0  0  0  0  0  # atno 17394 bound_to 11000
  140.3721  134.7597  157.4605 LP  0  0  0  0  0  0  0  0  0  0  0  0  # atno 17395 bound_to 11000

$$$$
