AV-unprocessed.smi:2919|AV-procd|sdf|11195|dock3
  -GOLD-   2272016 83D 1   1.00000     0.00000
 Structure written by MMmdl.
 34 36  0  0  0  0  0  0  0  0  1 V2000
  152.5016  138.2854  154.5123 C   0  0  0  0  0  0  0  0  0  0  0  0
  151.7981  139.4802  155.1312 C   0  0  0  0  0  0  0  0  0  0  0  0
  152.4751  140.0854  156.1315 N   0  0  0  0  0  0  0  0  0  0  0  0
  151.9582  141.1466  156.7525 N   0  0  0  0  0  0  0  0  0  0  0  0
  150.7490  141.6432  156.3953 C   0  0  0  0  0  0  0  0  0  0  0  0
  150.2710  142.7656  157.0970 N   0  0  0  0  0  0  0  0  0  0  0  0
  150.8369  143.1647  158.3814 C   0  0  1  0  0  0  0  0  0  0  0  0
  152.2845  143.6621  158.2736 C   0  0  0  0  0  0  0  0  0  0  0  0
  152.1872  145.0601  158.8969 C   0  0  2  0  0  0  0  0  0  0  0  0
  151.9180  145.0071  160.4069 C   0  0  0  0  0  0  0  0  0  0  0  0
  150.4519  144.5773  160.4477 C   0  0  0  0  0  0  0  0  0  0  0  0
  150.1314  144.4043  158.9570 C   0  0  1  0  0  0  0  0  0  0  0  0
  150.9151  145.4559  158.4161 O   0  0  0  0  0  0  0  0  0  0  0  0
  149.9828  141.0564  155.3549 C   0  0  0  0  0  0  0  0  0  0  0  0
  148.6785  141.5950  154.9736 C   0  0  0  0  0  0  0  0  0  0  0  0
  147.6461  142.0213  154.6719 N   0  0  0  0  0  0  0  0  0  0  0  0
  150.5280  139.9273  154.6930 C   0  0  0  0  0  0  0  0  0  0  0  0
  149.7752  139.2326  153.5609 C   0  0  0  0  0  0  0  0  0  0  0  0
  151.9013  137.3838  154.6351 H   0  0  0  0  0  0  0  0  0  0  0  0
  153.4710  138.1057  154.9789 H   0  0  0  0  0  0  0  0  0  0  0  0
  152.6708  138.4511  153.4481 H   0  0  0  0  0  0  0  0  0  0  0  0
  149.6567  143.4152  156.6272 H   0  0  0  0  0  0  0  0  0  0  0  0
  150.7500  142.3345  159.0838 H   0  0  0  0  0  0  0  0  0  0  0  0
  152.9898  143.0185  158.8001 H   0  0  0  0  0  0  0  0  0  0  0  0
  152.6084  143.7375  157.2344 H   0  0  0  0  0  0  0  0  0  0  0  0
  153.0015  145.7274  158.6142 H   0  0  0  0  0  0  0  0  0  0  0  0
  152.5793  144.3080  160.9201 H   0  0  0  0  0  0  0  0  0  0  0  0
  152.0404  145.9915  160.8601 H   0  0  0  0  0  0  0  0  0  0  0  0
  150.2932  143.6620  161.0188 H   0  0  0  0  0  0  0  0  0  0  0  0
  149.8356  145.3637  160.8849 H   0  0  0  0  0  0  0  0  0  0  0  0
  149.0662  144.4672  158.7304 H   0  0  0  0  0  0  0  0  0  0  0  0
  149.6074  139.9285  152.7383 H   0  0  0  0  0  0  0  0  0  0  0  0
  148.8051  138.8813  153.9134 H   0  0  0  0  0  0  0  0  0  0  0  0
  150.3027  138.3712  153.1553 H   0  0  0  0  0  0  0  0  0  0  0  0
  1  2  1  0  0  0  0
  1 19  1  0  0  0  0
  1 20  1  0  0  0  0
  1 21  1  0  0  0  0
  2 17  1  0  0  0  0
  2  3  2  0  0  0  0
  3  4  1  0  0  0  0
  4  5  2  0  0  0  0
  5  6  1  0  0  0  0
  5 14  1  0  0  0  0
  6  7  1  0  0  0  0
  6 22  1  0  0  0  0
  7 12  1  0  0  0  0
  7  8  1  0  0  0  0
  7 23  1  0  0  0  0
  8  9  1  0  0  0  0
  8 24  1  0  0  0  0
  8 25  1  0  0  0  0
  9 13  1  0  0  0  0
  9 10  1  0  0  0  0
  9 26  1  0  0  0  0
 10 11  1  0  0  0  0
 10 27  1  0  0  0  0
 10 28  1  0  0  0  0
 11 12  1  0  0  0  0
 11 29  1  0  0  0  0
 11 30  1  0  0  0  0
 12 13  1  0  0  0  0
 12 31  1  0  0  0  0
 14 15  1  0  0  0  0
 14 17  2  0  0  0  0
 15 16  3  0  0  0  0
 17 18  1  0  0  0  0
 18 32  1  0  0  0  0
 18 33  1  0  0  0  0
 18 34  1  0  0  0  0
M  END
> <s_m_source_file>
AV-unprocessed.smi

> <i_m_source_file_index>
2919

> <i_lp_mmshare_version>
43012

> <i_f3d_flags>
0

> <s_epik_input>
W0NIM11jMW5uYyhjKEMjTiljMVtDSDNdKVtOSF1bQ0BIXShbQ0gyXVtDQEBIXTIzKVtDQEBIXShPMylbQ0gyXVtDSDJdMg==

> <s_epik_cmdline>
J2VwaWtfcHl0aG9uJywgJy1waCcsICc3LjAnLCAnLXRuJywgJzgnLCAnLW1hJywgJzIwMCcsICctbWV0YWxfYmluZGluZycsICctaW1hZScsICc8aW5maWxlLm1hZT4nLCAnLW9tYWUnLCAnPG91dGZpbGUubWFlPic=

> <r_lp_tautomer_probability>
1

> <r_epik_Ionization_Penalty>
0.00143865

> <r_epik_Ionization_Penalty_Charging>
0

> <r_epik_Ionization_Penalty_Neutral>
0.00143865

> <r_epik_State_Penalty>
-0

> <r_epik_Charging_Adjusted_Penalty>
0

> <i_epik_Tot_Q>
0

> <i_epik_Tot_abs_Q>
0

> <r_epik_Metal_State_Penalty>
-0

> <b_epik_Metal_Only>
0

> <s_lp_Force_Field>
OPLS_2005

> <r_lp_Energy>
49.0135

> <b_lp_Chiralities_Consistent>
1

> <s_lp_Variant>
AV-unprocessed.smi:2919-4

> <Gold.Version>
5.8.1

> <Gold.Id.Protein>
6NUR|6NUR_protein|mol2

> <Gold.PLP.Fitness>
42.1446

> <Gold.PLP.PLP>
-36.3019

> <Gold.PLP.part.hbond>
-2.9029

> <Gold.PLP.part.metal>
0.0000

> <Gold.PLP.part.buried>
1.4888

> <Gold.PLP.part.nonpolar>
-35.4213

> <Gold.PLP.part.repulsive>
0.3306

> <Gold.PLP.ligand.clash>
0.0000

> <Gold.PLP.ligand.torsion>
0.0886

> <Gold.PLP.Chemscore.Hbond>
2.0000

> <Gold.PLP.Chemscore.CHOScore>
0.0000

> <Gold.PLP.Chemscore.Metal>
0.0000

> <Gold.Chemscore.Hbonds>
donor molecule, donor type, donor heavy atom, donor atom, acceptor molecule, acceptor atom, score
      L1  H     6    22       P1  8028  1.00
      P1  H  7997  8009       L1     3  1.00

> <Gold.PLP.Chemscore.Internal.Correction>
0.0200

> <Gold.Rescore>
     Score         DG    S(hbond)    S(metal)    S(lipo)     H(rot)  DE(clash)    DE(int)     intcor
     17.70     -19.91       1.63        0.00      98.56       1.00       0.86       1.34       ----

> <Gold.Chemscore.Fitness>
17.7026

> <Gold.Chemscore.DG>
-19.9077

> <Gold.Chemscore.ZeroCoef>
-5.4800

> <Gold.Chemscore.Hbond>
1.6337

> <Gold.Chemscore.Metal>
0.0000

> <Gold.Chemscore.Lipo>
98.5568

> <Gold.Chemscore.Internal_Hbond>
0.0000

> <Gold.Chemscore.DEClash>
0.8624

> <Gold.Chemscore.DEInternal>
1.3428

> <Gold.Chemscore.Rot>
1.0000

> <Gold.Chemscore.Internal.Correction>
   9.000000E+99

> <Gold.Chemscore.Hbonds>
donor molecule, donor type, donor heavy atom, donor atom, acceptor molecule, acceptor atom, score
      L1  H     6    22       P1  8028  1.00
      P1  H  7997  8009       L1     3  0.73

> <Gold.Chemscore.Hbond.Weighted>
-5.4566

> <Gold.Chemscore.Metal.Weighted>
-0.0000

> <Gold.Chemscore.Lipo.Weighted>
-11.5311

> <Gold.Chemscore.Internal_Hbond.Weighted>
0.0000

> <Gold.Chemscore.DEClash.Weighted>
0.8624

> <Gold.Chemscore.DEInternal.Weighted>
1.3428

> <Gold.Chemscore.Rot.Weighted>
2.5600

> <Gold.Chemscore.Internal.Correction.Weighted>
   9.000000E+99

> <Gold.Protein.RotatedTorsions>
[ 6907 6896 6895 6894 ] final   64.23 input  -60.11 | X-H torsion
[ 7974 7965 7964 7962 ] final  129.26 input  175.53 | X-H torsion
[ 8008 7997 7996 7995 ] final -154.66 input   59.86 | X-H torsion
[ 10167 10162 10161 10158 ] final   49.11 input  -65.29 | X-H torsion
[ 10718 10713 10712 10709 ] final  -86.92 input   66.30 | X-H torsion
[ 10763 10752 10751 10750 ] final  176.68 input  -60.55 | X-H torsion
[ 11005 11000 10999 10996 ] final  -59.85 input  -57.11 | X-H torsion

> <Gold.Protein.ActiveResidues>
 VAL166  LYS551  ARG553  GLY616  TRP617  ASP618  TYR619  PRO620  LYS621  CYS622 
 ASP623  PHE694  ASN695  SER759  ASP760  ASP761  ALA762  ILE779  LEU786  VAL792 
 PHE793  MET794  SER795  GLU796  ALA797  LYS798  CYS799  TRP800  GLU811  SER814 

> <Gold.Protein.RotatedAtoms>
  152.4315  134.5768  159.9936 H   0  0  0  0  0  0  0  0  0  0  0  0  # atno 6907 bound_to 6896
  151.5890  133.3363  159.3032 H   0  0  0  0  0  0  0  0  0  0  0  0  # atno 6908 bound_to 6896
  150.8209  134.7451  159.6836 H   0  0  0  0  0  0  0  0  0  0  0  0  # atno 6909 bound_to 6896
  145.0305  139.4050  143.5152 H   0  0  0  0  0  0  0  0  0  0  0  0  # atno 7974 bound_to 7965
  155.6898  140.0754  157.2453 H   0  0  0  0  0  0  0  0  0  0  0  0  # atno 8008 bound_to 7997
  154.4091  140.1667  156.2126 H   0  0  0  0  0  0  0  0  0  0  0  0  # atno 8009 bound_to 7997
  155.9462  140.3381  155.6372 H   0  0  0  0  0  0  0  0  0  0  0  0  # atno 8010 bound_to 7997
  140.2863  144.3098  150.6251 H   0  0  0  0  0  0  0  0  0  0  0  0  # atno 10167 bound_to 10162
  155.9987  130.4781  150.4788 H   0  0  0  0  0  0  0  0  0  0  0  0  # atno 10718 bound_to 10713
  154.4844  135.2776  155.1545 H   0  0  0  0  0  0  0  0  0  0  0  0  # atno 10763 bound_to 10752
  154.3242  135.6203  153.5525 H   0  0  0  0  0  0  0  0  0  0  0  0  # atno 10764 bound_to 10752
  152.9879  135.5750  154.5252 H   0  0  0  0  0  0  0  0  0  0  0  0  # atno 10765 bound_to 10752
  141.1264  133.6618  156.5134 H   0  0  0  0  0  0  0  0  0  0  0  0  # atno 11005 bound_to 11000
  146.3498  139.9853  142.8691 LP  0  0  0  0  0  0  0  0  0  0  0  0  # atno 17320 bound_to 7965
  145.1776  140.9751  143.4285 LP  0  0  0  0  0  0  0  0  0  0  0  0  # atno 17321 bound_to 7965
  140.5770  143.2175  151.7497 LP  0  0  0  0  0  0  0  0  0  0  0  0  # atno 17342 bound_to 10162
  139.4949  144.4135  152.0055 LP  0  0  0  0  0  0  0  0  0  0  0  0  # atno 17343 bound_to 10162
  157.2795  131.0604  151.2207 LP  0  0  0  0  0  0  0  0  0  0  0  0  # atno 17370 bound_to 10713
  157.3258  130.6960  149.6295 LP  0  0  0  0  0  0  0  0  0  0  0  0  # atno 17371 bound_to 10713
  140.4350  134.7067  157.4962 LP  0  0  0  0  0  0  0  0  0  0  0  0  # atno 17394 bound_to 11000
  140.0267  134.6466  155.9162 LP  0  0  0  0  0  0  0  0  0  0  0  0  # atno 17395 bound_to 11000

$$$$
