AV-unprocessed.smi:296|AV-procd|sdf|2258|dock9
  -GOLD-   2262022143D 1   1.00000     0.00000
 Structure written by MMmdl.
 36 37  0  0  0  0  0  0  0  0  1 V2000
  153.3245  134.2064  156.0475 N   0  0  0  0  0  0  0  0  0  0  0  0
  152.9306  135.1768  155.5549 C   0  0  0  0  0  0  0  0  0  0  0  0
  152.4359  136.3950  154.9362 C   0  0  0  0  0  0  0  0  0  0  0  0
  153.2869  137.3307  154.4236 N   0  0  0  0  0  0  0  0  0  0  0  0
  152.3905  138.2089  153.9908 C   0  0  0  0  0  0  0  0  0  0  0  0
  151.1228  137.8471  154.2154 N   0  0  0  0  0  0  0  0  0  0  0  0
  149.8787  138.5197  153.8893 C   0  0  0  0  0  0  0  0  0  0  0  0
  149.7835  139.8742  154.5918 C   0  0  0  0  0  0  0  0  0  0  0  0
  149.6242  140.8985  153.9290 O   0  0  0  0  0  0  0  0  0  0  0  0
  149.8902  139.8614  155.9302 N   0  0  0  0  0  0  0  0  0  0  0  0
  149.8540  141.0326  156.8014 C   0  0  0  0  0  0  0  0  0  0  0  0
  151.0474  141.9720  156.5459 C   0  0  0  0  0  0  0  0  0  0  0  0
  151.4163  142.8315  157.7452 C   0  0  0  0  0  0  0  0  0  0  0  0
  151.2801  144.1718  157.7292 C   0  0  0  0  0  0  0  0  0  0  0  0
  151.5950  145.0743  158.9085 C   0  0  0  0  0  0  0  0  0  0  0  0
  151.7394  144.2877  160.2218 C   0  0  0  0  0  0  0  0  0  0  0  0
  152.5749  143.0186  160.0155 C   0  0  0  0  0  0  0  0  0  0  0  0
  151.9331  142.0868  158.9717 C   0  0  0  0  0  0  0  0  0  0  0  0
  151.1316  136.6456  154.8433 N   0  0  0  0  0  0  0  0  0  0  0  0
  152.6613  139.1314  153.4981 H   0  0  0  0  0  0  0  0  0  0  0  0
  149.8062  138.6534  152.8088 H   0  0  0  0  0  0  0  0  0  0  0  0
  149.0467  137.8821  154.1916 H   0  0  0  0  0  0  0  0  0  0  0  0
  150.0146  138.9664  156.3814 H   0  0  0  0  0  0  0  0  0  0  0  0
  148.9094  141.5702  156.7074 H   0  0  0  0  0  0  0  0  0  0  0  0
  149.8933  140.6759  157.8308 H   0  0  0  0  0  0  0  0  0  0  0  0
  151.9219  141.3865  156.2600 H   0  0  0  0  0  0  0  0  0  0  0  0
  150.8242  142.6140  155.6925 H   0  0  0  0  0  0  0  0  0  0  0  0
  150.9251  144.6653  156.8364 H   0  0  0  0  0  0  0  0  0  0  0  0
  152.5172  145.6119  158.6858 H   0  0  0  0  0  0  0  0  0  0  0  0
  150.8076  145.8217  159.0090 H   0  0  0  0  0  0  0  0  0  0  0  0
  152.1891  144.9198  160.9881 H   0  0  0  0  0  0  0  0  0  0  0  0
  150.7513  144.0082  160.5905 H   0  0  0  0  0  0  0  0  0  0  0  0
  153.5757  143.3001  159.6852 H   0  0  0  0  0  0  0  0  0  0  0  0
  152.6996  142.4886  160.9601 H   0  0  0  0  0  0  0  0  0  0  0  0
  151.0991  141.5507  159.4239 H   0  0  0  0  0  0  0  0  0  0  0  0
  152.6593  141.3342  158.6629 H   0  0  0  0  0  0  0  0  0  0  0  0
  1  2  3  0  0  0  0
  2  3  1  0  0  0  0
  3 19  2  0  0  0  0
  3  4  1  0  0  0  0
  4  5  2  0  0  0  0
  5  6  1  0  0  0  0
  5 20  1  0  0  0  0
  6  7  1  0  0  0  0
  6 19  1  0  0  0  0
  7  8  1  0  0  0  0
  7 21  1  0  0  0  0
  7 22  1  0  0  0  0
  8  9  2  0  0  0  0
  8 10  1  0  0  0  0
 10 11  1  0  0  0  0
 10 23  1  0  0  0  0
 11 12  1  0  0  0  0
 11 24  1  0  0  0  0
 11 25  1  0  0  0  0
 12 13  1  0  0  0  0
 12 26  1  0  0  0  0
 12 27  1  0  0  0  0
 13 18  1  0  0  0  0
 13 14  2  0  0  0  0
 14 15  1  0  0  0  0
 14 28  1  0  0  0  0
 15 16  1  0  0  0  0
 15 29  1  0  0  0  0
 15 30  1  0  0  0  0
 16 17  1  0  0  0  0
 16 31  1  0  0  0  0
 16 32  1  0  0  0  0
 17 18  1  0  0  0  0
 17 33  1  0  0  0  0
 17 34  1  0  0  0  0
 18 35  1  0  0  0  0
 18 36  1  0  0  0  0
M  END
> <s_m_source_file>
AV-unprocessed.smi

> <i_m_source_file_index>
296

> <i_lp_mmshare_version>
43012

> <i_f3d_flags>
0

> <s_epik_input>
TiNDYzFuW2NIXW4objEpW0NIMl1DKD1PKVtOSF1bQ0gyXVtDSDJdQzI9W0NIXVtDSDJdW0NIMl1bQ0gyXVtDSDJdMg==

> <s_epik_cmdline>
J2VwaWtfcHl0aG9uJywgJy1waCcsICc3LjAnLCAnLXRuJywgJzgnLCAnLW1hJywgJzIwMCcsICctbWV0YWxfYmluZGluZycsICctaW1hZScsICc8aW5maWxlLm1hZT4nLCAnLW9tYWUnLCAnPG91dGZpbGUubWFlPic=

> <r_lp_tautomer_probability>
1

> <r_epik_Ionization_Penalty>
6.69355e-08

> <r_epik_Ionization_Penalty_Charging>
0

> <r_epik_Ionization_Penalty_Neutral>
6.69355e-08

> <r_epik_State_Penalty>
-0

> <r_epik_Charging_Adjusted_Penalty>
0

> <i_epik_Tot_Q>
0

> <i_epik_Tot_abs_Q>
0

> <r_epik_Metal_State_Penalty>
-0

> <b_epik_Metal_Only>
0

> <s_lp_Force_Field>
OPLS_2005

> <r_lp_Energy>
11.6781

> <b_lp_Chiralities_Consistent>
1

> <s_lp_Variant>
AV-unprocessed.smi:296-1

> <Gold.Version>
5.8.1

> <Gold.Id.Protein>
6NUR|6NUR_protein|mol2

> <Gold.PLP.Fitness>
48.9557

> <Gold.PLP.PLP>
-42.3292

> <Gold.PLP.part.hbond>
-4.0000

> <Gold.PLP.part.metal>
0.0000

> <Gold.PLP.part.buried>
-5.0198

> <Gold.PLP.part.nonpolar>
-34.2897

> <Gold.PLP.part.repulsive>
0.7570

> <Gold.PLP.ligand.clash>
0.0000

> <Gold.PLP.ligand.torsion>
0.1917

> <Gold.PLP.Chemscore.Hbond>
2.3341

> <Gold.PLP.Chemscore.CHOScore>
0.0000

> <Gold.PLP.Chemscore.Metal>
0.0000

> <Gold.Chemscore.Hbonds>
donor molecule, donor type, donor heavy atom, donor atom, acceptor molecule, acceptor atom, score
      P1  H  7989  7998       L1     9  0.23
      P1  H  8011  8017       L1     9  0.53

> <Gold.PLP.Chemscore.Internal.Correction>
0.0075

> <Gold.Rescore>
     Score         DG    S(hbond)    S(metal)    S(lipo)     H(rot)  DE(clash)    DE(int)     intcor
     16.90     -17.52       2.48        0.00      89.71       2.63       0.13       0.49       ----

> <Gold.Chemscore.Fitness>
16.9035

> <Gold.Chemscore.DG>
-17.5189

> <Gold.Chemscore.ZeroCoef>
-5.4800

> <Gold.Chemscore.Hbond>
2.4758

> <Gold.Chemscore.Metal>
0.0000

> <Gold.Chemscore.Lipo>
89.7067

> <Gold.Chemscore.Internal_Hbond>
0.0000

> <Gold.Chemscore.DEClash>
0.1256

> <Gold.Chemscore.DEInternal>
0.4898

> <Gold.Chemscore.Rot>
2.6273

> <Gold.Chemscore.Internal.Correction>
   9.000000E+99

> <Gold.Chemscore.Hbonds>
donor molecule, donor type, donor heavy atom, donor atom, acceptor molecule, acceptor atom, score
      P1  H  7989  7998       L1     9  0.01
      P1  H  8011  8017       L1     9  0.51

> <Gold.Chemscore.Hbond.Weighted>
-8.2691

> <Gold.Chemscore.Metal.Weighted>
-0.0000

> <Gold.Chemscore.Lipo.Weighted>
-10.4957

> <Gold.Chemscore.Internal_Hbond.Weighted>
0.0000

> <Gold.Chemscore.DEClash.Weighted>
0.1256

> <Gold.Chemscore.DEInternal.Weighted>
0.4898

> <Gold.Chemscore.Rot.Weighted>
6.7259

> <Gold.Chemscore.Internal.Correction.Weighted>
   9.000000E+99

> <Gold.Protein.RotatedTorsions>
[ 6907 6896 6895 6894 ] final  -30.33 input  -60.11 | X-H torsion
[ 7974 7965 7964 7962 ] final   87.97 input  175.53 | X-H torsion
[ 8008 7997 7996 7995 ] final  167.28 input   59.86 | X-H torsion
[ 10167 10162 10161 10158 ] final  -39.88 input  -65.29 | X-H torsion
[ 10718 10713 10712 10709 ] final   90.22 input   66.30 | X-H torsion
[ 10763 10752 10751 10750 ] final -173.64 input  -60.55 | X-H torsion
[ 11005 11000 10999 10996 ] final -128.09 input  -57.11 | X-H torsion

> <Gold.Protein.ActiveResidues>
 VAL166  LYS551  ARG553  GLY616  TRP617  ASP618  TYR619  PRO620  LYS621  CYS622 
 ASP623  PHE694  ASN695  SER759  ASP760  ASP761  ALA762  ILE779  LEU786  VAL792 
 PHE793  MET794  SER795  GLU796  ALA797  LYS798  CYS799  TRP800  GLU811  SER814 

> <Gold.Protein.RotatedAtoms>
  151.1070  135.0005  159.8475 H   0  0  0  0  0  0  0  0  0  0  0  0  # atno 6907 bound_to 6896
  152.5441  134.1881  159.8673 H   0  0  0  0  0  0  0  0  0  0  0  0  # atno 6908 bound_to 6896
  151.1929  133.4612  159.2628 H   0  0  0  0  0  0  0  0  0  0  0  0  # atno 6909 bound_to 6896
  145.5519  139.2296  143.2508 H   0  0  0  0  0  0  0  0  0  0  0  0  # atno 7974 bound_to 7965
  156.1647  140.1621  156.8552 H   0  0  0  0  0  0  0  0  0  0  0  0  # atno 8008 bound_to 7997
  154.5195  140.0781  156.8181 H   0  0  0  0  0  0  0  0  0  0  0  0  # atno 8009 bound_to 7997
  155.3636  140.3396  155.4243 H   0  0  0  0  0  0  0  0  0  0  0  0  # atno 8010 bound_to 7997
  140.7051  143.3187  151.2845 H   0  0  0  0  0  0  0  0  0  0  0  0  # atno 10167 bound_to 10162
  157.6958  131.0362  150.3544 H   0  0  0  0  0  0  0  0  0  0  0  0  # atno 10718 bound_to 10713
  154.6056  135.2859  155.0488 H   0  0  0  0  0  0  0  0  0  0  0  0  # atno 10763 bound_to 10752
  154.1737  135.6468  153.5020 H   0  0  0  0  0  0  0  0  0  0  0  0  # atno 10764 bound_to 10752
  153.0174  135.5407  154.6790 H   0  0  0  0  0  0  0  0  0  0  0  0  # atno 10765 bound_to 10752
  140.9545  134.1020  157.4030 H   0  0  0  0  0  0  0  0  0  0  0  0  # atno 11005 bound_to 11000
  146.1911  140.6342  142.9145 LP  0  0  0  0  0  0  0  0  0  0  0  0  # atno 17320 bound_to 7965
  144.7525  140.5227  143.6792 LP  0  0  0  0  0  0  0  0  0  0  0  0  # atno 17321 bound_to 7965
  139.6634  144.0148  152.2707 LP  0  0  0  0  0  0  0  0  0  0  0  0  # atno 17342 bound_to 10162
  139.9723  144.6485  150.7977 LP  0  0  0  0  0  0  0  0  0  0  0  0  # atno 17343 bound_to 10162
  156.3989  130.3912  149.6974 LP  0  0  0  0  0  0  0  0  0  0  0  0  # atno 17370 bound_to 10713
  156.4299  130.7810  151.2829 LP  0  0  0  0  0  0  0  0  0  0  0  0  # atno 17371 bound_to 10713
  139.8858  135.0075  156.6456 LP  0  0  0  0  0  0  0  0  0  0  0  0  # atno 17394 bound_to 11000
  140.7556  133.8861  155.8379 LP  0  0  0  0  0  0  0  0  0  0  0  0  # atno 17395 bound_to 11000

$$$$
