AV-unprocessed.smi:3336|AV-procd|sdf|12856|dock2
  -GOLD-   2272019253D 1   1.00000     0.00000
 Structure written by MMmdl.
 42 43  0  0  0  0  0  0  0  0  2 V2000
  151.0691  138.2604  154.2971 C   0  0  0  0  0  0  0  0  0  0  0  0
  149.6915  138.9378  154.4364 C   0  0  1  0  0  0  0  0  0  0  0  0
  149.8024  140.4433  154.7532 C   0  0  0  0  0  0  0  0  0  0  0  0
  150.5131  140.7130  155.9904 N   0  0  0  0  0  0  0  0  0  0  0  0
  150.6869  141.9216  156.6315 C   0  0  0  0  0  0  0  0  0  0  0  0
  151.4229  141.6824  157.7564 C   0  0  0  0  0  0  0  0  0  0  0  0
  151.6578  140.2796  157.7152 C   0  0  0  0  0  0  0  0  0  0  0  0
  151.1131  139.7025  156.6560 N   0  0  0  0  0  0  0  0  0  0  0  0
  148.8912  138.7659  153.2012 N   0  3  0  0  0  0  0  0  0  0  0  0
  147.4335  139.0298  153.3010 C   0  0  1  0  0  0  0  0  0  0  0  0
  147.1547  140.5463  153.2724 C   0  0  0  0  0  0  0  0  0  0  0  0
  146.6830  138.3306  152.1478 C   0  0  0  0  0  0  0  0  0  0  0  0
  146.8067  138.7935  151.0121 O   0  0  0  0  0  0  0  0  0  0  0  0
  145.9074  137.2439  152.3936 N   0  0  0  0  0  0  0  0  0  0  0  0
  145.7374  136.6785  153.7372 C   0  0  0  0  0  0  0  0  0  0  0  0
  146.3102  135.2508  153.7460 C   0  0  0  0  0  0  0  0  0  0  0  0
  145.6355  134.4651  152.7680 O   0  0  0  0  0  0  0  0  0  0  0  0
  145.7582  134.9929  151.4505 C   0  0  0  0  0  0  0  0  0  0  0  0
  145.1941  136.4256  151.4050 C   0  0  0  0  0  0  0  0  0  0  0  0
  151.6486  138.3421  155.2167 H   0  0  0  0  0  0  0  0  0  0  0  0
  151.6532  138.7161  153.4971 H   0  0  0  0  0  0  0  0  0  0  0  0
  150.9816  137.1969  154.0780 H   0  0  0  0  0  0  0  0  0  0  0  0
  149.1625  138.4697  155.2663 H   0  0  0  0  0  0  0  0  0  0  0  0
  150.3031  140.9675  153.9370 H   0  0  0  0  0  0  0  0  0  0  0  0
  148.8076  140.8830  154.8375 H   0  0  0  0  0  0  0  0  0  0  0  0
  150.2769  142.8408  156.2393 H   0  0  0  0  0  0  0  0  0  0  0  0
  151.7462  142.4002  158.4958 H   0  0  0  0  0  0  0  0  0  0  0  0
  152.2040  139.6680  158.4180 H   0  0  0  0  0  0  0  0  0  0  0  0
  149.2584  139.3837  152.4916 H   0  0  0  0  0  0  0  0  0  0  0  0
  147.0955  138.6024  154.2426 H   0  0  0  0  0  0  0  0  0  0  0  0
  146.0871  140.7632  153.2973 H   0  0  0  0  0  0  0  0  0  0  0  0
  147.5589  141.0064  152.3697 H   0  0  0  0  0  0  0  0  0  0  0  0
  147.5967  141.0561  154.1277 H   0  0  0  0  0  0  0  0  0  0  0  0
  146.2185  137.2696  154.5173 H   0  0  0  0  0  0  0  0  0  0  0  0
  144.6761  136.6579  153.9889 H   0  0  0  0  0  0  0  0  0  0  0  0
  147.3828  135.2597  153.5456 H   0  0  0  0  0  0  0  0  0  0  0  0
  146.1708  134.7926  154.7251 H   0  0  0  0  0  0  0  0  0  0  0  0
  146.8040  134.9755  151.1403 H   0  0  0  0  0  0  0  0  0  0  0  0
  145.2105  134.3495  150.7618 H   0  0  0  0  0  0  0  0  0  0  0  0
  144.1310  136.4158  151.6505 H   0  0  0  0  0  0  0  0  0  0  0  0
  145.2603  136.7957  150.3848 H   0  0  0  0  0  0  0  0  0  0  0  0
  149.0205  137.8159  152.8824 H   0  0  0  0  0  0  0  0  0  0  0  0
  1  2  1  0  0  0  0
  1 20  1  0  0  0  0
  1 21  1  0  0  0  0
  1 22  1  0  0  0  0
  2  3  1  0  0  0  0
  2  9  1  0  0  0  0
  2 23  1  0  0  0  0
  3  4  1  0  0  0  0
  3 24  1  0  0  0  0
  3 25  1  0  0  0  0
  4  8  1  0  0  0  0
  4  5  1  0  0  0  0
  5  6  2  0  0  0  0
  5 26  1  0  0  0  0
  6  7  1  0  0  0  0
  6 27  1  0  0  0  0
  7  8  2  0  0  0  0
  7 28  1  0  0  0  0
  9 10  1  0  0  0  0
  9 29  1  0  0  0  0
  9 42  1  0  0  0  0
 10 11  1  0  0  0  0
 10 12  1  0  0  0  0
 10 30  1  0  0  0  0
 11 31  1  0  0  0  0
 11 32  1  0  0  0  0
 11 33  1  0  0  0  0
 12 13  2  0  0  0  0
 12 14  1  0  0  0  0
 14 19  1  0  0  0  0
 14 15  1  0  0  0  0
 15 16  1  0  0  0  0
 15 34  1  0  0  0  0
 15 35  1  0  0  0  0
 16 17  1  0  0  0  0
 16 36  1  0  0  0  0
 16 37  1  0  0  0  0
 17 18  1  0  0  0  0
 18 19  1  0  0  0  0
 18 38  1  0  0  0  0
 18 39  1  0  0  0  0
 19 40  1  0  0  0  0
 19 41  1  0  0  0  0
M  CHG  1   9   1
M  END
> <s_m_source_file>
AV-unprocessed.smi

> <i_m_source_file_index>
3336

> <i_lp_mmshare_version>
43012

> <i_f3d_flags>
0

> <s_epik_input>
bjFbY0hdW2NIXVtjSF1uMVtDSDJdW0NAQEhdKFtDSDNdKVtOSF1bQ0BIXShbQ0gzXSlDKD1PKU4yW0NIMl1bQ0gyXU9bQ0gyXVtDSDJdMg==

> <s_epik_cmdline>
J2VwaWtfcHl0aG9uJywgJy1waCcsICc3LjAnLCAnLXRuJywgJzgnLCAnLW1hJywgJzIwMCcsICctbWV0YWxfYmluZGluZycsICctaW1hZScsICc8aW5maWxlLm1hZT4nLCAnLW9tYWUnLCAnPG91dGZpbGUubWFlPic=

> <r_lp_tautomer_probability>
1

> <r_epik_Ionization_Penalty>
0.200288

> <r_epik_Ionization_Penalty_Charging>
0.200285

> <r_epik_Ionization_Penalty_Neutral>
3.37705e-06

> <r_epik_State_Penalty>
0.190126

> <r_epik_Charging_Adjusted_Penalty>
0.39041

> <i_epik_Tot_Q>
1

> <i_epik_Tot_abs_Q>
1

> <r_epik_Metal_State_Penalty>
0.190133

> <b_epik_Metal_Only>
0

> <s_lp_Force_Field>
OPLS_2005

> <r_lp_Energy>
28.672

> <b_lp_Chiralities_Consistent>
1

> <s_lp_Variant>
AV-unprocessed.smi:3336-4

> <Gold.Version>
5.8.1

> <Gold.Id.Protein>
6NUR|6NUR_protein|mol2

> <Gold.PLP.Fitness>
48.9101

> <Gold.PLP.PLP>
-35.0015

> <Gold.PLP.part.hbond>
-2.9802

> <Gold.PLP.part.metal>
0.0000

> <Gold.PLP.part.buried>
-1.3795

> <Gold.PLP.part.nonpolar>
-31.1268

> <Gold.PLP.part.repulsive>
0.9506

> <Gold.PLP.ligand.clash>
0.0000

> <Gold.PLP.ligand.torsion>
0.5449

> <Gold.PLP.Chemscore.Hbond>
3.9600

> <Gold.PLP.Chemscore.CHOScore>
1.0000

> <Gold.PLP.Chemscore.Metal>
0.0000

> <Gold.Chemscore.Hbonds>
donor molecule, donor type, donor heavy atom, donor atom, acceptor molecule, acceptor atom, score
      L1  H     9    29       P1  7957  0.98
      L1  H     9    42       P1  7948  2.00
      P1  H  7954  7966       L1    13  0.91
      L1  C     5    26       P1  8028  1.00

> <Gold.PLP.Chemscore.Internal.Correction>
0.1184

> <Gold.Rescore>
     Score         DG    S(hbond)    S(metal)    S(lipo)     H(rot)  DE(clash)    DE(int)     intcor
     16.45     -18.44       2.93        0.00      67.53       1.85       0.24       1.75       ----

> <Gold.Chemscore.Fitness>
16.4506

> <Gold.Chemscore.DG>
-18.4359

> <Gold.Chemscore.ZeroCoef>
-5.4800

> <Gold.Chemscore.Hbond>
2.9347

> <Gold.Chemscore.Metal>
0.0000

> <Gold.Chemscore.Lipo>
67.5261

> <Gold.Chemscore.Internal_Hbond>
0.0000

> <Gold.Chemscore.DEClash>
0.2374

> <Gold.Chemscore.DEInternal>
1.7479

> <Gold.Chemscore.Rot>
1.8541

> <Gold.Chemscore.Internal.Correction>
   9.000000E+99

> <Gold.Chemscore.Hbonds>
donor molecule, donor type, donor heavy atom, donor atom, acceptor molecule, acceptor atom, score
      L1  H     9    29       P1  7957  0.91
      L1  H     9    42       P1  7948  1.00
      P1  H  7954  7966       L1    13  0.78

> <Gold.Chemscore.Hbond.Weighted>
-9.8019

> <Gold.Chemscore.Metal.Weighted>
-0.0000

> <Gold.Chemscore.Lipo.Weighted>
-7.9005

> <Gold.Chemscore.Internal_Hbond.Weighted>
0.0000

> <Gold.Chemscore.DEClash.Weighted>
0.2374

> <Gold.Chemscore.DEInternal.Weighted>
1.7479

> <Gold.Chemscore.Rot.Weighted>
4.7465

> <Gold.Chemscore.Internal.Correction.Weighted>
   9.000000E+99

> <Gold.Protein.RotatedTorsions>
[ 6907 6896 6895 6894 ] final -144.65 input  -60.11 | X-H torsion
[ 7974 7965 7964 7962 ] final  -98.11 input  175.53 | X-H torsion
[ 8008 7997 7996 7995 ] final  160.29 input   59.86 | X-H torsion
[ 10167 10162 10161 10158 ] final -160.23 input  -65.29 | X-H torsion
[ 10718 10713 10712 10709 ] final  -69.51 input   66.30 | X-H torsion
[ 10763 10752 10751 10750 ] final   12.89 input  -60.55 | X-H torsion
[ 11005 11000 10999 10996 ] final -150.66 input  -57.11 | X-H torsion

> <Gold.Protein.ActiveResidues>
 VAL166  LYS551  ARG553  GLY616  TRP617  ASP618  TYR619  PRO620  LYS621  CYS622 
 ASP623  PHE694  ASN695  SER759  ASP760  ASP761  ALA762  ILE779  LEU786  VAL792 
 PHE793  MET794  SER795  GLU796  ALA797  LYS798  CYS799  TRP800  GLU811  SER814 

> <Gold.Protein.RotatedAtoms>
  151.1169  133.5132  159.2603 H   0  0  0  0  0  0  0  0  0  0  0  0  # atno 6907 bound_to 6896
  151.1905  135.0400  159.8840 H   0  0  0  0  0  0  0  0  0  0  0  0  # atno 6908 bound_to 6896
  152.5453  134.1010  159.8371 H   0  0  0  0  0  0  0  0  0  0  0  0  # atno 6909 bound_to 6896
  145.3249  140.9429  143.2694 H   0  0  0  0  0  0  0  0  0  0  0  0  # atno 7974 bound_to 7965
  156.2182  140.1808  156.7539 H   0  0  0  0  0  0  0  0  0  0  0  0  # atno 8008 bound_to 7997
  154.5824  140.0664  156.9152 H   0  0  0  0  0  0  0  0  0  0  0  0  # atno 8009 bound_to 7997
  155.2479  140.3327  155.4288 H   0  0  0  0  0  0  0  0  0  0  0  0  # atno 8010 bound_to 7997
  139.6555  144.0007  152.2191 H   0  0  0  0  0  0  0  0  0  0  0  0  # atno 10167 bound_to 10162
  156.0452  130.4314  150.2159 H   0  0  0  0  0  0  0  0  0  0  0  0  # atno 10718 bound_to 10713
  153.1776  135.6822  153.8522 H   0  0  0  0  0  0  0  0  0  0  0  0  # atno 10763 bound_to 10752
  153.7864  135.3175  155.3374 H   0  0  0  0  0  0  0  0  0  0  0  0  # atno 10764 bound_to 10752
  154.8039  135.4761  154.0437 H   0  0  0  0  0  0  0  0  0  0  0  0  # atno 10765 bound_to 10752
  140.7378  134.3548  157.5154 H   0  0  0  0  0  0  0  0  0  0  0  0  # atno 11005 bound_to 11000
  144.8909  139.4775  143.6678 LP  0  0  0  0  0  0  0  0  0  0  0  0  # atno 17320 bound_to 7965
  146.3068  139.7607  142.9050 LP  0  0  0  0  0  0  0  0  0  0  0  0  # atno 17321 bound_to 7965
  139.9732  144.6479  150.7970 LP  0  0  0  0  0  0  0  0  0  0  0  0  # atno 17342 bound_to 10162
  140.7557  143.3051  151.2981 LP  0  0  0  0  0  0  0  0  0  0  0  0  # atno 17343 bound_to 10162
  157.0249  130.9990  151.3329 LP  0  0  0  0  0  0  0  0  0  0  0  0  # atno 17370 bound_to 10713
  157.5318  130.8063  149.7925 LP  0  0  0  0  0  0  0  0  0  0  0  0  # atno 17371 bound_to 10713
  139.8812  134.9061  156.2915 LP  0  0  0  0  0  0  0  0  0  0  0  0  # atno 17394 bound_to 11000
  140.9863  133.7236  156.0747 LP  0  0  0  0  0  0  0  0  0  0  0  0  # atno 17395 bound_to 11000

$$$$
