AV-unprocessed.smi:1754|AV-procd|sdf|7068|dock7
  -GOLD-   22720 8283D 1   1.00000     0.00000
 Structure written by MMmdl.
 44 45  0  0  0  0  0  0  0  0  3 V2000
  151.9863  145.9901  160.0845 C   0  0  0  0  0  0  0  0  0  0  0  0
  151.1643  144.7636  159.6586 C   0  0  0  0  0  0  0  0  0  0  0  0
  151.9516  143.7843  158.9099 N   0  0  0  0  0  0  0  0  0  0  0  0
  151.4399  143.3845  157.5968 C   0  0  0  0  0  0  0  0  0  0  0  0
  150.3937  142.2610  157.6751 C   0  0  0  0  0  0  0  0  0  0  0  0
  152.6189  142.8212  159.7010 C   0  0  0  0  0  0  0  0  0  0  0  0
  152.8331  143.0024  161.0883 C   0  0  0  0  0  0  0  0  0  0  0  0
  153.4897  142.0023  161.8339 C   0  0  0  0  0  0  0  0  0  0  0  0
  153.9167  140.8207  161.1949 C   0  0  0  0  0  0  0  0  0  0  0  0
  154.5927  139.8481  161.9781 N   0  0  0  0  0  0  0  0  0  0  0  0
  155.3655  140.0210  163.0790 C   0  0  0  0  0  0  0  0  0  0  0  0
  155.6116  141.1645  163.4592 O   0  0  0  0  0  0  0  0  0  0  0  0
  155.8773  138.9309  163.7282 N   0  5  0  0  0  0  0  0  0  0  0  0
  155.9719  137.5373  163.2654 C   0  0  2  0  0  0  0  0  0  0  0  0
  156.7294  137.4427  161.9247 C   0  0  0  0  0  0  0  0  0  0  0  0
  156.4885  136.0518  161.3211 C   0  0  0  0  0  0  0  0  0  0  0  0
  154.8056  135.5582  161.8611 S   0  0  0  0  0  0  0  0  0  0  0  0
  153.8623  135.7223  160.7444 O   0  0  0  0  0  0  0  0  0  0  0  0
  154.8939  134.2833  162.5905 O   0  0  0  0  0  0  0  0  0  0  0  0
  154.5756  136.9377  163.0507 C   0  0  0  0  0  0  0  0  0  0  0  0
  153.6957  140.6922  159.8039 C   0  0  0  0  0  0  0  0  0  0  0  0
  153.0651  141.6764  159.1278 N   0  3  0  0  0  0  0  0  0  0  0  0
  151.3700  146.6867  160.6529 H   0  0  0  0  0  0  0  0  0  0  0  0
  152.3787  146.5272  159.2205 H   0  0  0  0  0  0  0  0  0  0  0  0
  152.8294  145.7066  160.7149 H   0  0  0  0  0  0  0  0  0  0  0  0
  150.7626  144.2757  160.5472 H   0  0  0  0  0  0  0  0  0  0  0  0
  150.2939  145.0822  159.0868 H   0  0  0  0  0  0  0  0  0  0  0  0
  151.0250  144.2510  157.0805 H   0  0  0  0  0  0  0  0  0  0  0  0
  152.2727  143.0412  156.9819 H   0  0  0  0  0  0  0  0  0  0  0  0
  150.0729  141.9669  156.6757 H   0  0  0  0  0  0  0  0  0  0  0  0
  149.5037  142.5617  158.2274 H   0  0  0  0  0  0  0  0  0  0  0  0
  150.8058  141.3767  158.1619 H   0  0  0  0  0  0  0  0  0  0  0  0
  152.5139  143.9041  161.5888 H   0  0  0  0  0  0  0  0  0  0  0  0
  153.6589  142.1428  162.8916 H   0  0  0  0  0  0  0  0  0  0  0  0
  154.5260  138.8978  161.6442 H   0  0  0  0  0  0  0  0  0  0  0  0
  156.4928  136.9050  163.9865 H   0  0  0  0  0  0  0  0  0  0  0  0
  156.3400  138.1936  161.2352 H   0  0  0  0  0  0  0  0  0  0  0  0
  157.7942  137.6443  162.0444 H   0  0  0  0  0  0  0  0  0  0  0  0
  156.5491  136.0492  160.2329 H   0  0  0  0  0  0  0  0  0  0  0  0
  157.1996  135.3211  161.7091 H   0  0  0  0  0  0  0  0  0  0  0  0
  154.1227  136.5720  163.9720 H   0  0  0  0  0  0  0  0  0  0  0  0
  153.8998  137.6612  162.5929 H   0  0  0  0  0  0  0  0  0  0  0  0
  154.0072  139.8508  159.2029 H   0  0  0  0  0  0  0  0  0  0  0  0
  152.9174  141.5484  158.1269 H   0  0  0  0  0  0  0  0  0  0  0  0
  1  2  1  0  0  0  0
  1 23  1  0  0  0  0
  1 24  1  0  0  0  0
  1 25  1  0  0  0  0
  2  3  1  0  0  0  0
  2 26  1  0  0  0  0
  2 27  1  0  0  0  0
  3  4  1  0  0  0  0
  3  6  1  0  0  0  0
  4  5  1  0  0  0  0
  4 28  1  0  0  0  0
  4 29  1  0  0  0  0
  5 30  1  0  0  0  0
  5 31  1  0  0  0  0
  5 32  1  0  0  0  0
  6 22  1  0  0  0  0
  6  7  2  0  0  0  0
  7  8  1  0  0  0  0
  7 33  1  0  0  0  0
  8  9  2  0  0  0  0
  8 34  1  0  0  0  0
  9 10  1  0  0  0  0
  9 21  1  0  0  0  0
 10 11  1  0  0  0  0
 10 35  1  0  0  0  0
 11 12  2  0  0  0  0
 11 13  1  0  0  0  0
 13 14  1  0  0  0  0
 14 20  1  0  0  0  0
 14 15  1  0  0  0  0
 14 36  1  0  0  0  0
 15 16  1  0  0  0  0
 15 37  1  0  0  0  0
 15 38  1  0  0  0  0
 16 17  1  0  0  0  0
 16 39  1  0  0  0  0
 16 40  1  0  0  0  0
 17 18  2  0  0  0  0
 17 19  2  0  0  0  0
 17 20  1  0  0  0  0
 20 41  1  0  0  0  0
 20 42  1  0  0  0  0
 21 22  2  0  0  0  0
 21 43  1  0  0  0  0
 22 44  1  0  0  0  0
M  CHG  1  13  -1
M  CHG  1  22   1
M  END
> <s_m_source_file>
AV-unprocessed.smi

> <i_m_source_file_index>
1754

> <i_lp_mmshare_version>
43012

> <i_f3d_flags>
0

> <s_epik_input>
W0NIM11bQ0gyXU4oW0NIMl1bQ0gzXSljMVtjSF1bY0hdYyhbY0hdbjEpW05IXUMoPU8pW05IXVtDQEBIXShbQ0gyXTIpW0NIMl1bQ0gyXVMyKD1PKT1P

> <s_epik_cmdline>
J2VwaWtfcHl0aG9uJywgJy1waCcsICc3LjAnLCAnLXRuJywgJzgnLCAnLW1hJywgJzIwMCcsICctbWV0YWxfYmluZGluZycsICctaW1hZScsICc8aW5maWxlLm1hZT4nLCAnLW9tYWUnLCAnPG91dGZpbGUubWFlPic=

> <r_lp_tautomer_probability>
0.999994

> <r_epik_Ionization_Penalty>
7.1175

> <r_epik_Ionization_Penalty_Charging>
7.11749

> <r_epik_Ionization_Penalty_Neutral>
3.13064e-06

> <r_epik_State_Penalty>
6.65299

> <r_epik_Charging_Adjusted_Penalty>
13.7705

> <i_epik_Tot_Q>
0

> <i_epik_Tot_abs_Q>
2

> <r_epik_Metal_State_Penalty>
2.60496

> <b_epik_Metal_Only>
1

> <s_lp_Force_Field>
OPLS_2005

> <r_lp_Energy>
20.9126

> <b_lp_Chiralities_Consistent>
1

> <s_lp_Variant>
AV-unprocessed.smi:1754-5

> <Gold.Version>
5.8.1

> <Gold.Id.Protein>
6NUR|6NUR_protein|mol2

> <Gold.PLP.Fitness>
45.7368

> <Gold.PLP.PLP>
-43.3822

> <Gold.PLP.part.hbond>
-2.0000

> <Gold.PLP.part.metal>
0.0000

> <Gold.PLP.part.buried>
-5.1801

> <Gold.PLP.part.nonpolar>
-36.6604

> <Gold.PLP.part.repulsive>
0.0828

> <Gold.PLP.ligand.clash>
0.0000

> <Gold.PLP.ligand.torsion>
0.7654

> <Gold.PLP.Chemscore.Hbond>
1.0000

> <Gold.PLP.Chemscore.CHOScore>
0.0000

> <Gold.PLP.Chemscore.Metal>
0.0000

> <Gold.Chemscore.Hbonds>
donor molecule, donor type, donor heavy atom, donor atom, acceptor molecule, acceptor atom, score
      P1  H  6896  6909       L1    18  1.00

> <Gold.PLP.Chemscore.Internal.Correction>
0.8855

> <Gold.Rescore>
     Score         DG    S(hbond)    S(metal)    S(lipo)     H(rot)  DE(clash)    DE(int)     intcor
     14.66     -16.88       1.00        0.00      99.38       1.39       0.05       2.17       ----

> <Gold.Chemscore.Fitness>
14.6649

> <Gold.Chemscore.DG>
-16.8826

> <Gold.Chemscore.ZeroCoef>
-5.4800

> <Gold.Chemscore.Hbond>
0.9962

> <Gold.Chemscore.Metal>
0.0000

> <Gold.Chemscore.Lipo>
99.3824

> <Gold.Chemscore.Internal_Hbond>
0.0000

> <Gold.Chemscore.DEClash>
0.0524

> <Gold.Chemscore.DEInternal>
2.1653

> <Gold.Chemscore.Rot>
1.3876

> <Gold.Chemscore.Internal.Correction>
   9.000000E+99

> <Gold.Chemscore.Hbonds>
donor molecule, donor type, donor heavy atom, donor atom, acceptor molecule, acceptor atom, score
      P1  H  6896  6909       L1    18  0.98

> <Gold.Chemscore.Hbond.Weighted>
-3.3272

> <Gold.Chemscore.Metal.Weighted>
-0.0000

> <Gold.Chemscore.Lipo.Weighted>
-11.6277

> <Gold.Chemscore.Internal_Hbond.Weighted>
0.0000

> <Gold.Chemscore.DEClash.Weighted>
0.0524

> <Gold.Chemscore.DEInternal.Weighted>
2.1653

> <Gold.Chemscore.Rot.Weighted>
3.5524

> <Gold.Chemscore.Internal.Correction.Weighted>
   9.000000E+99

> <Gold.Protein.RotatedTorsions>
[ 6907 6896 6895 6894 ] final -172.97 input  -60.11 | X-H torsion
[ 7974 7965 7964 7962 ] final  -48.61 input  175.53 | X-H torsion
[ 8008 7997 7996 7995 ] final  -63.43 input   59.86 | X-H torsion
[ 10167 10162 10161 10158 ] final  137.52 input  -65.29 | X-H torsion
[ 10718 10713 10712 10709 ] final -128.69 input   66.30 | X-H torsion
[ 10763 10752 10751 10750 ] final   25.15 input  -60.55 | X-H torsion
[ 11005 11000 10999 10996 ] final   -2.50 input  -57.11 | X-H torsion

> <Gold.Protein.ActiveResidues>
 VAL166  LYS551  ARG553  GLY616  TRP617  ASP618  TYR619  PRO620  LYS621  CYS622 
 ASP623  PHE694  ASN695  SER759  ASP760  ASP761  ALA762  ILE779  LEU786  VAL792 
 PHE793  MET794  SER795  GLU796  ALA797  LYS798  CYS799  TRP800  GLU811  SER814 

> <Gold.Protein.RotatedAtoms>
  151.5485  133.3421  159.2948 H   0  0  0  0  0  0  0  0  0  0  0  0  # atno 6907 bound_to 6896
  150.8493  134.7814  159.7006 H   0  0  0  0  0  0  0  0  0  0  0  0  # atno 6908 bound_to 6896
  152.4543  134.5334  159.9869 H   0  0  0  0  0  0  0  0  0  0  0  0  # atno 6909 bound_to 6896
  145.9493  140.7587  142.9512 H   0  0  0  0  0  0  0  0  0  0  0  0  # atno 7974 bound_to 7965
  154.4554  140.0975  156.6741 H   0  0  0  0  0  0  0  0  0  0  0  0  # atno 8008 bound_to 7997
  155.5155  140.3477  155.4378 H   0  0  0  0  0  0  0  0  0  0  0  0  # atno 8009 bound_to 7997
  156.0767  140.1363  156.9752 H   0  0  0  0  0  0  0  0  0  0  0  0  # atno 8010 bound_to 7997
  139.5141  144.6405  151.5582 H   0  0  0  0  0  0  0  0  0  0  0  0  # atno 10167 bound_to 10162
  156.1975  130.6836  151.0500 H   0  0  0  0  0  0  0  0  0  0  0  0  # atno 10718 bound_to 10713
  153.0713  135.6589  154.0242 H   0  0  0  0  0  0  0  0  0  0  0  0  # atno 10763 bound_to 10752
  153.9887  135.2948  155.3415 H   0  0  0  0  0  0  0  0  0  0  0  0  # atno 10764 bound_to 10752
  154.7088  135.5214  153.8704 H   0  0  0  0  0  0  0  0  0  0  0  0  # atno 10765 bound_to 10752
  140.6591  133.9336  155.8425 H   0  0  0  0  0  0  0  0  0  0  0  0  # atno 11005 bound_to 11000
  144.6793  140.2409  143.7344 LP  0  0  0  0  0  0  0  0  0  0  0  0  # atno 17320 bound_to 7965
  145.8193  139.2036  143.1947 LP  0  0  0  0  0  0  0  0  0  0  0  0  # atno 17321 bound_to 7965
  140.6170  143.9330  150.6496 LP  0  0  0  0  0  0  0  0  0  0  0  0  # atno 17342 bound_to 10162
  140.2591  143.3537  152.1338 LP  0  0  0  0  0  0  0  0  0  0  0  0  # atno 17343 bound_to 10162
  157.6966  131.0791  150.6949 LP  0  0  0  0  0  0  0  0  0  0  0  0  # atno 17370 bound_to 10713
  156.7006  130.4622  149.5574 LP  0  0  0  0  0  0  0  0  0  0  0  0  # atno 17371 bound_to 10713
  141.0479  134.0527  157.3821 LP  0  0  0  0  0  0  0  0  0  0  0  0  # atno 17394 bound_to 11000
  139.9019  135.0167  156.7309 LP  0  0  0  0  0  0  0  0  0  0  0  0  # atno 17395 bound_to 11000

$$$$
