AV-unprocessed.smi:212|AV-procd|sdf|1621|dock7
  -GOLD-   2262019553D 1   1.00000     0.00000
 Structure written by MMmdl.
 65 68  0  0  0  0  0  0  0  0  2 V2000
  144.6560  134.8024  156.0656 C   0  0  0  0  0  0  0  0  0  0  0  0
  144.2757  135.0534  154.5932 C   0  0  2  0  0  0  0  0  0  0  0  0
  145.2364  134.3522  153.6113 C   0  0  0  0  0  0  0  0  0  0  0  0
  144.7959  134.5504  152.2067 N   0  3  2  0  0  0  0  0  0  0  0  0
  145.6140  133.7924  151.2228 C   0  0  0  0  0  0  0  0  0  0  0  0
  144.7492  133.0447  150.1812 C   0  0  0  0  0  0  0  0  0  0  0  0
  145.6377  132.1529  149.2975 C   0  0  0  0  0  0  0  0  0  0  0  0
  143.6391  132.2042  150.8395 C   0  0  0  0  0  0  0  0  0  0  0  0
  144.1429  133.9876  149.3190 O   0  0  0  0  0  0  0  0  0  0  0  0
  144.6443  135.9874  151.8603 C   0  0  0  0  0  0  0  0  0  0  0  0
  143.7265  136.7168  152.8631 C   0  0  0  0  0  0  0  0  0  0  0  0
  144.1153  136.4707  154.2502 N   0  0  0  0  0  0  0  0  0  0  0  0
  145.0095  137.3479  154.7660 C   0  0  0  0  0  0  0  0  0  0  0  0
  145.1294  137.4934  156.1110 N   0  0  0  0  0  0  0  0  0  0  0  0
  146.0049  138.3700  156.6121 C   0  0  0  0  0  0  0  0  0  0  0  0
  146.8349  139.1856  155.9589 N   0  0  0  0  0  0  0  0  0  0  0  0
  146.7116  139.0467  154.6081 C   0  0  0  0  0  0  0  0  0  0  0  0
  145.8338  138.1518  153.9354 C   0  0  0  0  0  0  0  0  0  0  0  0
  145.9876  138.2737  152.5614 N   0  0  0  0  0  0  0  0  0  0  0  0
  146.9067  139.1907  152.4284 C   0  0  0  0  0  0  0  0  0  0  0  0
  147.3852  139.7246  153.6055 N   0  0  0  0  0  0  0  0  0  0  0  0
  148.4020  140.7597  153.7404 C   0  0  0  0  0  0  0  0  0  0  0  0
  149.5752  140.3853  154.6854 C   0  0  1  0  0  0  0  0  0  0  0  0
  149.3210  140.9253  156.1134 C   0  0  0  0  0  0  0  0  0  0  0  0
  149.9262  142.1848  156.3177 O   0  0  0  0  0  0  0  0  0  0  0  0
  149.8761  138.8606  154.6622 C   0  0  2  0  0  0  0  0  0  0  0  0
  149.8783  138.1637  156.0122 C   0  0  0  0  0  0  0  0  0  0  0  0
  150.6355  136.8730  155.7173 C   0  0  0  0  0  0  0  0  0  0  0  0
  151.5492  137.1912  154.6738 O   0  0  0  0  0  0  0  0  0  0  0  0
  151.2910  138.5047  154.1904 C   0  0  0  0  0  0  0  0  0  0  0  0
  144.6536  133.7355  156.2895 H   0  0  0  0  0  0  0  0  0  0  0  0
  143.9454  135.2779  156.7425 H   0  0  0  0  0  0  0  0  0  0  0  0
  145.6512  135.1817  156.3008 H   0  0  0  0  0  0  0  0  0  0  0  0
  143.2901  134.6069  154.4532 H   0  0  0  0  0  0  0  0  0  0  0  0
  146.2547  134.7246  153.7326 H   0  0  0  0  0  0  0  0  0  0  0  0
  145.2609  133.2840  153.8313 H   0  0  0  0  0  0  0  0  0  0  0  0
  146.3211  134.4597  150.7266 H   0  0  0  0  0  0  0  0  0  0  0  0
  146.2310  133.0584  151.7444 H   0  0  0  0  0  0  0  0  0  0  0  0
  146.1428  131.3886  149.8893 H   0  0  0  0  0  0  0  0  0  0  0  0
  146.4069  132.7354  148.7885 H   0  0  0  0  0  0  0  0  0  0  0  0
  145.0538  131.6407  148.5317 H   0  0  0  0  0  0  0  0  0  0  0  0
  144.0591  131.4676  151.5255 H   0  0  0  0  0  0  0  0  0  0  0  0
  143.0572  131.6622  150.0932 H   0  0  0  0  0  0  0  0  0  0  0  0
  142.9419  132.8222  151.4061 H   0  0  0  0  0  0  0  0  0  0  0  0
  144.7843  134.2746  148.6861 H   0  0  0  0  0  0  0  0  0  0  0  0
  145.6282  136.4565  151.8351 H   0  0  0  0  0  0  0  0  0  0  0  0
  144.2318  136.0866  150.8563 H   0  0  0  0  0  0  0  0  0  0  0  0
  143.7165  137.7880  152.6553 H   0  0  0  0  0  0  0  0  0  0  0  0
  142.7001  136.3712  152.7362 H   0  0  0  0  0  0  0  0  0  0  0  0
  146.0454  138.4284  157.6898 H   0  0  0  0  0  0  0  0  0  0  0  0
  147.2586  139.5086  151.4579 H   0  0  0  0  0  0  0  0  0  0  0  0
  148.7694  141.0186  152.7473 H   0  0  0  0  0  0  0  0  0  0  0  0
  147.9106  141.6597  154.1124 H   0  0  0  0  0  0  0  0  0  0  0  0
  150.4531  140.9028  154.2952 H   0  0  0  0  0  0  0  0  0  0  0  0
  148.2528  141.0644  156.2808 H   0  0  0  0  0  0  0  0  0  0  0  0
  149.6750  140.2223  156.8682 H   0  0  0  0  0  0  0  0  0  0  0  0
  149.3919  142.8463  155.9051 H   0  0  0  0  0  0  0  0  0  0  0  0
  149.1509  138.3514  154.0261 H   0  0  0  0  0  0  0  0  0  0  0  0
  150.4271  138.7563  156.7458 H   0  0  0  0  0  0  0  0  0  0  0  0
  148.8777  137.9758  156.4023 H   0  0  0  0  0  0  0  0  0  0  0  0
  151.1510  136.4839  156.5958 H   0  0  0  0  0  0  0  0  0  0  0  0
  149.9519  136.1036  155.3563 H   0  0  0  0  0  0  0  0  0  0  0  0
  151.4097  138.5485  153.1089 H   0  0  0  0  0  0  0  0  0  0  0  0
  152.0248  139.1808  154.6319 H   0  0  0  0  0  0  0  0  0  0  0  0
  143.8697  134.1510  152.1549 H   0  0  0  0  0  0  0  0  0  0  0  0
  1  2  1  0  0  0  0
  1 31  1  0  0  0  0
  1 32  1  0  0  0  0
  1 33  1  0  0  0  0
  2 12  1  0  0  0  0
  2  3  1  0  0  0  0
  2 34  1  0  0  0  0
  3  4  1  0  0  0  0
  3 35  1  0  0  0  0
  3 36  1  0  0  0  0
  4  5  1  0  0  0  0
  4 10  1  0  0  0  0
  4 65  1  0  0  0  0
  5  6  1  0  0  0  0
  5 37  1  0  0  0  0
  5 38  1  0  0  0  0
  6  7  1  0  0  0  0
  6  8  1  0  0  0  0
  6  9  1  0  0  0  0
  7 39  1  0  0  0  0
  7 40  1  0  0  0  0
  7 41  1  0  0  0  0
  8 42  1  0  0  0  0
  8 43  1  0  0  0  0
  8 44  1  0  0  0  0
  9 45  1  0  0  0  0
 10 11  1  0  0  0  0
 10 46  1  0  0  0  0
 10 47  1  0  0  0  0
 11 12  1  0  0  0  0
 11 48  1  0  0  0  0
 11 49  1  0  0  0  0
 12 13  1  0  0  0  0
 13 18  1  0  0  0  0
 13 14  2  0  0  0  0
 14 15  1  0  0  0  0
 15 16  2  0  0  0  0
 15 50  1  0  0  0  0
 16 17  1  0  0  0  0
 17 21  1  0  0  0  0
 17 18  2  0  0  0  0
 18 19  1  0  0  0  0
 19 20  2  0  0  0  0
 20 21  1  0  0  0  0
 20 51  1  0  0  0  0
 21 22  1  0  0  0  0
 22 23  1  0  0  0  0
 22 52  1  0  0  0  0
 22 53  1  0  0  0  0
 23 24  1  0  0  0  0
 23 26  1  0  0  0  0
 23 54  1  0  0  0  0
 24 25  1  0  0  0  0
 24 55  1  0  0  0  0
 24 56  1  0  0  0  0
 25 57  1  0  0  0  0
 26 30  1  0  0  0  0
 26 27  1  0  0  0  0
 26 58  1  0  0  0  0
 27 28  1  0  0  0  0
 27 59  1  0  0  0  0
 27 60  1  0  0  0  0
 28 29  1  0  0  0  0
 28 61  1  0  0  0  0
 28 62  1  0  0  0  0
 29 30  1  0  0  0  0
 30 63  1  0  0  0  0
 30 64  1  0  0  0  0
M  CHG  1   4   1
M  END
> <s_m_source_file>
AV-unprocessed.smi

> <i_m_source_file_index>
212

> <i_lp_mmshare_version>
43012

> <i_f3d_flags>
0

> <s_epik_input>
W0NIM11bQ0BASF0xW0NIMl1OKFtDSDJdQyhbQ0gzXSkoW0NIM10pW09IXSlbQ0gyXVtDSDJdTjFjKG5bY0hdbjIpYyhjMjMpbltjSF1uM1tDSDJdW0NASF0oW0NIMl1bT0hdKVtDQEBIXTRbQ0gyXVtDSDJdT1tDSDJdNA==

> <s_epik_cmdline>
J2VwaWtfcHl0aG9uJywgJy1waCcsICc3LjAnLCAnLXRuJywgJzgnLCAnLW1hJywgJzIwMCcsICctbWV0YWxfYmluZGluZycsICctaW1hZScsICc8aW5maWxlLm1hZT4nLCAnLW9tYWUnLCAnPG91dGZpbGUubWFlPic=

> <r_lp_tautomer_probability>
1

> <r_epik_Ionization_Penalty>
0.00182193

> <r_epik_Ionization_Penalty_Charging>
0.00173996

> <r_epik_Ionization_Penalty_Neutral>
8.19718e-05

> <r_epik_State_Penalty>
-0

> <r_epik_Charging_Adjusted_Penalty>
0.00173996

> <i_epik_Tot_Q>
1

> <i_epik_Tot_abs_Q>
1

> <r_epik_Metal_State_Penalty>
-0

> <b_epik_Metal_Only>
0

> <s_lp_Force_Field>
OPLS_2005

> <r_lp_Energy>
60.0398

> <b_lp_Chiralities_Consistent>
1

> <s_lp_Variant>
AV-unprocessed.smi:212-5

> <Gold.Version>
5.8.1

> <Gold.Id.Protein>
6NUR|6NUR_protein|mol2

> <Gold.PLP.Fitness>
45.3315

> <Gold.PLP.PLP>
-40.5004

> <Gold.PLP.part.hbond>
-3.6350

> <Gold.PLP.part.metal>
0.0000

> <Gold.PLP.part.buried>
-4.4588

> <Gold.PLP.part.nonpolar>
-32.1902

> <Gold.PLP.part.repulsive>
0.4907

> <Gold.PLP.ligand.clash>
0.8858

> <Gold.PLP.ligand.torsion>
3.3986

> <Gold.PLP.Chemscore.Hbond>
2.9920

> <Gold.PLP.Chemscore.CHOScore>
0.7907

> <Gold.PLP.Chemscore.Metal>
0.0000

> <Gold.Chemscore.Hbonds>
donor molecule, donor type, donor heavy atom, donor atom, acceptor molecule, acceptor atom, score
      L1  H     9    45       P1  7921  1.00
      L1  H    25    57       P1  8028  1.00
      P1  H 10752 10765       L1    29  0.84
      L1  C    20    51       P1  7957  0.82

> <Gold.PLP.Chemscore.Internal.Correction>
1.1661

> <Gold.Rescore>
     Score         DG    S(hbond)    S(metal)    S(lipo)     H(rot)  DE(clash)    DE(int)     intcor
      7.47     -16.07       2.82        0.00      90.53       3.68       0.39       8.21       ----

> <Gold.Chemscore.Fitness>
7.4718

> <Gold.Chemscore.DG>
-16.0658

> <Gold.Chemscore.ZeroCoef>
-5.4800

> <Gold.Chemscore.Hbond>
2.8198

> <Gold.Chemscore.Metal>
0.0000

> <Gold.Chemscore.Lipo>
90.5264

> <Gold.Chemscore.Internal_Hbond>
0.0000

> <Gold.Chemscore.DEClash>
0.3872

> <Gold.Chemscore.DEInternal>
8.2067

> <Gold.Chemscore.Rot>
3.6812

> <Gold.Chemscore.Internal.Correction>
   9.000000E+99

> <Gold.Chemscore.Hbonds>
donor molecule, donor type, donor heavy atom, donor atom, acceptor molecule, acceptor atom, score
      L1  H     9    45       P1  7921  1.00
      L1  H    25    57       P1  8028  0.94
      P1  H 10752 10765       L1    29  0.62

> <Gold.Chemscore.Hbond.Weighted>
-9.4181

> <Gold.Chemscore.Metal.Weighted>
-0.0000

> <Gold.Chemscore.Lipo.Weighted>
-10.5916

> <Gold.Chemscore.Internal_Hbond.Weighted>
0.0000

> <Gold.Chemscore.DEClash.Weighted>
0.3872

> <Gold.Chemscore.DEInternal.Weighted>
8.2067

> <Gold.Chemscore.Rot.Weighted>
9.4239

> <Gold.Chemscore.Internal.Correction.Weighted>
   9.000000E+99

> <Gold.Protein.RotatedTorsions>
[ 6907 6896 6895 6894 ] final -133.54 input  -60.11 | X-H torsion
[ 7974 7965 7964 7962 ] final   10.03 input  175.53 | X-H torsion
[ 8008 7997 7996 7995 ] final -110.17 input   59.86 | X-H torsion
[ 10167 10162 10161 10158 ] final   28.74 input  -65.29 | X-H torsion
[ 10718 10713 10712 10709 ] final  -40.00 input   66.30 | X-H torsion
[ 10763 10752 10751 10750 ] final  171.27 input  -60.55 | X-H torsion
[ 11005 11000 10999 10996 ] final   33.14 input  -57.11 | X-H torsion

> <Gold.Protein.ActiveResidues>
 VAL166  LYS551  ARG553  GLY616  TRP617  ASP618  TYR619  PRO620  LYS621  CYS622 
 ASP623  PHE694  ASN695  SER759  ASP760  ASP761  ALA762  ILE779  LEU786  VAL792 
 PHE793  MET794  SER795  GLU796  ALA797  LYS798  CYS799  TRP800  GLU811  SER814 

> <Gold.Protein.RotatedAtoms>
  150.9752  133.6302  159.2731 H   0  0  0  0  0  0  0  0  0  0  0  0  # atno 6907 bound_to 6896
  151.3577  135.0896  159.9434 H   0  0  0  0  0  0  0  0  0  0  0  0  # atno 6908 bound_to 6896
  152.5197  133.9332  159.7645 H   0  0  0  0  0  0  0  0  0  0  0  0  # atno 6909 bound_to 6896
  146.2395  139.9695  142.8448 H   0  0  0  0  0  0  0  0  0  0  0  0  # atno 7974 bound_to 7965
  154.9705  140.0397  157.2232 H   0  0  0  0  0  0  0  0  0  0  0  0  # atno 8008 bound_to 7997
  154.7805  140.2818  155.6045 H   0  0  0  0  0  0  0  0  0  0  0  0  # atno 8009 bound_to 7997
  156.2935  140.2592  156.2630 H   0  0  0  0  0  0  0  0  0  0  0  0  # atno 8010 bound_to 7997
  140.4826  144.0592  150.6270 H   0  0  0  0  0  0  0  0  0  0  0  0  # atno 10167 bound_to 10162
  156.2862  130.4223  149.8285 H   0  0  0  0  0  0  0  0  0  0  0  0  # atno 10718 bound_to 10713
  154.4094  135.2756  155.2046 H   0  0  0  0  0  0  0  0  0  0  0  0  # atno 10763 bound_to 10752
  154.4038  135.6038  153.5916 H   0  0  0  0  0  0  0  0  0  0  0  0  # atno 10764 bound_to 10752
  152.9831  135.5933  154.4374 H   0  0  0  0  0  0  0  0  0  0  0  0  # atno 10765 bound_to 10752
  140.2662  134.3135  155.7842 H   0  0  0  0  0  0  0  0  0  0  0  0  # atno 11005 bound_to 11000
  145.1694  140.9713  143.4330 LP  0  0  0  0  0  0  0  0  0  0  0  0  # atno 17320 bound_to 7965
  145.0042  139.3570  143.6152 LP  0  0  0  0  0  0  0  0  0  0  0  0  # atno 17321 bound_to 7965
  140.3838  143.2788  152.0139 LP  0  0  0  0  0  0  0  0  0  0  0  0  # atno 17342 bound_to 10162
  139.4836  144.6133  151.7393 LP  0  0  0  0  0  0  0  0  0  0  0  0  # atno 17343 bound_to 10162
  156.5715  130.8426  151.3358 LP  0  0  0  0  0  0  0  0  0  0  0  0  # atno 17370 bound_to 10713
  157.7329  130.9722  150.1952 LP  0  0  0  0  0  0  0  0  0  0  0  0  # atno 17371 bound_to 10713
  141.2184  133.7439  156.9264 LP  0  0  0  0  0  0  0  0  0  0  0  0  # atno 17394 bound_to 11000
  140.1417  134.9289  157.2475 LP  0  0  0  0  0  0  0  0  0  0  0  0  # atno 17395 bound_to 11000

$$$$
