AV-unprocessed.smi:90|AV-procd|sdf|829|dock7
  -GOLD-   2262017243D 1   1.00000     0.00000
 Structure written by MMmdl.
 64 67  0  0  0  0  0  0  0  0  2 V2000
  151.3417  139.9532  154.8803 C   0  0  0  0  0  0  0  0  0  0  0  0
  150.6336  139.7057  156.1309 N   0  0  0  0  0  0  0  0  0  0  0  0
  150.4238  140.8392  157.0334 C   0  0  0  0  0  0  0  0  0  0  0  0
  151.6912  141.1962  157.8364 C   0  0  0  0  0  0  0  0  0  0  0  0
  151.5287  142.4041  158.7949 C   0  0  2  0  0  0  0  0  0  0  0  0
  151.2379  143.7056  158.0062 C   0  0  0  0  0  0  0  0  0  0  0  0
  151.0928  144.9225  158.9270 C   0  0  0  0  0  0  0  0  0  0  0  0
  152.3387  145.0610  159.8019 C   0  0  0  0  0  0  0  0  0  0  0  0
  152.5860  143.7639  160.5823 C   0  0  0  0  0  0  0  0  0  0  0  0
  152.7291  142.5961  159.6726 N   0  3  1  0  0  0  0  0  0  0  0  0
  153.1331  141.3893  160.4355 C   0  0  0  0  0  0  0  0  0  0  0  0
  149.9144  138.5544  156.2785 C   0  0  0  0  0  0  0  0  0  0  0  0
  149.3451  137.9943  155.1764 N   0  0  0  0  0  0  0  0  0  0  0  0
  148.6419  136.8630  155.2653 C   0  0  0  0  0  0  0  0  0  0  0  0
  148.3768  136.1314  156.3465 N   0  0  0  0  0  0  0  0  0  0  0  0
  148.9243  136.6858  157.4644 C   0  0  0  0  0  0  0  0  0  0  0  0
  149.7036  137.8794  157.5216 C   0  0  0  0  0  0  0  0  0  0  0  0
  150.0864  138.1140  158.8387 N   0  0  0  0  0  0  0  0  0  0  0  0
  149.5764  137.1208  159.5116 C   0  0  0  0  0  0  0  0  0  0  0  0
  148.8455  136.2235  158.7679 N   0  0  0  0  0  0  0  0  0  0  0  0
  148.1706  135.0307  159.2642 C   0  0  0  0  0  0  0  0  0  0  0  0
  147.1365  135.2765  160.4057 C   0  0  0  0  0  0  0  0  0  0  0  0
  146.1025  136.3292  159.9029 C   0  0  0  0  0  0  0  0  0  0  0  0
  146.5936  137.6456  159.7807 O   0  0  0  0  0  0  0  0  0  0  0  0
  146.4579  133.9324  160.7796 C   0  0  0  0  0  0  0  0  0  0  0  0
  145.7857  133.9351  162.1636 C   0  0  0  0  0  0  0  0  0  0  0  0
  146.7262  134.3205  163.1565 O   0  0  0  0  0  0  0  0  0  0  0  0
  147.1928  135.6506  162.9793 C   0  0  0  0  0  0  0  0  0  0  0  0
  147.9381  135.7805  161.6363 C   0  0  0  0  0  0  0  0  0  0  0  0
  150.7109  139.7235  154.0210 H   0  0  0  0  0  0  0  0  0  0  0  0
  152.2460  139.3470  154.8273 H   0  0  0  0  0  0  0  0  0  0  0  0
  151.6418  140.9981  154.7992 H   0  0  0  0  0  0  0  0  0  0  0  0
  150.0573  141.6952  156.4673 H   0  0  0  0  0  0  0  0  0  0  0  0
  149.6205  140.5798  157.7239 H   0  0  0  0  0  0  0  0  0  0  0  0
  151.9596  140.3090  158.4077 H   0  0  0  0  0  0  0  0  0  0  0  0
  152.5202  141.3825  157.1529 H   0  0  0  0  0  0  0  0  0  0  0  0
  150.6760  142.2026  159.4458 H   0  0  0  0  0  0  0  0  0  0  0  0
  152.0369  143.8867  157.2859 H   0  0  0  0  0  0  0  0  0  0  0  0
  150.3188  143.6107  157.4291 H   0  0  0  0  0  0  0  0  0  0  0  0
  150.9428  145.8272  158.3374 H   0  0  0  0  0  0  0  0  0  0  0  0
  150.2091  144.8081  159.5561 H   0  0  0  0  0  0  0  0  0  0  0  0
  153.2049  145.2912  159.1803 H   0  0  0  0  0  0  0  0  0  0  0  0
  152.2191  145.8967  160.4921 H   0  0  0  0  0  0  0  0  0  0  0  0
  153.4916  143.8798  161.1789 H   0  0  0  0  0  0  0  0  0  0  0  0
  151.7684  143.5836  161.2823 H   0  0  0  0  0  0  0  0  0  0  0  0
  152.2962  140.9893  161.0094 H   0  0  0  0  0  0  0  0  0  0  0  0
  153.9397  141.6207  161.1322 H   0  0  0  0  0  0  0  0  0  0  0  0
  153.5140  140.6083  159.7787 H   0  0  0  0  0  0  0  0  0  0  0  0
  148.2326  136.4912  154.3375 H   0  0  0  0  0  0  0  0  0  0  0  0
  149.7124  137.0207  160.5786 H   0  0  0  0  0  0  0  0  0  0  0  0
  147.6923  134.5426  158.4138 H   0  0  0  0  0  0  0  0  0  0  0  0
  148.9390  134.3352  159.6056 H   0  0  0  0  0  0  0  0  0  0  0  0
  145.7153  136.0352  158.9271 H   0  0  0  0  0  0  0  0  0  0  0  0
  145.2467  136.3777  160.5759 H   0  0  0  0  0  0  0  0  0  0  0  0
  146.9616  137.7502  158.9168 H   0  0  0  0  0  0  0  0  0  0  0  0
  145.7343  133.6412  160.0174 H   0  0  0  0  0  0  0  0  0  0  0  0
  147.2123  133.1450  160.7958 H   0  0  0  0  0  0  0  0  0  0  0  0
  144.9106  134.5835  162.1932 H   0  0  0  0  0  0  0  0  0  0  0  0
  145.4306  132.9315  162.3988 H   0  0  0  0  0  0  0  0  0  0  0  0
  146.3668  136.3552  163.0643 H   0  0  0  0  0  0  0  0  0  0  0  0
  147.8737  135.8863  163.7974 H   0  0  0  0  0  0  0  0  0  0  0  0
  148.8561  135.1985  161.7283 H   0  0  0  0  0  0  0  0  0  0  0  0
  148.2562  136.8127  161.4854 H   0  0  0  0  0  0  0  0  0  0  0  0
  153.5011  142.8123  159.0581 H   0  0  0  0  0  0  0  0  0  0  0  0
  1  2  1  0  0  0  0
  1 30  1  0  0  0  0
  1 31  1  0  0  0  0
  1 32  1  0  0  0  0
  2  3  1  0  0  0  0
  2 12  1  0  0  0  0
  3  4  1  0  0  0  0
  3 33  1  0  0  0  0
  3 34  1  0  0  0  0
  4  5  1  0  0  0  0
  4 35  1  0  0  0  0
  4 36  1  0  0  0  0
  5 10  1  0  0  0  0
  5  6  1  0  0  0  0
  5 37  1  0  0  0  0
  6  7  1  0  0  0  0
  6 38  1  0  0  0  0
  6 39  1  0  0  0  0
  7  8  1  0  0  0  0
  7 40  1  0  0  0  0
  7 41  1  0  0  0  0
  8  9  1  0  0  0  0
  8 42  1  0  0  0  0
  8 43  1  0  0  0  0
  9 10  1  0  0  0  0
  9 44  1  0  0  0  0
  9 45  1  0  0  0  0
 10 11  1  0  0  0  0
 10 64  1  0  0  0  0
 11 46  1  0  0  0  0
 11 47  1  0  0  0  0
 11 48  1  0  0  0  0
 12 17  1  0  0  0  0
 12 13  2  0  0  0  0
 13 14  1  0  0  0  0
 14 15  2  0  0  0  0
 14 49  1  0  0  0  0
 15 16  1  0  0  0  0
 16 20  1  0  0  0  0
 16 17  2  0  0  0  0
 17 18  1  0  0  0  0
 18 19  2  0  0  0  0
 19 20  1  0  0  0  0
 19 50  1  0  0  0  0
 20 21  1  0  0  0  0
 21 22  1  0  0  0  0
 21 51  1  0  0  0  0
 21 52  1  0  0  0  0
 22 29  1  0  0  0  0
 22 23  1  0  0  0  0
 22 25  1  0  0  0  0
 23 24  1  0  0  0  0
 23 53  1  0  0  0  0
 23 54  1  0  0  0  0
 24 55  1  0  0  0  0
 25 26  1  0  0  0  0
 25 56  1  0  0  0  0
 25 57  1  0  0  0  0
 26 27  1  0  0  0  0
 26 58  1  0  0  0  0
 26 59  1  0  0  0  0
 27 28  1  0  0  0  0
 28 29  1  0  0  0  0
 28 60  1  0  0  0  0
 28 61  1  0  0  0  0
 29 62  1  0  0  0  0
 29 63  1  0  0  0  0
M  CHG  1  10   1
M  END
> <s_m_source_file>
AV-unprocessed.smi

> <i_m_source_file_index>
90

> <i_lp_mmshare_version>
43012

> <i_f3d_flags>
0

> <s_epik_input>
W0NIM11OMVtDSDJdW0NIMl1bQ0gyXVtDSDJdW0NASF0xW0NIMl1bQ0gyXU4oW0NIM10pYyhuW2NIXW4yKWMoYzIzKW5bY0hdbjNbQ0gyXUM0KFtDSDJdW09IXSlbQ0gyXVtDSDJdT1tDSDJdW0NIMl00

> <s_epik_cmdline>
J2VwaWtfcHl0aG9uJywgJy1waCcsICc3LjAnLCAnLXRuJywgJzgnLCAnLW1hJywgJzIwMCcsICctbWV0YWxfYmluZGluZycsICctaW1hZScsICc8aW5maWxlLm1hZT4nLCAnLW9tYWUnLCAnPG91dGZpbGUubWFlPic=

> <r_lp_tautomer_probability>
1

> <r_epik_Ionization_Penalty>
0.00234895

> <r_epik_Ionization_Penalty_Charging>
0.00106647

> <r_epik_Ionization_Penalty_Neutral>
0.00128248

> <r_epik_State_Penalty>
-0

> <r_epik_Charging_Adjusted_Penalty>
0.00106647

> <i_epik_Tot_Q>
1

> <i_epik_Tot_abs_Q>
1

> <r_epik_Metal_State_Penalty>
-0

> <b_epik_Metal_Only>
0

> <s_lp_Force_Field>
OPLS_2005

> <r_lp_Energy>
43.9513

> <b_lp_Chiralities_Consistent>
1

> <s_lp_Variant>
AV-unprocessed.smi:90-1

> <Gold.Version>
5.8.1

> <Gold.Id.Protein>
6NUR|6NUR_protein|mol2

> <Gold.PLP.Fitness>
51.3989

> <Gold.PLP.PLP>
-46.7990

> <Gold.PLP.part.hbond>
-2.0000

> <Gold.PLP.part.metal>
0.0000

> <Gold.PLP.part.buried>
-3.1166

> <Gold.PLP.part.nonpolar>
-41.3589

> <Gold.PLP.part.repulsive>
0.1906

> <Gold.PLP.ligand.clash>
0.0269

> <Gold.PLP.ligand.torsion>
0.8806

> <Gold.PLP.Chemscore.Hbond>
0.9760

> <Gold.PLP.Chemscore.CHOScore>
0.9961

> <Gold.PLP.Chemscore.Metal>
0.0000

> <Gold.Chemscore.Hbonds>
donor molecule, donor type, donor heavy atom, donor atom, acceptor molecule, acceptor atom, score
      P1  H  6934  6947       L1    24  1.00
      L1  C    14    49       P1  7948  0.86

> <Gold.PLP.Chemscore.Internal.Correction>
0.4716

> <Gold.Rescore>
     Score         DG    S(hbond)    S(metal)    S(lipo)     H(rot)  DE(clash)    DE(int)     intcor
     12.18     -17.27       0.83        0.00     136.88       2.73       1.92       3.17       ----

> <Gold.Chemscore.Fitness>
12.1819

> <Gold.Chemscore.DG>
-17.2705

> <Gold.Chemscore.ZeroCoef>
-5.4800

> <Gold.Chemscore.Hbond>
0.8312

> <Gold.Chemscore.Metal>
0.0000

> <Gold.Chemscore.Lipo>
136.8823

> <Gold.Chemscore.Internal_Hbond>
0.0000

> <Gold.Chemscore.DEClash>
1.9214

> <Gold.Chemscore.DEInternal>
3.1671

> <Gold.Chemscore.Rot>
2.7347

> <Gold.Chemscore.Internal.Correction>
   9.000000E+99

> <Gold.Chemscore.Hbonds>
donor molecule, donor type, donor heavy atom, donor atom, acceptor molecule, acceptor atom, score
      P1  H  6934  6947       L1    24  0.71

> <Gold.Chemscore.Hbond.Weighted>
-2.7761

> <Gold.Chemscore.Metal.Weighted>
-0.0000

> <Gold.Chemscore.Lipo.Weighted>
-16.0152

> <Gold.Chemscore.Internal_Hbond.Weighted>
0.0000

> <Gold.Chemscore.DEClash.Weighted>
1.9214

> <Gold.Chemscore.DEInternal.Weighted>
3.1671

> <Gold.Chemscore.Rot.Weighted>
7.0009

> <Gold.Chemscore.Internal.Correction.Weighted>
   9.000000E+99

> <Gold.Protein.RotatedTorsions>
[ 6907 6896 6895 6894 ] final   95.09 input  -60.11 | X-H torsion
[ 7974 7965 7964 7962 ] final  169.64 input  175.53 | X-H torsion
[ 8008 7997 7996 7995 ] final  -63.21 input   59.86 | X-H torsion
[ 10167 10162 10161 10158 ] final    2.62 input  -65.29 | X-H torsion
[ 10718 10713 10712 10709 ] final  -37.55 input   66.30 | X-H torsion
[ 10763 10752 10751 10750 ] final  174.59 input  -60.55 | X-H torsion
[ 11005 11000 10999 10996 ] final  -37.89 input  -57.11 | X-H torsion

> <Gold.Protein.ActiveResidues>
 VAL166  LYS551  ARG553  GLY616  TRP617  ASP618  TYR619  PRO620  LYS621  CYS622 
 ASP623  PHE694  ASN695  SER759  ASP760  ASP761  ALA762  ILE779  LEU786  VAL792 
 PHE793  MET794  SER795  GLU796  ALA797  LYS798  CYS799  TRP800  GLU811  SER814 

> <Gold.Protein.RotatedAtoms>
  152.5446  134.1093  159.8351 H   0  0  0  0  0  0  0  0  0  0  0  0  # atno 6907 bound_to 6896
  151.1161  133.5130  159.2611 H   0  0  0  0  0  0  0  0  0  0  0  0  # atno 6908 bound_to 6896
  151.1830  135.0379  159.8855 H   0  0  0  0  0  0  0  0  0  0  0  0  # atno 6909 bound_to 6896
  144.7349  139.9083  143.6413 H   0  0  0  0  0  0  0  0  0  0  0  0  # atno 7974 bound_to 7965
  154.4542  140.0979  156.6708 H   0  0  0  0  0  0  0  0  0  0  0  0  # atno 8008 bound_to 7997
  155.5190  140.3478  155.4384 H   0  0  0  0  0  0  0  0  0  0  0  0  # atno 8009 bound_to 7997
  156.0743  140.1357  156.9779 H   0  0  0  0  0  0  0  0  0  0  0  0  # atno 8010 bound_to 7997
  140.6626  143.7264  150.7767 H   0  0  0  0  0  0  0  0  0  0  0  0  # atno 10167 bound_to 10162
  156.3140  130.4256  149.8023 H   0  0  0  0  0  0  0  0  0  0  0  0  # atno 10718 bound_to 10713
  154.4560  135.2766  155.1747 H   0  0  0  0  0  0  0  0  0  0  0  0  # atno 10763 bound_to 10752
  154.3554  135.6141  153.5667 H   0  0  0  0  0  0  0  0  0  0  0  0  # atno 10764 bound_to 10752
  152.9851  135.5821  154.4913 H   0  0  0  0  0  0  0  0  0  0  0  0  # atno 10765 bound_to 10752
  140.9986  133.6967  156.1981 H   0  0  0  0  0  0  0  0  0  0  0  0  # atno 11005 bound_to 11000
  146.1020  139.4016  143.0341 LP  0  0  0  0  0  0  0  0  0  0  0  0  # atno 17320 bound_to 7965
  145.7565  140.9952  143.1222 LP  0  0  0  0  0  0  0  0  0  0  0  0  # atno 17321 bound_to 7965
  140.0935  143.4855  152.2465 LP  0  0  0  0  0  0  0  0  0  0  0  0  # atno 17342 bound_to 10162
  139.5865  144.7533  151.3508 LP  0  0  0  0  0  0  0  0  0  0  0  0  # atno 17343 bound_to 10162
  156.5356  130.8277  151.3252 LP  0  0  0  0  0  0  0  0  0  0  0  0  # atno 17370 bound_to 10713
  157.7397  130.9837  150.2332 LP  0  0  0  0  0  0  0  0  0  0  0  0  # atno 17371 bound_to 10713
  140.6925  134.4650  157.5588 LP  0  0  0  0  0  0  0  0  0  0  0  0  # atno 17394 bound_to 11000
  139.9027  134.8518  156.1829 LP  0  0  0  0  0  0  0  0  0  0  0  0  # atno 17395 bound_to 11000

$$$$
