AV-unprocessed.smi:2919|AV-procd|sdf|11192|dock5
  -GOLD-   2272016 83D 1   1.00000     0.00000
 Structure written by MMmdl.
 34 36  0  0  0  0  0  0  0  0  1 V2000
  147.8465  140.4306  153.6831 C   0  0  0  0  0  0  0  0  0  0  0  0
  148.9214  140.6566  154.7316 C   0  0  0  0  0  0  0  0  0  0  0  0
  148.7091  141.7127  155.5471 N   0  0  0  0  0  0  0  0  0  0  0  0
  149.5846  142.0117  156.5079 N   0  0  0  0  0  0  0  0  0  0  0  0
  150.7039  141.2690  156.6873 C   0  0  0  0  0  0  0  0  0  0  0  0
  151.5796  141.6477  157.7219 N   0  0  0  0  0  0  0  0  0  0  0  0
  151.3233  142.8196  158.5524 C   0  0  2  0  0  0  0  0  0  0  0  0
  151.4929  144.1434  157.7953 C   0  0  0  0  0  0  0  0  0  0  0  0
  152.5307  144.8719  158.6580 C   0  0  1  0  0  0  0  0  0  0  0  0
  151.9652  145.2874  160.0230 C   0  0  0  0  0  0  0  0  0  0  0  0
  151.8858  143.9452  160.7499 C   0  0  0  0  0  0  0  0  0  0  0  0
  152.3711  142.9709  159.6684 C   0  0  2  0  0  0  0  0  0  0  0  0
  153.3494  143.7788  159.0337 O   0  0  0  0  0  0  0  0  0  0  0  0
  150.9888  140.1453  155.8686 C   0  0  0  0  0  0  0  0  0  0  0  0
  152.1967  139.3464  156.0668 C   0  0  0  0  0  0  0  0  0  0  0  0
  153.1529  138.7139  156.2235 N   0  0  0  0  0  0  0  0  0  0  0  0
  150.0605  139.8235  154.8466 C   0  0  0  0  0  0  0  0  0  0  0  0
  150.2859  138.6336  153.9171 C   0  0  0  0  0  0  0  0  0  0  0  0
  147.3881  139.4499  153.8122 H   0  0  0  0  0  0  0  0  0  0  0  0
  148.2721  140.4894  152.6812 H   0  0  0  0  0  0  0  0  0  0  0  0
  147.0558  141.1790  153.7529 H   0  0  0  0  0  0  0  0  0  0  0  0
  152.4918  141.2175  157.7769 H   0  0  0  0  0  0  0  0  0  0  0  0
  150.3286  142.7351  158.9929 H   0  0  0  0  0  0  0  0  0  0  0  0
  151.8864  143.9849  156.7901 H   0  0  0  0  0  0  0  0  0  0  0  0
  150.5589  144.6994  157.7080 H   0  0  0  0  0  0  0  0  0  0  0  0
  153.0588  145.6694  158.1349 H   0  0  0  0  0  0  0  0  0  0  0  0
  152.6488  145.9621  160.5396 H   0  0  0  0  0  0  0  0  0  0  0  0
  150.9966  145.7811  159.9361 H   0  0  0  0  0  0  0  0  0  0  0  0
  152.5594  143.9354  161.6075 H   0  0  0  0  0  0  0  0  0  0  0  0
  150.8806  143.7115  161.1025 H   0  0  0  0  0  0  0  0  0  0  0  0
  152.7480  142.0288  160.0685 H   0  0  0  0  0  0  0  0  0  0  0  0
  151.2171  138.7599  153.3639 H   0  0  0  0  0  0  0  0  0  0  0  0
  149.4904  138.4980  153.1867 H   0  0  0  0  0  0  0  0  0  0  0  0
  150.3551  137.7117  154.4955 H   0  0  0  0  0  0  0  0  0  0  0  0
  1  2  1  0  0  0  0
  1 19  1  0  0  0  0
  1 20  1  0  0  0  0
  1 21  1  0  0  0  0
  2 17  1  0  0  0  0
  2  3  2  0  0  0  0
  3  4  1  0  0  0  0
  4  5  2  0  0  0  0
  5  6  1  0  0  0  0
  5 14  1  0  0  0  0
  6  7  1  0  0  0  0
  6 22  1  0  0  0  0
  7 12  1  0  0  0  0
  7  8  1  0  0  0  0
  7 23  1  0  0  0  0
  8  9  1  0  0  0  0
  8 24  1  0  0  0  0
  8 25  1  0  0  0  0
  9 13  1  0  0  0  0
  9 10  1  0  0  0  0
  9 26  1  0  0  0  0
 10 11  1  0  0  0  0
 10 27  1  0  0  0  0
 10 28  1  0  0  0  0
 11 12  1  0  0  0  0
 11 29  1  0  0  0  0
 11 30  1  0  0  0  0
 12 13  1  0  0  0  0
 12 31  1  0  0  0  0
 14 15  1  0  0  0  0
 14 17  2  0  0  0  0
 15 16  3  0  0  0  0
 17 18  1  0  0  0  0
 18 32  1  0  0  0  0
 18 33  1  0  0  0  0
 18 34  1  0  0  0  0
M  END
> <s_m_source_file>
AV-unprocessed.smi

> <i_m_source_file_index>
2919

> <i_lp_mmshare_version>
43012

> <i_f3d_flags>
0

> <s_epik_input>
W0NIM11jMW5uYyhjKEMjTiljMVtDSDNdKVtOSF1bQ0BIXShbQ0gyXVtDQEBIXTIzKVtDQEBIXShPMylbQ0gyXVtDSDJdMg==

> <s_epik_cmdline>
J2VwaWtfcHl0aG9uJywgJy1waCcsICc3LjAnLCAnLXRuJywgJzgnLCAnLW1hJywgJzIwMCcsICctbWV0YWxfYmluZGluZycsICctaW1hZScsICc8aW5maWxlLm1hZT4nLCAnLW9tYWUnLCAnPG91dGZpbGUubWFlPic=

> <r_lp_tautomer_probability>
1

> <r_epik_Ionization_Penalty>
0.00143865

> <r_epik_Ionization_Penalty_Charging>
0

> <r_epik_Ionization_Penalty_Neutral>
0.00143865

> <r_epik_State_Penalty>
-0

> <r_epik_Charging_Adjusted_Penalty>
0

> <i_epik_Tot_Q>
0

> <i_epik_Tot_abs_Q>
0

> <r_epik_Metal_State_Penalty>
-0

> <b_epik_Metal_Only>
0

> <s_lp_Force_Field>
OPLS_2005

> <r_lp_Energy>
49.0133

> <b_lp_Chiralities_Consistent>
1

> <s_lp_Variant>
AV-unprocessed.smi:2919-1

> <Gold.Version>
5.8.1

> <Gold.Id.Protein>
6NUR|6NUR_protein|mol2

> <Gold.PLP.Fitness>
42.9628

> <Gold.PLP.PLP>
-40.0526

> <Gold.PLP.part.hbond>
-1.0000

> <Gold.PLP.part.metal>
0.0000

> <Gold.PLP.part.buried>
-1.3287

> <Gold.PLP.part.nonpolar>
-37.7703

> <Gold.PLP.part.repulsive>
2.2603

> <Gold.PLP.ligand.clash>
0.0000

> <Gold.PLP.ligand.torsion>
0.0548

> <Gold.PLP.Chemscore.Hbond>
1.0000

> <Gold.PLP.Chemscore.CHOScore>
0.0000

> <Gold.PLP.Chemscore.Metal>
0.0000

> <Gold.Chemscore.Hbonds>
donor molecule, donor type, donor heavy atom, donor atom, acceptor molecule, acceptor atom, score
      P1  H  7997  8008       L1    16  0.90

> <Gold.PLP.Chemscore.Internal.Correction>
0.0199

> <Gold.Rescore>
     Score         DG    S(hbond)    S(metal)    S(lipo)     H(rot)  DE(clash)    DE(int)     intcor
     16.83     -16.97       0.63        0.00     102.07       1.00       0.01       0.12       ----

> <Gold.Chemscore.Fitness>
16.8306

> <Gold.Chemscore.DG>
-16.9656

> <Gold.Chemscore.ZeroCoef>
-5.4800

> <Gold.Chemscore.Hbond>
0.6299

> <Gold.Chemscore.Metal>
0.0000

> <Gold.Chemscore.Lipo>
102.0650

> <Gold.Chemscore.Internal_Hbond>
0.0000

> <Gold.Chemscore.DEClash>
0.0128

> <Gold.Chemscore.DEInternal>
0.1222

> <Gold.Chemscore.Rot>
1.0000

> <Gold.Chemscore.Internal.Correction>
   9.000000E+99

> <Gold.Chemscore.Hbonds>
donor molecule, donor type, donor heavy atom, donor atom, acceptor molecule, acceptor atom, score
      P1  H  7997  8008       L1    16  0.17

> <Gold.Chemscore.Hbond.Weighted>
-2.1040

> <Gold.Chemscore.Metal.Weighted>
-0.0000

> <Gold.Chemscore.Lipo.Weighted>
-11.9416

> <Gold.Chemscore.Internal_Hbond.Weighted>
0.0000

> <Gold.Chemscore.DEClash.Weighted>
0.0128

> <Gold.Chemscore.DEInternal.Weighted>
0.1222

> <Gold.Chemscore.Rot.Weighted>
2.5600

> <Gold.Chemscore.Internal.Correction.Weighted>
   9.000000E+99

> <Gold.Protein.RotatedTorsions>
[ 6907 6896 6895 6894 ] final -135.40 input  -60.11 | X-H torsion
[ 7974 7965 7964 7962 ] final   88.72 input  175.53 | X-H torsion
[ 8008 7997 7996 7995 ] final  -42.21 input   59.86 | X-H torsion
[ 10167 10162 10161 10158 ] final  156.99 input  -65.29 | X-H torsion
[ 10718 10713 10712 10709 ] final -162.36 input   66.30 | X-H torsion
[ 10763 10752 10751 10750 ] final  162.18 input  -60.55 | X-H torsion
[ 11005 11000 10999 10996 ] final -157.92 input  -57.11 | X-H torsion

> <Gold.Protein.ActiveResidues>
 VAL166  LYS551  ARG553  GLY616  TRP617  ASP618  TYR619  PRO620  LYS621  CYS622 
 ASP623  PHE694  ASN695  SER759  ASP760  ASP761  ALA762  ILE779  LEU786  VAL792 
 PHE793  MET794  SER795  GLU796  ALA797  LYS798  CYS799  TRP800  GLU811  SER814 

> <Gold.Protein.RotatedAtoms>
  150.9974  133.6090  159.2699 H   0  0  0  0  0  0  0  0  0  0  0  0  # atno 6907 bound_to 6896
  151.3289  135.0836  159.9341 H   0  0  0  0  0  0  0  0  0  0  0  0  # atno 6908 bound_to 6896
  152.5264  133.9607  159.7770 H   0  0  0  0  0  0  0  0  0  0  0  0  # atno 6909 bound_to 6896
  145.5419  139.2289  143.2561 H   0  0  0  0  0  0  0  0  0  0  0  0  # atno 7974 bound_to 7965
  154.4000  140.1479  156.3318 H   0  0  0  0  0  0  0  0  0  0  0  0  # atno 8008 bound_to 7997
  155.8436  140.3461  155.5626 H   0  0  0  0  0  0  0  0  0  0  0  0  # atno 8009 bound_to 7997
  155.8060  140.0877  157.1921 H   0  0  0  0  0  0  0  0  0  0  0  0  # atno 8010 bound_to 7997
  139.4822  144.4959  151.8240 H   0  0  0  0  0  0  0  0  0  0  0  0  # atno 10167 bound_to 10162
  156.6093  130.8843  151.2932 H   0  0  0  0  0  0  0  0  0  0  0  0  # atno 10718 bound_to 10713
  154.2745  135.2765  155.2724 H   0  0  0  0  0  0  0  0  0  0  0  0  # atno 10763 bound_to 10752
  154.5273  135.5739  153.6733 H   0  0  0  0  0  0  0  0  0  0  0  0  # atno 10764 bound_to 10752
  152.9939  135.6219  154.2901 H   0  0  0  0  0  0  0  0  0  0  0  0  # atno 10765 bound_to 10752
  140.6594  134.4366  157.5234 H   0  0  0  0  0  0  0  0  0  0  0  0  # atno 11005 bound_to 11000
  146.1975  140.6239  142.9117 LP  0  0  0  0  0  0  0  0  0  0  0  0  # atno 17320 bound_to 7965
  144.7573  140.5338  143.6760 LP  0  0  0  0  0  0  0  0  0  0  0  0  # atno 17321 bound_to 7965
  140.4447  144.1938  150.5893 LP  0  0  0  0  0  0  0  0  0  0  0  0  # atno 17342 bound_to 10162
  140.4647  143.2435  151.9172 LP  0  0  0  0  0  0  0  0  0  0  0  0  # atno 17343 bound_to 10162
  157.7259  130.9621  150.1632 LP  0  0  0  0  0  0  0  0  0  0  0  0  # atno 17370 bound_to 10713
  156.2403  130.3690  149.8344 LP  0  0  0  0  0  0  0  0  0  0  0  0  # atno 17371 bound_to 10713
  139.9018  134.8538  156.1864 LP  0  0  0  0  0  0  0  0  0  0  0  0  # atno 17394 bound_to 11000
  141.0477  133.6905  156.1714 LP  0  0  0  0  0  0  0  0  0  0  0  0  # atno 17395 bound_to 11000

$$$$
