AV-unprocessed.smi:991|AV-procd|sdf|4328|dock7
  -GOLD-   22720 2233D 1   1.00000     0.00000
 Structure written by MMmdl.
 32 33  0  0  0  0  0  0  0  0  1 V2000
  152.9081  138.9106  156.0275 O   0  0  0  0  0  0  0  0  0  0  0  0
  151.7708  139.3570  155.8792 C   0  0  0  0  0  0  0  0  0  0  0  0
  150.9653  138.9966  154.6302 C   0  0  0  0  0  0  0  0  0  0  0  0
  149.7646  139.8062  154.5263 N   0  0  0  0  0  0  0  0  0  0  0  0
  148.4858  139.4491  154.3931 C   0  0  0  0  0  0  0  0  0  0  0  0
  147.6483  140.4747  154.3239 N   0  0  0  0  0  0  0  0  0  0  0  0
  148.5396  141.5051  154.4303 C   0  0  0  0  0  0  0  0  0  0  0  0
  149.8211  141.1590  154.5537 N   0  0  0  0  0  0  0  0  0  0  0  0
  151.1686  140.1599  156.7715 N   0  0  0  0  0  0  0  0  0  0  0  0
  151.7546  140.6051  158.0342 C   0  0  0  0  0  0  0  0  0  0  0  0
  151.6334  142.1237  158.2595 C   0  0  0  0  0  0  0  0  0  0  0  0
  151.1964  142.8451  157.3607 O   0  0  0  0  0  0  0  0  0  0  0  0
  152.0283  142.6243  159.4484 N   0  0  0  0  0  0  0  0  0  0  0  0
  152.5830  141.8520  160.5597 C   0  0  0  0  0  0  0  0  0  0  0  0
  153.0764  142.8834  161.5754 C   0  0  0  0  0  0  0  0  0  0  0  0
  152.2313  144.1180  161.2939 C   0  0  0  0  0  0  0  0  0  0  0  0
  151.9495  144.0422  159.7934 C   0  0  0  0  0  0  0  0  0  0  0  0
  151.5707  139.1537  153.7362 H   0  0  0  0  0  0  0  0  0  0  0  0
  150.6948  137.9397  154.6543 H   0  0  0  0  0  0  0  0  0  0  0  0
  148.1624  138.4195  154.3424 H   0  0  0  0  0  0  0  0  0  0  0  0
  148.2350  142.5413  154.4163 H   0  0  0  0  0  0  0  0  0  0  0  0
  150.2314  140.4761  156.5673 H   0  0  0  0  0  0  0  0  0  0  0  0
  151.2932  140.0611  158.8599 H   0  0  0  0  0  0  0  0  0  0  0  0
  152.8110  140.3359  158.0302 H   0  0  0  0  0  0  0  0  0  0  0  0
  151.7945  141.2374  160.9963 H   0  0  0  0  0  0  0  0  0  0  0  0
  153.3939  141.1947  160.2428 H   0  0  0  0  0  0  0  0  0  0  0  0
  152.9905  142.5372  162.6059 H   0  0  0  0  0  0  0  0  0  0  0  0
  154.1263  143.1108  161.3858 H   0  0  0  0  0  0  0  0  0  0  0  0
  151.2926  144.0509  161.8459 H   0  0  0  0  0  0  0  0  0  0  0  0
  152.7244  145.0459  161.5857 H   0  0  0  0  0  0  0  0  0  0  0  0
  152.7106  144.5864  159.2320 H   0  0  0  0  0  0  0  0  0  0  0  0
  150.9764  144.4723  159.5504 H   0  0  0  0  0  0  0  0  0  0  0  0
  1  2  2  0  0  0  0
  2  3  1  0  0  0  0
  2  9  1  0  0  0  0
  3  4  1  0  0  0  0
  3 18  1  0  0  0  0
  3 19  1  0  0  0  0
  4  8  1  0  0  0  0
  4  5  1  0  0  0  0
  5  6  2  0  0  0  0
  5 20  1  0  0  0  0
  6  7  1  0  0  0  0
  7  8  2  0  0  0  0
  7 21  1  0  0  0  0
  9 10  1  0  0  0  0
  9 22  1  0  0  0  0
 10 11  1  0  0  0  0
 10 23  1  0  0  0  0
 10 24  1  0  0  0  0
 11 12  2  0  0  0  0
 11 13  1  0  0  0  0
 13 17  1  0  0  0  0
 13 14  1  0  0  0  0
 14 15  1  0  0  0  0
 14 25  1  0  0  0  0
 14 26  1  0  0  0  0
 15 16  1  0  0  0  0
 15 27  1  0  0  0  0
 15 28  1  0  0  0  0
 16 17  1  0  0  0  0
 16 29  1  0  0  0  0
 16 30  1  0  0  0  0
 17 31  1  0  0  0  0
 17 32  1  0  0  0  0
M  END
> <s_m_source_file>
AV-unprocessed.smi

> <i_m_source_file_index>
991

> <i_lp_mmshare_version>
43012

> <i_f3d_flags>
0

> <s_epik_input>
bjFbY0hdbltjSF1uMVtDSDJdQyg9TylbTkhdW0NIMl1DKD1PKU4yW0NIMl1bQ0gyXVtDSDJdW0NIMl0y

> <s_epik_cmdline>
J2VwaWtfcHl0aG9uJywgJy1waCcsICc3LjAnLCAnLXRuJywgJzgnLCAnLW1hJywgJzIwMCcsICctbWV0YWxfYmluZGluZycsICctaW1hZScsICc8aW5maWxlLm1hZT4nLCAnLW9tYWUnLCAnPG91dGZpbGUubWFlPic=

> <r_lp_tautomer_probability>
1

> <r_epik_Ionization_Penalty>
7.3183e-06

> <r_epik_Ionization_Penalty_Charging>
0

> <r_epik_Ionization_Penalty_Neutral>
7.3183e-06

> <r_epik_State_Penalty>
-0

> <r_epik_Charging_Adjusted_Penalty>
0

> <i_epik_Tot_Q>
0

> <i_epik_Tot_abs_Q>
0

> <r_epik_Metal_State_Penalty>
-0

> <b_epik_Metal_Only>
0

> <s_lp_Force_Field>
OPLS_2005

> <r_lp_Energy>
26.0119

> <b_lp_Chiralities_Consistent>
1

> <s_lp_Variant>
AV-unprocessed.smi:991-1

> <Gold.Version>
5.8.1

> <Gold.Id.Protein>
6NUR|6NUR_protein|mol2

> <Gold.PLP.Fitness>
43.7292

> <Gold.PLP.PLP>
-37.9918

> <Gold.PLP.part.hbond>
-2.2767

> <Gold.PLP.part.metal>
0.0000

> <Gold.PLP.part.buried>
-3.8370

> <Gold.PLP.part.nonpolar>
-31.6596

> <Gold.PLP.part.repulsive>
0.4702

> <Gold.PLP.ligand.clash>
0.0000

> <Gold.PLP.ligand.torsion>
0.2357

> <Gold.PLP.Chemscore.Hbond>
1.0677

> <Gold.PLP.Chemscore.CHOScore>
1.0000

> <Gold.PLP.Chemscore.Metal>
0.0000

> <Gold.Chemscore.Hbonds>
donor molecule, donor type, donor heavy atom, donor atom, acceptor molecule, acceptor atom, score
      P1  H  7989  7998       L1     8  0.11
      P1  H  7997  8010       L1     1  1.00
      L1  C     7    21       P1  8028  0.92

> <Gold.PLP.Chemscore.Internal.Correction>
0.0057

> <Gold.Rescore>
     Score         DG    S(hbond)    S(metal)    S(lipo)     H(rot)  DE(clash)    DE(int)     intcor
     11.86     -12.28       1.88        0.00      60.07       2.54       0.04       0.38       ----

> <Gold.Chemscore.Fitness>
11.8586

> <Gold.Chemscore.DG>
-12.2814

> <Gold.Chemscore.ZeroCoef>
-5.4800

> <Gold.Chemscore.Hbond>
1.8762

> <Gold.Chemscore.Metal>
0.0000

> <Gold.Chemscore.Lipo>
60.0736

> <Gold.Chemscore.Internal_Hbond>
0.0000

> <Gold.Chemscore.DEClash>
0.0446

> <Gold.Chemscore.DEInternal>
0.3782

> <Gold.Chemscore.Rot>
2.5366

> <Gold.Chemscore.Internal.Correction>
   9.000000E+99

> <Gold.Chemscore.Hbonds>
donor molecule, donor type, donor heavy atom, donor atom, acceptor molecule, acceptor atom, score
      P1  H  7997  8010       L1     1  0.97

> <Gold.Chemscore.Hbond.Weighted>
-6.2665

> <Gold.Chemscore.Metal.Weighted>
-0.0000

> <Gold.Chemscore.Lipo.Weighted>
-7.0286

> <Gold.Chemscore.Internal_Hbond.Weighted>
0.0000

> <Gold.Chemscore.DEClash.Weighted>
0.0446

> <Gold.Chemscore.DEInternal.Weighted>
0.3782

> <Gold.Chemscore.Rot.Weighted>
6.4937

> <Gold.Chemscore.Internal.Correction.Weighted>
   9.000000E+99

> <Gold.Protein.RotatedTorsions>
[ 6907 6896 6895 6894 ] final   17.35 input  -60.11 | X-H torsion
[ 7974 7965 7964 7962 ] final   85.74 input  175.53 | X-H torsion
[ 8008 7997 7996 7995 ] final   71.52 input   59.86 | X-H torsion
[ 10167 10162 10161 10158 ] final -175.45 input  -65.29 | X-H torsion
[ 10718 10713 10712 10709 ] final -161.72 input   66.30 | X-H torsion
[ 10763 10752 10751 10750 ] final  -37.44 input  -60.55 | X-H torsion
[ 11005 11000 10999 10996 ] final  -62.95 input  -57.11 | X-H torsion

> <Gold.Protein.ActiveResidues>
 VAL166  LYS551  ARG553  GLY616  TRP617  ASP618  TYR619  PRO620  LYS621  CYS622 
 ASP623  PHE694  ASN695  SER759  ASP760  ASP761  ALA762  ILE779  LEU786  VAL792 
 PHE793  MET794  SER795  GLU796  ALA797  LYS798  CYS799  TRP800  GLU811  SER814 

> <Gold.Protein.RotatedAtoms>
  151.8483  135.0566  160.0455 H   0  0  0  0  0  0  0  0  0  0  0  0  # atno 6907 bound_to 6896
  152.2756  133.5418  159.5474 H   0  0  0  0  0  0  0  0  0  0  0  0  # atno 6908 bound_to 6896
  150.7169  134.0552  159.3854 H   0  0  0  0  0  0  0  0  0  0  0  0  # atno 6909 bound_to 6896
  145.5816  139.2326  143.2350 H   0  0  0  0  0  0  0  0  0  0  0  0  # atno 7974 bound_to 7965
  155.7552  140.3488  155.5170 H   0  0  0  0  0  0  0  0  0  0  0  0  # atno 8008 bound_to 7997
  155.8967  140.1027  157.1401 H   0  0  0  0  0  0  0  0  0  0  0  0  # atno 8009 bound_to 7997
  154.4039  140.1294  156.4371 H   0  0  0  0  0  0  0  0  0  0  0  0  # atno 8010 bound_to 7997
  139.5580  144.1940  152.1192 H   0  0  0  0  0  0  0  0  0  0  0  0  # atno 10167 bound_to 10162
  156.6002  130.8807  151.2912 H   0  0  0  0  0  0  0  0  0  0  0  0  # atno 10718 bound_to 10713
  153.8963  135.6807  153.4757 H   0  0  0  0  0  0  0  0  0  0  0  0  # atno 10763 bound_to 10752
  153.1154  135.4764  154.9103 H   0  0  0  0  0  0  0  0  0  0  0  0  # atno 10764 bound_to 10752
  154.7597  135.3207  154.8355 H   0  0  0  0  0  0  0  0  0  0  0  0  # atno 10765 bound_to 10752
  141.1377  133.6646  156.5605 H   0  0  0  0  0  0  0  0  0  0  0  0  # atno 11005 bound_to 11000
  146.1712  140.6642  142.9232 LP  0  0  0  0  0  0  0  0  0  0  0  0  # atno 17320 bound_to 7965
  144.7391  140.4893  143.6882 LP  0  0  0  0  0  0  0  0  0  0  0  0  # atno 17321 bound_to 7965
  140.1448  144.5169  150.6722 LP  0  0  0  0  0  0  0  0  0  0  0  0  # atno 17342 bound_to 10162
  140.6856  143.2348  151.5269 LP  0  0  0  0  0  0  0  0  0  0  0  0  # atno 17343 bound_to 10162
  157.7281  130.9653  150.1729 LP  0  0  0  0  0  0  0  0  0  0  0  0  # atno 17370 bound_to 10713
  156.2476  130.3697  149.8268 LP  0  0  0  0  0  0  0  0  0  0  0  0  # atno 17371 bound_to 10713
  140.3992  134.7372  157.4769 LP  0  0  0  0  0  0  0  0  0  0  0  0  # atno 17394 bound_to 11000
  140.0509  134.6132  155.8863 LP  0  0  0  0  0  0  0  0  0  0  0  0  # atno 17395 bound_to 11000

$$$$
