AV-unprocessed.smi:3218|AV-procd|sdf|12294|dock2
  -GOLD-   2272018133D 1   1.00000     0.00000
 Structure written by MMmdl.
 37 38  0  0  0  0  0  0  0  0  1 V2000
  154.0710  141.3917  161.1627 C   0  0  0  0  0  0  0  0  0  0  0  0
  153.2720  142.4537  160.4637 C   0  0  0  0  0  0  0  0  0  0  0  0
  153.3779  142.8749  159.1074 C   0  0  0  0  0  0  0  0  0  0  0  0
  152.5284  143.8417  158.8010 N   0  0  0  0  0  0  0  0  0  0  0  0
  151.8504  144.0691  159.9457 N   0  0  0  0  0  0  0  0  0  0  0  0
  150.8227  145.0909  159.9835 C   0  0  0  0  0  0  0  0  0  0  0  0
  149.4262  144.4728  160.1321 C   0  0  0  0  0  0  0  0  0  0  0  0
  148.4183  145.5183  160.0735 N   0  0  0  0  0  0  0  0  0  0  0  0
  147.1280  144.9819  160.4719 C   0  0  0  0  0  0  0  0  0  0  0  0
  146.7545  143.8041  159.5594 C   0  0  0  0  0  0  0  0  0  0  0  0
  145.4325  143.2811  159.8893 N   0  0  0  0  0  0  0  0  0  0  0  0
  144.2426  144.0935  159.6994 C   0  0  0  0  0  0  0  0  0  0  0  0
  143.1108  143.2994  160.3670 C   0  0  0  0  0  0  0  0  0  0  0  0
  143.6622  141.8841  160.5714 C   0  0  0  0  0  0  0  0  0  0  0  0
  145.1555  142.0557  160.3503 C   0  0  0  0  0  0  0  0  0  0  0  0
  145.9716  141.1635  160.5771 O   0  0  0  0  0  0  0  0  0  0  0  0
  152.2793  143.2469  160.9657 C   0  0  0  0  0  0  0  0  0  0  0  0
  154.2924  140.5532  160.5021 H   0  0  0  0  0  0  0  0  0  0  0  0
  153.5416  140.9885  162.0262 H   0  0  0  0  0  0  0  0  0  0  0  0
  155.0247  141.7790  161.5214 H   0  0  0  0  0  0  0  0  0  0  0  0
  154.0453  142.5095  158.3408 H   0  0  0  0  0  0  0  0  0  0  0  0
  151.0341  145.7702  160.8111 H   0  0  0  0  0  0  0  0  0  0  0  0
  150.8861  145.6779  159.0661 H   0  0  0  0  0  0  0  0  0  0  0  0
  149.2519  143.7479  159.3355 H   0  0  0  0  0  0  0  0  0  0  0  0
  149.3488  143.9424  161.0822 H   0  0  0  0  0  0  0  0  0  0  0  0
  148.3586  145.8835  159.1336 H   0  0  0  0  0  0  0  0  0  0  0  0
  147.1739  144.6572  161.5124 H   0  0  0  0  0  0  0  0  0  0  0  0
  146.3682  145.7620  160.4038 H   0  0  0  0  0  0  0  0  0  0  0  0
  146.7660  144.1201  158.5151 H   0  0  0  0  0  0  0  0  0  0  0  0
  147.4920  143.0044  159.6483 H   0  0  0  0  0  0  0  0  0  0  0  0
  144.3603  145.0828  160.1436 H   0  0  0  0  0  0  0  0  0  0  0  0
  144.0574  144.2167  158.6315 H   0  0  0  0  0  0  0  0  0  0  0  0
  142.8640  143.7419  161.3331 H   0  0  0  0  0  0  0  0  0  0  0  0
  142.2028  143.3030  159.7631 H   0  0  0  0  0  0  0  0  0  0  0  0
  143.4465  141.4958  161.5673 H   0  0  0  0  0  0  0  0  0  0  0  0
  143.2639  141.1909  159.8298 H   0  0  0  0  0  0  0  0  0  0  0  0
  151.8484  143.2959  161.9551 H   0  0  0  0  0  0  0  0  0  0  0  0
  1  2  1  0  0  0  0
  1 18  1  0  0  0  0
  1 19  1  0  0  0  0
  1 20  1  0  0  0  0
  2 17  2  0  0  0  0
  2  3  1  0  0  0  0
  3  4  2  0  0  0  0
  3 21  1  0  0  0  0
  4  5  1  0  0  0  0
  5  6  1  0  0  0  0
  5 17  1  0  0  0  0
  6  7  1  0  0  0  0
  6 22  1  0  0  0  0
  6 23  1  0  0  0  0
  7  8  1  0  0  0  0
  7 24  1  0  0  0  0
  7 25  1  0  0  0  0
  8  9  1  0  0  0  0
  8 26  1  0  0  0  0
  9 10  1  0  0  0  0
  9 27  1  0  0  0  0
  9 28  1  0  0  0  0
 10 11  1  0  0  0  0
 10 29  1  0  0  0  0
 10 30  1  0  0  0  0
 11 15  1  0  0  0  0
 11 12  1  0  0  0  0
 12 13  1  0  0  0  0
 12 31  1  0  0  0  0
 12 32  1  0  0  0  0
 13 14  1  0  0  0  0
 13 33  1  0  0  0  0
 13 34  1  0  0  0  0
 14 15  1  0  0  0  0
 14 35  1  0  0  0  0
 14 36  1  0  0  0  0
 15 16  2  0  0  0  0
 17 37  1  0  0  0  0
M  END
> <s_m_source_file>
AV-unprocessed.smi

> <i_m_source_file_index>
3218

> <i_lp_mmshare_version>
43012

> <i_f3d_flags>
0

> <s_epik_input>
W0NIM11jMVtjSF1ubihbY0hdMSlbQ0gyXVtDSDJdW05IXVtDSDJdW0NIMl1OMltDSDJdW0NIMl1bQ0gyXUMyPU8=

> <s_epik_cmdline>
J2VwaWtfcHl0aG9uJywgJy1waCcsICc3LjAnLCAnLXRuJywgJzgnLCAnLW1hJywgJzIwMCcsICctbWV0YWxfYmluZGluZycsICctaW1hZScsICc8aW5maWxlLm1hZT4nLCAnLW9tYWUnLCAnPG91dGZpbGUubWFlPic=

> <r_lp_tautomer_probability>
1

> <r_epik_Ionization_Penalty>
2.53806

> <r_epik_Ionization_Penalty_Charging>
0

> <r_epik_Ionization_Penalty_Neutral>
2.53806

> <r_epik_State_Penalty>
2.70334

> <r_epik_Charging_Adjusted_Penalty>
2.70334

> <i_epik_Tot_Q>
0

> <i_epik_Tot_abs_Q>
0

> <r_epik_Metal_State_Penalty>
2.70114

> <b_epik_Metal_Only>
0

> <s_lp_Force_Field>
OPLS_2005

> <r_lp_Energy>
17.5506

> <b_lp_Chiralities_Consistent>
1

> <s_lp_Variant>
AV-unprocessed.smi:3218-2

> <Gold.Version>
5.8.1

> <Gold.Id.Protein>
6NUR|6NUR_protein|mol2

> <Gold.PLP.Fitness>
48.0118

> <Gold.PLP.PLP>
-43.1987

> <Gold.PLP.part.hbond>
-3.5517

> <Gold.PLP.part.metal>
0.0000

> <Gold.PLP.part.buried>
-7.1317

> <Gold.PLP.part.nonpolar>
-32.0864

> <Gold.PLP.part.repulsive>
0.0071

> <Gold.PLP.ligand.clash>
0.0000

> <Gold.PLP.ligand.torsion>
0.1386

> <Gold.PLP.Chemscore.Hbond>
1.6720

> <Gold.PLP.Chemscore.CHOScore>
0.0000

> <Gold.PLP.Chemscore.Metal>
0.0000

> <Gold.Chemscore.Hbonds>
donor molecule, donor type, donor heavy atom, donor atom, acceptor molecule, acceptor atom, score
      L1  H     8    26       P1  8029  1.00

> <Gold.PLP.Chemscore.Internal.Correction>
0.0742

> <Gold.Rescore>
     Score         DG    S(hbond)    S(metal)    S(lipo)     H(rot)  DE(clash)    DE(int)     intcor
     15.35     -17.15       1.89        0.00      88.31       1.95       1.33       0.47       ----

> <Gold.Chemscore.Fitness>
15.3539

> <Gold.Chemscore.DG>
-17.1464

> <Gold.Chemscore.ZeroCoef>
-5.4800

> <Gold.Chemscore.Hbond>
1.8911

> <Gold.Chemscore.Metal>
0.0000

> <Gold.Chemscore.Lipo>
88.3112

> <Gold.Chemscore.Internal_Hbond>
0.0000

> <Gold.Chemscore.DEClash>
1.3262

> <Gold.Chemscore.DEInternal>
0.4663

> <Gold.Chemscore.Rot>
1.9463

> <Gold.Chemscore.Internal.Correction>
   9.000000E+99

> <Gold.Chemscore.Hbonds>
donor molecule, donor type, donor heavy atom, donor atom, acceptor molecule, acceptor atom, score
      L1  H     8    26       P1  8029  0.99

> <Gold.Chemscore.Hbond.Weighted>
-6.3164

> <Gold.Chemscore.Metal.Weighted>
-0.0000

> <Gold.Chemscore.Lipo.Weighted>
-10.3324

> <Gold.Chemscore.Internal_Hbond.Weighted>
0.0000

> <Gold.Chemscore.DEClash.Weighted>
1.3262

> <Gold.Chemscore.DEInternal.Weighted>
0.4663

> <Gold.Chemscore.Rot.Weighted>
4.9824

> <Gold.Chemscore.Internal.Correction.Weighted>
   9.000000E+99

> <Gold.Protein.RotatedTorsions>
[ 6907 6896 6895 6894 ] final   50.98 input  -60.11 | X-H torsion
[ 7974 7965 7964 7962 ] final -171.00 input  175.53 | X-H torsion
[ 8008 7997 7996 7995 ] final -176.97 input   59.86 | X-H torsion
[ 10167 10162 10161 10158 ] final -128.86 input  -65.29 | X-H torsion
[ 10718 10713 10712 10709 ] final -135.19 input   66.30 | X-H torsion
[ 10763 10752 10751 10750 ] final   76.04 input  -60.55 | X-H torsion
[ 11005 11000 10999 10996 ] final   67.10 input  -57.11 | X-H torsion

> <Gold.Protein.ActiveResidues>
 VAL166  LYS551  ARG553  GLY616  TRP617  ASP618  TYR619  PRO620  LYS621  CYS622 
 ASP623  PHE694  ASN695  SER759  ASP760  ASP761  ALA762  ILE779  LEU786  VAL792 
 PHE793  MET794  SER795  GLU796  ALA797  LYS798  CYS799  TRP800  GLU811  SER814 

> <Gold.Protein.RotatedAtoms>
  152.3077  134.7536  160.0343 H   0  0  0  0  0  0  0  0  0  0  0  0  # atno 6907 bound_to 6896
  151.8027  133.3366  159.3540 H   0  0  0  0  0  0  0  0  0  0  0  0  # atno 6908 bound_to 6896
  150.7304  134.5668  159.5914 H   0  0  0  0  0  0  0  0  0  0  0  0  # atno 6909 bound_to 6896
  144.7162  140.1987  143.6340 H   0  0  0  0  0  0  0  0  0  0  0  0  # atno 7974 bound_to 7965
  156.0013  140.1221  157.0545 H   0  0  0  0  0  0  0  0  0  0  0  0  # atno 8008 bound_to 7997
  154.4243  140.1106  156.5769 H   0  0  0  0  0  0  0  0  0  0  0  0  # atno 8009 bound_to 7997
  155.6209  140.3472  155.4654 H   0  0  0  0  0  0  0  0  0  0  0  0  # atno 8010 bound_to 7997
  139.9458  143.6111  152.2490 H   0  0  0  0  0  0  0  0  0  0  0  0  # atno 10167 bound_to 10162
  156.2635  130.7224  151.1166 H   0  0  0  0  0  0  0  0  0  0  0  0  # atno 10718 bound_to 10713
  153.0697  135.4966  154.8278 H   0  0  0  0  0  0  0  0  0  0  0  0  # atno 10763 bound_to 10752
  154.7005  135.3001  154.9350 H   0  0  0  0  0  0  0  0  0  0  0  0  # atno 10764 bound_to 10752
  154.0076  135.6758  153.4816 H   0  0  0  0  0  0  0  0  0  0  0  0  # atno 10765 bound_to 10752
  139.9791  134.6773  156.0297 H   0  0  0  0  0  0  0  0  0  0  0  0  # atno 11005 bound_to 11000
  145.8700  139.2267  143.1666 LP  0  0  0  0  0  0  0  0  0  0  0  0  # atno 17320 bound_to 7965
  146.0094  140.8449  142.9978 LP  0  0  0  0  0  0  0  0  0  0  0  0  # atno 17321 bound_to 7965
  139.6667  144.7662  151.1859 LP  0  0  0  0  0  0  0  0  0  0  0  0  # atno 17342 bound_to 10162
  140.7597  143.5926  150.8780 LP  0  0  0  0  0  0  0  0  0  0  0  0  # atno 17343 bound_to 10162
  157.7259  131.0650  150.5933 LP  0  0  0  0  0  0  0  0  0  0  0  0  # atno 17370 bound_to 10713
  156.6022  130.4357  149.5892 LP  0  0  0  0  0  0  0  0  0  0  0  0  # atno 17371 bound_to 10713
  141.1465  133.6555  156.3883 LP  0  0  0  0  0  0  0  0  0  0  0  0  # atno 17394 bound_to 11000
  140.5133  134.6374  157.5292 LP  0  0  0  0  0  0  0  0  0  0  0  0  # atno 17395 bound_to 11000

$$$$
