AV-unprocessed.smi:1884|AV-procd|sdf|7648|dock1
  -GOLD-   22720 9373D 1   1.00000     0.00000
 Structure written by MMmdl.
 41 43  0  0  0  0  0  0  0  0  2 V2000
  146.9240  142.3123  153.6564 C   0  0  0  0  0  0  0  0  0  0  0  0
  148.1387  141.7279  154.2957 C   0  0  0  0  0  0  0  0  0  0  0  0
  148.9277  142.3362  155.2253 N   0  3  0  0  0  0  0  0  0  0  0  0
  149.9697  141.4830  155.5913 C   0  0  0  0  0  0  0  0  0  0  0  0
  151.0135  141.6565  156.4949 C   0  0  0  0  0  0  0  0  0  0  0  0
  151.9125  140.5793  156.6379 C   0  0  0  0  0  0  0  0  0  0  0  0
  151.7548  139.3887  155.8993 C   0  0  0  0  0  0  0  0  0  0  0  0
  150.6931  139.2245  154.9852 C   0  0  0  0  0  0  0  0  0  0  0  0
  149.8089  140.2950  154.8482 C   0  0  0  0  0  0  0  0  0  0  0  0
  148.6671  140.4929  154.0615 N   0  0  0  0  0  0  0  0  0  0  0  0
  148.2132  139.4328  153.1473 C   0  0  0  0  0  0  0  0  0  0  0  0
  146.7266  139.0730  153.3403 C   0  0  2  0  0  0  0  0  0  0  0  0
  146.5515  138.3782  154.5584 O   0  0  0  0  0  0  0  0  0  0  0  0
  146.1795  138.2029  152.1996 C   0  0  0  0  0  0  0  0  0  0  0  0
  145.0228  137.5164  152.6598 O   0  0  0  0  0  0  0  0  0  0  0  0
  144.7650  136.2603  152.1547 C   0  0  0  0  0  0  0  0  0  0  0  0
  143.6087  135.6059  152.6270 C   0  0  0  0  0  0  0  0  0  0  0  0
  143.2672  134.3200  152.1654 C   0  0  0  0  0  0  0  0  0  0  0  0
  144.0849  133.6706  151.2198 C   0  0  0  0  0  0  0  0  0  0  0  0
  143.7353  132.3441  150.7399 C   0  0  0  0  0  0  0  0  0  0  0  0
  143.4566  131.2881  150.3578 N   0  0  0  0  0  0  0  0  0  0  0  0
  145.2433  134.3132  150.7408 C   0  0  0  0  0  0  0  0  0  0  0  0
  145.5831  135.5996  151.2036 C   0  0  0  0  0  0  0  0  0  0  0  0
  146.7225  143.3075  154.0536 H   0  0  0  0  0  0  0  0  0  0  0  0
  146.0565  141.6807  153.8475 H   0  0  0  0  0  0  0  0  0  0  0  0
  147.0674  142.3915  152.5787 H   0  0  0  0  0  0  0  0  0  0  0  0
  151.1354  142.5672  157.0630 H   0  0  0  0  0  0  0  0  0  0  0  0
  152.7387  140.6672  157.3287 H   0  0  0  0  0  0  0  0  0  0  0  0
  152.4623  138.5837  156.0371 H   0  0  0  0  0  0  0  0  0  0  0  0
  150.5804  138.3056  154.4293 H   0  0  0  0  0  0  0  0  0  0  0  0
  148.3803  139.7935  152.1318 H   0  0  0  0  0  0  0  0  0  0  0  0
  148.8514  138.5566  153.2622 H   0  0  0  0  0  0  0  0  0  0  0  0
  146.1340  139.9865  153.4002 H   0  0  0  0  0  0  0  0  0  0  0  0
  145.6335  138.1776  154.6579 H   0  0  0  0  0  0  0  0  0  0  0  0
  145.9436  138.8234  151.3332 H   0  0  0  0  0  0  0  0  0  0  0  0
  146.9359  137.4750  151.9001 H   0  0  0  0  0  0  0  0  0  0  0  0
  142.9749  136.0959  153.3517 H   0  0  0  0  0  0  0  0  0  0  0  0
  142.3758  133.8383  152.5413 H   0  0  0  0  0  0  0  0  0  0  0  0
  145.8784  133.8244  150.0159 H   0  0  0  0  0  0  0  0  0  0  0  0
  146.4787  136.0577  150.8126 H   0  0  0  0  0  0  0  0  0  0  0  0
  148.7629  143.2689  155.5818 H   0  0  0  0  0  0  0  0  0  0  0  0
  1  2  1  0  0  0  0
  1 24  1  0  0  0  0
  1 25  1  0  0  0  0
  1 26  1  0  0  0  0
  2 10  1  0  0  0  0
  2  3  2  0  0  0  0
  3  4  1  0  0  0  0
  3 41  1  0  0  0  0
  4  9  2  0  0  0  0
  4  5  1  0  0  0  0
  5  6  2  0  0  0  0
  5 27  1  0  0  0  0
  6  7  1  0  0  0  0
  6 28  1  0  0  0  0
  7  8  2  0  0  0  0
  7 29  1  0  0  0  0
  8  9  1  0  0  0  0
  8 30  1  0  0  0  0
  9 10  1  0  0  0  0
 10 11  1  0  0  0  0
 11 12  1  0  0  0  0
 11 31  1  0  0  0  0
 11 32  1  0  0  0  0
 12 13  1  0  0  0  0
 12 14  1  0  0  0  0
 12 33  1  0  0  0  0
 13 34  1  0  0  0  0
 14 15  1  0  0  0  0
 14 35  1  0  0  0  0
 14 36  1  0  0  0  0
 15 16  1  0  0  0  0
 16 23  1  0  0  0  0
 16 17  2  0  0  0  0
 17 18  1  0  0  0  0
 17 37  1  0  0  0  0
 18 19  2  0  0  0  0
 18 38  1  0  0  0  0
 19 20  1  0  0  0  0
 19 22  1  0  0  0  0
 20 21  3  0  0  0  0
 22 23  2  0  0  0  0
 22 39  1  0  0  0  0
 23 40  1  0  0  0  0
M  CHG  1   3   1
M  END
> <s_m_source_file>
AV-unprocessed.smi

> <i_m_source_file_index>
1884

> <i_lp_mmshare_version>
43012

> <i_f3d_flags>
0

> <s_epik_input>
W2NIXTFbY0hdW2NIXVtjSF1jKGMxMiluKGMobjIpW0NIM10pW0NIMl1bQ0BIXShbT0hdKVtDSDJdT2MzW2NIXVtjSF1jKEMjTilbY0hdW2NIXTM=

> <s_epik_cmdline>
J2VwaWtfcHl0aG9uJywgJy1waCcsICc3LjAnLCAnLXRuJywgJzgnLCAnLW1hJywgJzIwMCcsICctbWV0YWxfYmluZGluZycsICctaW1hZScsICc8aW5maWxlLm1hZT4nLCAnLW9tYWUnLCAnPG91dGZpbGUubWFlPic=

> <r_epik_Ionization_Penalty>
1.04791

> <r_epik_Ionization_Penalty_Charging>
1.04791

> <r_epik_Ionization_Penalty_Neutral>
2.3993e-06

> <r_epik_State_Penalty>
1.10051

> <r_epik_Charging_Adjusted_Penalty>
2.14841

> <i_epik_Tot_Q>
1

> <i_epik_Tot_abs_Q>
1

> <r_epik_Metal_State_Penalty>
5.09283

> <b_epik_Metal_Only>
0

> <s_lp_Force_Field>
OPLS_2005

> <r_lp_Energy>
18.2912

> <b_lp_Chiralities_Consistent>
1

> <s_lp_Variant>
AV-unprocessed.smi:1884-3

> <Gold.Version>
5.8.1

> <Gold.Id.Protein>
6NUR|6NUR_protein|mol2

> <Gold.PLP.Fitness>
52.0096

> <Gold.PLP.PLP>
-44.2771

> <Gold.PLP.part.hbond>
-1.7525

> <Gold.PLP.part.metal>
0.0000

> <Gold.PLP.part.buried>
-0.9923

> <Gold.PLP.part.nonpolar>
-44.3157

> <Gold.PLP.part.repulsive>
1.7886

> <Gold.PLP.ligand.clash>
0.0000

> <Gold.PLP.ligand.torsion>
0.5706

> <Gold.PLP.Chemscore.Hbond>
2.8960

> <Gold.PLP.Chemscore.CHOScore>
0.0000

> <Gold.PLP.Chemscore.Metal>
0.0000

> <Gold.Chemscore.Hbonds>
donor molecule, donor type, donor heavy atom, donor atom, acceptor molecule, acceptor atom, score
      L1  H     3    41       P1  8028  1.59
      P1  H 10785 10796       L1    21  0.85

> <Gold.PLP.Chemscore.Internal.Correction>
0.1858

> <Gold.Rescore>
     Score         DG    S(hbond)    S(metal)    S(lipo)     H(rot)  DE(clash)    DE(int)     intcor
     13.83     -16.32       1.67        0.00      97.23       2.39       1.96       0.53       ----

> <Gold.Chemscore.Fitness>
13.8324

> <Gold.Chemscore.DG>
-16.3210

> <Gold.Chemscore.ZeroCoef>
-5.4800

> <Gold.Chemscore.Hbond>
1.6731

> <Gold.Chemscore.Metal>
0.0000

> <Gold.Chemscore.Lipo>
97.2276

> <Gold.Chemscore.Internal_Hbond>
0.0000

> <Gold.Chemscore.DEClash>
1.9565

> <Gold.Chemscore.DEInternal>
0.5321

> <Gold.Chemscore.Rot>
2.3917

> <Gold.Chemscore.Internal.Correction>
   9.000000E+99

> <Gold.Chemscore.Hbonds>
donor molecule, donor type, donor heavy atom, donor atom, acceptor molecule, acceptor atom, score
      L1  H     3    41       P1  8028  0.78
      P1  H 10785 10796       L1    21  0.83

> <Gold.Chemscore.Hbond.Weighted>
-5.5882

> <Gold.Chemscore.Metal.Weighted>
-0.0000

> <Gold.Chemscore.Lipo.Weighted>
-11.3756

> <Gold.Chemscore.Internal_Hbond.Weighted>
0.0000

> <Gold.Chemscore.DEClash.Weighted>
1.9565

> <Gold.Chemscore.DEInternal.Weighted>
0.5321

> <Gold.Chemscore.Rot.Weighted>
6.1229

> <Gold.Chemscore.Internal.Correction.Weighted>
   9.000000E+99

> <Gold.Protein.RotatedTorsions>
[ 6907 6896 6895 6894 ] final   39.86 input  -60.11 | X-H torsion
[ 7974 7965 7964 7962 ] final  -89.92 input  175.53 | X-H torsion
[ 8008 7997 7996 7995 ] final  -16.35 input   59.86 | X-H torsion
[ 10167 10162 10161 10158 ] final   91.55 input  -65.29 | X-H torsion
[ 10718 10713 10712 10709 ] final -155.76 input   66.30 | X-H torsion
[ 10763 10752 10751 10750 ] final   42.32 input  -60.55 | X-H torsion
[ 11005 11000 10999 10996 ] final  -88.16 input  -57.11 | X-H torsion

> <Gold.Protein.ActiveResidues>
 VAL166  LYS551  ARG553  GLY616  TRP617  ASP618  TYR619  PRO620  LYS621  CYS622 
 ASP623  PHE694  ASN695  SER759  ASP760  ASP761  ALA762  ILE779  LEU786  VAL792 
 PHE793  MET794  SER795  GLU796  ALA797  LYS798  CYS799  TRP800  GLU811  SER814 

> <Gold.Protein.RotatedAtoms>
  152.1751  134.8802  160.0530 H   0  0  0  0  0  0  0  0  0  0  0  0  # atno 6907 bound_to 6896
  151.9747  133.3732  159.4093 H   0  0  0  0  0  0  0  0  0  0  0  0  # atno 6908 bound_to 6896
  150.6908  134.4025  159.5169 H   0  0  0  0  0  0  0  0  0  0  0  0  # atno 6909 bound_to 6896
  145.4333  140.9556  143.2115 H   0  0  0  0  0  0  0  0  0  0  0  0  # atno 7974 bound_to 7965
  154.5060  140.2172  155.9251 H   0  0  0  0  0  0  0  0  0  0  0  0  # atno 8008 bound_to 7997
  156.1494  140.3164  155.8589 H   0  0  0  0  0  0  0  0  0  0  0  0  # atno 8009 bound_to 7997
  155.3969  140.0482  157.3029 H   0  0  0  0  0  0  0  0  0  0  0  0  # atno 8010 bound_to 7997
  139.8364  144.6662  150.9337 H   0  0  0  0  0  0  0  0  0  0  0  0  # atno 10167 bound_to 10162
  156.5172  130.8461  151.2668 H   0  0  0  0  0  0  0  0  0  0  0  0  # atno 10718 bound_to 10713
  152.9886  135.6135  154.2930 H   0  0  0  0  0  0  0  0  0  0  0  0  # atno 10763 bound_to 10752
  154.2654  135.2781  155.2762 H   0  0  0  0  0  0  0  0  0  0  0  0  # atno 10764 bound_to 10752
  154.5169  135.5825  153.6706 H   0  0  0  0  0  0  0  0  0  0  0  0  # atno 10765 bound_to 10752
  141.1606  133.7553  156.9410 H   0  0  0  0  0  0  0  0  0  0  0  0  # atno 11005 bound_to 11000
  144.8168  139.5862  143.7005 LP  0  0  0  0  0  0  0  0  0  0  0  0  # atno 17320 bound_to 7965
  146.2595  139.6378  142.9372 LP  0  0  0  0  0  0  0  0  0  0  0  0  # atno 17321 bound_to 7965
  140.7802  143.3953  151.1240 LP  0  0  0  0  0  0  0  0  0  0  0  0  # atno 17342 bound_to 10162
  139.7603  143.8645  152.3098 LP  0  0  0  0  0  0  0  0  0  0  0  0  # atno 17343 bound_to 10162
  157.7442  130.9929  150.2655 LP  0  0  0  0  0  0  0  0  0  0  0  0  # atno 17370 bound_to 10713
  156.3184  130.3782  149.7598 LP  0  0  0  0  0  0  0  0  0  0  0  0  # atno 17371 bound_to 10713
  140.1321  134.9349  157.2352 LP  0  0  0  0  0  0  0  0  0  0  0  0  # atno 17394 bound_to 11000
  140.2940  134.3208  155.7307 LP  0  0  0  0  0  0  0  0  0  0  0  0  # atno 17395 bound_to 11000

$$$$
