AV-unprocessed.smi:1206|AV-procd|sdf|5048|dock8
  -GOLD-   22720 4 73D 1   1.00000     0.00000
 Structure written by MMmdl.
 40 41  0  0  0  0  0  0  0  0  3 V2000
  147.5023  136.7389  154.9065 C   0  0  0  0  0  0  0  0  0  0  0  0
  148.9351  136.3531  154.8206 N   0  3  0  0  0  0  0  0  0  0  0  0
  149.1194  134.9593  155.2980 C   0  0  0  0  0  0  0  0  0  0  0  0
  149.9150  137.3851  155.3305 C   0  0  0  0  0  0  0  0  0  0  0  0
  149.3690  137.9360  156.6868 C   0  0  0  0  0  0  0  0  0  0  0  0
  149.0910  136.8767  157.6576 N   0  0  0  0  0  0  0  0  0  0  0  0
  149.2754  136.9370  158.9841 C   0  0  0  0  0  0  0  0  0  0  0  0
  149.6740  137.9804  159.5055 O   0  0  0  0  0  0  0  0  0  0  0  0
  149.0061  135.7771  159.6215 N   0  5  0  0  0  0  0  0  0  0  0  0
  148.2223  135.7794  160.7125 C   0  0  0  0  0  0  0  0  0  0  0  0
  147.7802  136.9156  161.2749 N   0  0  0  0  0  0  0  0  0  0  0  0
  146.9836  136.6980  162.3910 N   0  0  0  0  0  0  0  0  0  0  0  0
  146.8534  135.3968  162.6488 C   0  0  0  0  0  0  0  0  0  0  0  0
  147.6914  134.3195  161.5518 S   0  0  0  0  0  0  0  0  0  0  0  0
  151.3271  136.7576  155.5354 C   0  0  0  0  0  0  0  0  0  0  0  0
  152.4167  137.7777  155.9197 C   0  0  0  0  0  0  0  0  0  0  0  0
  152.5038  138.9288  154.9093 C   0  0  0  0  0  0  0  0  0  0  0  0
  151.1396  139.6040  154.7175 C   0  0  0  0  0  0  0  0  0  0  0  0
  150.0689  138.5715  154.3199 C   0  0  0  0  0  0  0  0  0  0  0  0
  147.1323  136.6655  155.9297 H   0  0  0  0  0  0  0  0  0  0  0  0
  146.8986  136.0728  154.2895 H   0  0  0  0  0  0  0  0  0  0  0  0
  147.3180  137.7507  154.5502 H   0  0  0  0  0  0  0  0  0  0  0  0
  149.0906  134.9046  156.3866 H   0  0  0  0  0  0  0  0  0  0  0  0
  150.0582  134.5333  154.9442 H   0  0  0  0  0  0  0  0  0  0  0  0
  148.3313  134.3127  154.9109 H   0  0  0  0  0  0  0  0  0  0  0  0
  150.0466  138.6751  157.1143 H   0  0  0  0  0  0  0  0  0  0  0  0
  148.4387  138.4825  156.5497 H   0  0  0  0  0  0  0  0  0  0  0  0
  148.7507  136.0020  157.2849 H   0  0  0  0  0  0  0  0  0  0  0  0
  146.2631  135.0694  163.4915 H   0  0  0  0  0  0  0  0  0  0  0  0
  151.3017  135.9902  156.3092 H   0  0  0  0  0  0  0  0  0  0  0  0
  151.6377  136.2538  154.6193 H   0  0  0  0  0  0  0  0  0  0  0  0
  152.2254  138.1760  156.9162 H   0  0  0  0  0  0  0  0  0  0  0  0
  153.3816  137.2734  155.9813 H   0  0  0  0  0  0  0  0  0  0  0  0
  153.2403  139.6616  155.2399 H   0  0  0  0  0  0  0  0  0  0  0  0
  152.8582  138.5445  153.9521 H   0  0  0  0  0  0  0  0  0  0  0  0
  150.8509  140.1379  155.6223 H   0  0  0  0  0  0  0  0  0  0  0  0
  151.2183  140.3640  153.9397 H   0  0  0  0  0  0  0  0  0  0  0  0
  150.3768  138.2027  153.3418 H   0  0  0  0  0  0  0  0  0  0  0  0
  149.1146  139.0753  154.1637 H   0  0  0  0  0  0  0  0  0  0  0  0
  149.1288  136.3046  153.8294 H   0  0  0  0  0  0  0  0  0  0  0  0
  1  2  1  0  0  0  0
  1 20  1  0  0  0  0
  1 21  1  0  0  0  0
  1 22  1  0  0  0  0
  2  3  1  0  0  0  0
  2  4  1  0  0  0  0
  2 40  1  0  0  0  0
  3 23  1  0  0  0  0
  3 24  1  0  0  0  0
  3 25  1  0  0  0  0
  4 19  1  0  0  0  0
  4  5  1  0  0  0  0
  4 15  1  0  0  0  0
  5  6  1  0  0  0  0
  5 26  1  0  0  0  0
  5 27  1  0  0  0  0
  6  7  1  0  0  0  0
  6 28  1  0  0  0  0
  7  8  2  0  0  0  0
  7  9  1  0  0  0  0
  9 10  1  0  0  0  0
 10 14  1  0  0  0  0
 10 11  2  0  0  0  0
 11 12  1  0  0  0  0
 12 13  2  0  0  0  0
 13 14  1  0  0  0  0
 13 29  1  0  0  0  0
 15 16  1  0  0  0  0
 15 30  1  0  0  0  0
 15 31  1  0  0  0  0
 16 17  1  0  0  0  0
 16 32  1  0  0  0  0
 16 33  1  0  0  0  0
 17 18  1  0  0  0  0
 17 34  1  0  0  0  0
 17 35  1  0  0  0  0
 18 19  1  0  0  0  0
 18 36  1  0  0  0  0
 18 37  1  0  0  0  0
 19 38  1  0  0  0  0
 19 39  1  0  0  0  0
M  CHG  1   2   1
M  CHG  1   9  -1
M  END
> <s_m_source_file>
AV-unprocessed.smi

> <i_m_source_file_index>
1206

> <i_lp_mmshare_version>
43012

> <i_f3d_flags>
0

> <s_epik_input>
W0NIMl0xW0NIMl1bQ0gyXVtDSDJdW0NIMl1DMShOKFtDSDNdKVtDSDNdKVtDSDJdW05IXUMoPU8pW05IXWMybm5bY0hdczI=

> <s_epik_cmdline>
J2VwaWtfcHl0aG9uJywgJy1waCcsICc3LjAnLCAnLXRuJywgJzgnLCAnLW1hJywgJzIwMCcsICctbWV0YWxfYmluZGluZycsICctaW1hZScsICc8aW5maWxlLm1hZT4nLCAnLW9tYWUnLCAnPG91dGZpbGUubWFlPic=

> <r_lp_tautomer_probability>
1

> <r_epik_Ionization_Penalty>
3.99546

> <r_epik_Ionization_Penalty_Charging>
3.96229

> <r_epik_Ionization_Penalty_Neutral>
0.0331711

> <r_epik_State_Penalty>
3.95985

> <r_epik_Charging_Adjusted_Penalty>
7.92214

> <i_epik_Tot_Q>
0

> <i_epik_Tot_abs_Q>
2

> <r_epik_Metal_State_Penalty>
0.609364

> <b_epik_Metal_Only>
1

> <s_lp_Force_Field>
OPLS_2005

> <r_lp_Energy>
23.6676

> <b_lp_Chiralities_Consistent>
1

> <s_lp_Variant>
AV-unprocessed.smi:1206-2

> <Gold.Version>
5.8.1

> <Gold.Id.Protein>
6NUR|6NUR_protein|mol2

> <Gold.PLP.Fitness>
42.5389

> <Gold.PLP.PLP>
-28.7206

> <Gold.PLP.part.hbond>
-5.0213

> <Gold.PLP.part.metal>
0.0000

> <Gold.PLP.part.buried>
-1.2137

> <Gold.PLP.part.nonpolar>
-23.4552

> <Gold.PLP.part.repulsive>
0.0403

> <Gold.PLP.ligand.clash>
0.0000

> <Gold.PLP.ligand.torsion>
1.2570

> <Gold.PLP.Chemscore.Hbond>
5.3925

> <Gold.PLP.Chemscore.CHOScore>
0.0000

> <Gold.PLP.Chemscore.Metal>
0.0000

> <Gold.Chemscore.Hbonds>
donor molecule, donor type, donor heavy atom, donor atom, acceptor molecule, acceptor atom, score
      L1  H     2    40       P1  7948  2.00
      P1  H  6896  6908       L1     9  1.98
      P1  H  6931  6943       L1    11  1.00
      P1  H  6934  6947       L1    11  0.40

> <Gold.PLP.Chemscore.Internal.Correction>
0.1550

> <Gold.Rescore>
     Score         DG    S(hbond)    S(metal)    S(lipo)     H(rot)  DE(clash)    DE(int)     intcor
     12.89     -16.89       2.48        0.00      62.58       1.64       1.14       2.86       ----

> <Gold.Chemscore.Fitness>
12.8889

> <Gold.Chemscore.DG>
-16.8938

> <Gold.Chemscore.ZeroCoef>
-5.4800

> <Gold.Chemscore.Hbond>
2.4800

> <Gold.Chemscore.Metal>
0.0000

> <Gold.Chemscore.Lipo>
62.5775

> <Gold.Chemscore.Internal_Hbond>
0.0000

> <Gold.Chemscore.DEClash>
1.1424

> <Gold.Chemscore.DEInternal>
2.8625

> <Gold.Chemscore.Rot>
1.6371

> <Gold.Chemscore.Internal.Correction>
   9.000000E+99

> <Gold.Chemscore.Hbonds>
donor molecule, donor type, donor heavy atom, donor atom, acceptor molecule, acceptor atom, score
      L1  H     2    40       P1  7948  0.95
      P1  H  6896  6908       L1     9  0.58
      P1  H  6931  6943       L1    11  0.38
      P1  H  6934  6947       L1    11  0.07

> <Gold.Chemscore.Hbond.Weighted>
-8.2831

> <Gold.Chemscore.Metal.Weighted>
-0.0000

> <Gold.Chemscore.Lipo.Weighted>
-7.3216

> <Gold.Chemscore.Internal_Hbond.Weighted>
0.0000

> <Gold.Chemscore.DEClash.Weighted>
1.1424

> <Gold.Chemscore.DEInternal.Weighted>
2.8625

> <Gold.Chemscore.Rot.Weighted>
4.1909

> <Gold.Chemscore.Internal.Correction.Weighted>
   9.000000E+99

> <Gold.Protein.RotatedTorsions>
[ 6907 6896 6895 6894 ] final  172.66 input  -60.11 | X-H torsion
[ 7974 7965 7964 7962 ] final  114.15 input  175.53 | X-H torsion
[ 8008 7997 7996 7995 ] final -130.69 input   59.86 | X-H torsion
[ 10167 10162 10161 10158 ] final   18.93 input  -65.29 | X-H torsion
[ 10718 10713 10712 10709 ] final  133.84 input   66.30 | X-H torsion
[ 10763 10752 10751 10750 ] final  -66.06 input  -60.55 | X-H torsion
[ 11005 11000 10999 10996 ] final  -40.77 input  -57.11 | X-H torsion

> <Gold.Protein.ActiveResidues>
 VAL166  LYS551  ARG553  GLY616  TRP617  ASP618  TYR619  PRO620  LYS621  CYS622 
 ASP623  PHE694  ASN695  SER759  ASP760  ASP761  ALA762  ILE779  LEU786  VAL792 
 PHE793  MET794  SER795  GLU796  ALA797  LYS798  CYS799  TRP800  GLU811  SER814 

> <Gold.Protein.RotatedAtoms>
  151.7807  133.3349  159.3470 H   0  0  0  0  0  0  0  0  0  0  0  0  # atno 6907 bound_to 6896
  150.7427  134.5933  159.6008 H   0  0  0  0  0  0  0  0  0  0  0  0  # atno 6908 bound_to 6896
  152.3278  134.7300  160.0349 H   0  0  0  0  0  0  0  0  0  0  0  0  # atno 6909 bound_to 6896
  145.2080  139.2920  143.4283 H   0  0  0  0  0  0  0  0  0  0  0  0  # atno 7974 bound_to 7965
  155.2999  140.0452  157.3029 H   0  0  0  0  0  0  0  0  0  0  0  0  # atno 8008 bound_to 7997
  154.5493  140.2312  155.8479 H   0  0  0  0  0  0  0  0  0  0  0  0  # atno 8009 bound_to 7997
  156.1952  140.3040  155.9420 H   0  0  0  0  0  0  0  0  0  0  0  0  # atno 8010 bound_to 7997
  140.5617  143.9326  150.6647 H   0  0  0  0  0  0  0  0  0  0  0  0  # atno 10167 bound_to 10162
  157.4733  131.1081  150.9775 H   0  0  0  0  0  0  0  0  0  0  0  0  # atno 10718 bound_to 10713
  154.3542  135.6130  153.5658 H   0  0  0  0  0  0  0  0  0  0  0  0  # atno 10763 bound_to 10752
  152.9796  135.5799  154.4708 H   0  0  0  0  0  0  0  0  0  0  0  0  # atno 10764 bound_to 10752
  154.4434  135.2851  155.1809 H   0  0  0  0  0  0  0  0  0  0  0  0  # atno 10765 bound_to 10752
  141.0198  133.6868  156.2366 H   0  0  0  0  0  0  0  0  0  0  0  0  # atno 11005 bound_to 11000
  146.3403  140.2347  142.8594 LP  0  0  0  0  0  0  0  0  0  0  0  0  # atno 17320 bound_to 7965
  144.9883  140.8523  143.5355 LP  0  0  0  0  0  0  0  0  0  0  0  0  # atno 17321 bound_to 7965
  140.2778  143.3411  152.1179 LP  0  0  0  0  0  0  0  0  0  0  0  0  # atno 17342 bound_to 10162
  139.5073  144.6830  151.5961 LP  0  0  0  0  0  0  0  0  0  0  0  0  # atno 17343 bound_to 10162
  157.0533  130.5796  149.5374 LP  0  0  0  0  0  0  0  0  0  0  0  0  # atno 17370 bound_to 10713
  156.0084  130.5173  150.7907 LP  0  0  0  0  0  0  0  0  0  0  0  0  # atno 17371 bound_to 10713
  140.6592  134.4985  157.5582 LP  0  0  0  0  0  0  0  0  0  0  0  0  # atno 17394 bound_to 11000
  139.9139  134.8287  156.1433 LP  0  0  0  0  0  0  0  0  0  0  0  0  # atno 17395 bound_to 11000

$$$$
