AV-unprocessed.smi:1645|AV-procd|sdf|6611|dock8
  -GOLD-   22720 7313D 1   1.00000     0.00000
 Structure written by MMmdl.
 56 59  0  0  0  0  0  0  0  0  3 V2000
  146.3619  136.7969  155.4221 O   0  0  0  0  0  0  0  0  0  0  0  0
  147.0849  136.5348  154.4613 C   0  0  0  0  0  0  0  0  0  0  0  0
  148.2850  137.0890  154.2195 N   0  0  0  0  0  0  0  0  0  0  0  0
  148.9607  138.0784  154.9823 C   0  0  0  0  0  0  0  0  0  0  0  0
  150.1480  138.7259  154.5580 C   0  0  0  0  0  0  0  0  0  0  0  0
  150.7520  139.6854  155.3959 C   0  0  0  0  0  0  0  0  0  0  0  0
  150.1678  139.9796  156.6489 C   0  0  0  0  0  0  0  0  0  0  0  0
  150.6962  140.9191  157.5434 N   0  0  0  0  0  0  0  0  0  0  0  0
  151.8841  140.4347  158.2424 C   0  0  0  0  0  0  0  0  0  0  0  0
  152.3139  141.4230  159.3404 C   0  0  0  0  0  0  0  0  0  0  0  0
  152.5092  142.8340  158.7626 C   0  0  0  0  0  0  0  0  0  0  0  0
  151.2439  143.2814  158.0131 C   0  0  0  0  0  0  0  0  0  0  0  0
  150.8401  142.2458  156.9495 C   0  0  0  0  0  0  0  0  0  0  0  0
  149.0441  139.3291  157.0219 N   0  3  0  0  0  0  0  0  0  0  0  0
  148.4357  138.4023  156.2509 C   0  0  0  0  0  0  0  0  0  0  0  0
  146.7703  135.6226  153.5309 N   0  0  0  0  0  0  0  0  0  0  0  0
  145.5396  134.8352  153.5263 C   0  0  1  0  0  0  0  0  0  0  0  0
  144.3130  135.6238  153.0486 C   0  0  0  0  0  0  0  0  0  0  0  0
  143.4076  134.5806  152.3688 C   0  0  0  0  0  0  0  0  0  0  0  0
  144.1357  133.2936  152.4390 N   0  3  1  0  0  0  0  0  0  0  0  0
  143.8007  132.2857  151.4006 C   0  0  0  0  0  0  0  0  0  0  0  0
  144.4737  132.5796  150.0494 C   0  0  0  0  0  0  0  0  0  0  0  0
  145.9860  132.7498  150.2251 C   0  0  0  0  0  0  0  0  0  0  0  0
  146.2639  133.8731  151.2292 C   0  0  0  0  0  0  0  0  0  0  0  0
  145.5725  133.6126  152.5928 C   0  0  1  0  0  0  0  0  0  0  0  0
  148.8046  136.7088  153.4416 H   0  0  0  0  0  0  0  0  0  0  0  0
  150.6145  138.4963  153.6123 H   0  0  0  0  0  0  0  0  0  0  0  0
  151.6558  140.1844  155.0774 H   0  0  0  0  0  0  0  0  0  0  0  0
  151.6793  139.4579  158.6829 H   0  0  0  0  0  0  0  0  0  0  0  0
  152.6985  140.2997  157.5293 H   0  0  0  0  0  0  0  0  0  0  0  0
  151.5553  141.4509  160.1239 H   0  0  0  0  0  0  0  0  0  0  0  0
  153.2348  141.0796  159.8125 H   0  0  0  0  0  0  0  0  0  0  0  0
  152.7451  143.5393  159.5600 H   0  0  0  0  0  0  0  0  0  0  0  0
  153.3602  142.8368  158.0802 H   0  0  0  0  0  0  0  0  0  0  0  0
  150.4262  143.4134  158.7233 H   0  0  0  0  0  0  0  0  0  0  0  0
  151.4080  144.2525  157.5454 H   0  0  0  0  0  0  0  0  0  0  0  0
  151.5943  142.2132  156.1620 H   0  0  0  0  0  0  0  0  0  0  0  0
  149.9010  142.5434  156.4808 H   0  0  0  0  0  0  0  0  0  0  0  0
  147.5448  137.9569  156.6695 H   0  0  0  0  0  0  0  0  0  0  0  0
  147.4216  135.4606  152.7766 H   0  0  0  0  0  0  0  0  0  0  0  0
  145.3371  134.4904  154.5427 H   0  0  0  0  0  0  0  0  0  0  0  0
  143.8117  136.1274  153.8757 H   0  0  0  0  0  0  0  0  0  0  0  0
  144.5984  136.3881  152.3241 H   0  0  0  0  0  0  0  0  0  0  0  0
  142.4424  134.4901  152.8677 H   0  0  0  0  0  0  0  0  0  0  0  0
  143.2210  134.8688  151.3336 H   0  0  0  0  0  0  0  0  0  0  0  0
  144.1340  131.3115  151.7608 H   0  0  0  0  0  0  0  0  0  0  0  0
  142.7181  132.2186  151.2870 H   0  0  0  0  0  0  0  0  0  0  0  0
  144.2695  131.7678  149.3508 H   0  0  0  0  0  0  0  0  0  0  0  0
  144.0493  133.4802  149.6045 H   0  0  0  0  0  0  0  0  0  0  0  0
  146.4293  131.8170  150.5761 H   0  0  0  0  0  0  0  0  0  0  0  0
  146.4526  132.9785  149.2663 H   0  0  0  0  0  0  0  0  0  0  0  0
  147.3407  133.9762  151.3671 H   0  0  0  0  0  0  0  0  0  0  0  0
  145.9193  134.8172  150.8052 H   0  0  0  0  0  0  0  0  0  0  0  0
  146.0679  132.7731  153.0826 H   0  0  0  0  0  0  0  0  0  0  0  0
  143.8569  132.8895  153.3218 H   0  0  0  0  0  0  0  0  0  0  0  0
  148.6357  139.5487  157.9309 H   0  0  0  0  0  0  0  0  0  0  0  0
  1  2  2  0  0  0  0
  2  3  1  0  0  0  0
  2 16  1  0  0  0  0
  3  4  1  0  0  0  0
  3 26  1  0  0  0  0
  4 15  1  0  0  0  0
  4  5  2  0  0  0  0
  5  6  1  0  0  0  0
  5 27  1  0  0  0  0
  6  7  2  0  0  0  0
  6 28  1  0  0  0  0
  7  8  1  0  0  0  0
  7 14  1  0  0  0  0
  8 13  1  0  0  0  0
  8  9  1  0  0  0  0
  9 10  1  0  0  0  0
  9 29  1  0  0  0  0
  9 30  1  0  0  0  0
 10 11  1  0  0  0  0
 10 31  1  0  0  0  0
 10 32  1  0  0  0  0
 11 12  1  0  0  0  0
 11 33  1  0  0  0  0
 11 34  1  0  0  0  0
 12 13  1  0  0  0  0
 12 35  1  0  0  0  0
 12 36  1  0  0  0  0
 13 37  1  0  0  0  0
 13 38  1  0  0  0  0
 14 15  2  0  0  0  0
 14 56  1  0  0  0  0
 15 39  1  0  0  0  0
 16 17  1  0  0  0  0
 16 40  1  0  0  0  0
 17 25  1  0  0  0  0
 17 18  1  0  0  0  0
 17 41  1  0  0  0  0
 18 19  1  0  0  0  0
 18 42  1  0  0  0  0
 18 43  1  0  0  0  0
 19 20  1  0  0  0  0
 19 44  1  0  0  0  0
 19 45  1  0  0  0  0
 20 25  1  0  0  0  0
 20 21  1  0  0  0  0
 20 55  1  0  0  0  0
 21 22  1  0  0  0  0
 21 46  1  0  0  0  0
 21 47  1  0  0  0  0
 22 23  1  0  0  0  0
 22 48  1  0  0  0  0
 22 49  1  0  0  0  0
 23 24  1  0  0  0  0
 23 50  1  0  0  0  0
 23 51  1  0  0  0  0
 24 25  1  0  0  0  0
 24 52  1  0  0  0  0
 24 53  1  0  0  0  0
 25 54  1  0  0  0  0
M  CHG  1  14   1
M  CHG  1  20   1
M  END
> <s_m_source_file>
AV-unprocessed.smi

> <i_m_source_file_index>
1645

> <i_lp_mmshare_version>
43012

> <i_f3d_flags>
0

> <s_epik_input>
W0NIMl0xW0NIMl1bQ0gyXVtDSDJdW0NASF0oTjEyKVtDQEBIXShbQ0gyXVtDSDJdMilbTkhdQyg9TylbTkhdYzNbY0hdW2NIXWMobltjSF0zKU40W0NIMl1bQ0gyXVtDSDJdW0NIMl1bQ0gyXTQ=

> <s_epik_cmdline>
J2VwaWtfcHl0aG9uJywgJy1waCcsICc3LjAnLCAnLXRuJywgJzgnLCAnLW1hJywgJzIwMCcsICctbWV0YWxfYmluZGluZycsICctaW1hZScsICc8aW5maWxlLm1hZT4nLCAnLW9tYWUnLCAnPG91dGZpbGUubWFlPic=

> <r_lp_tautomer_probability>
0.999994

> <r_epik_Ionization_Penalty>
1.26838

> <r_epik_Ionization_Penalty_Charging>
1.26836

> <r_epik_Ionization_Penalty_Neutral>
1.95562e-05

> <r_epik_State_Penalty>
1.33841

> <r_epik_Charging_Adjusted_Penalty>
2.60677

> <i_epik_Tot_Q>
2

> <i_epik_Tot_abs_Q>
2

> <r_epik_Metal_State_Penalty>
1.40601

> <b_epik_Metal_Only>
0

> <s_lp_Force_Field>
OPLS_2005

> <r_lp_Energy>
62.3043

> <b_lp_Chiralities_Consistent>
1

> <s_lp_Variant>
AV-unprocessed.smi:1645-12

> <Gold.Version>
5.8.1

> <Gold.Id.Protein>
6NUR|6NUR_protein|mol2

> <Gold.PLP.Fitness>
46.6302

> <Gold.PLP.PLP>
-38.0173

> <Gold.PLP.part.hbond>
-2.6044

> <Gold.PLP.part.metal>
0.0000

> <Gold.PLP.part.buried>
-6.5863

> <Gold.PLP.part.nonpolar>
-30.7422

> <Gold.PLP.part.repulsive>
0.0793

> <Gold.PLP.ligand.clash>
0.0000

> <Gold.PLP.ligand.torsion>
0.4371

> <Gold.PLP.Chemscore.Hbond>
3.1150

> <Gold.PLP.Chemscore.CHOScore>
0.0000

> <Gold.PLP.Chemscore.Metal>
0.0000

> <Gold.Chemscore.Hbonds>
donor molecule, donor type, donor heavy atom, donor atom, acceptor molecule, acceptor atom, score
      L1  H     3    26       P1  7948  1.00
      L1  H    16    40       P1  7948  0.88
      L1  H    20    55       P1 10957  1.24

> <Gold.PLP.Chemscore.Internal.Correction>
0.1422

> <Gold.Rescore>
     Score         DG    S(hbond)    S(metal)    S(lipo)     H(rot)  DE(clash)    DE(int)     intcor
     22.02     -23.89       2.60        0.00     109.04       1.18       0.03       1.85       ----

> <Gold.Chemscore.Fitness>
22.0153

> <Gold.Chemscore.DG>
-23.8913

> <Gold.Chemscore.ZeroCoef>
-5.4800

> <Gold.Chemscore.Hbond>
2.5998

> <Gold.Chemscore.Metal>
0.0000

> <Gold.Chemscore.Lipo>
109.0369

> <Gold.Chemscore.Internal_Hbond>
0.0000

> <Gold.Chemscore.DEClash>
0.0256

> <Gold.Chemscore.DEInternal>
1.8505

> <Gold.Chemscore.Rot>
1.1833

> <Gold.Chemscore.Internal.Correction>
   9.000000E+99

> <Gold.Chemscore.Hbonds>
donor molecule, donor type, donor heavy atom, donor atom, acceptor molecule, acceptor atom, score
      L1  H     3    26       P1  7948  0.97
      L1  H    16    40       P1  7948  0.86
      L1  H    20    55       P1 10957  0.36

> <Gold.Chemscore.Hbond.Weighted>
-8.6833

> <Gold.Chemscore.Metal.Weighted>
-0.0000

> <Gold.Chemscore.Lipo.Weighted>
-12.7573

> <Gold.Chemscore.Internal_Hbond.Weighted>
0.0000

> <Gold.Chemscore.DEClash.Weighted>
0.0256

> <Gold.Chemscore.DEInternal.Weighted>
1.8505

> <Gold.Chemscore.Rot.Weighted>
3.0293

> <Gold.Chemscore.Internal.Correction.Weighted>
   9.000000E+99

> <Gold.Protein.RotatedTorsions>
[ 6907 6896 6895 6894 ] final  -52.58 input  -60.11 | X-H torsion
[ 7974 7965 7964 7962 ] final   -4.57 input  175.53 | X-H torsion
[ 8008 7997 7996 7995 ] final   18.85 input   59.86 | X-H torsion
[ 10167 10162 10161 10158 ] final  -40.79 input  -65.29 | X-H torsion
[ 10718 10713 10712 10709 ] final   23.90 input   66.30 | X-H torsion
[ 10763 10752 10751 10750 ] final  146.29 input  -60.55 | X-H torsion
[ 11005 11000 10999 10996 ] final  144.09 input  -57.11 | X-H torsion

> <Gold.Protein.ActiveResidues>
 VAL166  LYS551  ARG553  GLY616  TRP617  ASP618  TYR619  PRO620  LYS621  CYS622 
 ASP623  PHE694  ASN695  SER759  ASP760  ASP761  ALA762  ILE779  LEU786  VAL792 
 PHE793  MET794  SER795  GLU796  ALA797  LYS798  CYS799  TRP800  GLU811  SER814 

> <Gold.Protein.RotatedAtoms>
  150.8505  134.7828  159.7004 H   0  0  0  0  0  0  0  0  0  0  0  0  # atno 6907 bound_to 6896
  152.4571  134.5265  159.9808 H   0  0  0  0  0  0  0  0  0  0  0  0  # atno 6908 bound_to 6896
  151.5387  133.3398  159.2967 H   0  0  0  0  0  0  0  0  0  0  0  0  # atno 6909 bound_to 6896
  146.2370  140.1890  142.8332 H   0  0  0  0  0  0  0  0  0  0  0  0  # atno 7974 bound_to 7965
  154.9121  140.3015  155.5260 H   0  0  0  0  0  0  0  0  0  0  0  0  # atno 8008 bound_to 7997
  156.3014  140.2387  156.4097 H   0  0  0  0  0  0  0  0  0  0  0  0  # atno 8009 bound_to 7997
  154.8415  140.0413  157.1533 H   0  0  0  0  0  0  0  0  0  0  0  0  # atno 8010 bound_to 7997
  140.7023  143.3132  151.2975 H   0  0  0  0  0  0  0  0  0  0  0  0  # atno 10167 bound_to 10162
  157.1724  130.6765  149.6082 H   0  0  0  0  0  0  0  0  0  0  0  0  # atno 10718 bound_to 10713
  154.0194  135.2907  155.3383 H   0  0  0  0  0  0  0  0  0  0  0  0  # atno 10763 bound_to 10752
  154.7055  135.5171  153.8592 H   0  0  0  0  0  0  0  0  0  0  0  0  # atno 10764 bound_to 10752
  153.0688  135.6640  154.0417 H   0  0  0  0  0  0  0  0  0  0  0  0  # atno 10765 bound_to 10752
  140.0605  134.9207  157.1175 H   0  0  0  0  0  0  0  0  0  0  0  0  # atno 11005 bound_to 11000
  144.9873  140.8514  143.5361 LP  0  0  0  0  0  0  0  0  0  0  0  0  # atno 17320 bound_to 7965
  145.1891  139.2310  143.5252 LP  0  0  0  0  0  0  0  0  0  0  0  0  # atno 17321 bound_to 7965
  139.6562  144.0272  152.2661 LP  0  0  0  0  0  0  0  0  0  0  0  0  # atno 17342 bound_to 10162
  139.9824  144.6419  150.7888 LP  0  0  0  0  0  0  0  0  0  0  0  0  # atno 17343 bound_to 10162
  155.9736  130.4674  150.6325 LP  0  0  0  0  0  0  0  0  0  0  0  0  # atno 17370 bound_to 10713
  157.4031  131.0813  151.1290 LP  0  0  0  0  0  0  0  0  0  0  0  0  # atno 17371 bound_to 10713
  140.3778  134.2320  155.7173 LP  0  0  0  0  0  0  0  0  0  0  0  0  # atno 17394 bound_to 11000
  141.1971  133.8067  157.0643 LP  0  0  0  0  0  0  0  0  0  0  0  0  # atno 17395 bound_to 11000

$$$$
