AV-unprocessed.smi:2784|AV-procd|sdf|10743|dock1
  -GOLD-   2272015183D 1   1.00000     0.00000
 Structure written by MMmdl.
 30 31  0  0  0  0  0  0  0  0  2 V2000
  152.1783  143.4929  161.3893 C   0  0  0  0  0  0  0  0  0  0  0  0
  151.7745  142.7613  160.2436 O   0  0  0  0  0  0  0  0  0  0  0  0
  152.8432  142.4538  159.3528 C   0  0  1  0  0  0  0  0  0  0  0  0
  153.9308  141.7040  160.1295 C   0  0  0  0  0  0  0  0  0  0  0  0
  153.4304  140.2629  160.1719 C   0  0  0  0  0  0  0  0  0  0  0  0
  152.7552  140.0435  158.8153 C   0  0  0  0  0  0  0  0  0  0  0  0
  152.3726  141.4395  158.2849 C   0  0  1  0  0  0  0  0  0  0  0  0
  150.9411  141.5254  157.9994 N   0  0  0  0  0  0  0  0  0  0  0  0
  150.3738  141.3750  156.7939 C   0  0  0  0  0  0  0  0  0  0  0  0
  151.0779  141.1399  155.8090 O   0  0  0  0  0  0  0  0  0  0  0  0
  149.0285  141.5110  156.8039 N   0  5  0  0  0  0  0  0  0  0  0  0
  148.3376  141.4053  155.6574 C   0  0  0  0  0  0  0  0  0  0  0  0
  147.0095  141.3722  155.5345 N   0  0  0  0  0  0  0  0  0  0  0  0
  146.7573  141.2655  154.1756 C   0  0  0  0  0  0  0  0  0  0  0  0
  147.9609  141.2458  153.5255 C   0  0  0  0  0  0  0  0  0  0  0  0
  148.9651  141.3366  154.4491 O   0  0  0  0  0  0  0  0  0  0  0  0
  151.3141  143.6758  162.0275 H   0  0  0  0  0  0  0  0  0  0  0  0
  152.5956  144.4605  161.1078 H   0  0  0  0  0  0  0  0  0  0  0  0
  152.9196  142.9493  161.9750 H   0  0  0  0  0  0  0  0  0  0  0  0
  153.2243  143.3594  158.8770 H   0  0  0  0  0  0  0  0  0  0  0  0
  154.8691  141.7462  159.5749 H   0  0  0  0  0  0  0  0  0  0  0  0
  154.1180  142.1119  161.1227 H   0  0  0  0  0  0  0  0  0  0  0  0
  154.2294  139.5464  160.3634 H   0  0  0  0  0  0  0  0  0  0  0  0
  152.6926  140.1580  160.9686 H   0  0  0  0  0  0  0  0  0  0  0  0
  153.4539  139.5704  158.1243 H   0  0  0  0  0  0  0  0  0  0  0  0
  151.8985  139.3745  158.9095 H   0  0  0  0  0  0  0  0  0  0  0  0
  152.9297  141.6102  157.3617 H   0  0  0  0  0  0  0  0  0  0  0  0
  150.3309  141.7245  158.7783 H   0  0  0  0  0  0  0  0  0  0  0  0
  145.7526  141.2148  153.7833 H   0  0  0  0  0  0  0  0  0  0  0  0
  148.2562  141.1778  152.4893 H   0  0  0  0  0  0  0  0  0  0  0  0
  1  2  1  0  0  0  0
  1 17  1  0  0  0  0
  1 18  1  0  0  0  0
  1 19  1  0  0  0  0
  2  3  1  0  0  0  0
  3  7  1  0  0  0  0
  3  4  1  0  0  0  0
  3 20  1  0  0  0  0
  4  5  1  0  0  0  0
  4 21  1  0  0  0  0
  4 22  1  0  0  0  0
  5  6  1  0  0  0  0
  5 23  1  0  0  0  0
  5 24  1  0  0  0  0
  6  7  1  0  0  0  0
  6 25  1  0  0  0  0
  6 26  1  0  0  0  0
  7  8  1  0  0  0  0
  7 27  1  0  0  0  0
  8 28  1  0  0  0  0
  8  9  1  0  0  0  0
  9 11  1  0  0  0  0
  9 10  2  0  0  0  0
 11 12  1  0  0  0  0
 12 16  1  0  0  0  0
 12 13  2  0  0  0  0
 13 14  1  0  0  0  0
 14 29  1  0  0  0  0
 14 15  2  0  0  0  0
 15 30  1  0  0  0  0
 15 16  1  0  0  0  0
M  CHG  1  11  -1
M  END
> <s_m_source_file>
AV-unprocessed.smi

> <i_m_source_file_index>
2784

> <i_lp_mmshare_version>
43012

> <i_f3d_flags>
0

> <s_epik_input>
W0NIM11PW0NAQEhdMVtDSDJdW0NIMl1bQ0gyXVtDQEhdMVtOSF1DKD1PKVtOSF1jMm5bY0hdW2NIXW8y

> <s_epik_cmdline>
J2VwaWtfcHl0aG9uJywgJy1waCcsICc3LjAnLCAnLXRuJywgJzgnLCAnLW1hJywgJzIwMCcsICctbWV0YWxfYmluZGluZycsICctaW1hZScsICc8aW5maWxlLm1hZT4nLCAnLW9tYWUnLCAnPG91dGZpbGUubWFlPic=

> <r_lp_tautomer_probability>
0.107061

> <r_epik_Ionization_Penalty>
10.8857

> <r_epik_Ionization_Penalty_Charging>
7.67908

> <r_epik_Ionization_Penalty_Neutral>
3.20665

> <r_epik_State_Penalty>
5.80296

> <r_epik_Charging_Adjusted_Penalty>
13.482

> <i_epik_Tot_Q>
-1

> <i_epik_Tot_abs_Q>
1

> <r_epik_Metal_State_Penalty>
1.73217

> <b_epik_Metal_Only>
1

> <s_lp_Force_Field>
OPLS_2005

> <r_lp_Energy>
16.6072

> <b_lp_Chiralities_Consistent>
1

> <s_lp_Variant>
AV-unprocessed.smi:2784-18

> <Gold.Version>
5.8.1

> <Gold.Id.Protein>
6NUR|6NUR_protein|mol2

> <Gold.PLP.Fitness>
33.2874

> <Gold.PLP.PLP>
-27.7397

> <Gold.PLP.part.hbond>
-0.8389

> <Gold.PLP.part.metal>
0.0000

> <Gold.PLP.part.buried>
-4.4475

> <Gold.PLP.part.nonpolar>
-22.2085

> <Gold.PLP.part.repulsive>
0.4704

> <Gold.PLP.ligand.clash>
0.0000

> <Gold.PLP.ligand.torsion>
0.3683

> <Gold.PLP.Chemscore.Hbond>
0.0811

> <Gold.PLP.Chemscore.CHOScore>
1.9928

> <Gold.PLP.Chemscore.Metal>
0.0000

> <Gold.Chemscore.Hbonds>
donor molecule, donor type, donor heavy atom, donor atom, acceptor molecule, acceptor atom, score
      P1  H  7989  7998       L1    10  0.08
      L1  C    14    29       P1 10175  0.96
      L1  C    15    30       P1  7957  1.00

> <Gold.PLP.Chemscore.Internal.Correction>
0.0626

> <Gold.Rescore>
     Score         DG    S(hbond)    S(metal)    S(lipo)     H(rot)  DE(clash)    DE(int)     intcor
      9.46     -11.56       0.31        0.00      71.91       1.31       0.02       2.08       ----

> <Gold.Chemscore.Fitness>
9.4558

> <Gold.Chemscore.DG>
-11.5585

> <Gold.Chemscore.ZeroCoef>
-5.4800

> <Gold.Chemscore.Hbond>
0.3056

> <Gold.Chemscore.Metal>
0.0000

> <Gold.Chemscore.Lipo>
71.9050

> <Gold.Chemscore.Internal_Hbond>
0.0000

> <Gold.Chemscore.DEClash>
0.0203

> <Gold.Chemscore.DEInternal>
2.0824

> <Gold.Chemscore.Rot>
1.3106

> <Gold.Chemscore.Internal.Correction>
   9.000000E+99

> <Gold.Chemscore.Hbonds>
donor molecule, donor type, donor heavy atom, donor atom, acceptor molecule, acceptor atom, score
      P1  H  7989  7998       L1    10  0.10

> <Gold.Chemscore.Hbond.Weighted>
-1.0206

> <Gold.Chemscore.Metal.Weighted>
-0.0000

> <Gold.Chemscore.Lipo.Weighted>
-8.4129

> <Gold.Chemscore.Internal_Hbond.Weighted>
0.0000

> <Gold.Chemscore.DEClash.Weighted>
0.0203

> <Gold.Chemscore.DEInternal.Weighted>
2.0824

> <Gold.Chemscore.Rot.Weighted>
3.3550

> <Gold.Chemscore.Internal.Correction.Weighted>
   9.000000E+99

> <Gold.Protein.RotatedTorsions>
[ 6907 6896 6895 6894 ] final  178.15 input  -60.11 | X-H torsion
[ 7974 7965 7964 7962 ] final   36.17 input  175.53 | X-H torsion
[ 8008 7997 7996 7995 ] final  170.25 input   59.86 | X-H torsion
[ 10167 10162 10161 10158 ] final   33.07 input  -65.29 | X-H torsion
[ 10718 10713 10712 10709 ] final   71.44 input   66.30 | X-H torsion
[ 10763 10752 10751 10750 ] final -150.78 input  -60.55 | X-H torsion
[ 11005 11000 10999 10996 ] final  133.68 input  -57.11 | X-H torsion

> <Gold.Protein.ActiveResidues>
 VAL166  LYS551  ARG553  GLY616  TRP617  ASP618  TYR619  PRO620  LYS621  CYS622 
 ASP623  PHE694  ASN695  SER759  ASP760  ASP761  ALA762  ILE779  LEU786  VAL792 
 PHE793  MET794  SER795  GLU796  ALA797  LYS798  CYS799  TRP800  GLU811  SER814 

> <Gold.Protein.RotatedAtoms>
  151.6924  133.3311  159.3245 H   0  0  0  0  0  0  0  0  0  0  0  0  # atno 6907 bound_to 6896
  150.7773  134.6687  159.6389 H   0  0  0  0  0  0  0  0  0  0  0  0  # atno 6908 bound_to 6896
  152.3819  134.6580  160.0192 H   0  0  0  0  0  0  0  0  0  0  0  0  # atno 6909 bound_to 6896
  146.1230  139.6050  142.9277 H   0  0  0  0  0  0  0  0  0  0  0  0  # atno 7974 bound_to 7965
  156.1383  140.1543  156.8960 H   0  0  0  0  0  0  0  0  0  0  0  0  # atno 8008 bound_to 7997
  154.4966  140.0836  156.7747 H   0  0  0  0  0  0  0  0  0  0  0  0  # atno 8009 bound_to 7997
  155.4127  140.3419  155.4267 H   0  0  0  0  0  0  0  0  0  0  0  0  # atno 8010 bound_to 7997
  140.4441  144.1144  150.6179 H   0  0  0  0  0  0  0  0  0  0  0  0  # atno 10167 bound_to 10162
  157.6451  130.9528  150.0789 H   0  0  0  0  0  0  0  0  0  0  0  0  # atno 10718 bound_to 10713
  154.8098  135.3276  154.7334 H   0  0  0  0  0  0  0  0  0  0  0  0  # atno 10763 bound_to 10752
  153.7986  135.6905  153.4864 H   0  0  0  0  0  0  0  0  0  0  0  0  # atno 10764 bound_to 10752
  153.1869  135.4565  155.0046 H   0  0  0  0  0  0  0  0  0  0  0  0  # atno 10765 bound_to 10752
  139.9867  134.9529  156.9759 H   0  0  0  0  0  0  0  0  0  0  0  0  # atno 11005 bound_to 11000
  145.5425  141.0420  143.2323 LP  0  0  0  0  0  0  0  0  0  0  0  0  # atno 17320 bound_to 7965
  144.7615  139.6945  143.7232 LP  0  0  0  0  0  0  0  0  0  0  0  0  # atno 17321 bound_to 7965
  140.4284  143.2579  151.9627 LP  0  0  0  0  0  0  0  0  0  0  0  0  # atno 17342 bound_to 10162
  139.4791  144.5767  151.8000 LP  0  0  0  0  0  0  0  0  0  0  0  0  # atno 17343 bound_to 10162
  156.1771  130.3648  149.9085 LP  0  0  0  0  0  0  0  0  0  0  0  0  # atno 17370 bound_to 10713
  156.7046  130.8946  151.3603 LP  0  0  0  0  0  0  0  0  0  0  0  0  # atno 17371 bound_to 10713
  140.4989  134.1118  155.7246 LP  0  0  0  0  0  0  0  0  0  0  0  0  # atno 17394 bound_to 11000
  141.1531  133.8933  157.2048 LP  0  0  0  0  0  0  0  0  0  0  0  0  # atno 17395 bound_to 11000

$$$$
