AV-unprocessed.smi:689|AV-procd|sdf|3358|dock10
  -GOLD-   22720 0333D 1   1.00000     0.00000
 Structure written by MMmdl.
 33 34  0  0  0  0  0  0  0  0  2 V2000
  152.2422  139.3349  158.6354 C   0  0  0  0  0  0  0  0  0  0  0  0
  151.6792  139.5834  157.2653 C   0  0  0  0  0  0  0  0  0  0  0  0
  152.4986  139.8600  156.2644 N   0  0  0  0  0  0  0  0  0  0  0  0
  151.6861  140.0249  155.1386 O   0  0  0  0  0  0  0  0  0  0  0  0
  150.3942  139.8376  155.5101 C   0  0  0  0  0  0  0  0  0  0  0  0
  149.3654  139.9655  154.4386 C   0  0  0  0  0  0  0  0  0  0  0  0
  150.3174  139.5596  156.8471 C   0  0  0  0  0  0  0  0  0  0  0  0
  149.0913  139.2850  157.6814 C   0  0  0  0  0  0  0  0  0  0  0  0
  149.2399  137.9377  158.3950 C   0  0  0  0  0  0  0  0  0  0  0  0
  150.2316  137.2447  158.1675 O   0  0  0  0  0  0  0  0  0  0  0  0
  148.2072  137.6941  159.2330 N   0  5  0  0  0  0  0  0  0  0  0  0
  148.1487  136.3555  160.1365 S   0  0  0  0  0  0  0  0  0  0  0  0
  148.8836  135.2336  159.5316 O   0  0  0  0  0  0  0  0  0  0  0  0
  148.3850  136.6272  161.5630 O   0  0  0  0  0  0  0  0  0  0  0  0
  146.3617  135.9264  159.9893 C   0  0  0  0  0  0  0  0  0  0  0  0
  145.9622  134.8421  160.9708 C   0  0  0  0  0  0  0  0  0  0  0  0
  146.2991  134.9576  162.4399 C   0  0  0  0  0  0  0  0  0  0  0  0
  147.0049  133.9351  161.5850 C   0  0  0  0  0  0  0  0  0  0  0  0
  151.6199  139.7925  159.4043 H   0  0  0  0  0  0  0  0  0  0  0  0
  153.2473  139.7449  158.7389 H   0  0  0  0  0  0  0  0  0  0  0  0
  152.2957  138.2664  158.8450 H   0  0  0  0  0  0  0  0  0  0  0  0
  148.4903  139.3562  154.6646 H   0  0  0  0  0  0  0  0  0  0  0  0
  149.7617  139.6390  153.4769 H   0  0  0  0  0  0  0  0  0  0  0  0
  149.0403  141.0008  154.3385 H   0  0  0  0  0  0  0  0  0  0  0  0
  148.9125  140.0817  158.4056 H   0  0  0  0  0  0  0  0  0  0  0  0
  148.1955  139.2503  157.0604 H   0  0  0  0  0  0  0  0  0  0  0  0
  145.7789  136.8311  160.1640 H   0  0  0  0  0  0  0  0  0  0  0  0
  146.1670  135.5873  158.9722 H   0  0  0  0  0  0  0  0  0  0  0  0
  145.0144  134.3648  160.7286 H   0  0  0  0  0  0  0  0  0  0  0  0
  146.8745  135.8228  162.7638 H   0  0  0  0  0  0  0  0  0  0  0  0
  145.5622  134.5945  163.1533 H   0  0  0  0  0  0  0  0  0  0  0  0
  146.7391  132.8893  161.7247 H   0  0  0  0  0  0  0  0  0  0  0  0
  148.0489  134.1219  161.3417 H   0  0  0  0  0  0  0  0  0  0  0  0
  1  2  1  0  0  0  0
  1 19  1  0  0  0  0
  1 20  1  0  0  0  0
  1 21  1  0  0  0  0
  2  7  1  0  0  0  0
  2  3  2  0  0  0  0
  3  4  1  0  0  0  0
  4  5  1  0  0  0  0
  5  6  1  0  0  0  0
  5  7  2  0  0  0  0
  6 22  1  0  0  0  0
  6 23  1  0  0  0  0
  6 24  1  0  0  0  0
  7  8  1  0  0  0  0
  8  9  1  0  0  0  0
  8 25  1  0  0  0  0
  8 26  1  0  0  0  0
  9 10  2  0  0  0  0
  9 11  1  0  0  0  0
 11 12  1  0  0  0  0
 12 13  2  0  0  0  0
 12 14  2  0  0  0  0
 12 15  1  0  0  0  0
 15 16  1  0  0  0  0
 15 27  1  0  0  0  0
 15 28  1  0  0  0  0
 16 18  1  0  0  0  0
 16 17  1  0  0  0  0
 16 29  1  0  0  0  0
 17 18  1  0  0  0  0
 17 30  1  0  0  0  0
 17 31  1  0  0  0  0
 18 32  1  0  0  0  0
 18 33  1  0  0  0  0
M  CHG  1  11  -1
M  END
> <s_m_source_file>
AV-unprocessed.smi

> <i_m_source_file_index>
689

> <i_lp_mmshare_version>
43012

> <i_f3d_flags>
0

> <s_epik_input>
W0NIM11jMW5vYyhbQ0gzXSljMVtDSDJdQyg9TylbTkhdUyg9TykoPU8pW0NIMl1bQ0hdMltDSDJdW0NIMl0y

> <s_epik_cmdline>
J2VwaWtfcHl0aG9uJywgJy1waCcsICc3LjAnLCAnLXRuJywgJzgnLCAnLW1hJywgJzIwMCcsICctbWV0YWxfYmluZGluZycsICctaW1hZScsICc8aW5maWxlLm1hZT4nLCAnLW9tYWUnLCAnPG91dGZpbGUubWFlPic=

> <r_epik_Ionization_Penalty>
0.0117783

> <r_epik_Ionization_Penalty_Charging>
0.0117783

> <r_epik_Ionization_Penalty_Neutral>
2.69026e-10

> <r_epik_State_Penalty>
0.00908283

> <r_epik_Charging_Adjusted_Penalty>
0.0208612

> <i_epik_Tot_Q>
-1

> <i_epik_Tot_abs_Q>
1

> <r_epik_Metal_State_Penalty>
0.00890557

> <b_epik_Metal_Only>
0

> <s_lp_Force_Field>
OPLS_2005

> <r_lp_Energy>
1.25467

> <b_lp_Chiralities_Consistent>
1

> <s_lp_Variant>
AV-unprocessed.smi:689-1

> <Gold.Version>
5.8.1

> <Gold.Id.Protein>
6NUR|6NUR_protein|mol2

> <Gold.PLP.Fitness>
38.7881

> <Gold.PLP.PLP>
-26.8336

> <Gold.PLP.part.hbond>
-5.6450

> <Gold.PLP.part.metal>
0.0000

> <Gold.PLP.part.buried>
-3.4801

> <Gold.PLP.part.nonpolar>
-18.1085

> <Gold.PLP.part.repulsive>
0.0424

> <Gold.PLP.ligand.clash>
0.0000

> <Gold.PLP.ligand.torsion>
1.0894

> <Gold.PLP.Chemscore.Hbond>
4.1897

> <Gold.PLP.Chemscore.CHOScore>
0.0000

> <Gold.PLP.Chemscore.Metal>
0.0000

> <Gold.Chemscore.Hbonds>
donor molecule, donor type, donor heavy atom, donor atom, acceptor molecule, acceptor atom, score
      P1  H  6896  6907       L1    13  1.00
      P1  H  6931  6943       L1    14  1.00
      P1  H  6934  6947       L1    11  0.10
      P1  H  7989  7998       L1     4  0.99
      P1  H  7997  8009       L1     3  1.00

> <Gold.PLP.Chemscore.Internal.Correction>
1.5643

> <Gold.Rescore>
     Score         DG    S(hbond)    S(metal)    S(lipo)     H(rot)  DE(clash)    DE(int)     intcor
     14.21     -19.90       3.74        0.00      51.58       1.61       0.07       5.62       ----

> <Gold.Chemscore.Fitness>
14.2149

> <Gold.Chemscore.DG>
-19.8988

> <Gold.Chemscore.ZeroCoef>
-5.4800

> <Gold.Chemscore.Hbond>
3.7410

> <Gold.Chemscore.Metal>
0.0000

> <Gold.Chemscore.Lipo>
51.5773

> <Gold.Chemscore.Internal_Hbond>
0.0000

> <Gold.Chemscore.DEClash>
0.0650

> <Gold.Chemscore.DEInternal>
5.6188

> <Gold.Chemscore.Rot>
1.6058

> <Gold.Chemscore.Internal.Correction>
   9.000000E+99

> <Gold.Chemscore.Hbonds>
donor molecule, donor type, donor heavy atom, donor atom, acceptor molecule, acceptor atom, score
      P1  H  6896  6907       L1    13  0.99
      P1  H  6931  6943       L1    14  0.91
      P1  H  6934  6947       L1    11  0.01
      P1  H  7989  7998       L1     4  0.56
      P1  H  7997  8009       L1     3  1.00

> <Gold.Chemscore.Hbond.Weighted>
-12.4951

> <Gold.Chemscore.Metal.Weighted>
-0.0000

> <Gold.Chemscore.Lipo.Weighted>
-6.0345

> <Gold.Chemscore.Internal_Hbond.Weighted>
0.0000

> <Gold.Chemscore.DEClash.Weighted>
0.0650

> <Gold.Chemscore.DEInternal.Weighted>
5.6188

> <Gold.Chemscore.Rot.Weighted>
4.1108

> <Gold.Chemscore.Internal.Correction.Weighted>
   9.000000E+99

> <Gold.Protein.RotatedTorsions>
[ 6907 6896 6895 6894 ] final  -69.58 input  -60.11 | X-H torsion
[ 7974 7965 7964 7962 ] final   69.10 input  175.53 | X-H torsion
[ 8008 7997 7996 7995 ] final -160.67 input   59.86 | X-H torsion
[ 10167 10162 10161 10158 ] final  -39.65 input  -65.29 | X-H torsion
[ 10718 10713 10712 10709 ] final   89.65 input   66.30 | X-H torsion
[ 10763 10752 10751 10750 ] final   95.80 input  -60.55 | X-H torsion
[ 11005 11000 10999 10996 ] final  -52.84 input  -57.11 | X-H torsion

> <Gold.Protein.ActiveResidues>
 VAL166  LYS551  ARG553  GLY616  TRP617  ASP618  TYR619  PRO620  LYS621  CYS622 
 ASP623  PHE694  ASN695  SER759  ASP760  ASP761  ALA762  ILE779  LEU786  VAL792 
 PHE793  MET794  SER795  GLU796  ALA797  LYS798  CYS799  TRP800  GLU811  SER814 

> <Gold.Protein.RotatedAtoms>
  150.7299  134.5577  159.5826 H   0  0  0  0  0  0  0  0  0  0  0  0  # atno 6907 bound_to 6896
  152.3048  134.7565  160.0359 H   0  0  0  0  0  0  0  0  0  0  0  0  # atno 6908 bound_to 6896
  151.8133  133.3349  159.3598 H   0  0  0  0  0  0  0  0  0  0  0  0  # atno 6909 bound_to 6896
  145.7945  139.2951  143.1191 H   0  0  0  0  0  0  0  0  0  0  0  0  # atno 7974 bound_to 7965
  155.7809  140.0865  157.2060 H   0  0  0  0  0  0  0  0  0  0  0  0  # atno 8008 bound_to 7997
  154.3990  140.1508  156.3108 H   0  0  0  0  0  0  0  0  0  0  0  0  # atno 8009 bound_to 7997
  155.8655  140.3428  155.5788 H   0  0  0  0  0  0  0  0  0  0  0  0  # atno 8010 bound_to 7997
  140.7058  143.3201  151.2813 H   0  0  0  0  0  0  0  0  0  0  0  0  # atno 10167 bound_to 10162
  157.6956  131.0341  150.3458 H   0  0  0  0  0  0  0  0  0  0  0  0  # atno 10718 bound_to 10713
  153.2574  135.4241  155.0860 H   0  0  0  0  0  0  0  0  0  0  0  0  # atno 10763 bound_to 10752
  154.8406  135.3440  154.6426 H   0  0  0  0  0  0  0  0  0  0  0  0  # atno 10764 bound_to 10752
  153.6846  135.7037  153.5164 H   0  0  0  0  0  0  0  0  0  0  0  0  # atno 10765 bound_to 10752
  141.0945  133.6627  156.4083 H   0  0  0  0  0  0  0  0  0  0  0  0  # atno 11005 bound_to 11000
  145.9942  140.8576  143.0051 LP  0  0  0  0  0  0  0  0  0  0  0  0  # atno 17320 bound_to 7965
  144.6777  140.2259  143.7361 LP  0  0  0  0  0  0  0  0  0  0  0  0  # atno 17321 bound_to 7965
  139.6652  144.0117  152.2718 LP  0  0  0  0  0  0  0  0  0  0  0  0  # atno 17342 bound_to 10162
  139.9698  144.6501  150.8000 LP  0  0  0  0  0  0  0  0  0  0  0  0  # atno 17343 bound_to 10162
  156.3912  130.3898  149.7028 LP  0  0  0  0  0  0  0  0  0  0  0  0  # atno 17370 bound_to 10713
  156.4377  130.7846  151.2867 LP  0  0  0  0  0  0  0  0  0  0  0  0  # atno 17371 bound_to 10713
  140.5173  134.6338  157.5306 LP  0  0  0  0  0  0  0  0  0  0  0  0  # atno 17394 bound_to 11000
  139.9778  134.7186  155.9916 LP  0  0  0  0  0  0  0  0  0  0  0  0  # atno 17395 bound_to 11000

$$$$
