AV-unprocessed.smi:306|AV-procd|sdf|2283|dock6
  -GOLD-   2262022183D 1   1.00000     0.00000
 Structure written by MMmdl.
 46 48  0  0  0  0  0  0  0  0  2 V2000
  147.3379  132.6574  152.6710 C   0  0  0  0  0  0  0  0  0  0  0  0
  148.7952  133.1201  152.7833 C   0  0  0  0  0  0  0  0  0  0  0  0
  149.2822  133.1021  154.2044 C   0  0  0  0  0  0  0  0  0  0  0  0
  150.3179  132.3062  154.7692 C   0  0  0  0  0  0  0  0  0  0  0  0
  150.3442  132.6703  156.0861 C   0  0  0  0  0  0  0  0  0  0  0  0
  151.2203  132.1909  157.2005 C   0  0  0  0  0  0  0  0  0  0  0  0
  151.0778  130.6908  157.4813 C   0  0  0  0  0  0  0  0  0  0  0  0
  149.3604  133.6284  156.2537 N   0  0  0  0  0  0  0  0  0  0  0  0
  148.9870  134.3046  157.4318 C   0  0  0  0  0  0  0  0  0  0  0  0
  148.5370  133.6922  158.5274 N   0  0  0  0  0  0  0  0  0  0  0  0
  148.3085  134.7542  159.3911 C   0  0  0  0  0  0  0  0  0  0  0  0
  148.6215  135.9446  158.8089 C   0  0  0  0  0  0  0  0  0  0  0  0
  148.4928  137.2528  159.4882 C   0  0  0  0  0  0  0  0  0  0  0  0
  148.8019  138.2983  158.9207 O   0  0  0  0  0  0  0  0  0  0  0  0
  148.0072  137.1262  160.7639 N   0  5  0  0  0  0  0  0  0  0  0  0
  147.6719  135.9450  161.3903 C   0  0  0  0  0  0  0  0  0  0  0  0
  147.2365  135.9211  162.5423 O   0  0  0  0  0  0  0  0  0  0  0  0
  147.8198  134.7555  160.7260 N   0  0  0  0  0  0  0  0  0  0  0  0
  147.4726  133.4844  161.3681 C   0  0  0  0  0  0  0  0  0  0  0  0
  149.0671  135.6554  157.5157 N   0  0  0  0  0  0  0  0  0  0  0  0
  149.5293  136.5738  156.4780 C   0  0  0  0  0  0  0  0  0  0  0  0
  151.0541  136.5294  156.3000 C   0  0  0  0  0  0  0  0  0  0  0  0
  151.3953  136.7704  154.9451 O   0  0  0  0  0  0  0  0  0  0  0  0
  151.6001  138.1444  154.6708 C   0  0  0  0  0  0  0  0  0  0  0  0
  148.7185  133.8978  155.0983 N   0  0  0  0  0  0  0  0  0  0  0  0
  147.0048  132.6712  151.6331 H   0  0  0  0  0  0  0  0  0  0  0  0
  146.6728  133.3054  153.2427 H   0  0  0  0  0  0  0  0  0  0  0  0
  147.2187  131.6406  153.0461 H   0  0  0  0  0  0  0  0  0  0  0  0
  149.4257  132.4776  152.1681 H   0  0  0  0  0  0  0  0  0  0  0  0
  148.8918  134.1238  152.3680 H   0  0  0  0  0  0  0  0  0  0  0  0
  150.9462  131.5763  154.2807 H   0  0  0  0  0  0  0  0  0  0  0  0
  152.2625  132.4191  156.9753 H   0  0  0  0  0  0  0  0  0  0  0  0
  150.9834  132.7472  158.1079 H   0  0  0  0  0  0  0  0  0  0  0  0
  151.7226  130.3875  158.3062 H   0  0  0  0  0  0  0  0  0  0  0  0
  151.3523  130.0954  156.6104 H   0  0  0  0  0  0  0  0  0  0  0  0
  150.0517  130.4379  157.7494 H   0  0  0  0  0  0  0  0  0  0  0  0
  148.0354  133.3554  162.2938 H   0  0  0  0  0  0  0  0  0  0  0  0
  147.6863  132.6216  160.7378 H   0  0  0  0  0  0  0  0  0  0  0  0
  146.4092  133.4587  161.6093 H   0  0  0  0  0  0  0  0  0  0  0  0
  149.0430  136.3216  155.5359 H   0  0  0  0  0  0  0  0  0  0  0  0
  149.1981  137.5844  156.7078 H   0  0  0  0  0  0  0  0  0  0  0  0
  151.5247  137.2781  156.9384 H   0  0  0  0  0  0  0  0  0  0  0  0
  151.4322  135.5551  156.6122 H   0  0  0  0  0  0  0  0  0  0  0  0
  151.8638  138.2719  153.6210 H   0  0  0  0  0  0  0  0  0  0  0  0
  152.4126  138.5507  155.2743 H   0  0  0  0  0  0  0  0  0  0  0  0
  150.6960  138.7229  154.8639 H   0  0  0  0  0  0  0  0  0  0  0  0
  1  2  1  0  0  0  0
  1 26  1  0  0  0  0
  1 27  1  0  0  0  0
  1 28  1  0  0  0  0
  2  3  1  0  0  0  0
  2 29  1  0  0  0  0
  2 30  1  0  0  0  0
  3 25  2  0  0  0  0
  3  4  1  0  0  0  0
  4  5  2  0  0  0  0
  4 31  1  0  0  0  0
  5  6  1  0  0  0  0
  5  8  1  0  0  0  0
  6  7  1  0  0  0  0
  6 32  1  0  0  0  0
  6 33  1  0  0  0  0
  7 34  1  0  0  0  0
  7 35  1  0  0  0  0
  7 36  1  0  0  0  0
  8  9  1  0  0  0  0
  8 25  1  0  0  0  0
  9 20  1  0  0  0  0
  9 10  2  0  0  0  0
 10 11  1  0  0  0  0
 11 18  1  0  0  0  0
 11 12  2  0  0  0  0
 12 13  1  0  0  0  0
 12 20  1  0  0  0  0
 13 14  2  0  0  0  0
 13 15  1  0  0  0  0
 15 16  1  0  0  0  0
 16 17  2  0  0  0  0
 16 18  1  0  0  0  0
 18 19  1  0  0  0  0
 19 37  1  0  0  0  0
 19 38  1  0  0  0  0
 19 39  1  0  0  0  0
 20 21  1  0  0  0  0
 21 22  1  0  0  0  0
 21 40  1  0  0  0  0
 21 41  1  0  0  0  0
 22 23  1  0  0  0  0
 22 42  1  0  0  0  0
 22 43  1  0  0  0  0
 23 24  1  0  0  0  0
 24 44  1  0  0  0  0
 24 45  1  0  0  0  0
 24 46  1  0  0  0  0
M  CHG  1  15  -1
M  END
> <s_m_source_file>
AV-unprocessed.smi

> <i_m_source_file_index>
306

> <i_lp_mmshare_version>
43012

> <i_f3d_flags>
0

> <s_epik_input>
W0NIM11bQ0gyXWMxW2NIXWMoW0NIMl1bQ0gzXSluKG4xKS1jKG4yKW4oW0NIMl1bQ0gyXU9bQ0gzXSljKGMyMyljKD1PKVtuSF1jKD1PKW4zW0NIM10=

> <s_epik_cmdline>
J2VwaWtfcHl0aG9uJywgJy1waCcsICc3LjAnLCAnLXRuJywgJzgnLCAnLW1hJywgJzIwMCcsICctbWV0YWxfYmluZGluZycsICctaW1hZScsICc8aW5maWxlLm1hZT4nLCAnLW9tYWUnLCAnPG91dGZpbGUubWFlPic=

> <r_lp_tautomer_probability>
1

> <r_epik_Ionization_Penalty>
3.98741

> <r_epik_Ionization_Penalty_Charging>
0.0180637

> <r_epik_Ionization_Penalty_Neutral>
3.96934

> <r_epik_State_Penalty>
3.96767

> <r_epik_Charging_Adjusted_Penalty>
3.98573

> <i_epik_Tot_Q>
-1

> <i_epik_Tot_abs_Q>
1

> <r_epik_Metal_State_Penalty>
0.612217

> <b_epik_Metal_Only>
1

> <s_lp_Force_Field>
OPLS_2005

> <r_lp_Energy>
26.8748

> <b_lp_Chiralities_Consistent>
1

> <s_lp_Variant>
AV-unprocessed.smi:306-2

> <Gold.Version>
5.8.1

> <Gold.Id.Protein>
6NUR|6NUR_protein|mol2

> <Gold.PLP.Fitness>
44.7950

> <Gold.PLP.PLP>
-34.7937

> <Gold.PLP.part.hbond>
-3.8615

> <Gold.PLP.part.metal>
0.0000

> <Gold.PLP.part.buried>
-5.3128

> <Gold.PLP.part.nonpolar>
-26.4870

> <Gold.PLP.part.repulsive>
0.2047

> <Gold.PLP.ligand.clash>
0.0000

> <Gold.PLP.ligand.torsion>
1.7175

> <Gold.PLP.Chemscore.Hbond>
4.1680

> <Gold.PLP.Chemscore.CHOScore>
0.0000

> <Gold.PLP.Chemscore.Metal>
0.0000

> <Gold.Chemscore.Hbonds>
donor molecule, donor type, donor heavy atom, donor atom, acceptor molecule, acceptor atom, score
      P1  H  6931  6943       L1    15  1.76
      P1  H  6934  6947       L1    15  1.19
      P1  H 10752 10764       L1    23  1.00

> <Gold.PLP.Chemscore.Internal.Correction>
0.9323

> <Gold.Rescore>
     Score         DG    S(hbond)    S(metal)    S(lipo)     H(rot)  DE(clash)    DE(int)     intcor
     12.13     -14.01       1.80        0.00      61.19       1.81       0.02       1.86       ----

> <Gold.Chemscore.Fitness>
12.1261

> <Gold.Chemscore.DG>
-14.0119

> <Gold.Chemscore.ZeroCoef>
-5.4800

> <Gold.Chemscore.Hbond>
1.8009

> <Gold.Chemscore.Metal>
0.0000

> <Gold.Chemscore.Lipo>
61.1935

> <Gold.Chemscore.Internal_Hbond>
0.0000

> <Gold.Chemscore.DEClash>
0.0239

> <Gold.Chemscore.DEInternal>
1.8620

> <Gold.Chemscore.Rot>
1.8136

> <Gold.Chemscore.Internal.Correction>
   9.000000E+99

> <Gold.Chemscore.Hbonds>
donor molecule, donor type, donor heavy atom, donor atom, acceptor molecule, acceptor atom, score
      P1  H  6931  6943       L1    15  0.46
      P1  H  6934  6947       L1    15  0.10
      P1  H 10752 10764       L1    23  0.36

> <Gold.Chemscore.Hbond.Weighted>
-6.0150

> <Gold.Chemscore.Metal.Weighted>
-0.0000

> <Gold.Chemscore.Lipo.Weighted>
-7.1596

> <Gold.Chemscore.Internal_Hbond.Weighted>
0.0000

> <Gold.Chemscore.DEClash.Weighted>
0.0239

> <Gold.Chemscore.DEInternal.Weighted>
1.8620

> <Gold.Chemscore.Rot.Weighted>
4.6427

> <Gold.Chemscore.Internal.Correction.Weighted>
   9.000000E+99

> <Gold.Protein.RotatedTorsions>
[ 6907 6896 6895 6894 ] final  110.52 input  -60.11 | X-H torsion
[ 7974 7965 7964 7962 ] final   29.12 input  175.53 | X-H torsion
[ 8008 7997 7996 7995 ] final -132.85 input   59.86 | X-H torsion
[ 10167 10162 10161 10158 ] final -120.50 input  -65.29 | X-H torsion
[ 10718 10713 10712 10709 ] final   37.46 input   66.30 | X-H torsion
[ 10763 10752 10751 10750 ] final  -55.75 input  -60.55 | X-H torsion
[ 11005 11000 10999 10996 ] final  -23.52 input  -57.11 | X-H torsion

> <Gold.Protein.ActiveResidues>
 VAL166  LYS551  ARG553  GLY616  TRP617  ASP618  TYR619  PRO620  LYS621  CYS622 
 ASP623  PHE694  ASN695  SER759  ASP760  ASP761  ALA762  ILE779  LEU786  VAL792 
 PHE793  MET794  SER795  GLU796  ALA797  LYS798  CYS799  TRP800  GLU811  SER814 

> <Gold.Protein.RotatedAtoms>
  152.5015  133.8788  159.7335 H   0  0  0  0  0  0  0  0  0  0  0  0  # atno 6907 bound_to 6896
  150.9256  133.6819  159.2829 H   0  0  0  0  0  0  0  0  0  0  0  0  # atno 6908 bound_to 6896
  151.4181  135.0999  159.9658 H   0  0  0  0  0  0  0  0  0  0  0  0  # atno 6909 bound_to 6896
  146.1690  139.6964  142.8981 H   0  0  0  0  0  0  0  0  0  0  0  0  # atno 7974 bound_to 7965
  155.3357  140.0469  157.3044 H   0  0  0  0  0  0  0  0  0  0  0  0  # atno 8008 bound_to 7997
  154.5304  140.2255  155.8780 H   0  0  0  0  0  0  0  0  0  0  0  0  # atno 8009 bound_to 7997
  156.1782  140.3080  155.9106 H   0  0  0  0  0  0  0  0  0  0  0  0  # atno 8010 bound_to 7997
  140.0351  143.5209  152.2157 H   0  0  0  0  0  0  0  0  0  0  0  0  # atno 10167 bound_to 10162
  157.3472  130.7579  149.6953 H   0  0  0  0  0  0  0  0  0  0  0  0  # atno 10718 bound_to 10713
  154.1958  135.6419  153.5073 H   0  0  0  0  0  0  0  0  0  0  0  0  # atno 10763 bound_to 10752
  153.0024  135.5439  154.6367 H   0  0  0  0  0  0  0  0  0  0  0  0  # atno 10764 bound_to 10752
  154.5767  135.2921  155.0746 H   0  0  0  0  0  0  0  0  0  0  0  0  # atno 10765 bound_to 10752
  140.8759  133.7687  156.0243 H   0  0  0  0  0  0  0  0  0  0  0  0  # atno 11005 bound_to 11000
  145.4391  141.0421  143.2867 LP  0  0  0  0  0  0  0  0  0  0  0  0  # atno 17320 bound_to 7965
  144.8134  139.5920  143.7019 LP  0  0  0  0  0  0  0  0  0  0  0  0  # atno 17321 bound_to 7965
  139.6050  144.7593  151.3083 LP  0  0  0  0  0  0  0  0  0  0  0  0  # atno 17342 bound_to 10162
  140.7285  143.6934  150.7903 LP  0  0  0  0  0  0  0  0  0  0  0  0  # atno 17343 bound_to 10162
  155.9716  130.4151  150.4164 LP  0  0  0  0  0  0  0  0  0  0  0  0  # atno 17370 bound_to 10713
  157.2221  131.0485  151.2540 LP  0  0  0  0  0  0  0  0  0  0  0  0  # atno 17371 bound_to 10713
  140.8518  134.2945  157.5272 LP  0  0  0  0  0  0  0  0  0  0  0  0  # atno 17394 bound_to 11000
  139.8715  134.9472  156.3959 LP  0  0  0  0  0  0  0  0  0  0  0  0  # atno 17395 bound_to 11000

$$$$
