AV-unprocessed.smi:1961|AV-procd|sdf|7921|dock5
  -GOLD-   2272010 83D 1   1.00000     0.00000
 Structure written by MMmdl.
 35 36  0  0  0  0  0  0  0  0  2 V2000
  143.9084  143.8334  163.1421 C   0  0  0  0  0  0  0  0  0  0  0  0
  143.6449  144.0139  161.6402 C   0  0  0  0  0  0  0  0  0  0  0  0
  142.3749  143.2965  161.1598 C   0  0  0  0  0  0  0  0  0  0  0  0
  144.8401  143.6610  160.8110 C   0  0  0  0  0  0  0  0  0  0  0  0
  145.9599  143.1433  161.3259 N   0  0  0  0  0  0  0  0  0  0  0  0
  146.9209  142.9020  160.3552 N   0  0  0  0  0  0  0  0  0  0  0  0
  146.5154  143.2307  159.1207 C   0  0  0  0  0  0  0  0  0  0  0  0
  147.2982  143.0775  158.0398 N   0  5  0  0  0  0  0  0  0  0  0  0
  148.5067  142.4820  158.1595 C   0  0  0  0  0  0  0  0  0  0  0  0
  148.8041  141.5836  158.9507 O   0  0  0  0  0  0  0  0  0  0  0  0
  149.4287  142.9525  157.3097 N   0  0  0  0  0  0  0  0  0  0  0  0
  150.8035  142.4794  157.2214 C   0  0  0  0  0  0  0  0  0  0  0  0
  151.7052  143.2406  158.2029 C   0  0  1  0  0  0  0  0  0  0  0  0
  151.8835  144.7167  157.8512 C   0  0  0  0  0  0  0  0  0  0  0  0
  152.2231  145.3134  159.1976 C   0  0  0  0  0  0  0  0  0  0  0  0
  151.3152  144.5159  160.1289 C   0  0  0  0  0  0  0  0  0  0  0  0
  151.1410  143.2424  159.5130 O   0  0  0  0  0  0  0  0  0  0  0  0
  144.8842  143.8980  159.0714 S   0  0  0  0  0  0  0  0  0  0  0  0
  144.7654  144.4264  163.4634 H   0  0  0  0  0  0  0  0  0  0  0  0
  144.1146  142.7906  163.3856 H   0  0  0  0  0  0  0  0  0  0  0  0
  143.0482  144.1486  163.7331 H   0  0  0  0  0  0  0  0  0  0  0  0
  143.4697  145.0797  161.4869 H   0  0  0  0  0  0  0  0  0  0  0  0
  142.1749  143.5159  160.1105 H   0  0  0  0  0  0  0  0  0  0  0  0
  141.5043  143.6117  161.7352 H   0  0  0  0  0  0  0  0  0  0  0  0
  142.4670  142.2147  161.2622 H   0  0  0  0  0  0  0  0  0  0  0  0
  149.1515  143.6852  156.6729 H   0  0  0  0  0  0  0  0  0  0  0  0
  150.8269  141.4129  157.4502 H   0  0  0  0  0  0  0  0  0  0  0  0
  151.1687  142.5998  156.2003 H   0  0  0  0  0  0  0  0  0  0  0  0
  152.6875  142.7682  158.2599 H   0  0  0  0  0  0  0  0  0  0  0  0
  152.6560  144.8849  157.1004 H   0  0  0  0  0  0  0  0  0  0  0  0
  150.9486  145.1411  157.4820 H   0  0  0  0  0  0  0  0  0  0  0  0
  153.2697  145.1231  159.4380 H   0  0  0  0  0  0  0  0  0  0  0  0
  152.0486  146.3884  159.2487 H   0  0  0  0  0  0  0  0  0  0  0  0
  151.7319  144.4200  161.1317 H   0  0  0  0  0  0  0  0  0  0  0  0
  150.3387  144.9950  160.2122 H   0  0  0  0  0  0  0  0  0  0  0  0
  1  2  1  0  0  0  0
  1 19  1  0  0  0  0
  1 20  1  0  0  0  0
  1 21  1  0  0  0  0
  2  3  1  0  0  0  0
  2  4  1  0  0  0  0
  2 22  1  0  0  0  0
  3 23  1  0  0  0  0
  3 24  1  0  0  0  0
  3 25  1  0  0  0  0
  4 18  1  0  0  0  0
  4  5  2  0  0  0  0
  5  6  1  0  0  0  0
  6  7  2  0  0  0  0
  7  8  1  0  0  0  0
  7 18  1  0  0  0  0
  8  9  1  0  0  0  0
  9 10  2  0  0  0  0
  9 11  1  0  0  0  0
 11 12  1  0  0  0  0
 11 26  1  0  0  0  0
 12 13  1  0  0  0  0
 12 27  1  0  0  0  0
 12 28  1  0  0  0  0
 13 17  1  0  0  0  0
 13 14  1  0  0  0  0
 13 29  1  0  0  0  0
 14 15  1  0  0  0  0
 14 30  1  0  0  0  0
 14 31  1  0  0  0  0
 15 16  1  0  0  0  0
 15 32  1  0  0  0  0
 15 33  1  0  0  0  0
 16 17  1  0  0  0  0
 16 34  1  0  0  0  0
 16 35  1  0  0  0  0
M  CHG  1   8  -1
M  END
> <s_m_source_file>
AV-unprocessed.smi

> <i_m_source_file_index>
1961

> <i_lp_mmshare_version>
43012

> <i_f3d_flags>
0

> <s_epik_input>
W0NIM11bQ0hdKFtDSDNdKWMxbm5jKHMxKVtOSF1DKD1PKVtOSF1bQ0gyXVtDQEBIXTJbQ0gyXVtDSDJdW0NIMl1PMg==

> <s_epik_cmdline>
J2VwaWtfcHl0aG9uJywgJy1waCcsICc3LjAnLCAnLXRuJywgJzgnLCAnLW1hJywgJzIwMCcsICctbWV0YWxfYmluZGluZycsICctaW1hZScsICc8aW5maWxlLm1hZT4nLCAnLW9tYWUnLCAnPG91dGZpbGUubWFlPic=

> <r_lp_tautomer_probability>
1

> <r_epik_Ionization_Penalty>
4.36179

> <r_epik_Ionization_Penalty_Charging>
4.21437

> <r_epik_Ionization_Penalty_Neutral>
0.147417

> <r_epik_State_Penalty>
4.21389

> <r_epik_Charging_Adjusted_Penalty>
8.42826

> <i_epik_Tot_Q>
-1

> <i_epik_Tot_abs_Q>
1

> <r_epik_Metal_State_Penalty>
0.693772

> <b_epik_Metal_Only>
1

> <s_lp_Force_Field>
OPLS_2005

> <r_lp_Energy>
8.86259

> <b_lp_Chiralities_Consistent>
1

> <s_lp_Variant>
AV-unprocessed.smi:1961-4

> <Gold.Version>
5.8.1

> <Gold.Id.Protein>
6NUR|6NUR_protein|mol2

> <Gold.PLP.Fitness>
38.5728

> <Gold.PLP.PLP>
-31.4337

> <Gold.PLP.part.hbond>
-5.2805

> <Gold.PLP.part.metal>
0.0000

> <Gold.PLP.part.buried>
-2.9555

> <Gold.PLP.part.nonpolar>
-24.8279

> <Gold.PLP.part.repulsive>
0.9252

> <Gold.PLP.ligand.clash>
0.0000

> <Gold.PLP.ligand.torsion>
0.4809

> <Gold.PLP.Chemscore.Hbond>
2.6544

> <Gold.PLP.Chemscore.CHOScore>
0.0000

> <Gold.PLP.Chemscore.Metal>
0.0000

> <Gold.Chemscore.Hbonds>
donor molecule, donor type, donor heavy atom, donor atom, acceptor molecule, acceptor atom, score
      L1  H    11    26       P1  8028  0.83
      P1  H  6933  6944       L1     6  0.93
      P1  H  6934  6946       L1     6  0.52

> <Gold.PLP.Chemscore.Internal.Correction>
0.1378

> <Gold.Rescore>
     Score         DG    S(hbond)    S(metal)    S(lipo)     H(rot)  DE(clash)    DE(int)     intcor
     14.37     -17.96       1.74        0.00      87.92       1.42       1.55       2.04       ----

> <Gold.Chemscore.Fitness>
14.3679

> <Gold.Chemscore.DG>
-17.9565

> <Gold.Chemscore.ZeroCoef>
-5.4800

> <Gold.Chemscore.Hbond>
1.7433

> <Gold.Chemscore.Metal>
0.0000

> <Gold.Chemscore.Lipo>
87.9245

> <Gold.Chemscore.Internal_Hbond>
0.0000

> <Gold.Chemscore.DEClash>
1.5522

> <Gold.Chemscore.DEInternal>
2.0365

> <Gold.Chemscore.Rot>
1.4193

> <Gold.Chemscore.Internal.Correction>
   9.000000E+99

> <Gold.Chemscore.Hbonds>
donor molecule, donor type, donor heavy atom, donor atom, acceptor molecule, acceptor atom, score
      L1  H    11    26       P1  8028  0.75
      P1  H  6933  6944       L1     6  0.30
      P1  H  6934  6946       L1     6  0.04

> <Gold.Chemscore.Hbond.Weighted>
-5.8227

> <Gold.Chemscore.Metal.Weighted>
-0.0000

> <Gold.Chemscore.Lipo.Weighted>
-10.2872

> <Gold.Chemscore.Internal_Hbond.Weighted>
0.0000

> <Gold.Chemscore.DEClash.Weighted>
1.5522

> <Gold.Chemscore.DEInternal.Weighted>
2.0365

> <Gold.Chemscore.Rot.Weighted>
3.6333

> <Gold.Chemscore.Internal.Correction.Weighted>
   9.000000E+99

> <Gold.Protein.RotatedTorsions>
[ 6907 6896 6895 6894 ] final  -96.16 input  -60.11 | X-H torsion
[ 7974 7965 7964 7962 ] final   -5.20 input  175.53 | X-H torsion
[ 8008 7997 7996 7995 ] final  178.04 input   59.86 | X-H torsion
[ 10167 10162 10161 10158 ] final  121.82 input  -65.29 | X-H torsion
[ 10718 10713 10712 10709 ] final -105.13 input   66.30 | X-H torsion
[ 10763 10752 10751 10750 ] final -100.38 input  -60.55 | X-H torsion
[ 11005 11000 10999 10996 ] final   -5.73 input  -57.11 | X-H torsion

> <Gold.Protein.ActiveResidues>
 VAL166  LYS551  ARG553  GLY616  TRP617  ASP618  TYR619  PRO620  LYS621  CYS622 
 ASP623  PHE694  ASN695  SER759  ASP760  ASP761  ALA762  ILE779  LEU786  VAL792 
 PHE793  MET794  SER795  GLU796  ALA797  LYS798  CYS799  TRP800  GLU811  SER814 

> <Gold.Protein.RotatedAtoms>
  150.6982  134.1545  159.4152 H   0  0  0  0  0  0  0  0  0  0  0  0  # atno 6907 bound_to 6896
  151.9527  135.0159  160.0552 H   0  0  0  0  0  0  0  0  0  0  0  0  # atno 6908 bound_to 6896
  152.1996  133.4796  159.5088 H   0  0  0  0  0  0  0  0  0  0  0  0  # atno 6909 bound_to 6896
  146.2357  140.1986  142.8333 H   0  0  0  0  0  0  0  0  0  0  0  0  # atno 7974 bound_to 7965
  156.0590  140.1343  156.9963 H   0  0  0  0  0  0  0  0  0  0  0  0  # atno 8008 bound_to 7997
  154.4472  140.0995  156.6559 H   0  0  0  0  0  0  0  0  0  0  0  0  # atno 8009 bound_to 7997
  155.5407  140.3461  155.4448 H   0  0  0  0  0  0  0  0  0  0  0  0  # atno 8010 bound_to 7997
  139.5896  144.7020  151.3322 H   0  0  0  0  0  0  0  0  0  0  0  0  # atno 10167 bound_to 10162
  156.0333  130.5548  150.7495 H   0  0  0  0  0  0  0  0  0  0  0  0  # atno 10718 bound_to 10713
  154.7575  135.4937  153.9401 H   0  0  0  0  0  0  0  0  0  0  0  0  # atno 10763 bound_to 10752
  153.1212  135.6732  153.9340 H   0  0  0  0  0  0  0  0  0  0  0  0  # atno 10764 bound_to 10752
  153.9071  135.3103  155.3427 H   0  0  0  0  0  0  0  0  0  0  0  0  # atno 10765 bound_to 10752
  140.6944  133.9044  155.8640 H   0  0  0  0  0  0  0  0  0  0  0  0  # atno 11005 bound_to 11000
  144.9800  140.8450  143.5403 LP  0  0  0  0  0  0  0  0  0  0  0  0  # atno 17320 bound_to 7965
  145.1978  139.2267  143.5209 LP  0  0  0  0  0  0  0  0  0  0  0  0  # atno 17321 bound_to 7965
  140.7162  143.7260  150.7659 LP  0  0  0  0  0  0  0  0  0  0  0  0  # atno 17342 bound_to 10162
  140.0813  143.4966  152.2528 LP  0  0  0  0  0  0  0  0  0  0  0  0  # atno 17343 bound_to 10162
  157.5043  131.0921  151.0276 LP  0  0  0  0  0  0  0  0  0  0  0  0  # atno 17370 bound_to 10713
  157.0649  130.5840  149.5392 LP  0  0  0  0  0  0  0  0  0  0  0  0  # atno 17371 bound_to 10713
  141.0215  134.0882  157.4115 LP  0  0  0  0  0  0  0  0  0  0  0  0  # atno 17394 bound_to 11000
  139.8914  135.0118  156.6791 LP  0  0  0  0  0  0  0  0  0  0  0  0  # atno 17395 bound_to 11000

$$$$
