AV-unprocessed.smi:35|AV-procd|sdf|250|dock1
  -GOLD-   2262016 13D 1   1.00000     0.00000
 Structure written by MMmdl.
 29 30  0  0  0  0  0  0  0  0  1 V2000
  150.1567  141.0543  161.4167 O   0  0  0  0  0  0  0  0  0  0  0  0
  149.6515  140.8514  160.3149 C   0  0  0  0  0  0  0  0  0  0  0  0
  149.4987  139.5461  159.8381 N   0  0  0  0  0  0  0  0  0  0  0  0
  148.9386  139.1928  158.6088 C   0  0  0  0  0  0  0  0  0  0  0  0
  148.8671  138.0091  158.2811 O   0  0  0  0  0  0  0  0  0  0  0  0
  148.4804  140.2417  157.7812 N   0  0  0  0  0  0  0  0  0  0  0  0
  147.8687  139.8900  156.4388 C   0  0  1  0  0  0  0  0  0  0  0  0
  147.2404  141.0211  155.9039 O   0  0  0  0  0  0  0  0  0  0  0  0
  147.9162  141.4316  154.7208 C   0  0  2  0  0  0  0  0  0  0  0  0
  146.9843  142.2610  153.8196 C   0  0  0  0  0  0  0  0  0  0  0  0
  147.4624  143.5765  153.6284 O   0  0  0  0  0  0  0  0  0  0  0  0
  148.4716  140.1288  154.1441 C   0  0  1  0  0  0  0  0  0  0  0  0
  149.5130  140.3293  153.2064 O   0  0  0  0  0  0  0  0  0  0  0  0
  148.9143  139.3962  155.4067 C   0  0  1  0  0  0  0  0  0  0  0  0
  150.2524  139.7083  155.7672 O   0  0  0  0  0  0  0  0  0  0  0  0
  148.6226  141.5567  158.2079 C   0  0  0  0  0  0  0  0  0  0  0  0
  149.1715  141.8826  159.4017 C   0  0  0  0  0  0  0  0  0  0  0  0
  149.2880  143.8146  159.8238 Br  0  0  0  0  0  0  0  0  0  0  0  0
  149.8236  138.7966  160.4312 H   0  0  0  0  0  0  0  0  0  0  0  0
  147.0849  139.1579  156.6426 H   0  0  0  0  0  0  0  0  0  0  0  0
  148.7478  142.0659  155.0329 H   0  0  0  0  0  0  0  0  0  0  0  0
  146.8535  141.7739  152.8530 H   0  0  0  0  0  0  0  0  0  0  0  0
  145.9976  142.3299  154.2778 H   0  0  0  0  0  0  0  0  0  0  0  0
  147.7493  143.9165  154.4623 H   0  0  0  0  0  0  0  0  0  0  0  0
  147.6769  139.5522  153.6698 H   0  0  0  0  0  0  0  0  0  0  0  0
  149.7854  139.4870  152.8760 H   0  0  0  0  0  0  0  0  0  0  0  0
  148.8340  138.3146  155.2931 H   0  0  0  0  0  0  0  0  0  0  0  0
  150.2323  140.3758  156.4356 H   0  0  0  0  0  0  0  0  0  0  0  0
  148.2931  142.3658  157.5747 H   0  0  0  0  0  0  0  0  0  0  0  0
  1  2  2  0  0  0  0
  2 17  1  0  0  0  0
  2  3  1  0  0  0  0
  3 19  1  0  0  0  0
  3  4  1  0  0  0  0
  4  5  2  0  0  0  0
  4  6  1  0  0  0  0
  6  7  1  0  0  0  0
  6 16  1  0  0  0  0
  7 14  1  0  0  0  0
  7  8  1  0  0  0  0
  7 20  1  0  0  0  0
  8  9  1  0  0  0  0
  9 10  1  0  0  0  0
  9 12  1  0  0  0  0
  9 21  1  0  0  0  0
 10 11  1  0  0  0  0
 10 22  1  0  0  0  0
 10 23  1  0  0  0  0
 11 24  1  0  0  0  0
 12 13  1  0  0  0  0
 12 14  1  0  0  0  0
 12 25  1  0  0  0  0
 13 26  1  0  0  0  0
 14 15  1  0  0  0  0
 14 27  1  0  0  0  0
 15 28  1  0  0  0  0
 16 17  2  0  0  0  0
 16 29  1  0  0  0  0
 17 18  1  0  0  0  0
M  END
> <s_m_source_file>
AV-unprocessed.smi

> <i_m_source_file_index>
35

> <i_lp_mmshare_version>
43012

> <i_f3d_flags>
0

> <s_epik_input>
Tz1jMVtuSF1jKD1PKW4oW2NIXWMxQnIpW0NAQEhdMk9bQ0BASF0oW0NIMl1bT0hdKVtDQEBIXShbT0hdKVtDQEhdMltPSF0=

> <s_epik_cmdline>
J2VwaWtfcHl0aG9uJywgJy1waCcsICc3LjAnLCAnLXRuJywgJzgnLCAnLW1hJywgJzIwMCcsICctbWV0YWxfYmluZGluZycsICctaW1hZScsICc8aW5maWxlLm1hZT4nLCAnLW9tYWUnLCAnPG91dGZpbGUubWFlPic=

> <r_lp_tautomer_probability>
0.999537

> <r_epik_Ionization_Penalty>
0.10812

> <r_epik_Ionization_Penalty_Charging>
0.108119

> <r_epik_Ionization_Penalty_Neutral>
4.93006e-07

> <r_epik_State_Penalty>
0.0979238

> <r_epik_Charging_Adjusted_Penalty>
0.206043

> <i_epik_Tot_Q>
0

> <i_epik_Tot_abs_Q>
0

> <r_epik_Metal_State_Penalty>
3.07911

> <b_epik_Metal_Only>
0

> <s_epik_Chemistry_Notes>
This compound contains an acetal/aminal-like group ( X-CH(R)-Y where X, Y are N, S, or O) that may be acid/base labile, releasing an aldehyde.

> <s_lp_Force_Field>
OPLS_2005

> <r_lp_Energy>
39.8494

> <b_lp_Chiralities_Consistent>
1

> <s_lp_Variant>
AV-unprocessed.smi:35-4

> <Gold.Version>
5.8.1

> <Gold.Id.Protein>
6NUR|6NUR_protein|mol2

> <Gold.PLP.Fitness>
37.3182

> <Gold.PLP.PLP>
-29.5490

> <Gold.PLP.part.hbond>
-1.9643

> <Gold.PLP.part.metal>
0.0000

> <Gold.PLP.part.buried>
-2.9302

> <Gold.PLP.part.nonpolar>
-22.9130

> <Gold.PLP.part.repulsive>
0.1850

> <Gold.PLP.ligand.clash>
0.0000

> <Gold.PLP.ligand.torsion>
1.0205

> <Gold.PLP.Chemscore.Hbond>
2.3173

> <Gold.PLP.Chemscore.CHOScore>
0.9418

> <Gold.PLP.Chemscore.Metal>
0.0000

> <Gold.Chemscore.Hbonds>
donor molecule, donor type, donor heavy atom, donor atom, acceptor molecule, acceptor atom, score
      L1  H    11    24       P1  8028  0.90
      P1  H  7989  7998       L1    13  0.11
      P1  H  8011  8017       L1    13  0.39

> <Gold.PLP.Chemscore.Internal.Correction>
0.0333

> <Gold.Rescore>
     Score         DG    S(hbond)    S(metal)    S(lipo)     H(rot)  DE(clash)    DE(int)     intcor
      5.96      -8.21       1.63        0.00      57.12       3.67       1.23       1.02       ----

> <Gold.Chemscore.Fitness>
5.9618

> <Gold.Chemscore.DG>
-8.2136

> <Gold.Chemscore.ZeroCoef>
-5.4800

> <Gold.Chemscore.Hbond>
1.6304

> <Gold.Chemscore.Metal>
0.0000

> <Gold.Chemscore.Lipo>
57.1226

> <Gold.Chemscore.Internal_Hbond>
0.0000

> <Gold.Chemscore.DEClash>
1.2350

> <Gold.Chemscore.DEInternal>
1.0168

> <Gold.Chemscore.Rot>
3.6701

> <Gold.Chemscore.Internal.Correction>
   9.000000E+99

> <Gold.Chemscore.Hbonds>
donor molecule, donor type, donor heavy atom, donor atom, acceptor molecule, acceptor atom, score
      L1  H    11    24       P1  8028  0.18
      L1  H    13    26       P1  7957  0.01
      P1  H  8011  8017       L1    13  0.38

> <Gold.Chemscore.Hbond.Weighted>
-5.4457

> <Gold.Chemscore.Metal.Weighted>
-0.0000

> <Gold.Chemscore.Lipo.Weighted>
-6.6833

> <Gold.Chemscore.Internal_Hbond.Weighted>
0.0000

> <Gold.Chemscore.DEClash.Weighted>
1.2350

> <Gold.Chemscore.DEInternal.Weighted>
1.0168

> <Gold.Chemscore.Rot.Weighted>
9.3955

> <Gold.Chemscore.Internal.Correction.Weighted>
   9.000000E+99

> <Gold.Protein.RotatedTorsions>
[ 6907 6896 6895 6894 ] final   30.29 input  -60.11 | X-H torsion
[ 7974 7965 7964 7962 ] final -100.36 input  175.53 | X-H torsion
[ 8008 7997 7996 7995 ] final   88.45 input   59.86 | X-H torsion
[ 10167 10162 10161 10158 ] final   44.85 input  -65.29 | X-H torsion
[ 10718 10713 10712 10709 ] final  107.88 input   66.30 | X-H torsion
[ 10763 10752 10751 10750 ] final  165.25 input  -60.55 | X-H torsion
[ 11005 11000 10999 10996 ] final   16.70 input  -57.11 | X-H torsion

> <Gold.Protein.ActiveResidues>
 VAL166  LYS551  ARG553  GLY616  TRP617  ASP618  TYR619  PRO620  LYS621  CYS622 
 ASP623  PHE694  ASN695  SER759  ASP760  ASP761  ALA762  ILE779  LEU786  VAL792 
 PHE793  MET794  SER795  GLU796  ALA797  LYS798  CYS799  TRP800  GLU811  SER814 

> <Gold.Protein.RotatedAtoms>
  152.0439  134.9695  160.0573 H   0  0  0  0  0  0  0  0  0  0  0  0  # atno 6907 bound_to 6896
  152.1122  133.4302  159.4645 H   0  0  0  0  0  0  0  0  0  0  0  0  # atno 6908 bound_to 6896
  150.6844  134.2553  159.4570 H   0  0  0  0  0  0  0  0  0  0  0  0  # atno 6909 bound_to 6896
  145.2956  140.9364  143.2853 H   0  0  0  0  0  0  0  0  0  0  0  0  # atno 7974 bound_to 7965
  155.9879  140.3371  155.6725 H   0  0  0  0  0  0  0  0  0  0  0  0  # atno 8008 bound_to 7997
  155.6460  140.0700  157.2620 H   0  0  0  0  0  0  0  0  0  0  0  0  # atno 8009 bound_to 7997
  154.4210  140.1734  156.1612 H   0  0  0  0  0  0  0  0  0  0  0  0  # atno 8010 bound_to 7997
  140.3301  144.2599  150.6169 H   0  0  0  0  0  0  0  0  0  0  0  0  # atno 10167 bound_to 10162
  157.6610  131.0882  150.6222 H   0  0  0  0  0  0  0  0  0  0  0  0  # atno 10718 bound_to 10713
  154.3211  135.2756  155.2519 H   0  0  0  0  0  0  0  0  0  0  0  0  # atno 10763 bound_to 10752
  154.4872  135.5843  153.6436 H   0  0  0  0  0  0  0  0  0  0  0  0  # atno 10764 bound_to 10752
  152.9876  135.6125  154.3396 H   0  0  0  0  0  0  0  0  0  0  0  0  # atno 10765 bound_to 10752
  140.4442  134.1291  155.7694 H   0  0  0  0  0  0  0  0  0  0  0  0  # atno 11005 bound_to 11000
  144.9136  139.4498  143.6575 LP  0  0  0  0  0  0  0  0  0  0  0  0  # atno 17320 bound_to 7965
  146.3170  139.7958  142.8976 LP  0  0  0  0  0  0  0  0  0  0  0  0  # atno 17321 bound_to 7965
  140.5405  143.2224  151.8093 LP  0  0  0  0  0  0  0  0  0  0  0  0  # atno 17342 bound_to 10162
  139.4858  144.4606  151.9545 LP  0  0  0  0  0  0  0  0  0  0  0  0  # atno 17343 bound_to 10162
  156.6525  130.4489  149.5714 LP  0  0  0  0  0  0  0  0  0  0  0  0  # atno 17370 bound_to 10713
  156.2127  130.6688  151.1286 LP  0  0  0  0  0  0  0  0  0  0  0  0  # atno 17371 bound_to 10713
  141.1692  133.8642  157.1621 LP  0  0  0  0  0  0  0  0  0  0  0  0  # atno 17394 bound_to 11000
  140.0050  135.0012  157.0272 LP  0  0  0  0  0  0  0  0  0  0  0  0  # atno 17395 bound_to 11000

$$$$
