AV-unprocessed.smi:1381|AV-procd|sdf|5607|dock8
  -GOLD-   22720 5213D 1   1.00000     0.00000
 Structure written by MMmdl.
 43 44  0  0  0  0  0  0  0  0  2 V2000
  151.5112  141.5283  156.2046 C   0  0  0  0  0  0  0  0  0  0  0  0
  151.4962  140.1713  155.5890 C   0  0  0  0  0  0  0  0  0  0  0  0
  150.4860  139.3293  155.2174 C   0  0  0  0  0  0  0  0  0  0  0  0
  151.1817  138.2045  154.6997 C   0  0  0  0  0  0  0  0  0  0  0  0
  150.4776  137.0819  154.1941 N   0  0  0  0  0  0  0  0  0  0  0  0
  150.3382  135.8765  154.7718 C   0  0  0  0  0  0  0  0  0  0  0  0
  150.8044  135.5536  155.8649 O   0  0  0  0  0  0  0  0  0  0  0  0
  149.6212  135.0445  154.0025 N   0  0  0  0  0  0  0  0  0  0  0  0
  149.2979  133.6648  154.3469 C   0  0  0  0  0  0  0  0  0  0  0  0
  148.6883  132.9127  153.1480 C   0  0  0  0  0  0  0  0  0  0  0  0
  147.5299  133.6284  152.5586 N   0  3  1  0  0  0  0  0  0  0  0  0
  146.7906  132.7956  151.5822 C   0  0  0  0  0  0  0  0  0  0  0  0
  145.6665  133.6113  150.9190 C   0  0  1  0  0  0  0  0  0  0  0  0
  144.8216  132.7573  149.9672 C   0  0  0  0  0  0  0  0  0  0  0  0
  144.8016  134.1324  151.9248 O   0  0  0  0  0  0  0  0  0  0  0  0
  145.4425  134.9520  152.9024 C   0  0  2  0  0  0  0  0  0  0  0  0
  145.8662  136.3171  152.3316 C   0  0  0  0  0  0  0  0  0  0  0  0
  146.5969  134.1801  153.5717 C   0  0  0  0  0  0  0  0  0  0  0  0
  152.4971  138.3467  154.7511 N   0  0  0  0  0  0  0  0  0  0  0  0
  152.7056  139.6075  155.3221 O   0  0  0  0  0  0  0  0  0  0  0  0
  150.5146  141.9696  156.1995 H   0  0  0  0  0  0  0  0  0  0  0  0
  152.1784  142.1944  155.6574 H   0  0  0  0  0  0  0  0  0  0  0  0
  151.8544  141.4793  157.2379 H   0  0  0  0  0  0  0  0  0  0  0  0
  149.4223  139.4955  155.3029 H   0  0  0  0  0  0  0  0  0  0  0  0
  150.0390  137.2096  153.2941 H   0  0  0  0  0  0  0  0  0  0  0  0
  149.2748  135.3891  153.1189 H   0  0  0  0  0  0  0  0  0  0  0  0
  150.1970  133.1702  154.7156 H   0  0  0  0  0  0  0  0  0  0  0  0
  148.5897  133.6800  155.1758 H   0  0  0  0  0  0  0  0  0  0  0  0
  149.4648  132.8036  152.3894 H   0  0  0  0  0  0  0  0  0  0  0  0
  148.3871  131.9016  153.4265 H   0  0  0  0  0  0  0  0  0  0  0  0
  147.4755  132.4307  150.8157 H   0  0  0  0  0  0  0  0  0  0  0  0
  146.3790  131.9201  152.0875 H   0  0  0  0  0  0  0  0  0  0  0  0
  146.0991  134.4299  150.3435 H   0  0  0  0  0  0  0  0  0  0  0  0
  145.4332  132.3341  149.1700 H   0  0  0  0  0  0  0  0  0  0  0  0
  144.0368  133.3541  149.5018 H   0  0  0  0  0  0  0  0  0  0  0  0
  144.3425  131.9325  150.4953 H   0  0  0  0  0  0  0  0  0  0  0  0
  144.6908  135.1513  153.6667 H   0  0  0  0  0  0  0  0  0  0  0  0
  146.2264  136.9721  153.1252 H   0  0  0  0  0  0  0  0  0  0  0  0
  145.0239  136.8158  151.8515 H   0  0  0  0  0  0  0  0  0  0  0  0
  146.6662  136.2299  151.5969 H   0  0  0  0  0  0  0  0  0  0  0  0
  146.1904  133.3587  154.1640 H   0  0  0  0  0  0  0  0  0  0  0  0
  147.1198  134.8367  154.2663 H   0  0  0  0  0  0  0  0  0  0  0  0
  147.9047  134.4101  152.0402 H   0  0  0  0  0  0  0  0  0  0  0  0
  1  2  1  0  0  0  0
  1 21  1  0  0  0  0
  1 22  1  0  0  0  0
  1 23  1  0  0  0  0
  2 20  1  0  0  0  0
  2  3  2  0  0  0  0
  3  4  1  0  0  0  0
  3 24  1  0  0  0  0
  4  5  1  0  0  0  0
  4 19  2  0  0  0  0
  5  6  1  0  0  0  0
  5 25  1  0  0  0  0
  6  7  2  0  0  0  0
  6  8  1  0  0  0  0
  8  9  1  0  0  0  0
  8 26  1  0  0  0  0
  9 10  1  0  0  0  0
  9 27  1  0  0  0  0
  9 28  1  0  0  0  0
 10 11  1  0  0  0  0
 10 29  1  0  0  0  0
 10 30  1  0  0  0  0
 11 18  1  0  0  0  0
 11 12  1  0  0  0  0
 11 43  1  0  0  0  0
 12 13  1  0  0  0  0
 12 31  1  0  0  0  0
 12 32  1  0  0  0  0
 13 14  1  0  0  0  0
 13 15  1  0  0  0  0
 13 33  1  0  0  0  0
 14 34  1  0  0  0  0
 14 35  1  0  0  0  0
 14 36  1  0  0  0  0
 15 16  1  0  0  0  0
 16 17  1  0  0  0  0
 16 18  1  0  0  0  0
 16 37  1  0  0  0  0
 17 38  1  0  0  0  0
 17 39  1  0  0  0  0
 17 40  1  0  0  0  0
 18 41  1  0  0  0  0
 18 42  1  0  0  0  0
 19 20  1  0  0  0  0
M  CHG  1  11   1
M  END
> <s_m_source_file>
AV-unprocessed.smi

> <i_m_source_file_index>
1381

> <i_lp_mmshare_version>
43012

> <i_f3d_flags>
0

> <s_epik_input>
W0NIM11jMVtjSF1jKG5vMSlbTkhdQyg9TylbTkhdW0NIMl1bQ0gyXU4yW0NIMl1bQ0BASF0oW0NIM10pT1tDQEBIXShbQ0gzXSlbQ0gyXTI=

> <s_epik_cmdline>
J2VwaWtfcHl0aG9uJywgJy1waCcsICc3LjAnLCAnLXRuJywgJzgnLCAnLW1hJywgJzIwMCcsICctbWV0YWxfYmluZGluZycsICctaW1hZScsICc8aW5maWxlLm1hZT4nLCAnLW9tYWUnLCAnPG91dGZpbGUubWFlPic=

> <r_epik_Ionization_Penalty>
0.707076

> <r_epik_Ionization_Penalty_Charging>
0.707039

> <r_epik_Ionization_Penalty_Neutral>
3.6548e-05

> <r_epik_State_Penalty>
0.730276

> <r_epik_Charging_Adjusted_Penalty>
1.43732

> <i_epik_Tot_Q>
1

> <i_epik_Tot_abs_Q>
1

> <r_epik_Metal_State_Penalty>
0.743132

> <b_epik_Metal_Only>
0

> <s_lp_Force_Field>
OPLS_2005

> <r_lp_Energy>
14.2109

> <b_lp_Chiralities_Consistent>
1

> <s_lp_Variant>
AV-unprocessed.smi:1381-6

> <Gold.Version>
5.8.1

> <Gold.Id.Protein>
6NUR|6NUR_protein|mol2

> <Gold.PLP.Fitness>
43.7020

> <Gold.PLP.PLP>
-31.0535

> <Gold.PLP.part.hbond>
-5.3655

> <Gold.PLP.part.metal>
0.0000

> <Gold.PLP.part.buried>
-2.8831

> <Gold.PLP.part.nonpolar>
-23.9488

> <Gold.PLP.part.repulsive>
0.2807

> <Gold.PLP.ligand.clash>
0.0000

> <Gold.PLP.ligand.torsion>
0.8511

> <Gold.PLP.Chemscore.Hbond>
4.7767

> <Gold.PLP.Chemscore.CHOScore>
0.0000

> <Gold.PLP.Chemscore.Metal>
0.0000

> <Gold.Chemscore.Hbonds>
donor molecule, donor type, donor heavy atom, donor atom, acceptor molecule, acceptor atom, score
      L1  H     5    25       P1  7948  0.82
      L1  H     8    26       P1  7948  0.75
      L1  H    11    43       P1  7948  1.70
      P1  H  7997  8008       L1    20  1.00

> <Gold.PLP.Chemscore.Internal.Correction>
0.0205

> <Gold.Rescore>
     Score         DG    S(hbond)    S(metal)    S(lipo)     H(rot)  DE(clash)    DE(int)     intcor
     17.05     -18.13       2.90        0.00      60.42       1.61       0.14       0.94       ----

> <Gold.Chemscore.Fitness>
17.0503

> <Gold.Chemscore.DG>
-18.1277

> <Gold.Chemscore.ZeroCoef>
-5.4800

> <Gold.Chemscore.Hbond>
2.9026

> <Gold.Chemscore.Metal>
0.0000

> <Gold.Chemscore.Lipo>
60.4243

> <Gold.Chemscore.Internal_Hbond>
0.0000

> <Gold.Chemscore.DEClash>
0.1421

> <Gold.Chemscore.DEInternal>
0.9353

> <Gold.Chemscore.Rot>
1.6081

> <Gold.Chemscore.Internal.Correction>
   9.000000E+99

> <Gold.Chemscore.Hbonds>
donor molecule, donor type, donor heavy atom, donor atom, acceptor molecule, acceptor atom, score
      L1  H     5    25       P1  7948  0.18
      L1  H     8    26       P1  7948  0.11
      L1  H    11    43       P1  7948  0.16
      P1  H  7997  8008       L1    20  0.99

> <Gold.Chemscore.Hbond.Weighted>
-9.6948

> <Gold.Chemscore.Metal.Weighted>
-0.0000

> <Gold.Chemscore.Lipo.Weighted>
-7.0696

> <Gold.Chemscore.Internal_Hbond.Weighted>
0.0000

> <Gold.Chemscore.DEClash.Weighted>
0.1421

> <Gold.Chemscore.DEInternal.Weighted>
0.9353

> <Gold.Chemscore.Rot.Weighted>
4.1167

> <Gold.Chemscore.Internal.Correction.Weighted>
   9.000000E+99

> <Gold.Protein.RotatedTorsions>
[ 6907 6896 6895 6894 ] final  -30.68 input  -60.11 | X-H torsion
[ 7974 7965 7964 7962 ] final -135.08 input  175.53 | X-H torsion
[ 8008 7997 7996 7995 ] final  -19.78 input   59.86 | X-H torsion
[ 10167 10162 10161 10158 ] final  -75.23 input  -65.29 | X-H torsion
[ 10718 10713 10712 10709 ] final -123.60 input   66.30 | X-H torsion
[ 10763 10752 10751 10750 ] final  -64.50 input  -60.55 | X-H torsion
[ 11005 11000 10999 10996 ] final  -18.77 input  -57.11 | X-H torsion

> <Gold.Protein.ActiveResidues>
 VAL166  LYS551  ARG553  GLY616  TRP617  ASP618  TYR619  PRO620  LYS621  CYS622 
 ASP623  PHE694  ASN695  SER759  ASP760  ASP761  ALA762  ILE779  LEU786  VAL792 
 PHE793  MET794  SER795  GLU796  ALA797  LYS798  CYS799  TRP800  GLU811  SER814 

> <Gold.Protein.RotatedAtoms>
  151.1023  134.9979  159.8454 H   0  0  0  0  0  0  0  0  0  0  0  0  # atno 6907 bound_to 6896
  152.5438  134.1936  159.8694 H   0  0  0  0  0  0  0  0  0  0  0  0  # atno 6908 bound_to 6896
  151.1979  133.4584  159.2629 H   0  0  0  0  0  0  0  0  0  0  0  0  # atno 6909 bound_to 6896
  144.9045  140.6815  143.5064 H   0  0  0  0  0  0  0  0  0  0  0  0  # atno 7974 bound_to 7965
  154.4814  140.2079  155.9756 H   0  0  0  0  0  0  0  0  0  0  0  0  # atno 8008 bound_to 7997
  156.1170  140.3219  155.8123 H   0  0  0  0  0  0  0  0  0  0  0  0  # atno 8009 bound_to 7997
  155.4535  140.0519  157.2989 H   0  0  0  0  0  0  0  0  0  0  0  0  # atno 8010 bound_to 7997
  140.4960  143.2370  151.7830 H   0  0  0  0  0  0  0  0  0  0  0  0  # atno 10167 bound_to 10162
  156.1516  130.6538  150.9922 H   0  0  0  0  0  0  0  0  0  0  0  0  # atno 10718 bound_to 10713
  154.3310  135.6176  153.5551 H   0  0  0  0  0  0  0  0  0  0  0  0  # atno 10763 bound_to 10752
  152.9811  135.5747  154.4961 H   0  0  0  0  0  0  0  0  0  0  0  0  # atno 10764 bound_to 10752
  154.4648  135.2857  155.1663 H   0  0  0  0  0  0  0  0  0  0  0  0  # atno 10765 bound_to 10752
  140.8301  133.8003  155.9750 H   0  0  0  0  0  0  0  0  0  0  0  0  # atno 11005 bound_to 11000
  145.3558  139.1694  143.4410 LP  0  0  0  0  0  0  0  0  0  0  0  0  # atno 17320 bound_to 7965
  146.3126  140.3615  142.8665 LP  0  0  0  0  0  0  0  0  0  0  0  0  # atno 17321 bound_to 7965
  139.4861  144.4586  151.9568 LP  0  0  0  0  0  0  0  0  0  0  0  0  # atno 17342 bound_to 10162
  140.3674  144.2898  150.5924 LP  0  0  0  0  0  0  0  0  0  0  0  0  # atno 17343 bound_to 10162
  157.6661  131.0871  150.7724 LP  0  0  0  0  0  0  0  0  0  0  0  0  # atno 17370 bound_to 10713
  156.7792  130.4853  149.5404 LP  0  0  0  0  0  0  0  0  0  0  0  0  # atno 17371 bound_to 10713
  140.9007  134.2382  157.5043 LP  0  0  0  0  0  0  0  0  0  0  0  0  # atno 17394 bound_to 11000
  139.8705  134.9705  156.4703 LP  0  0  0  0  0  0  0  0  0  0  0  0  # atno 17395 bound_to 11000

$$$$
