AV-unprocessed.smi:1535|AV-procd|sdf|6180|dock10
  -GOLD-   22720 6343D 1   1.00000     0.00000
 Structure written by MMmdl.
 47 48  0  0  0  0  0  0  0  0  2 V2000
  152.7820  143.1418  160.7374 C   0  0  0  0  0  0  0  0  0  0  0  0
  152.1886  142.5607  159.4659 C   0  0  0  0  0  0  0  0  0  0  0  0
  152.6934  141.3382  158.9685 C   0  0  0  0  0  0  0  0  0  0  0  0
  152.1693  140.7644  157.7897 C   0  0  0  0  0  0  0  0  0  0  0  0
  152.5085  139.5950  157.1313 N   0  0  0  0  0  0  0  0  0  0  0  0
  151.6673  139.6121  156.1020 C   0  0  0  0  0  0  0  0  0  0  0  0
  150.8313  140.6645  156.0069 N   0  0  0  0  0  0  0  0  0  0  0  0
  149.8446  140.9084  154.9707 C   0  0  0  0  0  0  0  0  0  0  0  0
  149.4548  139.6238  154.2126 C   0  0  2  0  0  0  0  0  0  0  0  0
  148.3910  139.9395  153.3377 O   0  0  0  0  0  0  0  0  0  0  0  0
  149.0051  138.4711  155.1352 C   0  0  0  0  0  0  0  0  0  0  0  0
  149.5331  137.1630  154.6702 N   0  3  1  0  0  0  0  0  0  0  0  0
  151.0009  137.1847  154.4689 C   0  0  0  0  0  0  0  0  0  0  0  0
  149.1019  136.0210  155.5148 C   0  0  0  0  0  0  0  0  0  0  0  0
  149.9379  134.7522  155.2559 C   0  0  2  0  0  0  0  0  0  0  0  0
  149.3301  133.8972  154.1369 C   0  0  0  0  0  0  0  0  0  0  0  0
  150.1043  133.9620  156.4865 C   0  0  0  0  0  0  0  0  0  0  0  0
  150.2363  133.3449  157.4552 N   0  0  0  0  0  0  0  0  0  0  0  0
  151.1189  141.4534  157.1157 C   0  0  0  0  0  0  0  0  0  0  0  0
  150.6047  142.6677  157.6038 C   0  0  0  0  0  0  0  0  0  0  0  0
  151.1401  143.2272  158.7825 C   0  0  0  0  0  0  0  0  0  0  0  0
  150.5800  144.5402  159.3004 C   0  0  0  0  0  0  0  0  0  0  0  0
  153.5856  142.5149  161.1248 H   0  0  0  0  0  0  0  0  0  0  0  0
  152.0187  143.2235  161.5116 H   0  0  0  0  0  0  0  0  0  0  0  0
  153.1935  144.1337  160.5496 H   0  0  0  0  0  0  0  0  0  0  0  0
  153.4900  140.8286  159.4907 H   0  0  0  0  0  0  0  0  0  0  0  0
  151.6669  138.8193  155.3683 H   0  0  0  0  0  0  0  0  0  0  0  0
  148.9634  141.3593  155.4303 H   0  0  0  0  0  0  0  0  0  0  0  0
  150.2525  141.6491  154.2815 H   0  0  0  0  0  0  0  0  0  0  0  0
  150.3015  139.3059  153.6047 H   0  0  0  0  0  0  0  0  0  0  0  0
  148.7420  140.0734  152.4698 H   0  0  0  0  0  0  0  0  0  0  0  0
  149.3346  138.6316  156.1625 H   0  0  0  0  0  0  0  0  0  0  0  0
  147.9160  138.4643  155.1779 H   0  0  0  0  0  0  0  0  0  0  0  0
  151.5236  137.3079  155.4185 H   0  0  0  0  0  0  0  0  0  0  0  0
  151.2992  138.0001  153.8096 H   0  0  0  0  0  0  0  0  0  0  0  0
  151.3405  136.2549  154.0115 H   0  0  0  0  0  0  0  0  0  0  0  0
  149.2120  136.2897  156.5666 H   0  0  0  0  0  0  0  0  0  0  0  0
  148.0398  135.8284  155.3554 H   0  0  0  0  0  0  0  0  0  0  0  0
  150.9437  135.0323  154.9456 H   0  0  0  0  0  0  0  0  0  0  0  0
  149.9408  133.0144  153.9457 H   0  0  0  0  0  0  0  0  0  0  0  0
  149.2608  134.4591  153.2051 H   0  0  0  0  0  0  0  0  0  0  0  0
  148.3277  133.5571  154.3989 H   0  0  0  0  0  0  0  0  0  0  0  0
  149.8041  143.1651  157.0767 H   0  0  0  0  0  0  0  0  0  0  0  0
  149.7694  144.9042  158.6684 H   0  0  0  0  0  0  0  0  0  0  0  0
  151.3569  145.3047  159.3213 H   0  0  0  0  0  0  0  0  0  0  0  0
  150.1868  144.4172  160.3098 H   0  0  0  0  0  0  0  0  0  0  0  0
  149.1242  137.0009  153.7602 H   0  0  0  0  0  0  0  0  0  0  0  0
  1  2  1  0  0  0  0
  1 23  1  0  0  0  0
  1 24  1  0  0  0  0
  1 25  1  0  0  0  0
  2 21  1  0  0  0  0
  2  3  2  0  0  0  0
  3  4  1  0  0  0  0
  3 26  1  0  0  0  0
  4 19  2  0  0  0  0
  4  5  1  0  0  0  0
  5  6  2  0  0  0  0
  6  7  1  0  0  0  0
  6 27  1  0  0  0  0
  7  8  1  0  0  0  0
  7 19  1  0  0  0  0
  8  9  1  0  0  0  0
  8 28  1  0  0  0  0
  8 29  1  0  0  0  0
  9 10  1  0  0  0  0
  9 11  1  0  0  0  0
  9 30  1  0  0  0  0
 10 31  1  0  0  0  0
 11 12  1  0  0  0  0
 11 32  1  0  0  0  0
 11 33  1  0  0  0  0
 12 13  1  0  0  0  0
 12 14  1  0  0  0  0
 12 47  1  0  0  0  0
 13 34  1  0  0  0  0
 13 35  1  0  0  0  0
 13 36  1  0  0  0  0
 14 15  1  0  0  0  0
 14 37  1  0  0  0  0
 14 38  1  0  0  0  0
 15 16  1  0  0  0  0
 15 17  1  0  0  0  0
 15 39  1  0  0  0  0
 16 40  1  0  0  0  0
 16 41  1  0  0  0  0
 16 42  1  0  0  0  0
 17 18  3  0  0  0  0
 19 20  1  0  0  0  0
 20 21  2  0  0  0  0
 20 43  1  0  0  0  0
 21 22  1  0  0  0  0
 22 44  1  0  0  0  0
 22 45  1  0  0  0  0
 22 46  1  0  0  0  0
M  CHG  1  12   1
M  END
> <s_m_source_file>
AV-unprocessed.smi

> <i_m_source_file_index>
1535

> <i_lp_mmshare_version>
43012

> <i_f3d_flags>
0

> <s_epik_input>
W0NIM11jKFtjSF0xKWMoW0NIM10pW2NIXWMoYzEyKW4oW2NIXW4yKVtDSDJdW0NASF0oW09IXSlbQ0gyXU4oW0NIM10pW0NIMl1bQ0BIXShbQ0gzXSlDI04=

> <s_epik_cmdline>
J2VwaWtfcHl0aG9uJywgJy1waCcsICc3LjAnLCAnLXRuJywgJzgnLCAnLW1hJywgJzIwMCcsICctbWV0YWxfYmluZGluZycsICctaW1hZScsICc8aW5maWxlLm1hZT4nLCAnLW9tYWUnLCAnPG91dGZpbGUubWFlPic=

> <r_epik_Ionization_Penalty>
2.21058

> <r_epik_Ionization_Penalty_Charging>
2.12381

> <r_epik_Ionization_Penalty_Neutral>
0.0867699

> <r_epik_State_Penalty>
2.36208

> <r_epik_Charging_Adjusted_Penalty>
4.48589

> <i_epik_Tot_Q>
1

> <i_epik_Tot_abs_Q>
1

> <r_epik_Metal_State_Penalty>
2.2818

> <b_epik_Metal_Only>
0

> <s_lp_Force_Field>
OPLS_2005

> <r_lp_Energy>
13.2218

> <b_lp_Chiralities_Consistent>
1

> <s_lp_Variant>
AV-unprocessed.smi:1535-11

> <Gold.Version>
5.8.1

> <Gold.Id.Protein>
6NUR|6NUR_protein|mol2

> <Gold.PLP.Fitness>
56.2589

> <Gold.PLP.PLP>
-44.0741

> <Gold.PLP.part.hbond>
-4.0000

> <Gold.PLP.part.metal>
0.0000

> <Gold.PLP.part.buried>
-3.7097

> <Gold.PLP.part.nonpolar>
-36.7286

> <Gold.PLP.part.repulsive>
0.0160

> <Gold.PLP.ligand.clash>
0.0000

> <Gold.PLP.ligand.torsion>
1.4794

> <Gold.PLP.Chemscore.Hbond>
5.0000

> <Gold.PLP.Chemscore.CHOScore>
0.0000

> <Gold.PLP.Chemscore.Metal>
0.0000

> <Gold.Chemscore.Hbonds>
donor molecule, donor type, donor heavy atom, donor atom, acceptor molecule, acceptor atom, score
      L1  H    10    31       P1  7957  1.00
      L1  H    12    47       P1  7948  1.95
      P1  H  6896  6909       L1    18  1.00
      P1  H  7997  8008       L1     5  0.95

> <Gold.PLP.Chemscore.Internal.Correction>
0.1437

> <Gold.Rescore>
     Score         DG    S(hbond)    S(metal)    S(lipo)     H(rot)  DE(clash)    DE(int)     intcor
     21.12     -22.91       3.51        0.00     105.70       2.60       0.36       1.43       ----

> <Gold.Chemscore.Fitness>
21.1228

> <Gold.Chemscore.DG>
-22.9140

> <Gold.Chemscore.ZeroCoef>
-5.4800

> <Gold.Chemscore.Hbond>
3.5123

> <Gold.Chemscore.Metal>
0.0000

> <Gold.Chemscore.Lipo>
105.6992

> <Gold.Chemscore.Internal_Hbond>
0.0000

> <Gold.Chemscore.DEClash>
0.3575

> <Gold.Chemscore.DEInternal>
1.4337

> <Gold.Chemscore.Rot>
2.6031

> <Gold.Chemscore.Internal.Correction>
   9.000000E+99

> <Gold.Chemscore.Hbonds>
donor molecule, donor type, donor heavy atom, donor atom, acceptor molecule, acceptor atom, score
      L1  H    10    31       P1  7957  0.97
      L1  H    12    47       P1  7948  0.91
      P1  H  6896  6909       L1    18  0.97
      P1  H  7997  8008       L1     5  0.13

> <Gold.Chemscore.Hbond.Weighted>
-11.7312

> <Gold.Chemscore.Metal.Weighted>
-0.0000

> <Gold.Chemscore.Lipo.Weighted>
-12.3668

> <Gold.Chemscore.Internal_Hbond.Weighted>
0.0000

> <Gold.Chemscore.DEClash.Weighted>
0.3575

> <Gold.Chemscore.DEInternal.Weighted>
1.4337

> <Gold.Chemscore.Rot.Weighted>
6.6640

> <Gold.Chemscore.Internal.Correction.Weighted>
   9.000000E+99

> <Gold.Protein.RotatedTorsions>
[ 6907 6896 6895 6894 ] final  -16.52 input  -60.11 | X-H torsion
[ 7974 7965 7964 7962 ] final  -81.80 input  175.53 | X-H torsion
[ 8008 7997 7996 7995 ] final  -47.87 input   59.86 | X-H torsion
[ 10167 10162 10161 10158 ] final  -65.95 input  -65.29 | X-H torsion
[ 10718 10713 10712 10709 ] final  -24.70 input   66.30 | X-H torsion
[ 10763 10752 10751 10750 ] final  104.16 input  -60.55 | X-H torsion
[ 11005 11000 10999 10996 ] final  -14.51 input  -57.11 | X-H torsion

> <Gold.Protein.ActiveResidues>
 VAL166  LYS551  ARG553  GLY616  TRP617  ASP618  TYR619  PRO620  LYS621  CYS622 
 ASP623  PHE694  ASN695  SER759  ASP760  ASP761  ALA762  ILE779  LEU786  VAL792 
 PHE793  MET794  SER795  GLU796  ALA797  LYS798  CYS799  TRP800  GLU811  SER814 

> <Gold.Protein.RotatedAtoms>
  151.3074  135.0785  159.9259 H   0  0  0  0  0  0  0  0  0  0  0  0  # atno 6907 bound_to 6896
  152.5285  133.9771  159.7799 H   0  0  0  0  0  0  0  0  0  0  0  0  # atno 6908 bound_to 6896
  151.0069  133.5951  159.2718 H   0  0  0  0  0  0  0  0  0  0  0  0  # atno 6909 bound_to 6896
  145.5418  140.9508  143.1547 H   0  0  0  0  0  0  0  0  0  0  0  0  # atno 7974 bound_to 7965
  154.4022  140.1335  156.4246 H   0  0  0  0  0  0  0  0  0  0  0  0  # atno 8008 bound_to 7997
  155.7610  140.3486  155.5178 H   0  0  0  0  0  0  0  0  0  0  0  0  # atno 8009 bound_to 7997
  155.8859  140.0995  157.1443 H   0  0  0  0  0  0  0  0  0  0  0  0  # atno 8010 bound_to 7997
  140.5692  143.2316  151.6572 H   0  0  0  0  0  0  0  0  0  0  0  0  # atno 10167 bound_to 10162
  156.4741  130.4531  149.6851 H   0  0  0  0  0  0  0  0  0  0  0  0  # atno 10718 bound_to 10713
  153.3623  135.3952  155.1727 H   0  0  0  0  0  0  0  0  0  0  0  0  # atno 10763 bound_to 10752
  154.8681  135.3682  154.5083 H   0  0  0  0  0  0  0  0  0  0  0  0  # atno 10764 bound_to 10752
  153.5544  135.7082  153.5636 H   0  0  0  0  0  0  0  0  0  0  0  0  # atno 10765 bound_to 10752
  140.7872  133.8316  155.9346 H   0  0  0  0  0  0  0  0  0  0  0  0  # atno 11005 bound_to 11000
  144.7573  139.7042  143.7249 LP  0  0  0  0  0  0  0  0  0  0  0  0  # atno 17320 bound_to 7965
  146.1976  139.5251  142.9764 LP  0  0  0  0  0  0  0  0  0  0  0  0  # atno 17321 bound_to 7965
  139.5109  144.3528  152.0636 LP  0  0  0  0  0  0  0  0  0  0  0  0  # atno 17342 bound_to 10162
  140.2664  144.4012  150.6167 LP  0  0  0  0  0  0  0  0  0  0  0  0  # atno 17343 bound_to 10162
  156.3588  130.7470  151.2440 LP  0  0  0  0  0  0  0  0  0  0  0  0  # atno 17370 bound_to 10713
  157.7489  131.0356  150.4371 LP  0  0  0  0  0  0  0  0  0  0  0  0  # atno 17371 bound_to 10713
  140.9425  134.1882  157.4787 LP  0  0  0  0  0  0  0  0  0  0  0  0  # atno 17394 bound_to 11000
  139.8735  134.9877  156.5381 LP  0  0  0  0  0  0  0  0  0  0  0  0  # atno 17395 bound_to 11000

$$$$
