AV-unprocessed.smi:2168|AV-procd|sdf|8818|dock10
  -GOLD-   2272012 13D 1   1.00000     0.00000
 Structure written by MMmdl.
 46 47  0  0  0  0  0  0  0  0  1 V2000
  154.2415  131.7722  162.6303 C   0  0  0  0  0  0  0  0  0  0  0  0
  155.1213  132.9934  162.3241 C   0  0  0  0  0  0  0  0  0  0  0  0
  154.6036  134.2222  162.9525 N   0  0  0  0  0  0  0  0  0  0  0  0
  154.7966  134.3110  164.4133 C   0  0  0  0  0  0  0  0  0  0  0  0
  153.6815  133.5699  165.1642 C   0  0  0  0  0  0  0  0  0  0  0  0
  154.6720  135.6864  162.0219 S   0  0  0  0  0  0  0  0  0  0  0  0
  154.2544  135.3907  160.6428 O   0  0  0  0  0  0  0  0  0  0  0  0
  154.0347  136.7718  162.7835 O   0  0  0  0  0  0  0  0  0  0  0  0
  156.3718  135.9589  162.0266 N   0  0  0  0  0  0  0  0  0  0  0  0
  156.9705  136.9879  161.1831 C   0  0  0  0  0  0  0  0  0  0  0  0
  156.1346  138.2508  161.1531 C   0  0  0  0  0  0  0  0  0  0  0  0
  155.9891  139.0455  162.3062 C   0  0  0  0  0  0  0  0  0  0  0  0
  155.1861  140.1999  162.2409 C   0  0  0  0  0  0  0  0  0  0  0  0
  154.5453  140.5287  161.0219 C   0  0  0  0  0  0  0  0  0  0  0  0
  153.7269  141.6764  160.9358 N   0  0  0  0  0  0  0  0  0  0  0  0
  153.0976  142.1016  162.1843 C   0  0  0  0  0  0  0  0  0  0  0  0
  152.4971  143.5097  162.0305 C   0  0  0  0  0  0  0  0  0  0  0  0
  151.6017  143.5343  160.9243 O   0  0  0  0  0  0  0  0  0  0  0  0
  152.2637  143.2284  159.7019 C   0  0  0  0  0  0  0  0  0  0  0  0
  152.8512  141.8089  159.7725 C   0  0  0  0  0  0  0  0  0  0  0  0
  154.6986  139.7634  159.9120 N   0  0  0  0  0  0  0  0  0  0  0  0
  155.4687  138.6569  159.9799 C   0  0  0  0  0  0  0  0  0  0  0  0
  154.6034  130.8952  162.0933 H   0  0  0  0  0  0  0  0  0  0  0  0
  153.2098  131.9452  162.3231 H   0  0  0  0  0  0  0  0  0  0  0  0
  154.2407  131.5238  163.6915 H   0  0  0  0  0  0  0  0  0  0  0  0
  156.1479  132.8231  162.6505 H   0  0  0  0  0  0  0  0  0  0  0  0
  155.1604  133.1289  161.2434 H   0  0  0  0  0  0  0  0  0  0  0  0
  155.7700  133.9082  164.6954 H   0  0  0  0  0  0  0  0  0  0  0  0
  154.8095  135.3585  164.7157 H   0  0  0  0  0  0  0  0  0  0  0  0
  153.8334  133.6368  166.2415 H   0  0  0  0  0  0  0  0  0  0  0  0
  153.6580  132.5130  164.8999 H   0  0  0  0  0  0  0  0  0  0  0  0
  152.6994  133.9884  164.9458 H   0  0  0  0  0  0  0  0  0  0  0  0
  156.8481  135.7591  162.9056 H   0  0  0  0  0  0  0  0  0  0  0  0
  157.9724  137.2134  161.5493 H   0  0  0  0  0  0  0  0  0  0  0  0
  157.0817  136.5997  160.1700 H   0  0  0  0  0  0  0  0  0  0  0  0
  156.4831  138.7752  163.2281 H   0  0  0  0  0  0  0  0  0  0  0  0
  155.0820  140.8209  163.1179 H   0  0  0  0  0  0  0  0  0  0  0  0
  152.3137  141.3886  162.4427 H   0  0  0  0  0  0  0  0  0  0  0  0
  153.8041  142.1086  163.0128 H   0  0  0  0  0  0  0  0  0  0  0  0
  151.9526  143.7860  162.9335 H   0  0  0  0  0  0  0  0  0  0  0  0
  153.2831  144.2542  161.8927 H   0  0  0  0  0  0  0  0  0  0  0  0
  151.5478  143.2978  158.8831 H   0  0  0  0  0  0  0  0  0  0  0  0
  153.0457  143.9636  159.5051 H   0  0  0  0  0  0  0  0  0  0  0  0
  153.4057  141.6027  158.8561 H   0  0  0  0  0  0  0  0  0  0  0  0
  152.0465  141.0752  159.8401 H   0  0  0  0  0  0  0  0  0  0  0  0
  155.5485  138.0773  159.0720 H   0  0  0  0  0  0  0  0  0  0  0  0
  1  2  1  0  0  0  0
  1 23  1  0  0  0  0
  1 24  1  0  0  0  0
  1 25  1  0  0  0  0
  2  3  1  0  0  0  0
  2 26  1  0  0  0  0
  2 27  1  0  0  0  0
  3  4  1  0  0  0  0
  3  6  1  0  0  0  0
  4  5  1  0  0  0  0
  4 28  1  0  0  0  0
  4 29  1  0  0  0  0
  5 30  1  0  0  0  0
  5 31  1  0  0  0  0
  5 32  1  0  0  0  0
  6  7  2  0  0  0  0
  6  8  2  0  0  0  0
  6  9  1  0  0  0  0
  9 10  1  0  0  0  0
  9 33  1  0  0  0  0
 10 11  1  0  0  0  0
 10 34  1  0  0  0  0
 10 35  1  0  0  0  0
 11 22  1  0  0  0  0
 11 12  2  0  0  0  0
 12 13  1  0  0  0  0
 12 36  1  0  0  0  0
 13 14  2  0  0  0  0
 13 37  1  0  0  0  0
 14 15  1  0  0  0  0
 14 21  1  0  0  0  0
 15 20  1  0  0  0  0
 15 16  1  0  0  0  0
 16 17  1  0  0  0  0
 16 38  1  0  0  0  0
 16 39  1  0  0  0  0
 17 18  1  0  0  0  0
 17 40  1  0  0  0  0
 17 41  1  0  0  0  0
 18 19  1  0  0  0  0
 19 20  1  0  0  0  0
 19 42  1  0  0  0  0
 19 43  1  0  0  0  0
 20 44  1  0  0  0  0
 20 45  1  0  0  0  0
 21 22  2  0  0  0  0
 22 46  1  0  0  0  0
M  END
> <s_m_source_file>
AV-unprocessed.smi

> <i_m_source_file_index>
2168

> <i_lp_mmshare_version>
43012

> <i_f3d_flags>
0

> <s_epik_input>
W0NIM11bQ0gyXU4oW0NIMl1bQ0gzXSlTKD1PKSg9TylbTkhdW0NIMl1jMVtjSF1bY0hdYyhuW2NIXTEpTjJbQ0gyXVtDSDJdT1tDSDJdW0NIMl0y

> <s_epik_cmdline>
J2VwaWtfcHl0aG9uJywgJy1waCcsICc3LjAnLCAnLXRuJywgJzgnLCAnLW1hJywgJzIwMCcsICctbWV0YWxfYmluZGluZycsICctaW1hZScsICc8aW5maWxlLm1hZT4nLCAnLW9tYWUnLCAnPG91dGZpbGUubWFlPic=

> <r_lp_tautomer_probability>
1

> <r_epik_Ionization_Penalty>
0.0173889

> <r_epik_Ionization_Penalty_Charging>
0

> <r_epik_Ionization_Penalty_Neutral>
0.0173889

> <r_epik_State_Penalty>
0.0135122

> <r_epik_Charging_Adjusted_Penalty>
0.0135122

> <i_epik_Tot_Q>
0

> <i_epik_Tot_abs_Q>
0

> <r_epik_Metal_State_Penalty>
0.283451

> <b_epik_Metal_Only>
0

> <s_lp_Force_Field>
OPLS_2005

> <r_lp_Energy>
21.8709

> <b_lp_Chiralities_Consistent>
1

> <s_lp_Variant>
AV-unprocessed.smi:2168-1

> <Gold.Version>
5.8.1

> <Gold.Id.Protein>
6NUR|6NUR_protein|mol2

> <Gold.PLP.Fitness>
38.9551

> <Gold.PLP.PLP>
-37.5692

> <Gold.PLP.part.hbond>
-1.3007

> <Gold.PLP.part.metal>
0.0000

> <Gold.PLP.part.buried>
-5.4101

> <Gold.PLP.part.nonpolar>
-31.2627

> <Gold.PLP.part.repulsive>
0.1208

> <Gold.PLP.ligand.clash>
0.0000

> <Gold.PLP.ligand.torsion>
2.7929

> <Gold.PLP.Chemscore.Hbond>
0.9913

> <Gold.PLP.Chemscore.CHOScore>
0.0000

> <Gold.PLP.Chemscore.Metal>
0.0000

> <Gold.Chemscore.Hbonds>
donor molecule, donor type, donor heavy atom, donor atom, acceptor molecule, acceptor atom, score
      P1  H  6896  6908       L1     7  0.99

> <Gold.PLP.Chemscore.Internal.Correction>
3.9979

> <Gold.Rescore>
     Score         DG    S(hbond)    S(metal)    S(lipo)     H(rot)  DE(clash)    DE(int)     intcor
     13.14     -15.73       0.99        0.00      96.99       1.72       0.01       2.58       ----

> <Gold.Chemscore.Fitness>
13.1415

> <Gold.Chemscore.DG>
-15.7335

> <Gold.Chemscore.ZeroCoef>
-5.4800

> <Gold.Chemscore.Hbond>
0.9891

> <Gold.Chemscore.Metal>
0.0000

> <Gold.Chemscore.Lipo>
96.9858

> <Gold.Chemscore.Internal_Hbond>
0.0000

> <Gold.Chemscore.DEClash>
0.0089

> <Gold.Chemscore.DEInternal>
2.5831

> <Gold.Chemscore.Rot>
1.7177

> <Gold.Chemscore.Internal.Correction>
   9.000000E+99

> <Gold.Chemscore.Hbonds>
donor molecule, donor type, donor heavy atom, donor atom, acceptor molecule, acceptor atom, score
      P1  H  6896  6908       L1     7  0.92

> <Gold.Chemscore.Hbond.Weighted>
-3.3035

> <Gold.Chemscore.Metal.Weighted>
-0.0000

> <Gold.Chemscore.Lipo.Weighted>
-11.3473

> <Gold.Chemscore.Internal_Hbond.Weighted>
0.0000

> <Gold.Chemscore.DEClash.Weighted>
0.0089

> <Gold.Chemscore.DEInternal.Weighted>
2.5831

> <Gold.Chemscore.Rot.Weighted>
4.3974

> <Gold.Chemscore.Internal.Correction.Weighted>
   9.000000E+99

> <Gold.Protein.RotatedTorsions>
[ 6907 6896 6895 6894 ] final  -51.44 input  -60.11 | X-H torsion
[ 7974 7965 7964 7962 ] final   26.53 input  175.53 | X-H torsion
[ 8008 7997 7996 7995 ] final  -79.23 input   59.86 | X-H torsion
[ 10167 10162 10161 10158 ] final  -55.52 input  -65.29 | X-H torsion
[ 10718 10713 10712 10709 ] final   39.86 input   66.30 | X-H torsion
[ 10763 10752 10751 10750 ] final -137.72 input  -60.55 | X-H torsion
[ 11005 11000 10999 10996 ] final  175.96 input  -57.11 | X-H torsion

> <Gold.Protein.ActiveResidues>
 VAL166  LYS551  ARG553  GLY616  TRP617  ASP618  TYR619  PRO620  LYS621  CYS622 
 ASP623  PHE694  ASN695  SER759  ASP760  ASP761  ALA762  ILE779  LEU786  VAL792 
 PHE793  MET794  SER795  GLU796  ALA797  LYS798  CYS799  TRP800  GLU811  SER814 

> <Gold.Protein.RotatedAtoms>
  150.8612  134.7964  159.7083 H   0  0  0  0  0  0  0  0  0  0  0  0  # atno 6907 bound_to 6896
  152.4648  134.5098  159.9760 H   0  0  0  0  0  0  0  0  0  0  0  0  # atno 6908 bound_to 6896
  151.5201  133.3430  159.2935 H   0  0  0  0  0  0  0  0  0  0  0  0  # atno 6909 bound_to 6896
  146.1832  139.7315  142.8885 H   0  0  0  0  0  0  0  0  0  0  0  0  # atno 7974 bound_to 7965
  154.5765  140.0681  156.9042 H   0  0  0  0  0  0  0  0  0  0  0  0  # atno 8008 bound_to 7997
  155.2539  140.3353  155.4261 H   0  0  0  0  0  0  0  0  0  0  0  0  # atno 8009 bound_to 7997
  156.2158  140.1778  156.7578 H   0  0  0  0  0  0  0  0  0  0  0  0  # atno 8010 bound_to 7997
  140.6369  143.2487  151.5093 H   0  0  0  0  0  0  0  0  0  0  0  0  # atno 10167 bound_to 10162
  157.3755  130.7725  149.7152 H   0  0  0  0  0  0  0  0  0  0  0  0  # atno 10718 bound_to 10713
  154.8655  135.3633  154.5269 H   0  0  0  0  0  0  0  0  0  0  0  0  # atno 10763 bound_to 10752
  153.5896  135.7016  153.5433 H   0  0  0  0  0  0  0  0  0  0  0  0  # atno 10764 bound_to 10752
  153.3385  135.4104  155.1514 H   0  0  0  0  0  0  0  0  0  0  0  0  # atno 10765 bound_to 10752
  140.3679  134.7056  157.4373 H   0  0  0  0  0  0  0  0  0  0  0  0  # atno 11005 bound_to 11000
  145.4015  141.0385  143.3068 LP  0  0  0  0  0  0  0  0  0  0  0  0  # atno 17320 bound_to 7965
  144.8351  139.5563  143.6926 LP  0  0  0  0  0  0  0  0  0  0  0  0  # atno 17321 bound_to 7965
  139.5580  144.2228  152.1644 LP  0  0  0  0  0  0  0  0  0  0  0  0  # atno 17342 bound_to 10162
  140.1487  144.5134  150.6700 LP  0  0  0  0  0  0  0  0  0  0  0  0  # atno 17343 bound_to 10162
  155.9764  130.4075  150.3779 LP  0  0  0  0  0  0  0  0  0  0  0  0  # atno 17370 bound_to 10713
  157.1876  131.0407  151.2716 LP  0  0  0  0  0  0  0  0  0  0  0  0  # atno 17371 bound_to 10713
  140.0575  134.6043  155.8788 LP  0  0  0  0  0  0  0  0  0  0  0  0  # atno 17394 bound_to 11000
  141.1964  133.6591  156.5689 LP  0  0  0  0  0  0  0  0  0  0  0  0  # atno 17395 bound_to 11000

$$$$
