AV-unprocessed.smi:1216|AV-procd|sdf|5101|dock1
  -GOLD-   22720 4153D 1   1.00000     0.00000
 Structure written by MMmdl.
 42 43  0  0  0  0  0  0  0  0  1 V2000
  152.1123  137.4702  157.5586 C   0  0  0  0  0  0  0  0  0  0  0  0
  151.5298  138.5119  158.5232 C   0  0  1  0  0  0  0  0  0  0  0  0
  151.9342  139.9442  158.1144 C   0  0  0  0  0  0  0  0  0  0  0  0
  151.1405  140.4594  157.0136 N   0  0  0  0  0  0  0  0  0  0  0  0
  150.4483  141.6628  156.9701 C   0  0  0  0  0  0  0  0  0  0  0  0
  149.8501  141.7273  155.7322 C   0  0  0  0  0  0  0  0  0  0  0  0
  150.1527  140.5789  155.0046 N   0  0  0  0  0  0  0  0  0  0  0  0
  150.9179  139.8748  155.8284 C   0  0  0  0  0  0  0  0  0  0  0  0
  150.0745  138.3703  158.5529 N   0  0  0  0  0  0  0  0  0  0  0  0
  149.4012  137.2649  158.9090 C   0  0  0  0  0  0  0  0  0  0  0  0
  149.9528  136.2212  159.2613 O   0  0  0  0  0  0  0  0  0  0  0  0
  147.8710  137.3782  158.8830 C   0  0  0  0  0  0  0  0  0  0  0  0
  147.1977  136.3315  159.6665 N   0  0  0  0  0  0  0  0  0  0  0  0
  146.3767  135.3698  158.9136 C   0  0  0  0  0  0  0  0  0  0  0  0
  146.9599  133.9382  158.8849 C   0  0  0  0  0  0  0  0  0  0  0  0
  147.7922  133.5179  160.1122 C   0  0  0  0  0  0  0  0  0  0  0  0
  147.1000  133.7311  161.4746 C   0  0  0  0  0  0  0  0  0  0  0  0
  146.5691  135.1553  161.7651 C   0  0  0  0  0  0  0  0  0  0  0  0
  147.3085  136.2774  161.0177 C   0  0  0  0  0  0  0  0  0  0  0  0
  147.9703  137.0858  161.6695 O   0  0  0  0  0  0  0  0  0  0  0  0
  153.2017  137.5125  157.5475 H   0  0  0  0  0  0  0  0  0  0  0  0
  151.7626  137.6322  156.5385 H   0  0  0  0  0  0  0  0  0  0  0  0
  151.8267  136.4598  157.8528 H   0  0  0  0  0  0  0  0  0  0  0  0
  151.9435  138.2990  159.5108 H   0  0  0  0  0  0  0  0  0  0  0  0
  151.8125  140.6238  158.9588 H   0  0  0  0  0  0  0  0  0  0  0  0
  152.9881  139.9806  157.8349 H   0  0  0  0  0  0  0  0  0  0  0  0
  150.4434  142.3561  157.7979 H   0  0  0  0  0  0  0  0  0  0  0  0
  149.2286  142.5048  155.3130 H   0  0  0  0  0  0  0  0  0  0  0  0
  151.3315  138.9131  155.5616 H   0  0  0  0  0  0  0  0  0  0  0  0
  149.5358  139.1809  158.2838 H   0  0  0  0  0  0  0  0  0  0  0  0
  147.5927  138.3626  159.2614 H   0  0  0  0  0  0  0  0  0  0  0  0
  147.5254  137.3602  157.8475 H   0  0  0  0  0  0  0  0  0  0  0  0
  145.3706  135.3515  159.3330 H   0  0  0  0  0  0  0  0  0  0  0  0
  146.2264  135.7136  157.8893 H   0  0  0  0  0  0  0  0  0  0  0  0
  146.1448  133.2295  158.7353 H   0  0  0  0  0  0  0  0  0  0  0  0
  147.5970  133.8419  158.0052 H   0  0  0  0  0  0  0  0  0  0  0  0
  148.0566  132.4647  160.0131 H   0  0  0  0  0  0  0  0  0  0  0  0
  148.7451  134.0489  160.1016 H   0  0  0  0  0  0  0  0  0  0  0  0
  146.2710  133.0281  161.5633 H   0  0  0  0  0  0  0  0  0  0  0  0
  147.8030  133.4528  162.2606 H   0  0  0  0  0  0  0  0  0  0  0  0
  145.5069  135.2147  161.5287 H   0  0  0  0  0  0  0  0  0  0  0  0
  146.6248  135.3444  162.8379 H   0  0  0  0  0  0  0  0  0  0  0  0
  1  2  1  0  0  0  0
  1 21  1  0  0  0  0
  1 22  1  0  0  0  0
  1 23  1  0  0  0  0
  2  3  1  0  0  0  0
  2  9  1  0  0  0  0
  2 24  1  0  0  0  0
  3  4  1  0  0  0  0
  3 25  1  0  0  0  0
  3 26  1  0  0  0  0
  4  8  1  0  0  0  0
  4  5  1  0  0  0  0
  5  6  2  0  0  0  0
  5 27  1  0  0  0  0
  6  7  1  0  0  0  0
  6 28  1  0  0  0  0
  7  8  2  0  0  0  0
  8 29  1  0  0  0  0
  9 10  1  0  0  0  0
  9 30  1  0  0  0  0
 10 11  2  0  0  0  0
 10 12  1  0  0  0  0
 12 13  1  0  0  0  0
 12 31  1  0  0  0  0
 12 32  1  0  0  0  0
 13 19  1  0  0  0  0
 13 14  1  0  0  0  0
 14 15  1  0  0  0  0
 14 33  1  0  0  0  0
 14 34  1  0  0  0  0
 15 16  1  0  0  0  0
 15 35  1  0  0  0  0
 15 36  1  0  0  0  0
 16 17  1  0  0  0  0
 16 37  1  0  0  0  0
 16 38  1  0  0  0  0
 17 18  1  0  0  0  0
 17 39  1  0  0  0  0
 17 40  1  0  0  0  0
 18 19  1  0  0  0  0
 18 41  1  0  0  0  0
 18 42  1  0  0  0  0
 19 20  2  0  0  0  0
M  END
> <s_m_source_file>
AV-unprocessed.smi

> <i_m_source_file_index>
1216

> <i_lp_mmshare_version>
43012

> <i_f3d_flags>
0

> <s_epik_input>
W2NIXTFuW2NIXVtjSF1uMVtDSDJdW0NAQEhdKFtDSDNdKVtOSF1DKD1PKVtDSDJdTjJbQ0gyXVtDSDJdW0NIMl1bQ0gyXVtDSDJdQzI9Tw==

> <s_epik_cmdline>
J2VwaWtfcHl0aG9uJywgJy1waCcsICc3LjAnLCAnLXRuJywgJzgnLCAnLW1hJywgJzIwMCcsICctbWV0YWxfYmluZGluZycsICctaW1hZScsICc8aW5maWxlLm1hZT4nLCAnLW9tYWUnLCAnPG91dGZpbGUubWFlPic=

> <r_lp_tautomer_probability>
1

> <r_epik_Ionization_Penalty>
0.623868

> <r_epik_Ionization_Penalty_Charging>
0.623868

> <r_epik_Ionization_Penalty_Neutral>
4.50838e-08

> <r_epik_State_Penalty>
0.640129

> <r_epik_Charging_Adjusted_Penalty>
1.264

> <i_epik_Tot_Q>
0

> <i_epik_Tot_abs_Q>
0

> <r_epik_Metal_State_Penalty>
0.307431

> <b_epik_Metal_Only>
0

> <s_lp_Force_Field>
OPLS_2005

> <r_lp_Energy>
20.3142

> <b_lp_Chiralities_Consistent>
1

> <s_lp_Variant>
AV-unprocessed.smi:1216-4

> <Gold.Version>
5.8.1

> <Gold.Id.Protein>
6NUR|6NUR_protein|mol2

> <Gold.PLP.Fitness>
42.4159

> <Gold.PLP.PLP>
-29.2805

> <Gold.PLP.part.hbond>
-4.0000

> <Gold.PLP.part.metal>
0.0000

> <Gold.PLP.part.buried>
-4.7301

> <Gold.PLP.part.nonpolar>
-21.3700

> <Gold.PLP.part.repulsive>
0.2532

> <Gold.PLP.ligand.clash>
0.0000

> <Gold.PLP.ligand.torsion>
0.4891

> <Gold.PLP.Chemscore.Hbond>
3.6640

> <Gold.PLP.Chemscore.CHOScore>
0.9978

> <Gold.PLP.Chemscore.Metal>
0.0000

> <Gold.Chemscore.Hbonds>
donor molecule, donor type, donor heavy atom, donor atom, acceptor molecule, acceptor atom, score
      P1  H  6896  6907       L1    11  1.00
      P1  H  6931  6943       L1    20  1.00
      P1  H  6934  6947       L1    20  0.35
      P1  H  7989  7998       L1     7  0.59
      L1  C     6    28       P1  8028  1.00

> <Gold.PLP.Chemscore.Internal.Correction>
0.1283

> <Gold.Rescore>
     Score         DG    S(hbond)    S(metal)    S(lipo)     H(rot)  DE(clash)    DE(int)     intcor
     16.63     -17.93       3.56        0.00      51.41       2.13       0.01       1.29       ----

> <Gold.Chemscore.Fitness>
16.6254

> <Gold.Chemscore.DG>
-17.9283

> <Gold.Chemscore.ZeroCoef>
-5.4800

> <Gold.Chemscore.Hbond>
3.5617

> <Gold.Chemscore.Metal>
0.0000

> <Gold.Chemscore.Lipo>
51.4061

> <Gold.Chemscore.Internal_Hbond>
0.0000

> <Gold.Chemscore.DEClash>
0.0126

> <Gold.Chemscore.DEInternal>
1.2902

> <Gold.Chemscore.Rot>
2.1338

> <Gold.Chemscore.Internal.Correction>
   9.000000E+99

> <Gold.Chemscore.Hbonds>
donor molecule, donor type, donor heavy atom, donor atom, acceptor molecule, acceptor atom, score
      P1  H  6896  6907       L1    11  0.98
      P1  H  6931  6943       L1    20  0.98
      P1  H  6934  6947       L1    20  0.14
      P1  H  7989  7998       L1     7  0.08

> <Gold.Chemscore.Hbond.Weighted>
-11.8962

> <Gold.Chemscore.Metal.Weighted>
-0.0000

> <Gold.Chemscore.Lipo.Weighted>
-6.0145

> <Gold.Chemscore.Internal_Hbond.Weighted>
0.0000

> <Gold.Chemscore.DEClash.Weighted>
0.0126

> <Gold.Chemscore.DEInternal.Weighted>
1.2902

> <Gold.Chemscore.Rot.Weighted>
5.4625

> <Gold.Chemscore.Internal.Correction.Weighted>
   9.000000E+99

> <Gold.Protein.RotatedTorsions>
[ 6907 6896 6895 6894 ] final  -61.83 input  -60.11 | X-H torsion
[ 7974 7965 7964 7962 ] final -160.20 input  175.53 | X-H torsion
[ 8008 7997 7996 7995 ] final  100.50 input   59.86 | X-H torsion
[ 10167 10162 10161 10158 ] final   -4.41 input  -65.29 | X-H torsion
[ 10718 10713 10712 10709 ] final -120.08 input   66.30 | X-H torsion
[ 10763 10752 10751 10750 ] final   22.61 input  -60.55 | X-H torsion
[ 11005 11000 10999 10996 ] final    1.01 input  -57.11 | X-H torsion

> <Gold.Protein.ActiveResidues>
 VAL166  LYS551  ARG553  GLY616  TRP617  ASP618  TYR619  PRO620  LYS621  CYS622 
 ASP623  PHE694  ASN695  SER759  ASP760  ASP761  ALA762  ILE779  LEU786  VAL792 
 PHE793  MET794  SER795  GLU796  ALA797  LYS798  CYS799  TRP800  GLU811  SER814 

> <Gold.Protein.RotatedAtoms>
  150.7758  134.6653  159.6361 H   0  0  0  0  0  0  0  0  0  0  0  0  # atno 6907 bound_to 6896
  152.3826  134.6563  160.0146 H   0  0  0  0  0  0  0  0  0  0  0  0  # atno 6908 bound_to 6896
  151.6888  133.3274  159.3274 H   0  0  0  0  0  0  0  0  0  0  0  0  # atno 6909 bound_to 6896
  144.7436  140.3575  143.6103 H   0  0  0  0  0  0  0  0  0  0  0  0  # atno 7974 bound_to 7965
  156.1210  140.3212  155.8208 H   0  0  0  0  0  0  0  0  0  0  0  0  # atno 8008 bound_to 7997
  155.4505  140.0532  157.3019 H   0  0  0  0  0  0  0  0  0  0  0  0  # atno 8009 bound_to 7997
  154.4827  140.2060  155.9740 H   0  0  0  0  0  0  0  0  0  0  0  0  # atno 8010 bound_to 7997
  140.6926  143.6426  150.8421 H   0  0  0  0  0  0  0  0  0  0  0  0  # atno 10167 bound_to 10162
  156.1230  130.6338  150.9496 H   0  0  0  0  0  0  0  0  0  0  0  0  # atno 10718 bound_to 10713
  153.0902  135.6644  153.9870 H   0  0  0  0  0  0  0  0  0  0  0  0  # atno 10763 bound_to 10752
  153.9468  135.2988  155.3442 H   0  0  0  0  0  0  0  0  0  0  0  0  # atno 10764 bound_to 10752
  154.7315  135.5120  153.9045 H   0  0  0  0  0  0  0  0  0  0  0  0  # atno 10765 bound_to 10752
  140.6201  133.9669  155.8221 H   0  0  0  0  0  0  0  0  0  0  0  0  # atno 11005 bound_to 11000
  145.7212  139.1710  143.2483 LP  0  0  0  0  0  0  0  0  0  0  0  0  # atno 17320 bound_to 7965
  146.1276  140.7228  142.9428 LP  0  0  0  0  0  0  0  0  0  0  0  0  # atno 17321 bound_to 7965
  140.0141  143.5611  152.2827 LP  0  0  0  0  0  0  0  0  0  0  0  0  # atno 17342 bound_to 10162
  139.6346  144.7648  151.2465 LP  0  0  0  0  0  0  0  0  0  0  0  0  # atno 17343 bound_to 10162
  157.6413  131.0910  150.8245 LP  0  0  0  0  0  0  0  0  0  0  0  0  # atno 17370 bound_to 10713
  156.8339  130.5025  149.5328 LP  0  0  0  0  0  0  0  0  0  0  0  0  # atno 17371 bound_to 10713
  141.0748  134.0151  157.3474 LP  0  0  0  0  0  0  0  0  0  0  0  0  # atno 17394 bound_to 11000
  139.9157  135.0196  156.7870 LP  0  0  0  0  0  0  0  0  0  0  0  0  # atno 17395 bound_to 11000

$$$$
