AV-unprocessed.smi:3147|AV-procd|sdf|11989|dock2
  -GOLD-   2272017393D 1   1.00000     0.00000
 Structure written by MMmdl.
 36 37  0  0  0  0  0  0  0  0  1 V2000
  153.9124  141.2626  161.1317 C   0  0  0  0  0  0  0  0  0  0  0  0
  153.0458  141.2839  159.9110 C   0  0  0  0  0  0  0  0  0  0  0  0
  152.7038  140.1094  159.2449 N   0  0  0  0  0  0  0  0  0  0  0  0
  151.9417  140.5247  158.2428 C   0  0  0  0  0  0  0  0  0  0  0  0
  151.7600  141.8519  158.1937 N   0  0  0  0  0  0  0  0  0  0  0  0
  150.9775  142.5836  157.2085 C   0  0  0  0  0  0  0  0  0  0  0  0
  150.5253  141.7082  156.0332 C   0  0  0  0  0  0  0  0  0  0  0  0
  151.2852  140.8837  155.5229 O   0  0  0  0  0  0  0  0  0  0  0  0
  149.2651  141.9026  155.6167 N   0  0  0  0  0  0  0  0  0  0  0  0
  148.6044  141.1569  154.5494 C   0  0  0  0  0  0  0  0  0  0  0  0
  147.1121  141.5161  154.4107 C   0  0  2  0  0  0  0  0  0  0  0  0
  146.8114  142.9060  153.8418 C   0  0  0  0  0  0  0  0  0  0  0  0
  145.4289  143.1642  154.3961 C   0  0  0  0  0  0  0  0  0  0  0  0
  145.5398  142.5575  155.7912 C   0  0  0  0  0  0  0  0  0  0  0  0
  146.4406  141.4605  155.6677 O   0  0  0  0  0  0  0  0  0  0  0  0
  152.4720  142.3653  159.2766 C   0  0  0  0  0  0  0  0  0  0  0  0
  152.5317  143.8216  159.6066 C   0  0  0  0  0  0  0  0  0  0  0  0
  154.7935  141.8904  160.9980 H   0  0  0  0  0  0  0  0  0  0  0  0
  154.2582  140.2546  161.3619 H   0  0  0  0  0  0  0  0  0  0  0  0
  153.3708  141.6325  162.0025 H   0  0  0  0  0  0  0  0  0  0  0  0
  151.5046  139.8456  157.5253 H   0  0  0  0  0  0  0  0  0  0  0  0
  150.1075  143.0165  157.7035 H   0  0  0  0  0  0  0  0  0  0  0  0
  151.5747  143.4135  156.8285 H   0  0  0  0  0  0  0  0  0  0  0  0
  148.7135  142.6039  156.0891 H   0  0  0  0  0  0  0  0  0  0  0  0
  149.1193  141.3877  153.6167 H   0  0  0  0  0  0  0  0  0  0  0  0
  148.7202  140.0826  154.7016 H   0  0  0  0  0  0  0  0  0  0  0  0
  146.6318  140.7741  153.7710 H   0  0  0  0  0  0  0  0  0  0  0  0
  147.5030  143.6564  154.2261 H   0  0  0  0  0  0  0  0  0  0  0  0
  146.8480  142.9355  152.7526 H   0  0  0  0  0  0  0  0  0  0  0  0
  145.1606  144.2209  154.4102 H   0  0  0  0  0  0  0  0  0  0  0  0
  144.6823  142.6274  153.8092 H   0  0  0  0  0  0  0  0  0  0  0  0
  145.9699  143.2816  156.4835 H   0  0  0  0  0  0  0  0  0  0  0  0
  144.5756  142.2401  156.1884 H   0  0  0  0  0  0  0  0  0  0  0  0
  153.1882  144.0067  160.4566 H   0  0  0  0  0  0  0  0  0  0  0  0
  151.5414  144.1986  159.8620 H   0  0  0  0  0  0  0  0  0  0  0  0
  152.9080  144.3985  158.7619 H   0  0  0  0  0  0  0  0  0  0  0  0
  1  2  1  0  0  0  0
  1 18  1  0  0  0  0
  1 19  1  0  0  0  0
  1 20  1  0  0  0  0
  2 16  2  0  0  0  0
  2  3  1  0  0  0  0
  3  4  2  0  0  0  0
  4  5  1  0  0  0  0
  4 21  1  0  0  0  0
  5  6  1  0  0  0  0
  5 16  1  0  0  0  0
  6  7  1  0  0  0  0
  6 22  1  0  0  0  0
  6 23  1  0  0  0  0
  7  8  2  0  0  0  0
  7  9  1  0  0  0  0
  9 10  1  0  0  0  0
  9 24  1  0  0  0  0
 10 11  1  0  0  0  0
 10 25  1  0  0  0  0
 10 26  1  0  0  0  0
 11 15  1  0  0  0  0
 11 12  1  0  0  0  0
 11 27  1  0  0  0  0
 12 13  1  0  0  0  0
 12 28  1  0  0  0  0
 12 29  1  0  0  0  0
 13 14  1  0  0  0  0
 13 30  1  0  0  0  0
 13 31  1  0  0  0  0
 14 15  1  0  0  0  0
 14 32  1  0  0  0  0
 14 33  1  0  0  0  0
 16 17  1  0  0  0  0
 17 34  1  0  0  0  0
 17 35  1  0  0  0  0
 17 36  1  0  0  0  0
M  END
> <s_m_source_file>
AV-unprocessed.smi

> <i_m_source_file_index>
3147

> <i_lp_mmshare_version>
43012

> <i_f3d_flags>
0

> <s_epik_input>
W0NIM11jMW5bY0hdbihjMVtDSDNdKVtDSDJdQyg9TylbTkhdW0NIMl1bQ0BASF0yW0NIMl1bQ0gyXVtDSDJdTzI=

> <s_epik_cmdline>
J2VwaWtfcHl0aG9uJywgJy1waCcsICc3LjAnLCAnLXRuJywgJzgnLCAnLW1hJywgJzIwMCcsICctbWV0YWxfYmluZGluZycsICctaW1hZScsICc8aW5maWxlLm1hZT4nLCAnLW9tYWUnLCAnPG91dGZpbGUubWFlPic=

> <r_lp_tautomer_probability>
1

> <r_epik_Ionization_Penalty>
0.957393

> <r_epik_Ionization_Penalty_Charging>
0.957393

> <r_epik_Ionization_Penalty_Neutral>
1.43432e-07

> <r_epik_State_Penalty>
1.0022

> <r_epik_Charging_Adjusted_Penalty>
1.9596

> <i_epik_Tot_Q>
0

> <i_epik_Tot_abs_Q>
0

> <r_epik_Metal_State_Penalty>
0.374967

> <b_epik_Metal_Only>
0

> <s_lp_Force_Field>
OPLS_2005

> <r_lp_Energy>
19.2408

> <b_lp_Chiralities_Consistent>
1

> <s_lp_Variant>
AV-unprocessed.smi:3147-3

> <Gold.Version>
5.8.1

> <Gold.Id.Protein>
6NUR|6NUR_protein|mol2

> <Gold.PLP.Fitness>
40.8110

> <Gold.PLP.PLP>
-38.6240

> <Gold.PLP.part.hbond>
-2.0000

> <Gold.PLP.part.metal>
0.0000

> <Gold.PLP.part.buried>
-3.9567

> <Gold.PLP.part.nonpolar>
-31.9210

> <Gold.PLP.part.repulsive>
0.2533

> <Gold.PLP.ligand.clash>
0.0000

> <Gold.PLP.ligand.torsion>
0.4110

> <Gold.PLP.Chemscore.Hbond>
0.9971

> <Gold.PLP.Chemscore.CHOScore>
0.0000

> <Gold.PLP.Chemscore.Metal>
0.0000

> <Gold.Chemscore.Hbonds>
donor molecule, donor type, donor heavy atom, donor atom, acceptor molecule, acceptor atom, score
      L1  H     9    24       P1  8028  0.31
      P1  H  7989  7998       L1     8  0.67

> <Gold.PLP.Chemscore.Internal.Correction>
0.0176

> <Gold.Rescore>
     Score         DG    S(hbond)    S(metal)    S(lipo)     H(rot)  DE(clash)    DE(int)     intcor
     12.22     -13.59       1.08        0.00      75.84       1.70       0.14       1.23       ----

> <Gold.Chemscore.Fitness>
12.2213

> <Gold.Chemscore.DG>
-13.5942

> <Gold.Chemscore.ZeroCoef>
-5.4800

> <Gold.Chemscore.Hbond>
1.0785

> <Gold.Chemscore.Metal>
0.0000

> <Gold.Chemscore.Lipo>
75.8353

> <Gold.Chemscore.Internal_Hbond>
0.0000

> <Gold.Chemscore.DEClash>
0.1446

> <Gold.Chemscore.DEInternal>
1.2283

> <Gold.Chemscore.Rot>
1.7034

> <Gold.Chemscore.Internal.Correction>
   9.000000E+99

> <Gold.Chemscore.Hbonds>
donor molecule, donor type, donor heavy atom, donor atom, acceptor molecule, acceptor atom, score
      L1  H     9    24       P1  8028  0.31
      P1  H  7989  7998       L1     8  0.63

> <Gold.Chemscore.Hbond.Weighted>
-3.6022

> <Gold.Chemscore.Metal.Weighted>
-0.0000

> <Gold.Chemscore.Lipo.Weighted>
-8.8727

> <Gold.Chemscore.Internal_Hbond.Weighted>
0.0000

> <Gold.Chemscore.DEClash.Weighted>
0.1446

> <Gold.Chemscore.DEInternal.Weighted>
1.2283

> <Gold.Chemscore.Rot.Weighted>
4.3607

> <Gold.Chemscore.Internal.Correction.Weighted>
   9.000000E+99

> <Gold.Protein.RotatedTorsions>
[ 6907 6896 6895 6894 ] final  109.50 input  -60.11 | X-H torsion
[ 7974 7965 7964 7962 ] final   75.97 input  175.53 | X-H torsion
[ 8008 7997 7996 7995 ] final -139.47 input   59.86 | X-H torsion
[ 10167 10162 10161 10158 ] final   87.01 input  -65.29 | X-H torsion
[ 10718 10713 10712 10709 ] final -163.58 input   66.30 | X-H torsion
[ 10763 10752 10751 10750 ] final -164.35 input  -60.55 | X-H torsion
[ 11005 11000 10999 10996 ] final -126.36 input  -57.11 | X-H torsion

> <Gold.Protein.ActiveResidues>
 VAL166  LYS551  ARG553  GLY616  TRP617  ASP618  TYR619  PRO620  LYS621  CYS622 
 ASP623  PHE694  ASN695  SER759  ASP760  ASP761  ALA762  ILE779  LEU786  VAL792 
 PHE793  MET794  SER795  GLU796  ALA797  LYS798  CYS799  TRP800  GLU811  SER814 

> <Gold.Protein.RotatedAtoms>
  152.5064  133.8935  159.7405 H   0  0  0  0  0  0  0  0  0  0  0  0  # atno 6907 bound_to 6896
  150.9368  133.6694  159.2806 H   0  0  0  0  0  0  0  0  0  0  0  0  # atno 6908 bound_to 6896
  151.4020  135.0977  159.9611 H   0  0  0  0  0  0  0  0  0  0  0  0  # atno 6909 bound_to 6896
  145.7088  139.2607  143.1663 H   0  0  0  0  0  0  0  0  0  0  0  0  # atno 7974 bound_to 7965
  155.4454  140.0535  157.3006 H   0  0  0  0  0  0  0  0  0  0  0  0  # atno 8008 bound_to 7997
  154.4800  140.2077  155.9743 H   0  0  0  0  0  0  0  0  0  0  0  0  # atno 8009 bound_to 7997
  156.1191  140.3191  155.8186 H   0  0  0  0  0  0  0  0  0  0  0  0  # atno 8010 bound_to 7997
  139.8817  144.6436  150.8836 H   0  0  0  0  0  0  0  0  0  0  0  0  # atno 10167 bound_to 10162
  156.6267  130.8913  151.2969 H   0  0  0  0  0  0  0  0  0  0  0  0  # atno 10718 bound_to 10713
  154.7037  135.2993  154.9303 H   0  0  0  0  0  0  0  0  0  0  0  0  # atno 10763 bound_to 10752
  154.0227  135.6680  153.4778 H   0  0  0  0  0  0  0  0  0  0  0  0  # atno 10764 bound_to 10752
  153.0700  135.5066  154.8195 H   0  0  0  0  0  0  0  0  0  0  0  0  # atno 10765 bound_to 10752
  140.9687  134.0835  157.3892 H   0  0  0  0  0  0  0  0  0  0  0  0  # atno 11005 bound_to 11000
  146.0731  140.7847  142.9678 LP  0  0  0  0  0  0  0  0  0  0  0  0  # atno 17320 bound_to 7965
  144.6948  140.3373  143.7205 LP  0  0  0  0  0  0  0  0  0  0  0  0  # atno 17321 bound_to 7965
  140.7743  143.3581  151.1882 LP  0  0  0  0  0  0  0  0  0  0  0  0  # atno 17342 bound_to 10162
  139.7190  143.9254  152.2978 LP  0  0  0  0  0  0  0  0  0  0  0  0  # atno 17343 bound_to 10162
  157.7212  130.9561  150.1446 LP  0  0  0  0  0  0  0  0  0  0  0  0  # atno 17370 bound_to 10713
  156.2267  130.3678  149.8492 LP  0  0  0  0  0  0  0  0  0  0  0  0  # atno 17371 bound_to 10713
  139.8904  135.0112  156.6734 LP  0  0  0  0  0  0  0  0  0  0  0  0  # atno 17394 bound_to 11000
  140.7360  133.9018  155.8245 LP  0  0  0  0  0  0  0  0  0  0  0  0  # atno 17395 bound_to 11000

$$$$
