AV-unprocessed.smi:2083|AV-procd|sdf|8500|dock2
  -GOLD-   2272011213D 1   1.00000     0.00000
 Structure written by MMmdl.
 44 45  0  0  0  0  0  0  0  0  3 V2000
  147.3139  142.4004  154.6269 C   0  0  0  0  0  0  0  0  0  0  0  0
  148.5388  141.5656  154.7820 C   0  0  0  0  0  0  0  0  0  0  0  0
  149.4030  141.0108  153.8813 C   0  0  0  0  0  0  0  0  0  0  0  0
  150.3527  140.3500  154.7077 C   0  0  0  0  0  0  0  0  0  0  0  0
  151.4115  139.6427  154.2843 N   0  5  0  0  0  0  0  0  0  0  0  0
  152.4313  139.3748  155.1307 C   0  0  0  0  0  0  0  0  0  0  0  0
  153.6327  139.5402  154.9060 O   0  0  0  0  0  0  0  0  0  0  0  0
  152.0359  138.8787  156.3117 N   0  0  0  0  0  0  0  0  0  0  0  0
  152.9162  138.4867  157.4086 C   0  0  0  0  0  0  0  0  0  0  0  0
  152.2802  138.7231  158.8073 C   0  0  2  0  0  0  0  0  0  0  0  0
  150.7831  138.3407  158.7854 C   0  0  0  0  0  0  0  0  0  0  0  0
  152.4378  140.1202  159.3299 N   0  3  2  0  0  0  0  0  0  0  0  0
  151.8390  141.2046  158.4980 C   0  0  0  0  0  0  0  0  0  0  0  0
  151.9300  142.5718  159.1967 C   0  0  0  0  0  0  0  0  0  0  0  0
  153.3738  142.9122  159.5831 C   0  0  0  0  0  0  0  0  0  0  0  0
  154.0049  141.7761  160.4039 C   0  0  1  0  0  0  0  0  0  0  0  0
  153.4685  141.7039  161.8446 C   0  0  0  0  0  0  0  0  0  0  0  0
  153.8590  140.4349  159.6585 C   0  0  0  0  0  0  0  0  0  0  0  0
  150.0782  140.4770  155.9951 N   0  0  0  0  0  0  0  0  0  0  0  0
  148.9192  141.2600  156.0517 O   0  0  0  0  0  0  0  0  0  0  0  0
  146.5051  141.8179  154.1859 H   0  0  0  0  0  0  0  0  0  0  0  0
  147.5095  143.2545  153.9787 H   0  0  0  0  0  0  0  0  0  0  0  0
  146.9714  142.7796  155.5900 H   0  0  0  0  0  0  0  0  0  0  0  0
  149.3653  141.0709  152.8039 H   0  0  0  0  0  0  0  0  0  0  0  0
  151.0431  138.7643  156.4566 H   0  0  0  0  0  0  0  0  0  0  0  0
  153.1757  137.4378  157.2579 H   0  0  0  0  0  0  0  0  0  0  0  0
  153.8399  139.0584  157.3128 H   0  0  0  0  0  0  0  0  0  0  0  0
  152.7914  138.0586  159.5055 H   0  0  0  0  0  0  0  0  0  0  0  0
  150.6347  137.3052  158.4789 H   0  0  0  0  0  0  0  0  0  0  0  0
  150.2288  138.9716  158.0900 H   0  0  0  0  0  0  0  0  0  0  0  0
  150.3107  138.4361  159.7614 H   0  0  0  0  0  0  0  0  0  0  0  0
  152.3356  141.2392  157.5270 H   0  0  0  0  0  0  0  0  0  0  0  0
  150.7810  141.0187  158.3173 H   0  0  0  0  0  0  0  0  0  0  0  0
  151.5314  143.3480  158.5429 H   0  0  0  0  0  0  0  0  0  0  0  0
  151.2983  142.5715  160.0854 H   0  0  0  0  0  0  0  0  0  0  0  0
  153.9585  143.0686  158.6754 H   0  0  0  0  0  0  0  0  0  0  0  0
  153.4092  143.8518  160.1356 H   0  0  0  0  0  0  0  0  0  0  0  0
  155.0713  141.9907  160.4842 H   0  0  0  0  0  0  0  0  0  0  0  0
  152.4061  141.4616  161.8733 H   0  0  0  0  0  0  0  0  0  0  0  0
  153.6062  142.6536  162.3621 H   0  0  0  0  0  0  0  0  0  0  0  0
  153.9940  140.9399  162.4182 H   0  0  0  0  0  0  0  0  0  0  0  0
  154.3083  139.6480  160.2621 H   0  0  0  0  0  0  0  0  0  0  0  0
  154.4340  140.4688  158.7315 H   0  0  0  0  0  0  0  0  0  0  0  0
  151.9277  140.1409  160.2012 H   0  0  0  0  0  0  0  0  0  0  0  0
  1  2  1  0  0  0  0
  1 21  1  0  0  0  0
  1 22  1  0  0  0  0
  1 23  1  0  0  0  0
  2 20  1  0  0  0  0
  2  3  2  0  0  0  0
  3  4  1  0  0  0  0
  3 24  1  0  0  0  0
  4  5  1  0  0  0  0
  4 19  2  0  0  0  0
  5  6  1  0  0  0  0
  6  7  2  0  0  0  0
  6  8  1  0  0  0  0
  8  9  1  0  0  0  0
  8 25  1  0  0  0  0
  9 10  1  0  0  0  0
  9 26  1  0  0  0  0
  9 27  1  0  0  0  0
 10 11  1  0  0  0  0
 10 12  1  0  0  0  0
 10 28  1  0  0  0  0
 11 29  1  0  0  0  0
 11 30  1  0  0  0  0
 11 31  1  0  0  0  0
 12 18  1  0  0  0  0
 12 13  1  0  0  0  0
 12 44  1  0  0  0  0
 13 14  1  0  0  0  0
 13 32  1  0  0  0  0
 13 33  1  0  0  0  0
 14 15  1  0  0  0  0
 14 34  1  0  0  0  0
 14 35  1  0  0  0  0
 15 16  1  0  0  0  0
 15 36  1  0  0  0  0
 15 37  1  0  0  0  0
 16 17  1  0  0  0  0
 16 18  1  0  0  0  0
 16 38  1  0  0  0  0
 17 39  1  0  0  0  0
 17 40  1  0  0  0  0
 17 41  1  0  0  0  0
 18 42  1  0  0  0  0
 18 43  1  0  0  0  0
 19 20  1  0  0  0  0
M  CHG  1   5  -1
M  CHG  1  12   1
M  END
> <s_m_source_file>
AV-unprocessed.smi

> <i_m_source_file_index>
2083

> <i_lp_mmshare_version>
43012

> <i_f3d_flags>
0

> <s_epik_input>
W0NIM11jMVtjSF1jKG5vMSlbTkhdQyg9TylbTkhdW0NIMl1bQ0BIXShbQ0gzXSlOMltDSDJdW0NIMl1bQ0gyXVtDQEBIXShbQ0gzXSlbQ0gyXTI=

> <s_epik_cmdline>
J2VwaWtfcHl0aG9uJywgJy1waCcsICc3LjAnLCAnLXRuJywgJzgnLCAnLW1hJywgJzIwMCcsICctbWV0YWxfYmluZGluZycsICctaW1hZScsICc8aW5maWxlLm1hZT4nLCAnLW9tYWUnLCAnPG91dGZpbGUubWFlPic=

> <r_epik_Ionization_Penalty>
6.22434

> <r_epik_Ionization_Penalty_Charging>
6.22425

> <r_epik_Ionization_Penalty_Neutral>
9.62407e-05

> <r_epik_State_Penalty>
6.22423

> <r_epik_Charging_Adjusted_Penalty>
12.4485

> <i_epik_Tot_Q>
0

> <i_epik_Tot_abs_Q>
2

> <r_epik_Metal_State_Penalty>
2.16764

> <b_epik_Metal_Only>
1

> <s_lp_Force_Field>
OPLS_2005

> <r_lp_Energy>
12.2094

> <b_lp_Chiralities_Consistent>
1

> <s_lp_Variant>
AV-unprocessed.smi:2083-11

> <Gold.Version>
5.8.1

> <Gold.Id.Protein>
6NUR|6NUR_protein|mol2

> <Gold.PLP.Fitness>
41.5427

> <Gold.PLP.PLP>
-37.9682

> <Gold.PLP.part.hbond>
-3.0000

> <Gold.PLP.part.metal>
0.0000

> <Gold.PLP.part.buried>
-2.3034

> <Gold.PLP.part.nonpolar>
-31.8832

> <Gold.PLP.part.repulsive>
0.4855

> <Gold.PLP.ligand.clash>
0.0000

> <Gold.PLP.ligand.torsion>
0.9778

> <Gold.PLP.Chemscore.Hbond>
1.8000

> <Gold.PLP.Chemscore.CHOScore>
0.0000

> <Gold.PLP.Chemscore.Metal>
0.0000

> <Gold.Chemscore.Hbonds>
donor molecule, donor type, donor heavy atom, donor atom, acceptor molecule, acceptor atom, score
      P1  H  7989  7998       L1     5  0.08
      P1  H  7997  8009       L1     7  0.71

> <Gold.PLP.Chemscore.Internal.Correction>
0.1302

> <Gold.Rescore>
     Score         DG    S(hbond)    S(metal)    S(lipo)     H(rot)  DE(clash)    DE(int)     intcor
     13.15     -16.30       0.99        0.00      97.35       1.52       0.17       2.98       ----

> <Gold.Chemscore.Fitness>
13.1496

> <Gold.Chemscore.DG>
-16.3028

> <Gold.Chemscore.ZeroCoef>
-5.4800

> <Gold.Chemscore.Hbond>
0.9945

> <Gold.Chemscore.Metal>
0.0000

> <Gold.Chemscore.Lipo>
97.3498

> <Gold.Chemscore.Internal_Hbond>
0.0000

> <Gold.Chemscore.DEClash>
0.1720

> <Gold.Chemscore.DEInternal>
2.9812

> <Gold.Chemscore.Rot>
1.5190

> <Gold.Chemscore.Internal.Correction>
   9.000000E+99

> <Gold.Chemscore.Hbonds>
donor molecule, donor type, donor heavy atom, donor atom, acceptor molecule, acceptor atom, score
      P1  H  7997  8009       L1     7  0.70

> <Gold.Chemscore.Hbond.Weighted>
-3.3215

> <Gold.Chemscore.Metal.Weighted>
-0.0000

> <Gold.Chemscore.Lipo.Weighted>
-11.3899

> <Gold.Chemscore.Internal_Hbond.Weighted>
0.0000

> <Gold.Chemscore.DEClash.Weighted>
0.1720

> <Gold.Chemscore.DEInternal.Weighted>
2.9812

> <Gold.Chemscore.Rot.Weighted>
3.8886

> <Gold.Chemscore.Internal.Correction.Weighted>
   9.000000E+99

> <Gold.Protein.RotatedTorsions>
[ 6907 6896 6895 6894 ] final  175.93 input  -60.11 | X-H torsion
[ 7974 7965 7964 7962 ] final  -86.88 input  175.53 | X-H torsion
[ 8008 7997 7996 7995 ] final -131.22 input   59.86 | X-H torsion
[ 10167 10162 10161 10158 ] final  165.71 input  -65.29 | X-H torsion
[ 10718 10713 10712 10709 ] final  124.03 input   66.30 | X-H torsion
[ 10763 10752 10751 10750 ] final  -50.85 input  -60.55 | X-H torsion
[ 11005 11000 10999 10996 ] final   41.22 input  -57.11 | X-H torsion

> <Gold.Protein.ActiveResidues>
 VAL166  LYS551  ARG553  GLY616  TRP617  ASP618  TYR619  PRO620  LYS621  CYS622 
 ASP623  PHE694  ASN695  SER759  ASP760  ASP761  ALA762  ILE779  LEU786  VAL792 
 PHE793  MET794  SER795  GLU796  ALA797  LYS798  CYS799  TRP800  GLU811  SER814 

> <Gold.Protein.RotatedAtoms>
  151.7283  133.3317  159.3333 H   0  0  0  0  0  0  0  0  0  0  0  0  # atno 6907 bound_to 6896
  150.7623  134.6386  159.6234 H   0  0  0  0  0  0  0  0  0  0  0  0  # atno 6908 bound_to 6896
  152.3608  134.6877  160.0259 H   0  0  0  0  0  0  0  0  0  0  0  0  # atno 6909 bound_to 6896
  145.4739  140.9559  143.1902 H   0  0  0  0  0  0  0  0  0  0  0  0  # atno 7974 bound_to 7965
  155.3088  140.0456  157.3034 H   0  0  0  0  0  0  0  0  0  0  0  0  # atno 8008 bound_to 7997
  154.5445  140.2298  155.8553 H   0  0  0  0  0  0  0  0  0  0  0  0  # atno 8009 bound_to 7997
  156.1911  140.3050  155.9341 H   0  0  0  0  0  0  0  0  0  0  0  0  # atno 8010 bound_to 7997
  139.4911  144.4104  151.9306 H   0  0  0  0  0  0  0  0  0  0  0  0  # atno 10167 bound_to 10162
  157.5618  131.1089  150.8525 H   0  0  0  0  0  0  0  0  0  0  0  0  # atno 10718 bound_to 10713
  154.1170  135.6540  153.4896 H   0  0  0  0  0  0  0  0  0  0  0  0  # atno 10763 bound_to 10752
  153.0237  135.5261  154.7135 H   0  0  0  0  0  0  0  0  0  0  0  0  # atno 10764 bound_to 10752
  154.6331  135.2978  155.0162 H   0  0  0  0  0  0  0  0  0  0  0  0  # atno 10765 bound_to 10752
  140.1855  134.4051  155.8175 H   0  0  0  0  0  0  0  0  0  0  0  0  # atno 11005 bound_to 11000
  144.7929  139.6293  143.7105 LP  0  0  0  0  0  0  0  0  0  0  0  0  # atno 17320 bound_to 7965
  146.2380  139.5945  142.9510 LP  0  0  0  0  0  0  0  0  0  0  0  0  # atno 17321 bound_to 7965
  140.3545  144.3048  150.5943 LP  0  0  0  0  0  0  0  0  0  0  0  0  # atno 17342 bound_to 10162
  140.5456  143.2215  151.8012 LP  0  0  0  0  0  0  0  0  0  0  0  0  # atno 17343 bound_to 10162
  156.9021  130.5250  149.5282 LP  0  0  0  0  0  0  0  0  0  0  0  0  # atno 17370 bound_to 10713
  156.0670  130.5711  150.9308 LP  0  0  0  0  0  0  0  0  0  0  0  0  # atno 17371 bound_to 10713
  141.2224  133.7021  156.8005 LP  0  0  0  0  0  0  0  0  0  0  0  0  # atno 17394 bound_to 11000
  140.2218  134.8751  157.3385 LP  0  0  0  0  0  0  0  0  0  0  0  0  # atno 17395 bound_to 11000

$$$$
