AV-unprocessed.smi:1184|AV-procd|sdf|4970|dock4
  -GOLD-   22720 3563D 1   1.00000     0.00000
 Structure written by MMmdl.
 43 44  0  0  0  0  0  0  0  0  2 V2000
  145.8409  133.5086  150.6290 C   0  0  0  0  0  0  0  0  0  0  0  0
  145.8048  132.3727  151.6602 C   0  0  0  0  0  0  0  0  0  0  0  0
  147.1596  132.0141  152.1413 N   0  3  2  0  0  0  0  0  0  0  0  0
  147.1663  131.0183  153.2337 C   0  0  0  0  0  0  0  0  0  0  0  0
  148.4525  131.2825  154.0099 C   0  0  0  0  0  0  0  0  0  0  0  0
  148.5609  132.8055  153.9572 C   0  0  1  0  0  0  0  0  0  0  0  0
  149.9720  133.3633  154.2242 C   0  0  0  0  0  0  0  0  0  0  0  0
  149.9814  134.8209  154.2726 N   0  0  0  0  0  0  0  0  0  0  0  0
  150.5920  135.5571  155.2146 C   0  0  0  0  0  0  0  0  0  0  0  0
  151.2217  135.0683  156.1522 O   0  0  0  0  0  0  0  0  0  0  0  0
  150.4881  137.0762  155.0722 C   0  0  0  0  0  0  0  0  0  0  0  0
  151.4742  137.7537  155.9902 C   0  0  0  0  0  0  0  0  0  0  0  0
  152.6535  138.4687  155.6322 C   0  0  0  0  0  0  0  0  0  0  0  0
  153.2098  138.7312  154.2621 C   0  0  0  0  0  0  0  0  0  0  0  0
  153.2891  138.9366  156.6931 N   0  0  0  0  0  0  0  0  0  0  0  0
  152.5353  138.5343  157.7997 O   0  0  0  0  0  0  0  0  0  0  0  0
  151.4604  137.8345  157.3562 C   0  0  0  0  0  0  0  0  0  0  0  0
  150.5312  137.3125  158.3997 C   0  0  0  0  0  0  0  0  0  0  0  0
  148.0025  133.1581  152.5704 C   0  0  0  0  0  0  0  0  0  0  0  0
  144.8393  133.7173  150.2523 H   0  0  0  0  0  0  0  0  0  0  0  0
  146.4666  133.2463  149.7754 H   0  0  0  0  0  0  0  0  0  0  0  0
  146.2283  134.4327  151.0581 H   0  0  0  0  0  0  0  0  0  0  0  0
  145.1672  132.6397  152.5042 H   0  0  0  0  0  0  0  0  0  0  0  0
  145.3566  131.4943  151.1934 H   0  0  0  0  0  0  0  0  0  0  0  0
  146.3083  131.1813  153.8885 H   0  0  0  0  0  0  0  0  0  0  0  0
  147.1077  129.9995  152.8495 H   0  0  0  0  0  0  0  0  0  0  0  0
  148.4177  130.8936  155.0281 H   0  0  0  0  0  0  0  0  0  0  0  0
  149.2992  130.8213  153.4989 H   0  0  0  0  0  0  0  0  0  0  0  0
  147.8722  133.2120  154.7001 H   0  0  0  0  0  0  0  0  0  0  0  0
  150.3482  132.9921  155.1779 H   0  0  0  0  0  0  0  0  0  0  0  0
  150.6692  133.0124  153.4615 H   0  0  0  0  0  0  0  0  0  0  0  0
  149.4812  135.3074  153.5427 H   0  0  0  0  0  0  0  0  0  0  0  0
  150.6680  137.3504  154.0320 H   0  0  0  0  0  0  0  0  0  0  0  0
  149.4633  137.3795  155.2883 H   0  0  0  0  0  0  0  0  0  0  0  0
  152.9845  137.9103  153.5813 H   0  0  0  0  0  0  0  0  0  0  0  0
  154.2934  138.8492  154.2855 H   0  0  0  0  0  0  0  0  0  0  0  0
  152.7844  139.6404  153.8375 H   0  0  0  0  0  0  0  0  0  0  0  0
  149.5638  137.0522  157.9706 H   0  0  0  0  0  0  0  0  0  0  0  0
  150.3634  138.0577  159.1773 H   0  0  0  0  0  0  0  0  0  0  0  0
  150.9438  136.4196  158.8692 H   0  0  0  0  0  0  0  0  0  0  0  0
  148.8036  133.2794  151.8403 H   0  0  0  0  0  0  0  0  0  0  0  0
  147.4490  134.0976  152.6076 H   0  0  0  0  0  0  0  0  0  0  0  0
  147.6442  131.5813  151.3678 H   0  0  0  0  0  0  0  0  0  0  0  0
  1  2  1  0  0  0  0
  1 20  1  0  0  0  0
  1 21  1  0  0  0  0
  1 22  1  0  0  0  0
  2  3  1  0  0  0  0
  2 23  1  0  0  0  0
  2 24  1  0  0  0  0
  3 19  1  0  0  0  0
  3  4  1  0  0  0  0
  3 43  1  0  0  0  0
  4  5  1  0  0  0  0
  4 25  1  0  0  0  0
  4 26  1  0  0  0  0
  5  6  1  0  0  0  0
  5 27  1  0  0  0  0
  5 28  1  0  0  0  0
  6  7  1  0  0  0  0
  6 19  1  0  0  0  0
  6 29  1  0  0  0  0
  7  8  1  0  0  0  0
  7 30  1  0  0  0  0
  7 31  1  0  0  0  0
  8  9  1  0  0  0  0
  8 32  1  0  0  0  0
  9 10  2  0  0  0  0
  9 11  1  0  0  0  0
 11 12  1  0  0  0  0
 11 33  1  0  0  0  0
 11 34  1  0  0  0  0
 12 17  2  0  0  0  0
 12 13  1  0  0  0  0
 13 14  1  0  0  0  0
 13 15  2  0  0  0  0
 14 35  1  0  0  0  0
 14 36  1  0  0  0  0
 14 37  1  0  0  0  0
 15 16  1  0  0  0  0
 16 17  1  0  0  0  0
 17 18  1  0  0  0  0
 18 38  1  0  0  0  0
 18 39  1  0  0  0  0
 18 40  1  0  0  0  0
 19 41  1  0  0  0  0
 19 42  1  0  0  0  0
M  CHG  1   3   1
M  END
> <s_m_source_file>
AV-unprocessed.smi

> <i_m_source_file_index>
1184

> <i_lp_mmshare_version>
43012

> <i_f3d_flags>
0

> <s_epik_input>
W0NIM11bQ0gyXU4xW0NIMl1bQ0gyXVtDQEhdKFtDSDJdMSlbQ0gyXVtOSF1DKD1PKVtDSDJdYzJjKFtDSDNdKW5vYzJbQ0gzXQ==

> <s_epik_cmdline>
J2VwaWtfcHl0aG9uJywgJy1waCcsICc3LjAnLCAnLXRuJywgJzgnLCAnLW1hJywgJzIwMCcsICctbWV0YWxfYmluZGluZycsICctaW1hZScsICc8aW5maWxlLm1hZT4nLCAnLW9tYWUnLCAnPG91dGZpbGUubWFlPic=

> <r_epik_Ionization_Penalty>
0.000590726

> <r_epik_Ionization_Penalty_Charging>
0.000590692

> <r_epik_Ionization_Penalty_Neutral>
3.44741e-08

> <r_epik_State_Penalty>
0.000371644

> <r_epik_Charging_Adjusted_Penalty>
0.000962336

> <i_epik_Tot_Q>
1

> <i_epik_Tot_abs_Q>
1

> <r_epik_Metal_State_Penalty>
-0

> <b_epik_Metal_Only>
0

> <s_lp_Force_Field>
OPLS_2005

> <r_lp_Energy>
22.2982

> <b_lp_Chiralities_Consistent>
1

> <s_lp_Variant>
AV-unprocessed.smi:1184-2

> <Gold.Version>
5.8.1

> <Gold.Id.Protein>
6NUR|6NUR_protein|mol2

> <Gold.PLP.Fitness>
38.9031

> <Gold.PLP.PLP>
-30.9225

> <Gold.PLP.part.hbond>
-3.0000

> <Gold.PLP.part.metal>
0.0000

> <Gold.PLP.part.buried>
-5.2264

> <Gold.PLP.part.nonpolar>
-22.9578

> <Gold.PLP.part.repulsive>
0.0514

> <Gold.PLP.ligand.clash>
0.0000

> <Gold.PLP.ligand.torsion>
0.3749

> <Gold.PLP.Chemscore.Hbond>
2.9000

> <Gold.PLP.Chemscore.CHOScore>
0.0000

> <Gold.PLP.Chemscore.Metal>
0.0000

> <Gold.Chemscore.Hbonds>
donor molecule, donor type, donor heavy atom, donor atom, acceptor molecule, acceptor atom, score
      L1  H     3    43       P1 10747  1.00
      L1  H     8    32       P1  7948  0.75
      P1  H  7997  8008       L1    15  1.00

> <Gold.PLP.Chemscore.Internal.Correction>
0.0306

> <Gold.Rescore>
     Score         DG    S(hbond)    S(metal)    S(lipo)     H(rot)  DE(clash)    DE(int)     intcor
     16.76     -17.29       2.17        0.00      75.67       1.67       0.02       0.52       ----

> <Gold.Chemscore.Fitness>
16.7572

> <Gold.Chemscore.DG>
-17.2938

> <Gold.Chemscore.ZeroCoef>
-5.4800

> <Gold.Chemscore.Hbond>
2.1650

> <Gold.Chemscore.Metal>
0.0000

> <Gold.Chemscore.Lipo>
75.6738

> <Gold.Chemscore.Internal_Hbond>
0.0000

> <Gold.Chemscore.DEClash>
0.0173

> <Gold.Chemscore.DEInternal>
0.5193

> <Gold.Chemscore.Rot>
1.6684

> <Gold.Chemscore.Internal.Correction>
   9.000000E+99

> <Gold.Chemscore.Hbonds>
donor molecule, donor type, donor heavy atom, donor atom, acceptor molecule, acceptor atom, score
      L1  H     3    43       P1 10747  1.00
      L1  H     8    32       P1  7948  0.09
      P1  H  7997  8008       L1    15  0.96

> <Gold.Chemscore.Hbond.Weighted>
-7.2312

> <Gold.Chemscore.Metal.Weighted>
-0.0000

> <Gold.Chemscore.Lipo.Weighted>
-8.8538

> <Gold.Chemscore.Internal_Hbond.Weighted>
0.0000

> <Gold.Chemscore.DEClash.Weighted>
0.0173

> <Gold.Chemscore.DEInternal.Weighted>
0.5193

> <Gold.Chemscore.Rot.Weighted>
4.2712

> <Gold.Chemscore.Internal.Correction.Weighted>
   9.000000E+99

> <Gold.Protein.RotatedTorsions>
[ 6907 6896 6895 6894 ] final -106.19 input  -60.11 | X-H torsion
[ 7974 7965 7964 7962 ] final  -77.45 input  175.53 | X-H torsion
[ 8008 7997 7996 7995 ] final  -63.50 input   59.86 | X-H torsion
[ 10167 10162 10161 10158 ] final   -9.39 input  -65.29 | X-H torsion
[ 10718 10713 10712 10709 ] final   -4.55 input   66.30 | X-H torsion
[ 10763 10752 10751 10750 ] final   61.31 input  -60.55 | X-H torsion
[ 11005 11000 10999 10996 ] final   12.40 input  -57.11 | X-H torsion

> <Gold.Protein.ActiveResidues>
 VAL166  LYS551  ARG553  GLY616  TRP617  ASP618  TYR619  PRO620  LYS621  CYS622 
 ASP623  PHE694  ASN695  SER759  ASP760  ASP761  ALA762  ILE779  LEU786  VAL792 
 PHE793  MET794  SER795  GLU796  ALA797  LYS798  CYS799  TRP800  GLU811  SER814 

> <Gold.Protein.RotatedAtoms>
  150.7376  134.0013  159.3638 H   0  0  0  0  0  0  0  0  0  0  0  0  # atno 6907 bound_to 6896
  151.7968  135.0718  160.0404 H   0  0  0  0  0  0  0  0  0  0  0  0  # atno 6908 bound_to 6896
  152.3169  133.5776  159.5754 H   0  0  0  0  0  0  0  0  0  0  0  0  # atno 6909 bound_to 6896
  145.5996  140.9412  143.1248 H   0  0  0  0  0  0  0  0  0  0  0  0  # atno 7974 bound_to 7965
  154.4558  140.0973  156.6753 H   0  0  0  0  0  0  0  0  0  0  0  0  # atno 8008 bound_to 7997
  155.5143  140.3477  155.4376 H   0  0  0  0  0  0  0  0  0  0  0  0  # atno 8009 bound_to 7997
  156.0774  140.1364  156.9743 H   0  0  0  0  0  0  0  0  0  0  0  0  # atno 8010 bound_to 7997
  140.7086  143.5863  150.8939 H   0  0  0  0  0  0  0  0  0  0  0  0  # atno 10167 bound_to 10162
  156.7596  130.5265  149.5787 H   0  0  0  0  0  0  0  0  0  0  0  0  # atno 10718 bound_to 10713
  152.9947  135.5505  154.6014 H   0  0  0  0  0  0  0  0  0  0  0  0  # atno 10763 bound_to 10752
  154.5354  135.2816  155.1145 H   0  0  0  0  0  0  0  0  0  0  0  0  # atno 10764 bound_to 10752
  154.2443  135.6410  153.5271 H   0  0  0  0  0  0  0  0  0  0  0  0  # atno 10765 bound_to 10752
  140.4924  134.0827  155.7774 H   0  0  0  0  0  0  0  0  0  0  0  0  # atno 11005 bound_to 11000
  144.7316  139.7710  143.7345 LP  0  0  0  0  0  0  0  0  0  0  0  0  # atno 17320 bound_to 7965
  146.1586  139.4693  143.0003 LP  0  0  0  0  0  0  0  0  0  0  0  0  # atno 17321 bound_to 7965
  139.9589  143.6187  152.3008 LP  0  0  0  0  0  0  0  0  0  0  0  0  # atno 17342 bound_to 10162
  139.6732  144.7660  151.1744 LP  0  0  0  0  0  0  0  0  0  0  0  0  # atno 17343 bound_to 10162
  156.1348  130.6203  151.0384 LP  0  0  0  0  0  0  0  0  0  0  0  0  # atno 17370 bound_to 10713
  157.6740  131.0854  150.7540 LP  0  0  0  0  0  0  0  0  0  0  0  0  # atno 17371 bound_to 10713
  141.1477  133.9025  157.2175 LP  0  0  0  0  0  0  0  0  0  0  0  0  # atno 17394 bound_to 11000
  139.9761  135.0113  156.9634 LP  0  0  0  0  0  0  0  0  0  0  0  0  # atno 17395 bound_to 11000

$$$$
