AV-unprocessed.smi:1207|AV-procd|sdf|5053|dock1
  -GOLD-   22720 4 83D 1   1.00000     0.00000
 Structure written by MMmdl.
 52 54  0  0  0  0  0  0  0  0  2 V2000
  152.3915  143.6310  161.3216 C   0  0  0  0  0  0  0  0  0  0  0  0
  151.9202  143.0867  159.9845 C   0  0  0  0  0  0  0  0  0  0  0  0
  152.4593  141.8698  159.5099 C   0  0  0  0  0  0  0  0  0  0  0  0
  152.0476  141.3289  158.2726 C   0  0  0  0  0  0  0  0  0  0  0  0
  152.4311  140.1655  157.6283 N   0  0  0  0  0  0  0  0  0  0  0  0
  151.6956  140.2158  156.5221 C   0  0  0  0  0  0  0  0  0  0  0  0
  150.8733  141.2725  156.3762 N   0  0  0  0  0  0  0  0  0  0  0  0
  149.9760  141.5286  155.2647 C   0  0  0  0  0  0  0  0  0  0  0  0
  149.3257  140.2387  154.7295 C   0  0  2  0  0  0  0  0  0  0  0  0
  150.1846  139.6943  153.7484 O   0  0  0  0  0  0  0  0  0  0  0  0
  147.9325  140.4626  154.1002 C   0  0  0  0  0  0  0  0  0  0  0  0
  147.0196  141.1903  155.0170 N   0  3  2  0  0  0  0  0  0  0  0  0
  145.8226  140.3892  155.3658 C   0  0  0  0  0  0  0  0  0  0  0  0
  146.6779  142.5524  154.5312 C   0  0  0  0  0  0  0  0  0  0  0  0
  145.7463  143.2552  155.4831 C   0  0  0  0  0  0  0  0  0  0  0  0
  145.6226  143.0785  156.8919 C   0  0  0  0  0  0  0  0  0  0  0  0
  146.3826  142.1490  157.7945 C   0  0  0  0  0  0  0  0  0  0  0  0
  144.6944  143.8664  157.4068 N   0  0  0  0  0  0  0  0  0  0  0  0
  144.1688  144.5939  156.3349 O   0  0  0  0  0  0  0  0  0  0  0  0
  144.8086  144.2109  155.2018 C   0  0  0  0  0  0  0  0  0  0  0  0
  144.3822  144.8801  153.9389 C   0  0  0  0  0  0  0  0  0  0  0  0
  151.0751  142.0454  157.5153 C   0  0  0  0  0  0  0  0  0  0  0  0
  150.5320  143.2580  157.9762 C   0  0  0  0  0  0  0  0  0  0  0  0
  150.9536  143.7834  159.2156 C   0  0  0  0  0  0  0  0  0  0  0  0
  150.3620  145.0933  159.7055 C   0  0  0  0  0  0  0  0  0  0  0  0
  153.1101  142.9601  161.7933 H   0  0  0  0  0  0  0  0  0  0  0  0
  151.5508  143.7521  162.0049 H   0  0  0  0  0  0  0  0  0  0  0  0
  152.8743  144.5993  161.1903 H   0  0  0  0  0  0  0  0  0  0  0  0
  153.1958  141.3392  160.0953 H   0  0  0  0  0  0  0  0  0  0  0  0
  151.7521  139.4362  155.7764 H   0  0  0  0  0  0  0  0  0  0  0  0
  149.2146  142.2411  155.5842 H   0  0  0  0  0  0  0  0  0  0  0  0
  150.5485  142.0180  154.4751 H   0  0  0  0  0  0  0  0  0  0  0  0
  149.2642  139.5209  155.5472 H   0  0  0  0  0  0  0  0  0  0  0  0
  149.7071  139.6166  152.9361 H   0  0  0  0  0  0  0  0  0  0  0  0
  148.0009  141.0227  153.1672 H   0  0  0  0  0  0  0  0  0  0  0  0
  147.5122  139.4909  153.8356 H   0  0  0  0  0  0  0  0  0  0  0  0
  145.2015  140.2112  154.4868 H   0  0  0  0  0  0  0  0  0  0  0  0
  145.2159  140.8931  156.1179 H   0  0  0  0  0  0  0  0  0  0  0  0
  146.1114  139.4235  155.7819 H   0  0  0  0  0  0  0  0  0  0  0  0
  147.5862  143.1428  154.4139 H   0  0  0  0  0  0  0  0  0  0  0  0
  146.2524  142.4812  153.5293 H   0  0  0  0  0  0  0  0  0  0  0  0
  147.4003  141.9933  157.4378 H   0  0  0  0  0  0  0  0  0  0  0  0
  145.8968  141.1747  157.8481 H   0  0  0  0  0  0  0  0  0  0  0  0
  146.4496  142.5430  158.8093 H   0  0  0  0  0  0  0  0  0  0  0  0
  145.0231  144.5940  153.1052 H   0  0  0  0  0  0  0  0  0  0  0  0
  144.4290  145.9644  154.0413 H   0  0  0  0  0  0  0  0  0  0  0  0
  143.3575  144.6078  153.6855 H   0  0  0  0  0  0  0  0  0  0  0  0
  149.7961  143.7794  157.3824 H   0  0  0  0  0  0  0  0  0  0  0  0
  149.6451  145.4991  158.9912 H   0  0  0  0  0  0  0  0  0  0  0  0
  151.1466  145.8360  159.8506 H   0  0  0  0  0  0  0  0  0  0  0  0
  149.8436  144.9472  160.6533 H   0  0  0  0  0  0  0  0  0  0  0  0
  147.5378  141.3087  155.8763 H   0  0  0  0  0  0  0  0  0  0  0  0
  1  2  1  0  0  0  0
  1 26  1  0  0  0  0
  1 27  1  0  0  0  0
  1 28  1  0  0  0  0
  2 24  1  0  0  0  0
  2  3  2  0  0  0  0
  3  4  1  0  0  0  0
  3 29  1  0  0  0  0
  4 22  2  0  0  0  0
  4  5  1  0  0  0  0
  5  6  2  0  0  0  0
  6  7  1  0  0  0  0
  6 30  1  0  0  0  0
  7  8  1  0  0  0  0
  7 22  1  0  0  0  0
  8  9  1  0  0  0  0
  8 31  1  0  0  0  0
  8 32  1  0  0  0  0
  9 10  1  0  0  0  0
  9 11  1  0  0  0  0
  9 33  1  0  0  0  0
 10 34  1  0  0  0  0
 11 12  1  0  0  0  0
 11 35  1  0  0  0  0
 11 36  1  0  0  0  0
 12 13  1  0  0  0  0
 12 14  1  0  0  0  0
 12 52  1  0  0  0  0
 13 37  1  0  0  0  0
 13 38  1  0  0  0  0
 13 39  1  0  0  0  0
 14 15  1  0  0  0  0
 14 40  1  0  0  0  0
 14 41  1  0  0  0  0
 15 20  2  0  0  0  0
 15 16  1  0  0  0  0
 16 17  1  0  0  0  0
 16 18  2  0  0  0  0
 17 42  1  0  0  0  0
 17 43  1  0  0  0  0
 17 44  1  0  0  0  0
 18 19  1  0  0  0  0
 19 20  1  0  0  0  0
 20 21  1  0  0  0  0
 21 45  1  0  0  0  0
 21 46  1  0  0  0  0
 21 47  1  0  0  0  0
 22 23  1  0  0  0  0
 23 24  2  0  0  0  0
 23 48  1  0  0  0  0
 24 25  1  0  0  0  0
 25 49  1  0  0  0  0
 25 50  1  0  0  0  0
 25 51  1  0  0  0  0
M  CHG  1  12   1
M  END
> <s_m_source_file>
AV-unprocessed.smi

> <i_m_source_file_index>
1207

> <i_lp_mmshare_version>
43012

> <i_f3d_flags>
0

> <s_epik_input>
W0NIM11jKFtjSF0xKWMoW0NIM10pW2NIXWMoYzEyKW4oW2NIXW4yKVtDSDJdW0NASF0oW09IXSlbQ0gyXU4oW0NIM10pW0NIMl1jM2MoW0NIM10pbm9jM1tDSDNd

> <s_epik_cmdline>
J2VwaWtfcHl0aG9uJywgJy1waCcsICc3LjAnLCAnLXRuJywgJzgnLCAnLW1hJywgJzIwMCcsICctbWV0YWxfYmluZGluZycsICctaW1hZScsICc8aW5maWxlLm1hZT4nLCAnLW9tYWUnLCAnPG91dGZpbGUubWFlPic=

> <r_epik_Ionization_Penalty>
0.646518

> <r_epik_Ionization_Penalty_Charging>
0.559419

> <r_epik_Ionization_Penalty_Neutral>
0.0870981

> <r_epik_State_Penalty>
0.661677

> <r_epik_Charging_Adjusted_Penalty>
1.2211

> <i_epik_Tot_Q>
1

> <i_epik_Tot_abs_Q>
1

> <r_epik_Metal_State_Penalty>
0.649158

> <b_epik_Metal_Only>
0

> <s_lp_Force_Field>
OPLS_2005

> <r_lp_Energy>
8.09653

> <b_lp_Chiralities_Consistent>
1

> <s_lp_Variant>
AV-unprocessed.smi:1207-5

> <Gold.Version>
5.8.1

> <Gold.Id.Protein>
6NUR|6NUR_protein|mol2

> <Gold.PLP.Fitness>
53.1419

> <Gold.PLP.PLP>
-47.1618

> <Gold.PLP.part.hbond>
-3.0000

> <Gold.PLP.part.metal>
0.0000

> <Gold.PLP.part.buried>
-5.5761

> <Gold.PLP.part.nonpolar>
-38.0076

> <Gold.PLP.part.repulsive>
0.1577

> <Gold.PLP.ligand.clash>
0.0000

> <Gold.PLP.ligand.torsion>
1.8167

> <Gold.PLP.Chemscore.Hbond>
2.9600

> <Gold.PLP.Chemscore.CHOScore>
0.0000

> <Gold.PLP.Chemscore.Metal>
0.0000

> <Gold.Chemscore.Hbonds>
donor molecule, donor type, donor heavy atom, donor atom, acceptor molecule, acceptor atom, score
      L1  H    10    34       P1  7957  0.94
      P1  H  7989  7998       L1    10  0.91
      P1  H  7997  8008       L1     5  0.65

> <Gold.PLP.Chemscore.Internal.Correction>
0.7336

> <Gold.Rescore>
     Score         DG    S(hbond)    S(metal)    S(lipo)     H(rot)  DE(clash)    DE(int)     intcor
     17.15     -19.74       1.87        0.00     122.25       2.46       0.93       1.66       ----

> <Gold.Chemscore.Fitness>
17.1511

> <Gold.Chemscore.DG>
-19.7370

> <Gold.Chemscore.ZeroCoef>
-5.4800

> <Gold.Chemscore.Hbond>
1.8690

> <Gold.Chemscore.Metal>
0.0000

> <Gold.Chemscore.Lipo>
122.2504

> <Gold.Chemscore.Internal_Hbond>
0.0000

> <Gold.Chemscore.DEClash>
0.9275

> <Gold.Chemscore.DEInternal>
1.6585

> <Gold.Chemscore.Rot>
2.4565

> <Gold.Chemscore.Internal.Correction>
   9.000000E+99

> <Gold.Chemscore.Hbonds>
donor molecule, donor type, donor heavy atom, donor atom, acceptor molecule, acceptor atom, score
      L1  H    10    34       P1  7957  0.91
      P1  H  7989  7998       L1    10  0.40
      P1  H  7997  8008       L1     5  0.18

> <Gold.Chemscore.Hbond.Weighted>
-6.2424

> <Gold.Chemscore.Metal.Weighted>
-0.0000

> <Gold.Chemscore.Lipo.Weighted>
-14.3033

> <Gold.Chemscore.Internal_Hbond.Weighted>
0.0000

> <Gold.Chemscore.DEClash.Weighted>
0.9275

> <Gold.Chemscore.DEInternal.Weighted>
1.6585

> <Gold.Chemscore.Rot.Weighted>
6.2887

> <Gold.Chemscore.Internal.Correction.Weighted>
   9.000000E+99

> <Gold.Protein.RotatedTorsions>
[ 6907 6896 6895 6894 ] final -128.12 input  -60.11 | X-H torsion
[ 7974 7965 7964 7962 ] final -155.24 input  175.53 | X-H torsion
[ 8008 7997 7996 7995 ] final  -70.23 input   59.86 | X-H torsion
[ 10167 10162 10161 10158 ] final  -75.34 input  -65.29 | X-H torsion
[ 10718 10713 10712 10709 ] final -148.19 input   66.30 | X-H torsion
[ 10763 10752 10751 10750 ] final -153.28 input  -60.55 | X-H torsion
[ 11005 11000 10999 10996 ] final  -64.90 input  -57.11 | X-H torsion

> <Gold.Protein.ActiveResidues>
 VAL166  LYS551  ARG553  GLY616  TRP617  ASP618  TYR619  PRO620  LYS621  CYS622 
 ASP623  PHE694  ASN695  SER759  ASP760  ASP761  ALA762  ILE779  LEU786  VAL792 
 PHE793  MET794  SER795  GLU796  ALA797  LYS798  CYS799  TRP800  GLU811  SER814 

> <Gold.Protein.RotatedAtoms>
  150.9145  133.6956  159.2846 H   0  0  0  0  0  0  0  0  0  0  0  0  # atno 6907 bound_to 6896
  151.4431  135.1021  159.9686 H   0  0  0  0  0  0  0  0  0  0  0  0  # atno 6908 bound_to 6896
  152.4947  133.8548  159.7275 H   0  0  0  0  0  0  0  0  0  0  0  0  # atno 6909 bound_to 6896
  144.7650  140.4277  143.5949 H   0  0  0  0  0  0  0  0  0  0  0  0  # atno 7974 bound_to 7965
  154.4997  140.0838  156.7771 H   0  0  0  0  0  0  0  0  0  0  0  0  # atno 8008 bound_to 7997
  155.4033  140.3438  155.4240 H   0  0  0  0  0  0  0  0  0  0  0  0  # atno 8009 bound_to 7997
  156.1440  140.1538  156.8864 H   0  0  0  0  0  0  0  0  0  0  0  0  # atno 8010 bound_to 7997
  140.4951  143.2372  151.7844 H   0  0  0  0  0  0  0  0  0  0  0  0  # atno 10167 bound_to 10162
  156.4171  130.8010  151.2231 H   0  0  0  0  0  0  0  0  0  0  0  0  # atno 10718 bound_to 10713
  154.7938  135.3216  154.7715 H   0  0  0  0  0  0  0  0  0  0  0  0  # atno 10763 bound_to 10752
  153.8398  135.6872  153.4808 H   0  0  0  0  0  0  0  0  0  0  0  0  # atno 10764 bound_to 10752
  153.1620  135.4657  154.9726 H   0  0  0  0  0  0  0  0  0  0  0  0  # atno 10765 bound_to 10752
  141.1438  133.6673  156.5904 H   0  0  0  0  0  0  0  0  0  0  0  0  # atno 11005 bound_to 11000
  145.6500  139.1563  143.2867 LP  0  0  0  0  0  0  0  0  0  0  0  0  # atno 17320 bound_to 7965
  146.1748  140.6589  142.9216 LP  0  0  0  0  0  0  0  0  0  0  0  0  # atno 17321 bound_to 7965
  139.4859  144.4597  151.9555 LP  0  0  0  0  0  0  0  0  0  0  0  0  # atno 17342 bound_to 10162
  140.3685  144.2885  150.5923 LP  0  0  0  0  0  0  0  0  0  0  0  0  # atno 17343 bound_to 10162
  157.7508  131.0240  150.3856 LP  0  0  0  0  0  0  0  0  0  0  0  0  # atno 17370 bound_to 10713
  156.4166  130.3944  149.6854 LP  0  0  0  0  0  0  0  0  0  0  0  0  # atno 17371 bound_to 10713
  140.3767  134.7558  157.4634 LP  0  0  0  0  0  0  0  0  0  0  0  0  # atno 17394 bound_to 11000
  140.0669  134.5917  155.8686 LP  0  0  0  0  0  0  0  0  0  0  0  0  # atno 17395 bound_to 11000

$$$$
