AV-unprocessed.smi:2878|AV-procd|sdf|11047|dock1
  -GOLD-   2272015513D 1   1.00000     0.00000
 Structure written by MMmdl.
 42 43  0  0  0  0  0  0  0  0  1 V2000
  148.0809  132.8466  154.7587 C   0  0  0  0  0  0  0  0  0  0  0  0
  148.2406  133.0226  152.9611 S   0  0  0  0  0  0  0  0  0  0  0  0
  146.4960  133.2238  152.4773 C   0  0  2  0  0  0  0  0  0  0  0  0
  146.3757  133.4485  150.9574 C   0  0  0  0  0  0  0  0  0  0  0  0
  144.9073  133.5804  150.5236 C   0  0  0  0  0  0  0  0  0  0  0  0
  144.1952  134.6993  151.2981 C   0  0  0  0  0  0  0  0  0  0  0  0
  144.3131  134.4877  152.8175 C   0  0  0  0  0  0  0  0  0  0  0  0
  145.7809  134.3421  153.2756 C   0  0  2  0  0  0  0  0  0  0  0  0
  146.4957  135.6134  153.1534 N   0  0  0  0  0  0  0  0  0  0  0  0
  146.0655  136.7924  153.6224 C   0  0  0  0  0  0  0  0  0  0  0  0
  144.9928  136.9543  154.2044 O   0  0  0  0  0  0  0  0  0  0  0  0
  146.9451  137.7743  153.3821 N   0  0  0  0  0  0  0  0  0  0  0  0
  146.7589  139.1708  153.7601 C   0  0  0  0  0  0  0  0  0  0  0  0
  148.1000  139.9122  153.8820 C   0  0  0  0  0  0  0  0  0  0  0  0
  149.1828  139.0405  154.4244 C   0  0  0  0  0  0  0  0  0  0  0  0
  149.0785  137.7674  154.7979 N   0  0  0  0  0  0  0  0  0  0  0  0
  150.3669  137.4898  155.1396 C   0  0  0  0  0  0  0  0  0  0  0  0
  150.8022  136.1570  155.6452 C   0  0  0  0  0  0  0  0  0  0  0  0
  151.2349  138.4821  154.9864 N   0  0  0  0  0  0  0  0  0  0  0  0
  150.4442  139.5301  154.4930 O   0  0  0  0  0  0  0  0  0  0  0  0
  149.0571  132.6509  155.2021 H   0  0  0  0  0  0  0  0  0  0  0  0
  147.4190  132.0158  155.0036 H   0  0  0  0  0  0  0  0  0  0  0  0
  147.6813  133.7569  155.2047 H   0  0  0  0  0  0  0  0  0  0  0  0
  146.0033  132.2772  152.7044 H   0  0  0  0  0  0  0  0  0  0  0  0
  146.9241  134.3456  150.6673 H   0  0  0  0  0  0  0  0  0  0  0  0
  146.8397  132.6196  150.4217 H   0  0  0  0  0  0  0  0  0  0  0  0
  144.8518  133.7765  149.4525 H   0  0  0  0  0  0  0  0  0  0  0  0
  144.3905  132.6347  150.6920 H   0  0  0  0  0  0  0  0  0  0  0  0
  144.6236  135.6645  151.0248 H   0  0  0  0  0  0  0  0  0  0  0  0
  143.1442  134.7378  151.0104 H   0  0  0  0  0  0  0  0  0  0  0  0
  143.8261  135.3073  153.3468 H   0  0  0  0  0  0  0  0  0  0  0  0
  143.7644  133.5861  153.0927 H   0  0  0  0  0  0  0  0  0  0  0  0
  145.7728  134.0567  154.3282 H   0  0  0  0  0  0  0  0  0  0  0  0
  147.3933  135.5838  152.6923 H   0  0  0  0  0  0  0  0  0  0  0  0
  147.8006  137.5415  152.8992 H   0  0  0  0  0  0  0  0  0  0  0  0
  146.1404  139.6475  152.9993 H   0  0  0  0  0  0  0  0  0  0  0  0
  146.2019  139.2317  154.6968 H   0  0  0  0  0  0  0  0  0  0  0  0
  148.4178  140.2889  152.9090 H   0  0  0  0  0  0  0  0  0  0  0  0
  147.9921  140.7802  154.5333 H   0  0  0  0  0  0  0  0  0  0  0  0
  151.4631  136.2727  156.5048 H   0  0  0  0  0  0  0  0  0  0  0  0
  151.3379  135.6157  154.8651 H   0  0  0  0  0  0  0  0  0  0  0  0
  149.9416  135.5615  155.9515 H   0  0  0  0  0  0  0  0  0  0  0  0
  1  2  1  0  0  0  0
  1 21  1  0  0  0  0
  1 22  1  0  0  0  0
  1 23  1  0  0  0  0
  2  3  1  0  0  0  0
  3  8  1  0  0  0  0
  3  4  1  0  0  0  0
  3 24  1  0  0  0  0
  4  5  1  0  0  0  0
  4 25  1  0  0  0  0
  4 26  1  0  0  0  0
  5  6  1  0  0  0  0
  5 27  1  0  0  0  0
  5 28  1  0  0  0  0
  6  7  1  0  0  0  0
  6 29  1  0  0  0  0
  6 30  1  0  0  0  0
  7  8  1  0  0  0  0
  7 31  1  0  0  0  0
  7 32  1  0  0  0  0
  8  9  1  0  0  0  0
  8 33  1  0  0  0  0
  9 10  1  0  0  0  0
  9 34  1  0  0  0  0
 10 11  2  0  0  0  0
 10 12  1  0  0  0  0
 12 13  1  0  0  0  0
 12 35  1  0  0  0  0
 13 14  1  0  0  0  0
 13 36  1  0  0  0  0
 13 37  1  0  0  0  0
 14 15  1  0  0  0  0
 14 38  1  0  0  0  0
 14 39  1  0  0  0  0
 15 20  1  0  0  0  0
 15 16  2  0  0  0  0
 16 17  1  0  0  0  0
 17 18  1  0  0  0  0
 17 19  2  0  0  0  0
 18 40  1  0  0  0  0
 18 41  1  0  0  0  0
 18 42  1  0  0  0  0
 19 20  1  0  0  0  0
M  END
> <s_m_source_file>
AV-unprocessed.smi

> <i_m_source_file_index>
2878

> <i_lp_mmshare_version>
43012

> <i_f3d_flags>
0

> <s_epik_input>
W0NIM11TW0NAQEhdMVtDSDJdW0NIMl1bQ0gyXVtDSDJdW0NASF0xW05IXUMoPU8pW05IXVtDSDJdW0NIMl1jMm5jKFtDSDNdKW5vMg==

> <s_epik_cmdline>
J2VwaWtfcHl0aG9uJywgJy1waCcsICc3LjAnLCAnLXRuJywgJzgnLCAnLW1hJywgJzIwMCcsICctbWV0YWxfYmluZGluZycsICctaW1hZScsICc8aW5maWxlLm1hZT4nLCAnLW9tYWUnLCAnPG91dGZpbGUubWFlPic=

> <r_lp_tautomer_probability>
1

> <r_epik_Ionization_Penalty>
4.9299e-05

> <r_epik_Ionization_Penalty_Charging>
0

> <r_epik_Ionization_Penalty_Neutral>
4.9299e-05

> <r_epik_State_Penalty>
-0

> <r_epik_Charging_Adjusted_Penalty>
0

> <i_epik_Tot_Q>
0

> <i_epik_Tot_abs_Q>
0

> <r_epik_Metal_State_Penalty>
-0

> <b_epik_Metal_Only>
0

> <s_lp_Force_Field>
OPLS_2005

> <r_lp_Energy>
0.628987

> <b_lp_Chiralities_Consistent>
1

> <s_lp_Variant>
AV-unprocessed.smi:2878-3

> <Gold.Version>
5.8.1

> <Gold.Id.Protein>
6NUR|6NUR_protein|mol2

> <Gold.PLP.Fitness>
36.1453

> <Gold.PLP.PLP>
-27.8802

> <Gold.PLP.part.hbond>
-3.0000

> <Gold.PLP.part.metal>
0.0000

> <Gold.PLP.part.buried>
-4.0132

> <Gold.PLP.part.nonpolar>
-22.0548

> <Gold.PLP.part.repulsive>
0.5022

> <Gold.PLP.ligand.clash>
0.0000

> <Gold.PLP.ligand.torsion>
0.3958

> <Gold.PLP.Chemscore.Hbond>
2.9760

> <Gold.PLP.Chemscore.CHOScore>
0.0000

> <Gold.PLP.Chemscore.Metal>
0.0000

> <Gold.Chemscore.Hbonds>
donor molecule, donor type, donor heavy atom, donor atom, acceptor molecule, acceptor atom, score
      L1  H     9    34       P1  7948  1.00
      L1  H    12    35       P1  7948  1.00
      P1  H  7989  7998       L1    20  0.96

> <Gold.PLP.Chemscore.Internal.Correction>
0.1287

> <Gold.Rescore>
     Score         DG    S(hbond)    S(metal)    S(lipo)     H(rot)  DE(clash)    DE(int)     intcor
     12.42     -16.22       2.89        0.00      55.08       2.09       0.22       3.58       ----

> <Gold.Chemscore.Fitness>
12.4236

> <Gold.Chemscore.DG>
-16.2240

> <Gold.Chemscore.ZeroCoef>
-5.4800

> <Gold.Chemscore.Hbond>
2.8909

> <Gold.Chemscore.Metal>
0.0000

> <Gold.Chemscore.Lipo>
55.0837

> <Gold.Chemscore.Internal_Hbond>
0.0000

> <Gold.Chemscore.DEClash>
0.2196

> <Gold.Chemscore.DEInternal>
3.5808

> <Gold.Chemscore.Rot>
2.0923

> <Gold.Chemscore.Internal.Correction>
   9.000000E+99

> <Gold.Chemscore.Hbonds>
donor molecule, donor type, donor heavy atom, donor atom, acceptor molecule, acceptor atom, score
      L1  H     9    34       P1  7948  0.99
      L1  H    12    35       P1  7948  0.91
      P1  H  7989  7998       L1    20  0.68

> <Gold.Chemscore.Hbond.Weighted>
-9.6554

> <Gold.Chemscore.Metal.Weighted>
-0.0000

> <Gold.Chemscore.Lipo.Weighted>
-6.4448

> <Gold.Chemscore.Internal_Hbond.Weighted>
0.0000

> <Gold.Chemscore.DEClash.Weighted>
0.2196

> <Gold.Chemscore.DEInternal.Weighted>
3.5808

> <Gold.Chemscore.Rot.Weighted>
5.3562

> <Gold.Chemscore.Internal.Correction.Weighted>
   9.000000E+99

> <Gold.Protein.RotatedTorsions>
[ 6907 6896 6895 6894 ] final  -14.55 input  -60.11 | X-H torsion
[ 7974 7965 7964 7962 ] final   79.37 input  175.53 | X-H torsion
[ 8008 7997 7996 7995 ] final  -84.42 input   59.86 | X-H torsion
[ 10167 10162 10161 10158 ] final  147.81 input  -65.29 | X-H torsion
[ 10718 10713 10712 10709 ] final  170.11 input   66.30 | X-H torsion
[ 10763 10752 10751 10750 ] final   47.83 input  -60.55 | X-H torsion
[ 11005 11000 10999 10996 ] final -167.74 input  -57.11 | X-H torsion

> <Gold.Protein.ActiveResidues>
 VAL166  LYS551  ARG553  GLY616  TRP617  ASP618  TYR619  PRO620  LYS621  CYS622 
 ASP623  PHE694  ASN695  SER759  ASP760  ASP761  ALA762  ILE779  LEU786  VAL792 
 PHE793  MET794  SER795  GLU796  ALA797  LYS798  CYS799  TRP800  GLU811  SER814 

> <Gold.Protein.RotatedAtoms>
  151.3377  135.0856  159.9360 H   0  0  0  0  0  0  0  0  0  0  0  0  # atno 6907 bound_to 6896
  152.5219  133.9478  159.7668 H   0  0  0  0  0  0  0  0  0  0  0  0  # atno 6908 bound_to 6896
  150.9829  133.6174  159.2749 H   0  0  0  0  0  0  0  0  0  0  0  0  # atno 6909 bound_to 6896
  145.6650  139.2481  143.1901 H   0  0  0  0  0  0  0  0  0  0  0  0  # atno 7974 bound_to 7965
  154.6296  140.0605  156.9716 H   0  0  0  0  0  0  0  0  0  0  0  0  # atno 8008 bound_to 7997
  155.1687  140.3289  155.4378 H   0  0  0  0  0  0  0  0  0  0  0  0  # atno 8009 bound_to 7997
  156.2476  140.1918  156.6790 H   0  0  0  0  0  0  0  0  0  0  0  0  # atno 8010 bound_to 7997
  139.4884  144.5727  151.7023 H   0  0  0  0  0  0  0  0  0  0  0  0  # atno 10167 bound_to 10162
  157.0128  131.0209  151.2798 H   0  0  0  0  0  0  0  0  0  0  0  0  # atno 10718 bound_to 10713
  152.9796  135.5964  154.3826 H   0  0  0  0  0  0  0  0  0  0  0  0  # atno 10763 bound_to 10752
  154.3489  135.2767  155.2384 H   0  0  0  0  0  0  0  0  0  0  0  0  # atno 10764 bound_to 10752
  154.4432  135.6008  153.6198 H   0  0  0  0  0  0  0  0  0  0  0  0  # atno 10765 bound_to 10752
  140.5499  134.5439  157.5120 H   0  0  0  0  0  0  0  0  0  0  0  0  # atno 11005 bound_to 11000
  146.1093  140.7448  142.9511 LP  0  0  0  0  0  0  0  0  0  0  0  0  # atno 17320 bound_to 7965
  144.7076  140.3913  143.7106 LP  0  0  0  0  0  0  0  0  0  0  0  0  # atno 17321 bound_to 7965
  140.5318  144.0719  150.6056 LP  0  0  0  0  0  0  0  0  0  0  0  0  # atno 17342 bound_to 10162
  140.3711  143.2854  152.0277 LP  0  0  0  0  0  0  0  0  0  0  0  0  # atno 17343 bound_to 10162
  157.5307  130.8057  149.7914 LP  0  0  0  0  0  0  0  0  0  0  0  0  # atno 17370 bound_to 10713
  156.0130  130.3825  150.2203 LP  0  0  0  0  0  0  0  0  0  0  0  0  # atno 17371 bound_to 10713
  139.9461  134.7700  156.0560 LP  0  0  0  0  0  0  0  0  0  0  0  0  # atno 17394 bound_to 11000
  141.1178  133.6622  156.3137 LP  0  0  0  0  0  0  0  0  0  0  0  0  # atno 17395 bound_to 11000

$$$$
