AV-unprocessed.smi:1116|AV-procd|sdf|4812|dock9
  -GOLD-   22720 3363D 1   1.00000     0.00000
 Structure written by MMmdl.
 35 36  0  0  0  0  0  0  0  0  2 V2000
  152.2307  143.5910  162.2771 C   0  0  0  0  0  0  0  0  0  0  0  0
  152.0121  143.2690  160.8386 C   0  0  0  0  0  0  0  0  0  0  0  0
  151.7971  142.0322  160.3826 N   0  0  0  0  0  0  0  0  0  0  0  0
  151.6258  141.9921  158.9951 C   0  0  0  0  0  0  0  0  0  0  0  0
  151.3839  140.6826  158.3077 C   0  0  0  0  0  0  0  0  0  0  0  0
  151.2541  140.8438  156.7839 C   0  0  0  0  0  0  0  0  0  0  0  0
  151.1450  139.5538  156.1119 N   0  0  0  0  0  0  0  0  0  0  0  0
  150.7107  139.3749  154.8550 C   0  0  0  0  0  0  0  0  0  0  0  0
  150.3406  140.3004  154.1321 O   0  0  0  0  0  0  0  0  0  0  0  0
  150.6823  137.9317  154.3437 C   0  0  0  0  0  0  0  0  0  0  0  0
  149.7582  137.0226  155.1766 C   0  0  0  0  0  0  0  0  0  0  0  0
  150.3535  136.6581  156.5509 C   0  0  1  0  0  0  0  0  0  0  0  0
  149.8839  137.5616  157.5791 N   0  0  0  0  0  0  0  0  0  0  0  0
  149.2558  136.9051  158.5525 C   0  0  0  0  0  0  0  0  0  0  0  0
  148.7949  137.4876  159.5316 O   0  0  0  0  0  0  0  0  0  0  0  0
  149.2221  135.5868  158.2772 N   0  5  0  0  0  0  0  0  0  0  0  0
  149.8405  135.3287  157.1047 C   0  0  0  0  0  0  0  0  0  0  0  0
  150.0178  134.2631  156.5165 O   0  0  0  0  0  0  0  0  0  0  0  0
  151.7103  143.2280  158.4036 C   0  0  0  0  0  0  0  0  0  0  0  0
  152.0111  144.4874  159.5693 S   0  0  0  0  0  0  0  0  0  0  0  0
  152.3940  142.6803  162.8542 H   0  0  0  0  0  0  0  0  0  0  0  0
  151.3603  144.1097  162.6788 H   0  0  0  0  0  0  0  0  0  0  0  0
  153.1043  144.2338  162.3869 H   0  0  0  0  0  0  0  0  0  0  0  0
  152.1963  139.9906  158.5333 H   0  0  0  0  0  0  0  0  0  0  0  0
  150.4797  140.2207  158.7061 H   0  0  0  0  0  0  0  0  0  0  0  0
  150.3932  141.4680  156.5381 H   0  0  0  0  0  0  0  0  0  0  0  0
  152.1309  141.3573  156.3883 H   0  0  0  0  0  0  0  0  0  0  0  0
  151.4268  138.7391  156.6378 H   0  0  0  0  0  0  0  0  0  0  0  0
  150.3607  137.9202  153.3009 H   0  0  0  0  0  0  0  0  0  0  0  0
  151.7026  137.5474  154.3598 H   0  0  0  0  0  0  0  0  0  0  0  0
  148.7841  137.4965  155.3119 H   0  0  0  0  0  0  0  0  0  0  0  0
  149.5729  136.1043  154.6166 H   0  0  0  0  0  0  0  0  0  0  0  0
  151.4441  136.6492  156.5250 H   0  0  0  0  0  0  0  0  0  0  0  0
  150.0359  138.5590  157.5588 H   0  0  0  0  0  0  0  0  0  0  0  0
  151.6162  143.4728  157.3558 H   0  0  0  0  0  0  0  0  0  0  0  0
  1  2  1  0  0  0  0
  1 21  1  0  0  0  0
  1 22  1  0  0  0  0
  1 23  1  0  0  0  0
  2 20  1  0  0  0  0
  2  3  2  0  0  0  0
  3  4  1  0  0  0  0
  4  5  1  0  0  0  0
  4 19  2  0  0  0  0
  5  6  1  0  0  0  0
  5 24  1  0  0  0  0
  5 25  1  0  0  0  0
  6  7  1  0  0  0  0
  6 26  1  0  0  0  0
  6 27  1  0  0  0  0
  7  8  1  0  0  0  0
  7 28  1  0  0  0  0
  8  9  2  0  0  0  0
  8 10  1  0  0  0  0
 10 11  1  0  0  0  0
 10 29  1  0  0  0  0
 10 30  1  0  0  0  0
 11 12  1  0  0  0  0
 11 31  1  0  0  0  0
 11 32  1  0  0  0  0
 12 17  1  0  0  0  0
 12 13  1  0  0  0  0
 12 33  1  0  0  0  0
 13 14  1  0  0  0  0
 13 34  1  0  0  0  0
 14 15  2  0  0  0  0
 14 16  1  0  0  0  0
 16 17  1  0  0  0  0
 17 18  2  0  0  0  0
 19 20  1  0  0  0  0
 19 35  1  0  0  0  0
M  CHG  1  16  -1
M  END
> <s_m_source_file>
AV-unprocessed.smi

> <i_m_source_file_index>
1116

> <i_lp_mmshare_version>
43012

> <i_f3d_flags>
0

> <s_epik_input>
W0NIM11jMW5jKFtjSF1zMSlbQ0gyXVtDSDJdW05IXUMoPU8pW0NIMl1bQ0gyXVtDQEBIXTJbTkhdQyg9TylbTkhdQzI9Tw==

> <s_epik_cmdline>
J2VwaWtfcHl0aG9uJywgJy1waCcsICc3LjAnLCAnLXRuJywgJzgnLCAnLW1hJywgJzIwMCcsICctbWV0YWxfYmluZGluZycsICctaW1hZScsICc8aW5maWxlLm1hZT4nLCAnLW9tYWUnLCAnPG91dGZpbGUubWFlPic=

> <r_lp_tautomer_probability>
1

> <r_epik_Ionization_Penalty>
2.5713

> <r_epik_Ionization_Penalty_Charging>
2.57023

> <r_epik_Ionization_Penalty_Neutral>
0.00106405

> <r_epik_State_Penalty>
2.56828

> <r_epik_Charging_Adjusted_Penalty>
5.13851

> <i_epik_Tot_Q>
-1

> <i_epik_Tot_abs_Q>
1

> <r_epik_Metal_State_Penalty>
0.44525

> <b_epik_Metal_Only>
1

> <s_lp_Force_Field>
OPLS_2005

> <r_lp_Energy>
2.19092

> <b_lp_Chiralities_Consistent>
1

> <s_lp_Variant>
AV-unprocessed.smi:1116-6

> <Gold.Version>
5.8.1

> <Gold.Id.Protein>
6NUR|6NUR_protein|mol2

> <Gold.PLP.Fitness>
43.8446

> <Gold.PLP.PLP>
-35.8002

> <Gold.PLP.part.hbond>
-3.3885

> <Gold.PLP.part.metal>
0.0000

> <Gold.PLP.part.buried>
-5.4532

> <Gold.PLP.part.nonpolar>
-28.0163

> <Gold.PLP.part.repulsive>
0.5365

> <Gold.PLP.ligand.clash>
0.0000

> <Gold.PLP.ligand.torsion>
0.5538

> <Gold.PLP.Chemscore.Hbond>
3.0318

> <Gold.PLP.Chemscore.CHOScore>
0.0000

> <Gold.PLP.Chemscore.Metal>
0.0000

> <Gold.Chemscore.Hbonds>
donor molecule, donor type, donor heavy atom, donor atom, acceptor molecule, acceptor atom, score
      P1  H  6896  6908       L1    16  1.05
      P1  H  7989  7998       L1     9  0.98

> <Gold.PLP.Chemscore.Internal.Correction>
0.0566

> <Gold.Rescore>
     Score         DG    S(hbond)    S(metal)    S(lipo)     H(rot)  DE(clash)    DE(int)     intcor
     12.56     -13.54       1.77        0.00      78.94       2.77       0.01       0.97       ----

> <Gold.Chemscore.Fitness>
12.5588

> <Gold.Chemscore.DG>
-13.5371

> <Gold.Chemscore.ZeroCoef>
-5.4800

> <Gold.Chemscore.Hbond>
1.7694

> <Gold.Chemscore.Metal>
0.0000

> <Gold.Chemscore.Lipo>
78.9414

> <Gold.Chemscore.Internal_Hbond>
0.0000

> <Gold.Chemscore.DEClash>
0.0126

> <Gold.Chemscore.DEInternal>
0.9657

> <Gold.Chemscore.Rot>
2.7691

> <Gold.Chemscore.Internal.Correction>
   9.000000E+99

> <Gold.Chemscore.Hbonds>
donor molecule, donor type, donor heavy atom, donor atom, acceptor molecule, acceptor atom, score
      P1  H  6896  6908       L1    16  0.05
      P1  H  6931  6943       L1    15  0.01
      P1  H  7989  7998       L1     9  0.53

> <Gold.Chemscore.Hbond.Weighted>
-5.9099

> <Gold.Chemscore.Metal.Weighted>
-0.0000

> <Gold.Chemscore.Lipo.Weighted>
-9.2361

> <Gold.Chemscore.Internal_Hbond.Weighted>
0.0000

> <Gold.Chemscore.DEClash.Weighted>
0.0126

> <Gold.Chemscore.DEInternal.Weighted>
0.9657

> <Gold.Chemscore.Rot.Weighted>
7.0889

> <Gold.Chemscore.Internal.Correction.Weighted>
   9.000000E+99

> <Gold.Protein.RotatedTorsions>
[ 6907 6896 6895 6894 ] final  175.02 input  -60.11 | X-H torsion
[ 7974 7965 7964 7962 ] final  -93.20 input  175.53 | X-H torsion
[ 8008 7997 7996 7995 ] final  157.99 input   59.86 | X-H torsion
[ 10167 10162 10161 10158 ] final -160.01 input  -65.29 | X-H torsion
[ 10718 10713 10712 10709 ] final  139.36 input   66.30 | X-H torsion
[ 10763 10752 10751 10750 ] final   82.72 input  -60.55 | X-H torsion
[ 11005 11000 10999 10996 ] final  171.21 input  -57.11 | X-H torsion

> <Gold.Protein.ActiveResidues>
 VAL166  LYS551  ARG553  GLY616  TRP617  ASP618  TYR619  PRO620  LYS621  CYS622 
 ASP623  PHE694  ASN695  SER759  ASP760  ASP761  ALA762  ILE779  LEU786  VAL792 
 PHE793  MET794  SER795  GLU796  ALA797  LYS798  CYS799  TRP800  GLU811  SER814 

> <Gold.Protein.RotatedAtoms>
  151.7429  133.3323  159.3370 H   0  0  0  0  0  0  0  0  0  0  0  0  # atno 6907 bound_to 6896
  150.7566  134.6262  159.6171 H   0  0  0  0  0  0  0  0  0  0  0  0  # atno 6908 bound_to 6896
  152.3519  134.6996  160.0285 H   0  0  0  0  0  0  0  0  0  0  0  0  # atno 6909 bound_to 6896
  145.3897  140.9527  143.2347 H   0  0  0  0  0  0  0  0  0  0  0  0  # atno 7974 bound_to 7965
  156.2330  140.1870  156.7193 H   0  0  0  0  0  0  0  0  0  0  0  0  # atno 8008 bound_to 7997
  154.6056  140.0629  156.9454 H   0  0  0  0  0  0  0  0  0  0  0  0  # atno 8009 bound_to 7997
  155.2101  140.3299  155.4332 H   0  0  0  0  0  0  0  0  0  0  0  0  # atno 8010 bound_to 7997
  139.6572  143.9978  152.2201 H   0  0  0  0  0  0  0  0  0  0  0  0  # atno 10167 bound_to 10162
  157.4152  131.1032  151.0412 H   0  0  0  0  0  0  0  0  0  0  0  0  # atno 10718 bound_to 10713
  153.1227  135.4718  154.9222 H   0  0  0  0  0  0  0  0  0  0  0  0  # atno 10763 bound_to 10752
  154.7591  135.3126  154.8415 H   0  0  0  0  0  0  0  0  0  0  0  0  # atno 10764 bound_to 10752
  153.8976  135.6878  153.4811 H   0  0  0  0  0  0  0  0  0  0  0  0  # atno 10765 bound_to 10752
  140.3166  134.7472  157.4032 H   0  0  0  0  0  0  0  0  0  0  0  0  # atno 11005 bound_to 11000
  144.8449  139.5413  143.6883 LP  0  0  0  0  0  0  0  0  0  0  0  0  # atno 17320 bound_to 7965
  146.2803  139.6860  142.9234 LP  0  0  0  0  0  0  0  0  0  0  0  0  # atno 17321 bound_to 7965
  139.9708  144.6495  150.7991 LP  0  0  0  0  0  0  0  0  0  0  0  0  # atno 17342 bound_to 10162
  140.7564  143.3065  151.2949 LP  0  0  0  0  0  0  0  0  0  0  0  0  # atno 17343 bound_to 10162
  157.1362  130.6123  149.5542 LP  0  0  0  0  0  0  0  0  0  0  0  0  # atno 17370 bound_to 10713
  155.9863  130.4897  150.7072 LP  0  0  0  0  0  0  0  0  0  0  0  0  # atno 17371 bound_to 10713
  140.0978  134.5513  155.8381 LP  0  0  0  0  0  0  0  0  0  0  0  0  # atno 17394 bound_to 11000
  141.2096  133.6686  156.6451 LP  0  0  0  0  0  0  0  0  0  0  0  0  # atno 17395 bound_to 11000

$$$$
