AV-unprocessed.smi:3194|AV-procd|sdf|12211|dock5
  -GOLD-   2272018 53D 1   1.00000     0.00000
 Structure written by MMmdl.
 27 27  0  0  0  0  0  0  0  0  2 V2000
  151.0871  137.4858  155.2710 C   0  0  0  0  0  0  0  0  0  0  0  0
  150.4721  138.6114  154.4262 C   0  0  1  0  0  0  0  0  0  0  0  0
  148.9333  138.5245  154.4164 C   0  0  0  0  0  0  0  0  0  0  0  0
  148.3918  139.1166  153.2519 O   0  0  0  0  0  0  0  0  0  0  0  0
  150.8915  139.8979  154.9865 N   0  5  0  0  0  0  0  0  0  0  0  0
  151.6058  140.0412  156.1407 C   0  0  0  0  0  0  0  0  0  0  0  0
  152.5898  139.4121  156.5465 O   0  0  0  0  0  0  0  0  0  0  0  0
  151.0358  141.1664  157.0301 C   0  0  0  0  0  0  0  0  0  0  0  0
  150.9947  142.3018  156.3273 F   0  0  0  0  0  0  0  0  0  0  0  0
  149.7791  140.8682  157.3758 F   0  0  0  0  0  0  0  0  0  0  0  0
  151.9029  141.3702  158.2724 C   0  0  0  0  0  0  0  0  0  0  0  0
  152.1357  140.3116  159.1807 C   0  0  0  0  0  0  0  0  0  0  0  0
  152.9534  140.5491  160.3017 C   0  0  0  0  0  0  0  0  0  0  0  0
  153.5075  141.8308  160.4786 C   0  0  0  0  0  0  0  0  0  0  0  0
  153.2189  142.8215  159.5198 C   0  0  0  0  0  0  0  0  0  0  0  0
  152.4365  142.6046  158.4415 N   0  0  0  0  0  0  0  0  0  0  0  0
  150.8202  138.4700  153.4015 H   0  0  0  0  0  0  0  0  0  0  0  0
  150.8044  136.5070  154.8829 H   0  0  0  0  0  0  0  0  0  0  0  0
  150.7577  137.5392  156.3094 H   0  0  0  0  0  0  0  0  0  0  0  0
  152.1765  137.5379  155.2635 H   0  0  0  0  0  0  0  0  0  0  0  0
  148.6146  137.4823  154.4420 H   0  0  0  0  0  0  0  0  0  0  0  0
  148.5085  139.0090  155.2966 H   0  0  0  0  0  0  0  0  0  0  0  0
  149.1029  139.4507  152.7284 H   0  0  0  0  0  0  0  0  0  0  0  0
  151.7075  139.3340  159.0160 H   0  0  0  0  0  0  0  0  0  0  0  0
  153.1538  139.7606  161.0119 H   0  0  0  0  0  0  0  0  0  0  0  0
  154.1400  142.0490  161.3262 H   0  0  0  0  0  0  0  0  0  0  0  0
  153.6271  143.8162  159.6222 H   0  0  0  0  0  0  0  0  0  0  0  0
  1  2  1  0  0  0  0
  1 18  1  0  0  0  0
  1 19  1  0  0  0  0
  1 20  1  0  0  0  0
  2 17  1  0  0  0  0
  2  3  1  0  0  0  0
  2  5  1  0  0  0  0
  3  4  1  0  0  0  0
  3 21  1  0  0  0  0
  3 22  1  0  0  0  0
  4 23  1  0  0  0  0
  5  6  1  0  0  0  0
  6  7  2  0  0  0  0
  6  8  1  0  0  0  0
  8  9  1  0  0  0  0
  8 10  1  0  0  0  0
  8 11  1  0  0  0  0
 11 16  1  0  0  0  0
 11 12  2  0  0  0  0
 12 13  1  0  0  0  0
 12 24  1  0  0  0  0
 13 14  2  0  0  0  0
 13 25  1  0  0  0  0
 14 15  1  0  0  0  0
 14 26  1  0  0  0  0
 15 16  2  0  0  0  0
 15 27  1  0  0  0  0
M  CHG  1   5  -1
M  END
> <s_m_source_file>
AV-unprocessed.smi

> <i_m_source_file_index>
3194

> <i_lp_mmshare_version>
43012

> <i_f3d_flags>
0

> <s_epik_input>
W09IXVtDSDJdW0NASF0oW0NIM10pW05IXUMoPU8pQyhGKShGKWMxW2NIXVtjSF1bY0hdW2NIXW4x

> <s_epik_cmdline>
J2VwaWtfcHl0aG9uJywgJy1waCcsICc3LjAnLCAnLXRuJywgJzgnLCAnLW1hJywgJzIwMCcsICctbWV0YWxfYmluZGluZycsICctaW1hZScsICc8aW5maWxlLm1hZT4nLCAnLW9tYWUnLCAnPG91dGZpbGUubWFlPic=

> <r_lp_tautomer_probability>
1

> <r_epik_Ionization_Penalty>
5.78943

> <r_epik_Ionization_Penalty_Charging>
5.78942

> <r_epik_Ionization_Penalty_Neutral>
4.0054e-06

> <r_epik_State_Penalty>
5.78939

> <r_epik_Charging_Adjusted_Penalty>
11.5788

> <i_epik_Tot_Q>
-1

> <i_epik_Tot_abs_Q>
1

> <r_epik_Metal_State_Penalty>
1.76064

> <b_epik_Metal_Only>
1

> <s_lp_Force_Field>
OPLS_2005

> <r_lp_Energy>
17.1269

> <b_lp_Chiralities_Consistent>
1

> <s_lp_Variant>
AV-unprocessed.smi:3194-3

> <Gold.Version>
5.8.1

> <Gold.Id.Protein>
6NUR|6NUR_protein|mol2

> <Gold.PLP.Fitness>
42.2790

> <Gold.PLP.PLP>
-34.7571

> <Gold.PLP.part.hbond>
-3.8470

> <Gold.PLP.part.metal>
0.0000

> <Gold.PLP.part.buried>
-4.4501

> <Gold.PLP.part.nonpolar>
-26.9565

> <Gold.PLP.part.repulsive>
0.0573

> <Gold.PLP.ligand.clash>
0.0467

> <Gold.PLP.ligand.torsion>
0.7287

> <Gold.PLP.Chemscore.Hbond>
2.9920

> <Gold.PLP.Chemscore.CHOScore>
0.0000

> <Gold.PLP.Chemscore.Metal>
0.0000

> <Gold.Chemscore.Hbonds>
donor molecule, donor type, donor heavy atom, donor atom, acceptor molecule, acceptor atom, score
      L1  H     4    23       P1  7957  0.93
      P1  H  7989  7998       L1     5  1.00
      P1  H  7997  8008       L1     7  1.00

> <Gold.PLP.Chemscore.Internal.Correction>
0.0500

> <Gold.Rescore>
     Score         DG    S(hbond)    S(metal)    S(lipo)     H(rot)  DE(clash)    DE(int)     intcor
     12.59     -16.11       2.49        0.00      72.92       2.43       0.18       3.34       ----

> <Gold.Chemscore.Fitness>
12.5857

> <Gold.Chemscore.DG>
-16.1072

> <Gold.Chemscore.ZeroCoef>
-5.4800

> <Gold.Chemscore.Hbond>
2.4881

> <Gold.Chemscore.Metal>
0.0000

> <Gold.Chemscore.Lipo>
72.9223

> <Gold.Chemscore.Internal_Hbond>
0.0000

> <Gold.Chemscore.DEClash>
0.1818

> <Gold.Chemscore.DEInternal>
3.3397

> <Gold.Chemscore.Rot>
2.4277

> <Gold.Chemscore.Internal.Correction>
   9.000000E+99

> <Gold.Chemscore.Hbonds>
donor molecule, donor type, donor heavy atom, donor atom, acceptor molecule, acceptor atom, score
      L1  H     4    23       P1  7957  0.90
      P1  H  7989  7998       L1     5  0.42
      P1  H  7997  8008       L1     7  1.00

> <Gold.Chemscore.Hbond.Weighted>
-8.3102

> <Gold.Chemscore.Metal.Weighted>
-0.0000

> <Gold.Chemscore.Lipo.Weighted>
-8.5319

> <Gold.Chemscore.Internal_Hbond.Weighted>
0.0000

> <Gold.Chemscore.DEClash.Weighted>
0.1818

> <Gold.Chemscore.DEInternal.Weighted>
3.3397

> <Gold.Chemscore.Rot.Weighted>
6.2149

> <Gold.Chemscore.Internal.Correction.Weighted>
   9.000000E+99

> <Gold.Protein.RotatedTorsions>
[ 6907 6896 6895 6894 ] final  171.03 input  -60.11 | X-H torsion
[ 7974 7965 7964 7962 ] final   38.94 input  175.53 | X-H torsion
[ 8008 7997 7996 7995 ] final  -56.94 input   59.86 | X-H torsion
[ 10167 10162 10161 10158 ] final -165.38 input  -65.29 | X-H torsion
[ 10718 10713 10712 10709 ] final  -69.79 input   66.30 | X-H torsion
[ 10763 10752 10751 10750 ] final   53.34 input  -60.55 | X-H torsion
[ 11005 11000 10999 10996 ] final  175.15 input  -57.11 | X-H torsion

> <Gold.Protein.ActiveResidues>
 VAL166  LYS551  ARG553  GLY616  TRP617  ASP618  TYR619  PRO620  LYS621  CYS622 
 ASP623  PHE694  ASN695  SER759  ASP760  ASP761  ALA762  ILE779  LEU786  VAL792 
 PHE793  MET794  SER795  GLU796  ALA797  LYS798  CYS799  TRP800  GLU811  SER814 

> <Gold.Protein.RotatedAtoms>
  151.8068  133.3376  159.3542 H   0  0  0  0  0  0  0  0  0  0  0  0  # atno 6907 bound_to 6896
  150.7340  134.5702  159.5896 H   0  0  0  0  0  0  0  0  0  0  0  0  # atno 6908 bound_to 6896
  152.3104  134.7505  160.0389 H   0  0  0  0  0  0  0  0  0  0  0  0  # atno 6909 bound_to 6896
  146.1023  139.5712  142.9406 H   0  0  0  0  0  0  0  0  0  0  0  0  # atno 7974 bound_to 7965
  154.4249  140.1118  156.5718 H   0  0  0  0  0  0  0  0  0  0  0  0  # atno 8008 bound_to 7997
  155.6204  140.3495  155.4631 H   0  0  0  0  0  0  0  0  0  0  0  0  # atno 8009 bound_to 7997
  156.0029  140.1203  157.0519 H   0  0  0  0  0  0  0  0  0  0  0  0  # atno 8010 bound_to 7997
  139.6186  144.0669  152.1911 H   0  0  0  0  0  0  0  0  0  0  0  0  # atno 10167 bound_to 10162
  156.0438  130.4319  150.2199 H   0  0  0  0  0  0  0  0  0  0  0  0  # atno 10718 bound_to 10713
  152.9794  135.5782  154.4726 H   0  0  0  0  0  0  0  0  0  0  0  0  # atno 10763 bound_to 10752
  154.4286  135.2773  155.1929 H   0  0  0  0  0  0  0  0  0  0  0  0  # atno 10764 bound_to 10752
  154.3647  135.6181  153.5763 H   0  0  0  0  0  0  0  0  0  0  0  0  # atno 10765 bound_to 10752
  140.3590  134.7129  157.4319 H   0  0  0  0  0  0  0  0  0  0  0  0  # atno 11005 bound_to 11000
  145.5829  141.0380  143.2112 LP  0  0  0  0  0  0  0  0  0  0  0  0  # atno 17320 bound_to 7965
  144.7443  139.7363  143.7298 LP  0  0  0  0  0  0  0  0  0  0  0  0  # atno 17321 bound_to 7965
  140.0306  144.6084  150.7491 LP  0  0  0  0  0  0  0  0  0  0  0  0  # atno 17342 bound_to 10162
  140.7367  143.2757  151.3751 LP  0  0  0  0  0  0  0  0  0  0  0  0  # atno 17343 bound_to 10162
  157.0291  131.0002  151.3317 LP  0  0  0  0  0  0  0  0  0  0  0  0  # atno 17370 bound_to 10713
  157.5290  130.8046  149.7895 LP  0  0  0  0  0  0  0  0  0  0  0  0  # atno 17371 bound_to 10713
  140.0642  134.5953  155.8714 LP  0  0  0  0  0  0  0  0  0  0  0  0  # atno 17394 bound_to 11000
  141.1990  133.6604  156.5819 LP  0  0  0  0  0  0  0  0  0  0  0  0  # atno 17395 bound_to 11000

$$$$
