AV-unprocessed.smi:1427|AV-procd|sdf|5812|dock7
  -GOLD-   22720 5463D 1   1.00000     0.00000
 Structure written by MMmdl.
 33 34  0  0  0  0  0  0  0  0  1 V2000
  151.4241  143.9755  157.6178 C   0  0  0  0  0  0  0  0  0  0  0  0
  151.3109  142.5223  157.1376 C   0  0  1  0  0  0  0  0  0  0  0  0
  151.0358  141.5611  158.3145 C   0  0  0  0  0  0  0  0  0  0  0  0
  152.0626  141.6229  159.3408 N   0  0  0  0  0  0  0  0  0  0  0  0
  152.3945  142.6829  160.1576 C   0  0  0  0  0  0  0  0  0  0  0  0
  153.4351  142.2794  160.9441 C   0  0  0  0  0  0  0  0  0  0  0  0
  153.6698  140.9379  160.5322 C   0  0  0  0  0  0  0  0  0  0  0  0
  152.8443  140.5461  159.5753 N   0  0  0  0  0  0  0  0  0  0  0  0
  150.2514  142.4333  156.1334 N   0  0  0  0  0  0  0  0  0  0  0  0
  150.0921  141.4340  155.2508 C   0  0  0  0  0  0  0  0  0  0  0  0
  150.8684  140.4818  155.1591 O   0  0  0  0  0  0  0  0  0  0  0  0
  148.8683  141.5300  154.3288 C   0  0  1  0  0  0  0  0  0  0  0  0
  147.9899  140.2634  154.3207 C   0  0  0  0  0  0  0  0  0  0  0  0
  146.7864  140.5924  155.2149 C   0  0  0  0  0  0  0  0  0  0  0  0
  146.8196  142.1105  155.2785 C   0  0  0  0  0  0  0  0  0  0  0  0
  145.9081  142.7914  155.7423 O   0  0  0  0  0  0  0  0  0  0  0  0
  147.9602  142.5763  154.7686 N   0  0  0  0  0  0  0  0  0  0  0  0
  152.2275  144.0854  158.3467 H   0  0  0  0  0  0  0  0  0  0  0  0
  150.4998  144.3124  158.0885 H   0  0  0  0  0  0  0  0  0  0  0  0
  151.6407  144.6485  156.7875 H   0  0  0  0  0  0  0  0  0  0  0  0
  152.2700  142.2574  156.6886 H   0  0  0  0  0  0  0  0  0  0  0  0
  150.0834  141.8100  158.7839 H   0  0  0  0  0  0  0  0  0  0  0  0
  150.9458  140.5336  157.9573 H   0  0  0  0  0  0  0  0  0  0  0  0
  151.8743  143.6279  160.1048 H   0  0  0  0  0  0  0  0  0  0  0  0
  153.9522  142.8558  161.6966 H   0  0  0  0  0  0  0  0  0  0  0  0
  154.4107  140.2419  160.8974 H   0  0  0  0  0  0  0  0  0  0  0  0
  149.5664  143.1751  156.1319 H   0  0  0  0  0  0  0  0  0  0  0  0
  149.1981  141.7600  153.3143 H   0  0  0  0  0  0  0  0  0  0  0  0
  147.6476  140.0550  153.3061 H   0  0  0  0  0  0  0  0  0  0  0  0
  148.5221  139.3765  154.6687 H   0  0  0  0  0  0  0  0  0  0  0  0
  145.8475  140.2239  154.8009 H   0  0  0  0  0  0  0  0  0  0  0  0
  146.9141  140.1870  156.2192 H   0  0  0  0  0  0  0  0  0  0  0  0
  148.2006  143.5560  154.7238 H   0  0  0  0  0  0  0  0  0  0  0  0
  1  2  1  0  0  0  0
  1 18  1  0  0  0  0
  1 19  1  0  0  0  0
  1 20  1  0  0  0  0
  2  3  1  0  0  0  0
  2  9  1  0  0  0  0
  2 21  1  0  0  0  0
  3  4  1  0  0  0  0
  3 22  1  0  0  0  0
  3 23  1  0  0  0  0
  4  8  1  0  0  0  0
  4  5  1  0  0  0  0
  5  6  2  0  0  0  0
  5 24  1  0  0  0  0
  6  7  1  0  0  0  0
  6 25  1  0  0  0  0
  7  8  2  0  0  0  0
  7 26  1  0  0  0  0
  9 10  1  0  0  0  0
  9 27  1  0  0  0  0
 10 11  2  0  0  0  0
 10 12  1  0  0  0  0
 12 17  1  0  0  0  0
 12 13  1  0  0  0  0
 12 28  1  0  0  0  0
 13 14  1  0  0  0  0
 13 29  1  0  0  0  0
 13 30  1  0  0  0  0
 14 15  1  0  0  0  0
 14 31  1  0  0  0  0
 14 32  1  0  0  0  0
 15 16  2  0  0  0  0
 15 17  1  0  0  0  0
 17 33  1  0  0  0  0
M  END
> <s_m_source_file>
AV-unprocessed.smi

> <i_m_source_file_index>
1427

> <i_lp_mmshare_version>
43012

> <i_f3d_flags>
0

> <s_epik_input>
bjFbY0hdW2NIXVtjSF1uMVtDSDJdW0NAQEhdKFtDSDNdKVtOSF1DKD1PKVtDQEBIXTJbQ0gyXVtDSDJdQyg9TylbTkhdMg==

> <s_epik_cmdline>
J2VwaWtfcHl0aG9uJywgJy1waCcsICc3LjAnLCAnLXRuJywgJzgnLCAnLW1hJywgJzIwMCcsICctbWV0YWxfYmluZGluZycsICctaW1hZScsICc8aW5maWxlLm1hZT4nLCAnLW9tYWUnLCAnPG91dGZpbGUubWFlPic=

> <r_lp_tautomer_probability>
1

> <r_epik_Ionization_Penalty>
0.000310707

> <r_epik_Ionization_Penalty_Charging>
0

> <r_epik_Ionization_Penalty_Neutral>
0.000310707

> <r_epik_State_Penalty>
-0

> <r_epik_Charging_Adjusted_Penalty>
0

> <i_epik_Tot_Q>
0

> <i_epik_Tot_abs_Q>
0

> <r_epik_Metal_State_Penalty>
-0

> <b_epik_Metal_Only>
0

> <s_lp_Force_Field>
OPLS_2005

> <r_lp_Energy>
14.0885

> <b_lp_Chiralities_Consistent>
1

> <s_lp_Variant>
AV-unprocessed.smi:1427-4

> <Gold.Version>
5.8.1

> <Gold.Id.Protein>
6NUR|6NUR_protein|mol2

> <Gold.PLP.Fitness>
42.3093

> <Gold.PLP.PLP>
-34.5778

> <Gold.PLP.part.hbond>
-2.9137

> <Gold.PLP.part.metal>
0.0000

> <Gold.PLP.part.buried>
-3.4783

> <Gold.PLP.part.nonpolar>
-27.5956

> <Gold.PLP.part.repulsive>
0.5008

> <Gold.PLP.ligand.clash>
0.0000

> <Gold.PLP.ligand.torsion>
0.4200

> <Gold.PLP.Chemscore.Hbond>
2.8480

> <Gold.PLP.Chemscore.CHOScore>
0.0000

> <Gold.PLP.Chemscore.Metal>
0.0000

> <Gold.Chemscore.Hbonds>
donor molecule, donor type, donor heavy atom, donor atom, acceptor molecule, acceptor atom, score
      L1  H     9    27       P1  8028  1.00
      L1  H    17    33       P1  8028  0.83
      P1  H  7989  7998       L1    11  0.95

> <Gold.PLP.Chemscore.Internal.Correction>
0.0275

> <Gold.Rescore>
     Score         DG    S(hbond)    S(metal)    S(lipo)     H(rot)  DE(clash)    DE(int)     intcor
     15.83     -16.72       2.09        0.00      77.46       1.88       0.26       0.63       ----

> <Gold.Chemscore.Fitness>
15.8262

> <Gold.Chemscore.DG>
-16.7188

> <Gold.Chemscore.ZeroCoef>
-5.4800

> <Gold.Chemscore.Hbond>
2.0940

> <Gold.Chemscore.Metal>
0.0000

> <Gold.Chemscore.Lipo>
77.4611

> <Gold.Chemscore.Internal_Hbond>
0.0000

> <Gold.Chemscore.DEClash>
0.2585

> <Gold.Chemscore.DEInternal>
0.6341

> <Gold.Chemscore.Rot>
1.8821

> <Gold.Chemscore.Internal.Correction>
   9.000000E+99

> <Gold.Chemscore.Hbonds>
donor molecule, donor type, donor heavy atom, donor atom, acceptor molecule, acceptor atom, score
      L1  H     9    27       P1  8028  0.99
      L1  H    17    33       P1  8028  0.76
      P1  H  7989  7998       L1    11  0.21

> <Gold.Chemscore.Hbond.Weighted>
-6.9939

> <Gold.Chemscore.Metal.Weighted>
-0.0000

> <Gold.Chemscore.Lipo.Weighted>
-9.0629

> <Gold.Chemscore.Internal_Hbond.Weighted>
0.0000

> <Gold.Chemscore.DEClash.Weighted>
0.2585

> <Gold.Chemscore.DEInternal.Weighted>
0.6341

> <Gold.Chemscore.Rot.Weighted>
4.8181

> <Gold.Chemscore.Internal.Correction.Weighted>
   9.000000E+99

> <Gold.Protein.RotatedTorsions>
[ 6907 6896 6895 6894 ] final -126.59 input  -60.11 | X-H torsion
[ 7974 7965 7964 7962 ] final -177.84 input  175.53 | X-H torsion
[ 8008 7997 7996 7995 ] final   85.06 input   59.86 | X-H torsion
[ 10167 10162 10161 10158 ] final -143.24 input  -65.29 | X-H torsion
[ 10718 10713 10712 10709 ] final   89.90 input   66.30 | X-H torsion
[ 10763 10752 10751 10750 ] final   99.29 input  -60.55 | X-H torsion
[ 11005 11000 10999 10996 ] final  161.46 input  -57.11 | X-H torsion

> <Gold.Protein.ActiveResidues>
 VAL166  LYS551  ARG553  GLY616  TRP617  ASP618  TYR619  PRO620  LYS621  CYS622 
 ASP623  PHE694  ASN695  SER759  ASP760  ASP761  ALA762  ILE779  LEU786  VAL792 
 PHE793  MET794  SER795  GLU796  ALA797  LYS798  CYS799  TRP800  GLU811  SER814 

> <Gold.Protein.RotatedAtoms>
  150.8985  133.7150  159.2885 H   0  0  0  0  0  0  0  0  0  0  0  0  # atno 6907 bound_to 6896
  151.4676  135.1042  159.9752 H   0  0  0  0  0  0  0  0  0  0  0  0  # atno 6908 bound_to 6896
  152.4863  133.8333  159.7170 H   0  0  0  0  0  0  0  0  0  0  0  0  # atno 6909 bound_to 6896
  144.7129  140.0958  143.6419 H   0  0  0  0  0  0  0  0  0  0  0  0  # atno 7974 bound_to 7965
  155.9452  140.3405  155.6360 H   0  0  0  0  0  0  0  0  0  0  0  0  # atno 8008 bound_to 7997
  155.6990  140.0758  157.2436 H   0  0  0  0  0  0  0  0  0  0  0  0  # atno 8009 bound_to 7997
  154.4110  140.1643  156.2157 H   0  0  0  0  0  0  0  0  0  0  0  0  # atno 8010 bound_to 7997
  139.8012  143.7831  152.2658 H   0  0  0  0  0  0  0  0  0  0  0  0  # atno 10167 bound_to 10162
  157.6957  131.0350  150.3495 H   0  0  0  0  0  0  0  0  0  0  0  0  # atno 10718 bound_to 10713
  153.2996  135.4118  155.1240 H   0  0  0  0  0  0  0  0  0  0  0  0  # atno 10763 bound_to 10752
  154.8545  135.3538  154.5870 H   0  0  0  0  0  0  0  0  0  0  0  0  # atno 10764 bound_to 10752
  153.6295  135.7061  153.5339 H   0  0  0  0  0  0  0  0  0  0  0  0  # atno 10765 bound_to 10752
  140.2161  134.8231  157.3171 H   0  0  0  0  0  0  0  0  0  0  0  0  # atno 11005 bound_to 11000
  145.9580  139.2780  143.1172 LP  0  0  0  0  0  0  0  0  0  0  0  0  # atno 17320 bound_to 7965
  145.9251  140.9088  143.0385 LP  0  0  0  0  0  0  0  0  0  0  0  0  # atno 17321 bound_to 7965
  139.7951  144.7395  150.9901 LP  0  0  0  0  0  0  0  0  0  0  0  0  # atno 17342 bound_to 10162
  140.7820  143.4402  151.0564 LP  0  0  0  0  0  0  0  0  0  0  0  0  # atno 17343 bound_to 10162
  156.3946  130.3904  149.7005 LP  0  0  0  0  0  0  0  0  0  0  0  0  # atno 17370 bound_to 10713
  156.4343  130.7830  151.2850 LP  0  0  0  0  0  0  0  0  0  0  0  0  # atno 17371 bound_to 10713
  140.1899  134.4384  155.7722 LP  0  0  0  0  0  0  0  0  0  0  0  0  # atno 17394 bound_to 11000
  141.2225  133.7022  156.8010 LP  0  0  0  0  0  0  0  0  0  0  0  0  # atno 17395 bound_to 11000

$$$$
