AV-unprocessed.smi:3092|AV-procd|sdf|11782|dock7
  -GOLD-   2272017163D 1   1.00000     0.00000
 Structure written by MMmdl.
 25 26  0  0  0  0  0  0  0  0  2 V2000
  151.9436  144.5612  160.7309 C   0  0  0  0  0  0  0  0  0  0  0  0
  152.4847  143.2202  160.6171 N   0  0  0  0  0  0  0  0  0  0  0  0
  153.3688  142.6276  161.5095 C   0  0  0  0  0  0  0  0  0  0  0  0
  153.6226  141.3642  161.0346 C   0  0  0  0  0  0  0  0  0  0  0  0
  152.9091  141.1640  159.8582 N   0  0  0  0  0  0  0  0  0  0  0  0
  152.2504  142.3025  159.6567 C   0  0  0  0  0  0  0  0  0  0  0  0
  151.3363  142.5342  158.4865 C   0  0  2  0  0  0  0  0  0  0  0  0
  151.2109  141.3698  157.5072 C   0  0  0  0  0  0  0  0  0  0  0  0
  150.6721  142.0345  156.2316 C   0  0  0  0  0  0  0  0  0  0  0  0
  150.9802  143.4778  156.3377 N   0  3  0  0  0  0  0  0  0  0  0  0
  151.7476  143.6905  157.5775 C   0  0  0  0  0  0  0  0  0  0  0  0
  152.3003  145.0352  161.6460 H   0  0  0  0  0  0  0  0  0  0  0  0
  150.8543  144.5196  160.7600 H   0  0  0  0  0  0  0  0  0  0  0  0
  152.2607  145.1609  159.8771 H   0  0  0  0  0  0  0  0  0  0  0  0
  153.7345  143.1397  162.3876 H   0  0  0  0  0  0  0  0  0  0  0  0
  154.2568  140.5918  161.4446 H   0  0  0  0  0  0  0  0  0  0  0  0
  150.3348  142.7556  158.8560 H   0  0  0  0  0  0  0  0  0  0  0  0
  152.1946  140.9452  157.3002 H   0  0  0  0  0  0  0  0  0  0  0  0
  150.5729  140.5670  157.8781 H   0  0  0  0  0  0  0  0  0  0  0  0
  151.1201  141.6048  155.3349 H   0  0  0  0  0  0  0  0  0  0  0  0
  149.5908  141.9136  156.1584 H   0  0  0  0  0  0  0  0  0  0  0  0
  151.5036  143.7989  155.5355 H   0  0  0  0  0  0  0  0  0  0  0  0
  151.5545  144.6691  158.0178 H   0  0  0  0  0  0  0  0  0  0  0  0
  152.8094  143.6310  157.3334 H   0  0  0  0  0  0  0  0  0  0  0  0
  150.1091  143.9852  156.4012 H   0  0  0  0  0  0  0  0  0  0  0  0
  1  2  1  0  0  0  0
  1 12  1  0  0  0  0
  1 13  1  0  0  0  0
  1 14  1  0  0  0  0
  2  6  1  0  0  0  0
  2  3  1  0  0  0  0
  3  4  2  0  0  0  0
  3 15  1  0  0  0  0
  4  5  1  0  0  0  0
  4 16  1  0  0  0  0
  5  6  2  0  0  0  0
  6  7  1  0  0  0  0
  7 11  1  0  0  0  0
  7  8  1  0  0  0  0
  7 17  1  0  0  0  0
  8  9  1  0  0  0  0
  8 18  1  0  0  0  0
  8 19  1  0  0  0  0
  9 10  1  0  0  0  0
  9 20  1  0  0  0  0
  9 21  1  0  0  0  0
 10 11  1  0  0  0  0
 10 22  1  0  0  0  0
 10 25  1  0  0  0  0
 11 23  1  0  0  0  0
 11 24  1  0  0  0  0
M  CHG  1  10   1
M  END
> <s_m_source_file>
AV-unprocessed.smi

> <i_m_source_file_index>
3092

> <i_lp_mmshare_version>
43012

> <i_f3d_flags>
0

> <s_epik_input>
W0NIM11uMVtjSF1bY0hdbmMxW0NAQEhdMltDSDJdW0NIMl1bTkhdW0NIMl0y

> <s_epik_cmdline>
J2VwaWtfcHl0aG9uJywgJy1waCcsICc3LjAnLCAnLXRuJywgJzgnLCAnLW1hJywgJzIwMCcsICctbWV0YWxfYmluZGluZycsICctaW1hZScsICc8aW5maWxlLm1hZT4nLCAnLW9tYWUnLCAnPG91dGZpbGUubWFlPic=

> <r_lp_tautomer_probability>
1

> <r_epik_Ionization_Penalty>
0.177139

> <r_epik_Ionization_Penalty_Charging>
0.177139

> <r_epik_Ionization_Penalty_Neutral>
7.43304e-14

> <r_epik_State_Penalty>
0.16632

> <r_epik_Charging_Adjusted_Penalty>
0.343459

> <i_epik_Tot_Q>
1

> <i_epik_Tot_abs_Q>
1

> <r_epik_Metal_State_Penalty>
0.000191838

> <b_epik_Metal_Only>
0

> <s_lp_Force_Field>
OPLS_2005

> <r_lp_Energy>
23.658

> <b_lp_Chiralities_Consistent>
1

> <s_lp_Variant>
AV-unprocessed.smi:3092-1

> <Gold.Version>
5.8.1

> <Gold.Id.Protein>
6NUR|6NUR_protein|mol2

> <Gold.PLP.Fitness>
35.5127

> <Gold.PLP.PLP>
-29.5608

> <Gold.PLP.part.hbond>
-0.9642

> <Gold.PLP.part.metal>
0.0000

> <Gold.PLP.part.buried>
-3.8970

> <Gold.PLP.part.nonpolar>
-23.6490

> <Gold.PLP.part.repulsive>
0.0998

> <Gold.PLP.ligand.clash>
0.0000

> <Gold.PLP.ligand.torsion>
0.0006

> <Gold.PLP.Chemscore.Hbond>
1.9840

> <Gold.PLP.Chemscore.CHOScore>
0.0000

> <Gold.PLP.Chemscore.Metal>
0.0000

> <Gold.Chemscore.Hbonds>
donor molecule, donor type, donor heavy atom, donor atom, acceptor molecule, acceptor atom, score
      L1  H    10    25       P1  8028  1.95

> <Gold.PLP.Chemscore.Internal.Correction>
0.0012

> <Gold.Rescore>
     Score         DG    S(hbond)    S(metal)    S(lipo)     H(rot)  DE(clash)    DE(int)     intcor
     14.35     -14.40       0.97        0.00      70.53       1.00       0.02       0.02       ----

> <Gold.Chemscore.Fitness>
14.3547

> <Gold.Chemscore.DG>
-14.4035

> <Gold.Chemscore.ZeroCoef>
-5.4800

> <Gold.Chemscore.Hbond>
0.9675

> <Gold.Chemscore.Metal>
0.0000

> <Gold.Chemscore.Lipo>
70.5319

> <Gold.Chemscore.Internal_Hbond>
0.0000

> <Gold.Chemscore.DEClash>
0.0240

> <Gold.Chemscore.DEInternal>
0.0248

> <Gold.Chemscore.Rot>
1.0000

> <Gold.Chemscore.Internal.Correction>
   9.000000E+99

> <Gold.Chemscore.Hbonds>
donor molecule, donor type, donor heavy atom, donor atom, acceptor molecule, acceptor atom, score
      L1  H    10    25       P1  8028  0.92

> <Gold.Chemscore.Hbond.Weighted>
-3.2313

> <Gold.Chemscore.Metal.Weighted>
-0.0000

> <Gold.Chemscore.Lipo.Weighted>
-8.2522

> <Gold.Chemscore.Internal_Hbond.Weighted>
0.0000

> <Gold.Chemscore.DEClash.Weighted>
0.0240

> <Gold.Chemscore.DEInternal.Weighted>
0.0248

> <Gold.Chemscore.Rot.Weighted>
2.5600

> <Gold.Chemscore.Internal.Correction.Weighted>
   9.000000E+99

> <Gold.Protein.RotatedTorsions>
[ 6907 6896 6895 6894 ] final -136.24 input  -60.11 | X-H torsion
[ 7974 7965 7964 7962 ] final  -90.55 input  175.53 | X-H torsion
[ 8008 7997 7996 7995 ] final   34.24 input   59.86 | X-H torsion
[ 10167 10162 10161 10158 ] final   83.43 input  -65.29 | X-H torsion
[ 10718 10713 10712 10709 ] final  148.48 input   66.30 | X-H torsion
[ 10763 10752 10751 10750 ] final   92.08 input  -60.55 | X-H torsion
[ 11005 11000 10999 10996 ] final  -88.88 input  -57.11 | X-H torsion

> <Gold.Protein.ActiveResidues>
 VAL166  LYS551  ARG553  GLY616  TRP617  ASP618  TYR619  PRO620  LYS621  CYS622 
 ASP623  PHE694  ASN695  SER759  ASP760  ASP761  ALA762  ILE779  LEU786  VAL792 
 PHE793  MET794  SER795  GLU796  ALA797  LYS798  CYS799  TRP800  GLU811  SER814 

> <Gold.Protein.RotatedAtoms>
  151.0076  133.5996  159.2686 H   0  0  0  0  0  0  0  0  0  0  0  0  # atno 6907 bound_to 6896
  151.3159  135.0805  159.9298 H   0  0  0  0  0  0  0  0  0  0  0  0  # atno 6908 bound_to 6896
  152.5291  133.9732  159.7826 H   0  0  0  0  0  0  0  0  0  0  0  0  # atno 6909 bound_to 6896
  145.4250  140.9553  143.2160 H   0  0  0  0  0  0  0  0  0  0  0  0  # atno 7974 bound_to 7965
  155.1516  140.3275  155.4430 H   0  0  0  0  0  0  0  0  0  0  0  0  # atno 8008 bound_to 7997
  156.2572  140.1976  156.6577 H   0  0  0  0  0  0  0  0  0  0  0  0  # atno 8009 bound_to 7997
  154.6469  140.0563  156.9897 H   0  0  0  0  0  0  0  0  0  0  0  0  # atno 8010 bound_to 7997
  139.9185  144.6228  150.8464 H   0  0  0  0  0  0  0  0  0  0  0  0  # atno 10167 bound_to 10162
  157.3080  131.0883  151.1338 H   0  0  0  0  0  0  0  0  0  0  0  0  # atno 10718 bound_to 10713
  153.2152  135.4374  155.0426 H   0  0  0  0  0  0  0  0  0  0  0  0  # atno 10763 bound_to 10752
  154.8221  135.3343  154.7009 H   0  0  0  0  0  0  0  0  0  0  0  0  # atno 10764 bound_to 10752
  153.7444  135.7002  153.5015 H   0  0  0  0  0  0  0  0  0  0  0  0  # atno 10765 bound_to 10752
  141.1594  133.7597  156.9515 H   0  0  0  0  0  0  0  0  0  0  0  0  # atno 11005 bound_to 11000
  144.8220  139.5775  143.6982 LP  0  0  0  0  0  0  0  0  0  0  0  0  # atno 17320 bound_to 7965
  146.2637  139.6469  142.9344 LP  0  0  0  0  0  0  0  0  0  0  0  0  # atno 17321 bound_to 7965
  140.7668  143.3314  151.2402 LP  0  0  0  0  0  0  0  0  0  0  0  0  # atno 17342 bound_to 10162
  139.6882  143.9737  152.2845 LP  0  0  0  0  0  0  0  0  0  0  0  0  # atno 17343 bound_to 10162
  157.2671  130.6686  149.6002 LP  0  0  0  0  0  0  0  0  0  0  0  0  # atno 17370 bound_to 10713
  155.9676  130.4490  150.5643 LP  0  0  0  0  0  0  0  0  0  0  0  0  # atno 17371 bound_to 10713
  140.1254  134.9390  157.2262 LP  0  0  0  0  0  0  0  0  0  0  0  0  # atno 17394 bound_to 11000
  140.3020  134.3121  155.7287 LP  0  0  0  0  0  0  0  0  0  0  0  0  # atno 17395 bound_to 11000

$$$$
