AV-unprocessed.smi:2768|AV-procd|sdf|10652|dock9
  -GOLD-   2272015103D 1   1.00000     0.00000
 Structure written by MMmdl.
 34 35  0  0  0  0  0  0  0  0  2 V2000
  152.7083  140.0341  155.2456 O   0  0  0  0  0  0  0  0  0  0  0  0
  151.5733  139.9032  155.7185 C   0  0  0  0  0  0  0  0  0  0  0  0
  150.9975  140.5246  156.7878 N   0  5  0  0  0  0  0  0  0  0  0  0
  151.6292  141.5935  157.5644 C   0  0  2  0  0  0  0  0  0  0  0  0
  152.7634  140.9942  158.4331 C   0  0  0  0  0  0  0  0  0  0  0  0
  153.4018  142.0163  159.4069 C   0  0  0  0  0  0  0  0  0  0  0  0
  152.3614  142.6813  160.3312 C   0  0  0  0  0  0  0  0  0  0  0  0
  151.2349  143.2991  159.4774 C   0  0  0  0  0  0  0  0  0  0  0  0
  150.5927  142.2780  158.5002 C   0  0  1  0  0  0  0  0  0  0  0  0
  149.6233  142.9604  157.7284 O   0  0  0  0  0  0  0  0  0  0  0  0
  150.6206  138.8873  155.0517 C   0  0  0  0  0  0  0  0  0  0  0  0
  151.2260  138.2854  154.0216 F   0  0  0  0  0  0  0  0  0  0  0  0
  150.3212  137.9386  155.9427 F   0  0  0  0  0  0  0  0  0  0  0  0
  149.3328  139.5739  154.6007 C   0  0  0  0  0  0  0  0  0  0  0  0
  148.2241  138.8120  154.1656 C   0  0  0  0  0  0  0  0  0  0  0  0
  147.0534  139.4861  153.7692 C   0  0  0  0  0  0  0  0  0  0  0  0
  147.0294  140.8925  153.8207 C   0  0  0  0  0  0  0  0  0  0  0  0
  148.1831  141.5644  154.2703 C   0  0  0  0  0  0  0  0  0  0  0  0
  149.3105  140.9278  154.6513 N   0  0  0  0  0  0  0  0  0  0  0  0
  152.0726  142.3640  156.9307 H   0  0  0  0  0  0  0  0  0  0  0  0
  150.0753  141.5180  159.0882 H   0  0  0  0  0  0  0  0  0  0  0  0
  152.3738  140.1569  159.0146 H   0  0  0  0  0  0  0  0  0  0  0  0
  153.5387  140.5792  157.7879 H   0  0  0  0  0  0  0  0  0  0  0  0
  154.1560  141.5149  160.0142 H   0  0  0  0  0  0  0  0  0  0  0  0
  153.9356  142.7866  158.8466 H   0  0  0  0  0  0  0  0  0  0  0  0
  151.9426  141.9369  161.0097 H   0  0  0  0  0  0  0  0  0  0  0  0
  152.8332  143.4449  160.9500 H   0  0  0  0  0  0  0  0  0  0  0  0
  150.4674  143.7039  160.1382 H   0  0  0  0  0  0  0  0  0  0  0  0
  151.6332  144.1538  158.9260 H   0  0  0  0  0  0  0  0  0  0  0  0
  150.0768  143.5380  157.1339 H   0  0  0  0  0  0  0  0  0  0  0  0
  148.2674  137.7331  154.1439 H   0  0  0  0  0  0  0  0  0  0  0  0
  146.1886  138.9333  153.4335 H   0  0  0  0  0  0  0  0  0  0  0  0
  146.1487  141.4429  153.5254 H   0  0  0  0  0  0  0  0  0  0  0  0
  148.2015  142.6430  154.3234 H   0  0  0  0  0  0  0  0  0  0  0  0
  1  2  2  0  0  0  0
  2  3  1  0  0  0  0
  2 11  1  0  0  0  0
  3  4  1  0  0  0  0
  4 20  1  0  0  0  0
  4  9  1  0  0  0  0
  4  5  1  0  0  0  0
  5  6  1  0  0  0  0
  5 22  1  0  0  0  0
  5 23  1  0  0  0  0
  6  7  1  0  0  0  0
  6 24  1  0  0  0  0
  6 25  1  0  0  0  0
  7  8  1  0  0  0  0
  7 26  1  0  0  0  0
  7 27  1  0  0  0  0
  8  9  1  0  0  0  0
  8 28  1  0  0  0  0
  8 29  1  0  0  0  0
  9 21  1  0  0  0  0
  9 10  1  0  0  0  0
 10 30  1  0  0  0  0
 11 12  1  0  0  0  0
 11 13  1  0  0  0  0
 11 14  1  0  0  0  0
 14 19  1  0  0  0  0
 14 15  2  0  0  0  0
 15 16  1  0  0  0  0
 15 31  1  0  0  0  0
 16 17  2  0  0  0  0
 16 32  1  0  0  0  0
 17 18  1  0  0  0  0
 17 33  1  0  0  0  0
 18 19  2  0  0  0  0
 18 34  1  0  0  0  0
M  CHG  1   3  -1
M  END
> <s_m_source_file>
AV-unprocessed.smi

> <i_m_source_file_index>
2768

> <i_lp_mmshare_version>
43012

> <i_f3d_flags>
0

> <s_epik_input>
bjFbY0hdW2NIXVtjSF1bY0hdYzFDKEYpKEYpQyg9TylbTkhdW0NAQEhdMltDSDJdW0NIMl1bQ0gyXVtDSDJdW0NASF0yW09IXQ==

> <s_epik_cmdline>
J2VwaWtfcHl0aG9uJywgJy1waCcsICc3LjAnLCAnLXRuJywgJzgnLCAnLW1hJywgJzIwMCcsICctbWV0YWxfYmluZGluZycsICctaW1hZScsICc8aW5maWxlLm1hZT4nLCAnLW9tYWUnLCAnPG91dGZpbGUubWFlPic=

> <r_lp_tautomer_probability>
1

> <r_epik_Ionization_Penalty>
5.70553

> <r_epik_Ionization_Penalty_Charging>
5.70553

> <r_epik_Ionization_Penalty_Neutral>
5.5493e-06

> <r_epik_State_Penalty>
5.70549

> <r_epik_Charging_Adjusted_Penalty>
11.411

> <i_epik_Tot_Q>
-1

> <i_epik_Tot_abs_Q>
1

> <r_epik_Metal_State_Penalty>
1.6859

> <b_epik_Metal_Only>
1

> <s_lp_Force_Field>
OPLS_2005

> <r_lp_Energy>
26.6713

> <b_lp_Chiralities_Consistent>
1

> <s_lp_Variant>
AV-unprocessed.smi:2768-5

> <Gold.Version>
5.8.1

> <Gold.Id.Protein>
6NUR|6NUR_protein|mol2

> <Gold.PLP.Fitness>
43.3142

> <Gold.PLP.PLP>
-37.5983

> <Gold.PLP.part.hbond>
-3.7349

> <Gold.PLP.part.metal>
0.0000

> <Gold.PLP.part.buried>
-3.4085

> <Gold.PLP.part.nonpolar>
-30.1349

> <Gold.PLP.part.repulsive>
0.1460

> <Gold.PLP.ligand.clash>
0.0000

> <Gold.PLP.ligand.torsion>
0.3862

> <Gold.PLP.Chemscore.Hbond>
1.1528

> <Gold.PLP.Chemscore.CHOScore>
1.0000

> <Gold.PLP.Chemscore.Metal>
0.0000

> <Gold.Chemscore.Hbonds>
donor molecule, donor type, donor heavy atom, donor atom, acceptor molecule, acceptor atom, score
      L1  H    10    30       P1  8028  0.20
      P1  H  7989  7998       L1     1  0.08
      P1  H  7997  8008       L1     1  1.00
      L1  C    18    34       P1  8028  1.00

> <Gold.PLP.Chemscore.Internal.Correction>
0.0301

> <Gold.Rescore>
     Score         DG    S(hbond)    S(metal)    S(lipo)     H(rot)  DE(clash)    DE(int)     intcor
     15.03     -16.94       1.66        0.00      93.08       1.95       0.17       1.73       ----

> <Gold.Chemscore.Fitness>
15.0350

> <Gold.Chemscore.DG>
-16.9372

> <Gold.Chemscore.ZeroCoef>
-5.4800

> <Gold.Chemscore.Hbond>
1.6646

> <Gold.Chemscore.Metal>
0.0000

> <Gold.Chemscore.Lipo>
93.0791

> <Gold.Chemscore.Internal_Hbond>
0.0000

> <Gold.Chemscore.DEClash>
0.1734

> <Gold.Chemscore.DEInternal>
1.7288

> <Gold.Chemscore.Rot>
1.9503

> <Gold.Chemscore.Internal.Correction>
   9.000000E+99

> <Gold.Chemscore.Hbonds>
donor molecule, donor type, donor heavy atom, donor atom, acceptor molecule, acceptor atom, score
      L1  H    10    30       P1  8028  0.19
      P1  H  7997  8008       L1     1  0.98

> <Gold.Chemscore.Hbond.Weighted>
-5.5597

> <Gold.Chemscore.Metal.Weighted>
-0.0000

> <Gold.Chemscore.Lipo.Weighted>
-10.8903

> <Gold.Chemscore.Internal_Hbond.Weighted>
0.0000

> <Gold.Chemscore.DEClash.Weighted>
0.1734

> <Gold.Chemscore.DEInternal.Weighted>
1.7288

> <Gold.Chemscore.Rot.Weighted>
4.9928

> <Gold.Chemscore.Internal.Correction.Weighted>
   9.000000E+99

> <Gold.Protein.RotatedTorsions>
[ 6907 6896 6895 6894 ] final   50.59 input  -60.11 | X-H torsion
[ 7974 7965 7964 7962 ] final -160.29 input  175.53 | X-H torsion
[ 8008 7997 7996 7995 ] final  -35.09 input   59.86 | X-H torsion
[ 10167 10162 10161 10158 ] final   35.67 input  -65.29 | X-H torsion
[ 10718 10713 10712 10709 ] final  146.41 input   66.30 | X-H torsion
[ 10763 10752 10751 10750 ] final  -43.76 input  -60.55 | X-H torsion
[ 11005 11000 10999 10996 ] final   44.19 input  -57.11 | X-H torsion

> <Gold.Protein.ActiveResidues>
 VAL166  LYS551  ARG553  GLY616  TRP617  ASP618  TYR619  PRO620  LYS621  CYS622 
 ASP623  PHE694  ASN695  SER759  ASP760  ASP761  ALA762  ILE779  LEU786  VAL792 
 PHE793  MET794  SER795  GLU796  ALA797  LYS798  CYS799  TRP800  GLU811  SER814 

> <Gold.Protein.RotatedAtoms>
  152.3034  134.7583  160.0352 H   0  0  0  0  0  0  0  0  0  0  0  0  # atno 6907 bound_to 6896
  151.8089  133.3374  159.3557 H   0  0  0  0  0  0  0  0  0  0  0  0  # atno 6908 bound_to 6896
  150.7285  134.5613  159.5888 H   0  0  0  0  0  0  0  0  0  0  0  0  # atno 6909 bound_to 6896
  144.7432  140.3563  143.6105 H   0  0  0  0  0  0  0  0  0  0  0  0  # atno 7974 bound_to 7965
  154.4104  140.1666  156.2155 H   0  0  0  0  0  0  0  0  0  0  0  0  # atno 8008 bound_to 7997
  155.9408  140.3408  155.6302 H   0  0  0  0  0  0  0  0  0  0  0  0  # atno 8009 bound_to 7997
  155.6991  140.0743  157.2408 H   0  0  0  0  0  0  0  0  0  0  0  0  # atno 8010 bound_to 7997
  140.4200  144.1474  150.6147 H   0  0  0  0  0  0  0  0  0  0  0  0  # atno 10167 bound_to 10162
  157.3336  131.0924  151.1142 H   0  0  0  0  0  0  0  0  0  0  0  0  # atno 10718 bound_to 10713
  154.0009  135.6693  153.4759 H   0  0  0  0  0  0  0  0  0  0  0  0  # atno 10763 bound_to 10752
  153.0663  135.4999  154.8203 H   0  0  0  0  0  0  0  0  0  0  0  0  # atno 10764 bound_to 10752
  154.7053  135.3087  154.9242 H   0  0  0  0  0  0  0  0  0  0  0  0  # atno 10765 bound_to 10752
  140.1574  134.4384  155.8340 H   0  0  0  0  0  0  0  0  0  0  0  0  # atno 11005 bound_to 11000
  145.7224  139.1713  143.2477 LP  0  0  0  0  0  0  0  0  0  0  0  0  # atno 17320 bound_to 7965
  146.1267  140.7239  142.9431 LP  0  0  0  0  0  0  0  0  0  0  0  0  # atno 17321 bound_to 7965
  140.4545  143.2473  151.9304 LP  0  0  0  0  0  0  0  0  0  0  0  0  # atno 17342 bound_to 10162
  139.4782  144.5530  151.8357 LP  0  0  0  0  0  0  0  0  0  0  0  0  # atno 17343 bound_to 10162
  157.2381  130.6556  149.5878 LP  0  0  0  0  0  0  0  0  0  0  0  0  # atno 17370 bound_to 10713
  155.9698  130.4577  150.5972 LP  0  0  0  0  0  0  0  0  0  0  0  0  # atno 17371 bound_to 10713
  141.2206  133.6898  156.7532 LP  0  0  0  0  0  0  0  0  0  0  0  0  # atno 17394 bound_to 11000
  140.2531  134.8525  157.3686 LP  0  0  0  0  0  0  0  0  0  0  0  0  # atno 17395 bound_to 11000

$$$$
