AV-unprocessed.smi:2717|AV-procd|sdf|10484|dock9
  -GOLD-   2272014533D 1   1.00000     0.00000
 Structure written by MMmdl.
 43 44  0  0  0  0  0  0  0  0  1 V2000
  150.8871  142.0884  156.2586 C   0  0  0  0  0  0  0  0  0  0  0  0
  151.2340  140.6940  156.7909 C   0  0  0  0  0  0  0  0  0  0  0  0
  150.7335  139.6021  155.9057 C   0  0  0  0  0  0  0  0  0  0  0  0
  150.9103  138.3044  156.1668 N   0  0  0  0  0  0  0  0  0  0  0  0
  150.3829  137.4766  155.1709 C   0  0  0  0  0  0  0  0  0  0  0  0
  150.4817  135.9873  155.3083 C   0  0  0  0  0  0  0  0  0  0  0  0
  149.1036  135.3266  155.4761 C   0  0  0  0  0  0  0  0  0  0  0  0
  148.4637  135.0848  154.1879 N   0  0  0  0  0  0  0  0  0  0  0  0
  147.3581  134.3489  154.0070 C   0  0  0  0  0  0  0  0  0  0  0  0
  146.7457  133.7883  154.9162 O   0  0  0  0  0  0  0  0  0  0  0  0
  147.0020  134.2942  152.7155 N   0  0  0  0  0  0  0  0  0  0  0  0
  145.8426  133.5779  152.1913 C   0  0  2  0  0  0  0  0  0  0  0  0
  146.2779  132.5008  151.1751 C   0  0  0  0  0  0  0  0  0  0  0  0
  145.0640  131.7891  150.5557 C   0  0  0  0  0  0  0  0  0  0  0  0
  144.0994  132.7975  149.9085 C   0  0  1  0  0  0  0  0  0  0  0  0
  142.9649  132.1168  149.4150 O   0  0  0  0  0  0  0  0  0  0  0  0
  143.6550  133.8644  150.9236 C   0  0  0  0  0  0  0  0  0  0  0  0
  144.8673  134.5789  151.5426 C   0  0  0  0  0  0  0  0  0  0  0  0
  149.8070  138.1735  154.1378 C   0  0  0  0  0  0  0  0  0  0  0  0
  149.9118  139.8961  154.3774 S   0  0  0  0  0  0  0  0  0  0  0  0
  151.2686  142.8635  156.9234 H   0  0  0  0  0  0  0  0  0  0  0  0
  149.8080  142.2207  156.1761 H   0  0  0  0  0  0  0  0  0  0  0  0
  151.3213  142.2520  155.2719 H   0  0  0  0  0  0  0  0  0  0  0  0
  152.3149  140.5944  156.8963 H   0  0  0  0  0  0  0  0  0  0  0  0
  150.8094  140.5597  157.7860 H   0  0  0  0  0  0  0  0  0  0  0  0
  150.9815  135.5667  154.4348 H   0  0  0  0  0  0  0  0  0  0  0  0
  151.1145  135.7390  156.1616 H   0  0  0  0  0  0  0  0  0  0  0  0
  149.1909  134.3917  156.0327 H   0  0  0  0  0  0  0  0  0  0  0  0
  148.4507  135.9752  156.0610 H   0  0  0  0  0  0  0  0  0  0  0  0
  148.8953  135.5055  153.3782 H   0  0  0  0  0  0  0  0  0  0  0  0
  147.5717  134.7883  152.0446 H   0  0  0  0  0  0  0  0  0  0  0  0
  145.3253  133.0908  153.0203 H   0  0  0  0  0  0  0  0  0  0  0  0
  146.8720  132.9584  150.3826 H   0  0  0  0  0  0  0  0  0  0  0  0
  146.9224  131.7648  151.6570 H   0  0  0  0  0  0  0  0  0  0  0  0
  145.4011  131.0625  149.8158 H   0  0  0  0  0  0  0  0  0  0  0  0
  144.5442  131.2240  151.3311 H   0  0  0  0  0  0  0  0  0  0  0  0
  144.5935  133.2831  149.0660 H   0  0  0  0  0  0  0  0  0  0  0  0
  142.2665  132.7423  149.2963 H   0  0  0  0  0  0  0  0  0  0  0  0
  143.0042  134.5942  150.4405 H   0  0  0  0  0  0  0  0  0  0  0  0
  143.0662  133.4002  151.7163 H   0  0  0  0  0  0  0  0  0  0  0  0
  144.5261  135.3025  152.2841 H   0  0  0  0  0  0  0  0  0  0  0  0
  145.3823  135.1491  150.7680 H   0  0  0  0  0  0  0  0  0  0  0  0
  149.3316  137.7797  153.2519 H   0  0  0  0  0  0  0  0  0  0  0  0
  1  2  1  0  0  0  0
  1 21  1  0  0  0  0
  1 22  1  0  0  0  0
  1 23  1  0  0  0  0
  2  3  1  0  0  0  0
  2 24  1  0  0  0  0
  2 25  1  0  0  0  0
  3 20  1  0  0  0  0
  3  4  2  0  0  0  0
  4  5  1  0  0  0  0
  5  6  1  0  0  0  0
  5 19  2  0  0  0  0
  6  7  1  0  0  0  0
  6 26  1  0  0  0  0
  6 27  1  0  0  0  0
  7  8  1  0  0  0  0
  7 28  1  0  0  0  0
  7 29  1  0  0  0  0
  8  9  1  0  0  0  0
  8 30  1  0  0  0  0
  9 10  2  0  0  0  0
  9 11  1  0  0  0  0
 11 12  1  0  0  0  0
 11 31  1  0  0  0  0
 12 18  1  0  0  0  0
 12 13  1  0  0  0  0
 12 32  1  0  0  0  0
 13 14  1  0  0  0  0
 13 33  1  0  0  0  0
 13 34  1  0  0  0  0
 14 15  1  0  0  0  0
 14 35  1  0  0  0  0
 14 36  1  0  0  0  0
 15 16  1  0  0  0  0
 15 17  1  0  0  0  0
 15 37  1  0  0  0  0
 16 38  1  0  0  0  0
 17 18  1  0  0  0  0
 17 39  1  0  0  0  0
 17 40  1  0  0  0  0
 18 41  1  0  0  0  0
 18 42  1  0  0  0  0
 19 20  1  0  0  0  0
 19 43  1  0  0  0  0
M  END
> <s_m_source_file>
AV-unprocessed.smi

> <i_m_source_file_index>
2717

> <i_lp_mmshare_version>
43012

> <i_f3d_flags>
0

> <s_epik_input>
W0NIM11bQ0gyXWMxbmMoW2NIXXMxKVtDSDJdW0NIMl1bTkhdQyg9TylbTkhdW0NAQEhdMltDSDJdW0NIMl1bQ0BASF0oW09IXSlbQ0gyXVtDSDJdMg==

> <s_epik_cmdline>
J2VwaWtfcHl0aG9uJywgJy1waCcsICc3LjAnLCAnLXRuJywgJzgnLCAnLW1hJywgJzIwMCcsICctbWV0YWxfYmluZGluZycsICctaW1hZScsICc8aW5maWxlLm1hZT4nLCAnLW9tYWUnLCAnPG91dGZpbGUubWFlPic=

> <r_epik_Ionization_Penalty>
0.00202099

> <r_epik_Ionization_Penalty_Charging>
0

> <r_epik_Ionization_Penalty_Neutral>
0.00202099

> <r_epik_State_Penalty>
0.00133629

> <r_epik_Charging_Adjusted_Penalty>
0.00133629

> <i_epik_Tot_Q>
0

> <i_epik_Tot_abs_Q>
0

> <r_epik_Metal_State_Penalty>
-0

> <b_epik_Metal_Only>
0

> <s_lp_Force_Field>
OPLS_2005

> <r_lp_Energy>
-3.71108

> <b_lp_Chiralities_Consistent>
1

> <s_lp_Variant>
AV-unprocessed.smi:2717-1

> <Gold.Version>
5.8.1

> <Gold.Id.Protein>
6NUR|6NUR_protein|mol2

> <Gold.PLP.Fitness>
48.0133

> <Gold.PLP.PLP>
-34.7715

> <Gold.PLP.part.hbond>
-4.7602

> <Gold.PLP.part.metal>
0.0000

> <Gold.PLP.part.buried>
-1.7788

> <Gold.PLP.part.nonpolar>
-28.1711

> <Gold.PLP.part.repulsive>
0.0427

> <Gold.PLP.ligand.clash>
0.0000

> <Gold.PLP.ligand.torsion>
0.2265

> <Gold.PLP.Chemscore.Hbond>
3.5538

> <Gold.PLP.Chemscore.CHOScore>
1.0000

> <Gold.PLP.Chemscore.Metal>
0.0000

> <Gold.Chemscore.Hbonds>
donor molecule, donor type, donor heavy atom, donor atom, acceptor molecule, acceptor atom, score
      L1  H     8    30       P1  7948  1.00
      L1  H    11    31       P1  7948  0.90
      L1  H    16    38       P1 10186  0.81
      P1  H 10785 10796       L1    16  0.83
      L1  C    19    43       P1  7948  1.00

> <Gold.PLP.Chemscore.Internal.Correction>
0.0335

> <Gold.Rescore>
     Score         DG    S(hbond)    S(metal)    S(lipo)     H(rot)  DE(clash)    DE(int)     intcor
     19.85     -20.26       3.04        0.00      87.91       2.21       0.13       0.28       ----

> <Gold.Chemscore.Fitness>
19.8547

> <Gold.Chemscore.DG>
-20.2608

> <Gold.Chemscore.ZeroCoef>
-5.4800

> <Gold.Chemscore.Hbond>
3.0384

> <Gold.Chemscore.Metal>
0.0000

> <Gold.Chemscore.Lipo>
87.9142

> <Gold.Chemscore.Internal_Hbond>
0.0000

> <Gold.Chemscore.DEClash>
0.1307

> <Gold.Chemscore.DEInternal>
0.2754

> <Gold.Chemscore.Rot>
2.2084

> <Gold.Chemscore.Internal.Correction>
   9.000000E+99

> <Gold.Chemscore.Hbonds>
donor molecule, donor type, donor heavy atom, donor atom, acceptor molecule, acceptor atom, score
      L1  H     8    30       P1  7948  0.81
      L1  H    11    31       P1  7948  0.65
      L1  H    16    38       P1 10186  0.80
      P1  H 10785 10796       L1    16  0.80

> <Gold.Chemscore.Hbond.Weighted>
-10.1484

> <Gold.Chemscore.Metal.Weighted>
-0.0000

> <Gold.Chemscore.Lipo.Weighted>
-10.2860

> <Gold.Chemscore.Internal_Hbond.Weighted>
0.0000

> <Gold.Chemscore.DEClash.Weighted>
0.1307

> <Gold.Chemscore.DEInternal.Weighted>
0.2754

> <Gold.Chemscore.Rot.Weighted>
5.6535

> <Gold.Chemscore.Internal.Correction.Weighted>
   9.000000E+99

> <Gold.Protein.RotatedTorsions>
[ 6907 6896 6895 6894 ] final -169.26 input  -60.11 | X-H torsion
[ 7974 7965 7964 7962 ] final   60.19 input  175.53 | X-H torsion
[ 8008 7997 7996 7995 ] final  119.11 input   59.86 | X-H torsion
[ 10167 10162 10161 10158 ] final -155.56 input  -65.29 | X-H torsion
[ 10718 10713 10712 10709 ] final   99.48 input   66.30 | X-H torsion
[ 10763 10752 10751 10750 ] final -111.88 input  -60.55 | X-H torsion
[ 11005 11000 10999 10996 ] final   11.33 input  -57.11 | X-H torsion

> <Gold.Protein.ActiveResidues>
 VAL166  LYS551  ARG553  GLY616  TRP617  ASP618  TYR619  PRO620  LYS621  CYS622 
 ASP623  PHE694  ASN695  SER759  ASP760  ASP761  ALA762  ILE779  LEU786  VAL792 
 PHE793  MET794  SER795  GLU796  ALA797  LYS798  CYS799  TRP800  GLU811  SER814 

> <Gold.Protein.RotatedAtoms>
  151.4887  133.3530  159.2849 H   0  0  0  0  0  0  0  0  0  0  0  0  # atno 6907 bound_to 6896
  150.8849  134.8247  159.7262 H   0  0  0  0  0  0  0  0  0  0  0  0  # atno 6908 bound_to 6896
  152.4786  134.4790  159.9711 H   0  0  0  0  0  0  0  0  0  0  0  0  # atno 6909 bound_to 6896
  145.8988  139.3565  143.0605 H   0  0  0  0  0  0  0  0  0  0  0  0  # atno 7974 bound_to 7965
  156.2580  140.2860  156.0940 H   0  0  0  0  0  0  0  0  0  0  0  0  # atno 8008 bound_to 7997
  155.1432  140.0396  157.2821 H   0  0  0  0  0  0  0  0  0  0  0  0  # atno 8009 bound_to 7997
  154.6514  140.2545  155.7215 H   0  0  0  0  0  0  0  0  0  0  0  0  # atno 8010 bound_to 7997
  139.6921  143.9403  152.2390 H   0  0  0  0  0  0  0  0  0  0  0  0  # atno 10167 bound_to 10162
  157.6875  131.0671  150.4955 H   0  0  0  0  0  0  0  0  0  0  0  0  # atno 10718 bound_to 10713
  154.8322  135.4511  154.1108 H   0  0  0  0  0  0  0  0  0  0  0  0  # atno 10763 bound_to 10752
  153.2370  135.6912  153.7831 H   0  0  0  0  0  0  0  0  0  0  0  0  # atno 10764 bound_to 10752
  153.7193  135.3344  155.3239 H   0  0  0  0  0  0  0  0  0  0  0  0  # atno 10765 bound_to 10752
  140.5044  134.0714  155.7802 H   0  0  0  0  0  0  0  0  0  0  0  0  # atno 11005 bound_to 11000
  145.8817  140.9358  143.0598 LP  0  0  0  0  0  0  0  0  0  0  0  0  # atno 17320 bound_to 7965
  144.6734  140.0789  143.7470 LP  0  0  0  0  0  0  0  0  0  0  0  0  # atno 17321 bound_to 7965
  139.9222  144.6792  150.8449 LP  0  0  0  0  0  0  0  0  0  0  0  0  # atno 17342 bound_to 10162
  140.7685  143.3367  151.2295 LP  0  0  0  0  0  0  0  0  0  0  0  0  # atno 17343 bound_to 10162
  156.5279  130.4177  149.6216 LP  0  0  0  0  0  0  0  0  0  0  0  0  # atno 17370 bound_to 10713
  156.3095  130.7221  151.2111 LP  0  0  0  0  0  0  0  0  0  0  0  0  # atno 17371 bound_to 10713
  141.1418  133.9124  157.2307 LP  0  0  0  0  0  0  0  0  0  0  0  0  # atno 17394 bound_to 11000
  139.9694  135.0132  156.9473 LP  0  0  0  0  0  0  0  0  0  0  0  0  # atno 17395 bound_to 11000

$$$$
