AV-unprocessed.smi:1076|AV-procd|sdf|4700|dock6
  -GOLD-   22720 3223D 1   1.00000     0.00000
 Structure written by MMmdl.
 44 45  0  0  0  0  0  0  0  0  1 V2000
  143.8358  132.4746  149.9750 C   0  0  0  0  0  0  0  0  0  0  0  0
  144.8997  132.9580  150.9177 C   0  0  0  0  0  0  0  0  0  0  0  0
  144.8285  134.0533  151.8248 C   0  0  0  0  0  0  0  0  0  0  0  0
  145.9403  134.2162  152.5231 N   0  0  0  0  0  0  0  0  0  0  0  0
  146.7609  133.2385  152.0833 N   0  0  0  0  0  0  0  0  0  0  0  0
  148.0942  133.1054  152.6450 C   0  0  0  0  0  0  0  0  0  0  0  0
  148.0785  132.7590  154.1479 C   0  0  1  0  0  0  0  0  0  0  0  0
  148.9615  131.5318  154.4366 C   0  0  0  0  0  0  0  0  0  0  0  0
  148.5636  133.9103  154.9020 N   0  0  0  0  0  0  0  0  0  0  0  0
  149.9636  134.2001  154.6133 C   0  0  0  0  0  0  0  0  0  0  0  0
  150.4270  135.4932  155.3160 C   0  0  0  0  0  0  0  0  0  0  0  0
  149.5187  136.7207  155.0989 C   0  0  0  0  0  0  0  0  0  0  0  0
  148.3177  136.6308  155.3601 O   0  0  0  0  0  0  0  0  0  0  0  0
  150.0644  137.8658  154.6220 N   0  0  0  0  0  0  0  0  0  0  0  0
  151.4869  137.9974  154.2926 C   0  0  0  0  0  0  0  0  0  0  0  0
  152.1192  139.0202  155.2526 C   0  0  0  0  0  0  0  0  0  0  0  0
  151.4374  140.2664  155.1375 O   0  0  0  0  0  0  0  0  0  0  0  0
  150.0461  140.1688  155.4308 C   0  0  0  0  0  0  0  0  0  0  0  0
  149.3812  139.1564  154.4800 C   0  0  0  0  0  0  0  0  0  0  0  0
  146.1563  132.4606  151.1187 C   0  0  0  0  0  0  0  0  0  0  0  0
  143.4034  133.2946  149.4018 H   0  0  0  0  0  0  0  0  0  0  0  0
  143.0186  131.9892  150.5086 H   0  0  0  0  0  0  0  0  0  0  0  0
  144.2258  131.7523  149.2577 H   0  0  0  0  0  0  0  0  0  0  0  0
  144.0043  134.7298  151.9968 H   0  0  0  0  0  0  0  0  0  0  0  0
  148.6143  132.3258  152.0867 H   0  0  0  0  0  0  0  0  0  0  0  0
  148.6443  134.0311  152.4684 H   0  0  0  0  0  0  0  0  0  0  0  0
  147.0507  132.5381  154.4402 H   0  0  0  0  0  0  0  0  0  0  0  0
  148.6404  130.6756  153.8429 H   0  0  0  0  0  0  0  0  0  0  0  0
  148.9152  131.2288  155.4821 H   0  0  0  0  0  0  0  0  0  0  0  0
  150.0063  131.7287  154.1930 H   0  0  0  0  0  0  0  0  0  0  0  0
  148.4731  133.7182  155.8896 H   0  0  0  0  0  0  0  0  0  0  0  0
  150.5752  133.3636  154.9531 H   0  0  0  0  0  0  0  0  0  0  0  0
  150.1239  134.2926  153.5393 H   0  0  0  0  0  0  0  0  0  0  0  0
  150.5092  135.2924  156.3851 H   0  0  0  0  0  0  0  0  0  0  0  0
  151.4270  135.7455  154.9615 H   0  0  0  0  0  0  0  0  0  0  0  0
  152.0284  137.0526  154.3524 H   0  0  0  0  0  0  0  0  0  0  0  0
  151.5881  138.3373  153.2610 H   0  0  0  0  0  0  0  0  0  0  0  0
  152.0771  138.6642  156.2833 H   0  0  0  0  0  0  0  0  0  0  0  0
  153.1707  139.1687  155.0078 H   0  0  0  0  0  0  0  0  0  0  0  0
  149.9048  139.8748  156.4719 H   0  0  0  0  0  0  0  0  0  0  0  0
  149.5921  141.1527  155.3122 H   0  0  0  0  0  0  0  0  0  0  0  0
  149.4713  139.4971  153.4477 H   0  0  0  0  0  0  0  0  0  0  0  0
  148.3139  139.1183  154.6901 H   0  0  0  0  0  0  0  0  0  0  0  0
  146.6658  131.6263  150.6590 H   0  0  0  0  0  0  0  0  0  0  0  0
  1  2  1  0  0  0  0
  1 21  1  0  0  0  0
  1 22  1  0  0  0  0
  1 23  1  0  0  0  0
  2 20  2  0  0  0  0
  2  3  1  0  0  0  0
  3  4  2  0  0  0  0
  3 24  1  0  0  0  0
  4  5  1  0  0  0  0
  5  6  1  0  0  0  0
  5 20  1  0  0  0  0
  6  7  1  0  0  0  0
  6 25  1  0  0  0  0
  6 26  1  0  0  0  0
  7  8  1  0  0  0  0
  7  9  1  0  0  0  0
  7 27  1  0  0  0  0
  8 28  1  0  0  0  0
  8 29  1  0  0  0  0
  8 30  1  0  0  0  0
  9 10  1  0  0  0  0
  9 31  1  0  0  0  0
 10 11  1  0  0  0  0
 10 32  1  0  0  0  0
 10 33  1  0  0  0  0
 11 12  1  0  0  0  0
 11 34  1  0  0  0  0
 11 35  1  0  0  0  0
 12 13  2  0  0  0  0
 12 14  1  0  0  0  0
 14 19  1  0  0  0  0
 14 15  1  0  0  0  0
 15 16  1  0  0  0  0
 15 36  1  0  0  0  0
 15 37  1  0  0  0  0
 16 17  1  0  0  0  0
 16 38  1  0  0  0  0
 16 39  1  0  0  0  0
 17 18  1  0  0  0  0
 18 19  1  0  0  0  0
 18 40  1  0  0  0  0
 18 41  1  0  0  0  0
 19 42  1  0  0  0  0
 19 43  1  0  0  0  0
 20 44  1  0  0  0  0
M  END
> <s_m_source_file>
AV-unprocessed.smi

> <i_m_source_file_index>
1076

> <i_lp_mmshare_version>
43012

> <i_f3d_flags>
0

> <s_epik_input>
W0NIM11jMVtjSF1ubihbY0hdMSlbQ0gyXVtDQEhdKFtDSDNdKVtOSF1bQ0gyXVtDSDJdQyg9TylOMltDSDJdW0NIMl1PW0NIMl1bQ0gyXTI=

> <s_epik_cmdline>
J2VwaWtfcHl0aG9uJywgJy1waCcsICc3LjAnLCAnLXRuJywgJzgnLCAnLW1hJywgJzIwMCcsICctbWV0YWxfYmluZGluZycsICctaW1hZScsICc8aW5maWxlLm1hZT4nLCAnLW9tYWUnLCAnPG91dGZpbGUubWFlPic=

> <r_lp_tautomer_probability>
1

> <r_epik_Ionization_Penalty>
2.55707

> <r_epik_Ionization_Penalty_Charging>
0

> <r_epik_Ionization_Penalty_Neutral>
2.55707

> <r_epik_State_Penalty>
2.726

> <r_epik_Charging_Adjusted_Penalty>
2.726

> <i_epik_Tot_Q>
0

> <i_epik_Tot_abs_Q>
0

> <r_epik_Metal_State_Penalty>
2.72594

> <b_epik_Metal_Only>
0

> <s_lp_Force_Field>
OPLS_2005

> <r_lp_Energy>
22.7086

> <b_lp_Chiralities_Consistent>
1

> <s_lp_Variant>
AV-unprocessed.smi:1076-4

> <Gold.Version>
5.8.1

> <Gold.Id.Protein>
6NUR|6NUR_protein|mol2

> <Gold.PLP.Fitness>
43.3215

> <Gold.PLP.PLP>
-38.9363

> <Gold.PLP.part.hbond>
-1.0000

> <Gold.PLP.part.metal>
0.0000

> <Gold.PLP.part.buried>
-5.2357

> <Gold.PLP.part.nonpolar>
-34.0202

> <Gold.PLP.part.repulsive>
0.2330

> <Gold.PLP.ligand.clash>
0.0000

> <Gold.PLP.ligand.torsion>
0.8106

> <Gold.PLP.Chemscore.Hbond>
0.9760

> <Gold.PLP.Chemscore.CHOScore>
1.0000

> <Gold.PLP.Chemscore.Metal>
0.0000

> <Gold.Chemscore.Hbonds>
donor molecule, donor type, donor heavy atom, donor atom, acceptor molecule, acceptor atom, score
      P1  H  7989  7998       L1    17  1.00
      L1  C    20    44       P1 10747  1.00

> <Gold.PLP.Chemscore.Internal.Correction>
0.0785

> <Gold.Rescore>
     Score         DG    S(hbond)    S(metal)    S(lipo)     H(rot)  DE(clash)    DE(int)     intcor
     11.11     -13.62       0.79        0.00      88.84       1.91       0.20       2.30       ----

> <Gold.Chemscore.Fitness>
11.1092

> <Gold.Chemscore.DG>
-13.6154

> <Gold.Chemscore.ZeroCoef>
-5.4800

> <Gold.Chemscore.Hbond>
0.7874

> <Gold.Chemscore.Metal>
0.0000

> <Gold.Chemscore.Lipo>
88.8428

> <Gold.Chemscore.Internal_Hbond>
0.0000

> <Gold.Chemscore.DEClash>
0.2020

> <Gold.Chemscore.DEInternal>
2.3042

> <Gold.Chemscore.Rot>
1.9098

> <Gold.Chemscore.Internal.Correction>
   9.000000E+99

> <Gold.Chemscore.Hbonds>
donor molecule, donor type, donor heavy atom, donor atom, acceptor molecule, acceptor atom, score
      P1  H  7989  7998       L1    17  0.49

> <Gold.Chemscore.Hbond.Weighted>
-2.6299

> <Gold.Chemscore.Metal.Weighted>
-0.0000

> <Gold.Chemscore.Lipo.Weighted>
-10.3946

> <Gold.Chemscore.Internal_Hbond.Weighted>
0.0000

> <Gold.Chemscore.DEClash.Weighted>
0.2020

> <Gold.Chemscore.DEInternal.Weighted>
2.3042

> <Gold.Chemscore.Rot.Weighted>
4.8891

> <Gold.Chemscore.Internal.Correction.Weighted>
   9.000000E+99

> <Gold.Protein.RotatedTorsions>
[ 6907 6896 6895 6894 ] final -162.47 input  -60.11 | X-H torsion
[ 7974 7965 7964 7962 ] final -125.75 input  175.53 | X-H torsion
[ 8008 7997 7996 7995 ] final   89.44 input   59.86 | X-H torsion
[ 10167 10162 10161 10158 ] final  178.08 input  -65.29 | X-H torsion
[ 10718 10713 10712 10709 ] final  135.99 input   66.30 | X-H torsion
[ 10763 10752 10751 10750 ] final   82.84 input  -60.55 | X-H torsion
[ 11005 11000 10999 10996 ] final  -30.93 input  -57.11 | X-H torsion

> <Gold.Protein.ActiveResidues>
 VAL166  LYS551  ARG553  GLY616  TRP617  ASP618  TYR619  PRO620  LYS621  CYS622 
 ASP623  PHE694  ASN695  SER759  ASP760  ASP761  ALA762  ILE779  LEU786  VAL792 
 PHE793  MET794  SER795  GLU796  ALA797  LYS798  CYS799  TRP800  GLU811  SER814 

> <Gold.Protein.RotatedAtoms>
  151.3809  133.3821  159.2709 H   0  0  0  0  0  0  0  0  0  0  0  0  # atno 6907 bound_to 6896
  150.9578  134.8971  159.7722 H   0  0  0  0  0  0  0  0  0  0  0  0  # atno 6908 bound_to 6896
  152.5137  134.3767  159.9389 H   0  0  0  0  0  0  0  0  0  0  0  0  # atno 6909 bound_to 6896
  144.9944  140.7762  143.4534 H   0  0  0  0  0  0  0  0  0  0  0  0  # atno 7974 bound_to 7965
  155.9999  140.3360  155.6836 H   0  0  0  0  0  0  0  0  0  0  0  0  # atno 8008 bound_to 7997
  155.6304  140.0684  157.2668 H   0  0  0  0  0  0  0  0  0  0  0  0  # atno 8009 bound_to 7997
  154.4246  140.1760  156.1454 H   0  0  0  0  0  0  0  0  0  0  0  0  # atno 8010 bound_to 7997
  139.5279  144.2722  152.0618 H   0  0  0  0  0  0  0  0  0  0  0  0  # atno 10167 bound_to 10162
  157.4513  131.1066  151.0029 H   0  0  0  0  0  0  0  0  0  0  0  0  # atno 10718 bound_to 10713
  153.1238  135.4713  154.9239 H   0  0  0  0  0  0  0  0  0  0  0  0  # atno 10763 bound_to 10752
  154.7601  135.3129  154.8397 H   0  0  0  0  0  0  0  0  0  0  0  0  # atno 10764 bound_to 10752
  153.8955  135.6880  153.4812 H   0  0  0  0  0  0  0  0  0  0  0  0  # atno 10765 bound_to 10752
  140.9424  133.7270  156.1096 H   0  0  0  0  0  0  0  0  0  0  0  0  # atno 11005 bound_to 11000
  145.2241  139.2145  143.5077 LP  0  0  0  0  0  0  0  0  0  0  0  0  # atno 17320 bound_to 7965
  146.3438  140.2104  142.8590 LP  0  0  0  0  0  0  0  0  0  0  0  0  # atno 17321 bound_to 7965
  140.2182  144.4494  150.6354 LP  0  0  0  0  0  0  0  0  0  0  0  0  # atno 17342 bound_to 10162
  140.6436  143.2208  151.6235 LP  0  0  0  0  0  0  0  0  0  0  0  0  # atno 17343 bound_to 10162
  157.0858  130.5922  149.5429 LP  0  0  0  0  0  0  0  0  0  0  0  0  # atno 17370 bound_to 10713
  155.9988  130.5063  150.7585 LP  0  0  0  0  0  0  0  0  0  0  0  0  # atno 17371 bound_to 10713
  140.7715  134.3827  157.5506 LP  0  0  0  0  0  0  0  0  0  0  0  0  # atno 17394 bound_to 11000
  139.8824  134.9025  156.2834 LP  0  0  0  0  0  0  0  0  0  0  0  0  # atno 17395 bound_to 11000

$$$$
