AV-unprocessed.smi:287|AV-procd|sdf|2177|dock4
  -GOLD-   2262021543D 1   1.00000     0.00000
 Structure written by MMmdl.
 55 58  0  0  0  0  0  0  0  0  1 V2000
  140.4048  145.7783  154.6072 C   0  0  0  0  0  0  0  0  0  0  0  0
  140.4223  144.2904  154.6888 C   0  0  0  0  0  0  0  0  0  0  0  0
  141.2974  143.3838  155.2120 C   0  0  0  0  0  0  0  0  0  0  0  0
  140.7623  142.0837  154.9666 C   0  0  0  0  0  0  0  0  0  0  0  0
  141.3940  140.7588  155.3724 C   0  0  1  0  0  0  0  0  0  0  0  0
  140.3899  139.9351  156.1948 C   0  0  0  0  0  0  0  0  0  0  0  0
  141.7261  139.9493  154.2606 O   0  0  0  0  0  0  0  0  0  0  0  0
  142.7068  140.9433  156.1681 C   0  0  0  0  0  0  0  0  0  0  0  0
  143.8866  141.0040  155.3113 N   0  0  0  0  0  0  0  0  0  0  0  0
  145.0857  141.3422  155.8288 C   0  0  0  0  0  0  0  0  0  0  0  0
  145.1761  142.0237  157.0009 N   0  0  0  0  0  0  0  0  0  0  0  0
  146.3753  142.3473  157.4951 C   0  0  0  0  0  0  0  0  0  0  0  0
  147.5842  142.0901  156.9893 N   0  0  0  0  0  0  0  0  0  0  0  0
  147.4948  141.4046  155.8127 C   0  0  0  0  0  0  0  0  0  0  0  0
  146.2937  140.9967  155.1704 C   0  0  0  0  0  0  0  0  0  0  0  0
  146.5956  140.3217  153.9946 N   0  0  0  0  0  0  0  0  0  0  0  0
  147.9014  140.3281  153.9523 C   0  0  0  0  0  0  0  0  0  0  0  0
  148.5217  140.9556  155.0126 N   0  0  0  0  0  0  0  0  0  0  0  0
  149.9795  141.1383  155.2865 C   0  0  2  0  0  0  0  0  0  0  0  0
  150.6840  140.2416  154.4761 O   0  0  0  0  0  0  0  0  0  0  0  0
  151.4210  139.3065  155.2640 C   0  0  2  0  0  0  0  0  0  0  0  0
  151.4337  137.9316  154.5779 C   0  0  0  0  0  0  0  0  0  0  0  0
  151.9634  136.9590  155.4523 O   0  0  0  0  0  0  0  0  0  0  0  0
  150.6887  139.3113  156.6059 C   0  0  1  0  0  0  0  0  0  0  0  0
  151.4858  138.8642  157.6855 O   0  0  0  0  0  0  0  0  0  0  0  0
  150.2718  140.7670  156.7457 C   0  0  1  0  0  0  0  0  0  0  0  0
  151.2890  141.5930  157.2830 O   0  0  0  0  0  0  0  0  0  0  0  0
  139.5709  142.3121  154.3210 C   0  0  0  0  0  0  0  0  0  0  0  0
  138.4898  141.4263  153.7955 C   0  0  0  0  0  0  0  0  0  0  0  0
  139.3611  143.6462  154.1420 O   0  0  0  0  0  0  0  0  0  0  0  0
  150.1795  142.1788  155.0273 H   0  0  0  0  0  0  0  0  0  0  0  0
  152.4346  139.6882  155.4028 H   0  0  0  0  0  0  0  0  0  0  0  0
  149.7958  138.6871  156.5403 H   0  0  0  0  0  0  0  0  0  0  0  0
  149.3837  140.8778  157.3697 H   0  0  0  0  0  0  0  0  0  0  0  0
  141.3477  146.1982  154.9575 H   0  0  0  0  0  0  0  0  0  0  0  0
  139.6028  146.1892  155.2204 H   0  0  0  0  0  0  0  0  0  0  0  0
  140.2504  146.1077  153.5795 H   0  0  0  0  0  0  0  0  0  0  0  0
  142.2250  143.6252  155.7096 H   0  0  0  0  0  0  0  0  0  0  0  0
  140.0926  140.4655  157.1002 H   0  0  0  0  0  0  0  0  0  0  0  0
  140.8136  138.9777  156.5011 H   0  0  0  0  0  0  0  0  0  0  0  0
  139.4838  139.7282  155.6234 H   0  0  0  0  0  0  0  0  0  0  0  0
  142.4479  140.3515  153.8022 H   0  0  0  0  0  0  0  0  0  0  0  0
  142.6545  141.8869  156.7135 H   0  0  0  0  0  0  0  0  0  0  0  0
  142.8215  140.1574  156.9164 H   0  0  0  0  0  0  0  0  0  0  0  0
  143.7388  140.7886  154.3353 H   0  0  0  0  0  0  0  0  0  0  0  0
  146.3645  142.8875  158.4303 H   0  0  0  0  0  0  0  0  0  0  0  0
  148.4458  139.8682  153.1411 H   0  0  0  0  0  0  0  0  0  0  0  0
  150.4164  137.6275  154.3299 H   0  0  0  0  0  0  0  0  0  0  0  0
  151.9998  137.9546  153.6466 H   0  0  0  0  0  0  0  0  0  0  0  0
  151.3246  136.7807  156.1255 H   0  0  0  0  0  0  0  0  0  0  0  0
  150.9449  138.8345  158.4604 H   0  0  0  0  0  0  0  0  0  0  0  0
  151.0520  142.4955  157.1320 H   0  0  0  0  0  0  0  0  0  0  0  0
  138.1902  140.6945  154.5454 H   0  0  0  0  0  0  0  0  0  0  0  0
  138.8283  140.8872  152.9109 H   0  0  0  0  0  0  0  0  0  0  0  0
  137.6059  142.0025  153.5212 H   0  0  0  0  0  0  0  0  0  0  0  0
  1  2  1  0  0  0  0
  1 35  1  0  0  0  0
  1 36  1  0  0  0  0
  1 37  1  0  0  0  0
  2 30  1  0  0  0  0
  2  3  2  0  0  0  0
  3  4  1  0  0  0  0
  3 38  1  0  0  0  0
  4  5  1  0  0  0  0
  4 28  2  0  0  0  0
  5  6  1  0  0  0  0
  5  7  1  0  0  0  0
  5  8  1  0  0  0  0
  6 39  1  0  0  0  0
  6 40  1  0  0  0  0
  6 41  1  0  0  0  0
  7 42  1  0  0  0  0
  8  9  1  0  0  0  0
  8 43  1  0  0  0  0
  8 44  1  0  0  0  0
  9 10  1  0  0  0  0
  9 45  1  0  0  0  0
 10 15  1  0  0  0  0
 10 11  2  0  0  0  0
 11 12  1  0  0  0  0
 12 13  2  0  0  0  0
 12 46  1  0  0  0  0
 13 14  1  0  0  0  0
 14 18  1  0  0  0  0
 14 15  2  0  0  0  0
 15 16  1  0  0  0  0
 16 17  2  0  0  0  0
 17 18  1  0  0  0  0
 17 47  1  0  0  0  0
 18 19  1  0  0  0  0
 19 31  1  0  0  0  0
 19 26  1  0  0  0  0
 19 20  1  0  0  0  0
 20 21  1  0  0  0  0
 21 32  1  0  0  0  0
 21 22  1  0  0  0  0
 21 24  1  0  0  0  0
 22 23  1  0  0  0  0
 22 48  1  0  0  0  0
 22 49  1  0  0  0  0
 23 50  1  0  0  0  0
 24 33  1  0  0  0  0
 24 25  1  0  0  0  0
 24 26  1  0  0  0  0
 25 51  1  0  0  0  0
 26 34  1  0  0  0  0
 26 27  1  0  0  0  0
 27 52  1  0  0  0  0
 28 29  1  0  0  0  0
 28 30  1  0  0  0  0
 29 53  1  0  0  0  0
 29 54  1  0  0  0  0
 29 55  1  0  0  0  0
M  END
> <s_m_source_file>
AV-unprocessed.smi

> <i_m_source_file_index>
287

> <i_lp_mmshare_version>
43012

> <i_f3d_flags>
0

> <s_epik_input>
W0NIM11jMVtjSF1jKGMobzEpW0NIM10pW0NAQF0oW0NIM10pKFtPSF0pW0NIMl1bTkhdYyhuW2NIXW4yKWMoYzIzKW5bY0hdbjNbQ0BASF00T1tDQEhdKFtDSDJdW09IXSlbQ0BASF0oW09IXSlbQ0BIXTRbT0hd

> <s_epik_cmdline>
J2VwaWtfcHl0aG9uJywgJy1waCcsICc3LjAnLCAnLXRuJywgJzgnLCAnLW1hJywgJzIwMCcsICctbWV0YWxfYmluZGluZycsICctaW1hZScsICc8aW5maWxlLm1hZT4nLCAnLW9tYWUnLCAnPG91dGZpbGUubWFlPic=

> <r_lp_tautomer_probability>
1

> <r_epik_Ionization_Penalty>
0.000992612

> <r_epik_Ionization_Penalty_Charging>
0

> <r_epik_Ionization_Penalty_Neutral>
0.000992612

> <r_epik_State_Penalty>
-0

> <r_epik_Charging_Adjusted_Penalty>
0

> <i_epik_Tot_Q>
0

> <i_epik_Tot_abs_Q>
0

> <r_epik_Metal_State_Penalty>
-0

> <b_epik_Metal_Only>
0

> <s_epik_Chemistry_Notes>
This compound contains an acetal/aminal-like group ( X-CH(R)-Y where X, Y are N, S, or O) that may be acid/base labile, releasing an aldehyde.

> <s_lp_Force_Field>
OPLS_2005

> <r_lp_Energy>
40.3349

> <b_lp_Chiralities_Consistent>
1

> <s_lp_Variant>
AV-unprocessed.smi:287-1

> <Gold.Version>
5.8.1

> <Gold.Id.Protein>
6NUR|6NUR_protein|mol2

> <Gold.PLP.Fitness>
50.0962

> <Gold.PLP.PLP>
-34.3119

> <Gold.PLP.part.hbond>
-4.8665

> <Gold.PLP.part.metal>
0.0000

> <Gold.PLP.part.buried>
-7.5092

> <Gold.PLP.part.nonpolar>
-24.2642

> <Gold.PLP.part.repulsive>
0.4930

> <Gold.PLP.ligand.clash>
0.0000

> <Gold.PLP.ligand.torsion>
1.1349

> <Gold.PLP.Chemscore.Hbond>
4.9588

> <Gold.PLP.Chemscore.CHOScore>
1.0000

> <Gold.PLP.Chemscore.Metal>
0.0000

> <Gold.Chemscore.Hbonds>
donor molecule, donor type, donor heavy atom, donor atom, acceptor molecule, acceptor atom, score
      L1  H     7    42       P1 10175  1.00
      L1  H     9    45       P1 10175  1.00
      P1  H  7989  7998       L1    20  0.93
      P1  H 10162 10167       L1    30  1.00
      P1  H 10752 10764       L1    23  1.00
      L1  C    17    47       P1  7957  1.00

> <Gold.PLP.Chemscore.Internal.Correction>
0.1780

> <Gold.Rescore>
     Score         DG    S(hbond)    S(metal)    S(lipo)     H(rot)  DE(clash)    DE(int)     intcor
     11.81     -12.77       4.24        0.00      56.39       5.27       0.20       0.75       ----

> <Gold.Chemscore.Fitness>
11.8109

> <Gold.Chemscore.DG>
-12.7651

> <Gold.Chemscore.ZeroCoef>
-5.4800

> <Gold.Chemscore.Hbond>
4.2429

> <Gold.Chemscore.Metal>
0.0000

> <Gold.Chemscore.Lipo>
56.3907

> <Gold.Chemscore.Internal_Hbond>
0.0000

> <Gold.Chemscore.DEClash>
0.2018

> <Gold.Chemscore.DEInternal>
0.7524

> <Gold.Chemscore.Rot>
5.2672

> <Gold.Chemscore.Internal.Correction>
   9.000000E+99

> <Gold.Chemscore.Hbonds>
donor molecule, donor type, donor heavy atom, donor atom, acceptor molecule, acceptor atom, score
      L1  H     7    42       P1 10175  0.73
      L1  H     9    45       P1 10175  0.96
      P1  H  7989  7998       L1    20  0.52
      P1  H 10162 10167       L1    30  0.17
      P1  H 10752 10764       L1    23  0.91

> <Gold.Chemscore.Hbond.Weighted>
-14.1713

> <Gold.Chemscore.Metal.Weighted>
-0.0000

> <Gold.Chemscore.Lipo.Weighted>
-6.5977

> <Gold.Chemscore.Internal_Hbond.Weighted>
0.0000

> <Gold.Chemscore.DEClash.Weighted>
0.2018

> <Gold.Chemscore.DEInternal.Weighted>
0.7524

> <Gold.Chemscore.Rot.Weighted>
13.4839

> <Gold.Chemscore.Internal.Correction.Weighted>
   9.000000E+99

> <Gold.Protein.RotatedTorsions>
[ 6907 6896 6895 6894 ] final -139.48 input  -60.11 | X-H torsion
[ 7974 7965 7964 7962 ] final   78.69 input  175.53 | X-H torsion
[ 8008 7997 7996 7995 ] final -159.92 input   59.86 | X-H torsion
[ 10167 10162 10161 10158 ] final -162.94 input  -65.29 | X-H torsion
[ 10718 10713 10712 10709 ] final   61.24 input   66.30 | X-H torsion
[ 10763 10752 10751 10750 ] final  -46.19 input  -60.55 | X-H torsion
[ 11005 11000 10999 10996 ] final -132.95 input  -57.11 | X-H torsion

> <Gold.Protein.ActiveResidues>
 VAL166  LYS551  ARG553  GLY616  TRP617  ASP618  TYR619  PRO620  LYS621  CYS622 
 ASP623  PHE694  ASN695  SER759  ASP760  ASP761  ALA762  ILE779  LEU786  VAL792 
 PHE793  MET794  SER795  GLU796  ALA797  LYS798  CYS799  TRP800  GLU811  SER814 

> <Gold.Protein.RotatedAtoms>
  151.0484  133.5645  159.2644 H   0  0  0  0  0  0  0  0  0  0  0  0  # atno 6907 bound_to 6896
  151.2666  135.0670  159.9128 H   0  0  0  0  0  0  0  0  0  0  0  0  # atno 6908 bound_to 6896
  152.5377  134.0221  159.8040 H   0  0  0  0  0  0  0  0  0  0  0  0  # atno 6909 bound_to 6896
  145.6739  139.2504  143.1852 H   0  0  0  0  0  0  0  0  0  0  0  0  # atno 7974 bound_to 7965
  155.7698  140.0850  157.2114 H   0  0  0  0  0  0  0  0  0  0  0  0  # atno 8008 bound_to 7997
  154.3997  140.1527  156.2985 H   0  0  0  0  0  0  0  0  0  0  0  0  # atno 8009 bound_to 7997
  155.8758  140.3423  155.5856 H   0  0  0  0  0  0  0  0  0  0  0  0  # atno 8010 bound_to 7997
  139.6356  144.0356  152.2051 H   0  0  0  0  0  0  0  0  0  0  0  0  # atno 10167 bound_to 10162
  157.5813  130.8984  149.9436 H   0  0  0  0  0  0  0  0  0  0  0  0  # atno 10718 bound_to 10713
  154.0410  135.6644  153.4790 H   0  0  0  0  0  0  0  0  0  0  0  0  # atno 10763 bound_to 10752
  153.0502  135.5089  154.7842 H   0  0  0  0  0  0  0  0  0  0  0  0  # atno 10764 bound_to 10752
  154.6818  135.3046  154.9568 H   0  0  0  0  0  0  0  0  0  0  0  0  # atno 10765 bound_to 10752
  140.9124  134.1550  157.4378 H   0  0  0  0  0  0  0  0  0  0  0  0  # atno 11005 bound_to 11000
  146.1022  140.7530  142.9544 LP  0  0  0  0  0  0  0  0  0  0  0  0  # atno 17320 bound_to 7965
  144.7048  140.3805  143.7127 LP  0  0  0  0  0  0  0  0  0  0  0  0  # atno 17321 bound_to 7965
  140.0032  144.6278  150.7711 LP  0  0  0  0  0  0  0  0  0  0  0  0  # atno 17342 bound_to 10162
  140.7463  143.2889  151.3385 LP  0  0  0  0  0  0  0  0  0  0  0  0  # atno 17343 bound_to 10162
  156.0859  130.3668  150.0488 LP  0  0  0  0  0  0  0  0  0  0  0  0  # atno 17370 bound_to 10713
  156.8627  130.9497  151.3616 LP  0  0  0  0  0  0  0  0  0  0  0  0  # atno 17371 bound_to 10713
  139.8760  134.9941  156.5676 LP  0  0  0  0  0  0  0  0  0  0  0  0  # atno 17394 bound_to 11000
  140.8093  133.8442  155.8795 LP  0  0  0  0  0  0  0  0  0  0  0  0  # atno 17395 bound_to 11000

$$$$
