AV-unprocessed.smi:1072|AV-procd|sdf|4684|dock8
  -GOLD-   22720 3203D 1   1.00000     0.00000
 Structure written by MMmdl.
 46 47  0  0  0  0  0  0  0  0  1 V2000
  150.4323  142.4372  157.1474 C   0  0  0  0  0  0  0  0  0  0  0  0
  149.7378  141.6748  156.0388 C   0  0  0  0  0  0  0  0  0  0  0  0
  150.1537  140.5439  155.5710 N   0  0  0  0  0  0  0  0  0  0  0  0
  149.4255  139.9320  154.5414 C   0  0  0  0  0  0  0  0  0  0  0  0
  149.9741  138.6031  154.0501 C   0  0  0  0  0  0  0  0  0  0  0  0
  148.2974  140.5029  154.0253 C   0  0  0  0  0  0  0  0  0  0  0  0
  147.4816  139.8571  152.9061 C   0  0  0  0  0  0  0  0  0  0  0  0
  146.7510  138.5647  153.2785 C   0  0  0  0  0  0  0  0  0  0  0  0
  146.7118  138.1960  154.4520 O   0  0  0  0  0  0  0  0  0  0  0  0
  146.1963  137.8906  152.2550 N   0  0  0  0  0  0  0  0  0  0  0  0
  145.4877  136.6030  152.2597 C   0  0  1  0  0  0  0  0  0  0  0  0
  144.1565  136.8759  152.9924 C   0  0  0  0  0  0  0  0  0  0  0  0
  145.2143  136.1359  150.8036 C   0  0  0  0  0  0  0  0  0  0  0  0
  144.6090  134.7230  150.7247 C   0  0  0  0  0  0  0  0  0  0  0  0
  145.4768  133.6895  151.4651 C   0  0  2  0  0  0  0  0  0  0  0  0
  144.8691  132.2822  151.3770 C   0  0  0  0  0  0  0  0  0  0  0  0
  145.6951  134.1186  152.9276 C   0  0  0  0  0  0  0  0  0  0  0  0
  146.3089  135.5275  153.0233 C   0  0  0  0  0  0  0  0  0  0  0  0
  147.8325  141.7949  154.5664 C   0  0  0  0  0  0  0  0  0  0  0  0
  146.8307  142.3945  154.1792 O   0  0  0  0  0  0  0  0  0  0  0  0
  148.5944  142.3097  155.5573 N   0  0  0  0  0  0  0  0  0  0  0  0
  148.3165  143.1916  155.9626 H   0  0  0  0  0  0  0  0  0  0  0  0
  150.4558  141.8378  158.0578 H   0  0  0  0  0  0  0  0  0  0  0  0
  149.9242  143.3765  157.3701 H   0  0  0  0  0  0  0  0  0  0  0  0
  151.4591  142.6647  156.8599 H   0  0  0  0  0  0  0  0  0  0  0  0
  150.2515  138.6683  152.9978 H   0  0  0  0  0  0  0  0  0  0  0  0
  149.2330  137.8122  154.1667 H   0  0  0  0  0  0  0  0  0  0  0  0
  150.8620  138.3100  154.6115 H   0  0  0  0  0  0  0  0  0  0  0  0
  146.7467  140.5577  152.5086 H   0  0  0  0  0  0  0  0  0  0  0  0
  148.1518  139.6553  152.0697 H   0  0  0  0  0  0  0  0  0  0  0  0
  146.3001  138.3130  151.3438 H   0  0  0  0  0  0  0  0  0  0  0  0
  143.5255  135.9910  153.0598 H   0  0  0  0  0  0  0  0  0  0  0  0
  143.5751  137.6447  152.4818 H   0  0  0  0  0  0  0  0  0  0  0  0
  144.3311  137.2228  154.0115 H   0  0  0  0  0  0  0  0  0  0  0  0
  144.5589  136.8458  150.2973 H   0  0  0  0  0  0  0  0  0  0  0  0
  146.1388  136.1245  150.2268 H   0  0  0  0  0  0  0  0  0  0  0  0
  143.5986  134.7244  151.1343 H   0  0  0  0  0  0  0  0  0  0  0  0
  144.5068  134.4353  149.6778 H   0  0  0  0  0  0  0  0  0  0  0  0
  146.4516  133.6574  150.9759 H   0  0  0  0  0  0  0  0  0  0  0  0
  143.8862  132.2443  151.8480 H   0  0  0  0  0  0  0  0  0  0  0  0
  145.5043  131.5480  151.8731 H   0  0  0  0  0  0  0  0  0  0  0  0
  144.7532  131.9690  150.3391 H   0  0  0  0  0  0  0  0  0  0  0  0
  144.7510  134.0830  153.4715 H   0  0  0  0  0  0  0  0  0  0  0  0
  146.3543  133.4063  153.4253 H   0  0  0  0  0  0  0  0  0  0  0  0
  147.3213  135.4660  152.6259 H   0  0  0  0  0  0  0  0  0  0  0  0
  146.4187  135.8107  154.0710 H   0  0  0  0  0  0  0  0  0  0  0  0
  1  2  1  0  0  0  0
  1 23  1  0  0  0  0
  1 24  1  0  0  0  0
  1 25  1  0  0  0  0
  2 21  1  0  0  0  0
  2  3  2  0  0  0  0
  3  4  1  0  0  0  0
  4  5  1  0  0  0  0
  4  6  2  0  0  0  0
  5 26  1  0  0  0  0
  5 27  1  0  0  0  0
  5 28  1  0  0  0  0
  6  7  1  0  0  0  0
  6 19  1  0  0  0  0
  7  8  1  0  0  0  0
  7 29  1  0  0  0  0
  7 30  1  0  0  0  0
  8  9  2  0  0  0  0
  8 10  1  0  0  0  0
 10 11  1  0  0  0  0
 10 31  1  0  0  0  0
 11 18  1  0  0  0  0
 11 12  1  0  0  0  0
 11 13  1  0  0  0  0
 12 32  1  0  0  0  0
 12 33  1  0  0  0  0
 12 34  1  0  0  0  0
 13 14  1  0  0  0  0
 13 35  1  0  0  0  0
 13 36  1  0  0  0  0
 14 15  1  0  0  0  0
 14 37  1  0  0  0  0
 14 38  1  0  0  0  0
 15 16  1  0  0  0  0
 15 17  1  0  0  0  0
 15 39  1  0  0  0  0
 16 40  1  0  0  0  0
 16 41  1  0  0  0  0
 16 42  1  0  0  0  0
 17 18  1  0  0  0  0
 17 43  1  0  0  0  0
 17 44  1  0  0  0  0
 18 45  1  0  0  0  0
 18 46  1  0  0  0  0
 19 20  2  0  0  0  0
 19 21  1  0  0  0  0
 21 22  1  0  0  0  0
M  END
> <s_m_source_file>
AV-unprocessed.smi

> <i_m_source_file_index>
1072

> <i_lp_mmshare_version>
43012

> <i_f3d_flags>
0

> <s_epik_input>
W0NIM11jMW5jKFtDSDNdKWMoYyg9TylbbkhdMSlbQ0gyXUMoPU8pW05IXVtDQEBdMihbQ0gzXSlbQ0gyXVtDSDJdW0NAQEhdKFtDSDNdKVtDSDJdW0NIMl0y

> <s_epik_cmdline>
J2VwaWtfcHl0aG9uJywgJy1waCcsICc3LjAnLCAnLXRuJywgJzgnLCAnLW1hJywgJzIwMCcsICctbWV0YWxfYmluZGluZycsICctaW1hZScsICc8aW5maWxlLm1hZT4nLCAnLW9tYWUnLCAnPG91dGZpbGUubWFlPic=

> <r_lp_tautomer_probability>
0.839158

> <r_epik_Ionization_Penalty>
0.000352328

> <r_epik_Ionization_Penalty_Charging>
0.000314696

> <r_epik_Ionization_Penalty_Neutral>
3.76315e-05

> <r_epik_State_Penalty>
0.09125

> <r_epik_Charging_Adjusted_Penalty>
0.0915647

> <i_epik_Tot_Q>
0

> <i_epik_Tot_abs_Q>
0

> <r_epik_Metal_State_Penalty>
0.245598

> <b_epik_Metal_Only>
0

> <s_lp_Force_Field>
OPLS_2005

> <r_lp_Energy>
14.8959

> <b_lp_Chiralities_Consistent>
1

> <s_lp_Variant>
AV-unprocessed.smi:1072-2

> <Gold.Version>
5.8.1

> <Gold.Id.Protein>
6NUR|6NUR_protein|mol2

> <Gold.PLP.Fitness>
34.8109

> <Gold.PLP.PLP>
-32.6054

> <Gold.PLP.part.hbond>
-1.9926

> <Gold.PLP.part.metal>
0.0000

> <Gold.PLP.part.buried>
1.9017

> <Gold.PLP.part.nonpolar>
-33.5828

> <Gold.PLP.part.repulsive>
0.5195

> <Gold.PLP.ligand.clash>
0.0000

> <Gold.PLP.ligand.torsion>
0.2670

> <Gold.PLP.Chemscore.Hbond>
0.9120

> <Gold.PLP.Chemscore.CHOScore>
0.0000

> <Gold.PLP.Chemscore.Metal>
0.0000

> <Gold.Chemscore.Hbonds>
donor molecule, donor type, donor heavy atom, donor atom, acceptor molecule, acceptor atom, score
      L1  H    21    22       P1  8028  0.61

> <Gold.PLP.Chemscore.Internal.Correction>
0.0034

> <Gold.Rescore>
     Score         DG    S(hbond)    S(metal)    S(lipo)     H(rot)  DE(clash)    DE(int)     intcor
     10.64     -13.88       0.93        0.00      77.27       1.47       3.14       0.10       ----

> <Gold.Chemscore.Fitness>
10.6366

> <Gold.Chemscore.DG>
-13.8766

> <Gold.Chemscore.ZeroCoef>
-5.4800

> <Gold.Chemscore.Hbond>
0.9330

> <Gold.Chemscore.Metal>
0.0000

> <Gold.Chemscore.Lipo>
77.2737

> <Gold.Chemscore.Internal_Hbond>
0.0000

> <Gold.Chemscore.DEClash>
3.1374

> <Gold.Chemscore.DEInternal>
0.1025

> <Gold.Chemscore.Rot>
1.4690

> <Gold.Chemscore.Internal.Correction>
   9.000000E+99

> <Gold.Chemscore.Hbonds>
donor molecule, donor type, donor heavy atom, donor atom, acceptor molecule, acceptor atom, score
      L1  H    21    22       P1  8028  0.51

> <Gold.Chemscore.Hbond.Weighted>
-3.1162

> <Gold.Chemscore.Metal.Weighted>
-0.0000

> <Gold.Chemscore.Lipo.Weighted>
-9.0410

> <Gold.Chemscore.Internal_Hbond.Weighted>
0.0000

> <Gold.Chemscore.DEClash.Weighted>
3.1374

> <Gold.Chemscore.DEInternal.Weighted>
0.1025

> <Gold.Chemscore.Rot.Weighted>
3.7607

> <Gold.Chemscore.Internal.Correction.Weighted>
   9.000000E+99

> <Gold.Protein.RotatedTorsions>
[ 6907 6896 6895 6894 ] final   49.42 input  -60.11 | X-H torsion
[ 7974 7965 7964 7962 ] final  -80.13 input  175.53 | X-H torsion
[ 8008 7997 7996 7995 ] final -175.63 input   59.86 | X-H torsion
[ 10167 10162 10161 10158 ] final   84.61 input  -65.29 | X-H torsion
[ 10718 10713 10712 10709 ] final    5.71 input   66.30 | X-H torsion
[ 10763 10752 10751 10750 ] final  179.20 input  -60.55 | X-H torsion
[ 11005 11000 10999 10996 ] final  -22.22 input  -57.11 | X-H torsion

> <Gold.Protein.ActiveResidues>
 VAL166  LYS551  ARG553  GLY616  TRP617  ASP618  TYR619  PRO620  LYS621  CYS622 
 ASP623  PHE694  ASN695  SER759  ASP760  ASP761  ALA762  ILE779  LEU786  VAL792 
 PHE793  MET794  SER795  GLU796  ALA797  LYS798  CYS799  TRP800  GLU811  SER814 

> <Gold.Protein.RotatedAtoms>
  152.2905  134.7727  160.0378 H   0  0  0  0  0  0  0  0  0  0  0  0  # atno 6907 bound_to 6896
  151.8274  133.3398  159.3611 H   0  0  0  0  0  0  0  0  0  0  0  0  # atno 6908 bound_to 6896
  150.7228  134.5444  159.5808 H   0  0  0  0  0  0  0  0  0  0  0  0  # atno 6909 bound_to 6896
  145.5640  140.9477  143.1432 H   0  0  0  0  0  0  0  0  0  0  0  0  # atno 7974 bound_to 7965
  155.9849  140.1189  157.0692 H   0  0  0  0  0  0  0  0  0  0  0  0  # atno 8008 bound_to 7997
  154.4194  140.1137  156.5554 H   0  0  0  0  0  0  0  0  0  0  0  0  # atno 8009 bound_to 7997
  155.6421  140.3473  155.4720 H   0  0  0  0  0  0  0  0  0  0  0  0  # atno 8010 bound_to 7997
  139.9062  144.6299  150.8585 H   0  0  0  0  0  0  0  0  0  0  0  0  # atno 10167 bound_to 10162
  156.9114  130.5757  149.5647 H   0  0  0  0  0  0  0  0  0  0  0  0  # atno 10718 bound_to 10713
  154.5176  135.2792  155.1290 H   0  0  0  0  0  0  0  0  0  0  0  0  # atno 10763 bound_to 10752
  154.2860  135.6276  153.5370 H   0  0  0  0  0  0  0  0  0  0  0  0  # atno 10764 bound_to 10752
  152.9930  135.5662  154.5657 H   0  0  0  0  0  0  0  0  0  0  0  0  # atno 10765 bound_to 10752
  140.8636  133.7770  156.0104 H   0  0  0  0  0  0  0  0  0  0  0  0  # atno 11005 bound_to 11000
  144.7469  139.7295  143.7288 LP  0  0  0  0  0  0  0  0  0  0  0  0  # atno 17320 bound_to 7965
  146.1831  139.5033  142.9853 LP  0  0  0  0  0  0  0  0  0  0  0  0  # atno 17321 bound_to 7965
  140.7696  143.3399  151.2229 LP  0  0  0  0  0  0  0  0  0  0  0  0  # atno 17342 bound_to 10162
  139.6982  143.9577  152.2893 LP  0  0  0  0  0  0  0  0  0  0  0  0  # atno 17343 bound_to 10162
  156.0534  130.5600  150.9039 LP  0  0  0  0  0  0  0  0  0  0  0  0  # atno 17370 bound_to 10713
  157.5965  131.0943  150.9032 LP  0  0  0  0  0  0  0  0  0  0  0  0  # atno 17371 bound_to 10713
  140.8654  134.2790  157.5215 LP  0  0  0  0  0  0  0  0  0  0  0  0  # atno 17394 bound_to 11000
  139.8708  134.9540  156.4162 LP  0  0  0  0  0  0  0  0  0  0  0  0  # atno 17395 bound_to 11000

$$$$
