AV-unprocessed.smi:1047|AV-procd|sdf|4597|dock6
  -GOLD-   22720 3 83D 1   1.00000     0.00000
 Structure written by MMmdl.
 57 59  0  0  0  0  0  0  0  0  3 V2000
  148.0292  132.8145  152.7924 C   0  0  0  0  0  0  0  0  0  0  0  0
  146.9571  132.8974  151.6967 C   0  0  0  0  0  0  0  0  0  0  0  0
  145.6865  133.4924  152.1895 N   0  3  2  0  0  0  0  0  0  0  0  0
  144.5150  133.1832  151.3328 C   0  0  0  0  0  0  0  0  0  0  0  0
  144.5030  134.0574  150.0655 C   0  0  0  0  0  0  0  0  0  0  0  0
  144.5097  135.4317  150.4328 O   0  0  0  0  0  0  0  0  0  0  0  0
  145.6669  135.7905  151.1813 C   0  0  1  0  0  0  0  0  0  0  0  0
  145.6559  137.3101  151.4248 C   0  0  0  0  0  0  0  0  0  0  0  0
  146.7224  137.7351  152.3284 N   0  0  0  0  0  0  0  0  0  0  0  0
  146.9939  139.1695  152.2728 C   0  0  0  0  0  0  0  0  0  0  0  0
  147.1044  139.7948  153.6752 C   0  0  2  0  0  0  0  0  0  0  0  0
  145.8877  140.4366  154.0045 O   0  0  0  0  0  0  0  0  0  0  0  0
  148.3045  140.7499  153.8450 C   0  0  0  0  0  0  0  0  0  0  0  0
  149.4969  140.0771  154.3763 N   0  0  0  0  0  0  0  0  0  0  0  0
  150.1429  138.9638  153.9348 C   0  0  0  0  0  0  0  0  0  0  0  0
  151.1929  138.7398  154.7729 N   0  3  0  0  0  0  0  0  0  0  0  0
  151.2157  139.7227  155.7649 C   0  0  0  0  0  0  0  0  0  0  0  0
  152.0822  139.9188  156.8336 C   0  0  0  0  0  0  0  0  0  0  0  0
  151.8311  141.0283  157.6725 C   0  0  0  0  0  0  0  0  0  0  0  0
  152.7609  141.2723  158.8490 C   0  0  0  0  0  0  0  0  0  0  0  0
  150.7376  141.8984  157.4248 C   0  0  0  0  0  0  0  0  0  0  0  0
  150.4779  143.0890  158.3322 C   0  0  0  0  0  0  0  0  0  0  0  0
  149.8665  141.6806  156.3332 C   0  0  0  0  0  0  0  0  0  0  0  0
  150.1293  140.5835  155.5165 C   0  0  0  0  0  0  0  0  0  0  0  0
  145.7482  134.9485  152.4773 C   0  0  0  0  0  0  0  0  0  0  0  0
  148.9100  132.2872  152.4255 H   0  0  0  0  0  0  0  0  0  0  0  0
  147.6609  132.2730  153.6643 H   0  0  0  0  0  0  0  0  0  0  0  0
  148.3582  133.7999  153.1211 H   0  0  0  0  0  0  0  0  0  0  0  0
  147.3370  133.4435  150.8334 H   0  0  0  0  0  0  0  0  0  0  0  0
  146.7608  131.8814  151.3521 H   0  0  0  0  0  0  0  0  0  0  0  0
  144.4952  132.1240  151.0738 H   0  0  0  0  0  0  0  0  0  0  0  0
  143.6080  133.3728  151.9085 H   0  0  0  0  0  0  0  0  0  0  0  0
  145.3544  133.8337  149.4209 H   0  0  0  0  0  0  0  0  0  0  0  0
  143.6048  133.8561  149.4815 H   0  0  0  0  0  0  0  0  0  0  0  0
  146.5413  135.5811  150.5638 H   0  0  0  0  0  0  0  0  0  0  0  0
  145.7622  137.8214  150.4672 H   0  0  0  0  0  0  0  0  0  0  0  0
  144.6864  137.6070  151.8266 H   0  0  0  0  0  0  0  0  0  0  0  0
  147.5749  137.2257  152.1173 H   0  0  0  0  0  0  0  0  0  0  0  0
  147.9150  139.3563  151.7190 H   0  0  0  0  0  0  0  0  0  0  0  0
  146.1972  139.6699  151.7211 H   0  0  0  0  0  0  0  0  0  0  0  0
  147.2150  138.9745  154.3850 H   0  0  0  0  0  0  0  0  0  0  0  0
  145.3065  140.3746  153.2621 H   0  0  0  0  0  0  0  0  0  0  0  0
  148.5664  141.2202  152.8963 H   0  0  0  0  0  0  0  0  0  0  0  0
  148.0588  141.5592  154.5340 H   0  0  0  0  0  0  0  0  0  0  0  0
  149.8721  138.3669  153.0757 H   0  0  0  0  0  0  0  0  0  0  0  0
  152.9123  139.2522  157.0162 H   0  0  0  0  0  0  0  0  0  0  0  0
  152.2031  141.2727  159.7858 H   0  0  0  0  0  0  0  0  0  0  0  0
  153.2661  142.2331  158.7451 H   0  0  0  0  0  0  0  0  0  0  0  0
  153.5270  140.4992  158.9190 H   0  0  0  0  0  0  0  0  0  0  0  0
  149.6258  143.6758  157.9874 H   0  0  0  0  0  0  0  0  0  0  0  0
  151.3457  143.7484  158.3582 H   0  0  0  0  0  0  0  0  0  0  0  0
  150.2644  142.7557  159.3483 H   0  0  0  0  0  0  0  0  0  0  0  0
  149.0338  142.3419  156.1438 H   0  0  0  0  0  0  0  0  0  0  0  0
  144.9032  135.1845  153.1250 H   0  0  0  0  0  0  0  0  0  0  0  0
  146.6423  135.2016  153.0458 H   0  0  0  0  0  0  0  0  0  0  0  0
  145.5093  133.0332  153.0717 H   0  0  0  0  0  0  0  0  0  0  0  0
  151.8428  137.9705  154.6740 H   0  0  0  0  0  0  0  0  0  0  0  0
  1  2  1  0  0  0  0
  1 26  1  0  0  0  0
  1 27  1  0  0  0  0
  1 28  1  0  0  0  0
  2  3  1  0  0  0  0
  2 29  1  0  0  0  0
  2 30  1  0  0  0  0
  3 25  1  0  0  0  0
  3  4  1  0  0  0  0
  3 56  1  0  0  0  0
  4  5  1  0  0  0  0
  4 31  1  0  0  0  0
  4 32  1  0  0  0  0
  5  6  1  0  0  0  0
  5 33  1  0  0  0  0
  5 34  1  0  0  0  0
  6  7  1  0  0  0  0
  7  8  1  0  0  0  0
  7 25  1  0  0  0  0
  7 35  1  0  0  0  0
  8  9  1  0  0  0  0
  8 36  1  0  0  0  0
  8 37  1  0  0  0  0
  9 10  1  0  0  0  0
  9 38  1  0  0  0  0
 10 11  1  0  0  0  0
 10 39  1  0  0  0  0
 10 40  1  0  0  0  0
 11 12  1  0  0  0  0
 11 13  1  0  0  0  0
 11 41  1  0  0  0  0
 12 42  1  0  0  0  0
 13 14  1  0  0  0  0
 13 43  1  0  0  0  0
 13 44  1  0  0  0  0
 14 24  1  0  0  0  0
 14 15  1  0  0  0  0
 15 16  2  0  0  0  0
 15 45  1  0  0  0  0
 16 17  1  0  0  0  0
 16 57  1  0  0  0  0
 17 24  2  0  0  0  0
 17 18  1  0  0  0  0
 18 19  2  0  0  0  0
 18 46  1  0  0  0  0
 19 20  1  0  0  0  0
 19 21  1  0  0  0  0
 20 47  1  0  0  0  0
 20 48  1  0  0  0  0
 20 49  1  0  0  0  0
 21 22  1  0  0  0  0
 21 23  2  0  0  0  0
 22 50  1  0  0  0  0
 22 51  1  0  0  0  0
 22 52  1  0  0  0  0
 23 24  1  0  0  0  0
 23 53  1  0  0  0  0
 25 54  1  0  0  0  0
 25 55  1  0  0  0  0
M  CHG  1   3   1
M  CHG  1  16   1
M  END
> <s_m_source_file>
AV-unprocessed.smi

> <i_m_source_file_index>
1047

> <i_lp_mmshare_version>
43012

> <i_f3d_flags>
0

> <s_epik_input>
W0NIM11bQ0gyXU4xW0NIMl1bQ0gyXU9bQ0BIXShbQ0gyXTEpW0NIMl1bTkhdW0NIMl1bQ0BIXShbT0hdKVtDSDJdbihbY0hdbjIpYyhjMjMpW2NIXWMoW0NIM10pYyhbY0hdMylbQ0gzXQ==

> <s_epik_cmdline>
J2VwaWtfcHl0aG9uJywgJy1waCcsICc3LjAnLCAnLXRuJywgJzgnLCAnLW1hJywgJzIwMCcsICctbWV0YWxfYmluZGluZycsICctaW1hZScsICc8aW5maWxlLm1hZT4nLCAnLW9tYWUnLCAnPG91dGZpbGUubWFlPic=

> <r_epik_Ionization_Penalty>
2.03028

> <r_epik_Ionization_Penalty_Charging>
1.21256

> <r_epik_Ionization_Penalty_Neutral>
0.817715

> <r_epik_State_Penalty>
2.54959

> <r_epik_Charging_Adjusted_Penalty>
3.76215

> <i_epik_Tot_Q>
2

> <i_epik_Tot_abs_Q>
2

> <r_epik_Metal_State_Penalty>
6.52811

> <b_epik_Metal_Only>
0

> <s_lp_Force_Field>
OPLS_2005

> <r_lp_Energy>
43.5189

> <b_lp_Chiralities_Consistent>
1

> <s_lp_Variant>
AV-unprocessed.smi:1047-38

> <Gold.Version>
5.8.1

> <Gold.Id.Protein>
6NUR|6NUR_protein|mol2

> <Gold.PLP.Fitness>
51.4186

> <Gold.PLP.PLP>
-44.6682

> <Gold.PLP.part.hbond>
-2.0000

> <Gold.PLP.part.metal>
0.0000

> <Gold.PLP.part.buried>
1.3727

> <Gold.PLP.part.nonpolar>
-44.1474

> <Gold.PLP.part.repulsive>
0.3721

> <Gold.PLP.ligand.clash>
0.0000

> <Gold.PLP.ligand.torsion>
1.6826

> <Gold.PLP.Chemscore.Hbond>
2.0000

> <Gold.PLP.Chemscore.CHOScore>
1.3356

> <Gold.PLP.Chemscore.Metal>
0.0000

> <Gold.Chemscore.Hbonds>
donor molecule, donor type, donor heavy atom, donor atom, acceptor molecule, acceptor atom, score
      L1  H     9    38       P1  7948  1.00
      L1  H    12    42       P1 10175  1.00
      L1  C    15    45       P1  7948  0.89
      L1  C    15    45       P1  7957  0.51

> <Gold.PLP.Chemscore.Internal.Correction>
0.1089

> <Gold.Rescore>
     Score         DG    S(hbond)    S(metal)    S(lipo)     H(rot)  DE(clash)    DE(int)     intcor
     16.56     -18.42       1.94        0.00     114.43       2.71       0.27       1.59       ----

> <Gold.Chemscore.Fitness>
16.5612

> <Gold.Chemscore.DG>
-18.4154

> <Gold.Chemscore.ZeroCoef>
-5.4800

> <Gold.Chemscore.Hbond>
1.9405

> <Gold.Chemscore.Metal>
0.0000

> <Gold.Chemscore.Lipo>
114.4328

> <Gold.Chemscore.Internal_Hbond>
0.0000

> <Gold.Chemscore.DEClash>
0.2675

> <Gold.Chemscore.DEInternal>
1.5867

> <Gold.Chemscore.Rot>
2.7088

> <Gold.Chemscore.Internal.Correction>
   9.000000E+99

> <Gold.Chemscore.Hbonds>
donor molecule, donor type, donor heavy atom, donor atom, acceptor molecule, acceptor atom, score
      L1  H     9    38       P1  7948  1.00
      L1  H    12    42       P1 10175  0.95

> <Gold.Chemscore.Hbond.Weighted>
-6.4814

> <Gold.Chemscore.Metal.Weighted>
-0.0000

> <Gold.Chemscore.Lipo.Weighted>
-13.3886

> <Gold.Chemscore.Internal_Hbond.Weighted>
0.0000

> <Gold.Chemscore.DEClash.Weighted>
0.2675

> <Gold.Chemscore.DEInternal.Weighted>
1.5867

> <Gold.Chemscore.Rot.Weighted>
6.9346

> <Gold.Chemscore.Internal.Correction.Weighted>
   9.000000E+99

> <Gold.Protein.RotatedTorsions>
[ 6907 6896 6895 6894 ] final   36.10 input  -60.11 | X-H torsion
[ 7974 7965 7964 7962 ] final   -5.73 input  175.53 | X-H torsion
[ 8008 7997 7996 7995 ] final -158.22 input   59.86 | X-H torsion
[ 10167 10162 10161 10158 ] final -171.95 input  -65.29 | X-H torsion
[ 10718 10713 10712 10709 ] final   75.49 input   66.30 | X-H torsion
[ 10763 10752 10751 10750 ] final -126.34 input  -60.55 | X-H torsion
[ 11005 11000 10999 10996 ] final  137.79 input  -57.11 | X-H torsion

> <Gold.Protein.ActiveResidues>
 VAL166  LYS551  ARG553  GLY616  TRP617  ASP618  TYR619  PRO620  LYS621  CYS622 
 ASP623  PHE694  ASN695  SER759  ASP760  ASP761  ALA762  ILE779  LEU786  VAL792 
 PHE793  MET794  SER795  GLU796  ALA797  LYS798  CYS799  TRP800  GLU811  SER814 

> <Gold.Protein.RotatedAtoms>
  152.1251  134.9177  160.0561 H   0  0  0  0  0  0  0  0  0  0  0  0  # atno 6907 bound_to 6896
  152.0302  133.3929  159.4302 H   0  0  0  0  0  0  0  0  0  0  0  0  # atno 6908 bound_to 6896
  150.6852  134.3450  159.4928 H   0  0  0  0  0  0  0  0  0  0  0  0  # atno 6909 bound_to 6896
  146.2346  140.2065  142.8334 H   0  0  0  0  0  0  0  0  0  0  0  0  # atno 7974 bound_to 7965
  155.7443  140.0818  157.2231 H   0  0  0  0  0  0  0  0  0  0  0  0  # atno 8008 bound_to 7997
  154.4018  140.1572  156.2707 H   0  0  0  0  0  0  0  0  0  0  0  0  # atno 8009 bound_to 7997
  155.8991  140.3411  155.6015 H   0  0  0  0  0  0  0  0  0  0  0  0  # atno 8010 bound_to 7997
  139.5772  144.1505  152.1467 H   0  0  0  0  0  0  0  0  0  0  0  0  # atno 10167 bound_to 10162
  157.6636  130.9729  150.1362 H   0  0  0  0  0  0  0  0  0  0  0  0  # atno 10718 bound_to 10713
  154.8744  135.3999  154.3415 H   0  0  0  0  0  0  0  0  0  0  0  0  # atno 10763 bound_to 10752
  153.4214  135.7023  153.6297 H   0  0  0  0  0  0  0  0  0  0  0  0  # atno 10764 bound_to 10752
  153.4957  135.3738  155.2485 H   0  0  0  0  0  0  0  0  0  0  0  0  # atno 10765 bound_to 10752
  140.0138  134.9427  157.0333 H   0  0  0  0  0  0  0  0  0  0  0  0  # atno 11005 bound_to 11000
  144.9741  140.8397  143.5437 LP  0  0  0  0  0  0  0  0  0  0  0  0  # atno 17320 bound_to 7965
  145.2050  139.2233  143.5173 LP  0  0  0  0  0  0  0  0  0  0  0  0  # atno 17321 bound_to 7965
  140.1050  144.5507  150.6963 LP  0  0  0  0  0  0  0  0  0  0  0  0  # atno 17342 bound_to 10162
  140.7054  143.2464  151.4742 LP  0  0  0  0  0  0  0  0  0  0  0  0  # atno 17343 bound_to 10162
  156.2196  130.3673  149.8572 LP  0  0  0  0  0  0  0  0  0  0  0  0  # atno 17370 bound_to 10713
  156.6428  130.8712  151.3517 LP  0  0  0  0  0  0  0  0  0  0  0  0  # atno 17371 bound_to 10713
  140.4507  134.1585  155.7181 LP  0  0  0  0  0  0  0  0  0  0  0  0  # atno 17394 bound_to 11000
  141.1729  133.8572  157.1514 LP  0  0  0  0  0  0  0  0  0  0  0  0  # atno 17395 bound_to 11000

$$$$
