AV-unprocessed.smi:372|AV-procd|sdf|2446|dock1
  -GOLD-   2262022383D 1   1.00000     0.00000
 Structure written by MMmdl.
 22 23  0  0  0  0  0  0  0  0  2 V2000
  150.4965  139.9072  155.0145 C   0  0  0  0  0  0  0  0  0  0  0  0
  151.6738  139.4485  155.8988 C   0  0  2  0  0  0  0  0  0  0  0  0
  151.8551  140.3631  157.1255 C   0  0  0  0  0  0  0  0  0  0  0  0
  151.0411  141.5041  157.3387 C   0  0  0  0  0  0  0  0  0  0  0  0
  151.2605  142.2947  158.4830 C   0  0  0  0  0  0  0  0  0  0  0  0
  152.2788  141.9255  159.3806 C   0  0  0  0  0  0  0  0  0  0  0  0
  153.0349  140.7742  159.0919 C   0  0  0  0  0  0  0  0  0  0  0  0
  152.8305  140.0096  157.9992 N   0  0  0  0  0  0  0  0  0  0  0  0
  152.8670  139.3565  155.0787 N   0  0  0  0  0  0  0  0  0  0  0  0
  153.3606  138.1206  155.0590 C   0  0  0  0  0  0  0  0  0  0  0  0
  154.3871  137.8447  154.4424 O   0  0  0  0  0  0  0  0  0  0  0  0
  152.5790  137.2980  155.7831 N   0  5  0  0  0  0  0  0  0  0  0  0
  151.5328  137.9713  156.3102 C   0  0  0  0  0  0  0  0  0  0  0  0
  150.5892  137.5532  156.9813 O   0  0  0  0  0  0  0  0  0  0  0  0
  149.5580  139.9174  155.5699 H   0  0  0  0  0  0  0  0  0  0  0  0
  150.3585  139.2490  154.1555 H   0  0  0  0  0  0  0  0  0  0  0  0
  150.6637  140.9150  154.6334 H   0  0  0  0  0  0  0  0  0  0  0  0
  150.2609  141.7855  156.6477 H   0  0  0  0  0  0  0  0  0  0  0  0
  150.6563  143.1705  158.6684 H   0  0  0  0  0  0  0  0  0  0  0  0
  152.4755  142.5093  160.2675 H   0  0  0  0  0  0  0  0  0  0  0  0
  153.8244  140.4575  159.7574 H   0  0  0  0  0  0  0  0  0  0  0  0
  153.2811  140.1497  154.6123 H   0  0  0  0  0  0  0  0  0  0  0  0
  1  2  1  0  0  0  0
  1 15  1  0  0  0  0
  1 16  1  0  0  0  0
  1 17  1  0  0  0  0
  2 13  1  0  0  0  0
  2  3  1  0  0  0  0
  2  9  1  0  0  0  0
  3  8  1  0  0  0  0
  3  4  2  0  0  0  0
  4  5  1  0  0  0  0
  4 18  1  0  0  0  0
  5  6  2  0  0  0  0
  5 19  1  0  0  0  0
  6  7  1  0  0  0  0
  6 20  1  0  0  0  0
  7  8  2  0  0  0  0
  7 21  1  0  0  0  0
  9 10  1  0  0  0  0
  9 22  1  0  0  0  0
 10 11  2  0  0  0  0
 10 12  1  0  0  0  0
 12 13  1  0  0  0  0
 13 14  2  0  0  0  0
M  CHG  1  12  -1
M  END
> <s_m_source_file>
AV-unprocessed.smi

> <i_m_source_file_index>
372

> <i_lp_mmshare_version>
43012

> <i_f3d_flags>
0

> <s_epik_input>
Tz1DMVtOSF1DKD1PKVtOSF1bQ0BAXTEoW0NIM10pYzJbY0hdW2NIXVtjSF1bY0hdbjI=

> <s_epik_cmdline>
J2VwaWtfcHl0aG9uJywgJy1waCcsICc3LjAnLCAnLXRuJywgJzgnLCAnLW1hJywgJzIwMCcsICctbWV0YWxfYmluZGluZycsICctaW1hZScsICc8aW5maWxlLm1hZT4nLCAnLW9tYWUnLCAnPG91dGZpbGUubWFlPic=

> <r_epik_Ionization_Penalty>
1.82492

> <r_epik_Ionization_Penalty_Charging>
1.82122

> <r_epik_Ionization_Penalty_Neutral>
0.00370144

> <r_epik_State_Penalty>
1.71448

> <r_epik_Charging_Adjusted_Penalty>
3.5357

> <i_epik_Tot_Q>
-1

> <i_epik_Tot_abs_Q>
1

> <r_epik_Metal_State_Penalty>
0.405927

> <b_epik_Metal_Only>
0

> <s_lp_Force_Field>
OPLS_2005

> <r_lp_Energy>
9.53623

> <b_lp_Chiralities_Consistent>
1

> <s_lp_Variant>
AV-unprocessed.smi:372-4

> <Gold.Version>
5.8.1

> <Gold.Id.Protein>
6NUR|6NUR_protein|mol2

> <Gold.PLP.Fitness>
27.7626

> <Gold.PLP.PLP>
-20.5942

> <Gold.PLP.part.hbond>
-3.0000

> <Gold.PLP.part.metal>
0.0000

> <Gold.PLP.part.buried>
-1.2762

> <Gold.PLP.part.nonpolar>
-17.6546

> <Gold.PLP.part.repulsive>
1.0291

> <Gold.PLP.ligand.clash>
0.0000

> <Gold.PLP.ligand.torsion>
0.0736

> <Gold.PLP.Chemscore.Hbond>
2.4114

> <Gold.PLP.Chemscore.CHOScore>
0.0000

> <Gold.PLP.Chemscore.Metal>
0.0000

> <Gold.Chemscore.Hbonds>
donor molecule, donor type, donor heavy atom, donor atom, acceptor molecule, acceptor atom, score
      P1  H  7997  8010       L1     8  1.00
      P1  H 10752 10765       L1    12  1.24

> <Gold.PLP.Chemscore.Internal.Correction>
0.0815

> <Gold.Rescore>
     Score         DG    S(hbond)    S(metal)    S(lipo)     H(rot)  DE(clash)    DE(int)     intcor
     11.18     -11.87       0.98        0.00      48.52       1.00       0.65       0.04       ----

> <Gold.Chemscore.Fitness>
11.1811

> <Gold.Chemscore.DG>
-11.8717

> <Gold.Chemscore.ZeroCoef>
-5.4800

> <Gold.Chemscore.Hbond>
0.9803

> <Gold.Chemscore.Metal>
0.0000

> <Gold.Chemscore.Lipo>
48.5247

> <Gold.Chemscore.Internal_Hbond>
0.0000

> <Gold.Chemscore.DEClash>
0.6496

> <Gold.Chemscore.DEInternal>
0.0410

> <Gold.Chemscore.Rot>
1.0000

> <Gold.Chemscore.Internal.Correction>
   9.000000E+99

> <Gold.Chemscore.Hbonds>
donor molecule, donor type, donor heavy atom, donor atom, acceptor molecule, acceptor atom, score
      P1  H  7997  8010       L1     8  0.30
      P1  H 10752 10765       L1    12  0.12

> <Gold.Chemscore.Hbond.Weighted>
-3.2743

> <Gold.Chemscore.Metal.Weighted>
-0.0000

> <Gold.Chemscore.Lipo.Weighted>
-5.6774

> <Gold.Chemscore.Internal_Hbond.Weighted>
0.0000

> <Gold.Chemscore.DEClash.Weighted>
0.6496

> <Gold.Chemscore.DEInternal.Weighted>
0.0410

> <Gold.Chemscore.Rot.Weighted>
2.5600

> <Gold.Chemscore.Internal.Correction.Weighted>
   9.000000E+99

> <Gold.Protein.RotatedTorsions>
[ 6907 6896 6895 6894 ] final  124.87 input  -60.11 | X-H torsion
[ 7974 7965 7964 7962 ] final  100.43 input  175.53 | X-H torsion
[ 8008 7997 7996 7995 ] final   34.62 input   59.86 | X-H torsion
[ 10167 10162 10161 10158 ] final  172.95 input  -65.29 | X-H torsion
[ 10718 10713 10712 10709 ] final   94.28 input   66.30 | X-H torsion
[ 10763 10752 10751 10750 ] final -161.59 input  -60.55 | X-H torsion
[ 11005 11000 10999 10996 ] final -138.23 input  -57.11 | X-H torsion

> <Gold.Protein.ActiveResidues>
 VAL166  LYS551  ARG553  GLY616  TRP617  ASP618  TYR619  PRO620  LYS621  CYS622 
 ASP623  PHE694  ASN695  SER759  ASP760  ASP761  ALA762  ILE779  LEU786  VAL792 
 PHE793  MET794  SER795  GLU796  ALA797  LYS798  CYS799  TRP800  GLU811  SER814 

> <Gold.Protein.RotatedAtoms>
  152.4041  133.6862  159.6341 H   0  0  0  0  0  0  0  0  0  0  0  0  # atno 6907 bound_to 6896
  150.7928  133.8739  159.3275 H   0  0  0  0  0  0  0  0  0  0  0  0  # atno 6908 bound_to 6896
  151.6498  135.1004  160.0210 H   0  0  0  0  0  0  0  0  0  0  0  0  # atno 6909 bound_to 6896
  145.3857  139.2372  143.3379 H   0  0  0  0  0  0  0  0  0  0  0  0  # atno 7974 bound_to 7965
  155.1578  140.3280  155.4417 H   0  0  0  0  0  0  0  0  0  0  0  0  # atno 8008 bound_to 7997
  156.2553  140.1965  156.6638 H   0  0  0  0  0  0  0  0  0  0  0  0  # atno 8009 bound_to 7997
  154.6426  140.0568  156.9850 H   0  0  0  0  0  0  0  0  0  0  0  0  # atno 8010 bound_to 7997
  139.5092  144.3316  152.0105 H   0  0  0  0  0  0  0  0  0  0  0  0  # atno 10167 bound_to 10162
  157.6949  131.0507  150.4163 H   0  0  0  0  0  0  0  0  0  0  0  0  # atno 10718 bound_to 10713
  154.7290  135.3042  154.8922 H   0  0  0  0  0  0  0  0  0  0  0  0  # atno 10763 bound_to 10752
  153.9771  135.6735  153.4753 H   0  0  0  0  0  0  0  0  0  0  0  0  # atno 10764 bound_to 10752
  153.0901  135.4964  154.8594 H   0  0  0  0  0  0  0  0  0  0  0  0  # atno 10765 bound_to 10752
  140.8636  134.2138  157.4693 H   0  0  0  0  0  0  0  0  0  0  0  0  # atno 11005 bound_to 11000
  146.2821  140.4532  142.8772 LP  0  0  0  0  0  0  0  0  0  0  0  0  # atno 17320 bound_to 7965
  144.8476  140.6952  143.6189 LP  0  0  0  0  0  0  0  0  0  0  0  0  # atno 17321 bound_to 7965
  140.2756  144.3916  150.6136 LP  0  0  0  0  0  0  0  0  0  0  0  0  # atno 17342 bound_to 10162
  140.6056  143.2167  151.6987 LP  0  0  0  0  0  0  0  0  0  0  0  0  # atno 17343 bound_to 10162
  156.4542  130.4018  149.6617 LP  0  0  0  0  0  0  0  0  0  0  0  0  # atno 17370 bound_to 10713
  156.3755  130.7552  151.2540 LP  0  0  0  0  0  0  0  0  0  0  0  0  # atno 17371 bound_to 10713
  139.8708  134.9741  156.4834 LP  0  0  0  0  0  0  0  0  0  0  0  0  # atno 17394 bound_to 11000
  140.8654  133.8028  155.9309 LP  0  0  0  0  0  0  0  0  0  0  0  0  # atno 17395 bound_to 11000

$$$$
