AV-unprocessed.smi:53|AV-procd|sdf|518|dock9
  -GOLD-   2262016393D 1   1.00000     0.00000
 Structure written by MMmdl.
 30 31  0  0  0  0  0  0  0  0  1 V2000
  152.0128  142.6325  159.9874 N   0  0  0  0  0  0  0  0  0  0  0  0
  151.6511  142.0391  158.8411 C   0  0  0  0  0  0  0  0  0  0  0  0
  150.4582  142.4622  158.1446 C   0  0  0  0  0  0  0  0  0  0  0  0
  150.1605  141.8183  156.9945 C   0  0  0  0  0  0  0  0  0  0  0  0
  150.9640  140.8061  156.4793 N   0  0  0  0  0  0  0  0  0  0  0  0
  150.6184  140.0549  155.2026 C   0  0  1  0  0  0  0  0  0  0  0  0
  150.3937  138.7080  155.4991 O   0  0  0  0  0  0  0  0  0  0  0  0
  148.9987  138.4855  155.6773 C   0  0  2  0  0  0  0  0  0  0  0  0
  148.6605  136.9857  155.6280 C   0  0  0  0  0  0  0  0  0  0  0  0
  149.3813  136.3649  154.5849 O   0  0  0  0  0  0  0  0  0  0  0  0
  148.4026  139.3441  154.5582 C   0  0  2  0  0  0  0  0  0  0  0  0
  148.4428  138.6507  153.3202 O   0  0  0  0  0  0  0  0  0  0  0  0
  149.3037  140.5805  154.5768 C   0  0  2  0  0  0  0  0  0  0  0  0
  149.4772  141.1400  153.2876 O   0  0  0  0  0  0  0  0  0  0  0  0
  152.1097  140.3961  157.2047 C   0  0  0  0  0  0  0  0  0  0  0  0
  152.8247  139.4731  156.8171 O   0  0  0  0  0  0  0  0  0  0  0  0
  152.3977  141.0621  158.3655 N   0  0  0  0  0  0  0  0  0  0  0  0
  151.5001  140.1508  154.5659 H   0  0  0  0  0  0  0  0  0  0  0  0
  148.6794  138.9069  156.6324 H   0  0  0  0  0  0  0  0  0  0  0  0
  147.3637  139.6039  154.7636 H   0  0  0  0  0  0  0  0  0  0  0  0
  148.8625  141.3317  155.2333 H   0  0  0  0  0  0  0  0  0  0  0  0
  152.8444  142.3317  160.4743 H   0  0  0  0  0  0  0  0  0  0  0  0
  151.4520  143.3852  160.3603 H   0  0  0  0  0  0  0  0  0  0  0  0
  149.8115  143.2517  158.4999 H   0  0  0  0  0  0  0  0  0  0  0  0
  149.2608  142.1289  156.4854 H   0  0  0  0  0  0  0  0  0  0  0  0
  148.9540  136.5029  156.5605 H   0  0  0  0  0  0  0  0  0  0  0  0
  147.5905  136.8212  155.4971 H   0  0  0  0  0  0  0  0  0  0  0  0
  149.2241  136.8439  153.7855 H   0  0  0  0  0  0  0  0  0  0  0  0
  148.5723  139.2837  152.6302 H   0  0  0  0  0  0  0  0  0  0  0  0
  149.4891  140.4360  152.6572 H   0  0  0  0  0  0  0  0  0  0  0  0
  1  2  1  0  0  0  0
  1 22  1  0  0  0  0
  1 23  1  0  0  0  0
  2 17  2  0  0  0  0
  2  3  1  0  0  0  0
  3  4  2  0  0  0  0
  3 24  1  0  0  0  0
  4  5  1  0  0  0  0
  4 25  1  0  0  0  0
  5  6  1  0  0  0  0
  5 15  1  0  0  0  0
  6 18  1  0  0  0  0
  6 13  1  0  0  0  0
  6  7  1  0  0  0  0
  7  8  1  0  0  0  0
  8 19  1  0  0  0  0
  8  9  1  0  0  0  0
  8 11  1  0  0  0  0
  9 10  1  0  0  0  0
  9 26  1  0  0  0  0
  9 27  1  0  0  0  0
 10 28  1  0  0  0  0
 11 20  1  0  0  0  0
 11 12  1  0  0  0  0
 11 13  1  0  0  0  0
 12 29  1  0  0  0  0
 13 21  1  0  0  0  0
 13 14  1  0  0  0  0
 14 30  1  0  0  0  0
 15 16  2  0  0  0  0
 15 17  1  0  0  0  0
M  END
> <s_m_source_file>
AV-unprocessed.smi

> <i_m_source_file_index>
53

> <i_lp_mmshare_version>
43012

> <i_f3d_flags>
0

> <s_epik_input>
W05IMl1jMVtjSF1bY0hdbihjKD1PKW4xKVtDQEBIXTJPW0NASF0oW0NIMl1bT0hdKVtDQEBIXShbT0hdKVtDQEBIXTJbT0hd

> <s_epik_cmdline>
J2VwaWtfcHl0aG9uJywgJy1waCcsICc3LjAnLCAnLXRuJywgJzgnLCAnLW1hJywgJzIwMCcsICctbWV0YWxfYmluZGluZycsICctaW1hZScsICc8aW5maWxlLm1hZT4nLCAnLW9tYWUnLCAnPG91dGZpbGUubWFlPic=

> <r_lp_tautomer_probability>
0.99996

> <r_epik_Ionization_Penalty>
0.00069087

> <r_epik_Ionization_Penalty_Charging>
2.61959e-08

> <r_epik_Ionization_Penalty_Neutral>
0.000690844

> <r_epik_State_Penalty>
1.15523e-05

> <r_epik_Charging_Adjusted_Penalty>
1.15785e-05

> <i_epik_Tot_Q>
0

> <i_epik_Tot_abs_Q>
0

> <r_epik_Metal_State_Penalty>
-0

> <b_epik_Metal_Only>
0

> <s_epik_Chemistry_Notes>
This compound contains an acetal/aminal-like group ( X-CH(R)-Y where X, Y are N, S, or O) that may be acid/base labile, releasing an aldehyde.

> <s_lp_Force_Field>
OPLS_2005

> <r_lp_Energy>
34.5248

> <b_lp_Chiralities_Consistent>
1

> <s_lp_Variant>
AV-unprocessed.smi:53-6

> <Gold.Version>
5.8.1

> <Gold.Id.Protein>
6NUR|6NUR_protein|mol2

> <Gold.PLP.Fitness>
40.0232

> <Gold.PLP.PLP>
-25.0446

> <Gold.PLP.part.hbond>
-6.4758

> <Gold.PLP.part.metal>
0.0000

> <Gold.PLP.part.buried>
-3.0142

> <Gold.PLP.part.nonpolar>
-15.3510

> <Gold.PLP.part.repulsive>
0.1268

> <Gold.PLP.ligand.clash>
0.0000

> <Gold.PLP.ligand.torsion>
0.1303

> <Gold.PLP.Chemscore.Hbond>
4.5711

> <Gold.PLP.Chemscore.CHOScore>
0.4988

> <Gold.PLP.Chemscore.Metal>
0.0000

> <Gold.Chemscore.Hbonds>
donor molecule, donor type, donor heavy atom, donor atom, acceptor molecule, acceptor atom, score
      L1  H    10    28       P1  7948  0.64
      L1  H    12    29       P1  7957  1.00
      L1  H    14    30       P1  7957  0.91
      P1  H  7989  7998       L1    14  0.02
      P1  H  7997  8010       L1    16  0.99
      P1  H  8011  8017       L1    14  1.00
      L1  C     4    25       P1  8028  0.39

> <Gold.PLP.Chemscore.Internal.Correction>
0.0293

> <Gold.Rescore>
     Score         DG    S(hbond)    S(metal)    S(lipo)     H(rot)  DE(clash)    DE(int)     intcor
     11.24     -12.47       3.98        0.00      27.13       3.71      -0.00       1.23       ----

> <Gold.Chemscore.Fitness>
11.2352

> <Gold.Chemscore.DG>
-12.4653

> <Gold.Chemscore.ZeroCoef>
-5.4800

> <Gold.Chemscore.Hbond>
3.9843

> <Gold.Chemscore.Metal>
0.0000

> <Gold.Chemscore.Lipo>
27.1304

> <Gold.Chemscore.Internal_Hbond>
0.0000

> <Gold.Chemscore.DEClash>
-0.0000

> <Gold.Chemscore.DEInternal>
1.2301

> <Gold.Chemscore.Rot>
3.7095

> <Gold.Chemscore.Internal.Correction>
   9.000000E+99

> <Gold.Chemscore.Hbonds>
donor molecule, donor type, donor heavy atom, donor atom, acceptor molecule, acceptor atom, score
      L1  H    10    28       P1  7948  0.59
      L1  H    12    29       P1  7957  0.95
      L1  H    14    30       P1  7957  0.85
      P1  H  7997  8010       L1    16  0.66
      P1  H  8011  8017       L1    14  0.29

> <Gold.Chemscore.Hbond.Weighted>
-13.3074

> <Gold.Chemscore.Metal.Weighted>
-0.0000

> <Gold.Chemscore.Lipo.Weighted>
-3.1743

> <Gold.Chemscore.Internal_Hbond.Weighted>
0.0000

> <Gold.Chemscore.DEClash.Weighted>
-0.0000

> <Gold.Chemscore.DEInternal.Weighted>
1.2301

> <Gold.Chemscore.Rot.Weighted>
9.4964

> <Gold.Chemscore.Internal.Correction.Weighted>
   9.000000E+99

> <Gold.Protein.RotatedTorsions>
[ 6907 6896 6895 6894 ] final  -78.28 input  -60.11 | X-H torsion
[ 7974 7965 7964 7962 ] final -163.07 input  175.53 | X-H torsion
[ 8008 7997 7996 7995 ] final   84.73 input   59.86 | X-H torsion
[ 10167 10162 10161 10158 ] final  -20.08 input  -65.29 | X-H torsion
[ 10718 10713 10712 10709 ] final  -65.02 input   66.30 | X-H torsion
[ 10763 10752 10751 10750 ] final -155.29 input  -60.55 | X-H torsion
[ 11005 11000 10999 10996 ] final  -90.27 input  -57.11 | X-H torsion

> <Gold.Protein.ActiveResidues>
 VAL166  LYS551  ARG553  GLY616  TRP617  ASP618  TYR619  PRO620  LYS621  CYS622 
 ASP623  PHE694  ASN695  SER759  ASP760  ASP761  ALA762  ILE779  LEU786  VAL792 
 PHE793  MET794  SER795  GLU796  ALA797  LYS798  CYS799  TRP800  GLU811  SER814 

> <Gold.Protein.RotatedAtoms>
  150.6977  134.4296  159.5241 H   0  0  0  0  0  0  0  0  0  0  0  0  # atno 6907 bound_to 6896
  152.2025  134.8572  160.0515 H   0  0  0  0  0  0  0  0  0  0  0  0  # atno 6908 bound_to 6896
  151.9488  133.3624  159.4029 H   0  0  0  0  0  0  0  0  0  0  0  0  # atno 6909 bound_to 6896
  144.7337  140.3161  143.6179 H   0  0  0  0  0  0  0  0  0  0  0  0  # atno 7974 bound_to 7965
  155.9409  140.3408  155.6326 H   0  0  0  0  0  0  0  0  0  0  0  0  # atno 8008 bound_to 7997
  155.7041  140.0764  157.2417 H   0  0  0  0  0  0  0  0  0  0  0  0  # atno 8009 bound_to 7997
  154.4102  140.1634  156.2211 H   0  0  0  0  0  0  0  0  0  0  0  0  # atno 8010 bound_to 7997
  140.7273  143.4757  151.0186 H   0  0  0  0  0  0  0  0  0  0  0  0  # atno 10167 bound_to 10162
  156.0694  130.4241  150.1504 H   0  0  0  0  0  0  0  0  0  0  0  0  # atno 10718 bound_to 10713
  154.7798  135.3171  154.8014 H   0  0  0  0  0  0  0  0  0  0  0  0  # atno 10763 bound_to 10752
  153.8729  135.6842  153.4777 H   0  0  0  0  0  0  0  0  0  0  0  0  # atno 10764 bound_to 10752
  153.1431  135.4731  154.9463 H   0  0  0  0  0  0  0  0  0  0  0  0  # atno 10765 bound_to 10752
  141.1569  133.7682  156.9714 H   0  0  0  0  0  0  0  0  0  0  0  0  # atno 11005 bound_to 11000
  145.7616  139.1826  143.2264 LP  0  0  0  0  0  0  0  0  0  0  0  0  # atno 17320 bound_to 7965
  146.0982  140.7575  142.9562 LP  0  0  0  0  0  0  0  0  0  0  0  0  # atno 17321 bound_to 7965
  139.8452  143.7511  152.3179 LP  0  0  0  0  0  0  0  0  0  0  0  0  # atno 17342 bound_to 10162
  139.7674  144.7487  151.0275 LP  0  0  0  0  0  0  0  0  0  0  0  0  # atno 17343 bound_to 10162
  156.9558  130.9789  151.3489 LP  0  0  0  0  0  0  0  0  0  0  0  0  # atno 17370 bound_to 10713
  157.5756  130.8340  149.8451 LP  0  0  0  0  0  0  0  0  0  0  0  0  # atno 17371 bound_to 10713
  140.1127  134.9467  157.2089 LP  0  0  0  0  0  0  0  0  0  0  0  0  # atno 17394 bound_to 11000
  140.3173  134.2956  155.7253 LP  0  0  0  0  0  0  0  0  0  0  0  0  # atno 17395 bound_to 11000

$$$$
