AV-unprocessed.smi:240|AV-procd|sdf|1834|dock2
  -GOLD-   2262020443D 1   1.00000     0.00000
 Structure written by MMmdl.
 55 59  0  0  0  0  0  0  0  0  1 V2000
  148.5727  141.1779  153.0442 O   0  0  0  0  0  0  0  0  0  0  0  0
  147.3898  141.0432  153.8047 C   0  0  2  0  0  0  0  0  0  0  0  0
  146.5687  142.3434  153.7106 C   0  0  0  0  0  0  0  0  0  0  0  0
  146.1183  142.6606  155.1378 C   0  0  0  0  0  0  0  0  0  0  0  0
  147.2413  142.1058  156.0099 C   0  0  0  0  0  0  0  0  0  0  0  0
  147.6151  140.7883  155.3182 C   0  0  2  0  0  0  0  0  0  0  0  0
  148.9390  140.1095  155.7951 C   0  0  2  0  0  0  0  0  0  0  0  0
  150.1918  141.0211  155.7107 C   0  0  0  0  0  0  0  0  0  0  0  0
  151.3421  140.3293  156.1830 O   0  0  0  0  0  0  0  0  0  0  0  0
  151.6249  139.1747  155.4050 C   0  0  0  0  0  0  0  0  0  0  0  0
  150.4525  138.1942  155.5318 C   0  0  0  0  0  0  0  0  0  0  0  0
  149.2100  138.8339  155.1160 N   0  0  0  0  0  0  0  0  0  0  0  0
  148.2050  137.9311  155.0572 C   0  0  0  0  0  0  0  0  0  0  0  0
  148.0521  137.1154  156.1290 N   0  0  0  0  0  0  0  0  0  0  0  0
  147.0808  136.1979  156.1370 C   0  0  0  0  0  0  0  0  0  0  0  0
  146.1683  135.9400  155.1977 N   0  0  0  0  0  0  0  0  0  0  0  0
  146.3095  136.7706  154.1249 C   0  0  0  0  0  0  0  0  0  0  0  0
  147.2942  137.7868  153.9719 C   0  0  0  0  0  0  0  0  0  0  0  0
  147.1287  138.4253  152.7488 N   0  0  0  0  0  0  0  0  0  0  0  0
  146.1098  137.8164  152.2070 C   0  0  0  0  0  0  0  0  0  0  0  0
  145.5484  136.8167  152.9694 N   0  0  0  0  0  0  0  0  0  0  0  0
  144.4082  135.9831  152.6169 C   0  0  0  0  0  0  0  0  0  0  0  0
  144.6831  135.0138  151.4408 C   0  0  2  0  0  0  0  0  0  0  0  0
  144.5730  135.7255  150.2217 O   0  0  0  0  0  0  0  0  0  0  0  0
  143.7093  133.8330  151.4164 C   0  0  0  0  0  0  0  0  0  0  0  0
  144.5723  132.6452  151.8251 C   0  0  0  0  0  0  0  0  0  0  0  0
  145.8276  132.9613  151.2509 O   0  0  0  0  0  0  0  0  0  0  0  0
  146.0671  134.3374  151.5072 C   0  0  0  0  0  0  0  0  0  0  0  0
  148.6761  140.4012  152.5150 H   0  0  0  0  0  0  0  0  0  0  0  0
  146.8220  140.2134  153.3818 H   0  0  0  0  0  0  0  0  0  0  0  0
  147.1908  143.1643  153.3497 H   0  0  0  0  0  0  0  0  0  0  0  0
  145.7263  142.2524  153.0243 H   0  0  0  0  0  0  0  0  0  0  0  0
  145.9495  143.7261  155.2974 H   0  0  0  0  0  0  0  0  0  0  0  0
  145.1866  142.1375  155.3582 H   0  0  0  0  0  0  0  0  0  0  0  0
  148.0707  142.8118  155.9984 H   0  0  0  0  0  0  0  0  0  0  0  0
  146.9342  141.9629  157.0464 H   0  0  0  0  0  0  0  0  0  0  0  0
  146.8097  140.1115  155.6077 H   0  0  0  0  0  0  0  0  0  0  0  0
  148.8131  139.8856  156.8545 H   0  0  0  0  0  0  0  0  0  0  0  0
  150.3797  141.3797  154.6996 H   0  0  0  0  0  0  0  0  0  0  0  0
  150.0716  141.9020  156.3396 H   0  0  0  0  0  0  0  0  0  0  0  0
  151.7968  139.4501  154.3631 H   0  0  0  0  0  0  0  0  0  0  0  0
  152.5422  138.7136  155.7713 H   0  0  0  0  0  0  0  0  0  0  0  0
  150.6438  137.3119  154.9194 H   0  0  0  0  0  0  0  0  0  0  0  0
  150.3614  137.8560  156.5651 H   0  0  0  0  0  0  0  0  0  0  0  0
  147.0266  135.5826  157.0229 H   0  0  0  0  0  0  0  0  0  0  0  0
  145.7367  138.0857  151.2297 H   0  0  0  0  0  0  0  0  0  0  0  0
  144.1121  135.4210  153.5038 H   0  0  0  0  0  0  0  0  0  0  0  0
  143.5686  136.6369  152.3773 H   0  0  0  0  0  0  0  0  0  0  0  0
  144.3871  136.6306  150.4193 H   0  0  0  0  0  0  0  0  0  0  0  0
  142.8488  133.9642  152.0735 H   0  0  0  0  0  0  0  0  0  0  0  0
  143.3260  133.6617  150.4091 H   0  0  0  0  0  0  0  0  0  0  0  0
  144.6673  132.5834  152.9106 H   0  0  0  0  0  0  0  0  0  0  0  0
  144.1859  131.6953  151.4553 H   0  0  0  0  0  0  0  0  0  0  0  0
  146.7930  134.7544  150.8080 H   0  0  0  0  0  0  0  0  0  0  0  0
  146.4935  134.4118  152.5079 H   0  0  0  0  0  0  0  0  0  0  0  0
  1  2  1  0  0  0  0
  1 29  1  0  0  0  0
  2  6  1  0  0  0  0
  2  3  1  0  0  0  0
  2 30  1  0  0  0  0
  3  4  1  0  0  0  0
  3 31  1  0  0  0  0
  3 32  1  0  0  0  0
  4  5  1  0  0  0  0
  4 33  1  0  0  0  0
  4 34  1  0  0  0  0
  5  6  1  0  0  0  0
  5 35  1  0  0  0  0
  5 36  1  0  0  0  0
  6  7  1  0  0  0  0
  6 37  1  0  0  0  0
  7 12  1  0  0  0  0
  7  8  1  0  0  0  0
  7 38  1  0  0  0  0
  8  9  1  0  0  0  0
  8 39  1  0  0  0  0
  8 40  1  0  0  0  0
  9 10  1  0  0  0  0
 10 11  1  0  0  0  0
 10 41  1  0  0  0  0
 10 42  1  0  0  0  0
 11 12  1  0  0  0  0
 11 43  1  0  0  0  0
 11 44  1  0  0  0  0
 12 13  1  0  0  0  0
 13 18  1  0  0  0  0
 13 14  2  0  0  0  0
 14 15  1  0  0  0  0
 15 16  2  0  0  0  0
 15 45  1  0  0  0  0
 16 17  1  0  0  0  0
 17 21  1  0  0  0  0
 17 18  2  0  0  0  0
 18 19  1  0  0  0  0
 19 20  2  0  0  0  0
 20 21  1  0  0  0  0
 20 46  1  0  0  0  0
 21 22  1  0  0  0  0
 22 23  1  0  0  0  0
 22 47  1  0  0  0  0
 22 48  1  0  0  0  0
 23 28  1  0  0  0  0
 23 24  1  0  0  0  0
 23 25  1  0  0  0  0
 24 49  1  0  0  0  0
 25 26  1  0  0  0  0
 25 50  1  0  0  0  0
 25 51  1  0  0  0  0
 26 27  1  0  0  0  0
 26 52  1  0  0  0  0
 26 53  1  0  0  0  0
 27 28  1  0  0  0  0
 28 54  1  0  0  0  0
 28 55  1  0  0  0  0
M  END
> <s_m_source_file>
AV-unprocessed.smi

> <i_m_source_file_index>
240

> <i_lp_mmshare_version>
43012

> <i_f3d_flags>
0

> <s_epik_input>
W09IXVtDQEBIXTFbQ0gyXVtDSDJdW0NIMl1bQ0BIXTFbQ0BASF0yW0NIMl1PW0NIMl1bQ0gyXU4yYyhuW2NIXW4zKWMoYzM0KW5bY0hdbjRbQ0gyXVtDQEBdNShbT0hdKVtDSDJdW0NIMl1PW0NIMl01

> <s_epik_cmdline>
J2VwaWtfcHl0aG9uJywgJy1waCcsICc3LjAnLCAnLXRuJywgJzgnLCAnLW1hJywgJzIwMCcsICctbWV0YWxfYmluZGluZycsICctaW1hZScsICc8aW5maWxlLm1hZT4nLCAnLW9tYWUnLCAnPG91dGZpbGUubWFlPic=

> <r_lp_tautomer_probability>
1

> <r_epik_Ionization_Penalty>
0.000130618

> <r_epik_Ionization_Penalty_Charging>
0

> <r_epik_Ionization_Penalty_Neutral>
0.000130618

> <r_epik_State_Penalty>
-0

> <r_epik_Charging_Adjusted_Penalty>
0

> <i_epik_Tot_Q>
0

> <i_epik_Tot_abs_Q>
0

> <r_epik_Metal_State_Penalty>
-0

> <b_epik_Metal_Only>
0

> <s_lp_Force_Field>
OPLS_2005

> <r_lp_Energy>
66.7643

> <b_lp_Chiralities_Consistent>
1

> <s_lp_Variant>
AV-unprocessed.smi:240-11

> <Gold.Version>
5.8.1

> <Gold.Id.Protein>
6NUR|6NUR_protein|mol2

> <Gold.PLP.Fitness>
44.3106

> <Gold.PLP.PLP>
-34.6283

> <Gold.PLP.part.hbond>
-3.9017

> <Gold.PLP.part.metal>
0.0000

> <Gold.PLP.part.buried>
-4.1495

> <Gold.PLP.part.nonpolar>
-28.7099

> <Gold.PLP.part.repulsive>
1.5483

> <Gold.PLP.ligand.clash>
0.0000

> <Gold.PLP.ligand.torsion>
0.8677

> <Gold.PLP.Chemscore.Hbond>
2.7128

> <Gold.PLP.Chemscore.CHOScore>
1.0000

> <Gold.PLP.Chemscore.Metal>
0.0000

> <Gold.Chemscore.Hbonds>
donor molecule, donor type, donor heavy atom, donor atom, acceptor molecule, acceptor atom, score
      L1  H     1    29       P1  7957  0.67
      L1  H    24    49       P1 10171  0.83
      P1  H  8011  8017       L1     1  0.98
      L1  C    20    46       P1 10171  1.00

> <Gold.PLP.Chemscore.Internal.Correction>
0.2793

> <Gold.Rescore>
     Score         DG    S(hbond)    S(metal)    S(lipo)     H(rot)  DE(clash)    DE(int)     intcor
     10.08     -13.29       2.04        0.00      74.14       3.00       0.95       2.25       ----

> <Gold.Chemscore.Fitness>
10.0816

> <Gold.Chemscore.DG>
-13.2906

> <Gold.Chemscore.ZeroCoef>
-5.4800

> <Gold.Chemscore.Hbond>
2.0439

> <Gold.Chemscore.Metal>
0.0000

> <Gold.Chemscore.Lipo>
74.1353

> <Gold.Chemscore.Internal_Hbond>
0.0000

> <Gold.Chemscore.DEClash>
0.9546

> <Gold.Chemscore.DEInternal>
2.2543

> <Gold.Chemscore.Rot>
3.0039

> <Gold.Chemscore.Internal.Correction>
   9.000000E+99

> <Gold.Chemscore.Hbonds>
donor molecule, donor type, donor heavy atom, donor atom, acceptor molecule, acceptor atom, score
      L1  H     1    29       P1  7957  0.66
      L1  H    24    49       P1 10171  0.76
      P1  H  8011  8017       L1     1  0.47

> <Gold.Chemscore.Hbond.Weighted>
-6.8266

> <Gold.Chemscore.Metal.Weighted>
-0.0000

> <Gold.Chemscore.Lipo.Weighted>
-8.6738

> <Gold.Chemscore.Internal_Hbond.Weighted>
0.0000

> <Gold.Chemscore.DEClash.Weighted>
0.9546

> <Gold.Chemscore.DEInternal.Weighted>
2.2543

> <Gold.Chemscore.Rot.Weighted>
7.6899

> <Gold.Chemscore.Internal.Correction.Weighted>
   9.000000E+99

> <Gold.Protein.RotatedTorsions>
[ 6907 6896 6895 6894 ] final -134.20 input  -60.11 | X-H torsion
[ 7974 7965 7964 7962 ] final   20.02 input  175.53 | X-H torsion
[ 8008 7997 7996 7995 ] final  -57.62 input   59.86 | X-H torsion
[ 10167 10162 10161 10158 ] final  -30.19 input  -65.29 | X-H torsion
[ 10718 10713 10712 10709 ] final   58.10 input   66.30 | X-H torsion
[ 10763 10752 10751 10750 ] final  -42.08 input  -60.55 | X-H torsion
[ 11005 11000 10999 10996 ] final -169.57 input  -57.11 | X-H torsion

> <Gold.Protein.ActiveResidues>
 VAL166  LYS551  ARG553  GLY616  TRP617  ASP618  TYR619  PRO620  LYS621  CYS622 
 ASP623  PHE694  ASN695  SER759  ASP760  ASP761  ALA762  ILE779  LEU786  VAL792 
 PHE793  MET794  SER795  GLU796  ALA797  LYS798  CYS799  TRP800  GLU811  SER814 

> <Gold.Protein.RotatedAtoms>
  150.9830  133.6226  159.2719 H   0  0  0  0  0  0  0  0  0  0  0  0  # atno 6907 bound_to 6896
  151.3474  135.0876  159.9401 H   0  0  0  0  0  0  0  0  0  0  0  0  # atno 6908 bound_to 6896
  152.5222  133.9429  159.7689 H   0  0  0  0  0  0  0  0  0  0  0  0  # atno 6909 bound_to 6896
  146.2127  139.8229  142.8676 H   0  0  0  0  0  0  0  0  0  0  0  0  # atno 7974 bound_to 7965
  154.4275  140.1102  156.5826 H   0  0  0  0  0  0  0  0  0  0  0  0  # atno 8008 bound_to 7997
  155.6096  140.3494  155.4599 H   0  0  0  0  0  0  0  0  0  0  0  0  # atno 8009 bound_to 7997
  156.0110  140.1219  157.0444 H   0  0  0  0  0  0  0  0  0  0  0  0  # atno 8010 bound_to 7997
  140.7252  143.3868  151.1501 H   0  0  0  0  0  0  0  0  0  0  0  0  # atno 10167 bound_to 10162
  157.5568  130.8806  149.9049 H   0  0  0  0  0  0  0  0  0  0  0  0  # atno 10718 bound_to 10713
  153.9731  135.6726  153.4747 H   0  0  0  0  0  0  0  0  0  0  0  0  # atno 10763 bound_to 10752
  153.0783  135.4937  154.8447 H   0  0  0  0  0  0  0  0  0  0  0  0  # atno 10764 bound_to 10752
  154.7207  135.3116  154.9012 H   0  0  0  0  0  0  0  0  0  0  0  0  # atno 10765 bound_to 10752
  140.5293  134.5632  157.5070 H   0  0  0  0  0  0  0  0  0  0  0  0  # atno 11005 bound_to 11000
  145.3078  141.0211  143.3572 LP  0  0  0  0  0  0  0  0  0  0  0  0  # atno 17320 bound_to 7965
  144.8958  139.4714  143.6656 LP  0  0  0  0  0  0  0  0  0  0  0  0  # atno 17321 bound_to 7965
  139.7467  143.8842  152.3065 LP  0  0  0  0  0  0  0  0  0  0  0  0  # atno 17342 bound_to 10162
  139.8681  144.7082  150.9020 LP  0  0  0  0  0  0  0  0  0  0  0  0  # atno 17343 bound_to 10162
  156.0626  130.3697  150.0948 LP  0  0  0  0  0  0  0  0  0  0  0  0  # atno 17370 bound_to 10713
  156.9116  130.9653  151.3562 LP  0  0  0  0  0  0  0  0  0  0  0  0  # atno 17371 bound_to 10713
  139.9563  134.7529  156.0335 LP  0  0  0  0  0  0  0  0  0  0  0  0  # atno 17394 bound_to 11000
  141.1290  133.6591  156.3414 LP  0  0  0  0  0  0  0  0  0  0  0  0  # atno 17395 bound_to 11000

$$$$
