AV-unprocessed.smi:2208|AV-procd|sdf|8945|dock5
  -GOLD-   2272012163D 1   1.00000     0.00000
 Structure written by MMmdl.
 35 36  0  0  0  0  0  0  0  0  1 V2000
  151.2495  139.0014  153.6048 C   0  0  0  0  0  0  0  0  0  0  0  0
  149.8526  139.5527  153.6273 C   0  0  0  0  0  0  0  0  0  0  0  0
  148.8420  138.7486  153.3447 N   0  0  0  0  0  0  0  0  0  0  0  0
  147.6878  139.5296  153.4520 O   0  0  0  0  0  0  0  0  0  0  0  0
  148.0527  140.7886  153.8025 C   0  0  0  0  0  0  0  0  0  0  0  0
  146.9501  141.7764  153.9805 C   0  0  0  0  0  0  0  0  0  0  0  0
  149.4120  140.8743  153.9311 C   0  0  0  0  0  0  0  0  0  0  0  0
  150.2402  142.0729  154.3225 C   0  0  0  0  0  0  0  0  0  0  0  0
  150.9982  141.7568  155.6110 C   0  0  0  0  0  0  0  0  0  0  0  0
  151.7039  140.7510  155.6799 O   0  0  0  0  0  0  0  0  0  0  0  0
  150.8691  142.6444  156.6088 N   0  0  0  0  0  0  0  0  0  0  0  0
  151.6359  142.6356  157.8500 C   0  0  0  0  0  0  0  0  0  0  0  0
  151.0472  143.5944  158.9048 C   0  0  2  0  0  0  0  0  0  0  0  0
  151.4678  145.0639  158.7739 C   0  0  0  0  0  0  0  0  0  0  0  0
  151.3938  145.5397  160.2068 C   0  0  0  0  0  0  0  0  0  0  0  0
  151.9000  144.3148  160.9589 C   0  0  0  0  0  0  0  0  0  0  0  0
  151.4102  143.1964  160.2266 O   0  0  0  0  0  0  0  0  0  0  0  0
  151.9890  139.7691  153.8296 H   0  0  0  0  0  0  0  0  0  0  0  0
  151.4917  138.5879  152.6255 H   0  0  0  0  0  0  0  0  0  0  0  0
  151.3682  138.2059  154.3406 H   0  0  0  0  0  0  0  0  0  0  0  0
  146.0813  141.3097  154.4456 H   0  0  0  0  0  0  0  0  0  0  0  0
  146.6414  142.1871  153.0194 H   0  0  0  0  0  0  0  0  0  0  0  0
  147.2656  142.6035  154.6167 H   0  0  0  0  0  0  0  0  0  0  0  0
  150.9512  142.3496  153.5438 H   0  0  0  0  0  0  0  0  0  0  0  0
  149.6133  142.9511  154.4833 H   0  0  0  0  0  0  0  0  0  0  0  0
  150.2581  143.4341  156.4596 H   0  0  0  0  0  0  0  0  0  0  0  0
  151.6256  141.6175  158.2396 H   0  0  0  0  0  0  0  0  0  0  0  0
  152.6822  142.8785  157.6586 H   0  0  0  0  0  0  0  0  0  0  0  0
  149.9586  143.5427  158.8579 H   0  0  0  0  0  0  0  0  0  0  0  0
  152.4930  145.1604  158.4171 H   0  0  0  0  0  0  0  0  0  0  0  0
  150.8230  145.6309  158.1020 H   0  0  0  0  0  0  0  0  0  0  0  0
  151.9912  146.4324  160.3944 H   0  0  0  0  0  0  0  0  0  0  0  0
  150.3597  145.7517  160.4812 H   0  0  0  0  0  0  0  0  0  0  0  0
  152.9898  144.2876  160.9488 H   0  0  0  0  0  0  0  0  0  0  0  0
  151.5693  144.2911  161.9973 H   0  0  0  0  0  0  0  0  0  0  0  0
  1  2  1  0  0  0  0
  1 18  1  0  0  0  0
  1 19  1  0  0  0  0
  1 20  1  0  0  0  0
  2  7  1  0  0  0  0
  2  3  2  0  0  0  0
  3  4  1  0  0  0  0
  4  5  1  0  0  0  0
  5  6  1  0  0  0  0
  5  7  2  0  0  0  0
  6 21  1  0  0  0  0
  6 22  1  0  0  0  0
  6 23  1  0  0  0  0
  7  8  1  0  0  0  0
  8  9  1  0  0  0  0
  8 24  1  0  0  0  0
  8 25  1  0  0  0  0
  9 10  2  0  0  0  0
  9 11  1  0  0  0  0
 11 12  1  0  0  0  0
 11 26  1  0  0  0  0
 12 13  1  0  0  0  0
 12 27  1  0  0  0  0
 12 28  1  0  0  0  0
 13 17  1  0  0  0  0
 13 14  1  0  0  0  0
 13 29  1  0  0  0  0
 14 15  1  0  0  0  0
 14 30  1  0  0  0  0
 14 31  1  0  0  0  0
 15 16  1  0  0  0  0
 15 32  1  0  0  0  0
 15 33  1  0  0  0  0
 16 17  1  0  0  0  0
 16 34  1  0  0  0  0
 16 35  1  0  0  0  0
M  END
> <s_m_source_file>
AV-unprocessed.smi

> <i_m_source_file_index>
2208

> <i_lp_mmshare_version>
43012

> <i_f3d_flags>
0

> <s_epik_input>
W0NIM11jMW5vYyhbQ0gzXSljMVtDSDJdQyg9TylbTkhdW0NIMl1bQ0BASF0yW0NIMl1bQ0gyXVtDSDJdTzI=

> <s_epik_cmdline>
J2VwaWtfcHl0aG9uJywgJy1waCcsICc3LjAnLCAnLXRuJywgJzgnLCAnLW1hJywgJzIwMCcsICctbWV0YWxfYmluZGluZycsICctaW1hZScsICc8aW5maWxlLm1hZT4nLCAnLW9tYWUnLCAnPG91dGZpbGUubWFlPic=

> <r_lp_tautomer_probability>
1

> <r_epik_Ionization_Penalty>
3.13901e-08

> <r_epik_Ionization_Penalty_Charging>
0

> <r_epik_Ionization_Penalty_Neutral>
3.13901e-08

> <r_epik_State_Penalty>
-0

> <r_epik_Charging_Adjusted_Penalty>
0

> <i_epik_Tot_Q>
0

> <i_epik_Tot_abs_Q>
0

> <r_epik_Metal_State_Penalty>
-0

> <b_epik_Metal_Only>
0

> <s_lp_Force_Field>
OPLS_2005

> <r_lp_Energy>
11.1183

> <b_lp_Chiralities_Consistent>
1

> <s_lp_Variant>
AV-unprocessed.smi:2208-1

> <Gold.Version>
5.8.1

> <Gold.Id.Protein>
6NUR|6NUR_protein|mol2

> <Gold.PLP.Fitness>
37.1725

> <Gold.PLP.PLP>
-34.9152

> <Gold.PLP.part.hbond>
-1.8474

> <Gold.PLP.part.metal>
0.0000

> <Gold.PLP.part.buried>
-4.0855

> <Gold.PLP.part.nonpolar>
-29.3741

> <Gold.PLP.part.repulsive>
0.3654

> <Gold.PLP.ligand.clash>
0.0000

> <Gold.PLP.ligand.torsion>
0.3738

> <Gold.PLP.Chemscore.Hbond>
1.0000

> <Gold.PLP.Chemscore.CHOScore>
0.0000

> <Gold.PLP.Chemscore.Metal>
0.0000

> <Gold.Chemscore.Hbonds>
donor molecule, donor type, donor heavy atom, donor atom, acceptor molecule, acceptor atom, score
      L1  H    11    26       P1  8028  0.99
      P1  H  7989  7998       L1    10  0.06

> <Gold.PLP.Chemscore.Internal.Correction>
0.0049

> <Gold.Rescore>
     Score         DG    S(hbond)    S(metal)    S(lipo)     H(rot)  DE(clash)    DE(int)     intcor
     13.68     -16.01       0.99        0.00      95.79       1.56       0.75       1.57       ----

> <Gold.Chemscore.Fitness>
13.6834

> <Gold.Chemscore.DG>
-16.0063

> <Gold.Chemscore.ZeroCoef>
-5.4800

> <Gold.Chemscore.Hbond>
0.9881

> <Gold.Chemscore.Metal>
0.0000

> <Gold.Chemscore.Lipo>
95.7874

> <Gold.Chemscore.Internal_Hbond>
0.0000

> <Gold.Chemscore.DEClash>
0.7538

> <Gold.Chemscore.DEInternal>
1.5691

> <Gold.Chemscore.Rot>
1.5551

> <Gold.Chemscore.Internal.Correction>
   9.000000E+99

> <Gold.Chemscore.Hbonds>
donor molecule, donor type, donor heavy atom, donor atom, acceptor molecule, acceptor atom, score
      L1  H    11    26       P1  8028  0.92

> <Gold.Chemscore.Hbond.Weighted>
-3.3001

> <Gold.Chemscore.Metal.Weighted>
-0.0000

> <Gold.Chemscore.Lipo.Weighted>
-11.2071

> <Gold.Chemscore.Internal_Hbond.Weighted>
0.0000

> <Gold.Chemscore.DEClash.Weighted>
0.7538

> <Gold.Chemscore.DEInternal.Weighted>
1.5691

> <Gold.Chemscore.Rot.Weighted>
3.9809

> <Gold.Chemscore.Internal.Correction.Weighted>
   9.000000E+99

> <Gold.Protein.RotatedTorsions>
[ 6907 6896 6895 6894 ] final  117.90 input  -60.11 | X-H torsion
[ 7974 7965 7964 7962 ] final -106.58 input  175.53 | X-H torsion
[ 8008 7997 7996 7995 ] final -171.47 input   59.86 | X-H torsion
[ 10167 10162 10161 10158 ] final   10.23 input  -65.29 | X-H torsion
[ 10718 10713 10712 10709 ] final -107.17 input   66.30 | X-H torsion
[ 10763 10752 10751 10750 ] final  -58.29 input  -60.55 | X-H torsion
[ 11005 11000 10999 10996 ] final -150.98 input  -57.11 | X-H torsion

> <Gold.Protein.ActiveResidues>
 VAL166  LYS551  ARG553  GLY616  TRP617  ASP618  TYR619  PRO620  LYS621  CYS622 
 ASP623  PHE694  ASN695  SER759  ASP760  ASP761  ALA762  ILE779  LEU786  VAL792 
 PHE793  MET794  SER795  GLU796  ALA797  LYS798  CYS799  TRP800  GLU811  SER814 

> <Gold.Protein.RotatedAtoms>
  152.4580  133.7763  159.6825 H   0  0  0  0  0  0  0  0  0  0  0  0  # atno 6907 bound_to 6896
  150.8513  133.7772  159.3031 H   0  0  0  0  0  0  0  0  0  0  0  0  # atno 6908 bound_to 6896
  151.5367  135.1071  159.9968 H   0  0  0  0  0  0  0  0  0  0  0  0  # atno 6909 bound_to 6896
  145.2160  140.9115  143.3287 H   0  0  0  0  0  0  0  0  0  0  0  0  # atno 7974 bound_to 7965
  155.9320  140.1093  157.1124 H   0  0  0  0  0  0  0  0  0  0  0  0  # atno 8008 bound_to 7997
  154.4072  140.1235  156.4881 H   0  0  0  0  0  0  0  0  0  0  0  0  # atno 8009 bound_to 7997
  155.7068  140.3471  155.4959 H   0  0  0  0  0  0  0  0  0  0  0  0  # atno 8010 bound_to 7997
  140.6207  143.8210  150.7172 H   0  0  0  0  0  0  0  0  0  0  0  0  # atno 10167 bound_to 10162
  156.0424  130.5649  150.7784 H   0  0  0  0  0  0  0  0  0  0  0  0  # atno 10718 bound_to 10713
  154.2358  135.6352  153.5190 H   0  0  0  0  0  0  0  0  0  0  0  0  # atno 10763 bound_to 10752
  152.9940  135.5530  154.5964 H   0  0  0  0  0  0  0  0  0  0  0  0  # atno 10764 bound_to 10752
  154.5458  135.2898  155.1029 H   0  0  0  0  0  0  0  0  0  0  0  0  # atno 10765 bound_to 10752
  140.7344  134.3585  157.5160 H   0  0  0  0  0  0  0  0  0  0  0  0  # atno 11005 bound_to 11000
  144.9810  139.3783  143.6262 LP  0  0  0  0  0  0  0  0  0  0  0  0  # atno 17320 bound_to 7965
  146.3387  139.8951  142.8803 LP  0  0  0  0  0  0  0  0  0  0  0  0  # atno 17321 bound_to 7965
  140.1800  143.4123  152.1940 LP  0  0  0  0  0  0  0  0  0  0  0  0  # atno 17342 bound_to 10162
  139.5436  144.7279  151.4654 LP  0  0  0  0  0  0  0  0  0  0  0  0  # atno 17343 bound_to 10162
  157.5259  131.0934  151.0019 LP  0  0  0  0  0  0  0  0  0  0  0  0  # atno 17370 bound_to 10713
  157.0338  130.5722  149.5346 LP  0  0  0  0  0  0  0  0  0  0  0  0  # atno 17371 bound_to 10713
  139.8819  134.9040  156.2866 LP  0  0  0  0  0  0  0  0  0  0  0  0  # atno 17394 bound_to 11000
  140.9892  133.7219  156.0788 LP  0  0  0  0  0  0  0  0  0  0  0  0  # atno 17395 bound_to 11000

$$$$
