AV-unprocessed.smi:2341|AV-procd|sdf|9352|dock2
  -GOLD-   2272012573D 1   1.00000     0.00000
 Structure written by MMmdl.
 52 54  0  0  0  0  0  0  0  0  2 V2000
  143.6768  133.4775  151.3321 C   0  0  0  0  0  0  0  0  0  0  0  0
  144.4281  134.7091  151.7921 C   0  0  0  0  0  0  0  0  0  0  0  0
  144.4620  135.0784  153.1502 C   0  0  0  0  0  0  0  0  0  0  0  0
  145.1756  136.2341  153.5214 C   0  0  0  0  0  0  0  0  0  0  0  0
  145.8364  136.9925  152.5289 C   0  0  0  0  0  0  0  0  0  0  0  0
  146.5259  138.1381  153.0082 N   0  0  0  0  0  0  0  0  0  0  0  0
  147.2518  138.2608  154.1334 C   0  0  0  0  0  0  0  0  0  0  0  0
  147.4454  137.3681  154.9592 O   0  0  0  0  0  0  0  0  0  0  0  0
  147.7546  139.4982  154.2545 N   0  0  0  0  0  0  0  0  0  0  0  0
  148.5787  139.9623  155.3668 C   0  0  2  0  0  0  0  0  0  0  0  0
  147.7434  140.8413  156.3065 C   0  0  0  0  0  0  0  0  0  0  0  0
  148.5973  141.4154  157.4506 C   0  0  0  0  0  0  0  0  0  0  0  0
  149.7667  142.1853  156.9342 N   0  3  1  0  0  0  0  0  0  0  0  0
  150.5950  142.8888  157.9684 C   0  0  0  0  0  0  0  0  0  0  0  0
  151.6148  143.9075  157.3914 C   0  0  0  0  0  0  0  0  0  0  0  0
  152.4586  144.5725  158.4910 C   0  0  0  0  0  0  0  0  0  0  0  0
  153.1928  143.5282  159.3402 C   0  0  0  0  0  0  0  0  0  0  0  0
  152.2009  142.5216  159.9354 C   0  0  0  0  0  0  0  0  0  0  0  0
  151.3547  141.8559  158.8386 C   0  0  0  0  0  0  0  0  0  0  0  0
  150.5989  141.3334  156.0368 C   0  0  0  0  0  0  0  0  0  0  0  0
  149.7831  140.7726  154.8616 C   0  0  0  0  0  0  0  0  0  0  0  0
  145.7971  136.6291  151.2228 N   0  0  0  0  0  0  0  0  0  0  0  0
  145.1132  135.5211  150.8678 C   0  0  0  0  0  0  0  0  0  0  0  0
  143.3566  132.8703  152.1792 H   0  0  0  0  0  0  0  0  0  0  0  0
  144.3108  132.8622  150.6934 H   0  0  0  0  0  0  0  0  0  0  0  0
  142.7927  133.7663  150.7638 H   0  0  0  0  0  0  0  0  0  0  0  0
  143.9513  134.4895  153.8980 H   0  0  0  0  0  0  0  0  0  0  0  0
  145.2119  136.5313  154.5594 H   0  0  0  0  0  0  0  0  0  0  0  0
  146.4562  138.9596  152.4263 H   0  0  0  0  0  0  0  0  0  0  0  0
  147.5453  140.1691  153.5295 H   0  0  0  0  0  0  0  0  0  0  0  0
  148.9363  139.0986  155.9309 H   0  0  0  0  0  0  0  0  0  0  0  0
  147.2955  141.6629  155.7451 H   0  0  0  0  0  0  0  0  0  0  0  0
  146.9157  140.2642  156.7209 H   0  0  0  0  0  0  0  0  0  0  0  0
  147.9404  142.0537  158.0400 H   0  0  0  0  0  0  0  0  0  0  0  0
  148.9448  140.6133  158.1037 H   0  0  0  0  0  0  0  0  0  0  0  0
  149.9145  143.4531  158.6091 H   0  0  0  0  0  0  0  0  0  0  0  0
  152.2785  143.4105  156.6823 H   0  0  0  0  0  0  0  0  0  0  0  0
  151.1041  144.7025  156.8477 H   0  0  0  0  0  0  0  0  0  0  0  0
  153.1789  145.2577  158.0430 H   0  0  0  0  0  0  0  0  0  0  0  0
  151.8147  145.1774  159.1307 H   0  0  0  0  0  0  0  0  0  0  0  0
  153.9267  143.0040  158.7266 H   0  0  0  0  0  0  0  0  0  0  0  0
  153.7498  144.0201  160.1383 H   0  0  0  0  0  0  0  0  0  0  0  0
  152.7408  141.7612  160.5005 H   0  0  0  0  0  0  0  0  0  0  0  0
  151.5465  143.0278  160.6465 H   0  0  0  0  0  0  0  0  0  0  0  0
  150.6682  141.1607  159.3192 H   0  0  0  0  0  0  0  0  0  0  0  0
  152.0023  141.2502  158.2029 H   0  0  0  0  0  0  0  0  0  0  0  0
  151.4380  141.8960  155.6313 H   0  0  0  0  0  0  0  0  0  0  0  0
  151.0280  140.5119  156.6129 H   0  0  0  0  0  0  0  0  0  0  0  0
  150.4245  140.1464  154.2404 H   0  0  0  0  0  0  0  0  0  0  0  0
  149.4444  141.5936  154.2275 H   0  0  0  0  0  0  0  0  0  0  0  0
  145.1134  135.2775  149.8155 H   0  0  0  0  0  0  0  0  0  0  0  0
  149.3721  142.9152  156.3581 H   0  0  0  0  0  0  0  0  0  0  0  0
  1  2  1  0  0  0  0
  1 24  1  0  0  0  0
  1 25  1  0  0  0  0
  1 26  1  0  0  0  0
  2 23  1  0  0  0  0
  2  3  2  0  0  0  0
  3  4  1  0  0  0  0
  3 27  1  0  0  0  0
  4  5  2  0  0  0  0
  4 28  1  0  0  0  0
  5  6  1  0  0  0  0
  5 22  1  0  0  0  0
  6  7  1  0  0  0  0
  6 29  1  0  0  0  0
  7  8  2  0  0  0  0
  7  9  1  0  0  0  0
  9 10  1  0  0  0  0
  9 30  1  0  0  0  0
 10 21  1  0  0  0  0
 10 11  1  0  0  0  0
 10 31  1  0  0  0  0
 11 12  1  0  0  0  0
 11 32  1  0  0  0  0
 11 33  1  0  0  0  0
 12 13  1  0  0  0  0
 12 34  1  0  0  0  0
 12 35  1  0  0  0  0
 13 14  1  0  0  0  0
 13 20  1  0  0  0  0
 13 52  1  0  0  0  0
 14 19  1  0  0  0  0
 14 15  1  0  0  0  0
 14 36  1  0  0  0  0
 15 16  1  0  0  0  0
 15 37  1  0  0  0  0
 15 38  1  0  0  0  0
 16 17  1  0  0  0  0
 16 39  1  0  0  0  0
 16 40  1  0  0  0  0
 17 18  1  0  0  0  0
 17 41  1  0  0  0  0
 17 42  1  0  0  0  0
 18 19  1  0  0  0  0
 18 43  1  0  0  0  0
 18 44  1  0  0  0  0
 19 45  1  0  0  0  0
 19 46  1  0  0  0  0
 20 21  1  0  0  0  0
 20 47  1  0  0  0  0
 20 48  1  0  0  0  0
 21 49  1  0  0  0  0
 21 50  1  0  0  0  0
 22 23  2  0  0  0  0
 23 51  1  0  0  0  0
M  CHG  1  13   1
M  END
> <s_m_source_file>
AV-unprocessed.smi

> <i_m_source_file_index>
2341

> <i_lp_mmshare_version>
43012

> <i_f3d_flags>
0

> <s_epik_input>
W0NIM11jMVtjSF1bY0hdYyhuW2NIXTEpW05IXUMoPU8pW05IXVtDSF0yW0NIMl1bQ0gyXU4oW0NIMl1bQ0gyXTIpW0NIXTNbQ0gyXVtDSDJdW0NIMl1bQ0gyXVtDSDJdMw==

> <s_epik_cmdline>
J2VwaWtfcHl0aG9uJywgJy1waCcsICc3LjAnLCAnLXRuJywgJzgnLCAnLW1hJywgJzIwMCcsICctbWV0YWxfYmluZGluZycsICctaW1hZScsICc8aW5maWxlLm1hZT4nLCAnLW9tYWUnLCAnPG91dGZpbGUubWFlPic=

> <r_epik_Ionization_Penalty>
0.00176486

> <r_epik_Ionization_Penalty_Charging>
0.00171891

> <r_epik_Ionization_Penalty_Neutral>
4.59494e-05

> <r_epik_State_Penalty>
0.00116222

> <r_epik_Charging_Adjusted_Penalty>
0.00288114

> <i_epik_Tot_Q>
1

> <i_epik_Tot_abs_Q>
1

> <r_epik_Metal_State_Penalty>
-0

> <b_epik_Metal_Only>
0

> <s_lp_Force_Field>
OPLS_2005

> <r_lp_Energy>
29.4095

> <b_lp_Chiralities_Consistent>
1

> <s_lp_Variant>
AV-unprocessed.smi:2341-1

> <Gold.Version>
5.8.1

> <Gold.Id.Protein>
6NUR|6NUR_protein|mol2

> <Gold.PLP.Fitness>
47.6762

> <Gold.PLP.PLP>
-39.7741

> <Gold.PLP.part.hbond>
-1.4053

> <Gold.PLP.part.metal>
0.0000

> <Gold.PLP.part.buried>
-5.2328

> <Gold.PLP.part.nonpolar>
-34.6748

> <Gold.PLP.part.repulsive>
0.4124

> <Gold.PLP.ligand.clash>
0.0000

> <Gold.PLP.ligand.torsion>
0.5702

> <Gold.PLP.Chemscore.Hbond>
2.0000

> <Gold.PLP.Chemscore.CHOScore>
1.0000

> <Gold.PLP.Chemscore.Metal>
0.0000

> <Gold.Chemscore.Hbonds>
donor molecule, donor type, donor heavy atom, donor atom, acceptor molecule, acceptor atom, score
      L1  H    13    52       P1  8028  2.00
      L1  C    23    51       P1  7921  1.00

> <Gold.PLP.Chemscore.Internal.Correction>
0.0426

> <Gold.Rescore>
     Score         DG    S(hbond)    S(metal)    S(lipo)     H(rot)  DE(clash)    DE(int)     intcor
     16.70     -18.98       0.98        0.00     113.49       1.19       0.43       1.85       ----

> <Gold.Chemscore.Fitness>
16.7004

> <Gold.Chemscore.DG>
-18.9822

> <Gold.Chemscore.ZeroCoef>
-5.4800

> <Gold.Chemscore.Hbond>
0.9806

> <Gold.Chemscore.Metal>
0.0000

> <Gold.Chemscore.Lipo>
113.4876

> <Gold.Chemscore.Internal_Hbond>
0.0000

> <Gold.Chemscore.DEClash>
0.4321

> <Gold.Chemscore.DEInternal>
1.8498

> <Gold.Chemscore.Rot>
1.1918

> <Gold.Chemscore.Internal.Correction>
   9.000000E+99

> <Gold.Chemscore.Hbonds>
donor molecule, donor type, donor heavy atom, donor atom, acceptor molecule, acceptor atom, score
      L1  H    13    52       P1  8028  0.96

> <Gold.Chemscore.Hbond.Weighted>
-3.2753

> <Gold.Chemscore.Metal.Weighted>
-0.0000

> <Gold.Chemscore.Lipo.Weighted>
-13.2781

> <Gold.Chemscore.Internal_Hbond.Weighted>
0.0000

> <Gold.Chemscore.DEClash.Weighted>
0.4321

> <Gold.Chemscore.DEInternal.Weighted>
1.8498

> <Gold.Chemscore.Rot.Weighted>
3.0511

> <Gold.Chemscore.Internal.Correction.Weighted>
   9.000000E+99

> <Gold.Protein.RotatedTorsions>
[ 6907 6896 6895 6894 ] final  -15.74 input  -60.11 | X-H torsion
[ 7974 7965 7964 7962 ] final -109.68 input  175.53 | X-H torsion
[ 8008 7997 7996 7995 ] final   55.48 input   59.86 | X-H torsion
[ 10167 10162 10161 10158 ] final   23.21 input  -65.29 | X-H torsion
[ 10718 10713 10712 10709 ] final  -98.16 input   66.30 | X-H torsion
[ 10763 10752 10751 10750 ] final  -69.58 input  -60.55 | X-H torsion
[ 11005 11000 10999 10996 ] final  146.61 input  -57.11 | X-H torsion

> <Gold.Protein.ActiveResidues>
 VAL166  LYS551  ARG553  GLY616  TRP617  ASP618  TYR619  PRO620  LYS621  CYS622 
 ASP623  PHE694  ASN695  SER759  ASP760  ASP761  ALA762  ILE779  LEU786  VAL792 
 PHE793  MET794  SER795  GLU796  ALA797  LYS798  CYS799  TRP800  GLU811  SER814 

> <Gold.Protein.RotatedAtoms>
  151.3194  135.0814  159.9299 H   0  0  0  0  0  0  0  0  0  0  0  0  # atno 6907 bound_to 6896
  152.5260  133.9655  159.7747 H   0  0  0  0  0  0  0  0  0  0  0  0  # atno 6908 bound_to 6896
  150.9973  133.6038  159.2730 H   0  0  0  0  0  0  0  0  0  0  0  0  # atno 6909 bound_to 6896
  145.1775  140.8955  143.3499 H   0  0  0  0  0  0  0  0  0  0  0  0  # atno 7974 bound_to 7965
  155.5018  140.3474  155.4372 H   0  0  0  0  0  0  0  0  0  0  0  0  # atno 8008 bound_to 7997
  156.0909  140.1410  156.9621 H   0  0  0  0  0  0  0  0  0  0  0  0  # atno 8009 bound_to 7997
  154.4634  140.0926  156.6932 H   0  0  0  0  0  0  0  0  0  0  0  0  # atno 8010 bound_to 7997
  140.5287  143.9879  150.6454 H   0  0  0  0  0  0  0  0  0  0  0  0  # atno 10167 bound_to 10162
  156.0101  130.5226  150.6482 H   0  0  0  0  0  0  0  0  0  0  0  0  # atno 10718 bound_to 10713
  154.4054  135.6021  153.5921 H   0  0  0  0  0  0  0  0  0  0  0  0  # atno 10763 bound_to 10752
  152.9789  135.5916  154.4134 H   0  0  0  0  0  0  0  0  0  0  0  0  # atno 10764 bound_to 10752
  154.3938  135.2842  155.2117 H   0  0  0  0  0  0  0  0  0  0  0  0  # atno 10765 bound_to 10752
  140.0808  134.9098  157.1497 H   0  0  0  0  0  0  0  0  0  0  0  0  # atno 11005 bound_to 11000
  145.0170  139.3458  143.6091 LP  0  0  0  0  0  0  0  0  0  0  0  0  # atno 17320 bound_to 7965
  146.3458  139.9455  142.8735 LP  0  0  0  0  0  0  0  0  0  0  0  0  # atno 17321 bound_to 7965
  140.3248  143.3114  152.0748 LP  0  0  0  0  0  0  0  0  0  0  0  0  # atno 17342 bound_to 10162
  139.4947  144.6549  151.6594 LP  0  0  0  0  0  0  0  0  0  0  0  0  # atno 17343 bound_to 10162
  157.4248  131.0841  151.1096 LP  0  0  0  0  0  0  0  0  0  0  0  0  # atno 17370 bound_to 10713
  157.1686  130.6257  149.5633 LP  0  0  0  0  0  0  0  0  0  0  0  0  # atno 17371 bound_to 10713
  140.3491  134.2618  155.7201 LP  0  0  0  0  0  0  0  0  0  0  0  0  # atno 17394 bound_to 11000
  141.2046  133.7883  157.0280 LP  0  0  0  0  0  0  0  0  0  0  0  0  # atno 17395 bound_to 11000

$$$$
