AV-unprocessed.smi:2875|AV-procd|sdf|11040|dock1
  -GOLD-   2272015503D 1   1.00000     0.00000
 Structure written by MMmdl.
 40 40  0  0  0  0  0  0  0  0  1 V2000
  146.7831  133.2676  151.1657 C   0  0  0  0  0  0  0  0  0  0  0  0
  147.2940  133.3650  152.6065 C   0  0  0  0  0  0  0  0  0  0  0  0
  148.7791  132.9842  152.7257 C   0  0  0  0  0  0  0  0  0  0  0  0
  149.2253  132.8997  154.1024 N   0  0  0  0  0  0  0  0  0  0  0  0
  149.3589  134.0095  154.9421 C   0  0  0  0  0  0  0  0  0  0  0  0
  149.0353  135.2566  154.4274 N   0  0  0  0  0  0  0  0  0  0  0  0
  149.7978  133.8869  156.2310 C   0  0  0  0  0  0  0  0  0  0  0  0
  149.8941  135.0011  157.0871 N   0  0  0  0  0  0  0  0  0  0  0  0
  148.7692  135.2417  158.0061 C   0  0  0  0  0  0  0  0  0  0  0  0
  148.5499  134.0688  158.9753 C   0  0  0  0  0  0  0  0  0  0  0  0
  147.6723  134.4741  160.0121 O   0  0  0  0  0  0  0  0  0  0  0  0
  148.2229  135.4979  160.8209 C   0  0  0  0  0  0  0  0  0  0  0  0
  150.9428  135.8634  157.0324 C   0  0  0  0  0  0  0  0  0  0  0  0
  151.0197  137.0232  158.0326 C   0  0  0  0  0  0  0  0  0  0  0  0
  151.8605  135.7394  156.2208 O   0  0  0  0  0  0  0  0  0  0  0  0
  150.1097  132.5633  156.7899 C   0  0  0  0  0  0  0  0  0  0  0  0
  150.4977  132.3395  157.9360 O   0  0  0  0  0  0  0  0  0  0  0  0
  149.9276  131.4983  155.9116 N   0  0  0  0  0  0  0  0  0  0  0  0
  149.4919  131.5999  154.5955 C   0  0  0  0  0  0  0  0  0  0  0  0
  149.3544  130.5761  153.9249 O   0  0  0  0  0  0  0  0  0  0  0  0
  150.1216  130.5720  156.2633 H   0  0  0  0  0  0  0  0  0  0  0  0
  145.7280  133.5357  151.1084 H   0  0  0  0  0  0  0  0  0  0  0  0
  146.8909  132.2542  150.7782 H   0  0  0  0  0  0  0  0  0  0  0  0
  147.3339  133.9396  150.5071 H   0  0  0  0  0  0  0  0  0  0  0  0
  147.1434  134.3814  152.9723 H   0  0  0  0  0  0  0  0  0  0  0  0
  146.6925  132.7160  153.2437 H   0  0  0  0  0  0  0  0  0  0  0  0
  148.9996  132.0341  152.2359 H   0  0  0  0  0  0  0  0  0  0  0  0
  149.4206  133.7104  152.2274 H   0  0  0  0  0  0  0  0  0  0  0  0
  148.7123  135.3722  153.4772 H   0  0  0  0  0  0  0  0  0  0  0  0
  149.1789  136.1044  154.9573 H   0  0  0  0  0  0  0  0  0  0  0  0
  148.9442  136.1585  158.5717 H   0  0  0  0  0  0  0  0  0  0  0  0
  147.8477  135.4169  157.4493 H   0  0  0  0  0  0  0  0  0  0  0  0
  148.1512  133.1994  158.4506 H   0  0  0  0  0  0  0  0  0  0  0  0
  149.5054  133.7727  159.4102 H   0  0  0  0  0  0  0  0  0  0  0  0
  147.5118  135.7706  161.6005 H   0  0  0  0  0  0  0  0  0  0  0  0
  148.4391  136.3909  160.2332 H   0  0  0  0  0  0  0  0  0  0  0  0
  149.1416  135.1652  161.3059 H   0  0  0  0  0  0  0  0  0  0  0  0
  150.2787  137.7867  157.7969 H   0  0  0  0  0  0  0  0  0  0  0  0
  152.0029  137.4938  157.9968 H   0  0  0  0  0  0  0  0  0  0  0  0
  150.8571  136.6773  159.0539 H   0  0  0  0  0  0  0  0  0  0  0  0
  1  2  1  0  0  0  0
  1 22  1  0  0  0  0
  1 23  1  0  0  0  0
  1 24  1  0  0  0  0
  2  3  1  0  0  0  0
  2 25  1  0  0  0  0
  2 26  1  0  0  0  0
  3  4  1  0  0  0  0
  3 27  1  0  0  0  0
  3 28  1  0  0  0  0
  4 19  1  0  0  0  0
  4  5  1  0  0  0  0
  5  6  1  0  0  0  0
  5  7  2  0  0  0  0
  6 29  1  0  0  0  0
  6 30  1  0  0  0  0
  7  8  1  0  0  0  0
  7 16  1  0  0  0  0
  8  9  1  0  0  0  0
  8 13  1  0  0  0  0
  9 10  1  0  0  0  0
  9 31  1  0  0  0  0
  9 32  1  0  0  0  0
 10 11  1  0  0  0  0
 10 33  1  0  0  0  0
 10 34  1  0  0  0  0
 11 12  1  0  0  0  0
 12 35  1  0  0  0  0
 12 36  1  0  0  0  0
 12 37  1  0  0  0  0
 13 14  1  0  0  0  0
 13 15  2  0  0  0  0
 14 38  1  0  0  0  0
 14 39  1  0  0  0  0
 14 40  1  0  0  0  0
 16 17  2  0  0  0  0
 16 18  1  0  0  0  0
 18 21  1  0  0  0  0
 18 19  1  0  0  0  0
 19 20  2  0  0  0  0
M  END
> <s_m_source_file>
AV-unprocessed.smi

> <i_m_source_file_index>
2875

> <i_lp_mmshare_version>
43012

> <i_f3d_flags>
0

> <s_epik_input>
W0NIM11bQ0gyXVtDSDJdbjFjKFtOSDJdKWMoYyg9TylbbkhdYzE9TylOKEMoPU8pW0NIM10pW0NIMl1bQ0gyXU9bQ0gzXQ==

> <s_epik_cmdline>
J2VwaWtfcHl0aG9uJywgJy1waCcsICc3LjAnLCAnLXRuJywgJzgnLCAnLW1hJywgJzIwMCcsICctbWV0YWxfYmluZGluZycsICctaW1hZScsICc8aW5maWxlLm1hZT4nLCAnLW9tYWUnLCAnPG91dGZpbGUubWFlPic=

> <r_lp_tautomer_probability>
1

> <r_epik_Ionization_Penalty>
1.36284e-05

> <r_epik_Ionization_Penalty_Charging>
6.32507e-06

> <r_epik_Ionization_Penalty_Neutral>
7.30329e-06

> <r_epik_State_Penalty>
-0

> <r_epik_Charging_Adjusted_Penalty>
6.32507e-06

> <i_epik_Tot_Q>
0

> <i_epik_Tot_abs_Q>
0

> <r_epik_Metal_State_Penalty>
0.00594323

> <b_epik_Metal_Only>
0

> <s_epik_Chemistry_Notes>
This compound has an imine and may undergo hydrolysis.

> <s_lp_Force_Field>
OPLS_2005

> <r_lp_Energy>
24.7155

> <b_lp_Chiralities_Consistent>
1

> <s_lp_Variant>
AV-unprocessed.smi:2875-1

> <Gold.Version>
5.8.1

> <Gold.Id.Protein>
6NUR|6NUR_protein|mol2

> <Gold.PLP.Fitness>
34.6116

> <Gold.PLP.PLP>
-26.4007

> <Gold.PLP.part.hbond>
-3.0000

> <Gold.PLP.part.metal>
0.0000

> <Gold.PLP.part.buried>
-3.7423

> <Gold.PLP.part.nonpolar>
-20.5717

> <Gold.PLP.part.repulsive>
0.0834

> <Gold.PLP.ligand.clash>
0.0000

> <Gold.PLP.ligand.torsion>
1.6231

> <Gold.PLP.Chemscore.Hbond>
2.9760

> <Gold.PLP.Chemscore.CHOScore>
0.0000

> <Gold.PLP.Chemscore.Metal>
0.0000

> <Gold.Chemscore.Hbonds>
donor molecule, donor type, donor heavy atom, donor atom, acceptor molecule, acceptor atom, score
      L1  H     6    29       P1  7948  0.93
      P1  H  6896  6908       L1    17  1.00
      P1  H 10752 10765       L1    15  1.00

> <Gold.PLP.Chemscore.Internal.Correction>
2.5290

> <Gold.Rescore>
     Score         DG    S(hbond)    S(metal)    S(lipo)     H(rot)  DE(clash)    DE(int)     intcor
     12.35     -14.11       2.87        0.00      37.35       2.08       0.01       1.75       ----

> <Gold.Chemscore.Fitness>
12.3506

> <Gold.Chemscore.DG>
-14.1092

> <Gold.Chemscore.ZeroCoef>
-5.4800

> <Gold.Chemscore.Hbond>
2.8667

> <Gold.Chemscore.Metal>
0.0000

> <Gold.Chemscore.Lipo>
37.3485

> <Gold.Chemscore.Internal_Hbond>
0.0000

> <Gold.Chemscore.DEClash>
0.0057

> <Gold.Chemscore.DEInternal>
1.7528

> <Gold.Chemscore.Rot>
2.0763

> <Gold.Chemscore.Internal.Correction>
   9.000000E+99

> <Gold.Chemscore.Hbonds>
donor molecule, donor type, donor heavy atom, donor atom, acceptor molecule, acceptor atom, score
      L1  H     6    29       P1  7948  0.79
      P1  H  6896  6908       L1    17  1.00
      P1  H 10752 10765       L1    15  1.00

> <Gold.Chemscore.Hbond.Weighted>
-9.5747

> <Gold.Chemscore.Metal.Weighted>
-0.0000

> <Gold.Chemscore.Lipo.Weighted>
-4.3698

> <Gold.Chemscore.Internal_Hbond.Weighted>
0.0000

> <Gold.Chemscore.DEClash.Weighted>
0.0057

> <Gold.Chemscore.DEInternal.Weighted>
1.7528

> <Gold.Chemscore.Rot.Weighted>
5.3153

> <Gold.Chemscore.Internal.Correction.Weighted>
   9.000000E+99

> <Gold.Protein.RotatedTorsions>
[ 6907 6896 6895 6894 ] final   91.50 input  -60.11 | X-H torsion
[ 7974 7965 7964 7962 ] final  -22.77 input  175.53 | X-H torsion
[ 8008 7997 7996 7995 ] final -137.14 input   59.86 | X-H torsion
[ 10167 10162 10161 10158 ] final   -2.25 input  -65.29 | X-H torsion
[ 10718 10713 10712 10709 ] final   28.79 input   66.30 | X-H torsion
[ 10763 10752 10751 10750 ] final -150.22 input  -60.55 | X-H torsion
[ 11005 11000 10999 10996 ] final  -29.92 input  -57.11 | X-H torsion

> <Gold.Protein.ActiveResidues>
 VAL166  LYS551  ARG553  GLY616  TRP617  ASP618  TYR619  PRO620  LYS621  CYS622 
 ASP623  PHE694  ASN695  SER759  ASP760  ASP761  ALA762  ILE779  LEU786  VAL792 
 PHE793  MET794  SER795  GLU796  ALA797  LYS798  CYS799  TRP800  GLU811  SER814 

> <Gold.Protein.RotatedAtoms>
  152.5450  134.1647  159.8571 H   0  0  0  0  0  0  0  0  0  0  0  0  # atno 6907 bound_to 6896
  151.1662  133.4806  159.2601 H   0  0  0  0  0  0  0  0  0  0  0  0  # atno 6908 bound_to 6896
  151.1322  135.0147  159.8642 H   0  0  0  0  0  0  0  0  0  0  0  0  # atno 6909 bound_to 6896
  146.1656  140.4524  142.8553 H   0  0  0  0  0  0  0  0  0  0  0  0  # atno 7974 bound_to 7965
  155.4069  140.0509  157.3034 H   0  0  0  0  0  0  0  0  0  0  0  0  # atno 8008 bound_to 7997
  154.4964  140.2140  155.9398 H   0  0  0  0  0  0  0  0  0  0  0  0  # atno 8009 bound_to 7997
  156.1411  140.3154  155.8502 H   0  0  0  0  0  0  0  0  0  0  0  0  # atno 8010 bound_to 7997
  140.6843  143.6679  150.8210 H   0  0  0  0  0  0  0  0  0  0  0  0  # atno 10167 bound_to 10162
  157.2381  130.7056  149.6345 H   0  0  0  0  0  0  0  0  0  0  0  0  # atno 10718 bound_to 10713
  154.8132  135.3290  154.7249 H   0  0  0  0  0  0  0  0  0  0  0  0  # atno 10763 bound_to 10752
  153.7894  135.6912  153.4878 H   0  0  0  0  0  0  0  0  0  0  0  0  # atno 10764 bound_to 10752
  153.1927  135.4545  155.0116 H   0  0  0  0  0  0  0  0  0  0  0  0  # atno 10765 bound_to 10752
  140.9338  133.7321  156.0975 H   0  0  0  0  0  0  0  0  0  0  0  0  # atno 11005 bound_to 11000
  144.8088  140.6348  143.6429 LP  0  0  0  0  0  0  0  0  0  0  0  0  # atno 17320 bound_to 7965
  145.4476  139.1527  143.3936 LP  0  0  0  0  0  0  0  0  0  0  0  0  # atno 17321 bound_to 7965
  140.0384  143.5371  152.2729 LP  0  0  0  0  0  0  0  0  0  0  0  0  # atno 17342 bound_to 10162
  139.6190  144.7625  151.2783 LP  0  0  0  0  0  0  0  0  0  0  0  0  # atno 17343 bound_to 10162
  155.9671  130.4467  150.5551 LP  0  0  0  0  0  0  0  0  0  0  0  0  # atno 17370 bound_to 10713
  157.3408  131.0716  151.1790 LP  0  0  0  0  0  0  0  0  0  0  0  0  # atno 17371 bound_to 10713
  140.7826  134.3708  157.5484 LP  0  0  0  0  0  0  0  0  0  0  0  0  # atno 17394 bound_to 11000
  139.8803  134.9091  156.2983 LP  0  0  0  0  0  0  0  0  0  0  0  0  # atno 17395 bound_to 11000

$$$$
