AV-unprocessed.smi:240|AV-procd|sdf|1836|dock9
  -GOLD-   2262020443D 1   1.00000     0.00000
 Structure written by MMmdl.
 55 59  0  0  0  0  0  0  0  0  1 V2000
  151.7970  139.8869  155.0549 O   0  0  0  0  0  0  0  0  0  0  0  0
  150.9243  139.8565  156.1650 C   0  0  2  0  0  0  0  0  0  0  0  0
  149.5145  139.4547  155.7361 C   0  0  0  0  0  0  0  0  0  0  0  0
  148.6257  139.9447  156.8799 C   0  0  0  0  0  0  0  0  0  0  0  0
  149.3374  141.1701  157.4741 C   0  0  0  0  0  0  0  0  0  0  0  0
  150.7277  141.2418  156.8094 C   0  0  1  0  0  0  0  0  0  0  0  0
  151.8678  141.7621  157.7434 C   0  0  1  0  0  0  0  0  0  0  0  0
  151.8655  143.3048  157.9062 C   0  0  0  0  0  0  0  0  0  0  0  0
  152.9457  143.7145  158.7351 O   0  0  0  0  0  0  0  0  0  0  0  0
  152.8211  143.1899  160.0494 C   0  0  0  0  0  0  0  0  0  0  0  0
  152.8800  141.6586  159.9809 C   0  0  0  0  0  0  0  0  0  0  0  0
  151.8583  141.1384  159.0767 N   0  0  0  0  0  0  0  0  0  0  0  0
  151.8476  139.7855  159.1387 C   0  0  0  0  0  0  0  0  0  0  0  0
  150.6696  139.1082  159.1964 N   0  0  0  0  0  0  0  0  0  0  0  0
  150.6687  137.7731  159.2551 C   0  0  0  0  0  0  0  0  0  0  0  0
  151.7093  136.9366  159.2605 N   0  0  0  0  0  0  0  0  0  0  0  0
  152.8908  137.6148  159.1848 C   0  0  0  0  0  0  0  0  0  0  0  0
  153.0472  139.0267  159.1148 C   0  0  0  0  0  0  0  0  0  0  0  0
  154.3947  139.3553  159.0455 N   0  0  0  0  0  0  0  0  0  0  0  0
  155.0029  138.2009  159.0785 C   0  0  0  0  0  0  0  0  0  0  0  0
  154.1762  137.1023  159.1560 N   0  0  0  0  0  0  0  0  0  0  0  0
  154.5828  135.7066  159.2128 C   0  0  0  0  0  0  0  0  0  0  0  0
  154.7314  135.0340  157.8241 C   0  0  2  0  0  0  0  0  0  0  0  0
  153.4926  135.1003  157.1416 O   0  0  0  0  0  0  0  0  0  0  0  0
  155.1974  133.5805  157.8796 C   0  0  0  0  0  0  0  0  0  0  0  0
  156.7094  133.7213  157.7998 C   0  0  0  0  0  0  0  0  0  0  0  0
  156.8751  134.7400  156.8274 O   0  0  0  0  0  0  0  0  0  0  0  0
  155.8386  135.7055  156.9867 C   0  0  0  0  0  0  0  0  0  0  0  0
  152.6596  139.6306  155.3429 H   0  0  0  0  0  0  0  0  0  0  0  0
  151.2876  139.1266  156.8865 H   0  0  0  0  0  0  0  0  0  0  0  0
  149.2378  139.9733  154.8166 H   0  0  0  0  0  0  0  0  0  0  0  0
  149.4174  138.3836  155.5566 H   0  0  0  0  0  0  0  0  0  0  0  0
  147.6147  140.1746  156.5424 H   0  0  0  0  0  0  0  0  0  0  0  0
  148.5478  139.1663  157.6400 H   0  0  0  0  0  0  0  0  0  0  0  0
  148.7764  142.0834  157.2718 H   0  0  0  0  0  0  0  0  0  0  0  0
  149.3913  141.0740  158.5573 H   0  0  0  0  0  0  0  0  0  0  0  0
  150.5941  141.9469  155.9887 H   0  0  0  0  0  0  0  0  0  0  0  0
  152.8167  141.4937  157.2768 H   0  0  0  0  0  0  0  0  0  0  0  0
  151.9775  143.8048  156.9459 H   0  0  0  0  0  0  0  0  0  0  0  0
  150.9349  143.6662  158.3431 H   0  0  0  0  0  0  0  0  0  0  0  0
  153.6376  143.5703  160.6633 H   0  0  0  0  0  0  0  0  0  0  0  0
  151.8906  143.5276  160.5087 H   0  0  0  0  0  0  0  0  0  0  0  0
  153.8655  141.3438  159.6343 H   0  0  0  0  0  0  0  0  0  0  0  0
  152.7443  141.2445  160.9811 H   0  0  0  0  0  0  0  0  0  0  0  0
  149.6948  137.3088  159.3056 H   0  0  0  0  0  0  0  0  0  0  0  0
  156.0797  138.1177  159.0445 H   0  0  0  0  0  0  0  0  0  0  0  0
  155.5257  135.6511  159.7588 H   0  0  0  0  0  0  0  0  0  0  0  0
  153.8537  135.1653  159.8170 H   0  0  0  0  0  0  0  0  0  0  0  0
  152.9064  134.4650  157.5237 H   0  0  0  0  0  0  0  0  0  0  0  0
  154.8658  133.0278  158.7574 H   0  0  0  0  0  0  0  0  0  0  0  0
  154.8517  133.0321  157.0016 H   0  0  0  0  0  0  0  0  0  0  0  0
  157.1250  134.0482  158.7544 H   0  0  0  0  0  0  0  0  0  0  0  0
  157.2056  132.7970  157.5036 H   0  0  0  0  0  0  0  0  0  0  0  0
  155.4899  136.0122  155.9996 H   0  0  0  0  0  0  0  0  0  0  0  0
  156.2379  136.5930  157.4794 H   0  0  0  0  0  0  0  0  0  0  0  0
  1  2  1  0  0  0  0
  1 29  1  0  0  0  0
  2  6  1  0  0  0  0
  2  3  1  0  0  0  0
  2 30  1  0  0  0  0
  3  4  1  0  0  0  0
  3 31  1  0  0  0  0
  3 32  1  0  0  0  0
  4  5  1  0  0  0  0
  4 33  1  0  0  0  0
  4 34  1  0  0  0  0
  5  6  1  0  0  0  0
  5 35  1  0  0  0  0
  5 36  1  0  0  0  0
  6  7  1  0  0  0  0
  6 37  1  0  0  0  0
  7 12  1  0  0  0  0
  7  8  1  0  0  0  0
  7 38  1  0  0  0  0
  8  9  1  0  0  0  0
  8 39  1  0  0  0  0
  8 40  1  0  0  0  0
  9 10  1  0  0  0  0
 10 11  1  0  0  0  0
 10 41  1  0  0  0  0
 10 42  1  0  0  0  0
 11 12  1  0  0  0  0
 11 43  1  0  0  0  0
 11 44  1  0  0  0  0
 12 13  1  0  0  0  0
 13 18  1  0  0  0  0
 13 14  2  0  0  0  0
 14 15  1  0  0  0  0
 15 16  2  0  0  0  0
 15 45  1  0  0  0  0
 16 17  1  0  0  0  0
 17 21  1  0  0  0  0
 17 18  2  0  0  0  0
 18 19  1  0  0  0  0
 19 20  2  0  0  0  0
 20 21  1  0  0  0  0
 20 46  1  0  0  0  0
 21 22  1  0  0  0  0
 22 23  1  0  0  0  0
 22 47  1  0  0  0  0
 22 48  1  0  0  0  0
 23 28  1  0  0  0  0
 23 24  1  0  0  0  0
 23 25  1  0  0  0  0
 24 49  1  0  0  0  0
 25 26  1  0  0  0  0
 25 50  1  0  0  0  0
 25 51  1  0  0  0  0
 26 27  1  0  0  0  0
 26 52  1  0  0  0  0
 26 53  1  0  0  0  0
 27 28  1  0  0  0  0
 28 54  1  0  0  0  0
 28 55  1  0  0  0  0
M  END
> <s_m_source_file>
AV-unprocessed.smi

> <i_m_source_file_index>
240

> <i_lp_mmshare_version>
43012

> <i_f3d_flags>
0

> <s_epik_input>
W09IXVtDQEBIXTFbQ0gyXVtDSDJdW0NIMl1bQ0BIXTFbQ0BASF0yW0NIMl1PW0NIMl1bQ0gyXU4yYyhuW2NIXW4zKWMoYzM0KW5bY0hdbjRbQ0gyXVtDQEBdNShbT0hdKVtDSDJdW0NIMl1PW0NIMl01

> <s_epik_cmdline>
J2VwaWtfcHl0aG9uJywgJy1waCcsICc3LjAnLCAnLXRuJywgJzgnLCAnLW1hJywgJzIwMCcsICctbWV0YWxfYmluZGluZycsICctaW1hZScsICc8aW5maWxlLm1hZT4nLCAnLW9tYWUnLCAnPG91dGZpbGUubWFlPic=

> <r_lp_tautomer_probability>
1

> <r_epik_Ionization_Penalty>
0.000130618

> <r_epik_Ionization_Penalty_Charging>
0

> <r_epik_Ionization_Penalty_Neutral>
0.000130618

> <r_epik_State_Penalty>
-0

> <r_epik_Charging_Adjusted_Penalty>
0

> <i_epik_Tot_Q>
0

> <i_epik_Tot_abs_Q>
0

> <r_epik_Metal_State_Penalty>
-0

> <b_epik_Metal_Only>
0

> <s_lp_Force_Field>
OPLS_2005

> <r_lp_Energy>
59.7423

> <b_lp_Chiralities_Consistent>
1

> <s_lp_Variant>
AV-unprocessed.smi:240-13

> <Gold.Version>
5.8.1

> <Gold.Id.Protein>
6NUR|6NUR_protein|mol2

> <Gold.PLP.Fitness>
43.2384

> <Gold.PLP.PLP>
-34.3614

> <Gold.PLP.part.hbond>
-4.6514

> <Gold.PLP.part.metal>
0.0000

> <Gold.PLP.part.buried>
-8.1169

> <Gold.PLP.part.nonpolar>
-22.1373

> <Gold.PLP.part.repulsive>
0.0199

> <Gold.PLP.ligand.clash>
0.0000

> <Gold.PLP.ligand.torsion>
1.2583

> <Gold.PLP.Chemscore.Hbond>
3.7400

> <Gold.PLP.Chemscore.CHOScore>
0.0000

> <Gold.PLP.Chemscore.Metal>
0.0000

> <Gold.Chemscore.Hbonds>
donor molecule, donor type, donor heavy atom, donor atom, acceptor molecule, acceptor atom, score
      P1  H  6896  6909       L1    16  0.90
      P1  H  7989  7998       L1     1  0.98
      P1  H  7997  8010       L1    19  1.00
      P1  H 10752 10763       L1    24  0.99

> <Gold.PLP.Chemscore.Internal.Correction>
0.1736

> <Gold.Rescore>
     Score         DG    S(hbond)    S(metal)    S(lipo)     H(rot)  DE(clash)    DE(int)     intcor
     13.34     -16.94       3.04        0.00      76.86       3.00       0.21       3.39       ----

> <Gold.Chemscore.Fitness>
13.3405

> <Gold.Chemscore.DG>
-16.9380

> <Gold.Chemscore.ZeroCoef>
-5.4800

> <Gold.Chemscore.Hbond>
3.0407

> <Gold.Chemscore.Metal>
0.0000

> <Gold.Chemscore.Lipo>
76.8552

> <Gold.Chemscore.Internal_Hbond>
0.0000

> <Gold.Chemscore.DEClash>
0.2115

> <Gold.Chemscore.DEInternal>
3.3860

> <Gold.Chemscore.Rot>
3.0039

> <Gold.Chemscore.Internal.Correction>
   9.000000E+99

> <Gold.Chemscore.Hbonds>
donor molecule, donor type, donor heavy atom, donor atom, acceptor molecule, acceptor atom, score
      P1  H  6896  6909       L1    16  0.78
      P1  H  7989  7998       L1     1  0.89
      P1  H  7997  8010       L1    19  0.23
      P1  H 10752 10763       L1    24  0.28

> <Gold.Chemscore.Hbond.Weighted>
-10.1558

> <Gold.Chemscore.Metal.Weighted>
-0.0000

> <Gold.Chemscore.Lipo.Weighted>
-8.9921

> <Gold.Chemscore.Internal_Hbond.Weighted>
0.0000

> <Gold.Chemscore.DEClash.Weighted>
0.2115

> <Gold.Chemscore.DEInternal.Weighted>
3.3860

> <Gold.Chemscore.Rot.Weighted>
7.6899

> <Gold.Chemscore.Internal.Correction.Weighted>
   9.000000E+99

> <Gold.Protein.RotatedTorsions>
[ 6907 6896 6895 6894 ] final  137.35 input  -60.11 | X-H torsion
[ 7974 7965 7964 7962 ] final -178.60 input  175.53 | X-H torsion
[ 8008 7997 7996 7995 ] final    7.18 input   59.86 | X-H torsion
[ 10167 10162 10161 10158 ] final  -11.26 input  -65.29 | X-H torsion
[ 10718 10713 10712 10709 ] final   55.67 input   66.30 | X-H torsion
[ 10763 10752 10751 10750 ] final  149.18 input  -60.55 | X-H torsion
[ 11005 11000 10999 10996 ] final  162.28 input  -57.11 | X-H torsion

> <Gold.Protein.ActiveResidues>
 VAL166  LYS551  ARG553  GLY616  TRP617  ASP618  TYR619  PRO620  LYS621  CYS622 
 ASP623  PHE694  ASN695  SER759  ASP760  ASP761  ALA762  ILE779  LEU786  VAL792 
 PHE793  MET794  SER795  GLU796  ALA797  LYS798  CYS799  TRP800  GLU811  SER814 

> <Gold.Protein.RotatedAtoms>
  152.2790  133.5453  159.5485 H   0  0  0  0  0  0  0  0  0  0  0  0  # atno 6907 bound_to 6896
  150.7188  134.0590  159.3833 H   0  0  0  0  0  0  0  0  0  0  0  0  # atno 6908 bound_to 6896
  151.8502  135.0560  160.0509 H   0  0  0  0  0  0  0  0  0  0  0  0  # atno 6909 bound_to 6896
  144.7132  140.0844  143.6424 H   0  0  0  0  0  0  0  0  0  0  0  0  # atno 7974 bound_to 7965
  154.7505  140.2766  155.6297 H   0  0  0  0  0  0  0  0  0  0  0  0  # atno 8008 bound_to 7997
  156.2894  140.2679  156.2183 H   0  0  0  0  0  0  0  0  0  0  0  0  # atno 8009 bound_to 7997
  155.0143  140.0372  157.2402 H   0  0  0  0  0  0  0  0  0  0  0  0  # atno 8010 bound_to 7997
  140.7134  143.5659  150.9145 H   0  0  0  0  0  0  0  0  0  0  0  0  # atno 10167 bound_to 10162
  157.5365  130.8667  149.8761 H   0  0  0  0  0  0  0  0  0  0  0  0  # atno 10718 bound_to 10713
  154.0669  135.2869  155.3315 H   0  0  0  0  0  0  0  0  0  0  0  0  # atno 10763 bound_to 10752
  154.6772  135.5277  153.8218 H   0  0  0  0  0  0  0  0  0  0  0  0  # atno 10764 bound_to 10752
  153.0500  135.6572  154.0853 H   0  0  0  0  0  0  0  0  0  0  0  0  # atno 10765 bound_to 10752
  140.2242  134.8173  157.3251 H   0  0  0  0  0  0  0  0  0  0  0  0  # atno 11005 bound_to 11000
  145.9674  139.2845  143.1119 LP  0  0  0  0  0  0  0  0  0  0  0  0  # atno 17320 bound_to 7965
  145.9154  140.9152  143.0432 LP  0  0  0  0  0  0  0  0  0  0  0  0  # atno 17321 bound_to 7965
  139.9385  143.6410  152.3059 LP  0  0  0  0  0  0  0  0  0  0  0  0  # atno 17342 bound_to 10162
  139.6886  144.7649  151.1479 LP  0  0  0  0  0  0  0  0  0  0  0  0  # atno 17343 bound_to 10162
  156.0463  130.3727  150.1310 LP  0  0  0  0  0  0  0  0  0  0  0  0  # atno 17370 bound_to 10713
  156.9492  130.9769  151.3501 LP  0  0  0  0  0  0  0  0  0  0  0  0  # atno 17371 bound_to 10713
  140.1818  134.4481  155.7768 LP  0  0  0  0  0  0  0  0  0  0  0  0  # atno 17394 bound_to 11000
  141.2221  133.6987  156.7880 LP  0  0  0  0  0  0  0  0  0  0  0  0  # atno 17395 bound_to 11000

$$$$
