AV-unprocessed.smi:346|AV-procd|sdf|2392|dock8
  -GOLD-   2262022323D 1   1.00000     0.00000
 Structure written by MMmdl.
 33 34  0  0  0  0  0  0  0  0  1 V2000
  154.7272  136.6714  160.2785 C   0  0  0  0  0  0  0  0  0  0  0  0
  153.7129  136.1877  159.4156 O   0  0  0  0  0  0  0  0  0  0  0  0
  153.1688  137.2051  158.5927 C   0  0  0  0  0  0  0  0  0  0  0  0
  152.3609  138.1688  159.4700 C   0  0  0  0  0  0  0  0  0  0  0  0
  151.8453  139.2908  158.7016 N   0  0  0  0  0  0  0  0  0  0  0  0
  151.0488  139.2537  157.6041 C   0  0  0  0  0  0  0  0  0  0  0  0
  150.4961  137.7158  156.9231 S   0  0  0  0  0  0  0  0  0  0  0  0
  151.2864  137.7770  155.2859 C   0  0  0  0  0  0  0  0  0  0  0  0
  150.6866  138.8547  154.3859 C   0  0  0  0  0  0  0  0  0  0  0  0
  149.9452  138.4445  153.3532 N   0  0  0  0  0  0  0  0  0  0  0  0
  150.8807  140.0447  154.6235 O   0  0  0  0  0  0  0  0  0  0  0  0
  150.7225  140.4441  157.0961 N   0  0  0  0  0  0  0  0  0  0  0  0
  151.3609  141.3289  157.9419 C   0  0  0  0  0  0  0  0  0  0  0  0
  151.4006  142.7414  157.9336 C   0  0  0  0  0  0  0  0  0  0  0  0
  152.1290  143.4409  158.9184 C   0  0  0  0  0  0  0  0  0  0  0  0
  152.1681  145.1654  158.8922 Cl  0  0  0  0  0  0  0  0  0  0  0  0
  152.8253  142.7382  159.9236 C   0  0  0  0  0  0  0  0  0  0  0  0
  152.7986  141.3304  159.9493 C   0  0  0  0  0  0  0  0  0  0  0  0
  152.0718  140.6382  158.9622 C   0  0  0  0  0  0  0  0  0  0  0  0
  155.1087  135.8532  160.8893 H   0  0  0  0  0  0  0  0  0  0  0  0
  154.3419  137.4404  160.9490 H   0  0  0  0  0  0  0  0  0  0  0  0
  155.5617  137.0868  159.7123 H   0  0  0  0  0  0  0  0  0  0  0  0
  153.9702  137.7407  158.0814 H   0  0  0  0  0  0  0  0  0  0  0  0
  152.5262  136.7645  157.8288 H   0  0  0  0  0  0  0  0  0  0  0  0
  151.5216  137.6435  159.9265 H   0  0  0  0  0  0  0  0  0  0  0  0
  152.9699  138.5433  160.2932 H   0  0  0  0  0  0  0  0  0  0  0  0
  152.3535  137.9696  155.4037 H   0  0  0  0  0  0  0  0  0  0  0  0
  151.1829  136.8057  154.8002 H   0  0  0  0  0  0  0  0  0  0  0  0
  149.5223  139.1216  152.7350 H   0  0  0  0  0  0  0  0  0  0  0  0
  149.8047  137.4567  153.1989 H   0  0  0  0  0  0  0  0  0  0  0  0
  150.8694  143.2870  157.1677 H   0  0  0  0  0  0  0  0  0  0  0  0
  153.3811  143.2793  160.6756 H   0  0  0  0  0  0  0  0  0  0  0  0
  153.3303  140.7906  160.7186 H   0  0  0  0  0  0  0  0  0  0  0  0
  1  2  1  0  0  0  0
  1 20  1  0  0  0  0
  1 21  1  0  0  0  0
  1 22  1  0  0  0  0
  2  3  1  0  0  0  0
  3  4  1  0  0  0  0
  3 23  1  0  0  0  0
  3 24  1  0  0  0  0
  4  5  1  0  0  0  0
  4 25  1  0  0  0  0
  4 26  1  0  0  0  0
  5 19  1  0  0  0  0
  5  6  1  0  0  0  0
  6  7  1  0  0  0  0
  6 12  2  0  0  0  0
  7  8  1  0  0  0  0
  8  9  1  0  0  0  0
  8 27  1  0  0  0  0
  8 28  1  0  0  0  0
  9 10  1  0  0  0  0
  9 11  2  0  0  0  0
 10 29  1  0  0  0  0
 10 30  1  0  0  0  0
 12 13  1  0  0  0  0
 13 19  2  0  0  0  0
 13 14  1  0  0  0  0
 14 15  2  0  0  0  0
 14 31  1  0  0  0  0
 15 16  1  0  0  0  0
 15 17  1  0  0  0  0
 17 18  2  0  0  0  0
 17 32  1  0  0  0  0
 18 19  1  0  0  0  0
 18 33  1  0  0  0  0
M  END
> <s_m_source_file>
AV-unprocessed.smi

> <i_m_source_file_index>
346

> <i_lp_mmshare_version>
43012

> <i_f3d_flags>
0

> <s_epik_input>
W2NIXTFjKENsKVtjSF1bY0hdYyhjMTIpbihbQ0gyXVtDSDJdT1tDSDNdKWMobjIpU1tDSDJdQyg9TylbTkgyXQ==

> <s_epik_cmdline>
J2VwaWtfcHl0aG9uJywgJy1waCcsICc3LjAnLCAnLXRuJywgJzgnLCAnLW1hJywgJzIwMCcsICctbWV0YWxfYmluZGluZycsICctaW1hZScsICc8aW5maWxlLm1hZT4nLCAnLW9tYWUnLCAnPG91dGZpbGUubWFlPic=

> <r_epik_Ionization_Penalty>
0.00801462

> <r_epik_Ionization_Penalty_Charging>
0

> <r_epik_Ionization_Penalty_Neutral>
0.00801462

> <r_epik_State_Penalty>
0.00601782

> <r_epik_Charging_Adjusted_Penalty>
0.00601782

> <i_epik_Tot_Q>
0

> <i_epik_Tot_abs_Q>
0

> <r_epik_Metal_State_Penalty>
0.00593415

> <b_epik_Metal_Only>
0

> <s_lp_Force_Field>
OPLS_2005

> <r_lp_Energy>
4.29965

> <b_lp_Chiralities_Consistent>
1

> <s_lp_Variant>
AV-unprocessed.smi:346-1

> <Gold.Version>
5.8.1

> <Gold.Id.Protein>
6NUR|6NUR_protein|mol2

> <Gold.PLP.Fitness>
50.2423

> <Gold.PLP.PLP>
-39.1748

> <Gold.PLP.part.hbond>
-4.0643

> <Gold.PLP.part.metal>
0.0000

> <Gold.PLP.part.buried>
-5.9919

> <Gold.PLP.part.nonpolar>
-28.9919

> <Gold.PLP.part.repulsive>
0.1814

> <Gold.PLP.ligand.clash>
0.0000

> <Gold.PLP.ligand.torsion>
0.1667

> <Gold.PLP.Chemscore.Hbond>
3.7920

> <Gold.PLP.Chemscore.CHOScore>
0.0000

> <Gold.PLP.Chemscore.Metal>
0.0000

> <Gold.Chemscore.Hbonds>
donor molecule, donor type, donor heavy atom, donor atom, acceptor molecule, acceptor atom, score
      L1  H    10    29       P1  7957  0.94
      L1  H    10    30       P1  7948  0.78
      P1  H  6896  6907       L1     2  0.98
      P1  H  7989  7998       L1    11  1.00

> <Gold.PLP.Chemscore.Internal.Correction>
0.0250

> <Gold.Rescore>
     Score         DG    S(hbond)    S(metal)    S(lipo)     H(rot)  DE(clash)    DE(int)     intcor
     18.18     -20.05       3.23        0.00      91.12       2.68       0.00       1.87       ----

> <Gold.Chemscore.Fitness>
18.1755

> <Gold.Chemscore.DG>
-20.0495

> <Gold.Chemscore.ZeroCoef>
-5.4800

> <Gold.Chemscore.Hbond>
3.2253

> <Gold.Chemscore.Metal>
0.0000

> <Gold.Chemscore.Lipo>
91.1243

> <Gold.Chemscore.Internal_Hbond>
0.0000

> <Gold.Chemscore.DEClash>
0.0009

> <Gold.Chemscore.DEInternal>
1.8731

> <Gold.Chemscore.Rot>
2.6814

> <Gold.Chemscore.Internal.Correction>
   9.000000E+99

> <Gold.Chemscore.Hbonds>
donor molecule, donor type, donor heavy atom, donor atom, acceptor molecule, acceptor atom, score
      L1  H    10    29       P1  7957  0.89
      L1  H    10    30       P1  7948  0.42
      P1  H  6896  6907       L1     2  0.66
      P1  H  7989  7998       L1    11  0.91

> <Gold.Chemscore.Hbond.Weighted>
-10.7723

> <Gold.Chemscore.Metal.Weighted>
-0.0000

> <Gold.Chemscore.Lipo.Weighted>
-10.6615

> <Gold.Chemscore.Internal_Hbond.Weighted>
0.0000

> <Gold.Chemscore.DEClash.Weighted>
0.0009

> <Gold.Chemscore.DEInternal.Weighted>
1.8731

> <Gold.Chemscore.Rot.Weighted>
6.8644

> <Gold.Chemscore.Internal.Correction.Weighted>
   9.000000E+99

> <Gold.Protein.RotatedTorsions>
[ 6907 6896 6895 6894 ] final   41.44 input  -60.11 | X-H torsion
[ 7974 7965 7964 7962 ] final    0.63 input  175.53 | X-H torsion
[ 8008 7997 7996 7995 ] final  -89.05 input   59.86 | X-H torsion
[ 10167 10162 10161 10158 ] final  156.01 input  -65.29 | X-H torsion
[ 10718 10713 10712 10709 ] final   -9.91 input   66.30 | X-H torsion
[ 10763 10752 10751 10750 ] final -136.72 input  -60.55 | X-H torsion
[ 11005 11000 10999 10996 ] final   26.87 input  -57.11 | X-H torsion

> <Gold.Protein.ActiveResidues>
 VAL166  LYS551  ARG553  GLY616  TRP617  ASP618  TYR619  PRO620  LYS621  CYS622 
 ASP623  PHE694  ASN695  SER759  ASP760  ASP761  ALA762  ILE779  LEU786  VAL792 
 PHE793  MET794  SER795  GLU796  ALA797  LYS798  CYS799  TRP800  GLU811  SER814 

> <Gold.Protein.RotatedAtoms>
  152.1952  134.8637  160.0513 H   0  0  0  0  0  0  0  0  0  0  0  0  # atno 6907 bound_to 6896
  151.9510  133.3661  159.4008 H   0  0  0  0  0  0  0  0  0  0  0  0  # atno 6908 bound_to 6896
  150.6943  134.4264  159.5272 H   0  0  0  0  0  0  0  0  0  0  0  0  # atno 6909 bound_to 6896
  146.2435  140.1109  142.8344 H   0  0  0  0  0  0  0  0  0  0  0  0  # atno 7974 bound_to 7965
  154.6820  140.0546  157.0276 H   0  0  0  0  0  0  0  0  0  0  0  0  # atno 8008 bound_to 7997
  155.0938  140.3222  155.4547 H   0  0  0  0  0  0  0  0  0  0  0  0  # atno 8009 bound_to 7997
  156.2697  140.2043  156.6064 H   0  0  0  0  0  0  0  0  0  0  0  0  # atno 8010 bound_to 7997
  139.4821  144.5047  151.8115 H   0  0  0  0  0  0  0  0  0  0  0  0  # atno 10167 bound_to 10162
  156.6811  130.5037  149.5971 H   0  0  0  0  0  0  0  0  0  0  0  0  # atno 10718 bound_to 10713
  154.8677  135.3664  154.5107 H   0  0  0  0  0  0  0  0  0  0  0  0  # atno 10763 bound_to 10752
  153.5743  135.7020  153.5496 H   0  0  0  0  0  0  0  0  0  0  0  0  # atno 10764 bound_to 10752
  153.3514  135.4071  155.1612 H   0  0  0  0  0  0  0  0  0  0  0  0  # atno 10765 bound_to 10752
  140.3323  134.2424  155.7700 H   0  0  0  0  0  0  0  0  0  0  0  0  # atno 11005 bound_to 11000
  145.0488  140.9002  143.5008 LP  0  0  0  0  0  0  0  0  0  0  0  0  # atno 17320 bound_to 7965
  145.1202  139.2698  143.5592 LP  0  0  0  0  0  0  0  0  0  0  0  0  # atno 17321 bound_to 7965
  140.4544  144.1810  150.5900 LP  0  0  0  0  0  0  0  0  0  0  0  0  # atno 17342 bound_to 10162
  140.4551  143.2471  151.9296 LP  0  0  0  0  0  0  0  0  0  0  0  0  # atno 17343 bound_to 10162
  156.1867  130.6533  151.1014 LP  0  0  0  0  0  0  0  0  0  0  0  0  # atno 17370 bound_to 10713
  157.7043  131.0763  150.6718 LP  0  0  0  0  0  0  0  0  0  0  0  0  # atno 17371 bound_to 10713
  141.2060  133.7845  157.0201 LP  0  0  0  0  0  0  0  0  0  0  0  0  # atno 17394 bound_to 11000
  140.0850  134.9626  157.1685 LP  0  0  0  0  0  0  0  0  0  0  0  0  # atno 17395 bound_to 11000

$$$$
