AV-unprocessed.smi:770|AV-procd|sdf|3679|dock10
  -GOLD-   22720 1 93D 1   1.00000     0.00000
 Structure written by MMmdl.
 37 38  0  0  0  0  0  0  0  0  1 V2000
  145.8043  143.9536  161.8165 C   0  0  0  0  0  0  0  0  0  0  0  0
  145.6311  144.2158  160.6366 C   0  0  0  0  0  0  0  0  0  0  0  0
  145.3943  144.5309  159.2167 C   0  0  0  0  0  0  0  0  0  0  0  0
  146.4478  144.0197  158.3473 N   0  0  0  0  0  0  0  0  0  0  0  0
  146.8990  142.7572  158.3460 C   0  0  0  0  0  0  0  0  0  0  0  0
  146.4275  141.8568  159.0410 O   0  0  0  0  0  0  0  0  0  0  0  0
  147.9534  142.6067  157.5309 N   0  0  0  0  0  0  0  0  0  0  0  0
  148.7584  141.3931  157.4073 C   0  0  0  0  0  0  0  0  0  0  0  0
  150.1995  141.6914  156.9449 C   0  0  0  0  0  0  0  0  0  0  0  0
  151.2385  141.3756  157.9817 C   0  0  0  0  0  0  0  0  0  0  0  0
  152.2257  140.4243  157.8964 C   0  0  0  0  0  0  0  0  0  0  0  0
  153.2720  140.4456  159.2888 S   0  0  0  0  0  0  0  0  0  0  0  0
  152.3000  141.7537  159.9554 C   0  0  0  0  0  0  0  0  0  0  0  0
  152.5906  142.3385  161.1841 N   0  0  0  0  0  0  0  0  0  0  0  0
  152.1732  143.6649  161.6279 C   0  0  0  0  0  0  0  0  0  0  0  0
  152.4626  143.7667  163.1232 C   0  0  0  0  0  0  0  0  0  0  0  0
  153.6700  142.8628  163.2773 C   0  0  0  0  0  0  0  0  0  0  0  0
  153.3779  141.7562  162.2664 C   0  0  0  0  0  0  0  0  0  0  0  0
  151.2827  142.1131  159.1685 N   0  0  0  0  0  0  0  0  0  0  0  0
  145.9479  143.7243  162.8484 H   0  0  0  0  0  0  0  0  0  0  0  0
  144.4188  144.1361  158.9285 H   0  0  0  0  0  0  0  0  0  0  0  0
  145.3459  145.6151  159.1159 H   0  0  0  0  0  0  0  0  0  0  0  0
  146.9004  144.6877  157.7406 H   0  0  0  0  0  0  0  0  0  0  0  0
  148.2596  143.4091  157.0002 H   0  0  0  0  0  0  0  0  0  0  0  0
  148.7745  140.8467  158.3519 H   0  0  0  0  0  0  0  0  0  0  0  0
  148.2724  140.7358  156.6860 H   0  0  0  0  0  0  0  0  0  0  0  0
  150.4038  141.1280  156.0339 H   0  0  0  0  0  0  0  0  0  0  0  0
  150.2710  142.7421  156.6613 H   0  0  0  0  0  0  0  0  0  0  0  0
  152.4154  139.7326  157.0894 H   0  0  0  0  0  0  0  0  0  0  0  0
  152.7480  144.4095  161.0762 H   0  0  0  0  0  0  0  0  0  0  0  0
  151.1174  143.8363  161.4164 H   0  0  0  0  0  0  0  0  0  0  0  0
  152.6457  144.7896  163.4530 H   0  0  0  0  0  0  0  0  0  0  0  0
  151.6236  143.3677  163.6948 H   0  0  0  0  0  0  0  0  0  0  0  0
  154.5752  143.4008  162.9917 H   0  0  0  0  0  0  0  0  0  0  0  0
  153.8009  142.4891  164.2932 H   0  0  0  0  0  0  0  0  0  0  0  0
  152.7929  140.9610  162.7297 H   0  0  0  0  0  0  0  0  0  0  0  0
  154.3011  141.3150  161.8891 H   0  0  0  0  0  0  0  0  0  0  0  0
  1  2  3  0  0  0  0
  1 20  1  0  0  0  0
  2  3  1  0  0  0  0
  3  4  1  0  0  0  0
  3 21  1  0  0  0  0
  3 22  1  0  0  0  0
  4  5  1  0  0  0  0
  4 23  1  0  0  0  0
  5  6  2  0  0  0  0
  5  7  1  0  0  0  0
  7  8  1  0  0  0  0
  7 24  1  0  0  0  0
  8  9  1  0  0  0  0
  8 25  1  0  0  0  0
  8 26  1  0  0  0  0
  9 10  1  0  0  0  0
  9 27  1  0  0  0  0
  9 28  1  0  0  0  0
 10 19  1  0  0  0  0
 10 11  2  0  0  0  0
 11 12  1  0  0  0  0
 11 29  1  0  0  0  0
 12 13  1  0  0  0  0
 13 14  1  0  0  0  0
 13 19  2  0  0  0  0
 14 18  1  0  0  0  0
 14 15  1  0  0  0  0
 15 16  1  0  0  0  0
 15 30  1  0  0  0  0
 15 31  1  0  0  0  0
 16 17  1  0  0  0  0
 16 32  1  0  0  0  0
 16 33  1  0  0  0  0
 17 18  1  0  0  0  0
 17 34  1  0  0  0  0
 17 35  1  0  0  0  0
 18 36  1  0  0  0  0
 18 37  1  0  0  0  0
M  END
> <s_m_source_file>
AV-unprocessed.smi

> <i_m_source_file_index>
770

> <i_lp_mmshare_version>
43012

> <i_f3d_flags>
0

> <s_epik_input>
W0NIXSNDW0NIMl1bTkhdQyg9TylbTkhdW0NIMl1bQ0gyXWMxW2NIXXNjKG4xKU4yW0NIMl1bQ0gyXVtDSDJdW0NIMl0y

> <s_epik_cmdline>
J2VwaWtfcHl0aG9uJywgJy1waCcsICc3LjAnLCAnLXRuJywgJzgnLCAnLW1hJywgJzIwMCcsICctbWV0YWxfYmluZGluZycsICctaW1hZScsICc8aW5maWxlLm1hZT4nLCAnLW9tYWUnLCAnPG91dGZpbGUubWFlPic=

> <r_epik_Ionization_Penalty>
0.174338

> <r_epik_Ionization_Penalty_Charging>
0

> <r_epik_Ionization_Penalty_Neutral>
0.174338

> <r_epik_State_Penalty>
0.163676

> <r_epik_Charging_Adjusted_Penalty>
0.163676

> <i_epik_Tot_Q>
0

> <i_epik_Tot_abs_Q>
0

> <r_epik_Metal_State_Penalty>
0.126089

> <b_epik_Metal_Only>
0

> <s_lp_Force_Field>
OPLS_2005

> <r_lp_Energy>
12.0865

> <b_lp_Chiralities_Consistent>
1

> <s_lp_Variant>
AV-unprocessed.smi:770-1

> <Gold.Version>
5.8.1

> <Gold.Id.Protein>
6NUR|6NUR_protein|mol2

> <Gold.PLP.Fitness>
44.9153

> <Gold.PLP.PLP>
-38.7930

> <Gold.PLP.part.hbond>
-3.0594

> <Gold.PLP.part.metal>
0.0000

> <Gold.PLP.part.buried>
-2.0856

> <Gold.PLP.part.nonpolar>
-34.1703

> <Gold.PLP.part.repulsive>
0.0848

> <Gold.PLP.ligand.clash>
0.0000

> <Gold.PLP.ligand.torsion>
0.8156

> <Gold.PLP.Chemscore.Hbond>
2.5800

> <Gold.PLP.Chemscore.CHOScore>
0.0000

> <Gold.PLP.Chemscore.Metal>
0.0000

> <Gold.Chemscore.Hbonds>
donor molecule, donor type, donor heavy atom, donor atom, acceptor molecule, acceptor atom, score
      L1  H     4    23       P1  8029  1.00
      L1  H     7    24       P1  8028  0.70
      P1  H  6934  6946       L1     6  0.85

> <Gold.PLP.Chemscore.Internal.Correction>
0.0135

> <Gold.Rescore>
     Score         DG    S(hbond)    S(metal)    S(lipo)     H(rot)  DE(clash)    DE(int)     intcor
     15.19     -18.84       1.98        0.00      95.54       1.73       1.74       1.91       ----

> <Gold.Chemscore.Fitness>
15.1926

> <Gold.Chemscore.DG>
-18.8425

> <Gold.Chemscore.ZeroCoef>
-5.4800

> <Gold.Chemscore.Hbond>
1.9775

> <Gold.Chemscore.Metal>
0.0000

> <Gold.Chemscore.Lipo>
95.5392

> <Gold.Chemscore.Internal_Hbond>
0.0000

> <Gold.Chemscore.DEClash>
1.7424

> <Gold.Chemscore.DEInternal>
1.9076

> <Gold.Chemscore.Rot>
1.7267

> <Gold.Chemscore.Internal.Correction>
   9.000000E+99

> <Gold.Chemscore.Hbonds>
donor molecule, donor type, donor heavy atom, donor atom, acceptor molecule, acceptor atom, score
      L1  H     4    23       P1  8029  0.25
      L1  H     7    24       P1  8028  0.07
      P1  H  6934  6946       L1     6  0.80

> <Gold.Chemscore.Hbond.Weighted>
-6.6049

> <Gold.Chemscore.Metal.Weighted>
-0.0000

> <Gold.Chemscore.Lipo.Weighted>
-11.1781

> <Gold.Chemscore.Internal_Hbond.Weighted>
0.0000

> <Gold.Chemscore.DEClash.Weighted>
1.7424

> <Gold.Chemscore.DEInternal.Weighted>
1.9076

> <Gold.Chemscore.Rot.Weighted>
4.4204

> <Gold.Chemscore.Internal.Correction.Weighted>
   9.000000E+99

> <Gold.Protein.RotatedTorsions>
[ 6907 6896 6895 6894 ] final  -54.94 input  -60.11 | X-H torsion
[ 7974 7965 7964 7962 ] final -125.94 input  175.53 | X-H torsion
[ 8008 7997 7996 7995 ] final  149.02 input   59.86 | X-H torsion
[ 10167 10162 10161 10158 ] final   77.93 input  -65.29 | X-H torsion
[ 10718 10713 10712 10709 ] final  136.95 input   66.30 | X-H torsion
[ 10763 10752 10751 10750 ] final -138.84 input  -60.55 | X-H torsion
[ 11005 11000 10999 10996 ] final   31.46 input  -57.11 | X-H torsion

> <Gold.Protein.ActiveResidues>
 VAL166  LYS551  ARG553  GLY616  TRP617  ASP618  TYR619  PRO620  LYS621  CYS622 
 ASP623  PHE694  ASN695  SER759  ASP760  ASP761  ALA762  ILE779  LEU786  VAL792 
 PHE793  MET794  SER795  GLU796  ALA797  LYS798  CYS799  TRP800  GLU811  SER814 

> <Gold.Protein.RotatedAtoms>
  150.8294  134.7540  159.6840 H   0  0  0  0  0  0  0  0  0  0  0  0  # atno 6907 bound_to 6896
  152.4401  134.5605  159.9902 H   0  0  0  0  0  0  0  0  0  0  0  0  # atno 6908 bound_to 6896
  151.5770  133.3345  159.3036 H   0  0  0  0  0  0  0  0  0  0  0  0  # atno 6909 bound_to 6896
  144.9924  140.7744  143.4546 H   0  0  0  0  0  0  0  0  0  0  0  0  # atno 7974 bound_to 7965
  156.2770  140.2113  156.5791 H   0  0  0  0  0  0  0  0  0  0  0  0  # atno 8008 bound_to 7997
  154.7073  140.0515  157.0539 H   0  0  0  0  0  0  0  0  0  0  0  0  # atno 8009 bound_to 7997
  155.0653  140.3171  155.4650 H   0  0  0  0  0  0  0  0  0  0  0  0  # atno 8010 bound_to 7997
  139.9764  144.5858  150.7940 H   0  0  0  0  0  0  0  0  0  0  0  0  # atno 10167 bound_to 10162
  157.4412  131.1058  151.0141 H   0  0  0  0  0  0  0  0  0  0  0  0  # atno 10718 bound_to 10713
  154.8626  135.3600  154.5449 H   0  0  0  0  0  0  0  0  0  0  0  0  # atno 10763 bound_to 10752
  153.6070  135.7011  153.5367 H   0  0  0  0  0  0  0  0  0  0  0  0  # atno 10764 bound_to 10752
  153.3242  135.4142  155.1403 H   0  0  0  0  0  0  0  0  0  0  0  0  # atno 10765 bound_to 10752
  140.2837  134.2943  155.7794 H   0  0  0  0  0  0  0  0  0  0  0  0  # atno 11005 bound_to 11000
  145.2267  139.2134  143.5064 LP  0  0  0  0  0  0  0  0  0  0  0  0  # atno 17320 bound_to 7965
  146.3434  140.2136  142.8590 LP  0  0  0  0  0  0  0  0  0  0  0  0  # atno 17321 bound_to 7965
  140.7504  143.2955  151.3215 LP  0  0  0  0  0  0  0  0  0  0  0  0  # atno 17342 bound_to 10162
  139.6443  144.0481  152.2578 LP  0  0  0  0  0  0  0  0  0  0  0  0  # atno 17343 bound_to 10162
  157.1003  130.5979  149.5459 LP  0  0  0  0  0  0  0  0  0  0  0  0  # atno 17370 bound_to 10713
  155.9949  130.5015  150.7439 LP  0  0  0  0  0  0  0  0  0  0  0  0  # atno 17371 bound_to 10713
  141.2158  133.7541  156.9519 LP  0  0  0  0  0  0  0  0  0  0  0  0  # atno 17394 bound_to 11000
  140.1259  134.9387  157.2270 LP  0  0  0  0  0  0  0  0  0  0  0  0  # atno 17395 bound_to 11000

$$$$
