AV-unprocessed.smi:1191|AV-procd|sdf|4985|dock2
  -GOLD-   22720 3583D 1   1.00000     0.00000
 Structure written by MMmdl.
 47 48  0  0  0  0  0  0  0  0  2 V2000
  151.2711  144.6626  158.0557 C   0  0  0  0  0  0  0  0  0  0  0  0
  151.7929  143.3516  158.5665 C   0  0  0  0  0  0  0  0  0  0  0  0
  152.8266  143.1237  159.5174 C   0  0  0  0  0  0  0  0  0  0  0  0
  152.9010  141.7628  159.6167 C   0  0  0  0  0  0  0  0  0  0  0  0
  153.7929  140.9045  160.4526 C   0  0  0  0  0  0  0  0  0  0  0  0
  151.9481  141.2454  158.7568 N   0  0  0  0  0  0  0  0  0  0  0  0
  151.6116  139.8553  158.4879 C   0  0  0  0  0  0  0  0  0  0  0  0
  151.7100  139.5323  156.9956 C   0  0  0  0  0  0  0  0  0  0  0  0
  152.7967  139.5968  156.4214 O   0  0  0  0  0  0  0  0  0  0  0  0
  150.5693  139.1890  156.3771 N   0  0  0  0  0  0  0  0  0  0  0  0
  150.4526  138.8430  154.9664 C   0  0  0  0  0  0  0  0  0  0  0  0
  148.9998  138.4957  154.5872 C   0  0  0  0  0  0  0  0  0  0  0  0
  148.7257  137.0400  154.6801 N   0  3  2  0  0  0  0  0  0  0  0  0
  147.2722  136.7447  154.7656 C   0  0  0  0  0  0  0  0  0  0  0  0
  147.0091  135.2320  154.6946 C   0  0  0  0  0  0  0  0  0  0  0  0
  147.7899  134.4834  155.7843 C   0  0  0  0  0  0  0  0  0  0  0  0
  149.2881  134.8374  155.7422 C   0  0  1  0  0  0  0  0  0  0  0  0
  150.0235  134.1813  154.5603 C   0  0  0  0  0  0  0  0  0  0  0  0
  149.4829  136.3676  155.7712 C   0  0  0  0  0  0  0  0  0  0  0  0
  151.2686  142.2231  158.1177 N   0  0  0  0  0  0  0  0  0  0  0  0
  151.8667  145.4960  158.4289 H   0  0  0  0  0  0  0  0  0  0  0  0
  150.2401  144.8243  158.3707 H   0  0  0  0  0  0  0  0  0  0  0  0
  151.2975  144.6997  156.9663 H   0  0  0  0  0  0  0  0  0  0  0  0
  153.4252  143.8508  160.0460 H   0  0  0  0  0  0  0  0  0  0  0  0
  154.4550  141.5141  161.0676 H   0  0  0  0  0  0  0  0  0  0  0  0
  154.4138  140.2634  159.8268 H   0  0  0  0  0  0  0  0  0  0  0  0
  153.2098  140.2679  161.1185 H   0  0  0  0  0  0  0  0  0  0  0  0
  152.2820  139.2025  159.0493 H   0  0  0  0  0  0  0  0  0  0  0  0
  150.6019  139.6582  158.8501 H   0  0  0  0  0  0  0  0  0  0  0  0
  149.7233  139.1622  156.9290 H   0  0  0  0  0  0  0  0  0  0  0  0
  150.7947  139.6963  154.3802 H   0  0  0  0  0  0  0  0  0  0  0  0
  151.1348  138.0219  154.7461 H   0  0  0  0  0  0  0  0  0  0  0  0
  148.2867  139.0408  155.2074 H   0  0  0  0  0  0  0  0  0  0  0  0
  148.8326  138.8299  153.5620 H   0  0  0  0  0  0  0  0  0  0  0  0
  146.8700  137.1560  155.6931 H   0  0  0  0  0  0  0  0  0  0  0  0
  146.7449  137.2349  153.9461 H   0  0  0  0  0  0  0  0  0  0  0  0
  145.9421  135.0356  154.8034 H   0  0  0  0  0  0  0  0  0  0  0  0
  147.2893  134.8556  153.7103 H   0  0  0  0  0  0  0  0  0  0  0  0
  147.3849  134.7537  156.7607 H   0  0  0  0  0  0  0  0  0  0  0  0
  147.6464  133.4072  155.6825 H   0  0  0  0  0  0  0  0  0  0  0  0
  149.7414  134.4323  156.6479 H   0  0  0  0  0  0  0  0  0  0  0  0
  149.6608  134.5473  153.5998 H   0  0  0  0  0  0  0  0  0  0  0  0
  149.8966  133.0984  154.5716 H   0  0  0  0  0  0  0  0  0  0  0  0
  151.0937  134.3845  154.6057 H   0  0  0  0  0  0  0  0  0  0  0  0
  150.5460  136.5937  155.7010 H   0  0  0  0  0  0  0  0  0  0  0  0
  149.1481  136.7635  156.7315 H   0  0  0  0  0  0  0  0  0  0  0  0
  149.0418  136.6357  153.8101 H   0  0  0  0  0  0  0  0  0  0  0  0
  1  2  1  0  0  0  0
  1 21  1  0  0  0  0
  1 22  1  0  0  0  0
  1 23  1  0  0  0  0
  2 20  2  0  0  0  0
  2  3  1  0  0  0  0
  3  4  2  0  0  0  0
  3 24  1  0  0  0  0
  4  5  1  0  0  0  0
  4  6  1  0  0  0  0
  5 25  1  0  0  0  0
  5 26  1  0  0  0  0
  5 27  1  0  0  0  0
  6  7  1  0  0  0  0
  6 20  1  0  0  0  0
  7  8  1  0  0  0  0
  7 28  1  0  0  0  0
  7 29  1  0  0  0  0
  8  9  2  0  0  0  0
  8 10  1  0  0  0  0
 10 11  1  0  0  0  0
 10 30  1  0  0  0  0
 11 12  1  0  0  0  0
 11 31  1  0  0  0  0
 11 32  1  0  0  0  0
 12 13  1  0  0  0  0
 12 33  1  0  0  0  0
 12 34  1  0  0  0  0
 13 19  1  0  0  0  0
 13 14  1  0  0  0  0
 13 47  1  0  0  0  0
 14 15  1  0  0  0  0
 14 35  1  0  0  0  0
 14 36  1  0  0  0  0
 15 16  1  0  0  0  0
 15 37  1  0  0  0  0
 15 38  1  0  0  0  0
 16 17  1  0  0  0  0
 16 39  1  0  0  0  0
 16 40  1  0  0  0  0
 17 18  1  0  0  0  0
 17 19  1  0  0  0  0
 17 41  1  0  0  0  0
 18 42  1  0  0  0  0
 18 43  1  0  0  0  0
 18 44  1  0  0  0  0
 19 45  1  0  0  0  0
 19 46  1  0  0  0  0
M  CHG  1  13   1
M  END
> <s_m_source_file>
AV-unprocessed.smi

> <i_m_source_file_index>
1191

> <i_lp_mmshare_version>
43012

> <i_f3d_flags>
0

> <s_epik_input>
W0NIM11jMVtjSF1jKFtDSDNdKW4objEpW0NIMl1DKD1PKVtOSF1bQ0gyXVtDSDJdTjJbQ0gyXVtDSDJdW0NIMl1bQ0BASF0oW0NIM10pW0NIMl0y

> <s_epik_cmdline>
J2VwaWtfcHl0aG9uJywgJy1waCcsICc3LjAnLCAnLXRuJywgJzgnLCAnLW1hJywgJzIwMCcsICctbWV0YWxfYmluZGluZycsICctaW1hZScsICc8aW5maWxlLm1hZT4nLCAnLW9tYWUnLCAnPG91dGZpbGUubWFlPic=

> <r_lp_tautomer_probability>
1

> <r_epik_Ionization_Penalty>
0.00249932

> <r_epik_Ionization_Penalty_Charging>
0.00230623

> <r_epik_Ionization_Penalty_Neutral>
0.000193092

> <r_epik_State_Penalty>
-0

> <r_epik_Charging_Adjusted_Penalty>
0.00230623

> <i_epik_Tot_Q>
1

> <i_epik_Tot_abs_Q>
1

> <r_epik_Metal_State_Penalty>
-0

> <b_epik_Metal_Only>
0

> <s_lp_Force_Field>
OPLS_2005

> <r_lp_Energy>
16.5378

> <b_lp_Chiralities_Consistent>
1

> <s_lp_Variant>
AV-unprocessed.smi:1191-2

> <Gold.Version>
5.8.1

> <Gold.Id.Protein>
6NUR|6NUR_protein|mol2

> <Gold.PLP.Fitness>
43.4986

> <Gold.PLP.PLP>
-35.4355

> <Gold.PLP.part.hbond>
-1.7691

> <Gold.PLP.part.metal>
0.0000

> <Gold.PLP.part.buried>
-3.4194

> <Gold.PLP.part.nonpolar>
-30.3422

> <Gold.PLP.part.repulsive>
0.0706

> <Gold.PLP.ligand.clash>
0.0000

> <Gold.PLP.ligand.torsion>
0.4935

> <Gold.PLP.Chemscore.Hbond>
3.0000

> <Gold.PLP.Chemscore.CHOScore>
0.0000

> <Gold.PLP.Chemscore.Metal>
0.0000

> <Gold.Chemscore.Hbonds>
donor molecule, donor type, donor heavy atom, donor atom, acceptor molecule, acceptor atom, score
      L1  H    13    47       P1  7948  2.00
      P1  H  7997  8010       L1     9  1.00

> <Gold.PLP.Chemscore.Internal.Correction>
0.0500

> <Gold.Rescore>
     Score         DG    S(hbond)    S(metal)    S(lipo)     H(rot)  DE(clash)    DE(int)     intcor
     16.88     -18.44       1.98        0.00      90.80       1.67       0.02       1.54       ----

> <Gold.Chemscore.Fitness>
16.8776

> <Gold.Chemscore.DG>
-18.4393

> <Gold.Chemscore.ZeroCoef>
-5.4800

> <Gold.Chemscore.Hbond>
1.9758

> <Gold.Chemscore.Metal>
0.0000

> <Gold.Chemscore.Lipo>
90.8042

> <Gold.Chemscore.Internal_Hbond>
0.0000

> <Gold.Chemscore.DEClash>
0.0183

> <Gold.Chemscore.DEInternal>
1.5434

> <Gold.Chemscore.Rot>
1.6657

> <Gold.Chemscore.Internal.Correction>
   9.000000E+99

> <Gold.Chemscore.Hbonds>
donor molecule, donor type, donor heavy atom, donor atom, acceptor molecule, acceptor atom, score
      L1  H    13    47       P1  7948  0.96
      P1  H  7997  8010       L1     9  0.98

> <Gold.Chemscore.Hbond.Weighted>
-6.5993

> <Gold.Chemscore.Metal.Weighted>
-0.0000

> <Gold.Chemscore.Lipo.Weighted>
-10.6241

> <Gold.Chemscore.Internal_Hbond.Weighted>
0.0000

> <Gold.Chemscore.DEClash.Weighted>
0.0183

> <Gold.Chemscore.DEInternal.Weighted>
1.5434

> <Gold.Chemscore.Rot.Weighted>
4.2641

> <Gold.Chemscore.Internal.Correction.Weighted>
   9.000000E+99

> <Gold.Protein.RotatedTorsions>
[ 6907 6896 6895 6894 ] final -145.43 input  -60.11 | X-H torsion
[ 7974 7965 7964 7962 ] final -141.62 input  175.53 | X-H torsion
[ 8008 7997 7996 7995 ] final   89.48 input   59.86 | X-H torsion
[ 10167 10162 10161 10158 ] final  -42.55 input  -65.29 | X-H torsion
[ 10718 10713 10712 10709 ] final   91.73 input   66.30 | X-H torsion
[ 10763 10752 10751 10750 ] final -109.21 input  -60.55 | X-H torsion
[ 11005 11000 10999 10996 ] final  -42.34 input  -57.11 | X-H torsion

> <Gold.Protein.ActiveResidues>
 VAL166  LYS551  ARG553  GLY616  TRP617  ASP618  TYR619  PRO620  LYS621  CYS622 
 ASP623  PHE694  ASN695  SER759  ASP760  ASP761  ALA762  ILE779  LEU786  VAL792 
 PHE793  MET794  SER795  GLU796  ALA797  LYS798  CYS799  TRP800  GLU811  SER814 

> <Gold.Protein.RotatedAtoms>
  151.1277  133.5059  159.2599 H   0  0  0  0  0  0  0  0  0  0  0  0  # atno 6907 bound_to 6896
  151.1792  135.0353  159.8795 H   0  0  0  0  0  0  0  0  0  0  0  0  # atno 6908 bound_to 6896
  152.5458  134.1131  159.8420 H   0  0  0  0  0  0  0  0  0  0  0  0  # atno 6909 bound_to 6896
  144.8506  140.6058  143.5393 H   0  0  0  0  0  0  0  0  0  0  0  0  # atno 7974 bound_to 7965
  156.0005  140.3360  155.6840 H   0  0  0  0  0  0  0  0  0  0  0  0  # atno 8008 bound_to 7997
  155.6297  140.0684  157.2670 H   0  0  0  0  0  0  0  0  0  0  0  0  # atno 8009 bound_to 7997
  154.4247  140.1762  156.1447 H   0  0  0  0  0  0  0  0  0  0  0  0  # atno 8010 bound_to 7997
  140.6965  143.3031  151.3226 H   0  0  0  0  0  0  0  0  0  0  0  0  # atno 10167 bound_to 10162
  157.6960  131.0418  150.3774 H   0  0  0  0  0  0  0  0  0  0  0  0  # atno 10718 bound_to 10713
  154.8180  135.4609  154.0697 H   0  0  0  0  0  0  0  0  0  0  0  0  # atno 10763 bound_to 10752
  153.2074  135.6877  153.8162 H   0  0  0  0  0  0  0  0  0  0  0  0  # atno 10764 bound_to 10752
  153.7625  135.3282  155.3316 H   0  0  0  0  0  0  0  0  0  0  0  0  # atno 10765 bound_to 10752
  141.0308  133.6821  156.2581 H   0  0  0  0  0  0  0  0  0  0  0  0  # atno 11005 bound_to 11000
  145.4508  139.1524  143.3919 LP  0  0  0  0  0  0  0  0  0  0  0  0  # atno 17320 bound_to 7965
  146.2781  140.4634  142.8787 LP  0  0  0  0  0  0  0  0  0  0  0  0  # atno 17321 bound_to 7965
  139.6427  144.0509  152.2567 LP  0  0  0  0  0  0  0  0  0  0  0  0  # atno 17342 bound_to 10162
  140.0020  144.6286  150.7722 LP  0  0  0  0  0  0  0  0  0  0  0  0  # atno 17343 bound_to 10162
  156.4191  130.3949  149.6837 LP  0  0  0  0  0  0  0  0  0  0  0  0  # atno 17370 bound_to 10713
  156.4094  130.7714  151.2727 LP  0  0  0  0  0  0  0  0  0  0  0  0  # atno 17371 bound_to 10713
  140.6409  134.5167  157.5569 LP  0  0  0  0  0  0  0  0  0  0  0  0  # atno 17394 bound_to 11000
  139.9207  134.8155  156.1221 LP  0  0  0  0  0  0  0  0  0  0  0  0  # atno 17395 bound_to 11000

$$$$
