AV-unprocessed.smi:396|AV-procd|sdf|2487|dock9
  -GOLD-   2262022433D 1   1.00000     0.00000
 Structure written by MMmdl.
 40 42  0  0  0  0  0  0  0  0  1 V2000
  155.9174  140.6041  161.7075 N   0  0  0  0  0  0  0  0  0  0  0  0
  155.0344  140.7944  160.9837 C   0  0  0  0  0  0  0  0  0  0  0  0
  153.9306  141.0401  160.1161 C   0  0  0  0  0  0  0  0  0  0  0  0
  153.3132  142.2386  160.0735 C   0  0  0  0  0  0  0  0  0  0  0  0
  152.2532  142.4964  159.2319 N   0  0  0  0  0  0  0  0  0  0  0  0
  151.5263  143.7327  159.2986 C   0  0  0  0  0  0  0  0  0  0  0  0
  152.1542  145.0167  158.7916 C   0  0  0  0  0  0  0  0  0  0  0  0
  151.9777  144.7980  160.2741 C   0  0  0  0  0  0  0  0  0  0  0  0
  151.7144  141.4651  158.4320 C   0  0  0  0  0  0  0  0  0  0  0  0
  150.7151  141.6547  157.7338 O   0  0  0  0  0  0  0  0  0  0  0  0
  152.3579  140.2038  158.4555 N   0  0  0  0  0  0  0  0  0  0  0  0
  151.8486  139.1340  157.5693 C   0  0  0  0  0  0  0  0  0  0  0  0
  151.6045  139.6013  156.1264 C   0  0  0  0  0  0  0  0  0  0  0  0
  152.5430  139.7899  155.3506 O   0  0  0  0  0  0  0  0  0  0  0  0
  150.3210  139.7773  155.7785 N   0  0  0  0  0  0  0  0  0  0  0  0
  149.8630  140.2121  154.4617 C   0  0  0  0  0  0  0  0  0  0  0  0
  149.3103  141.6475  154.5262 C   0  0  0  0  0  0  0  0  0  0  0  0
  147.7949  141.5224  154.3664 C   0  0  0  0  0  0  0  0  0  0  0  0
  147.6157  140.2977  153.4751 C   0  0  0  0  0  0  0  0  0  0  0  0
  148.7087  139.3325  153.9371 C   0  0  0  0  0  0  0  0  0  0  0  0
  153.4878  139.9346  159.2696 C   0  0  0  0  0  0  0  0  0  0  0  0
  154.0411  138.8338  159.2448 O   0  0  0  0  0  0  0  0  0  0  0  0
  153.6667  143.0317  160.7165 H   0  0  0  0  0  0  0  0  0  0  0  0
  150.4501  143.6457  159.1595 H   0  0  0  0  0  0  0  0  0  0  0  0
  153.1695  144.9750  158.4014 H   0  0  0  0  0  0  0  0  0  0  0  0
  151.4986  145.7366  158.3064 H   0  0  0  0  0  0  0  0  0  0  0  0
  151.2053  145.3741  160.7792 H   0  0  0  0  0  0  0  0  0  0  0  0
  152.8763  144.6111  160.8591 H   0  0  0  0  0  0  0  0  0  0  0  0
  152.5323  138.2841  157.5435 H   0  0  0  0  0  0  0  0  0  0  0  0
  150.9215  138.7130  157.9620 H   0  0  0  0  0  0  0  0  0  0  0  0
  149.6107  139.5992  156.4737 H   0  0  0  0  0  0  0  0  0  0  0  0
  150.7020  140.1899  153.7634 H   0  0  0  0  0  0  0  0  0  0  0  0
  149.5845  142.1785  155.4390 H   0  0  0  0  0  0  0  0  0  0  0  0
  149.7107  142.2232  153.6905 H   0  0  0  0  0  0  0  0  0  0  0  0
  147.3354  141.3397  155.3389 H   0  0  0  0  0  0  0  0  0  0  0  0
  147.3413  142.4199  153.9450 H   0  0  0  0  0  0  0  0  0  0  0  0
  146.6168  139.8664  153.5471 H   0  0  0  0  0  0  0  0  0  0  0  0
  147.7855  140.5746  152.4338 H   0  0  0  0  0  0  0  0  0  0  0  0
  149.0310  138.6679  153.1350 H   0  0  0  0  0  0  0  0  0  0  0  0
  148.3105  138.7029  154.7348 H   0  0  0  0  0  0  0  0  0  0  0  0
  1  2  3  0  0  0  0
  2  3  1  0  0  0  0
  3 21  1  0  0  0  0
  3  4  2  0  0  0  0
  4  5  1  0  0  0  0
  4 23  1  0  0  0  0
  5  6  1  0  0  0  0
  5  9  1  0  0  0  0
  6  8  1  0  0  0  0
  6  7  1  0  0  0  0
  6 24  1  0  0  0  0
  7  8  1  0  0  0  0
  7 25  1  0  0  0  0
  7 26  1  0  0  0  0
  8 27  1  0  0  0  0
  8 28  1  0  0  0  0
  9 10  2  0  0  0  0
  9 11  1  0  0  0  0
 11 12  1  0  0  0  0
 11 21  1  0  0  0  0
 12 13  1  0  0  0  0
 12 29  1  0  0  0  0
 12 30  1  0  0  0  0
 13 14  2  0  0  0  0
 13 15  1  0  0  0  0
 15 16  1  0  0  0  0
 15 31  1  0  0  0  0
 16 20  1  0  0  0  0
 16 17  1  0  0  0  0
 16 32  1  0  0  0  0
 17 18  1  0  0  0  0
 17 33  1  0  0  0  0
 17 34  1  0  0  0  0
 18 19  1  0  0  0  0
 18 35  1  0  0  0  0
 18 36  1  0  0  0  0
 19 20  1  0  0  0  0
 19 37  1  0  0  0  0
 19 38  1  0  0  0  0
 20 39  1  0  0  0  0
 20 40  1  0  0  0  0
 21 22  2  0  0  0  0
M  END
> <s_m_source_file>
AV-unprocessed.smi

> <i_m_source_file_index>
396

> <i_lp_mmshare_version>
43012

> <i_f3d_flags>
0

> <s_epik_input>
TiNDYzFbY0hdbihbQ0hdMltDSDJdW0NIMl0yKWMoPU8pbihjMT1PKVtDSDJdQyg9TylbTkhdW0NIXTNbQ0gyXVtDSDJdW0NIMl1bQ0gyXTM=

> <s_epik_cmdline>
J2VwaWtfcHl0aG9uJywgJy1waCcsICc3LjAnLCAnLXRuJywgJzgnLCAnLW1hJywgJzIwMCcsICctbWV0YWxfYmluZGluZycsICctaW1hZScsICc8aW5maWxlLm1hZT4nLCAnLW9tYWUnLCAnPG91dGZpbGUubWFlPic=

> <r_lp_tautomer_probability>
1

> <r_epik_Ionization_Penalty>
1.93885e-08

> <r_epik_Ionization_Penalty_Charging>
8.67893e-11

> <r_epik_Ionization_Penalty_Neutral>
1.93017e-08

> <r_epik_State_Penalty>
-0

> <r_epik_Charging_Adjusted_Penalty>
8.67893e-11

> <i_epik_Tot_Q>
0

> <i_epik_Tot_abs_Q>
0

> <r_epik_Metal_State_Penalty>
-0

> <b_epik_Metal_Only>
0

> <s_lp_Force_Field>
OPLS_2005

> <r_lp_Energy>
43.3866

> <b_lp_Chiralities_Consistent>
1

> <s_lp_Variant>
AV-unprocessed.smi:396-1

> <Gold.Version>
5.8.1

> <Gold.Id.Protein>
6NUR|6NUR_protein|mol2

> <Gold.PLP.Fitness>
50.7438

> <Gold.PLP.PLP>
-47.8511

> <Gold.PLP.part.hbond>
-2.9097

> <Gold.PLP.part.metal>
0.0000

> <Gold.PLP.part.buried>
0.5322

> <Gold.PLP.part.nonpolar>
-43.9728

> <Gold.PLP.part.repulsive>
0.1058

> <Gold.PLP.ligand.clash>
0.0000

> <Gold.PLP.ligand.torsion>
0.5487

> <Gold.PLP.Chemscore.Hbond>
1.2636

> <Gold.PLP.Chemscore.CHOScore>
0.0000

> <Gold.PLP.Chemscore.Metal>
0.0000

> <Gold.Chemscore.Hbonds>
donor molecule, donor type, donor heavy atom, donor atom, acceptor molecule, acceptor atom, score
      P1  H  7989  7998       L1    14  0.20
      P1  H  7997  8009       L1    14  1.00

> <Gold.PLP.Chemscore.Internal.Correction>
0.1992

> <Gold.Rescore>
     Score         DG    S(hbond)    S(metal)    S(lipo)     H(rot)  DE(clash)    DE(int)     intcor
     12.27     -15.82       0.99        0.00      98.77       1.76       1.66       1.89       ----

> <Gold.Chemscore.Fitness>
12.2686

> <Gold.Chemscore.DG>
-15.8189

> <Gold.Chemscore.ZeroCoef>
-5.4800

> <Gold.Chemscore.Hbond>
0.9865

> <Gold.Chemscore.Metal>
0.0000

> <Gold.Chemscore.Lipo>
98.7748

> <Gold.Chemscore.Internal_Hbond>
0.0000

> <Gold.Chemscore.DEClash>
1.6612

> <Gold.Chemscore.DEInternal>
1.8890

> <Gold.Chemscore.Rot>
1.7627

> <Gold.Chemscore.Internal.Correction>
   9.000000E+99

> <Gold.Chemscore.Hbonds>
donor molecule, donor type, donor heavy atom, donor atom, acceptor molecule, acceptor atom, score
      P1  H  7989  7998       L1    14  0.12
      P1  H  7997  8009       L1    14  0.91

> <Gold.Chemscore.Hbond.Weighted>
-3.2948

> <Gold.Chemscore.Metal.Weighted>
-0.0000

> <Gold.Chemscore.Lipo.Weighted>
-11.5567

> <Gold.Chemscore.Internal_Hbond.Weighted>
0.0000

> <Gold.Chemscore.DEClash.Weighted>
1.6612

> <Gold.Chemscore.DEInternal.Weighted>
1.8890

> <Gold.Chemscore.Rot.Weighted>
4.5126

> <Gold.Chemscore.Internal.Correction.Weighted>
   9.000000E+99

> <Gold.Protein.RotatedTorsions>
[ 6907 6896 6895 6894 ] final   94.66 input  -60.11 | X-H torsion
[ 7974 7965 7964 7962 ] final -118.37 input  175.53 | X-H torsion
[ 8008 7997 7996 7995 ] final -151.68 input   59.86 | X-H torsion
[ 10167 10162 10161 10158 ] final  120.21 input  -65.29 | X-H torsion
[ 10718 10713 10712 10709 ] final  -53.21 input   66.30 | X-H torsion
[ 10763 10752 10751 10750 ] final  -87.18 input  -60.55 | X-H torsion
[ 11005 11000 10999 10996 ] final  -96.19 input  -57.11 | X-H torsion

> <Gold.Protein.ActiveResidues>
 VAL166  LYS551  ARG553  GLY616  TRP617  ASP618  TYR619  PRO620  LYS621  CYS622 
 ASP623  PHE694  ASN695  SER759  ASP760  ASP761  ALA762  ILE779  LEU786  VAL792 
 PHE793  MET794  SER795  GLU796  ALA797  LYS798  CYS799  TRP800  GLU811  SER814 

> <Gold.Protein.RotatedAtoms>
  152.5448  134.1160  159.8378 H   0  0  0  0  0  0  0  0  0  0  0  0  # atno 6907 bound_to 6896
  151.1221  133.5089  159.2609 H   0  0  0  0  0  0  0  0  0  0  0  0  # atno 6908 bound_to 6896
  151.1768  135.0352  159.8830 H   0  0  0  0  0  0  0  0  0  0  0  0  # atno 6909 bound_to 6896
  145.0746  140.8383  143.4075 H   0  0  0  0  0  0  0  0  0  0  0  0  # atno 7974 bound_to 7965
  155.6432  140.0704  157.2612 H   0  0  0  0  0  0  0  0  0  0  0  0  # atno 8008 bound_to 7997
  154.4179  140.1746  156.1644 H   0  0  0  0  0  0  0  0  0  0  0  0  # atno 8009 bound_to 7997
  155.9838  140.3351  155.6691 H   0  0  0  0  0  0  0  0  0  0  0  0  # atno 8010 bound_to 7997
  139.5996  144.7053  151.3093 H   0  0  0  0  0  0  0  0  0  0  0  0  # atno 10167 bound_to 10162
  156.1555  130.4150  149.9876 H   0  0  0  0  0  0  0  0  0  0  0  0  # atno 10718 bound_to 10713
  154.6307  135.5422  153.7677 H   0  0  0  0  0  0  0  0  0  0  0  0  # atno 10763 bound_to 10752
  153.0283  135.6435  154.1305 H   0  0  0  0  0  0  0  0  0  0  0  0  # atno 10764 bound_to 10752
  154.1235  135.2919  155.3182 H   0  0  0  0  0  0  0  0  0  0  0  0  # atno 10765 bound_to 10752
  141.1419  133.8080  157.0537 H   0  0  0  0  0  0  0  0  0  0  0  0  # atno 11005 bound_to 11000
  145.1251  139.2668  143.5568 LP  0  0  0  0  0  0  0  0  0  0  0  0  # atno 17320 bound_to 7965
  146.3529  140.0886  142.8614 LP  0  0  0  0  0  0  0  0  0  0  0  0  # atno 17321 bound_to 7965
  140.7239  143.7057  150.7809 LP  0  0  0  0  0  0  0  0  0  0  0  0  # atno 17342 bound_to 10162
  140.0631  143.5135  152.2618 LP  0  0  0  0  0  0  0  0  0  0  0  0  # atno 17343 bound_to 10162
  156.7721  130.9190  151.3644 LP  0  0  0  0  0  0  0  0  0  0  0  0  # atno 17370 bound_to 10713
  157.6691  130.9035  149.9999 LP  0  0  0  0  0  0  0  0  0  0  0  0  # atno 17371 bound_to 10713
  140.0615  134.9752  157.1313 LP  0  0  0  0  0  0  0  0  0  0  0  0  # atno 17394 bound_to 11000
  140.3841  134.2255  155.7169 LP  0  0  0  0  0  0  0  0  0  0  0  0  # atno 17395 bound_to 11000

$$$$
