AV-unprocessed.smi:2478|AV-procd|sdf|9765|dock2
  -GOLD-   2272013403D 1   1.00000     0.00000
 Structure written by MMmdl.
 42 43  0  0  0  0  0  0  0  0  1 V2000
  150.3406  141.8308  156.1568 C   0  0  0  0  0  0  0  0  0  0  0  0
  149.6343  141.0994  155.0045 C   0  0  2  0  0  0  0  0  0  0  0  0
  148.2385  141.6915  154.7232 C   0  0  0  0  0  0  0  0  0  0  0  0
  147.5495  140.9787  153.5487 C   0  0  0  0  0  0  0  0  0  0  0  0
  147.4607  139.4644  153.7901 C   0  0  0  0  0  0  0  0  0  0  0  0
  148.8474  138.8618  154.0736 C   0  0  0  0  0  0  0  0  0  0  0  0
  149.5551  139.5738  155.2412 C   0  0  2  0  0  0  0  0  0  0  0  0
  148.8092  139.3217  156.4248 O   0  0  0  0  0  0  0  0  0  0  0  0
  149.4340  138.4327  157.3406 C   0  0  0  0  0  0  0  0  0  0  0  0
  148.4533  138.0929  158.4636 C   0  0  0  0  0  0  0  0  0  0  0  0
  147.4377  138.7739  158.6041 O   0  0  0  0  0  0  0  0  0  0  0  0
  148.7789  137.0335  159.2275 N   0  0  0  0  0  0  0  0  0  0  0  0
  148.0865  136.4885  160.3409 C   0  0  0  0  0  0  0  0  0  0  0  0
  147.5115  137.2511  161.3038 N   0  0  0  0  0  0  0  0  0  0  0  0
  146.8720  136.6494  162.3272 C   0  0  0  0  0  0  0  0  0  0  0  0
  146.7639  135.2534  162.4513 C   0  0  0  0  0  0  0  0  0  0  0  0
  147.3549  134.4518  161.4594 C   0  0  0  0  0  0  0  0  0  0  0  0
  148.0361  135.0728  160.3862 C   0  0  0  0  0  0  0  0  0  0  0  0
  148.6229  134.3439  159.3752 O   0  0  0  0  0  0  0  0  0  0  0  0
  147.8456  133.5092  158.6362 C   0  0  0  0  0  0  0  0  0  0  0  0
  148.4650  133.1911  157.4732 F   0  0  0  0  0  0  0  0  0  0  0  0
  147.6322  132.3577  159.3176 F   0  0  0  0  0  0  0  0  0  0  0  0
  149.7794  141.7450  157.0879 H   0  0  0  0  0  0  0  0  0  0  0  0
  150.4531  142.8925  155.9356 H   0  0  0  0  0  0  0  0  0  0  0  0
  151.3370  141.4229  156.3289 H   0  0  0  0  0  0  0  0  0  0  0  0
  150.2412  141.2571  154.1116 H   0  0  0  0  0  0  0  0  0  0  0  0
  147.6149  141.6111  155.6146 H   0  0  0  0  0  0  0  0  0  0  0  0
  148.3225  142.7562  154.5032 H   0  0  0  0  0  0  0  0  0  0  0  0
  146.5508  141.3901  153.3991 H   0  0  0  0  0  0  0  0  0  0  0  0
  148.1040  141.1696  152.6291 H   0  0  0  0  0  0  0  0  0  0  0  0
  146.7944  139.2677  154.6310 H   0  0  0  0  0  0  0  0  0  0  0  0
  147.0140  138.9758  152.9238 H   0  0  0  0  0  0  0  0  0  0  0  0
  148.7533  137.7968  154.2881 H   0  0  0  0  0  0  0  0  0  0  0  0
  149.4633  138.9409  153.1768 H   0  0  0  0  0  0  0  0  0  0  0  0
  150.5682  139.1746  155.3242 H   0  0  0  0  0  0  0  0  0  0  0  0
  149.7418  137.5200  156.8280 H   0  0  0  0  0  0  0  0  0  0  0  0
  150.3220  138.8929  157.7764 H   0  0  0  0  0  0  0  0  0  0  0  0
  149.6496  136.5770  158.9960 H   0  0  0  0  0  0  0  0  0  0  0  0
  146.4315  137.3005  163.0677 H   0  0  0  0  0  0  0  0  0  0  0  0
  146.2390  134.8094  163.2840 H   0  0  0  0  0  0  0  0  0  0  0  0
  147.2787  133.3766  161.5254 H   0  0  0  0  0  0  0  0  0  0  0  0
  146.8739  133.9526  158.4165 H   0  0  0  0  0  0  0  0  0  0  0  0
  1  2  1  0  0  0  0
  1 23  1  0  0  0  0
  1 24  1  0  0  0  0
  1 25  1  0  0  0  0
  2  7  1  0  0  0  0
  2  3  1  0  0  0  0
  2 26  1  0  0  0  0
  3  4  1  0  0  0  0
  3 27  1  0  0  0  0
  3 28  1  0  0  0  0
  4  5  1  0  0  0  0
  4 29  1  0  0  0  0
  4 30  1  0  0  0  0
  5  6  1  0  0  0  0
  5 31  1  0  0  0  0
  5 32  1  0  0  0  0
  6  7  1  0  0  0  0
  6 33  1  0  0  0  0
  6 34  1  0  0  0  0
  7  8  1  0  0  0  0
  7 35  1  0  0  0  0
  8  9  1  0  0  0  0
  9 10  1  0  0  0  0
  9 36  1  0  0  0  0
  9 37  1  0  0  0  0
 10 11  2  0  0  0  0
 10 12  1  0  0  0  0
 12 13  1  0  0  0  0
 12 38  1  0  0  0  0
 13 18  1  0  0  0  0
 13 14  2  0  0  0  0
 14 15  1  0  0  0  0
 15 16  2  0  0  0  0
 15 39  1  0  0  0  0
 16 17  1  0  0  0  0
 16 40  1  0  0  0  0
 17 18  2  0  0  0  0
 17 41  1  0  0  0  0
 18 19  1  0  0  0  0
 19 20  1  0  0  0  0
 20 21  1  0  0  0  0
 20 22  1  0  0  0  0
 20 42  1  0  0  0  0
M  END
> <s_m_source_file>
AV-unprocessed.smi

> <i_m_source_file_index>
2478

> <i_lp_mmshare_version>
43012

> <i_f3d_flags>
0

> <s_epik_input>
W0NIM11bQ0BASF0xW0NIMl1bQ0gyXVtDSDJdW0NIMl1bQ0BIXTFPW0NIMl1DKD1PKVtOSF1jMm5bY0hdW2NIXVtjSF1jMk9bQ0hdKEYpRg==

> <s_epik_cmdline>
J2VwaWtfcHl0aG9uJywgJy1waCcsICc3LjAnLCAnLXRuJywgJzgnLCAnLW1hJywgJzIwMCcsICctbWV0YWxfYmluZGluZycsICctaW1hZScsICc8aW5maWxlLm1hZT4nLCAnLW9tYWUnLCAnPG91dGZpbGUubWFlPic=

> <r_lp_tautomer_probability>
1

> <r_epik_Ionization_Penalty>
6.06012e-05

> <r_epik_Ionization_Penalty_Charging>
0

> <r_epik_Ionization_Penalty_Neutral>
6.06012e-05

> <r_epik_State_Penalty>
-0

> <r_epik_Charging_Adjusted_Penalty>
0

> <i_epik_Tot_Q>
0

> <i_epik_Tot_abs_Q>
0

> <r_epik_Metal_State_Penalty>
-0

> <b_epik_Metal_Only>
0

> <s_lp_Force_Field>
OPLS_2005

> <r_lp_Energy>
14.1885

> <b_lp_Chiralities_Consistent>
1

> <s_lp_Variant>
AV-unprocessed.smi:2478-3

> <Gold.Version>
5.8.1

> <Gold.Id.Protein>
6NUR|6NUR_protein|mol2

> <Gold.PLP.Fitness>
41.9979

> <Gold.PLP.PLP>
-36.2791

> <Gold.PLP.part.hbond>
-4.0000

> <Gold.PLP.part.metal>
0.0000

> <Gold.PLP.part.buried>
-2.3692

> <Gold.PLP.part.nonpolar>
-29.8470

> <Gold.PLP.part.repulsive>
0.1942

> <Gold.PLP.ligand.clash>
0.0000

> <Gold.PLP.ligand.torsion>
1.3875

> <Gold.PLP.Chemscore.Hbond>
2.8080

> <Gold.PLP.Chemscore.CHOScore>
0.0000

> <Gold.PLP.Chemscore.Metal>
0.0000

> <Gold.Chemscore.Hbonds>
donor molecule, donor type, donor heavy atom, donor atom, acceptor molecule, acceptor atom, score
      P1  H  6896  6909       L1    19  1.00
      P1  H  6931  6943       L1    14  0.90
      P1  H  6934  6947       L1    14  0.91

> <Gold.PLP.Chemscore.Internal.Correction>
0.0699

> <Gold.Rescore>
     Score         DG    S(hbond)    S(metal)    S(lipo)     H(rot)  DE(clash)    DE(int)     intcor
     15.51     -16.98       1.99        0.00      81.77       1.85       0.04       1.43       ----

> <Gold.Chemscore.Fitness>
15.5073

> <Gold.Chemscore.DG>
-16.9758

> <Gold.Chemscore.ZeroCoef>
-5.4800

> <Gold.Chemscore.Hbond>
1.9941

> <Gold.Chemscore.Metal>
0.0000

> <Gold.Chemscore.Lipo>
81.7672

> <Gold.Chemscore.Internal_Hbond>
0.0000

> <Gold.Chemscore.DEClash>
0.0363

> <Gold.Chemscore.DEInternal>
1.4322

> <Gold.Chemscore.Rot>
1.8481

> <Gold.Chemscore.Internal.Correction>
   9.000000E+99

> <Gold.Chemscore.Hbonds>
donor molecule, donor type, donor heavy atom, donor atom, acceptor molecule, acceptor atom, score
      P1  H  6896  6909       L1    19  0.83
      P1  H  6931  6943       L1    14  0.21
      P1  H  6934  6947       L1    14  0.83

> <Gold.Chemscore.Hbond.Weighted>
-6.6602

> <Gold.Chemscore.Metal.Weighted>
-0.0000

> <Gold.Chemscore.Lipo.Weighted>
-9.5668

> <Gold.Chemscore.Internal_Hbond.Weighted>
0.0000

> <Gold.Chemscore.DEClash.Weighted>
0.0363

> <Gold.Chemscore.DEInternal.Weighted>
1.4322

> <Gold.Chemscore.Rot.Weighted>
4.7311

> <Gold.Chemscore.Internal.Correction.Weighted>
   9.000000E+99

> <Gold.Protein.RotatedTorsions>
[ 6907 6896 6895 6894 ] final   27.08 input  -60.11 | X-H torsion
[ 7974 7965 7964 7962 ] final -109.70 input  175.53 | X-H torsion
[ 8008 7997 7996 7995 ] final -148.12 input   59.86 | X-H torsion
[ 10167 10162 10161 10158 ] final  176.18 input  -65.29 | X-H torsion
[ 10718 10713 10712 10709 ] final  119.89 input   66.30 | X-H torsion
[ 10763 10752 10751 10750 ] final -172.16 input  -60.55 | X-H torsion
[ 11005 11000 10999 10996 ] final  -49.83 input  -57.11 | X-H torsion

> <Gold.Protein.ActiveResidues>
 VAL166  LYS551  ARG553  GLY616  TRP617  ASP618  TYR619  PRO620  LYS621  CYS622 
 ASP623  PHE694  ASN695  SER759  ASP760  ASP761  ALA762  ILE779  LEU786  VAL792 
 PHE793  MET794  SER795  GLU796  ALA797  LYS798  CYS799  TRP800  GLU811  SER814 

> <Gold.Protein.RotatedAtoms>
  151.9970  134.9949  160.0563 H   0  0  0  0  0  0  0  0  0  0  0  0  # atno 6907 bound_to 6896
  152.1555  133.4544  159.4843 H   0  0  0  0  0  0  0  0  0  0  0  0  # atno 6908 bound_to 6896
  150.6881  134.2054  159.4381 H   0  0  0  0  0  0  0  0  0  0  0  0  # atno 6909 bound_to 6896
  145.1773  140.8954  143.3500 H   0  0  0  0  0  0  0  0  0  0  0  0  # atno 7974 bound_to 7965
  155.5865  140.0648  157.2770 H   0  0  0  0  0  0  0  0  0  0  0  0  # atno 8008 bound_to 7997
  154.4317  140.1843  156.1077 H   0  0  0  0  0  0  0  0  0  0  0  0  # atno 8009 bound_to 7997
  156.0265  140.3311  155.7098 H   0  0  0  0  0  0  0  0  0  0  0  0  # atno 8010 bound_to 7997
  139.5204  144.2945  152.0434 H   0  0  0  0  0  0  0  0  0  0  0  0  # atno 10167 bound_to 10162
  157.5930  131.1062  150.7959 H   0  0  0  0  0  0  0  0  0  0  0  0  # atno 10718 bound_to 10713
  154.6225  135.2877  155.0310 H   0  0  0  0  0  0  0  0  0  0  0  0  # atno 10763 bound_to 10752
  154.1500  135.6505  153.4965 H   0  0  0  0  0  0  0  0  0  0  0  0  # atno 10764 bound_to 10752
  153.0242  135.5353  154.7020 H   0  0  0  0  0  0  0  0  0  0  0  0  # atno 10765 bound_to 10752
  141.0781  133.6660  156.3642 H   0  0  0  0  0  0  0  0  0  0  0  0  # atno 11005 bound_to 11000
  145.0172  139.3456  143.6090 LP  0  0  0  0  0  0  0  0  0  0  0  0  # atno 17320 bound_to 7965
  146.3459  139.9458  142.8735 LP  0  0  0  0  0  0  0  0  0  0  0  0  # atno 17321 bound_to 7965
  140.2395  144.4284  150.6266 LP  0  0  0  0  0  0  0  0  0  0  0  0  # atno 17342 bound_to 10162
  140.6300  143.2186  151.6515 LP  0  0  0  0  0  0  0  0  0  0  0  0  # atno 17343 bound_to 10162
  156.8377  130.5037  149.5324 LP  0  0  0  0  0  0  0  0  0  0  0  0  # atno 17370 bound_to 10713
  156.0987  130.5952  150.9858 LP  0  0  0  0  0  0  0  0  0  0  0  0  # atno 17371 bound_to 10713
  140.5528  134.6011  157.5412 LP  0  0  0  0  0  0  0  0  0  0  0  0  # atno 17394 bound_to 11000
  139.9594  134.7478  156.0270 LP  0  0  0  0  0  0  0  0  0  0  0  0  # atno 17395 bound_to 11000

$$$$
