AV-unprocessed.smi:1627|AV-procd|sdf|6517|dock9
  -GOLD-   22720 7193D 1   1.00000     0.00000
 Structure written by MMmdl.
 43 44  0  0  0  0  0  0  0  0  1 V2000
  156.3631  135.1527  162.4273 C   0  0  0  0  0  0  0  0  0  0  0  0
  154.9637  134.8413  161.8763 C   0  0  1  0  0  0  0  0  0  0  0  0
  154.1256  134.5320  162.9873 O   0  0  0  0  0  0  0  0  0  0  0  0
  154.5328  133.4158  163.7726 C   0  0  0  0  0  0  0  0  0  0  0  0
  153.6632  133.3390  165.0333 C   0  0  0  0  0  0  0  0  0  0  0  0
  154.4100  132.9283  166.0576 F   0  0  0  0  0  0  0  0  0  0  0  0
  153.1639  134.5400  165.3231 F   0  0  0  0  0  0  0  0  0  0  0  0
  152.6678  132.4711  164.8542 F   0  0  0  0  0  0  0  0  0  0  0  0
  154.3953  136.0343  161.0901 C   0  0  0  0  0  0  0  0  0  0  0  0
  153.9902  135.8672  159.9400 O   0  0  0  0  0  0  0  0  0  0  0  0
  154.4192  137.2190  161.7286 N   0  0  0  0  0  0  0  0  0  0  0  0
  153.9701  138.4864  161.2686 C   0  0  0  0  0  0  0  0  0  0  0  0
  154.3090  139.7209  161.8683 C   0  0  0  0  0  0  0  0  0  0  0  0
  153.8140  140.9131  161.3056 C   0  0  0  0  0  0  0  0  0  0  0  0
  152.9950  140.8493  160.1499 C   0  0  0  0  0  0  0  0  0  0  0  0
  152.4730  142.0084  159.5314 N   0  0  0  0  0  0  0  0  0  0  0  0
  153.1619  143.2685  159.8286 C   0  0  0  0  0  0  0  0  0  0  0  0
  152.2779  144.4831  159.4983 C   0  0  0  0  0  0  0  0  0  0  0  0
  151.7612  144.4149  158.0546 C   0  0  0  0  0  0  0  0  0  0  0  0
  151.0270  143.0865  157.8267 C   0  0  0  0  0  0  0  0  0  0  0  0
  151.9239  141.8876  158.1792 C   0  0  0  0  0  0  0  0  0  0  0  0
  152.6857  139.6628  159.5734 N   0  0  0  0  0  0  0  0  0  0  0  0
  153.1629  138.5233  160.1152 C   0  0  0  0  0  0  0  0  0  0  0  0
  157.0563  135.4119  161.6263 H   0  0  0  0  0  0  0  0  0  0  0  0
  156.7731  134.2883  162.9498 H   0  0  0  0  0  0  0  0  0  0  0  0
  156.3411  135.9831  163.1344 H   0  0  0  0  0  0  0  0  0  0  0  0
  155.0393  133.9679  161.2254 H   0  0  0  0  0  0  0  0  0  0  0  0
  154.4388  132.4863  163.2096 H   0  0  0  0  0  0  0  0  0  0  0  0
  155.5814  133.5221  164.0545 H   0  0  0  0  0  0  0  0  0  0  0  0
  154.8613  137.2212  162.6364 H   0  0  0  0  0  0  0  0  0  0  0  0
  154.9455  139.7816  162.7371 H   0  0  0  0  0  0  0  0  0  0  0  0
  154.0694  141.8497  161.7774 H   0  0  0  0  0  0  0  0  0  0  0  0
  153.4583  143.3317  160.8753 H   0  0  0  0  0  0  0  0  0  0  0  0
  154.0804  143.3073  159.2416 H   0  0  0  0  0  0  0  0  0  0  0  0
  151.4331  144.5165  160.1878 H   0  0  0  0  0  0  0  0  0  0  0  0
  152.8395  145.4049  159.6516 H   0  0  0  0  0  0  0  0  0  0  0  0
  151.0954  145.2541  157.8514 H   0  0  0  0  0  0  0  0  0  0  0  0
  152.5963  144.5000  157.3582 H   0  0  0  0  0  0  0  0  0  0  0  0
  150.1255  143.0592  158.4403 H   0  0  0  0  0  0  0  0  0  0  0  0
  150.6981  143.0131  156.7900 H   0  0  0  0  0  0  0  0  0  0  0  0
  152.7460  141.8125  157.4658 H   0  0  0  0  0  0  0  0  0  0  0  0
  151.3312  140.9765  158.0924 H   0  0  0  0  0  0  0  0  0  0  0  0
  152.8846  137.6094  159.6108 H   0  0  0  0  0  0  0  0  0  0  0  0
  1  2  1  0  0  0  0
  1 24  1  0  0  0  0
  1 25  1  0  0  0  0
  1 26  1  0  0  0  0
  2  3  1  0  0  0  0
  2  9  1  0  0  0  0
  2 27  1  0  0  0  0
  3  4  1  0  0  0  0
  4  5  1  0  0  0  0
  4 28  1  0  0  0  0
  4 29  1  0  0  0  0
  5  6  1  0  0  0  0
  5  7  1  0  0  0  0
  5  8  1  0  0  0  0
  9 10  2  0  0  0  0
  9 11  1  0  0  0  0
 11 12  1  0  0  0  0
 11 30  1  0  0  0  0
 12 23  1  0  0  0  0
 12 13  2  0  0  0  0
 13 14  1  0  0  0  0
 13 31  1  0  0  0  0
 14 15  2  0  0  0  0
 14 32  1  0  0  0  0
 15 16  1  0  0  0  0
 15 22  1  0  0  0  0
 16 21  1  0  0  0  0
 16 17  1  0  0  0  0
 17 18  1  0  0  0  0
 17 33  1  0  0  0  0
 17 34  1  0  0  0  0
 18 19  1  0  0  0  0
 18 35  1  0  0  0  0
 18 36  1  0  0  0  0
 19 20  1  0  0  0  0
 19 37  1  0  0  0  0
 19 38  1  0  0  0  0
 20 21  1  0  0  0  0
 20 39  1  0  0  0  0
 20 40  1  0  0  0  0
 21 41  1  0  0  0  0
 21 42  1  0  0  0  0
 22 23  2  0  0  0  0
 23 43  1  0  0  0  0
M  END
> <s_m_source_file>
AV-unprocessed.smi

> <i_m_source_file_index>
1627

> <i_lp_mmshare_version>
43012

> <i_f3d_flags>
0

> <s_epik_input>
RkMoRikoRilbQ0gyXU9bQ0BASF0oW0NIM10pQyg9TylbTkhdYzFbY0hdW2NIXWMobltjSF0xKU4yW0NIMl1bQ0gyXVtDSDJdW0NIMl1bQ0gyXTI=

> <s_epik_cmdline>
J2VwaWtfcHl0aG9uJywgJy1waCcsICc3LjAnLCAnLXRuJywgJzgnLCAnLW1hJywgJzIwMCcsICctbWV0YWxfYmluZGluZycsICctaW1hZScsICc8aW5maWxlLm1hZT4nLCAnLW9tYWUnLCAnPG91dGZpbGUubWFlPic=

> <r_lp_tautomer_probability>
1

> <r_epik_Ionization_Penalty>
0.0254771

> <r_epik_Ionization_Penalty_Charging>
0

> <r_epik_Ionization_Penalty_Neutral>
0.0254771

> <r_epik_State_Penalty>
0.0187406

> <r_epik_Charging_Adjusted_Penalty>
0.0187406

> <i_epik_Tot_Q>
0

> <i_epik_Tot_abs_Q>
0

> <r_epik_Metal_State_Penalty>
0.017939

> <b_epik_Metal_Only>
0

> <s_lp_Force_Field>
OPLS_2005

> <r_lp_Energy>
25.1621

> <b_lp_Chiralities_Consistent>
1

> <s_lp_Variant>
AV-unprocessed.smi:1627-2

> <Gold.Version>
5.8.1

> <Gold.Id.Protein>
6NUR|6NUR_protein|mol2

> <Gold.PLP.Fitness>
45.6830

> <Gold.PLP.PLP>
-44.4920

> <Gold.PLP.part.hbond>
-1.0000

> <Gold.PLP.part.metal>
0.0000

> <Gold.PLP.part.buried>
-2.1701

> <Gold.PLP.part.nonpolar>
-41.2750

> <Gold.PLP.part.repulsive>
0.0191

> <Gold.PLP.ligand.clash>
0.0000

> <Gold.PLP.ligand.torsion>
1.0588

> <Gold.PLP.Chemscore.Hbond>
1.0000

> <Gold.PLP.Chemscore.CHOScore>
0.0000

> <Gold.PLP.Chemscore.Metal>
0.0000

> <Gold.Chemscore.Hbonds>
donor molecule, donor type, donor heavy atom, donor atom, acceptor molecule, acceptor atom, score
      P1  H  6896  6907       L1    10  1.00

> <Gold.PLP.Chemscore.Internal.Correction>
0.3087

> <Gold.Rescore>
     Score         DG    S(hbond)    S(metal)    S(lipo)     H(rot)  DE(clash)    DE(int)     intcor
     13.59     -17.08       0.96        0.00     107.37       1.63       0.83       2.66       ----

> <Gold.Chemscore.Fitness>
13.5944

> <Gold.Chemscore.DG>
-17.0788

> <Gold.Chemscore.ZeroCoef>
-5.4800

> <Gold.Chemscore.Hbond>
0.9576

> <Gold.Chemscore.Metal>
0.0000

> <Gold.Chemscore.Lipo>
107.3742

> <Gold.Chemscore.Internal_Hbond>
0.0000

> <Gold.Chemscore.DEClash>
0.8273

> <Gold.Chemscore.DEInternal>
2.6571

> <Gold.Chemscore.Rot>
1.6260

> <Gold.Chemscore.Internal.Correction>
   9.000000E+99

> <Gold.Chemscore.Hbonds>
donor molecule, donor type, donor heavy atom, donor atom, acceptor molecule, acceptor atom, score
      P1  H  6896  6907       L1    10  0.65

> <Gold.Chemscore.Hbond.Weighted>
-3.1985

> <Gold.Chemscore.Metal.Weighted>
-0.0000

> <Gold.Chemscore.Lipo.Weighted>
-12.5628

> <Gold.Chemscore.Internal_Hbond.Weighted>
0.0000

> <Gold.Chemscore.DEClash.Weighted>
0.8273

> <Gold.Chemscore.DEInternal.Weighted>
2.6571

> <Gold.Chemscore.Rot.Weighted>
4.1625

> <Gold.Chemscore.Internal.Correction.Weighted>
   9.000000E+99

> <Gold.Protein.RotatedTorsions>
[ 6907 6896 6895 6894 ] final   63.39 input  -60.11 | X-H torsion
[ 7974 7965 7964 7962 ] final  -14.82 input  175.53 | X-H torsion
[ 8008 7997 7996 7995 ] final  -48.63 input   59.86 | X-H torsion
[ 10167 10162 10161 10158 ] final  -32.08 input  -65.29 | X-H torsion
[ 10718 10713 10712 10709 ] final   79.58 input   66.30 | X-H torsion
[ 10763 10752 10751 10750 ] final    3.47 input  -60.55 | X-H torsion
[ 11005 11000 10999 10996 ] final  103.34 input  -57.11 | X-H torsion

> <Gold.Protein.ActiveResidues>
 VAL166  LYS551  ARG553  GLY616  TRP617  ASP618  TYR619  PRO620  LYS621  CYS622 
 ASP623  PHE694  ASN695  SER759  ASP760  ASP761  ALA762  ILE779  LEU786  VAL792 
 PHE793  MET794  SER795  GLU796  ALA797  LYS798  CYS799  TRP800  GLU811  SER814 

> <Gold.Protein.RotatedAtoms>
  152.4249  134.5886  159.9967 H   0  0  0  0  0  0  0  0  0  0  0  0  # atno 6907 bound_to 6896
  151.6025  133.3349  159.3058 H   0  0  0  0  0  0  0  0  0  0  0  0  # atno 6908 bound_to 6896
  150.8139  134.7346  159.6777 H   0  0  0  0  0  0  0  0  0  0  0  0  # atno 6909 bound_to 6896
  146.2058  140.3404  142.8407 H   0  0  0  0  0  0  0  0  0  0  0  0  # atno 7974 bound_to 7965
  154.4031  140.1317  156.4370 H   0  0  0  0  0  0  0  0  0  0  0  0  # atno 8008 bound_to 7997
  155.7496  140.3488  155.5124 H   0  0  0  0  0  0  0  0  0  0  0  0  # atno 8009 bound_to 7997
  155.8962  140.1011  157.1373 H   0  0  0  0  0  0  0  0  0  0  0  0  # atno 8010 bound_to 7997
  140.7227  143.3722  151.1757 H   0  0  0  0  0  0  0  0  0  0  0  0  # atno 10167 bound_to 10162
  157.6781  130.9921  150.1954 H   0  0  0  0  0  0  0  0  0  0  0  0  # atno 10718 bound_to 10713
  153.2830  135.6942  153.7367 H   0  0  0  0  0  0  0  0  0  0  0  0  # atno 10763 bound_to 10752
  153.6347  135.3404  155.3053 H   0  0  0  0  0  0  0  0  0  0  0  0  # atno 10764 bound_to 10752
  154.8501  135.4417  154.1889 H   0  0  0  0  0  0  0  0  0  0  0  0  # atno 10765 bound_to 10752
  139.8783  134.9259  156.5194 H   0  0  0  0  0  0  0  0  0  0  0  0  # atno 11005 bound_to 11000
  144.8790  140.7374  143.5999 LP  0  0  0  0  0  0  0  0  0  0  0  0  # atno 17320 bound_to 7965
  145.3324  139.1756  143.4530 LP  0  0  0  0  0  0  0  0  0  0  0  0  # atno 17321 bound_to 7965
  139.7295  143.9095  152.3014 LP  0  0  0  0  0  0  0  0  0  0  0  0  # atno 17342 bound_to 10162
  139.8879  144.6981  150.8803 LP  0  0  0  0  0  0  0  0  0  0  0  0  # atno 17343 bound_to 10162
  156.2656  130.3716  149.8085 LP  0  0  0  0  0  0  0  0  0  0  0  0  # atno 17370 bound_to 10713
  156.5817  130.8468  151.3384 LP  0  0  0  0  0  0  0  0  0  0  0  0  # atno 17371 bound_to 10713
  140.8461  133.8167  155.9123 LP  0  0  0  0  0  0  0  0  0  0  0  0  # atno 17394 bound_to 11000
  140.9190  134.2166  157.4939 LP  0  0  0  0  0  0  0  0  0  0  0  0  # atno 17395 bound_to 11000

$$$$
