AV-unprocessed.smi:1998|AV-procd|sdf|8090|dock9
  -GOLD-   2272010303D 1   1.00000     0.00000
 Structure written by MMmdl.
 47 48  0  0  0  0  0  0  0  0  1 V2000
  151.3523  144.7984  160.4583 C   0  0  0  0  0  0  0  0  0  0  0  0
  152.1478  143.6141  160.9228 C   0  0  0  0  0  0  0  0  0  0  0  0
  152.7143  143.3853  162.2076 C   0  0  0  0  0  0  0  0  0  0  0  0
  153.3408  142.1770  162.0906 C   0  0  0  0  0  0  0  0  0  0  0  0
  154.1199  141.3959  163.0976 C   0  0  0  0  0  0  0  0  0  0  0  0
  153.1317  141.7397  160.7940 N   0  0  0  0  0  0  0  0  0  0  0  0
  153.5696  140.5031  160.1601 C   0  0  0  0  0  0  0  0  0  0  0  0
  152.7247  140.1940  158.9231 C   0  0  0  0  0  0  0  0  0  0  0  0
  153.2257  139.6120  157.9615 O   0  0  0  0  0  0  0  0  0  0  0  0
  151.4355  140.5575  158.9846 N   0  0  0  0  0  0  0  0  0  0  0  0
  150.3862  140.1811  158.0404 C   0  0  0  0  0  0  0  0  0  0  0  0
  150.3930  141.0834  156.7694 C   0  0  0  0  0  0  0  0  0  0  0  0
  150.6688  142.5337  157.2324 C   0  0  0  0  0  0  0  0  0  0  0  0
  151.6088  140.6402  155.9159 C   0  0  0  0  0  0  0  0  0  0  0  0
  149.1240  140.9473  156.0003 N   0  0  0  0  0  0  0  0  0  0  0  0
  147.9364  141.4902  156.6691 C   0  0  0  0  0  0  0  0  0  0  0  0
  146.6471  141.1833  155.8905 C   0  0  0  0  0  0  0  0  0  0  0  0
  146.7531  141.6921  154.5661 O   0  0  0  0  0  0  0  0  0  0  0  0
  147.8665  141.1546  153.8622 C   0  0  0  0  0  0  0  0  0  0  0  0
  149.1651  141.4615  154.6278 C   0  0  0  0  0  0  0  0  0  0  0  0
  152.3982  142.6241  160.0816 N   0  0  0  0  0  0  0  0  0  0  0  0
  151.1376  145.4762  161.2845 H   0  0  0  0  0  0  0  0  0  0  0  0
  150.3995  144.4924  160.0276 H   0  0  0  0  0  0  0  0  0  0  0  0
  151.8957  145.3617  159.6993 H   0  0  0  0  0  0  0  0  0  0  0  0
  152.6708  144.0165  163.0828 H   0  0  0  0  0  0  0  0  0  0  0  0
  154.1629  141.9235  164.0506 H   0  0  0  0  0  0  0  0  0  0  0  0
  155.1429  141.2343  162.7577 H   0  0  0  0  0  0  0  0  0  0  0  0
  153.6635  140.4222  163.2761 H   0  0  0  0  0  0  0  0  0  0  0  0
  154.6202  140.5860  159.8773 H   0  0  0  0  0  0  0  0  0  0  0  0
  153.4948  139.6893  160.8821 H   0  0  0  0  0  0  0  0  0  0  0  0
  151.1301  141.0332  159.8216 H   0  0  0  0  0  0  0  0  0  0  0  0
  150.5394  139.1349  157.7762 H   0  0  0  0  0  0  0  0  0  0  0  0
  149.4071  140.2017  158.5226 H   0  0  0  0  0  0  0  0  0  0  0  0
  151.6135  142.5971  157.7736 H   0  0  0  0  0  0  0  0  0  0  0  0
  149.8964  142.9046  157.9057 H   0  0  0  0  0  0  0  0  0  0  0  0
  150.7386  143.2270  156.3944 H   0  0  0  0  0  0  0  0  0  0  0  0
  152.5113  140.5453  156.5209 H   0  0  0  0  0  0  0  0  0  0  0  0
  151.8441  141.3578  155.1300 H   0  0  0  0  0  0  0  0  0  0  0  0
  151.4350  139.6764  155.4367 H   0  0  0  0  0  0  0  0  0  0  0  0
  147.8266  141.0757  157.6696 H   0  0  0  0  0  0  0  0  0  0  0  0
  148.0291  142.5704  156.7826 H   0  0  0  0  0  0  0  0  0  0  0  0
  146.4626  140.1090  155.8654 H   0  0  0  0  0  0  0  0  0  0  0  0
  145.7896  141.6436  156.3814 H   0  0  0  0  0  0  0  0  0  0  0  0
  147.7412  140.0786  153.7339 H   0  0  0  0  0  0  0  0  0  0  0  0
  147.9022  141.5934  152.8650 H   0  0  0  0  0  0  0  0  0  0  0  0
  149.3287  142.5393  154.6332 H   0  0  0  0  0  0  0  0  0  0  0  0
  149.9878  141.0180  154.0700 H   0  0  0  0  0  0  0  0  0  0  0  0
  1  2  1  0  0  0  0
  1 22  1  0  0  0  0
  1 23  1  0  0  0  0
  1 24  1  0  0  0  0
  2 21  2  0  0  0  0
  2  3  1  0  0  0  0
  3  4  2  0  0  0  0
  3 25  1  0  0  0  0
  4  5  1  0  0  0  0
  4  6  1  0  0  0  0
  5 26  1  0  0  0  0
  5 27  1  0  0  0  0
  5 28  1  0  0  0  0
  6  7  1  0  0  0  0
  6 21  1  0  0  0  0
  7  8  1  0  0  0  0
  7 29  1  0  0  0  0
  7 30  1  0  0  0  0
  8  9  2  0  0  0  0
  8 10  1  0  0  0  0
 10 11  1  0  0  0  0
 10 31  1  0  0  0  0
 11 12  1  0  0  0  0
 11 32  1  0  0  0  0
 11 33  1  0  0  0  0
 12 13  1  0  0  0  0
 12 14  1  0  0  0  0
 12 15  1  0  0  0  0
 13 34  1  0  0  0  0
 13 35  1  0  0  0  0
 13 36  1  0  0  0  0
 14 37  1  0  0  0  0
 14 38  1  0  0  0  0
 14 39  1  0  0  0  0
 15 20  1  0  0  0  0
 15 16  1  0  0  0  0
 16 17  1  0  0  0  0
 16 40  1  0  0  0  0
 16 41  1  0  0  0  0
 17 18  1  0  0  0  0
 17 42  1  0  0  0  0
 17 43  1  0  0  0  0
 18 19  1  0  0  0  0
 19 20  1  0  0  0  0
 19 44  1  0  0  0  0
 19 45  1  0  0  0  0
 20 46  1  0  0  0  0
 20 47  1  0  0  0  0
M  END
> <s_m_source_file>
AV-unprocessed.smi

> <i_m_source_file_index>
1998

> <i_lp_mmshare_version>
43012

> <i_f3d_flags>
0

> <s_epik_input>
W0NIM11jMVtjSF1jKFtDSDNdKW4objEpW0NIMl1DKD1PKVtOSF1bQ0gyXUMoW0NIM10pKFtDSDNdKU4yW0NIMl1bQ0gyXU9bQ0gyXVtDSDJdMg==

> <s_epik_cmdline>
J2VwaWtfcHl0aG9uJywgJy1waCcsICc3LjAnLCAnLXRuJywgJzgnLCAnLW1hJywgJzIwMCcsICctbWV0YWxfYmluZGluZycsICctaW1hZScsICc8aW5maWxlLm1hZT4nLCAnLW9tYWUnLCAnPG91dGZpbGUubWFlPic=

> <r_lp_tautomer_probability>
1

> <r_epik_Ionization_Penalty>
0.197271

> <r_epik_Ionization_Penalty_Charging>
0

> <r_epik_Ionization_Penalty_Neutral>
0.197271

> <r_epik_State_Penalty>
0.186684

> <r_epik_Charging_Adjusted_Penalty>
0.186684

> <i_epik_Tot_Q>
0

> <i_epik_Tot_abs_Q>
0

> <r_epik_Metal_State_Penalty>
0.186642

> <b_epik_Metal_Only>
0

> <s_lp_Force_Field>
OPLS_2005

> <r_lp_Energy>
37.8286

> <b_lp_Chiralities_Consistent>
1

> <s_lp_Variant>
AV-unprocessed.smi:1998-1

> <Gold.Version>
5.8.1

> <Gold.Id.Protein>
6NUR|6NUR_protein|mol2

> <Gold.PLP.Fitness>
44.0299

> <Gold.PLP.PLP>
-43.3434

> <Gold.PLP.part.hbond>
-1.0000

> <Gold.PLP.part.metal>
0.0000

> <Gold.PLP.part.buried>
-5.3684

> <Gold.PLP.part.nonpolar>
-36.2819

> <Gold.PLP.part.repulsive>
0.3822

> <Gold.PLP.ligand.clash>
0.0000

> <Gold.PLP.ligand.torsion>
1.1985

> <Gold.PLP.Chemscore.Hbond>
1.0000

> <Gold.PLP.Chemscore.CHOScore>
0.0000

> <Gold.PLP.Chemscore.Metal>
0.0000

> <Gold.Chemscore.Hbonds>
donor molecule, donor type, donor heavy atom, donor atom, acceptor molecule, acceptor atom, score
      P1  H  7997  8010       L1     9  1.00

> <Gold.PLP.Chemscore.Internal.Correction>
0.0834

> <Gold.Rescore>
     Score         DG    S(hbond)    S(metal)    S(lipo)     H(rot)  DE(clash)    DE(int)     intcor
     12.72     -17.33       1.00        0.00     109.25       1.67       0.33       4.28       ----

> <Gold.Chemscore.Fitness>
12.7208

> <Gold.Chemscore.DG>
-17.3314

> <Gold.Chemscore.ZeroCoef>
-5.4800

> <Gold.Chemscore.Hbond>
0.9988

> <Gold.Chemscore.Metal>
0.0000

> <Gold.Chemscore.Lipo>
109.2490

> <Gold.Chemscore.Internal_Hbond>
0.0000

> <Gold.Chemscore.DEClash>
0.3259

> <Gold.Chemscore.DEInternal>
4.2847

> <Gold.Chemscore.Rot>
1.6666

> <Gold.Chemscore.Internal.Correction>
   9.000000E+99

> <Gold.Chemscore.Hbonds>
donor molecule, donor type, donor heavy atom, donor atom, acceptor molecule, acceptor atom, score
      P1  H  7997  8010       L1     9  0.99

> <Gold.Chemscore.Hbond.Weighted>
-3.3359

> <Gold.Chemscore.Metal.Weighted>
-0.0000

> <Gold.Chemscore.Lipo.Weighted>
-12.7821

> <Gold.Chemscore.Internal_Hbond.Weighted>
0.0000

> <Gold.Chemscore.DEClash.Weighted>
0.3259

> <Gold.Chemscore.DEInternal.Weighted>
4.2847

> <Gold.Chemscore.Rot.Weighted>
4.2666

> <Gold.Chemscore.Internal.Correction.Weighted>
   9.000000E+99

> <Gold.Protein.RotatedTorsions>
[ 6907 6896 6895 6894 ] final -128.16 input  -60.11 | X-H torsion
[ 7974 7965 7964 7962 ] final -111.84 input  175.53 | X-H torsion
[ 8008 7997 7996 7995 ] final   25.59 input   59.86 | X-H torsion
[ 10167 10162 10161 10158 ] final   45.96 input  -65.29 | X-H torsion
[ 10718 10713 10712 10709 ] final   91.36 input   66.30 | X-H torsion
[ 10763 10752 10751 10750 ] final   55.67 input  -60.55 | X-H torsion
[ 11005 11000 10999 10996 ] final  -10.73 input  -57.11 | X-H torsion

> <Gold.Protein.ActiveResidues>
 VAL166  LYS551  ARG553  GLY616  TRP617  ASP618  TYR619  PRO620  LYS621  CYS622 
 ASP623  PHE694  ASN695  SER759  ASP760  ASP761  ALA762  ILE779  LEU786  VAL792 
 PHE793  MET794  SER795  GLU796  ALA797  LYS798  CYS799  TRP800  GLU811  SER814 

> <Gold.Protein.RotatedAtoms>
  150.9149  133.6951  159.2845 H   0  0  0  0  0  0  0  0  0  0  0  0  # atno 6907 bound_to 6896
  151.4426  135.1020  159.9684 H   0  0  0  0  0  0  0  0  0  0  0  0  # atno 6908 bound_to 6896
  152.4949  133.8554  159.7278 H   0  0  0  0  0  0  0  0  0  0  0  0  # atno 6909 bound_to 6896
  145.1512  140.8830  143.3645 H   0  0  0  0  0  0  0  0  0  0  0  0  # atno 7974 bound_to 7965
  155.0141  140.3140  155.4818 H   0  0  0  0  0  0  0  0  0  0  0  0  # atno 8008 bound_to 7997
  156.2904  140.2209  156.5198 H   0  0  0  0  0  0  0  0  0  0  0  0  # atno 8009 bound_to 7997
  154.7509  140.0466  157.0880 H   0  0  0  0  0  0  0  0  0  0  0  0  # atno 8010 bound_to 7997
  140.3188  144.2731  150.6186 H   0  0  0  0  0  0  0  0  0  0  0  0  # atno 10167 bound_to 10162
  157.6960  131.0404  150.3718 H   0  0  0  0  0  0  0  0  0  0  0  0  # atno 10718 bound_to 10713
  152.9820  135.5702  154.5105 H   0  0  0  0  0  0  0  0  0  0  0  0  # atno 10763 bound_to 10752
  154.4609  135.2781  155.1715 H   0  0  0  0  0  0  0  0  0  0  0  0  # atno 10764 bound_to 10752
  154.3303  135.6250  153.5602 H   0  0  0  0  0  0  0  0  0  0  0  0  # atno 10765 bound_to 10752
  140.7478  133.8617  155.9020 H   0  0  0  0  0  0  0  0  0  0  0  0  # atno 11005 bound_to 11000
  145.0428  139.3245  143.5968 LP  0  0  0  0  0  0  0  0  0  0  0  0  # atno 17320 bound_to 7965
  146.3494  139.9808  142.8696 LP  0  0  0  0  0  0  0  0  0  0  0  0  # atno 17321 bound_to 7965
  140.5502  143.2207  151.7939 LP  0  0  0  0  0  0  0  0  0  0  0  0  # atno 17342 bound_to 10162
  139.4878  144.4486  151.9681 LP  0  0  0  0  0  0  0  0  0  0  0  0  # atno 17343 bound_to 10162
  156.4142  130.3940  149.6870 LP  0  0  0  0  0  0  0  0  0  0  0  0  # atno 17370 bound_to 10713
  156.4144  130.7738  151.2752 LP  0  0  0  0  0  0  0  0  0  0  0  0  # atno 17371 bound_to 10713
  140.9779  134.1445  157.4520 LP  0  0  0  0  0  0  0  0  0  0  0  0  # atno 17394 bound_to 11000
  139.8793  135.0000  156.5989 LP  0  0  0  0  0  0  0  0  0  0  0  0  # atno 17395 bound_to 11000

$$$$
