AV-unprocessed.smi:1033|AV-procd|sdf|4504|dock6
  -GOLD-   22720 2503D 1   1.00000     0.00000
 Structure written by MMmdl.
 57 59  0  0  0  0  0  0  0  0  3 V2000
  152.8425  143.5820  161.4194 C   0  0  0  0  0  0  0  0  0  0  0  0
  152.2674  142.9367  160.1701 C   0  0  0  0  0  0  0  0  0  0  0  0
  152.2015  141.5260  160.1090 C   0  0  0  0  0  0  0  0  0  0  0  0
  151.6720  140.9654  158.9528 C   0  0  0  0  0  0  0  0  0  0  0  0
  151.4735  139.6316  158.5893 N   0  3  0  0  0  0  0  0  0  0  0  0
  150.9206  139.5769  157.3459 C   0  0  0  0  0  0  0  0  0  0  0  0
  150.7624  140.8567  156.9114 N   0  0  0  0  0  0  0  0  0  0  0  0
  150.2166  141.3638  155.6457 C   0  0  0  0  0  0  0  0  0  0  0  0
  149.8116  140.2404  154.6698 C   0  0  2  0  0  0  0  0  0  0  0  0
  149.7811  140.7778  153.3612 O   0  0  0  0  0  0  0  0  0  0  0  0
  148.4228  139.6646  155.0150 C   0  0  0  0  0  0  0  0  0  0  0  0
  147.2835  140.3556  154.3994 N   0  0  0  0  0  0  0  0  0  0  0  0
  146.9385  139.8124  153.0857 C   0  0  0  0  0  0  0  0  0  0  0  0
  146.2872  138.4156  153.1565 C   0  0  0  0  0  0  0  0  0  0  0  0
  145.0732  138.4519  154.0121 N   0  3  0  0  0  0  0  0  0  0  0  0
  144.3754  137.1419  154.0592 C   0  0  0  0  0  0  0  0  0  0  0  0
  143.5067  136.8834  152.8122 C   0  0  1  0  0  0  0  0  0  0  0  0
  142.5756  135.6719  152.9694 C   0  0  0  0  0  0  0  0  0  0  0  0
  142.7096  138.0254  152.5800 O   0  0  0  0  0  0  0  0  0  0  0  0
  145.3928  139.0050  155.3557 C   0  0  0  0  0  0  0  0  0  0  0  0
  146.0699  140.3844  155.2191 C   0  0  0  0  0  0  0  0  0  0  0  0
  151.2176  141.7565  157.8800 C   0  0  0  0  0  0  0  0  0  0  0  0
  151.2747  143.1473  157.9231 C   0  0  0  0  0  0  0  0  0  0  0  0
  151.8085  143.7368  159.0915 C   0  0  0  0  0  0  0  0  0  0  0  0
  151.8811  145.2523  159.1696 C   0  0  0  0  0  0  0  0  0  0  0  0
  153.1504  142.8332  162.1499 H   0  0  0  0  0  0  0  0  0  0  0  0
  152.1015  144.2252  161.8944 H   0  0  0  0  0  0  0  0  0  0  0  0
  153.7170  144.1839  161.1709 H   0  0  0  0  0  0  0  0  0  0  0  0
  152.5480  140.9107  160.9264 H   0  0  0  0  0  0  0  0  0  0  0  0
  150.6534  138.6810  156.8038 H   0  0  0  0  0  0  0  0  0  0  0  0
  149.3678  142.0097  155.8743 H   0  0  0  0  0  0  0  0  0  0  0  0
  150.9780  142.0017  155.1941 H   0  0  0  0  0  0  0  0  0  0  0  0
  150.5610  139.4489  154.7077 H   0  0  0  0  0  0  0  0  0  0  0  0
  149.6898  140.0660  152.7467 H   0  0  0  0  0  0  0  0  0  0  0  0
  148.4055  138.6350  154.6553 H   0  0  0  0  0  0  0  0  0  0  0  0
  148.3069  139.5871  156.0961 H   0  0  0  0  0  0  0  0  0  0  0  0
  146.2506  140.4972  152.5876 H   0  0  0  0  0  0  0  0  0  0  0  0
  147.8267  139.7755  152.4540 H   0  0  0  0  0  0  0  0  0  0  0  0
  146.0134  138.0982  152.1495 H   0  0  0  0  0  0  0  0  0  0  0  0
  146.9904  137.6741  153.5380 H   0  0  0  0  0  0  0  0  0  0  0  0
  145.1114  136.3402  154.1396 H   0  0  0  0  0  0  0  0  0  0  0  0
  143.7711  137.0916  154.9670 H   0  0  0  0  0  0  0  0  0  0  0  0
  144.1316  136.7496  151.9297 H   0  0  0  0  0  0  0  0  0  0  0  0
  143.1438  134.7522  153.1108 H   0  0  0  0  0  0  0  0  0  0  0  0
  141.9540  135.5372  152.0835 H   0  0  0  0  0  0  0  0  0  0  0  0
  141.9116  135.7879  153.8270 H   0  0  0  0  0  0  0  0  0  0  0  0
  143.2744  138.7588  152.3885 H   0  0  0  0  0  0  0  0  0  0  0  0
  144.4813  139.1187  155.9413 H   0  0  0  0  0  0  0  0  0  0  0  0
  146.0315  138.3121  155.9048 H   0  0  0  0  0  0  0  0  0  0  0  0
  146.2850  140.7965  156.2042 H   0  0  0  0  0  0  0  0  0  0  0  0
  145.3581  141.0777  154.7684 H   0  0  0  0  0  0  0  0  0  0  0  0
  150.9257  143.7551  157.1015 H   0  0  0  0  0  0  0  0  0  0  0  0
  151.4707  145.7186  158.2733 H   0  0  0  0  0  0  0  0  0  0  0  0
  152.9154  145.5809  159.2721 H   0  0  0  0  0  0  0  0  0  0  0  0
  151.3135  145.6204  160.0244 H   0  0  0  0  0  0  0  0  0  0  0  0
  144.4393  139.1014  153.5688 H   0  0  0  0  0  0  0  0  0  0  0  0
  151.6976  138.8169  159.1459 H   0  0  0  0  0  0  0  0  0  0  0  0
  1  2  1  0  0  0  0
  1 26  1  0  0  0  0
  1 27  1  0  0  0  0
  1 28  1  0  0  0  0
  2 24  1  0  0  0  0
  2  3  2  0  0  0  0
  3  4  1  0  0  0  0
  3 29  1  0  0  0  0
  4 22  2  0  0  0  0
  4  5  1  0  0  0  0
  5  6  2  0  0  0  0
  5 57  1  0  0  0  0
  6  7  1  0  0  0  0
  6 30  1  0  0  0  0
  7  8  1  0  0  0  0
  7 22  1  0  0  0  0
  8  9  1  0  0  0  0
  8 31  1  0  0  0  0
  8 32  1  0  0  0  0
  9 10  1  0  0  0  0
  9 11  1  0  0  0  0
  9 33  1  0  0  0  0
 10 34  1  0  0  0  0
 11 12  1  0  0  0  0
 11 35  1  0  0  0  0
 11 36  1  0  0  0  0
 12 21  1  0  0  0  0
 12 13  1  0  0  0  0
 13 14  1  0  0  0  0
 13 37  1  0  0  0  0
 13 38  1  0  0  0  0
 14 15  1  0  0  0  0
 14 39  1  0  0  0  0
 14 40  1  0  0  0  0
 15 16  1  0  0  0  0
 15 20  1  0  0  0  0
 15 56  1  0  0  0  0
 16 17  1  0  0  0  0
 16 41  1  0  0  0  0
 16 42  1  0  0  0  0
 17 18  1  0  0  0  0
 17 19  1  0  0  0  0
 17 43  1  0  0  0  0
 18 44  1  0  0  0  0
 18 45  1  0  0  0  0
 18 46  1  0  0  0  0
 19 47  1  0  0  0  0
 20 21  1  0  0  0  0
 20 48  1  0  0  0  0
 20 49  1  0  0  0  0
 21 50  1  0  0  0  0
 21 51  1  0  0  0  0
 22 23  1  0  0  0  0
 23 24  2  0  0  0  0
 23 52  1  0  0  0  0
 24 25  1  0  0  0  0
 25 53  1  0  0  0  0
 25 54  1  0  0  0  0
 25 55  1  0  0  0  0
M  CHG  1   5   1
M  CHG  1  15   1
M  END
> <s_m_source_file>
AV-unprocessed.smi

> <i_m_source_file_index>
1033

> <i_lp_mmshare_version>
43012

> <i_f3d_flags>
0

> <s_epik_input>
W0NIM11jKFtjSF0xKWMoW0NIM10pW2NIXWMoYzEyKW4oW2NIXW4yKVtDSDJdW0NASF0oW09IXSlbQ0gyXU4zW0NIMl1bQ0gyXU4oW0NIMl1bQ0gyXTMpW0NIMl1bQ0BIXShbQ0gzXSlbT0hd

> <s_epik_cmdline>
J2VwaWtfcHl0aG9uJywgJy1waCcsICc3LjAnLCAnLXRuJywgJzgnLCAnLW1hJywgJzIwMCcsICctbWV0YWxfYmluZGluZycsICctaW1hZScsICc8aW5maWxlLm1hZT4nLCAnLW9tYWUnLCAnPG91dGZpbGUubWFlPic=

> <r_epik_Ionization_Penalty>
1.28617

> <r_epik_Ionization_Penalty_Charging>
1.23646

> <r_epik_Ionization_Penalty_Neutral>
0.0497112

> <r_epik_State_Penalty>
1.79157

> <r_epik_Charging_Adjusted_Penalty>
3.02803

> <i_epik_Tot_Q>
2

> <i_epik_Tot_abs_Q>
2

> <r_epik_Metal_State_Penalty>
5.81739

> <b_epik_Metal_Only>
0

> <s_lp_Force_Field>
OPLS_2005

> <r_lp_Energy>
41.725

> <b_lp_Chiralities_Consistent>
1

> <s_lp_Variant>
AV-unprocessed.smi:1033-15

> <Gold.Version>
5.8.1

> <Gold.Id.Protein>
6NUR|6NUR_protein|mol2

> <Gold.PLP.Fitness>
58.1373

> <Gold.PLP.PLP>
-46.0884

> <Gold.PLP.part.hbond>
-4.8493

> <Gold.PLP.part.metal>
0.0000

> <Gold.PLP.part.buried>
-4.9854

> <Gold.PLP.part.nonpolar>
-36.5823

> <Gold.PLP.part.repulsive>
0.2304

> <Gold.PLP.ligand.clash>
0.0000

> <Gold.PLP.ligand.torsion>
1.2510

> <Gold.PLP.Chemscore.Hbond>
4.7888

> <Gold.PLP.Chemscore.CHOScore>
0.0000

> <Gold.PLP.Chemscore.Metal>
0.0000

> <Gold.Chemscore.Hbonds>
donor molecule, donor type, donor heavy atom, donor atom, acceptor molecule, acceptor atom, score
      L1  H    10    34       P1  7957  0.64
      L1  H    15    56       P1 10175  2.00
      L1  H    19    47       P1 10175  1.00
      P1  H  7989  7998       L1    10  0.12
      P1  H  8011  8017       L1    10  1.00

> <Gold.PLP.Chemscore.Internal.Correction>
0.1844

> <Gold.Rescore>
     Score         DG    S(hbond)    S(metal)    S(lipo)     H(rot)  DE(clash)    DE(int)     intcor
     21.47     -22.72       3.25        0.00     123.35       3.15       0.18       1.06       ----

> <Gold.Chemscore.Fitness>
21.4702

> <Gold.Chemscore.DG>
-22.7152

> <Gold.Chemscore.ZeroCoef>
-5.4800

> <Gold.Chemscore.Hbond>
3.2524

> <Gold.Chemscore.Metal>
0.0000

> <Gold.Chemscore.Lipo>
123.3508

> <Gold.Chemscore.Internal_Hbond>
0.0000

> <Gold.Chemscore.DEClash>
0.1821

> <Gold.Chemscore.DEInternal>
1.0629

> <Gold.Chemscore.Rot>
3.1483

> <Gold.Chemscore.Internal.Correction>
   9.000000E+99

> <Gold.Chemscore.Hbonds>
donor molecule, donor type, donor heavy atom, donor atom, acceptor molecule, acceptor atom, score
      L1  H    10    34       P1  7957  0.63
      L1  H    15    56       P1 10175  1.00
      L1  H    19    47       P1 10175  0.95
      P1  H  8011  8017       L1    10  0.60

> <Gold.Chemscore.Hbond.Weighted>
-10.8629

> <Gold.Chemscore.Metal.Weighted>
-0.0000

> <Gold.Chemscore.Lipo.Weighted>
-14.4320

> <Gold.Chemscore.Internal_Hbond.Weighted>
0.0000

> <Gold.Chemscore.DEClash.Weighted>
0.1821

> <Gold.Chemscore.DEInternal.Weighted>
1.0629

> <Gold.Chemscore.Rot.Weighted>
8.0597

> <Gold.Chemscore.Internal.Correction.Weighted>
   9.000000E+99

> <Gold.Protein.RotatedTorsions>
[ 6907 6896 6895 6894 ] final  -65.45 input  -60.11 | X-H torsion
[ 7974 7965 7964 7962 ] final -138.72 input  175.53 | X-H torsion
[ 8008 7997 7996 7995 ] final  171.19 input   59.86 | X-H torsion
[ 10167 10162 10161 10158 ] final  -22.19 input  -65.29 | X-H torsion
[ 10718 10713 10712 10709 ] final  154.27 input   66.30 | X-H torsion
[ 10763 10752 10751 10750 ] final   46.03 input  -60.55 | X-H torsion
[ 11005 11000 10999 10996 ] final  -98.86 input  -57.11 | X-H torsion

> <Gold.Protein.ActiveResidues>
 VAL166  LYS551  ARG553  GLY616  TRP617  ASP618  TYR619  PRO620  LYS621  CYS622 
 ASP623  PHE694  ASN695  SER759  ASP760  ASP761  ALA762  ILE779  LEU786  VAL792 
 PHE793  MET794  SER795  GLU796  ALA797  LYS798  CYS799  TRP800  GLU811  SER814 

> <Gold.Protein.RotatedAtoms>
  150.7523  134.6158  159.6109 H   0  0  0  0  0  0  0  0  0  0  0  0  # atno 6907 bound_to 6896
  152.3479  134.7043  160.0254 H   0  0  0  0  0  0  0  0  0  0  0  0  # atno 6908 bound_to 6896
  151.7474  133.3289  159.3418 H   0  0  0  0  0  0  0  0  0  0  0  0  # atno 6909 bound_to 6896
  144.8735  140.6402  143.5252 H   0  0  0  0  0  0  0  0  0  0  0  0  # atno 7974 bound_to 7965
  156.1294  140.1518  156.9088 H   0  0  0  0  0  0  0  0  0  0  0  0  # atno 8008 bound_to 7997
  154.4897  140.0855  156.7607 H   0  0  0  0  0  0  0  0  0  0  0  0  # atno 8009 bound_to 7997
  155.4283  140.3426  155.4280 H   0  0  0  0  0  0  0  0  0  0  0  0  # atno 8010 bound_to 7997
  140.7285  143.4557  151.0451 H   0  0  0  0  0  0  0  0  0  0  0  0  # atno 10167 bound_to 10162
  157.2338  131.0744  151.1836 H   0  0  0  0  0  0  0  0  0  0  0  0  # atno 10718 bound_to 10713
  152.9816  135.6021  154.3534 H   0  0  0  0  0  0  0  0  0  0  0  0  # atno 10763 bound_to 10752
  154.3221  135.2769  155.2516 H   0  0  0  0  0  0  0  0  0  0  0  0  # atno 10764 bound_to 10752
  154.4678  135.5949  153.6356 H   0  0  0  0  0  0  0  0  0  0  0  0  # atno 10765 bound_to 10752
  141.1330  133.8277  157.0895 H   0  0  0  0  0  0  0  0  0  0  0  0  # atno 11005 bound_to 11000
  145.4086  139.1584  143.4138 LP  0  0  0  0  0  0  0  0  0  0  0  0  # atno 17320 bound_to 7965
  146.2946  140.4188  142.8726 LP  0  0  0  0  0  0  0  0  0  0  0  0  # atno 17321 bound_to 7965
  139.8238  143.7784  152.3178 LP  0  0  0  0  0  0  0  0  0  0  0  0  # atno 17342 bound_to 10162
  139.7876  144.7422  151.0000 LP  0  0  0  0  0  0  0  0  0  0  0  0  # atno 17343 bound_to 10162
  157.3450  130.7053  149.6405 LP  0  0  0  0  0  0  0  0  0  0  0  0  # atno 17370 bound_to 10713
  155.9674  130.4269  150.4719 LP  0  0  0  0  0  0  0  0  0  0  0  0  # atno 17371 bound_to 10713
  140.0401  134.9858  157.0946 LP  0  0  0  0  0  0  0  0  0  0  0  0  # atno 17394 bound_to 11000
  140.4148  134.1942  155.7163 LP  0  0  0  0  0  0  0  0  0  0  0  0  # atno 17395 bound_to 11000

$$$$
