AV-unprocessed.smi:2528|AV-procd|sdf|9955|dock5
  -GOLD-   2272013593D 1   1.00000     0.00000
 Structure written by MMmdl.
 44 46  0  0  0  0  0  0  0  0  2 V2000
  150.4898  135.8354  156.2038 O   0  0  0  0  0  0  0  0  0  0  0  0
  150.0217  136.0219  155.0801 C   0  0  0  0  0  0  0  0  0  0  0  0
  149.5598  135.0318  154.3028 N   0  0  0  0  0  0  0  0  0  0  0  0
  149.5299  133.6212  154.6758 C   0  0  0  0  0  0  0  0  0  0  0  0
  148.8285  132.7581  153.6119 C   0  0  1  0  0  0  0  0  0  0  0  0
  148.9944  131.2531  153.8898 C   0  0  0  0  0  0  0  0  0  0  0  0
  148.2637  130.4570  152.8770 N   0  3  1  0  0  0  0  0  0  0  0  0
  148.4335  128.9953  153.0741 C   0  0  0  0  0  0  0  0  0  0  0  0
  147.7450  128.2034  151.9512 C   0  0  0  0  0  0  0  0  0  0  0  0
  146.2603  128.5771  151.8529 C   0  0  0  0  0  0  0  0  0  0  0  0
  146.1104  130.0945  151.6783 C   0  0  0  0  0  0  0  0  0  0  0  0
  146.8331  130.8616  152.8035 C   0  0  2  0  0  0  0  0  0  0  0  0
  146.7269  132.3861  152.5994 C   0  0  0  0  0  0  0  0  0  0  0  0
  147.4382  133.0648  153.6264 O   0  0  0  0  0  0  0  0  0  0  0  0
  149.9059  137.2156  154.4720 N   0  0  0  0  0  0  0  0  0  0  0  0
  150.2674  138.4951  154.9727 C   0  0  0  0  0  0  0  0  0  0  0  0
  149.4396  139.5596  154.5493 C   0  0  0  0  0  0  0  0  0  0  0  0
  149.7115  140.8680  154.9938 C   0  0  0  0  0  0  0  0  0  0  0  0
  150.8064  141.0794  155.8506 C   0  0  0  0  0  0  0  0  0  0  0  0
  151.5811  139.9654  156.2229 C   0  0  0  0  0  0  0  0  0  0  0  0
  151.3223  138.7104  155.7982 N   0  0  0  0  0  0  0  0  0  0  0  0
  149.1958  135.2697  153.3917 H   0  0  0  0  0  0  0  0  0  0  0  0
  150.5498  133.2684  154.8381 H   0  0  0  0  0  0  0  0  0  0  0  0
  149.0156  133.5292  155.6329 H   0  0  0  0  0  0  0  0  0  0  0  0
  149.2430  132.9878  152.6286 H   0  0  0  0  0  0  0  0  0  0  0  0
  150.0517  130.9858  153.8680 H   0  0  0  0  0  0  0  0  0  0  0  0
  148.6215  131.0091  154.8860 H   0  0  0  0  0  0  0  0  0  0  0  0
  149.4962  128.7504  153.0933 H   0  0  0  0  0  0  0  0  0  0  0  0
  148.0233  128.7059  154.0430 H   0  0  0  0  0  0  0  0  0  0  0  0
  148.2399  128.4084  151.0009 H   0  0  0  0  0  0  0  0  0  0  0  0
  147.8495  127.1330  152.1304 H   0  0  0  0  0  0  0  0  0  0  0  0
  145.7940  128.0536  151.0179 H   0  0  0  0  0  0  0  0  0  0  0  0
  145.7381  128.2562  152.7551 H   0  0  0  0  0  0  0  0  0  0  0  0
  146.5165  130.3898  150.7094 H   0  0  0  0  0  0  0  0  0  0  0  0
  145.0527  130.3600  151.6631 H   0  0  0  0  0  0  0  0  0  0  0  0
  146.3618  130.6100  153.7555 H   0  0  0  0  0  0  0  0  0  0  0  0
  147.1118  132.6814  151.6216 H   0  0  0  0  0  0  0  0  0  0  0  0
  145.6828  132.6983  152.6360 H   0  0  0  0  0  0  0  0  0  0  0  0
  149.5023  137.2112  153.5470 H   0  0  0  0  0  0  0  0  0  0  0  0
  148.6014  139.3802  153.8915 H   0  0  0  0  0  0  0  0  0  0  0  0
  149.0901  141.6946  154.6825 H   0  0  0  0  0  0  0  0  0  0  0  0
  151.0466  142.0684  156.2123 H   0  0  0  0  0  0  0  0  0  0  0  0
  152.4311  140.0843  156.8783 H   0  0  0  0  0  0  0  0  0  0  0  0
  148.6749  130.6792  151.9815 H   0  0  0  0  0  0  0  0  0  0  0  0
  1  2  2  0  0  0  0
  2  3  1  0  0  0  0
  2 15  1  0  0  0  0
  3  4  1  0  0  0  0
  3 22  1  0  0  0  0
  4  5  1  0  0  0  0
  4 23  1  0  0  0  0
  4 24  1  0  0  0  0
  5 14  1  0  0  0  0
  5  6  1  0  0  0  0
  5 25  1  0  0  0  0
  6  7  1  0  0  0  0
  6 26  1  0  0  0  0
  6 27  1  0  0  0  0
  7 12  1  0  0  0  0
  7  8  1  0  0  0  0
  7 44  1  0  0  0  0
  8  9  1  0  0  0  0
  8 28  1  0  0  0  0
  8 29  1  0  0  0  0
  9 10  1  0  0  0  0
  9 30  1  0  0  0  0
  9 31  1  0  0  0  0
 10 11  1  0  0  0  0
 10 32  1  0  0  0  0
 10 33  1  0  0  0  0
 11 12  1  0  0  0  0
 11 34  1  0  0  0  0
 11 35  1  0  0  0  0
 12 13  1  0  0  0  0
 12 36  1  0  0  0  0
 13 14  1  0  0  0  0
 13 37  1  0  0  0  0
 13 38  1  0  0  0  0
 15 16  1  0  0  0  0
 15 39  1  0  0  0  0
 16 21  1  0  0  0  0
 16 17  2  0  0  0  0
 17 18  1  0  0  0  0
 17 40  1  0  0  0  0
 18 19  2  0  0  0  0
 18 41  1  0  0  0  0
 19 20  1  0  0  0  0
 19 42  1  0  0  0  0
 20 21  2  0  0  0  0
 20 43  1  0  0  0  0
M  CHG  1   7   1
M  END
> <s_m_source_file>
AV-unprocessed.smi

> <i_m_source_file_index>
2528

> <i_lp_mmshare_version>
43012

> <i_f3d_flags>
0

> <s_epik_input>
bjFbY0hdW2NIXVtjSF1bY0hdYzFbTkhdQyg9TylbTkhdW0NIMl1bQ0BIXShbQ0gyXTIpT1tDSDJdW0NAQEhdKE4yMylbQ0gyXVtDSDJdW0NIMl1bQ0gyXTM=

> <s_epik_cmdline>
J2VwaWtfcHl0aG9uJywgJy1waCcsICc3LjAnLCAnLXRuJywgJzgnLCAnLW1hJywgJzIwMCcsICctbWV0YWxfYmluZGluZycsICctaW1hZScsICc8aW5maWxlLm1hZT4nLCAnLW9tYWUnLCAnPG91dGZpbGUubWFlPic=

> <r_epik_Ionization_Penalty>
0.0932337

> <r_epik_Ionization_Penalty_Charging>
0.0931942

> <r_epik_Ionization_Penalty_Neutral>
3.9565e-05

> <r_epik_State_Penalty>
0.0834605

> <r_epik_Charging_Adjusted_Penalty>
0.176655

> <i_epik_Tot_Q>
1

> <i_epik_Tot_abs_Q>
1

> <r_epik_Metal_State_Penalty>
0.0834607

> <b_epik_Metal_Only>
0

> <s_lp_Force_Field>
OPLS_2005

> <r_lp_Energy>
24.376

> <b_lp_Chiralities_Consistent>
1

> <s_lp_Variant>
AV-unprocessed.smi:2528-8

> <Gold.Version>
5.8.1

> <Gold.Id.Protein>
6NUR|6NUR_protein|mol2

> <Gold.PLP.Fitness>
49.0236

> <Gold.PLP.PLP>
-40.7697

> <Gold.PLP.part.hbond>
-3.1551

> <Gold.PLP.part.metal>
0.0000

> <Gold.PLP.part.buried>
-3.6101

> <Gold.PLP.part.nonpolar>
-34.7822

> <Gold.PLP.part.repulsive>
0.2350

> <Gold.PLP.ligand.clash>
0.0000

> <Gold.PLP.ligand.torsion>
0.2863

> <Gold.PLP.Chemscore.Hbond>
2.9420

> <Gold.PLP.Chemscore.CHOScore>
0.0000

> <Gold.PLP.Chemscore.Metal>
0.0000

> <Gold.Chemscore.Hbonds>
donor molecule, donor type, donor heavy atom, donor atom, acceptor molecule, acceptor atom, score
      L1  H     3    22       P1  7948  1.00
      L1  H     7    44       P1 10747  1.00
      L1  H    15    39       P1  7948  1.00

> <Gold.PLP.Chemscore.Internal.Correction>
0.0005

> <Gold.Rescore>
     Score         DG    S(hbond)    S(metal)    S(lipo)     H(rot)  DE(clash)    DE(int)     intcor
     19.37     -20.87       2.42        0.00      90.72       1.29       0.28       1.22       ----

> <Gold.Chemscore.Fitness>
19.3730

> <Gold.Chemscore.DG>
-20.8695

> <Gold.Chemscore.ZeroCoef>
-5.4800

> <Gold.Chemscore.Hbond>
2.4162

> <Gold.Chemscore.Metal>
0.0000

> <Gold.Chemscore.Lipo>
90.7187

> <Gold.Chemscore.Internal_Hbond>
0.0000

> <Gold.Chemscore.DEClash>
0.2762

> <Gold.Chemscore.DEInternal>
1.2203

> <Gold.Chemscore.Rot>
1.2870

> <Gold.Chemscore.Internal.Correction>
   9.000000E+99

> <Gold.Chemscore.Hbonds>
donor molecule, donor type, donor heavy atom, donor atom, acceptor molecule, acceptor atom, score
      L1  H     3    22       P1  7948  0.25
      L1  H     7    44       P1 10747  0.78
      L1  H    15    39       P1  7948  0.84

> <Gold.Chemscore.Hbond.Weighted>
-8.0702

> <Gold.Chemscore.Metal.Weighted>
-0.0000

> <Gold.Chemscore.Lipo.Weighted>
-10.6141

> <Gold.Chemscore.Internal_Hbond.Weighted>
0.0000

> <Gold.Chemscore.DEClash.Weighted>
0.2762

> <Gold.Chemscore.DEInternal.Weighted>
1.2203

> <Gold.Chemscore.Rot.Weighted>
3.2948

> <Gold.Chemscore.Internal.Correction.Weighted>
   9.000000E+99

> <Gold.Protein.RotatedTorsions>
[ 6907 6896 6895 6894 ] final -114.30 input  -60.11 | X-H torsion
[ 7974 7965 7964 7962 ] final -152.27 input  175.53 | X-H torsion
[ 8008 7997 7996 7995 ] final -152.74 input   59.86 | X-H torsion
[ 10167 10162 10161 10158 ] final -140.26 input  -65.29 | X-H torsion
[ 10718 10713 10712 10709 ] final -102.46 input   66.30 | X-H torsion
[ 10763 10752 10751 10750 ] final -131.40 input  -60.55 | X-H torsion
[ 11005 11000 10999 10996 ] final   88.40 input  -57.11 | X-H torsion

> <Gold.Protein.ActiveResidues>
 VAL166  LYS551  ARG553  GLY616  TRP617  ASP618  TYR619  PRO620  LYS621  CYS622 
 ASP623  PHE694  ASN695  SER759  ASP760  ASP761  ALA762  ILE779  LEU786  VAL792 
 PHE793  MET794  SER795  GLU796  ALA797  LYS798  CYS799  TRP800  GLU811  SER814 

> <Gold.Protein.RotatedAtoms>
  150.7892  133.8820  159.3288 H   0  0  0  0  0  0  0  0  0  0  0  0  # atno 6907 bound_to 6896
  151.6662  135.0980  160.0198 H   0  0  0  0  0  0  0  0  0  0  0  0  # atno 6908 bound_to 6896
  152.3963  133.6713  159.6314 H   0  0  0  0  0  0  0  0  0  0  0  0  # atno 6909 bound_to 6896
  144.7804  140.4685  143.5844 H   0  0  0  0  0  0  0  0  0  0  0  0  # atno 7974 bound_to 7965
  155.6599  140.0721  157.2558 H   0  0  0  0  0  0  0  0  0  0  0  0  # atno 8008 bound_to 7997
  154.4144  140.1718  156.1816 H   0  0  0  0  0  0  0  0  0  0  0  0  # atno 8009 bound_to 7997
  155.9706  140.3362  155.6575 H   0  0  0  0  0  0  0  0  0  0  0  0  # atno 8010 bound_to 7997
  139.8299  143.7461  152.2666 H   0  0  0  0  0  0  0  0  0  0  0  0  # atno 10167 bound_to 10162
  156.0229  130.5421  150.7111 H   0  0  0  0  0  0  0  0  0  0  0  0  # atno 10718 bound_to 10713
  154.8751  135.3831  154.4240 H   0  0  0  0  0  0  0  0  0  0  0  0  # atno 10763 bound_to 10752
  153.4940  135.7030  153.5873 H   0  0  0  0  0  0  0  0  0  0  0  0  # atno 10764 bound_to 10752
  153.4234  135.3896  155.2092 H   0  0  0  0  0  0  0  0  0  0  0  0  # atno 10765 bound_to 10752
  139.8897  134.8485  156.2995 H   0  0  0  0  0  0  0  0  0  0  0  0  # atno 11005 bound_to 11000
  145.6068  139.1509  143.3098 LP  0  0  0  0  0  0  0  0  0  0  0  0  # atno 17320 bound_to 7965
  146.2008  140.6186  142.9103 LP  0  0  0  0  0  0  0  0  0  0  0  0  # atno 17321 bound_to 7965
  139.7665  144.7490  151.0287 LP  0  0  0  0  0  0  0  0  0  0  0  0  # atno 17342 bound_to 10162
  140.7807  143.4692  151.0169 LP  0  0  0  0  0  0  0  0  0  0  0  0  # atno 17343 bound_to 10162
  157.4749  131.0897  151.0601 LP  0  0  0  0  0  0  0  0  0  0  0  0  # atno 17370 bound_to 10713
  157.1051  130.5998  149.5469 LP  0  0  0  0  0  0  0  0  0  0  0  0  # atno 17371 bound_to 10713
  140.9923  133.7201  156.0832 LP  0  0  0  0  0  0  0  0  0  0  0  0  # atno 17394 bound_to 11000
  140.7609  134.3940  157.5526 LP  0  0  0  0  0  0  0  0  0  0  0  0  # atno 17395 bound_to 11000

$$$$
