AV-unprocessed.smi:2898|AV-procd|sdf|11142|dock2
  -GOLD-   2272016 23D 1   1.00000     0.00000
 Structure written by MMmdl.
 44 45  0  0  0  0  0  0  0  0  1 V2000
  149.2300  139.2693  154.1299 C   0  0  0  0  0  0  0  0  0  0  0  0
  150.3599  139.4806  155.0970 C   0  0  0  0  0  0  0  0  0  0  0  0
  151.5805  139.6922  154.6364 N   0  0  0  0  0  0  0  0  0  0  0  0
  152.3895  139.8567  155.7635 O   0  0  0  0  0  0  0  0  0  0  0  0
  151.6159  139.7381  156.8725 C   0  0  0  0  0  0  0  0  0  0  0  0
  152.3191  139.8935  158.1797 C   0  0  0  0  0  0  0  0  0  0  0  0
  150.3140  139.4916  156.5215 C   0  0  0  0  0  0  0  0  0  0  0  0
  149.0924  139.2881  157.3884 C   0  0  1  0  0  0  0  0  0  0  0  0
  148.0742  140.4286  157.2063 C   0  0  0  0  0  0  0  0  0  0  0  0
  148.4794  137.8936  157.1378 C   0  0  0  0  0  0  0  0  0  0  0  0
  147.7846  137.3711  158.3093 N   0  0  0  0  0  0  0  0  0  0  0  0
  148.1999  136.3360  159.0593 C   0  0  0  0  0  0  0  0  0  0  0  0
  149.2261  135.7054  158.7985 O   0  0  0  0  0  0  0  0  0  0  0  0
  147.3486  135.9477  160.2895 C   0  0  0  0  0  0  0  0  0  0  0  0
  146.0668  136.6840  160.3109 C   0  0  0  0  0  0  0  0  0  0  0  0
  145.0630  137.2608  160.3278 N   0  0  0  0  0  0  0  0  0  0  0  0
  147.0659  134.4243  160.2531 C   0  0  0  0  0  0  0  0  0  0  0  0
  146.3250  133.9385  161.5116 C   0  0  0  0  0  0  0  0  0  0  0  0
  147.1076  134.2956  162.7842 C   0  0  0  0  0  0  0  0  0  0  0  0
  147.4138  135.7995  162.8493 C   0  0  0  0  0  0  0  0  0  0  0  0
  148.1457  136.2689  161.5794 C   0  0  0  0  0  0  0  0  0  0  0  0
  148.4290  139.9877  154.3059 H   0  0  0  0  0  0  0  0  0  0  0  0
  148.8086  138.2698  154.2370 H   0  0  0  0  0  0  0  0  0  0  0  0
  149.5542  139.3828  153.0949 H   0  0  0  0  0  0  0  0  0  0  0  0
  151.6952  140.4191  158.9016 H   0  0  0  0  0  0  0  0  0  0  0  0
  153.2414  140.4625  158.0614 H   0  0  0  0  0  0  0  0  0  0  0  0
  152.5747  138.9202  158.5979 H   0  0  0  0  0  0  0  0  0  0  0  0
  149.3994  139.3213  158.4342 H   0  0  0  0  0  0  0  0  0  0  0  0
  148.5383  141.3977  157.3912 H   0  0  0  0  0  0  0  0  0  0  0  0
  147.2405  140.3331  157.9022 H   0  0  0  0  0  0  0  0  0  0  0  0
  147.6582  140.4446  156.1996 H   0  0  0  0  0  0  0  0  0  0  0  0
  147.7652  137.9356  156.3157 H   0  0  0  0  0  0  0  0  0  0  0  0
  149.2551  137.1894  156.8315 H   0  0  0  0  0  0  0  0  0  0  0  0
  146.9327  137.8418  158.5794 H   0  0  0  0  0  0  0  0  0  0  0  0
  146.4740  134.1767  159.3708 H   0  0  0  0  0  0  0  0  0  0  0  0
  147.9984  133.8648  160.1596 H   0  0  0  0  0  0  0  0  0  0  0  0
  145.3306  134.3839  161.5549 H   0  0  0  0  0  0  0  0  0  0  0  0
  146.1747  132.8599  161.4599 H   0  0  0  0  0  0  0  0  0  0  0  0
  146.5430  133.9917  163.6662 H   0  0  0  0  0  0  0  0  0  0  0  0
  148.0415  133.7325  162.8062 H   0  0  0  0  0  0  0  0  0  0  0  0
  146.4861  136.3586  162.9747 H   0  0  0  0  0  0  0  0  0  0  0  0
  148.0219  136.0151  163.7281 H   0  0  0  0  0  0  0  0  0  0  0  0
  149.1282  135.7947  161.5491 H   0  0  0  0  0  0  0  0  0  0  0  0
  148.3295  137.3422  161.6462 H   0  0  0  0  0  0  0  0  0  0  0  0
  1  2  1  0  0  0  0
  1 22  1  0  0  0  0
  1 23  1  0  0  0  0
  1 24  1  0  0  0  0
  2  7  1  0  0  0  0
  2  3  2  0  0  0  0
  3  4  1  0  0  0  0
  4  5  1  0  0  0  0
  5  6  1  0  0  0  0
  5  7  2  0  0  0  0
  6 25  1  0  0  0  0
  6 26  1  0  0  0  0
  6 27  1  0  0  0  0
  7  8  1  0  0  0  0
  8  9  1  0  0  0  0
  8 10  1  0  0  0  0
  8 28  1  0  0  0  0
  9 29  1  0  0  0  0
  9 30  1  0  0  0  0
  9 31  1  0  0  0  0
 10 11  1  0  0  0  0
 10 32  1  0  0  0  0
 10 33  1  0  0  0  0
 11 12  1  0  0  0  0
 11 34  1  0  0  0  0
 12 13  2  0  0  0  0
 12 14  1  0  0  0  0
 14 21  1  0  0  0  0
 14 15  1  0  0  0  0
 14 17  1  0  0  0  0
 15 16  3  0  0  0  0
 17 18  1  0  0  0  0
 17 35  1  0  0  0  0
 17 36  1  0  0  0  0
 18 19  1  0  0  0  0
 18 37  1  0  0  0  0
 18 38  1  0  0  0  0
 19 20  1  0  0  0  0
 19 39  1  0  0  0  0
 19 40  1  0  0  0  0
 20 21  1  0  0  0  0
 20 41  1  0  0  0  0
 20 42  1  0  0  0  0
 21 43  1  0  0  0  0
 21 44  1  0  0  0  0
M  END
> <s_m_source_file>
AV-unprocessed.smi

> <i_m_source_file_index>
2898

> <i_lp_mmshare_version>
43012

> <i_f3d_flags>
0

> <s_epik_input>
W0NIM11jMW5vYyhbQ0gzXSljMVtDQEhdKFtDSDNdKVtDSDJdW05IXUMoPU8pQzIoQyNOKVtDSDJdW0NIMl1bQ0gyXVtDSDJdW0NIMl0y

> <s_epik_cmdline>
J2VwaWtfcHl0aG9uJywgJy1waCcsICc3LjAnLCAnLXRuJywgJzgnLCAnLW1hJywgJzIwMCcsICctbWV0YWxfYmluZGluZycsICctaW1hZScsICc8aW5maWxlLm1hZT4nLCAnLW9tYWUnLCAnPG91dGZpbGUubWFlPic=

> <r_lp_tautomer_probability>
1

> <r_epik_Ionization_Penalty>
4.33734e-07

> <r_epik_Ionization_Penalty_Charging>
0

> <r_epik_Ionization_Penalty_Neutral>
4.33734e-07

> <r_epik_State_Penalty>
-0

> <r_epik_Charging_Adjusted_Penalty>
0

> <i_epik_Tot_Q>
0

> <i_epik_Tot_abs_Q>
0

> <r_epik_Metal_State_Penalty>
-0

> <b_epik_Metal_Only>
0

> <s_lp_Force_Field>
OPLS_2005

> <r_lp_Energy>
8.6026

> <b_lp_Chiralities_Consistent>
1

> <s_lp_Variant>
AV-unprocessed.smi:2898-2

> <Gold.Version>
5.8.1

> <Gold.Id.Protein>
6NUR|6NUR_protein|mol2

> <Gold.PLP.Fitness>
38.2587

> <Gold.PLP.PLP>
-31.2438

> <Gold.PLP.part.hbond>
-3.0000

> <Gold.PLP.part.metal>
0.0000

> <Gold.PLP.part.buried>
-2.7584

> <Gold.PLP.part.nonpolar>
-25.8949

> <Gold.PLP.part.repulsive>
0.1610

> <Gold.PLP.ligand.clash>
0.8778

> <Gold.PLP.ligand.torsion>
0.5905

> <Gold.PLP.Chemscore.Hbond>
3.0000

> <Gold.PLP.Chemscore.CHOScore>
0.0000

> <Gold.PLP.Chemscore.Metal>
0.0000

> <Gold.Chemscore.Hbonds>
donor molecule, donor type, donor heavy atom, donor atom, acceptor molecule, acceptor atom, score
      P1  H  6896  6909       L1    13  1.00
      P1  H  7989  7998       L1     3  1.00
      P1  H  7997  8010       L1     4  0.86

> <Gold.PLP.Chemscore.Internal.Correction>
0.0737

> <Gold.Rescore>
     Score         DG    S(hbond)    S(metal)    S(lipo)     H(rot)  DE(clash)    DE(int)     intcor
     19.53     -20.24       2.84        0.00      78.45       1.52       0.12       0.59       ----

> <Gold.Chemscore.Fitness>
19.5297

> <Gold.Chemscore.DG>
-20.2424

> <Gold.Chemscore.ZeroCoef>
-5.4800

> <Gold.Chemscore.Hbond>
2.8401

> <Gold.Chemscore.Metal>
0.0000

> <Gold.Chemscore.Lipo>
78.4519

> <Gold.Chemscore.Internal_Hbond>
0.0000

> <Gold.Chemscore.DEClash>
0.1193

> <Gold.Chemscore.DEInternal>
0.5935

> <Gold.Chemscore.Rot>
1.5243

> <Gold.Chemscore.Internal.Correction>
   9.000000E+99

> <Gold.Chemscore.Hbonds>
donor molecule, donor type, donor heavy atom, donor atom, acceptor molecule, acceptor atom, score
      P1  H  6896  6909       L1    13  0.97
      P1  H  7989  7998       L1     3  0.82
      P1  H  7997  8010       L1     4  0.45

> <Gold.Chemscore.Hbond.Weighted>
-9.4858

> <Gold.Chemscore.Metal.Weighted>
-0.0000

> <Gold.Chemscore.Lipo.Weighted>
-9.1789

> <Gold.Chemscore.Internal_Hbond.Weighted>
0.0000

> <Gold.Chemscore.DEClash.Weighted>
0.1193

> <Gold.Chemscore.DEInternal.Weighted>
0.5935

> <Gold.Chemscore.Rot.Weighted>
3.9022

> <Gold.Chemscore.Internal.Correction.Weighted>
   9.000000E+99

> <Gold.Protein.RotatedTorsions>
[ 6907 6896 6895 6894 ] final   49.11 input  -60.11 | X-H torsion
[ 7974 7965 7964 7962 ] final  -42.20 input  175.53 | X-H torsion
[ 8008 7997 7996 7995 ] final   68.98 input   59.86 | X-H torsion
[ 10167 10162 10161 10158 ] final   45.55 input  -65.29 | X-H torsion
[ 10718 10713 10712 10709 ] final -119.99 input   66.30 | X-H torsion
[ 10763 10752 10751 10750 ] final  -32.40 input  -60.55 | X-H torsion
[ 11005 11000 10999 10996 ] final  119.68 input  -57.11 | X-H torsion

> <Gold.Protein.ActiveResidues>
 VAL166  LYS551  ARG553  GLY616  TRP617  ASP618  TYR619  PRO620  LYS621  CYS622 
 ASP623  PHE694  ASN695  SER759  ASP760  ASP761  ALA762  ILE779  LEU786  VAL792 
 PHE793  MET794  SER795  GLU796  ALA797  LYS798  CYS799  TRP800  GLU811  SER814 

> <Gold.Protein.RotatedAtoms>
  152.2871  134.7763  160.0385 H   0  0  0  0  0  0  0  0  0  0  0  0  # atno 6907 bound_to 6896
  151.8322  133.3405  159.3625 H   0  0  0  0  0  0  0  0  0  0  0  0  # atno 6908 bound_to 6896
  150.7214  134.5400  159.5787 H   0  0  0  0  0  0  0  0  0  0  0  0  # atno 6909 bound_to 6896
  146.0139  140.6931  142.9211 H   0  0  0  0  0  0  0  0  0  0  0  0  # atno 7974 bound_to 7965
  155.7166  140.3494  155.4997 H   0  0  0  0  0  0  0  0  0  0  0  0  # atno 8008 bound_to 7997
  155.9308  140.1084  157.1156 H   0  0  0  0  0  0  0  0  0  0  0  0  # atno 8009 bound_to 7997
  154.4085  140.1231  156.4786 H   0  0  0  0  0  0  0  0  0  0  0  0  # atno 8010 bound_to 7997
  140.3230  144.2682  150.6179 H   0  0  0  0  0  0  0  0  0  0  0  0  # atno 10167 bound_to 10162
  156.1223  130.6332  150.9484 H   0  0  0  0  0  0  0  0  0  0  0  0  # atno 10718 bound_to 10713
  153.8131  135.6880  153.4838 H   0  0  0  0  0  0  0  0  0  0  0  0  # atno 10763 bound_to 10752
  153.1616  135.4577  154.9778 H   0  0  0  0  0  0  0  0  0  0  0  0  # atno 10764 bound_to 10752
  154.7959  135.3319  154.7610 H   0  0  0  0  0  0  0  0  0  0  0  0  # atno 10765 bound_to 10752
  139.9155  134.9630  156.7691 H   0  0  0  0  0  0  0  0  0  0  0  0  # atno 11005 bound_to 11000
  144.6963  140.3446  143.7193 LP  0  0  0  0  0  0  0  0  0  0  0  0  # atno 17320 bound_to 7965
  145.7299  139.1733  143.2436 LP  0  0  0  0  0  0  0  0  0  0  0  0  # atno 17321 bound_to 7965
  140.5466  143.2213  151.7996 LP  0  0  0  0  0  0  0  0  0  0  0  0  # atno 17342 bound_to 10162
  139.4870  144.4531  151.9630 LP  0  0  0  0  0  0  0  0  0  0  0  0  # atno 17343 bound_to 10162
  157.6406  131.0910  150.8259 LP  0  0  0  0  0  0  0  0  0  0  0  0  # atno 17370 bound_to 10713
  156.8354  130.5030  149.5327 LP  0  0  0  0  0  0  0  0  0  0  0  0  # atno 17371 bound_to 10713
  140.6635  133.9624  155.7817 LP  0  0  0  0  0  0  0  0  0  0  0  0  # atno 17394 bound_to 11000
  141.0627  134.0322  157.3636 LP  0  0  0  0  0  0  0  0  0  0  0  0  # atno 17395 bound_to 11000

$$$$
