AV-unprocessed.smi:514|AV-procd|sdf|2779|dock3
  -GOLD-   2262023253D 1   1.00000     0.00000
 Structure written by MMmdl.
 44 46  0  0  0  0  0  0  0  0  2 V2000
  148.4588  127.2177  150.6023 C   0  0  0  0  0  0  0  0  0  0  0  0
  147.3104  127.7664  151.4606 C   0  0  0  0  0  0  0  0  0  0  0  0
  147.6930  127.9106  152.8211 O   0  0  0  0  0  0  0  0  0  0  0  0
  148.3528  129.1333  153.1132 C   0  0  0  0  0  0  0  0  0  0  0  0
  147.3083  130.1482  153.6047 C   0  0  0  0  0  0  0  0  0  0  0  0
  147.9115  131.4247  153.9779 N   0  0  0  0  0  0  0  0  0  0  0  0
  147.6310  132.6759  153.5103 C   0  0  0  0  0  0  0  0  0  0  0  0
  146.6723  132.9386  152.5226 N   0  0  0  0  0  0  0  0  0  0  0  0
  146.3144  131.9943  151.4648 C   0  0  0  0  0  0  0  0  0  0  0  0
  146.3411  132.6738  150.0813 C   0  0  0  0  0  0  0  0  0  0  0  0
  145.3687  133.7602  150.0466 N   0  0  0  0  0  0  0  0  0  0  0  0
  145.7168  134.7226  151.0854 C   0  0  0  0  0  0  0  0  0  0  0  0
  145.6941  134.0257  152.4601 C   0  0  0  0  0  0  0  0  0  0  0  0
  148.3263  133.6494  154.1038 N   0  0  0  0  0  0  0  0  0  0  0  0
  149.1278  132.9685  155.0046 C   0  0  0  0  0  0  0  0  0  0  0  0
  148.8900  131.6313  154.9580 C   0  0  0  0  0  0  0  0  0  0  0  0
  149.5689  130.6468  155.8315 C   0  0  0  0  0  0  0  0  0  0  0  0
  149.3066  129.4479  155.7629 O   0  0  0  0  0  0  0  0  0  0  0  0
  150.4710  131.2394  156.6764 N   0  5  0  0  0  0  0  0  0  0  0  0
  150.7453  132.5879  156.7522 C   0  0  0  0  0  0  0  0  0  0  0  0
  151.5686  133.0401  157.5491 O   0  0  0  0  0  0  0  0  0  0  0  0
  150.0904  133.4629  155.9262 N   0  0  0  0  0  0  0  0  0  0  0  0
  150.3617  134.9022  155.9820 C   0  0  0  0  0  0  0  0  0  0  0  0
  148.1786  127.2041  149.5490 H   0  0  0  0  0  0  0  0  0  0  0  0
  148.7251  126.1987  150.8808 H   0  0  0  0  0  0  0  0  0  0  0  0
  149.3502  127.8374  150.7013 H   0  0  0  0  0  0  0  0  0  0  0  0
  147.0385  128.7552  151.0913 H   0  0  0  0  0  0  0  0  0  0  0  0
  146.4180  127.1459  151.3678 H   0  0  0  0  0  0  0  0  0  0  0  0
  149.1164  128.9702  153.8735 H   0  0  0  0  0  0  0  0  0  0  0  0
  148.8661  129.5129  152.2312 H   0  0  0  0  0  0  0  0  0  0  0  0
  146.5458  130.3141  152.8471 H   0  0  0  0  0  0  0  0  0  0  0  0
  146.7643  129.7487  154.4600 H   0  0  0  0  0  0  0  0  0  0  0  0
  147.0166  131.1602  151.4625 H   0  0  0  0  0  0  0  0  0  0  0  0
  145.3302  131.5699  151.6676 H   0  0  0  0  0  0  0  0  0  0  0  0
  147.3378  133.0569  149.8576 H   0  0  0  0  0  0  0  0  0  0  0  0
  146.0915  131.9521  149.3035 H   0  0  0  0  0  0  0  0  0  0  0  0
  145.3948  134.2106  149.1431 H   0  0  0  0  0  0  0  0  0  0  0  0
  146.6965  135.1563  150.8806 H   0  0  0  0  0  0  0  0  0  0  0  0
  144.9941  135.5383  151.0663 H   0  0  0  0  0  0  0  0  0  0  0  0
  144.7003  133.6195  152.6543 H   0  0  0  0  0  0  0  0  0  0  0  0
  145.8665  134.7523  153.2475 H   0  0  0  0  0  0  0  0  0  0  0  0
  150.0419  135.3109  156.9412 H   0  0  0  0  0  0  0  0  0  0  0  0
  149.8460  135.4571  155.1988 H   0  0  0  0  0  0  0  0  0  0  0  0
  151.4283  135.0992  155.8649 H   0  0  0  0  0  0  0  0  0  0  0  0
  1  2  1  0  0  0  0
  1 24  1  0  0  0  0
  1 25  1  0  0  0  0
  1 26  1  0  0  0  0
  2  3  1  0  0  0  0
  2 27  1  0  0  0  0
  2 28  1  0  0  0  0
  3  4  1  0  0  0  0
  4  5  1  0  0  0  0
  4 29  1  0  0  0  0
  4 30  1  0  0  0  0
  5  6  1  0  0  0  0
  5 31  1  0  0  0  0
  5 32  1  0  0  0  0
  6 16  1  0  0  0  0
  6  7  1  0  0  0  0
  7  8  1  0  0  0  0
  7 14  2  0  0  0  0
  8 13  1  0  0  0  0
  8  9  1  0  0  0  0
  9 10  1  0  0  0  0
  9 33  1  0  0  0  0
  9 34  1  0  0  0  0
 10 11  1  0  0  0  0
 10 35  1  0  0  0  0
 10 36  1  0  0  0  0
 11 12  1  0  0  0  0
 11 37  1  0  0  0  0
 12 13  1  0  0  0  0
 12 38  1  0  0  0  0
 12 39  1  0  0  0  0
 13 40  1  0  0  0  0
 13 41  1  0  0  0  0
 14 15  1  0  0  0  0
 15 22  1  0  0  0  0
 15 16  2  0  0  0  0
 16 17  1  0  0  0  0
 17 18  2  0  0  0  0
 17 19  1  0  0  0  0
 19 20  1  0  0  0  0
 20 21  2  0  0  0  0
 20 22  1  0  0  0  0
 22 23  1  0  0  0  0
 23 42  1  0  0  0  0
 23 43  1  0  0  0  0
 23 44  1  0  0  0  0
M  CHG  1  19  -1
M  END
> <s_m_source_file>
AV-unprocessed.smi

> <i_m_source_file_index>
514

> <i_lp_mmshare_version>
43012

> <i_f3d_flags>
0

> <s_epik_input>
W0NIM11uMWMoPU8pW25IXWMoPU8pYyhjMTIpbihbQ0gyXVtDSDJdT1tDSDJdW0NIM10pYyhuMilOM1tDSDJdW0NIMl1bTkhdW0NIMl1bQ0gyXTM=

> <s_epik_cmdline>
J2VwaWtfcHl0aG9uJywgJy1waCcsICc3LjAnLCAnLXRuJywgJzgnLCAnLW1hJywgJzIwMCcsICctbWV0YWxfYmluZGluZycsICctaW1hZScsICc8aW5maWxlLm1hZT4nLCAnLW9tYWUnLCAnPG91dGZpbGUubWFlPic=

> <r_epik_Ionization_Penalty>
8.82895

> <r_epik_Ionization_Penalty_Charging>
0.0771612

> <r_epik_Ionization_Penalty_Neutral>
8.75178

> <r_epik_State_Penalty>
8.91747

> <r_epik_Charging_Adjusted_Penalty>
8.99464

> <i_epik_Tot_Q>
-1

> <i_epik_Tot_abs_Q>
1

> <r_epik_Metal_State_Penalty>
4.86816

> <b_epik_Metal_Only>
1

> <s_lp_Force_Field>
OPLS_2005

> <r_lp_Energy>
52.9187

> <b_lp_Chiralities_Consistent>
1

> <s_lp_Variant>
AV-unprocessed.smi:514-4

> <Gold.Version>
5.8.1

> <Gold.Id.Protein>
6NUR|6NUR_protein|mol2

> <Gold.PLP.Fitness>
42.1109

> <Gold.PLP.PLP>
-39.1615

> <Gold.PLP.part.hbond>
-2.0000

> <Gold.PLP.part.metal>
0.0000

> <Gold.PLP.part.buried>
-4.0072

> <Gold.PLP.part.nonpolar>
-34.1046

> <Gold.PLP.part.repulsive>
0.2348

> <Gold.PLP.ligand.clash>
0.1393

> <Gold.PLP.ligand.torsion>
0.8610

> <Gold.PLP.Chemscore.Hbond>
1.5780

> <Gold.PLP.Chemscore.CHOScore>
0.0000

> <Gold.PLP.Chemscore.Metal>
0.0000

> <Gold.Chemscore.Hbonds>
donor molecule, donor type, donor heavy atom, donor atom, acceptor molecule, acceptor atom, score
      L1  H    11    37       P1  7921  1.00
      P1  H  6896  6908       L1    21  0.67

> <Gold.PLP.Chemscore.Internal.Correction>
0.0767

> <Gold.Rescore>
     Score         DG    S(hbond)    S(metal)    S(lipo)     H(rot)  DE(clash)    DE(int)     intcor
     11.25     -13.41       1.43        0.00      63.93       1.70       0.04       2.12       ----

> <Gold.Chemscore.Fitness>
11.2496

> <Gold.Chemscore.DG>
-13.4128

> <Gold.Chemscore.ZeroCoef>
-5.4800

> <Gold.Chemscore.Hbond>
1.4350

> <Gold.Chemscore.Metal>
0.0000

> <Gold.Chemscore.Lipo>
63.9303

> <Gold.Chemscore.Internal_Hbond>
0.0000

> <Gold.Chemscore.DEClash>
0.0392

> <Gold.Chemscore.DEInternal>
2.1240

> <Gold.Chemscore.Rot>
1.6953

> <Gold.Chemscore.Internal.Correction>
   9.000000E+99

> <Gold.Chemscore.Hbonds>
donor molecule, donor type, donor heavy atom, donor atom, acceptor molecule, acceptor atom, score
      L1  H    11    37       P1  7921  0.91
      P1  H  6896  6908       L1    21  0.66

> <Gold.Chemscore.Hbond.Weighted>
-4.7929

> <Gold.Chemscore.Metal.Weighted>
-0.0000

> <Gold.Chemscore.Lipo.Weighted>
-7.4798

> <Gold.Chemscore.Internal_Hbond.Weighted>
0.0000

> <Gold.Chemscore.DEClash.Weighted>
0.0392

> <Gold.Chemscore.DEInternal.Weighted>
2.1240

> <Gold.Chemscore.Rot.Weighted>
4.3399

> <Gold.Chemscore.Internal.Correction.Weighted>
   9.000000E+99

> <Gold.Protein.RotatedTorsions>
[ 6907 6896 6895 6894 ] final   51.59 input  -60.11 | X-H torsion
[ 7974 7965 7964 7962 ] final   26.07 input  175.53 | X-H torsion
[ 8008 7997 7996 7995 ] final -156.10 input   59.86 | X-H torsion
[ 10167 10162 10161 10158 ] final -149.58 input  -65.29 | X-H torsion
[ 10718 10713 10712 10709 ] final   51.76 input   66.30 | X-H torsion
[ 10763 10752 10751 10750 ] final -155.43 input  -60.55 | X-H torsion
[ 11005 11000 10999 10996 ] final -173.51 input  -57.11 | X-H torsion

> <Gold.Protein.ActiveResidues>
 VAL166  LYS551  ARG553  GLY616  TRP617  ASP618  TYR619  PRO620  LYS621  CYS622 
 ASP623  PHE694  ASN695  SER759  ASP760  ASP761  ALA762  ILE779  LEU786  VAL792 
 PHE793  MET794  SER795  GLU796  ALA797  LYS798  CYS799  TRP800  GLU811  SER814 

> <Gold.Protein.RotatedAtoms>
  152.3143  134.7459  160.0328 H   0  0  0  0  0  0  0  0  0  0  0  0  # atno 6907 bound_to 6896
  151.7929  133.3356  159.3512 H   0  0  0  0  0  0  0  0  0  0  0  0  # atno 6908 bound_to 6896
  150.7336  134.5756  159.5957 H   0  0  0  0  0  0  0  0  0  0  0  0  # atno 6909 bound_to 6896
  146.1856  139.7379  142.8869 H   0  0  0  0  0  0  0  0  0  0  0  0  # atno 7974 bound_to 7965
  155.7120  140.0779  157.2367 H   0  0  0  0  0  0  0  0  0  0  0  0  # atno 8008 bound_to 7997
  154.4057  140.1628  156.2361 H   0  0  0  0  0  0  0  0  0  0  0  0  # atno 8009 bound_to 7997
  155.9274  140.3393  155.6224 H   0  0  0  0  0  0  0  0  0  0  0  0  # atno 8010 bound_to 7997
  139.7430  143.8633  152.2567 H   0  0  0  0  0  0  0  0  0  0  0  0  # atno 10167 bound_to 10162
  157.5011  130.8439  149.8318 H   0  0  0  0  0  0  0  0  0  0  0  0  # atno 10718 bound_to 10713
  154.7788  135.3168  154.8035 H   0  0  0  0  0  0  0  0  0  0  0  0  # atno 10763 bound_to 10752
  153.8752  135.6840  153.4775 H   0  0  0  0  0  0  0  0  0  0  0  0  # atno 10764 bound_to 10752
  153.1418  135.4736  154.9444 H   0  0  0  0  0  0  0  0  0  0  0  0  # atno 10765 bound_to 10752
  140.4850  134.6039  157.4933 H   0  0  0  0  0  0  0  0  0  0  0  0  # atno 11005 bound_to 11000
  145.3947  141.0377  143.3104 LP  0  0  0  0  0  0  0  0  0  0  0  0  # atno 17320 bound_to 7965
  144.8392  139.5500  143.6908 LP  0  0  0  0  0  0  0  0  0  0  0  0  # atno 17321 bound_to 7965
  139.8589  144.7127  150.9123 LP  0  0  0  0  0  0  0  0  0  0  0  0  # atno 17342 bound_to 10162
  140.7788  143.3834  151.1436 LP  0  0  0  0  0  0  0  0  0  0  0  0  # atno 17343 bound_to 10162
  156.0230  130.3789  150.1905 LP  0  0  0  0  0  0  0  0  0  0  0  0  # atno 17370 bound_to 10713
  157.0095  130.9947  151.3369 LP  0  0  0  0  0  0  0  0  0  0  0  0  # atno 17371 bound_to 10713
  139.9804  134.7147  155.9871 LP  0  0  0  0  0  0  0  0  0  0  0  0  # atno 17394 bound_to 11000
  141.1513  133.6548  156.4021 LP  0  0  0  0  0  0  0  0  0  0  0  0  # atno 17395 bound_to 11000

$$$$
