AV-unprocessed.smi:1795|AV-procd|sdf|7245|dock4
  -GOLD-   22720 8493D 1   1.00000     0.00000
 Structure written by MMmdl.
 48 49  0  0  0  0  0  0  0  0  2 V2000
  145.8105  131.8133  149.8779 C   0  0  0  0  0  0  0  0  0  0  0  0
  146.1312  133.1017  150.6437 C   0  0  2  0  0  0  0  0  0  0  0  0
  146.7709  132.8149  152.0128 C   0  0  0  0  0  0  0  0  0  0  0  0
  147.0117  134.0759  152.7628 N   0  3  2  0  0  0  0  0  0  0  0  0
  147.7905  133.8535  154.0253 C   0  0  1  0  0  0  0  0  0  0  0  0
  149.1597  133.2205  153.6871 C   0  0  0  0  0  0  0  0  0  0  0  0
  147.9709  135.1343  154.8872 C   0  0  0  0  0  0  0  0  0  0  0  0
  149.0915  135.9586  154.4416 N   0  0  0  0  0  0  0  0  0  0  0  0
  150.1663  136.2782  155.1792 C   0  0  0  0  0  0  0  0  0  0  0  0
  150.3454  135.8686  156.3267 O   0  0  0  0  0  0  0  0  0  0  0  0
  151.1927  137.2019  154.5092 C   0  0  0  0  0  0  0  0  0  0  0  0
  150.8029  138.6215  154.5465 N   0  0  0  0  0  0  0  0  0  0  0  0
  149.6155  138.9812  153.8782 C   0  0  0  0  0  0  0  0  0  0  0  0
  149.1686  140.2469  153.8567 C   0  0  0  0  0  0  0  0  0  0  0  0
  149.9404  141.2557  154.5430 C   0  0  0  0  0  0  0  0  0  0  0  0
  151.0790  140.9233  155.1831 C   0  0  0  0  0  0  0  0  0  0  0  0
  151.5713  139.5412  155.2096 C   0  0  0  0  0  0  0  0  0  0  0  0
  152.6107  139.2281  155.7918 O   0  0  0  0  0  0  0  0  0  0  0  0
  145.7270  134.8144  152.9059 C   0  0  0  0  0  0  0  0  0  0  0  0
  145.0469  135.0420  151.5406 C   0  0  1  0  0  0  0  0  0  0  0  0
  145.7294  136.1280  150.6892 C   0  0  0  0  0  0  0  0  0  0  0  0
  144.9116  133.8098  150.8364 O   0  0  0  0  0  0  0  0  0  0  0  0
  146.7140  131.2333  149.6884 H   0  0  0  0  0  0  0  0  0  0  0  0
  145.3522  132.0369  148.9142 H   0  0  0  0  0  0  0  0  0  0  0  0
  145.1186  131.1821  150.4362 H   0  0  0  0  0  0  0  0  0  0  0  0
  146.8144  133.6939  150.0346 H   0  0  0  0  0  0  0  0  0  0  0  0
  146.1217  132.1628  152.5998 H   0  0  0  0  0  0  0  0  0  0  0  0
  147.6995  132.2691  151.8552 H   0  0  0  0  0  0  0  0  0  0  0  0
  147.2295  133.1433  154.6355 H   0  0  0  0  0  0  0  0  0  0  0  0
  149.7113  132.9453  154.5855 H   0  0  0  0  0  0  0  0  0  0  0  0
  149.7813  133.9129  153.1183 H   0  0  0  0  0  0  0  0  0  0  0  0
  149.0704  132.3061  153.1040 H   0  0  0  0  0  0  0  0  0  0  0  0
  147.0455  135.7124  154.9080 H   0  0  0  0  0  0  0  0  0  0  0  0
  148.1975  134.8712  155.9204 H   0  0  0  0  0  0  0  0  0  0  0  0
  149.0349  136.3348  153.5061 H   0  0  0  0  0  0  0  0  0  0  0  0
  152.1550  137.0483  154.9994 H   0  0  0  0  0  0  0  0  0  0  0  0
  151.3454  136.8929  153.4730 H   0  0  0  0  0  0  0  0  0  0  0  0
  149.0989  138.1706  153.3850 H   0  0  0  0  0  0  0  0  0  0  0  0
  148.2569  140.5045  153.3378 H   0  0  0  0  0  0  0  0  0  0  0  0
  149.6038  142.2820  154.5422 H   0  0  0  0  0  0  0  0  0  0  0  0
  151.6438  141.6915  155.6907 H   0  0  0  0  0  0  0  0  0  0  0  0
  145.0617  134.2477  153.5596 H   0  0  0  0  0  0  0  0  0  0  0  0
  145.8774  135.7904  153.3664 H   0  0  0  0  0  0  0  0  0  0  0  0
  144.0313  135.3893  151.7323 H   0  0  0  0  0  0  0  0  0  0  0  0
  145.6984  137.0927  151.1965 H   0  0  0  0  0  0  0  0  0  0  0  0
  145.2233  136.2455  149.7308 H   0  0  0  0  0  0  0  0  0  0  0  0
  146.7766  135.9027  150.4899 H   0  0  0  0  0  0  0  0  0  0  0  0
  147.5949  134.6582  152.1786 H   0  0  0  0  0  0  0  0  0  0  0  0
  1  2  1  0  0  0  0
  1 23  1  0  0  0  0
  1 24  1  0  0  0  0
  1 25  1  0  0  0  0
  2 22  1  0  0  0  0
  2  3  1  0  0  0  0
  2 26  1  0  0  0  0
  3  4  1  0  0  0  0
  3 27  1  0  0  0  0
  3 28  1  0  0  0  0
  4  5  1  0  0  0  0
  4 19  1  0  0  0  0
  4 48  1  0  0  0  0
  5  6  1  0  0  0  0
  5  7  1  0  0  0  0
  5 29  1  0  0  0  0
  6 30  1  0  0  0  0
  6 31  1  0  0  0  0
  6 32  1  0  0  0  0
  7  8  1  0  0  0  0
  7 33  1  0  0  0  0
  7 34  1  0  0  0  0
  8  9  1  0  0  0  0
  8 35  1  0  0  0  0
  9 10  2  0  0  0  0
  9 11  1  0  0  0  0
 11 12  1  0  0  0  0
 11 36  1  0  0  0  0
 11 37  1  0  0  0  0
 12 17  1  0  0  0  0
 12 13  1  0  0  0  0
 13 14  2  0  0  0  0
 13 38  1  0  0  0  0
 14 15  1  0  0  0  0
 14 39  1  0  0  0  0
 15 16  2  0  0  0  0
 15 40  1  0  0  0  0
 16 17  1  0  0  0  0
 16 41  1  0  0  0  0
 17 18  2  0  0  0  0
 19 20  1  0  0  0  0
 19 42  1  0  0  0  0
 19 43  1  0  0  0  0
 20 21  1  0  0  0  0
 20 22  1  0  0  0  0
 20 44  1  0  0  0  0
 21 45  1  0  0  0  0
 21 46  1  0  0  0  0
 21 47  1  0  0  0  0
M  CHG  1   4   1
M  END
> <s_m_source_file>
AV-unprocessed.smi

> <i_m_source_file_index>
1795

> <i_lp_mmshare_version>
43012

> <i_f3d_flags>
0

> <s_epik_input>
W0NIM11bQ0BASF0xW0NIMl1OKFtDSDJdW0NASF0oTzEpW0NIM10pW0NASF0oW0NIM10pW0NIMl1bTkhdQyg9TylbQ0gyXW4yW2NIXVtjSF1bY0hdW2NIXWMyPU8=

> <s_epik_cmdline>
J2VwaWtfcHl0aG9uJywgJy1waCcsICc3LjAnLCAnLXRuJywgJzgnLCAnLW1hJywgJzIwMCcsICctbWV0YWxfYmluZGluZycsICctaW1hZScsICc8aW5maWxlLm1hZT4nLCAnLW9tYWUnLCAnPG91dGZpbGUubWFlPic=

> <r_lp_tautomer_probability>
1

> <r_epik_Ionization_Penalty>
0.656654

> <r_epik_Ionization_Penalty_Charging>
0.656654

> <r_epik_Ionization_Penalty_Neutral>
8.90321e-08

> <r_epik_State_Penalty>
0.675641

> <r_epik_Charging_Adjusted_Penalty>
1.33229

> <i_epik_Tot_Q>
1

> <i_epik_Tot_abs_Q>
1

> <r_epik_Metal_State_Penalty>
0.675691

> <b_epik_Metal_Only>
0

> <s_lp_Force_Field>
OPLS_2005

> <r_lp_Energy>
30.7176

> <b_lp_Chiralities_Consistent>
1

> <s_lp_Variant>
AV-unprocessed.smi:1795-9

> <Gold.Version>
5.8.1

> <Gold.Id.Protein>
6NUR|6NUR_protein|mol2

> <Gold.PLP.Fitness>
55.3633

> <Gold.PLP.PLP>
-41.4251

> <Gold.PLP.part.hbond>
-3.0000

> <Gold.PLP.part.metal>
0.0000

> <Gold.PLP.part.buried>
-0.3575

> <Gold.PLP.part.nonpolar>
-37.7931

> <Gold.PLP.part.repulsive>
0.1672

> <Gold.PLP.ligand.clash>
0.0000

> <Gold.PLP.ligand.torsion>
0.5468

> <Gold.PLP.Chemscore.Hbond>
4.0000

> <Gold.PLP.Chemscore.CHOScore>
0.9826

> <Gold.PLP.Chemscore.Metal>
0.0000

> <Gold.Chemscore.Hbonds>
donor molecule, donor type, donor heavy atom, donor atom, acceptor molecule, acceptor atom, score
      L1  H     4    48       P1  7948  1.85
      L1  H     8    35       P1  7948  1.00
      P1  H  7997  8008       L1    18  1.00
      L1  C    13    38       P1  7948  1.00

> <Gold.PLP.Chemscore.Internal.Correction>
0.0839

> <Gold.Rescore>
     Score         DG    S(hbond)    S(metal)    S(lipo)     H(rot)  DE(clash)    DE(int)     intcor
     19.23     -20.40       2.82        0.00      88.25       1.89       0.44       0.74       ----

> <Gold.Chemscore.Fitness>
19.2255

> <Gold.Chemscore.DG>
-20.4036

> <Gold.Chemscore.ZeroCoef>
-5.4800

> <Gold.Chemscore.Hbond>
2.8232

> <Gold.Chemscore.Metal>
0.0000

> <Gold.Chemscore.Lipo>
88.2472

> <Gold.Chemscore.Internal_Hbond>
0.0000

> <Gold.Chemscore.DEClash>
0.4378

> <Gold.Chemscore.DEInternal>
0.7403

> <Gold.Chemscore.Rot>
1.8870

> <Gold.Chemscore.Internal.Correction>
   9.000000E+99

> <Gold.Chemscore.Hbonds>
donor molecule, donor type, donor heavy atom, donor atom, acceptor molecule, acceptor atom, score
      L1  H     4    48       P1  7948  0.61
      L1  H     8    35       P1  7948  0.96
      P1  H  7997  8008       L1    18  0.95

> <Gold.Chemscore.Hbond.Weighted>
-9.4294

> <Gold.Chemscore.Metal.Weighted>
-0.0000

> <Gold.Chemscore.Lipo.Weighted>
-10.3249

> <Gold.Chemscore.Internal_Hbond.Weighted>
0.0000

> <Gold.Chemscore.DEClash.Weighted>
0.4378

> <Gold.Chemscore.DEInternal.Weighted>
0.7403

> <Gold.Chemscore.Rot.Weighted>
4.8308

> <Gold.Chemscore.Internal.Correction.Weighted>
   9.000000E+99

> <Gold.Protein.RotatedTorsions>
[ 6907 6896 6895 6894 ] final -103.33 input  -60.11 | X-H torsion
[ 7974 7965 7964 7962 ] final  -64.19 input  175.53 | X-H torsion
[ 8008 7997 7996 7995 ] final  -40.50 input   59.86 | X-H torsion
[ 10167 10162 10161 10158 ] final  -80.73 input  -65.29 | X-H torsion
[ 10718 10713 10712 10709 ] final -170.49 input   66.30 | X-H torsion
[ 10763 10752 10751 10750 ] final  170.92 input  -60.55 | X-H torsion
[ 11005 11000 10999 10996 ] final  -50.50 input  -57.11 | X-H torsion

> <Gold.Protein.ActiveResidues>
 VAL166  LYS551  ARG553  GLY616  TRP617  ASP618  TYR619  PRO620  LYS621  CYS622 
 ASP623  PHE694  ASN695  SER759  ASP760  ASP761  ALA762  ILE779  LEU786  VAL792 
 PHE793  MET794  SER795  GLU796  ALA797  LYS798  CYS799  TRP800  GLU811  SER814 

> <Gold.Protein.RotatedAtoms>
  150.7235  134.0446  159.3777 H   0  0  0  0  0  0  0  0  0  0  0  0  # atno 6907 bound_to 6896
  151.8421  135.0584  160.0458 H   0  0  0  0  0  0  0  0  0  0  0  0  # atno 6908 bound_to 6896
  152.2855  133.5475  159.5561 H   0  0  0  0  0  0  0  0  0  0  0  0  # atno 6909 bound_to 6896
  145.7698  140.8818  143.0386 H   0  0  0  0  0  0  0  0  0  0  0  0  # atno 7974 bound_to 7965
  154.4011  140.1523  156.3038 H   0  0  0  0  0  0  0  0  0  0  0  0  # atno 8008 bound_to 7997
  155.8677  140.3450  155.5778 H   0  0  0  0  0  0  0  0  0  0  0  0  # atno 8009 bound_to 7997
  155.7809  140.0843  157.2050 H   0  0  0  0  0  0  0  0  0  0  0  0  # atno 8010 bound_to 7997
  140.4476  143.2493  151.8535 H   0  0  0  0  0  0  0  0  0  0  0  0  # atno 10167 bound_to 10162
  156.7270  130.9291  151.3101 H   0  0  0  0  0  0  0  0  0  0  0  0  # atno 10718 bound_to 10713
  154.4046  135.2755  155.2075 H   0  0  0  0  0  0  0  0  0  0  0  0  # atno 10763 bound_to 10752
  154.4087  135.6027  153.5943 H   0  0  0  0  0  0  0  0  0  0  0  0  # atno 10764 bound_to 10752
  152.9831  135.5944  154.4318 H   0  0  0  0  0  0  0  0  0  0  0  0  # atno 10765 bound_to 10752
  141.0819  133.6651  156.3740 H   0  0  0  0  0  0  0  0  0  0  0  0  # atno 11005 bound_to 11000
  144.6815  139.9840  143.7483 LP  0  0  0  0  0  0  0  0  0  0  0  0  # atno 17320 bound_to 7965
  146.0181  139.3227  143.0829 LP  0  0  0  0  0  0  0  0  0  0  0  0  # atno 17321 bound_to 7965
  139.4794  144.5157  151.8871 LP  0  0  0  0  0  0  0  0  0  0  0  0  # atno 17342 bound_to 10162
  140.4245  144.2199  150.5887 LP  0  0  0  0  0  0  0  0  0  0  0  0  # atno 17343 bound_to 10162
  157.6875  130.9200  150.0424 LP  0  0  0  0  0  0  0  0  0  0  0  0  # atno 17370 bound_to 10713
  156.1555  130.3643  149.9375 LP  0  0  0  0  0  0  0  0  0  0  0  0  # atno 17371 bound_to 10713
  140.5448  134.6085  157.5390 LP  0  0  0  0  0  0  0  0  0  0  0  0  # atno 17394 bound_to 11000
  139.9634  134.7414  156.0189 LP  0  0  0  0  0  0  0  0  0  0  0  0  # atno 17395 bound_to 11000

$$$$
