AV-unprocessed.smi:345|AV-procd|sdf|2391|dock9
  -GOLD-   2262022323D 1   1.00000     0.00000
 Structure written by MMmdl.
 34 36  0  0  0  0  0  0  0  0  1 V2000
  148.6175  130.1283  154.7526 C   0  0  0  0  0  0  0  0  0  0  0  0
  148.8840  131.5797  154.9609 C   0  0  0  0  0  0  0  0  0  0  0  0
  148.8373  132.6636  154.1296 C   0  0  0  0  0  0  0  0  0  0  0  0
  149.1980  133.7385  154.9848 C   0  0  0  0  0  0  0  0  0  0  0  0
  149.2589  135.0683  154.4957 N   0  0  0  0  0  0  0  0  0  0  0  0
  149.7316  136.1541  155.1310 C   0  0  0  0  0  0  0  0  0  0  0  0
  150.2266  136.1553  156.2584 O   0  0  0  0  0  0  0  0  0  0  0  0
  149.5954  137.2552  154.3771 N   0  0  0  0  0  0  0  0  0  0  0  0
  149.9813  138.6075  154.7673 C   0  0  0  0  0  0  0  0  0  0  0  0
  149.3929  139.6692  153.8512 C   0  0  0  0  0  0  0  0  0  0  0  0
  149.3787  141.1276  154.2456 C   0  0  0  0  0  0  0  0  0  0  0  0
  148.0838  140.3526  154.1703 C   0  0  0  0  0  0  0  0  0  0  0  0
  151.4907  138.7550  154.8377 C   0  0  0  0  0  0  0  0  0  0  0  0
  152.2611  138.3263  156.0635 C   0  0  0  0  0  0  0  0  0  0  0  0
  152.1423  139.7940  155.7197 C   0  0  0  0  0  0  0  0  0  0  0  0
  149.4491  133.3458  156.2242 N   0  0  0  0  0  0  0  0  0  0  0  0
  149.2489  131.9603  156.2152 O   0  0  0  0  0  0  0  0  0  0  0  0
  148.4068  129.9170  153.7041 H   0  0  0  0  0  0  0  0  0  0  0  0
  147.7581  129.8061  155.3406 H   0  0  0  0  0  0  0  0  0  0  0  0
  149.4774  129.5295  155.0531 H   0  0  0  0  0  0  0  0  0  0  0  0
  148.5814  132.6817  153.0806 H   0  0  0  0  0  0  0  0  0  0  0  0
  148.8857  135.2113  153.5691 H   0  0  0  0  0  0  0  0  0  0  0  0
  149.1828  137.1531  153.4614 H   0  0  0  0  0  0  0  0  0  0  0  0
  149.5982  138.7909  155.7736 H   0  0  0  0  0  0  0  0  0  0  0  0
  149.5762  139.4757  152.7956 H   0  0  0  0  0  0  0  0  0  0  0  0
  149.7413  141.3936  155.2361 H   0  0  0  0  0  0  0  0  0  0  0  0
  149.5735  141.8603  153.4653 H   0  0  0  0  0  0  0  0  0  0  0  0
  147.4152  140.5667  153.3391 H   0  0  0  0  0  0  0  0  0  0  0  0
  147.5943  140.1073  155.1106 H   0  0  0  0  0  0  0  0  0  0  0  0
  151.9864  138.5745  153.8853 H   0  0  0  0  0  0  0  0  0  0  0  0
  151.6945  137.9647  156.9193 H   0  0  0  0  0  0  0  0  0  0  0  0
  153.2273  137.8505  155.9088 H   0  0  0  0  0  0  0  0  0  0  0  0
  153.0274  140.2949  155.3330 H   0  0  0  0  0  0  0  0  0  0  0  0
  151.5017  140.4028  156.3542 H   0  0  0  0  0  0  0  0  0  0  0  0
  1  2  1  0  0  0  0
  1 18  1  0  0  0  0
  1 19  1  0  0  0  0
  1 20  1  0  0  0  0
  2 17  1  0  0  0  0
  2  3  2  0  0  0  0
  3  4  1  0  0  0  0
  3 21  1  0  0  0  0
  4  5  1  0  0  0  0
  4 16  2  0  0  0  0
  5  6  1  0  0  0  0
  5 22  1  0  0  0  0
  6  7  2  0  0  0  0
  6  8  1  0  0  0  0
  8  9  1  0  0  0  0
  8 23  1  0  0  0  0
  9 10  1  0  0  0  0
  9 13  1  0  0  0  0
  9 24  1  0  0  0  0
 10 12  1  0  0  0  0
 10 11  1  0  0  0  0
 10 25  1  0  0  0  0
 11 12  1  0  0  0  0
 11 26  1  0  0  0  0
 11 27  1  0  0  0  0
 12 28  1  0  0  0  0
 12 29  1  0  0  0  0
 13 15  1  0  0  0  0
 13 14  1  0  0  0  0
 13 30  1  0  0  0  0
 14 15  1  0  0  0  0
 14 31  1  0  0  0  0
 14 32  1  0  0  0  0
 15 33  1  0  0  0  0
 15 34  1  0  0  0  0
 16 17  1  0  0  0  0
M  END
> <s_m_source_file>
AV-unprocessed.smi

> <i_m_source_file_index>
345

> <i_lp_mmshare_version>
43012

> <i_f3d_flags>
0

> <s_epik_input>
W0NIM11jMVtjSF1jKG5vMSlbTkhdQyg9TylbTkhdW0NIXShbQ0hdMltDSDJdW0NIMl0yKVtDSF0zW0NIMl1bQ0gyXTM=

> <s_epik_cmdline>
J2VwaWtfcHl0aG9uJywgJy1waCcsICc3LjAnLCAnLXRuJywgJzgnLCAnLW1hJywgJzIwMCcsICctbWV0YWxfYmluZGluZycsICctaW1hZScsICc8aW5maWxlLm1hZT4nLCAnLW9tYWUnLCAnPG91dGZpbGUubWFlPic=

> <r_lp_tautomer_probability>
1

> <r_epik_Ionization_Penalty>
2.39082e-05

> <r_epik_Ionization_Penalty_Charging>
0

> <r_epik_Ionization_Penalty_Neutral>
2.39082e-05

> <r_epik_State_Penalty>
-0

> <r_epik_Charging_Adjusted_Penalty>
0

> <i_epik_Tot_Q>
0

> <i_epik_Tot_abs_Q>
0

> <r_epik_Metal_State_Penalty>
-0

> <b_epik_Metal_Only>
0

> <s_lp_Force_Field>
OPLS_2005

> <r_lp_Energy>
21.3823

> <b_lp_Chiralities_Consistent>
1

> <s_lp_Variant>
AV-unprocessed.smi:345-1

> <Gold.Version>
5.8.1

> <Gold.Id.Protein>
6NUR|6NUR_protein|mol2

> <Gold.PLP.Fitness>
36.1432

> <Gold.PLP.PLP>
-30.6549

> <Gold.PLP.part.hbond>
-2.0000

> <Gold.PLP.part.metal>
0.0000

> <Gold.PLP.part.buried>
-0.1023

> <Gold.PLP.part.nonpolar>
-27.7079

> <Gold.PLP.part.repulsive>
0.1003

> <Gold.PLP.ligand.clash>
0.0000

> <Gold.PLP.ligand.torsion>
1.2392

> <Gold.PLP.Chemscore.Hbond>
1.9520

> <Gold.PLP.Chemscore.CHOScore>
0.0000

> <Gold.PLP.Chemscore.Metal>
0.0000

> <Gold.Chemscore.Hbonds>
donor molecule, donor type, donor heavy atom, donor atom, acceptor molecule, acceptor atom, score
      L1  H     5    22       P1  7948  0.96
      L1  H     8    23       P1  7948  1.00

> <Gold.PLP.Chemscore.Internal.Correction>
2.1107

> <Gold.Rescore>
     Score         DG    S(hbond)    S(metal)    S(lipo)     H(rot)  DE(clash)    DE(int)     intcor
     11.29     -13.86       1.44        0.00      61.47       1.42       0.02       2.55       ----

> <Gold.Chemscore.Fitness>
11.2852

> <Gold.Chemscore.DG>
-13.8601

> <Gold.Chemscore.ZeroCoef>
-5.4800

> <Gold.Chemscore.Hbond>
1.4429

> <Gold.Chemscore.Metal>
0.0000

> <Gold.Chemscore.Lipo>
61.4660

> <Gold.Chemscore.Internal_Hbond>
0.0000

> <Gold.Chemscore.DEClash>
0.0234

> <Gold.Chemscore.DEInternal>
2.5515

> <Gold.Chemscore.Rot>
1.4183

> <Gold.Chemscore.Internal.Correction>
   9.000000E+99

> <Gold.Chemscore.Hbonds>
donor molecule, donor type, donor heavy atom, donor atom, acceptor molecule, acceptor atom, score
      L1  H     5    22       P1  7948  0.59
      L1  H     8    23       P1  7948  0.95

> <Gold.Chemscore.Hbond.Weighted>
-4.8193

> <Gold.Chemscore.Metal.Weighted>
-0.0000

> <Gold.Chemscore.Lipo.Weighted>
-7.1915

> <Gold.Chemscore.Internal_Hbond.Weighted>
0.0000

> <Gold.Chemscore.DEClash.Weighted>
0.0234

> <Gold.Chemscore.DEInternal.Weighted>
2.5515

> <Gold.Chemscore.Rot.Weighted>
3.6308

> <Gold.Chemscore.Internal.Correction.Weighted>
   9.000000E+99

> <Gold.Protein.RotatedTorsions>
[ 6907 6896 6895 6894 ] final   71.07 input  -60.11 | X-H torsion
[ 7974 7965 7964 7962 ] final   11.51 input  175.53 | X-H torsion
[ 8008 7997 7996 7995 ] final  138.22 input   59.86 | X-H torsion
[ 10167 10162 10161 10158 ] final  -31.90 input  -65.29 | X-H torsion
[ 10718 10713 10712 10709 ] final  -78.55 input   66.30 | X-H torsion
[ 10763 10752 10751 10750 ] final -114.33 input  -60.55 | X-H torsion
[ 11005 11000 10999 10996 ] final   91.08 input  -57.11 | X-H torsion

> <Gold.Protein.ActiveResidues>
 VAL166  LYS551  ARG553  GLY616  TRP617  ASP618  TYR619  PRO620  LYS621  CYS622 
 ASP623  PHE694  ASN695  SER759  ASP760  ASP761  ALA762  ILE779  LEU786  VAL792 
 PHE793  MET794  SER795  GLU796  ALA797  LYS798  CYS799  TRP800  GLU811  SER814 

> <Gold.Protein.RotatedAtoms>
  152.4788  134.4775  159.9654 H   0  0  0  0  0  0  0  0  0  0  0  0  # atno 6907 bound_to 6896
  151.4785  133.3546  159.2842 H   0  0  0  0  0  0  0  0  0  0  0  0  # atno 6908 bound_to 6896
  150.8845  134.8267  159.7310 H   0  0  0  0  0  0  0  0  0  0  0  0  # atno 6909 bound_to 6896
  146.2369  139.9475  142.8475 H   0  0  0  0  0  0  0  0  0  0  0  0  # atno 7974 bound_to 7965
  156.2998  140.2399  156.4038 H   0  0  0  0  0  0  0  0  0  0  0  0  # atno 8008 bound_to 7997
  154.8503  140.0424  157.1620 H   0  0  0  0  0  0  0  0  0  0  0  0  # atno 8009 bound_to 7997
  154.9006  140.2976  155.5324 H   0  0  0  0  0  0  0  0  0  0  0  0  # atno 8010 bound_to 7997
  140.7229  143.3736  151.1732 H   0  0  0  0  0  0  0  0  0  0  0  0  # atno 10167 bound_to 10162
  156.0114  130.4521  150.3514 H   0  0  0  0  0  0  0  0  0  0  0  0  # atno 10718 bound_to 10713
  154.8435  135.4422  154.1488 H   0  0  0  0  0  0  0  0  0  0  0  0  # atno 10763 bound_to 10752
  153.2654  135.6940  153.7541 H   0  0  0  0  0  0  0  0  0  0  0  0  # atno 10764 bound_to 10752
  153.6801  135.3404  155.3151 H   0  0  0  0  0  0  0  0  0  0  0  0  # atno 10765 bound_to 10752
  139.8845  134.8652  156.3376 H   0  0  0  0  0  0  0  0  0  0  0  0  # atno 11005 bound_to 11000
  145.1893  140.9804  143.4220 LP  0  0  0  0  0  0  0  0  0  0  0  0  # atno 17320 bound_to 7965
  144.9871  139.3725  143.6233 LP  0  0  0  0  0  0  0  0  0  0  0  0  # atno 17321 bound_to 7965
  139.7312  143.9070  152.3020 LP  0  0  0  0  0  0  0  0  0  0  0  0  # atno 17342 bound_to 10162
  139.8860  144.6992  150.8824 LP  0  0  0  0  0  0  0  0  0  0  0  0  # atno 17343 bound_to 10162
  157.1606  131.0344  151.2843 LP  0  0  0  0  0  0  0  0  0  0  0  0  # atno 17370 bound_to 10713
  157.4314  130.7493  149.6993 LP  0  0  0  0  0  0  0  0  0  0  0  0  # atno 17371 bound_to 10713
  140.9680  133.7345  156.0494 LP  0  0  0  0  0  0  0  0  0  0  0  0  # atno 17394 bound_to 11000
  140.7906  134.3622  157.5465 LP  0  0  0  0  0  0  0  0  0  0  0  0  # atno 17395 bound_to 11000

$$$$
