AV-unprocessed.smi:1886|AV-procd|sdf|7654|dock4
  -GOLD-   22720 9383D 1   1.00000     0.00000
 Structure written by MMmdl.
 39 40  0  0  0  0  0  0  0  0  1 V2000
  152.1315  137.0106  160.1160 O   0  0  0  0  0  0  0  0  0  0  0  0
  152.8665  137.9230  160.4935 C   0  0  0  0  0  0  0  0  0  0  0  0
  152.8028  139.1805  160.0351 N   0  0  0  0  0  0  0  0  0  0  0  0
  151.8396  139.6660  159.0527 C   0  0  0  0  0  0  0  0  0  0  0  0
  151.9097  141.1753  158.8676 C   0  0  0  0  0  0  0  0  0  0  0  0
  152.4480  141.9803  159.8940 C   0  0  0  0  0  0  0  0  0  0  0  0
  152.5156  143.3734  159.7100 C   0  0  0  0  0  0  0  0  0  0  0  0
  152.0407  143.9106  158.4993 C   0  0  0  0  0  0  0  0  0  0  0  0
  151.5238  143.1551  157.5084 N   0  0  0  0  0  0  0  0  0  0  0  0
  151.4586  141.8126  157.6825 C   0  0  0  0  0  0  0  0  0  0  0  0
  150.9165  141.0523  156.6345 N   0  0  0  0  0  0  0  0  0  0  0  0
  150.1802  141.8455  155.6593 C   0  0  0  0  0  0  0  0  0  0  0  0
  149.4817  140.9156  154.6535 C   0  0  0  0  0  0  0  0  0  0  0  0
  150.4446  140.0605  154.0436 O   0  0  0  0  0  0  0  0  0  0  0  0
  151.1111  139.2384  154.9983 C   0  0  0  0  0  0  0  0  0  0  0  0
  151.8530  140.1249  156.0134 C   0  0  0  0  0  0  0  0  0  0  0  0
  153.8309  137.7779  161.4119 N   0  0  0  0  0  0  0  0  0  0  0  0
  154.1716  136.5267  162.0821 C   0  0  0  0  0  0  0  0  0  0  0  0
  153.9500  136.5951  163.6030 C   0  0  0  0  0  0  0  0  0  0  0  0
  154.8504  137.4195  164.1365 F   0  0  0  0  0  0  0  0  0  0  0  0
  152.7308  137.0630  163.8730 F   0  0  0  0  0  0  0  0  0  0  0  0
  154.0948  135.3944  164.1627 F   0  0  0  0  0  0  0  0  0  0  0  0
  153.4547  139.8569  160.4045 H   0  0  0  0  0  0  0  0  0  0  0  0
  152.0322  139.1635  158.1043 H   0  0  0  0  0  0  0  0  0  0  0  0
  150.8187  139.4051  159.3371 H   0  0  0  0  0  0  0  0  0  0  0  0
  152.8056  141.5387  160.8125 H   0  0  0  0  0  0  0  0  0  0  0  0
  152.9231  144.0146  160.4773 H   0  0  0  0  0  0  0  0  0  0  0  0
  152.0773  144.9752  158.3213 H   0  0  0  0  0  0  0  0  0  0  0  0
  149.4435  142.4690  156.1673 H   0  0  0  0  0  0  0  0  0  0  0  0
  150.8647  142.5142  155.1353 H   0  0  0  0  0  0  0  0  0  0  0  0
  148.7160  140.3186  155.1495 H   0  0  0  0  0  0  0  0  0  0  0  0
  148.9816  141.5007  153.8818 H   0  0  0  0  0  0  0  0  0  0  0  0
  150.3912  138.5902  155.5012 H   0  0  0  0  0  0  0  0  0  0  0  0
  151.8166  138.5901  154.4788 H   0  0  0  0  0  0  0  0  0  0  0  0
  152.6455  140.6803  155.5097 H   0  0  0  0  0  0  0  0  0  0  0  0
  152.3249  139.5074  156.7787 H   0  0  0  0  0  0  0  0  0  0  0  0
  154.3776  138.5891  161.6609 H   0  0  0  0  0  0  0  0  0  0  0  0
  153.6071  135.6975  161.6518 H   0  0  0  0  0  0  0  0  0  0  0  0
  155.2223  136.3205  161.8766 H   0  0  0  0  0  0  0  0  0  0  0  0
  1  2  2  0  0  0  0
  2  3  1  0  0  0  0
  2 17  1  0  0  0  0
  3  4  1  0  0  0  0
  3 23  1  0  0  0  0
  4  5  1  0  0  0  0
  4 24  1  0  0  0  0
  4 25  1  0  0  0  0
  5 10  1  0  0  0  0
  5  6  2  0  0  0  0
  6  7  1  0  0  0  0
  6 26  1  0  0  0  0
  7  8  2  0  0  0  0
  7 27  1  0  0  0  0
  8  9  1  0  0  0  0
  8 28  1  0  0  0  0
  9 10  2  0  0  0  0
 10 11  1  0  0  0  0
 11 16  1  0  0  0  0
 11 12  1  0  0  0  0
 12 13  1  0  0  0  0
 12 29  1  0  0  0  0
 12 30  1  0  0  0  0
 13 14  1  0  0  0  0
 13 31  1  0  0  0  0
 13 32  1  0  0  0  0
 14 15  1  0  0  0  0
 15 16  1  0  0  0  0
 15 33  1  0  0  0  0
 15 34  1  0  0  0  0
 16 35  1  0  0  0  0
 16 36  1  0  0  0  0
 17 18  1  0  0  0  0
 17 37  1  0  0  0  0
 18 19  1  0  0  0  0
 18 38  1  0  0  0  0
 18 39  1  0  0  0  0
 19 20  1  0  0  0  0
 19 21  1  0  0  0  0
 19 22  1  0  0  0  0
M  END
> <s_m_source_file>
AV-unprocessed.smi

> <i_m_source_file_index>
1886

> <i_lp_mmshare_version>
43012

> <i_f3d_flags>
0

> <s_epik_input>
RkMoRikoRilbQ0gyXVtOSF1DKD1PKVtOSF1bQ0gyXWMxW2NIXVtjSF1bY0hdbmMxTjJbQ0gyXVtDSDJdT1tDSDJdW0NIMl0y

> <s_epik_cmdline>
J2VwaWtfcHl0aG9uJywgJy1waCcsICc3LjAnLCAnLXRuJywgJzgnLCAnLW1hJywgJzIwMCcsICctbWV0YWxfYmluZGluZycsICctaW1hZScsICc8aW5maWxlLm1hZT4nLCAnLW9tYWUnLCAnPG91dGZpbGUubWFlPic=

> <r_lp_tautomer_probability>
1

> <r_epik_Ionization_Penalty>
0.00288023

> <r_epik_Ionization_Penalty_Charging>
0

> <r_epik_Ionization_Penalty_Neutral>
0.00288023

> <r_epik_State_Penalty>
0.00199456

> <r_epik_Charging_Adjusted_Penalty>
0.00199456

> <i_epik_Tot_Q>
0

> <i_epik_Tot_abs_Q>
0

> <r_epik_Metal_State_Penalty>
-0

> <b_epik_Metal_Only>
0

> <s_lp_Force_Field>
OPLS_2005

> <r_lp_Energy>
16.0982

> <b_lp_Chiralities_Consistent>
1

> <s_lp_Variant>
AV-unprocessed.smi:1886-1

> <Gold.Version>
5.8.1

> <Gold.Id.Protein>
6NUR|6NUR_protein|mol2

> <Gold.PLP.Fitness>
49.2879

> <Gold.PLP.PLP>
-44.4093

> <Gold.PLP.part.hbond>
-1.9554

> <Gold.PLP.part.metal>
0.0000

> <Gold.PLP.part.buried>
-5.1032

> <Gold.PLP.part.nonpolar>
-37.5711

> <Gold.PLP.part.repulsive>
0.7603

> <Gold.PLP.ligand.clash>
0.0000

> <Gold.PLP.ligand.torsion>
0.6351

> <Gold.PLP.Chemscore.Hbond>
2.0000

> <Gold.PLP.Chemscore.CHOScore>
0.0000

> <Gold.PLP.Chemscore.Metal>
0.0000

> <Gold.Chemscore.Hbonds>
donor molecule, donor type, donor heavy atom, donor atom, acceptor molecule, acceptor atom, score
      P1  H  6896  6907       L1     1  1.00
      P1  H  7989  7998       L1    14  0.99

> <Gold.PLP.Chemscore.Internal.Correction>
0.1487

> <Gold.Rescore>
     Score         DG    S(hbond)    S(metal)    S(lipo)     H(rot)  DE(clash)    DE(int)     intcor
     14.28     -14.96       1.26        0.00      90.85       2.09       0.08       0.60       ----

> <Gold.Chemscore.Fitness>
14.2836

> <Gold.Chemscore.DG>
-14.9557

> <Gold.Chemscore.ZeroCoef>
-5.4800

> <Gold.Chemscore.Hbond>
1.2563

> <Gold.Chemscore.Metal>
0.0000

> <Gold.Chemscore.Lipo>
90.8529

> <Gold.Chemscore.Internal_Hbond>
0.0000

> <Gold.Chemscore.DEClash>
0.0769

> <Gold.Chemscore.DEInternal>
0.5952

> <Gold.Chemscore.Rot>
2.0899

> <Gold.Chemscore.Internal.Correction>
   9.000000E+99

> <Gold.Chemscore.Hbonds>
donor molecule, donor type, donor heavy atom, donor atom, acceptor molecule, acceptor atom, score
      P1  H  6896  6907       L1     1  0.99
      P1  H  7989  7998       L1    14  0.21

> <Gold.Chemscore.Hbond.Weighted>
-4.1962

> <Gold.Chemscore.Metal.Weighted>
-0.0000

> <Gold.Chemscore.Lipo.Weighted>
-10.6298

> <Gold.Chemscore.Internal_Hbond.Weighted>
0.0000

> <Gold.Chemscore.DEClash.Weighted>
0.0769

> <Gold.Chemscore.DEInternal.Weighted>
0.5952

> <Gold.Chemscore.Rot.Weighted>
5.3502

> <Gold.Chemscore.Internal.Correction.Weighted>
   9.000000E+99

> <Gold.Protein.RotatedTorsions>
[ 6907 6896 6895 6894 ] final   23.12 input  -60.11 | X-H torsion
[ 7974 7965 7964 7962 ] final  -17.11 input  175.53 | X-H torsion
[ 8008 7997 7996 7995 ] final -143.72 input   59.86 | X-H torsion
[ 10167 10162 10161 10158 ] final  103.76 input  -65.29 | X-H torsion
[ 10718 10713 10712 10709 ] final  -89.02 input   66.30 | X-H torsion
[ 10763 10752 10751 10750 ] final  -28.28 input  -60.55 | X-H torsion
[ 11005 11000 10999 10996 ] final -151.20 input  -57.11 | X-H torsion

> <Gold.Protein.ActiveResidues>
 VAL166  LYS551  ARG553  GLY616  TRP617  ASP618  TYR619  PRO620  LYS621  CYS622 
 ASP623  PHE694  ASN695  SER759  ASP760  ASP761  ALA762  ILE779  LEU786  VAL792 
 PHE793  MET794  SER795  GLU796  ALA797  LYS798  CYS799  TRP800  GLU811  SER814 

> <Gold.Protein.RotatedAtoms>
  151.9375  135.0229  160.0533 H   0  0  0  0  0  0  0  0  0  0  0  0  # atno 6907 bound_to 6896
  152.2065  133.4875  159.5095 H   0  0  0  0  0  0  0  0  0  0  0  0  # atno 6908 bound_to 6896
  150.6966  134.1439  159.4158 H   0  0  0  0  0  0  0  0  0  0  0  0  # atno 6909 bound_to 6896
  146.1956  140.3732  142.8442 H   0  0  0  0  0  0  0  0  0  0  0  0  # atno 7974 bound_to 7965
  155.5152  140.0587  157.2916 H   0  0  0  0  0  0  0  0  0  0  0  0  # atno 8008 bound_to 7997
  154.4537  140.1962  156.0390 H   0  0  0  0  0  0  0  0  0  0  0  0  # atno 8009 bound_to 7997
  156.0756  140.3254  155.7634 H   0  0  0  0  0  0  0  0  0  0  0  0  # atno 8010 bound_to 7997
  139.7235  144.7053  151.0835 H   0  0  0  0  0  0  0  0  0  0  0  0  # atno 10167 bound_to 10162
  155.9984  130.4857  150.5107 H   0  0  0  0  0  0  0  0  0  0  0  0  # atno 10718 bound_to 10713
  153.7457  135.6929  153.4957 H   0  0  0  0  0  0  0  0  0  0  0  0  # atno 10763 bound_to 10752
  153.2038  135.4427  155.0297 H   0  0  0  0  0  0  0  0  0  0  0  0  # atno 10764 bound_to 10752
  154.8205  135.3419  154.6980 H   0  0  0  0  0  0  0  0  0  0  0  0  # atno 10765 bound_to 10752
  140.7321  134.3609  157.5164 H   0  0  0  0  0  0  0  0  0  0  0  0  # atno 11005 bound_to 11000
  144.8574  140.7090  143.6129 LP  0  0  0  0  0  0  0  0  0  0  0  0  # atno 17320 bound_to 7965
  145.3653  139.1671  143.4361 LP  0  0  0  0  0  0  0  0  0  0  0  0  # atno 17321 bound_to 7965
  140.7758  143.5135  150.9623 LP  0  0  0  0  0  0  0  0  0  0  0  0  # atno 17342 bound_to 10162
  139.8823  143.7057  152.3155 LP  0  0  0  0  0  0  0  0  0  0  0  0  # atno 17343 bound_to 10162
  157.3080  131.0658  151.2021 LP  0  0  0  0  0  0  0  0  0  0  0  0  # atno 17370 bound_to 10713
  157.2977  130.6827  149.6147 LP  0  0  0  0  0  0  0  0  0  0  0  0  # atno 17371 bound_to 10713
  139.8824  134.9025  156.2834 LP  0  0  0  0  0  0  0  0  0  0  0  0  # atno 17394 bound_to 11000
  140.9912  133.7208  156.0816 LP  0  0  0  0  0  0  0  0  0  0  0  0  # atno 17395 bound_to 11000

$$$$
