AV-unprocessed.smi:1400|AV-procd|sdf|5686|dock10
  -GOLD-   22720 5313D 1   1.00000     0.00000
 Structure written by MMmdl.
 34 35  0  0  0  0  0  0  0  0  1 V2000
  152.1950  144.7117  161.7965 C   0  0  0  0  0  0  0  0  0  0  0  0
  152.3440  143.2769  161.2850 C   0  0  0  0  0  0  0  0  0  0  0  0
  152.1078  142.3564  162.0677 O   0  0  0  0  0  0  0  0  0  0  0  0
  152.7192  143.0672  160.0000 N   0  0  0  0  0  0  0  0  0  0  0  0
  152.7918  141.7290  159.4020 C   0  0  0  0  0  0  0  0  0  0  0  0
  151.6456  141.5756  158.3854 C   0  0  0  0  0  0  0  0  0  0  0  0
  151.6829  142.6952  157.3224 C   0  0  0  0  0  0  0  0  0  0  0  0
  150.4734  142.6446  156.5050 N   0  0  0  0  0  0  0  0  0  0  0  0
  150.0811  141.6122  155.7439 C   0  0  0  0  0  0  0  0  0  0  0  0
  150.7104  140.5584  155.6445 O   0  0  0  0  0  0  0  0  0  0  0  0
  148.9246  141.8871  155.1154 N   0  0  0  0  0  0  0  0  0  0  0  0
  148.1927  141.0625  154.2207 C   0  0  0  0  0  0  0  0  0  0  0  0
  148.4454  139.7652  154.0113 N   0  0  0  0  0  0  0  0  0  0  0  0
  147.5695  139.2043  153.0783 C   0  0  0  0  0  0  0  0  0  0  0  0
  146.6498  140.0953  152.5838 C   0  0  0  0  0  0  0  0  0  0  0  0
  146.8479  141.6837  153.2748 S   0  0  0  0  0  0  0  0  0  0  0  0
  151.8150  144.0896  157.9715 C   0  0  0  0  0  0  0  0  0  0  0  0
  152.9574  144.1178  159.0025 C   0  0  0  0  0  0  0  0  0  0  0  0
  151.4685  145.2628  161.1986 H   0  0  0  0  0  0  0  0  0  0  0  0
  153.1511  145.2346  161.7655 H   0  0  0  0  0  0  0  0  0  0  0  0
  151.8457  144.7163  162.8296 H   0  0  0  0  0  0  0  0  0  0  0  0
  153.7545  141.6070  158.9037 H   0  0  0  0  0  0  0  0  0  0  0  0
  152.7389  140.9309  160.1435 H   0  0  0  0  0  0  0  0  0  0  0  0
  151.7035  140.5992  157.9031 H   0  0  0  0  0  0  0  0  0  0  0  0
  150.6931  141.6020  158.9173 H   0  0  0  0  0  0  0  0  0  0  0  0
  152.5692  142.5363  156.7053 H   0  0  0  0  0  0  0  0  0  0  0  0
  149.8863  143.4658  156.5222 H   0  0  0  0  0  0  0  0  0  0  0  0
  148.5214  142.7949  155.2951 H   0  0  0  0  0  0  0  0  0  0  0  0
  147.6727  138.1599  152.8237 H   0  0  0  0  0  0  0  0  0  0  0  0
  145.8713  139.9138  151.8578 H   0  0  0  0  0  0  0  0  0  0  0  0
  151.9872  144.8446  157.2036 H   0  0  0  0  0  0  0  0  0  0  0  0
  150.8810  144.3594  158.4670 H   0  0  0  0  0  0  0  0  0  0  0  0
  153.0478  145.1150  159.4305 H   0  0  0  0  0  0  0  0  0  0  0  0
  153.9101  143.9293  158.5054 H   0  0  0  0  0  0  0  0  0  0  0  0
  1  2  1  0  0  0  0
  1 19  1  0  0  0  0
  1 20  1  0  0  0  0
  1 21  1  0  0  0  0
  2  3  2  0  0  0  0
  2  4  1  0  0  0  0
  4 18  1  0  0  0  0
  4  5  1  0  0  0  0
  5  6  1  0  0  0  0
  5 22  1  0  0  0  0
  5 23  1  0  0  0  0
  6  7  1  0  0  0  0
  6 24  1  0  0  0  0
  6 25  1  0  0  0  0
  7  8  1  0  0  0  0
  7 17  1  0  0  0  0
  7 26  1  0  0  0  0
  8  9  1  0  0  0  0
  8 27  1  0  0  0  0
  9 10  2  0  0  0  0
  9 11  1  0  0  0  0
 11 12  1  0  0  0  0
 11 28  1  0  0  0  0
 12 16  1  0  0  0  0
 12 13  2  0  0  0  0
 13 14  1  0  0  0  0
 14 15  2  0  0  0  0
 14 29  1  0  0  0  0
 15 16  1  0  0  0  0
 15 30  1  0  0  0  0
 17 18  1  0  0  0  0
 17 31  1  0  0  0  0
 17 32  1  0  0  0  0
 18 33  1  0  0  0  0
 18 34  1  0  0  0  0
M  END
> <s_m_source_file>
AV-unprocessed.smi

> <i_m_source_file_index>
1400

> <i_lp_mmshare_version>
43012

> <i_f3d_flags>
0

> <s_epik_input>
W0NIM11DKD1PKU4xW0NIMl1bQ0gyXVtDSF0oW0NIMl1bQ0gyXTEpW05IXUMoPU8pW05IXWMybltjSF1bY0hdczI=

> <s_epik_cmdline>
J2VwaWtfcHl0aG9uJywgJy1waCcsICc3LjAnLCAnLXRuJywgJzgnLCAnLW1hJywgJzIwMCcsICctbWV0YWxfYmluZGluZycsICctaW1hZScsICc8aW5maWxlLm1hZT4nLCAnLW9tYWUnLCAnPG91dGZpbGUubWFlPic=

> <r_lp_tautomer_probability>
1

> <r_epik_Ionization_Penalty>
0.000151384

> <r_epik_Ionization_Penalty_Charging>
0

> <r_epik_Ionization_Penalty_Neutral>
0.000151384

> <r_epik_State_Penalty>
-0

> <r_epik_Charging_Adjusted_Penalty>
0

> <i_epik_Tot_Q>
0

> <i_epik_Tot_abs_Q>
0

> <r_epik_Metal_State_Penalty>
0.0312905

> <b_epik_Metal_Only>
0

> <s_lp_Force_Field>
OPLS_2005

> <r_lp_Energy>
21.754

> <b_lp_Chiralities_Consistent>
1

> <s_lp_Variant>
AV-unprocessed.smi:1400-1

> <Gold.Version>
5.8.1

> <Gold.Id.Protein>
6NUR|6NUR_protein|mol2

> <Gold.PLP.Fitness>
49.1745

> <Gold.PLP.PLP>
-35.3386

> <Gold.PLP.part.hbond>
-3.3776

> <Gold.PLP.part.metal>
0.0000

> <Gold.PLP.part.buried>
-0.0510

> <Gold.PLP.part.nonpolar>
-32.9841

> <Gold.PLP.part.repulsive>
1.1475

> <Gold.PLP.ligand.clash>
0.0000

> <Gold.PLP.ligand.torsion>
0.0396

> <Gold.PLP.Chemscore.Hbond>
2.8788

> <Gold.PLP.Chemscore.CHOScore>
1.7540

> <Gold.PLP.Chemscore.Metal>
0.0000

> <Gold.Chemscore.Hbonds>
donor molecule, donor type, donor heavy atom, donor atom, acceptor molecule, acceptor atom, score
      L1  H     8    27       P1  8028  1.00
      L1  H    11    28       P1  8028  0.94
      P1  H  6933  6945       L1     3  0.67
      P1  H  7989  7998       L1    10  0.17
      L1  C    14    29       P1  7948  1.00
      L1  C    15    30       P1 10175  0.76

> <Gold.PLP.Chemscore.Internal.Correction>
0.0165

> <Gold.Rescore>
     Score         DG    S(hbond)    S(metal)    S(lipo)     H(rot)  DE(clash)    DE(int)     intcor
     17.02     -21.49       2.49        0.00      87.76       1.00       2.29       2.18       ----

> <Gold.Chemscore.Fitness>
17.0197

> <Gold.Chemscore.DG>
-21.4887

> <Gold.Chemscore.ZeroCoef>
-5.4800

> <Gold.Chemscore.Hbond>
2.4854

> <Gold.Chemscore.Metal>
0.0000

> <Gold.Chemscore.Lipo>
87.7551

> <Gold.Chemscore.Internal_Hbond>
0.0000

> <Gold.Chemscore.DEClash>
2.2853

> <Gold.Chemscore.DEInternal>
2.1837

> <Gold.Chemscore.Rot>
1.0000

> <Gold.Chemscore.Internal.Correction>
   9.000000E+99

> <Gold.Chemscore.Hbonds>
donor molecule, donor type, donor heavy atom, donor atom, acceptor molecule, acceptor atom, score
      L1  H     8    27       P1  8028  0.95
      L1  H    11    28       P1  8028  0.89
      P1  H  6933  6945       L1     3  0.61
      P1  H  7989  7998       L1    10  0.04

> <Gold.Chemscore.Hbond.Weighted>
-8.3013

> <Gold.Chemscore.Metal.Weighted>
-0.0000

> <Gold.Chemscore.Lipo.Weighted>
-10.2673

> <Gold.Chemscore.Internal_Hbond.Weighted>
0.0000

> <Gold.Chemscore.DEClash.Weighted>
2.2853

> <Gold.Chemscore.DEInternal.Weighted>
2.1837

> <Gold.Chemscore.Rot.Weighted>
2.5600

> <Gold.Chemscore.Internal.Correction.Weighted>
   9.000000E+99

> <Gold.Protein.RotatedTorsions>
[ 6907 6896 6895 6894 ] final  105.83 input  -60.11 | X-H torsion
[ 7974 7965 7964 7962 ] final  -21.62 input  175.53 | X-H torsion
[ 8008 7997 7996 7995 ] final   86.92 input   59.86 | X-H torsion
[ 10167 10162 10161 10158 ] final  -69.84 input  -65.29 | X-H torsion
[ 10718 10713 10712 10709 ] final   71.46 input   66.30 | X-H torsion
[ 10763 10752 10751 10750 ] final  142.64 input  -60.55 | X-H torsion
[ 11005 11000 10999 10996 ] final -153.60 input  -57.11 | X-H torsion

> <Gold.Protein.ActiveResidues>
 VAL166  LYS551  ARG553  GLY616  TRP617  ASP618  TYR619  PRO620  LYS621  CYS622 
 ASP623  PHE694  ASN695  SER759  ASP760  ASP761  ALA762  ILE779  LEU786  VAL792 
 PHE793  MET794  SER795  GLU796  ALA797  LYS798  CYS799  TRP800  GLU811  SER814 

> <Gold.Protein.RotatedAtoms>
  152.5216  133.9471  159.7653 H   0  0  0  0  0  0  0  0  0  0  0  0  # atno 6907 bound_to 6896
  150.9789  133.6258  159.2733 H   0  0  0  0  0  0  0  0  0  0  0  0  # atno 6908 bound_to 6896
  151.3443  135.0876  159.9434 H   0  0  0  0  0  0  0  0  0  0  0  0  # atno 6909 bound_to 6896
  146.1723  140.4366  142.8527 H   0  0  0  0  0  0  0  0  0  0  0  0  # atno 7974 bound_to 7965
  155.9688  140.3387  155.6557 H   0  0  0  0  0  0  0  0  0  0  0  0  # atno 8008 bound_to 7997
  155.6701  140.0726  157.2541 H   0  0  0  0  0  0  0  0  0  0  0  0  # atno 8009 bound_to 7997
  154.4161  140.1693  156.1857 H   0  0  0  0  0  0  0  0  0  0  0  0  # atno 8010 bound_to 7997
  140.5399  143.2315  151.7108 H   0  0  0  0  0  0  0  0  0  0  0  0  # atno 10167 bound_to 10162
  157.6453  130.9529  150.0792 H   0  0  0  0  0  0  0  0  0  0  0  0  # atno 10718 bound_to 10713
  153.9591  135.2962  155.3434 H   0  0  0  0  0  0  0  0  0  0  0  0  # atno 10763 bound_to 10752
  154.7385  135.5036  153.9085 H   0  0  0  0  0  0  0  0  0  0  0  0  # atno 10764 bound_to 10752
  153.0955  135.6720  153.9880 H   0  0  0  0  0  0  0  0  0  0  0  0  # atno 10765 bound_to 10752
  140.7064  134.3881  157.5203 H   0  0  0  0  0  0  0  0  0  0  0  0  # atno 11005 bound_to 11000
  144.8181  140.6503  143.6371 LP  0  0  0  0  0  0  0  0  0  0  0  0  # atno 17320 bound_to 7965
  145.4308  139.1549  143.4023 LP  0  0  0  0  0  0  0  0  0  0  0  0  # atno 17321 bound_to 7965
  139.4985  144.3984  152.0207 LP  0  0  0  0  0  0  0  0  0  0  0  0  # atno 17342 bound_to 10162
  140.3093  144.3557  150.6038 LP  0  0  0  0  0  0  0  0  0  0  0  0  # atno 17343 bound_to 10162
  156.1773  130.3648  149.9082 LP  0  0  0  0  0  0  0  0  0  0  0  0  # atno 17370 bound_to 10713
  156.7043  130.8945  151.3603 LP  0  0  0  0  0  0  0  0  0  0  0  0  # atno 17371 bound_to 10713
  139.8883  134.8860  156.2482 LP  0  0  0  0  0  0  0  0  0  0  0  0  # atno 17394 bound_to 11000
  141.0121  133.7090  156.1128 LP  0  0  0  0  0  0  0  0  0  0  0  0  # atno 17395 bound_to 11000

$$$$
