AV-unprocessed.smi:2448|AV-procd|sdf|9660|dock9
  -GOLD-   2272013303D 1   1.00000     0.00000
 Structure written by MMmdl.
 38 39  0  0  0  0  0  0  0  0  2 V2000
  153.1578  143.8717  158.6074 O   0  0  0  0  0  0  0  0  0  0  0  0
  152.0239  143.1229  159.0087 C   0  0  2  0  0  0  0  0  0  0  0  0
  151.1564  142.8578  157.7608 C   0  0  0  0  0  0  0  0  0  0  0  0
  151.4910  141.5808  157.1252 N   0  0  0  0  0  0  0  0  0  0  0  0
  150.5325  141.0569  156.1406 C   0  0  2  0  0  0  0  0  0  0  0  0
  149.1132  141.3402  156.6889 C   0  0  0  0  0  0  0  0  0  0  0  0
  147.9887  141.1434  155.6863 C   0  0  0  0  0  0  0  0  0  0  0  0
  148.0277  141.7842  154.4274 C   0  0  0  0  0  0  0  0  0  0  0  0
  146.9693  141.5817  153.5183 C   0  0  0  0  0  0  0  0  0  0  0  0
  145.9364  140.7793  153.8563 N   0  3  0  0  0  0  0  0  0  0  0  0
  145.8619  140.1443  155.0464 C   0  0  0  0  0  0  0  0  0  0  0  0
  146.8914  140.3091  155.9957 C   0  0  0  0  0  0  0  0  0  0  0  0
  150.7688  139.5522  155.8263 C   0  0  0  0  0  0  0  0  0  0  0  0
  152.0426  139.3116  155.5221 F   0  0  0  0  0  0  0  0  0  0  0  0
  150.4268  138.8028  156.8745 F   0  0  0  0  0  0  0  0  0  0  0  0
  150.0499  139.1635  154.7743 F   0  0  0  0  0  0  0  0  0  0  0  0
  151.2705  143.9588  160.0563 C   0  0  0  0  0  0  0  0  0  0  0  0
  152.0712  143.9092  161.3617 C   0  0  0  0  0  0  0  0  0  0  0  0
  152.8460  142.2767  161.4651 S   0  0  0  0  0  0  0  0  0  0  0  0
  152.4672  141.8454  159.7451 C   0  0  0  0  0  0  0  0  0  0  0  0
  153.6592  143.3523  157.9980 H   0  0  0  0  0  0  0  0  0  0  0  0
  150.1044  142.8548  158.0484 H   0  0  0  0  0  0  0  0  0  0  0  0
  151.2902  143.6862  157.0669 H   0  0  0  0  0  0  0  0  0  0  0  0
  152.4092  141.6522  156.6983 H   0  0  0  0  0  0  0  0  0  0  0  0
  150.6478  141.6198  155.2135 H   0  0  0  0  0  0  0  0  0  0  0  0
  148.9256  140.7214  157.5677 H   0  0  0  0  0  0  0  0  0  0  0  0
  149.0549  142.3735  157.0348 H   0  0  0  0  0  0  0  0  0  0  0  0
  148.8542  142.4267  154.1602 H   0  0  0  0  0  0  0  0  0  0  0  0
  146.9184  142.0341  152.5387 H   0  0  0  0  0  0  0  0  0  0  0  0
  144.9882  139.5281  155.2017 H   0  0  0  0  0  0  0  0  0  0  0  0
  146.8369  139.8021  156.9482 H   0  0  0  0  0  0  0  0  0  0  0  0
  151.1006  144.9843  159.7261 H   0  0  0  0  0  0  0  0  0  0  0  0
  150.2885  143.5177  160.2328 H   0  0  0  0  0  0  0  0  0  0  0  0
  152.8618  144.6599  161.3456 H   0  0  0  0  0  0  0  0  0  0  0  0
  151.4474  144.1034  162.2342 H   0  0  0  0  0  0  0  0  0  0  0  0
  151.6483  141.1253  159.7659 H   0  0  0  0  0  0  0  0  0  0  0  0
  153.3173  141.3564  159.2685 H   0  0  0  0  0  0  0  0  0  0  0  0
  145.1807  140.6466  153.1834 H   0  0  0  0  0  0  0  0  0  0  0  0
  1  2  1  0  0  0  0
  1 21  1  0  0  0  0
  2 20  1  0  0  0  0
  2  3  1  0  0  0  0
  2 17  1  0  0  0  0
  3  4  1  0  0  0  0
  3 22  1  0  0  0  0
  3 23  1  0  0  0  0
  4  5  1  0  0  0  0
  4 24  1  0  0  0  0
  5  6  1  0  0  0  0
  5 13  1  0  0  0  0
  5 25  1  0  0  0  0
  6  7  1  0  0  0  0
  6 26  1  0  0  0  0
  6 27  1  0  0  0  0
  7 12  1  0  0  0  0
  7  8  2  0  0  0  0
  8  9  1  0  0  0  0
  8 28  1  0  0  0  0
  9 10  2  0  0  0  0
  9 29  1  0  0  0  0
 10 11  1  0  0  0  0
 10 38  1  0  0  0  0
 11 12  2  0  0  0  0
 11 30  1  0  0  0  0
 12 31  1  0  0  0  0
 13 14  1  0  0  0  0
 13 15  1  0  0  0  0
 13 16  1  0  0  0  0
 17 18  1  0  0  0  0
 17 32  1  0  0  0  0
 17 33  1  0  0  0  0
 18 19  1  0  0  0  0
 18 34  1  0  0  0  0
 18 35  1  0  0  0  0
 19 20  1  0  0  0  0
 20 36  1  0  0  0  0
 20 37  1  0  0  0  0
M  CHG  1  10   1
M  END
> <s_m_source_file>
AV-unprocessed.smi

> <i_m_source_file_index>
2448

> <i_lp_mmshare_version>
43012

> <i_f3d_flags>
0

> <s_epik_input>
W0NIMl0xU1tDSDJdW0NIMl1bQ0BAXTEoW09IXSlbQ0gyXVtOSF1bQ0BASF0oQyhGKShGKUYpW0NIMl1jMltjSF1bY0hdbltjSF1bY0hdMg==

> <s_epik_cmdline>
J2VwaWtfcHl0aG9uJywgJy1waCcsICc3LjAnLCAnLXRuJywgJzgnLCAnLW1hJywgJzIwMCcsICctbWV0YWxfYmluZGluZycsICctaW1hZScsICc8aW5maWxlLm1hZT4nLCAnLW9tYWUnLCAnPG91dGZpbGUubWFlPic=

> <r_epik_Ionization_Penalty>
1.11129

> <r_epik_Ionization_Penalty_Charging>
1.08366

> <r_epik_Ionization_Penalty_Neutral>
0.0276276

> <r_epik_State_Penalty>
1.93785

> <r_epik_Charging_Adjusted_Penalty>
3.02151

> <i_epik_Tot_Q>
1

> <i_epik_Tot_abs_Q>
1

> <r_epik_Metal_State_Penalty>
5.97911

> <b_epik_Metal_Only>
0

> <s_lp_Force_Field>
OPLS_2005

> <r_lp_Energy>
38.3653

> <b_lp_Chiralities_Consistent>
1

> <s_lp_Variant>
AV-unprocessed.smi:2448-10

> <Gold.Version>
5.8.1

> <Gold.Id.Protein>
6NUR|6NUR_protein|mol2

> <Gold.PLP.Fitness>
44.4774

> <Gold.PLP.PLP>
-40.1328

> <Gold.PLP.part.hbond>
-1.0000

> <Gold.PLP.part.metal>
0.0000

> <Gold.PLP.part.buried>
-2.4660

> <Gold.PLP.part.nonpolar>
-37.0569

> <Gold.PLP.part.repulsive>
0.0000

> <Gold.PLP.ligand.clash>
0.0000

> <Gold.PLP.ligand.torsion>
1.0426

> <Gold.PLP.Chemscore.Hbond>
2.0000

> <Gold.PLP.Chemscore.CHOScore>
0.0000

> <Gold.PLP.Chemscore.Metal>
0.0000

> <Gold.Chemscore.Hbonds>
donor molecule, donor type, donor heavy atom, donor atom, acceptor molecule, acceptor atom, score
      L1  H    10    38       P1 10175  2.00

> <Gold.PLP.Chemscore.Internal.Correction>
0.4297

> <Gold.Rescore>
     Score         DG    S(hbond)    S(metal)    S(lipo)     H(rot)  DE(clash)    DE(int)     intcor
     13.50     -15.01       0.99        0.00     106.24       2.42       0.16       1.35       ----

> <Gold.Chemscore.Fitness>
13.5046

> <Gold.Chemscore.DG>
-15.0093

> <Gold.Chemscore.ZeroCoef>
-5.4800

> <Gold.Chemscore.Hbond>
0.9899

> <Gold.Chemscore.Metal>
0.0000

> <Gold.Chemscore.Lipo>
106.2426

> <Gold.Chemscore.Internal_Hbond>
0.0000

> <Gold.Chemscore.DEClash>
0.1584

> <Gold.Chemscore.DEInternal>
1.3463

> <Gold.Chemscore.Rot>
2.4247

> <Gold.Chemscore.Internal.Correction>
   9.000000E+99

> <Gold.Chemscore.Hbonds>
donor molecule, donor type, donor heavy atom, donor atom, acceptor molecule, acceptor atom, score
      L1  H    10    38       P1 10175  0.85

> <Gold.Chemscore.Hbond.Weighted>
-3.3062

> <Gold.Chemscore.Metal.Weighted>
-0.0000

> <Gold.Chemscore.Lipo.Weighted>
-12.4304

> <Gold.Chemscore.Internal_Hbond.Weighted>
0.0000

> <Gold.Chemscore.DEClash.Weighted>
0.1584

> <Gold.Chemscore.DEInternal.Weighted>
1.3463

> <Gold.Chemscore.Rot.Weighted>
6.2072

> <Gold.Chemscore.Internal.Correction.Weighted>
   9.000000E+99

> <Gold.Protein.RotatedTorsions>
[ 6907 6896 6895 6894 ] final  -38.86 input  -60.11 | X-H torsion
[ 7974 7965 7964 7962 ] final  -16.76 input  175.53 | X-H torsion
[ 8008 7997 7996 7995 ] final   77.68 input   59.86 | X-H torsion
[ 10167 10162 10161 10158 ] final  -33.85 input  -65.29 | X-H torsion
[ 10718 10713 10712 10709 ] final  146.90 input   66.30 | X-H torsion
[ 10763 10752 10751 10750 ] final   21.09 input  -60.55 | X-H torsion
[ 11005 11000 10999 10996 ] final  111.07 input  -57.11 | X-H torsion

> <Gold.Protein.ActiveResidues>
 VAL166  LYS551  ARG553  GLY616  TRP617  ASP618  TYR619  PRO620  LYS621  CYS622 
 ASP623  PHE694  ASN695  SER759  ASP760  ASP761  ALA762  ILE779  LEU786  VAL792 
 PHE793  MET794  SER795  GLU796  ALA797  LYS798  CYS799  TRP800  GLU811  SER814 

> <Gold.Protein.RotatedAtoms>
  150.9973  134.9293  159.7933 H   0  0  0  0  0  0  0  0  0  0  0  0  # atno 6907 bound_to 6896
  152.5268  134.3202  159.9155 H   0  0  0  0  0  0  0  0  0  0  0  0  # atno 6908 bound_to 6896
  151.3207  133.3999  159.2688 H   0  0  0  0  0  0  0  0  0  0  0  0  # atno 6909 bound_to 6896
  146.1972  140.3683  142.8436 H   0  0  0  0  0  0  0  0  0  0  0  0  # atno 7974 bound_to 7965
  155.8450  140.3460  155.5656 H   0  0  0  0  0  0  0  0  0  0  0  0  # atno 8008 bound_to 7997
  155.8100  140.0897  157.1929 H   0  0  0  0  0  0  0  0  0  0  0  0  # atno 8009 bound_to 7997
  154.4006  140.1449  156.3363 H   0  0  0  0  0  0  0  0  0  0  0  0  # atno 8010 bound_to 7997
  140.7197  143.3590  151.2000 H   0  0  0  0  0  0  0  0  0  0  0  0  # atno 10167 bound_to 10162
  157.3276  131.0915  151.1189 H   0  0  0  0  0  0  0  0  0  0  0  0  # atno 10718 bound_to 10713
  153.1023  135.6676  153.9650 H   0  0  0  0  0  0  0  0  0  0  0  0  # atno 10763 bound_to 10752
  153.9217  135.3014  155.3449 H   0  0  0  0  0  0  0  0  0  0  0  0  # atno 10764 bound_to 10752
  154.7444  135.5064  153.9254 H   0  0  0  0  0  0  0  0  0  0  0  0  # atno 10765 bound_to 10752
  139.8895  134.9499  156.6375 H   0  0  0  0  0  0  0  0  0  0  0  0  # atno 11005 bound_to 11000
  144.8606  140.7134  143.6109 LP  0  0  0  0  0  0  0  0  0  0  0  0  # atno 17320 bound_to 7965
  145.3603  139.1683  143.4387 LP  0  0  0  0  0  0  0  0  0  0  0  0  # atno 17321 bound_to 7965
  139.7138  143.9333  152.2958 LP  0  0  0  0  0  0  0  0  0  0  0  0  # atno 17342 bound_to 10162
  139.9067  144.6880  150.8606 LP  0  0  0  0  0  0  0  0  0  0  0  0  # atno 17343 bound_to 10162
  157.2450  130.6587  149.5906 LP  0  0  0  0  0  0  0  0  0  0  0  0  # atno 17370 bound_to 10713
  155.9692  130.4556  150.5894 LP  0  0  0  0  0  0  0  0  0  0  0  0  # atno 17371 bound_to 10713
  140.7619  133.8810  155.8425 LP  0  0  0  0  0  0  0  0  0  0  0  0  # atno 17394 bound_to 11000
  140.9915  134.1272  157.4404 LP  0  0  0  0  0  0  0  0  0  0  0  0  # atno 17395 bound_to 11000

$$$$
