AV-unprocessed.smi:1897|AV-procd|sdf|7689|dock3
  -GOLD-   22720 9433D 1   1.00000     0.00000
 Structure written by MMmdl.
 39 41  0  0  0  0  0  0  0  0  2 V2000
  152.9957  142.4146  161.1265 C   0  0  0  0  0  0  0  0  0  0  0  0
  152.1481  142.1322  159.9336 C   0  0  0  0  0  0  0  0  0  0  0  0
  152.4958  141.2478  158.9914 N   0  0  0  0  0  0  0  0  0  0  0  0
  151.5468  141.1526  157.9844 N   0  0  0  0  0  0  0  0  0  0  0  0
  150.5095  141.9778  158.1892 C   0  0  0  0  0  0  0  0  0  0  0  0
  149.3748  142.0797  157.3319 N   0  0  0  0  0  0  0  0  0  0  0  0
  148.8082  141.1900  156.4894 C   0  0  0  0  0  0  0  0  0  0  0  0
  149.2725  140.0593  156.3548 O   0  0  0  0  0  0  0  0  0  0  0  0
  147.7262  141.6140  155.8159 N   0  0  0  0  0  0  0  0  0  0  0  0
  147.0056  140.8538  154.8005 C   0  0  1  0  0  0  0  0  0  0  0  0
  147.8932  140.4488  153.6099 C   0  0  0  0  0  0  0  0  0  0  0  0
  147.4624  139.0141  153.2463 C   0  0  0  0  0  0  0  0  0  0  0  0
  146.3056  138.7225  154.1139 N   0  3  1  0  0  0  0  0  0  0  0  0
  146.0104  137.2991  154.3875 C   0  0  0  0  0  0  0  0  0  0  0  0
  144.7297  137.2002  155.2406 C   0  0  0  0  0  0  0  0  0  0  0  0
  144.8215  138.0667  156.5134 C   0  0  0  0  0  0  0  0  0  0  0  0
  145.2240  139.5147  156.1733 C   0  0  0  0  0  0  0  0  0  0  0  0
  146.5161  139.5074  155.3392 C   0  0  2  0  0  0  0  0  0  0  0  0
  150.6104  142.9403  159.6544 S   0  0  0  0  0  0  0  0  0  0  0  0
  153.6138  141.5495  161.3692 H   0  0  0  0  0  0  0  0  0  0  0  0
  152.3680  142.6451  161.9875 H   0  0  0  0  0  0  0  0  0  0  0  0
  153.6461  143.2664  160.9278 H   0  0  0  0  0  0  0  0  0  0  0  0
  148.8571  142.9407  157.4355 H   0  0  0  0  0  0  0  0  0  0  0  0
  147.4038  142.5548  155.9946 H   0  0  0  0  0  0  0  0  0  0  0  0
  146.1573  141.4246  154.4171 H   0  0  0  0  0  0  0  0  0  0  0  0
  147.7585  141.1349  152.7728 H   0  0  0  0  0  0  0  0  0  0  0  0
  148.9517  140.4607  153.8750 H   0  0  0  0  0  0  0  0  0  0  0  0
  147.1944  138.9122  152.1944 H   0  0  0  0  0  0  0  0  0  0  0  0
  148.2739  138.3166  153.4589 H   0  0  0  0  0  0  0  0  0  0  0  0
  145.8783  136.7644  153.4464 H   0  0  0  0  0  0  0  0  0  0  0  0
  146.8522  136.8373  154.9065 H   0  0  0  0  0  0  0  0  0  0  0  0
  143.8751  137.5257  154.6459 H   0  0  0  0  0  0  0  0  0  0  0  0
  144.5386  136.1607  155.5095 H   0  0  0  0  0  0  0  0  0  0  0  0
  143.8693  138.0564  157.0447 H   0  0  0  0  0  0  0  0  0  0  0  0
  145.5584  137.6359  157.1926 H   0  0  0  0  0  0  0  0  0  0  0  0
  144.4214  140.0047  155.6204 H   0  0  0  0  0  0  0  0  0  0  0  0
  145.3669  140.0857  157.0912 H   0  0  0  0  0  0  0  0  0  0  0  0
  147.3181  139.0408  155.9165 H   0  0  0  0  0  0  0  0  0  0  0  0
  145.4956  139.1171  153.6574 H   0  0  0  0  0  0  0  0  0  0  0  0
  1  2  1  0  0  0  0
  1 20  1  0  0  0  0
  1 21  1  0  0  0  0
  1 22  1  0  0  0  0
  2 19  1  0  0  0  0
  2  3  2  0  0  0  0
  3  4  1  0  0  0  0
  4  5  2  0  0  0  0
  5  6  1  0  0  0  0
  5 19  1  0  0  0  0
  6  7  1  0  0  0  0
  6 23  1  0  0  0  0
  7  8  2  0  0  0  0
  7  9  1  0  0  0  0
  9 10  1  0  0  0  0
  9 24  1  0  0  0  0
 10 18  1  0  0  0  0
 10 11  1  0  0  0  0
 10 25  1  0  0  0  0
 11 12  1  0  0  0  0
 11 26  1  0  0  0  0
 11 27  1  0  0  0  0
 12 13  1  0  0  0  0
 12 28  1  0  0  0  0
 12 29  1  0  0  0  0
 13 18  1  0  0  0  0
 13 14  1  0  0  0  0
 13 39  1  0  0  0  0
 14 15  1  0  0  0  0
 14 30  1  0  0  0  0
 14 31  1  0  0  0  0
 15 16  1  0  0  0  0
 15 32  1  0  0  0  0
 15 33  1  0  0  0  0
 16 17  1  0  0  0  0
 16 34  1  0  0  0  0
 16 35  1  0  0  0  0
 17 18  1  0  0  0  0
 17 36  1  0  0  0  0
 17 37  1  0  0  0  0
 18 38  1  0  0  0  0
M  CHG  1  13   1
M  END
> <s_m_source_file>
AV-unprocessed.smi

> <i_m_source_file_index>
1897

> <i_lp_mmshare_version>
43012

> <i_f3d_flags>
0

> <s_epik_input>
W0NIM11jMW5uYyhzMSlbTkhdQyg9TylbTkhdW0NASF0oW0NIMl1bQ0gyXTIpW0NAQEhdKE4yMylbQ0gyXVtDSDJdW0NIMl1bQ0gyXTM=

> <s_epik_cmdline>
J2VwaWtfcHl0aG9uJywgJy1waCcsICc3LjAnLCAnLXRuJywgJzgnLCAnLW1hJywgJzIwMCcsICctbWV0YWxfYmluZGluZycsICctaW1hZScsICc8aW5maWxlLm1hZT4nLCAnLW9tYWUnLCAnPG91dGZpbGUubWFlPic=

> <r_lp_tautomer_probability>
1

> <r_epik_Ionization_Penalty>
0.00228891

> <r_epik_Ionization_Penalty_Charging>
0.00107044

> <r_epik_Ionization_Penalty_Neutral>
0.00121847

> <r_epik_State_Penalty>
-0

> <r_epik_Charging_Adjusted_Penalty>
0.00107044

> <i_epik_Tot_Q>
1

> <i_epik_Tot_abs_Q>
1

> <r_epik_Metal_State_Penalty>
0.304057

> <b_epik_Metal_Only>
0

> <s_lp_Force_Field>
OPLS_2005

> <r_lp_Energy>
35.8573

> <b_lp_Chiralities_Consistent>
1

> <s_lp_Variant>
AV-unprocessed.smi:1897-6

> <Gold.Version>
5.8.1

> <Gold.Id.Protein>
6NUR|6NUR_protein|mol2

> <Gold.PLP.Fitness>
36.6492

> <Gold.PLP.PLP>
-25.0144

> <Gold.PLP.part.hbond>
-3.0000

> <Gold.PLP.part.metal>
0.0000

> <Gold.PLP.part.buried>
-1.8636

> <Gold.PLP.part.nonpolar>
-20.6935

> <Gold.PLP.part.repulsive>
0.2052

> <Gold.PLP.ligand.clash>
0.0000

> <Gold.PLP.ligand.torsion>
0.1635

> <Gold.PLP.Chemscore.Hbond>
3.9840

> <Gold.PLP.Chemscore.CHOScore>
0.0000

> <Gold.PLP.Chemscore.Metal>
0.0000

> <Gold.PLP.Chemscore.Internal.Correction>
0.0099

> <Gold.Rescore>
     Score         DG    S(hbond)    S(metal)    S(lipo)     H(rot)  DE(clash)    DE(int)     intcor
     17.30     -18.80       2.85        0.00      54.46       1.00       0.04       1.45       ----

> <Gold.Chemscore.Fitness>
17.3036

> <Gold.Chemscore.DG>
-18.7950

> <Gold.Chemscore.ZeroCoef>
-5.4800

> <Gold.Chemscore.Hbond>
2.8452

> <Gold.Chemscore.Metal>
0.0000

> <Gold.Chemscore.Lipo>
54.4608

> <Gold.Chemscore.Internal_Hbond>
0.0000

> <Gold.Chemscore.DEClash>
0.0408

> <Gold.Chemscore.DEInternal>
1.4506

> <Gold.Chemscore.Rot>
1.0000

> <Gold.Chemscore.Internal.Correction>
   9.000000E+99

> <Gold.Chemscore.Hbond.Weighted>
-9.5031

> <Gold.Chemscore.Metal.Weighted>
-0.0000

> <Gold.Chemscore.Lipo.Weighted>
-6.3719

> <Gold.Chemscore.Internal_Hbond.Weighted>
0.0000

> <Gold.Chemscore.DEClash.Weighted>
0.0408

> <Gold.Chemscore.DEInternal.Weighted>
1.4506

> <Gold.Chemscore.Rot.Weighted>
2.5600

> <Gold.Chemscore.Internal.Correction.Weighted>
   9.000000E+99

> <Gold.Protein.RotatedTorsions>
[ 6907 6896 6895 6894 ] final  150.61 input  -60.11 | X-H torsion
[ 7974 7965 7964 7962 ] final  130.54 input  175.53 | X-H torsion
[ 8008 7997 7996 7995 ] final -167.92 input   59.86 | X-H torsion
[ 10167 10162 10161 10158 ] final -154.53 input  -65.29 | X-H torsion
[ 10718 10713 10712 10709 ] final  145.52 input   66.30 | X-H torsion
[ 10763 10752 10751 10750 ] final   14.52 input  -60.55 | X-H torsion
[ 11005 11000 10999 10996 ] final  155.09 input  -57.11 | X-H torsion

> <Gold.Protein.ActiveResidues>
 VAL166  LYS551  ARG553  GLY616  TRP617  ASP618  TYR619  PRO620  LYS621  CYS622 
 ASP623  PHE694  ASN695  SER759  ASP760  ASP761  ALA762  ILE779  LEU786  VAL792 
 PHE793  MET794  SER795  GLU796  ALA797  LYS798  CYS799  TRP800  GLU811  SER814 

> <Gold.Protein.RotatedAtoms>
  152.1120  133.4306  159.4635 H   0  0  0  0  0  0  0  0  0  0  0  0  # atno 6907 bound_to 6896
  150.6867  134.2637  159.4569 H   0  0  0  0  0  0  0  0  0  0  0  0  # atno 6908 bound_to 6896
  152.0506  134.9655  160.0625 H   0  0  0  0  0  0  0  0  0  0  0  0  # atno 6909 bound_to 6896
  145.0169  139.4168  143.5217 H   0  0  0  0  0  0  0  0  0  0  0  0  # atno 7974 bound_to 7965
  155.8844  140.1014  157.1463 H   0  0  0  0  0  0  0  0  0  0  0  0  # atno 8008 bound_to 7997
  154.4008  140.1323  156.4300 H   0  0  0  0  0  0  0  0  0  0  0  0  # atno 8009 bound_to 7997
  155.7606  140.3463  155.5198 H   0  0  0  0  0  0  0  0  0  0  0  0  # atno 8010 bound_to 7997
  139.7006  143.9269  152.2427 H   0  0  0  0  0  0  0  0  0  0  0  0  # atno 10167 bound_to 10162
  157.3443  131.0941  151.1055 H   0  0  0  0  0  0  0  0  0  0  0  0  # atno 10718 bound_to 10713
  153.1614  135.6796  153.8737 H   0  0  0  0  0  0  0  0  0  0  0  0  # atno 10763 bound_to 10752
  153.8131  135.3140  155.3404 H   0  0  0  0  0  0  0  0  0  0  0  0  # atno 10764 bound_to 10752
  154.7935  135.4821  154.0196 H   0  0  0  0  0  0  0  0  0  0  0  0  # atno 10765 bound_to 10752
  140.1549  134.8649  157.2502 H   0  0  0  0  0  0  0  0  0  0  0  0  # atno 11005 bound_to 11000
  146.3479  139.9644  142.8713 LP  0  0  0  0  0  0  0  0  0  0  0  0  # atno 17320 bound_to 7965
  145.1948  140.9828  143.4190 LP  0  0  0  0  0  0  0  0  0  0  0  0  # atno 17321 bound_to 7965
  139.9111  144.6856  150.8561 LP  0  0  0  0  0  0  0  0  0  0  0  0  # atno 17342 bound_to 10162
  140.7708  143.3443  151.2144 LP  0  0  0  0  0  0  0  0  0  0  0  0  # atno 17343 bound_to 10162
  157.2255  130.6501  149.5828 LP  0  0  0  0  0  0  0  0  0  0  0  0  # atno 17370 bound_to 10713
  155.9712  130.4615  150.6113 LP  0  0  0  0  0  0  0  0  0  0  0  0  # atno 17371 bound_to 10713
  140.2559  134.3628  155.7424 LP  0  0  0  0  0  0  0  0  0  0  0  0  # atno 17394 bound_to 11000
  141.2203  133.7342  156.9006 LP  0  0  0  0  0  0  0  0  0  0  0  0  # atno 17395 bound_to 11000

$$$$
