AV-unprocessed.smi:1901|AV-procd|sdf|7718|dock8
  -GOLD-   22720 9463D 1   1.00000     0.00000
 Structure written by MMmdl.
 27 28  0  0  0  0  0  0  0  0  2 V2000
  150.8653  137.0774  159.3870 O   0  0  0  0  0  0  0  0  0  0  0  0
  149.6673  136.9310  159.1356 C   0  0  0  0  0  0  0  0  0  0  0  0
  149.0356  137.8506  158.3937 N   0  0  0  0  0  0  0  0  0  0  0  0
  149.6509  139.0475  157.8331 C   0  0  0  0  0  0  0  0  0  0  0  0
  149.7720  138.9399  156.3041 C   0  0  2  0  0  0  0  0  0  0  0  0
  150.6717  137.8215  155.8153 C   0  0  0  0  0  0  0  0  0  0  0  0
  150.9732  138.2624  154.3861 C   0  0  0  0  0  0  0  0  0  0  0  0
  150.9452  139.6871  154.4021 O   0  0  0  0  0  0  0  0  0  0  0  0
  150.4301  140.1523  155.6465 C   0  0  0  0  0  0  0  0  0  0  0  0
  148.8580  135.9138  159.5271 N   0  5  0  0  0  0  0  0  0  0  0  0
  148.2572  135.8120  160.7336 C   0  0  0  0  0  0  0  0  0  0  0  0
  148.0808  136.7942  161.6330 N   0  0  0  0  0  0  0  0  0  0  0  0
  147.4215  136.3911  162.7943 C   0  0  0  0  0  0  0  0  0  0  0  0
  147.0808  135.0659  162.7890 C   0  0  0  0  0  0  0  0  0  0  0  0
  147.5842  134.2868  161.3172 S   0  0  0  0  0  0  0  0  0  0  0  0
  148.0549  137.7048  158.2044 H   0  0  0  0  0  0  0  0  0  0  0  0
  149.0471  139.9173  158.0956 H   0  0  0  0  0  0  0  0  0  0  0  0
  150.6347  139.1930  158.2823 H   0  0  0  0  0  0  0  0  0  0  0  0
  148.7797  138.8056  155.8697 H   0  0  0  0  0  0  0  0  0  0  0  0
  151.5922  137.7908  156.4003 H   0  0  0  0  0  0  0  0  0  0  0  0
  150.2030  136.8383  155.8648 H   0  0  0  0  0  0  0  0  0  0  0  0
  151.9316  137.8861  154.0278 H   0  0  0  0  0  0  0  0  0  0  0  0
  150.1955  137.9094  153.7080 H   0  0  0  0  0  0  0  0  0  0  0  0
  149.7343  140.9796  155.5053 H   0  0  0  0  0  0  0  0  0  0  0  0
  151.2652  140.5130  156.2486 H   0  0  0  0  0  0  0  0  0  0  0  0
  147.2361  137.1152  163.5735 H   0  0  0  0  0  0  0  0  0  0  0  0
  146.5685  134.5031  163.5543 H   0  0  0  0  0  0  0  0  0  0  0  0
  1  2  2  0  0  0  0
  2  3  1  0  0  0  0
  2 10  1  0  0  0  0
  3  4  1  0  0  0  0
  3 16  1  0  0  0  0
  4  5  1  0  0  0  0
  4 17  1  0  0  0  0
  4 18  1  0  0  0  0
  5  9  1  0  0  0  0
  5  6  1  0  0  0  0
  5 19  1  0  0  0  0
  6  7  1  0  0  0  0
  6 20  1  0  0  0  0
  6 21  1  0  0  0  0
  7  8  1  0  0  0  0
  7 22  1  0  0  0  0
  7 23  1  0  0  0  0
  8  9  1  0  0  0  0
  9 24  1  0  0  0  0
  9 25  1  0  0  0  0
 10 11  1  0  0  0  0
 11 15  1  0  0  0  0
 11 12  2  0  0  0  0
 12 13  1  0  0  0  0
 13 14  2  0  0  0  0
 13 26  1  0  0  0  0
 14 15  1  0  0  0  0
 14 27  1  0  0  0  0
M  CHG  1  10  -1
M  END
> <s_m_source_file>
AV-unprocessed.smi

> <i_m_source_file_index>
1901

> <i_lp_mmshare_version>
43012

> <i_f3d_flags>
0

> <s_epik_input>
czFbY0hdW2NIXW5jMVtOSF1DKD1PKVtOSF1bQ0gyXVtDQEBIXTJbQ0gyXVtDSDJdT1tDSDJdMg==

> <s_epik_cmdline>
J2VwaWtfcHl0aG9uJywgJy1waCcsICc3LjAnLCAnLXRuJywgJzgnLCAnLW1hJywgJzIwMCcsICctbWV0YWxfYmluZGluZycsICctaW1hZScsICc8aW5maWxlLm1hZT4nLCAnLW9tYWUnLCAnPG91dGZpbGUubWFlPic=

> <r_lp_tautomer_probability>
0.999

> <r_epik_Ionization_Penalty>
8.4411

> <r_epik_Ionization_Penalty_Charging>
6.72681

> <r_epik_Ionization_Penalty_Neutral>
1.71429

> <r_epik_State_Penalty>
6.72698

> <r_epik_Charging_Adjusted_Penalty>
13.4538

> <i_epik_Tot_Q>
-1

> <i_epik_Tot_abs_Q>
1

> <r_epik_Metal_State_Penalty>
2.64812

> <b_epik_Metal_Only>
1

> <s_lp_Force_Field>
OPLS_2005

> <r_lp_Energy>
18.4833

> <b_lp_Chiralities_Consistent>
1

> <s_lp_Variant>
AV-unprocessed.smi:1901-3

> <Gold.Version>
5.8.1

> <Gold.Id.Protein>
6NUR|6NUR_protein|mol2

> <Gold.PLP.Fitness>
35.2492

> <Gold.PLP.PLP>
-27.9353

> <Gold.PLP.part.hbond>
-3.5293

> <Gold.PLP.part.metal>
0.0000

> <Gold.PLP.part.buried>
-4.9835

> <Gold.PLP.part.nonpolar>
-19.7809

> <Gold.PLP.part.repulsive>
0.2674

> <Gold.PLP.ligand.clash>
0.0000

> <Gold.PLP.ligand.torsion>
0.8463

> <Gold.PLP.Chemscore.Hbond>
3.0000

> <Gold.PLP.Chemscore.CHOScore>
0.0000

> <Gold.PLP.Chemscore.Metal>
0.0000

> <Gold.Chemscore.Hbonds>
donor molecule, donor type, donor heavy atom, donor atom, acceptor molecule, acceptor atom, score
      P1  H  6896  6907       L1     1  0.93
      P1  H  6931  6943       L1    12  1.00
      P1  H  7989  7998       L1     8  1.00

> <Gold.PLP.Chemscore.Internal.Correction>
0.0064

> <Gold.Rescore>
     Score         DG    S(hbond)    S(metal)    S(lipo)     H(rot)  DE(clash)    DE(int)     intcor
     18.33     -19.25       3.38        0.00      49.53       1.30       0.01       0.91       ----

> <Gold.Chemscore.Fitness>
18.3293

> <Gold.Chemscore.DG>
-19.2492

> <Gold.Chemscore.ZeroCoef>
-5.4800

> <Gold.Chemscore.Hbond>
3.3839

> <Gold.Chemscore.Metal>
0.0000

> <Gold.Chemscore.Lipo>
49.5300

> <Gold.Chemscore.Internal_Hbond>
0.0000

> <Gold.Chemscore.DEClash>
0.0088

> <Gold.Chemscore.DEInternal>
0.9111

> <Gold.Chemscore.Rot>
1.3000

> <Gold.Chemscore.Internal.Correction>
   9.000000E+99

> <Gold.Chemscore.Hbonds>
donor molecule, donor type, donor heavy atom, donor atom, acceptor molecule, acceptor atom, score
      P1  H  6896  6907       L1     1  0.27
      P1  H  6931  6943       L1    12  0.78
      P1  H  6934  6947       L1    12  0.01
      P1  H  7989  7998       L1     8  0.88

> <Gold.Chemscore.Hbond.Weighted>
-11.3022

> <Gold.Chemscore.Metal.Weighted>
-0.0000

> <Gold.Chemscore.Lipo.Weighted>
-5.7950

> <Gold.Chemscore.Internal_Hbond.Weighted>
0.0000

> <Gold.Chemscore.DEClash.Weighted>
0.0088

> <Gold.Chemscore.DEInternal.Weighted>
0.9111

> <Gold.Chemscore.Rot.Weighted>
3.3280

> <Gold.Chemscore.Internal.Correction.Weighted>
   9.000000E+99

> <Gold.Protein.RotatedTorsions>
[ 6907 6896 6895 6894 ] final  -10.92 input  -60.11 | X-H torsion
[ 7974 7965 7964 7962 ] final  166.56 input  175.53 | X-H torsion
[ 8008 7997 7996 7995 ] final -168.88 input   59.86 | X-H torsion
[ 10167 10162 10161 10158 ] final  -96.30 input  -65.29 | X-H torsion
[ 10718 10713 10712 10709 ] final    0.80 input   66.30 | X-H torsion
[ 10763 10752 10751 10750 ] final   19.19 input  -60.55 | X-H torsion
[ 11005 11000 10999 10996 ] final   24.14 input  -57.11 | X-H torsion

> <Gold.Protein.ActiveResidues>
 VAL166  LYS551  ARG553  GLY616  TRP617  ASP618  TYR619  PRO620  LYS621  CYS622 
 ASP623  PHE694  ASN695  SER759  ASP760  ASP761  ALA762  ILE779  LEU786  VAL792 
 PHE793  MET794  SER795  GLU796  ALA797  LYS798  CYS799  TRP800  GLU811  SER814 

> <Gold.Protein.RotatedAtoms>
  151.3943  135.0961  159.9535 H   0  0  0  0  0  0  0  0  0  0  0  0  # atno 6907 bound_to 6896
  152.5070  133.8949  159.7423 H   0  0  0  0  0  0  0  0  0  0  0  0  # atno 6908 bound_to 6896
  150.9410  133.6601  159.2819 H   0  0  0  0  0  0  0  0  0  0  0  0  # atno 6909 bound_to 6896
  144.7457  139.8633  143.6383 H   0  0  0  0  0  0  0  0  0  0  0  0  # atno 7974 bound_to 7965
  155.8974  140.1035  157.1375 H   0  0  0  0  0  0  0  0  0  0  0  0  # atno 8008 bound_to 7997
  154.4022  140.1299  156.4456 H   0  0  0  0  0  0  0  0  0  0  0  0  # atno 8009 bound_to 7997
  155.7463  140.3466  155.5131 H   0  0  0  0  0  0  0  0  0  0  0  0  # atno 8010 bound_to 7997
  140.2952  143.3196  152.0305 H   0  0  0  0  0  0  0  0  0  0  0  0  # atno 10167 bound_to 10162
  156.8388  130.5514  149.5679 H   0  0  0  0  0  0  0  0  0  0  0  0  # atno 10718 bound_to 10713
  153.1184  135.6713  153.9379 H   0  0  0  0  0  0  0  0  0  0  0  0  # atno 10763 bound_to 10752
  153.8901  135.3048  155.3448 H   0  0  0  0  0  0  0  0  0  0  0  0  # atno 10764 bound_to 10752
  154.7598  135.4994  153.9521 H   0  0  0  0  0  0  0  0  0  0  0  0  # atno 10765 bound_to 10752
  140.3619  134.2116  155.7671 H   0  0  0  0  0  0  0  0  0  0  0  0  # atno 11005 bound_to 11000
  146.1332  139.4372  143.0155 LP  0  0  0  0  0  0  0  0  0  0  0  0  # atno 17320 bound_to 7965
  145.7131  141.0100  143.1443 LP  0  0  0  0  0  0  0  0  0  0  0  0  # atno 17321 bound_to 7965
  139.4928  144.6496  151.6704 LP  0  0  0  0  0  0  0  0  0  0  0  0  # atno 17342 bound_to 10162
  140.5698  144.0127  150.6211 LP  0  0  0  0  0  0  0  0  0  0  0  0  # atno 17343 bound_to 10162
  156.0892  130.5882  150.9703 LP  0  0  0  0  0  0  0  0  0  0  0  0  # atno 17370 bound_to 10713
  157.6367  131.0915  150.8334 LP  0  0  0  0  0  0  0  0  0  0  0  0  # atno 17371 bound_to 10713
  141.1981  133.8043  157.0596 LP  0  0  0  0  0  0  0  0  0  0  0  0  # atno 17394 bound_to 11000
  140.0620  134.9750  157.1320 LP  0  0  0  0  0  0  0  0  0  0  0  0  # atno 17395 bound_to 11000

$$$$
