AV-unprocessed.smi:1741|AV-procd|sdf|7016|dock7
  -GOLD-   22720 8233D 1   1.00000     0.00000
 Structure written by MMmdl.
 38 39  0  0  0  0  0  0  0  0  1 V2000
  150.9960  141.6792  157.3282 C   0  0  0  0  0  0  0  0  0  0  0  0
  151.8958  140.6203  156.6795 C   0  0  0  0  0  0  0  0  0  0  0  0
  151.1489  139.7530  155.7895 N   0  0  0  0  0  0  0  0  0  0  0  0
  151.0165  138.3796  155.8478 C   0  0  0  0  0  0  0  0  0  0  0  0
  150.2235  138.0400  154.7880 C   0  0  0  0  0  0  0  0  0  0  0  0
  149.7744  136.7608  154.3733 N   0  0  0  0  0  0  0  0  0  0  0  0
  149.7091  135.6401  155.1103 C   0  0  0  0  0  0  0  0  0  0  0  0
  150.0261  135.5551  156.2969 O   0  0  0  0  0  0  0  0  0  0  0  0
  149.2419  134.6119  154.3874 N   0  0  0  0  0  0  0  0  0  0  0  0
  149.0384  133.2460  154.8682 C   0  0  2  0  0  0  0  0  0  0  0  0
  150.3768  132.7003  155.3874 C   0  0  0  0  0  0  0  0  0  0  0  0
  148.4550  132.3609  153.7474 C   0  0  2  0  0  0  0  0  0  0  0  0
  147.0227  132.7008  153.3320 C   0  0  0  0  0  0  0  0  0  0  0  0
  146.5726  131.4022  152.7035 C   0  0  0  0  0  0  0  0  0  0  0  0
  147.2343  130.3662  153.6083 C   0  0  0  0  0  0  0  0  0  0  0  0
  148.3813  131.0013  154.1689 O   0  0  0  0  0  0  0  0  0  0  0  0
  149.9117  139.2586  154.1315 C   0  0  0  0  0  0  0  0  0  0  0  0
  150.4738  140.2900  154.7429 N   0  0  0  0  0  0  0  0  0  0  0  0
  151.5739  142.3291  157.9853 H   0  0  0  0  0  0  0  0  0  0  0  0
  150.2093  141.2174  157.9256 H   0  0  0  0  0  0  0  0  0  0  0  0
  150.5200  142.3064  156.5737 H   0  0  0  0  0  0  0  0  0  0  0  0
  152.6922  141.1013  156.1107 H   0  0  0  0  0  0  0  0  0  0  0  0
  152.3767  140.0098  157.4450 H   0  0  0  0  0  0  0  0  0  0  0  0
  151.4907  137.7898  156.6183 H   0  0  0  0  0  0  0  0  0  0  0  0
  149.4730  136.6913  153.4124 H   0  0  0  0  0  0  0  0  0  0  0  0
  149.0066  134.7860  153.4214 H   0  0  0  0  0  0  0  0  0  0  0  0
  148.3386  133.2479  155.7059 H   0  0  0  0  0  0  0  0  0  0  0  0
  150.2612  131.6956  155.7947 H   0  0  0  0  0  0  0  0  0  0  0  0
  150.7758  133.3304  156.1829 H   0  0  0  0  0  0  0  0  0  0  0  0
  151.1226  132.6526  154.5932 H   0  0  0  0  0  0  0  0  0  0  0  0
  149.0970  132.4006  152.8655 H   0  0  0  0  0  0  0  0  0  0  0  0
  146.4103  132.9239  154.2071 H   0  0  0  0  0  0  0  0  0  0  0  0
  146.9652  133.5480  152.6480 H   0  0  0  0  0  0  0  0  0  0  0  0
  145.4882  131.2986  152.6574 H   0  0  0  0  0  0  0  0  0  0  0  0
  146.9678  131.3227  151.6899 H   0  0  0  0  0  0  0  0  0  0  0  0
  146.5648  130.0831  154.4210 H   0  0  0  0  0  0  0  0  0  0  0  0
  147.5081  129.4617  153.0650 H   0  0  0  0  0  0  0  0  0  0  0  0
  149.3099  139.4265  153.2506 H   0  0  0  0  0  0  0  0  0  0  0  0
  1  2  1  0  0  0  0
  1 19  1  0  0  0  0
  1 20  1  0  0  0  0
  1 21  1  0  0  0  0
  2  3  1  0  0  0  0
  2 22  1  0  0  0  0
  2 23  1  0  0  0  0
  3 18  1  0  0  0  0
  3  4  1  0  0  0  0
  4  5  2  0  0  0  0
  4 24  1  0  0  0  0
  5  6  1  0  0  0  0
  5 17  1  0  0  0  0
  6  7  1  0  0  0  0
  6 25  1  0  0  0  0
  7  8  2  0  0  0  0
  7  9  1  0  0  0  0
  9 10  1  0  0  0  0
  9 26  1  0  0  0  0
 10 11  1  0  0  0  0
 10 12  1  0  0  0  0
 10 27  1  0  0  0  0
 11 28  1  0  0  0  0
 11 29  1  0  0  0  0
 11 30  1  0  0  0  0
 12 16  1  0  0  0  0
 12 13  1  0  0  0  0
 12 31  1  0  0  0  0
 13 14  1  0  0  0  0
 13 32  1  0  0  0  0
 13 33  1  0  0  0  0
 14 15  1  0  0  0  0
 14 34  1  0  0  0  0
 14 35  1  0  0  0  0
 15 16  1  0  0  0  0
 15 36  1  0  0  0  0
 15 37  1  0  0  0  0
 17 18  2  0  0  0  0
 17 38  1  0  0  0  0
M  END
> <s_m_source_file>
AV-unprocessed.smi

> <i_m_source_file_index>
1741

> <i_lp_mmshare_version>
43012

> <i_f3d_flags>
0

> <s_epik_input>
W0NIM11bQ0gyXW4xW2NIXWMoW2NIXW4xKVtOSF1DKD1PKVtOSF1bQ0BIXShbQ0gzXSlbQ0BASF0yW0NIMl1bQ0gyXVtDSDJdTzI=

> <s_epik_cmdline>
J2VwaWtfcHl0aG9uJywgJy1waCcsICc3LjAnLCAnLXRuJywgJzgnLCAnLW1hJywgJzIwMCcsICctbWV0YWxfYmluZGluZycsICctaW1hZScsICc8aW5maWxlLm1hZT4nLCAnLW9tYWUnLCAnPG91dGZpbGUubWFlPic=

> <r_lp_tautomer_probability>
1

> <r_epik_Ionization_Penalty>
0.000179292

> <r_epik_Ionization_Penalty_Charging>
0

> <r_epik_Ionization_Penalty_Neutral>
0.000179292

> <r_epik_State_Penalty>
-0

> <r_epik_Charging_Adjusted_Penalty>
0

> <i_epik_Tot_Q>
0

> <i_epik_Tot_abs_Q>
0

> <r_epik_Metal_State_Penalty>
-0

> <b_epik_Metal_Only>
0

> <s_lp_Force_Field>
OPLS_2005

> <r_lp_Energy>
21.1803

> <b_lp_Chiralities_Consistent>
1

> <s_lp_Variant>
AV-unprocessed.smi:1741-1

> <Gold.Version>
5.8.1

> <Gold.Id.Protein>
6NUR|6NUR_protein|mol2

> <Gold.PLP.Fitness>
39.5524

> <Gold.PLP.PLP>
-28.4397

> <Gold.PLP.part.hbond>
-3.3599

> <Gold.PLP.part.metal>
0.0000

> <Gold.PLP.part.buried>
-2.9030

> <Gold.PLP.part.nonpolar>
-22.7634

> <Gold.PLP.part.repulsive>
0.2298

> <Gold.PLP.ligand.clash>
0.0000

> <Gold.PLP.ligand.torsion>
0.1548

> <Gold.PLP.Chemscore.Hbond>
2.8024

> <Gold.PLP.Chemscore.CHOScore>
1.0000

> <Gold.PLP.Chemscore.Metal>
0.0000

> <Gold.Chemscore.Hbonds>
donor molecule, donor type, donor heavy atom, donor atom, acceptor molecule, acceptor atom, score
      L1  H     6    25       P1  7948  1.00
      L1  H     9    26       P1  7948  0.72
      P1  H  7989  7998       L1    18  1.00
      L1  C    17    38       P1  7957  1.00

> <Gold.PLP.Chemscore.Internal.Correction>
0.0150

> <Gold.Rescore>
     Score         DG    S(hbond)    S(metal)    S(lipo)     H(rot)  DE(clash)    DE(int)     intcor
     12.78     -14.88       1.72        0.00      61.34       1.38       0.03       2.07       ----

> <Gold.Chemscore.Fitness>
12.7771

> <Gold.Chemscore.DG>
-14.8820

> <Gold.Chemscore.ZeroCoef>
-5.4800

> <Gold.Chemscore.Hbond>
1.7230

> <Gold.Chemscore.Metal>
0.0000

> <Gold.Chemscore.Lipo>
61.3443

> <Gold.Chemscore.Internal_Hbond>
0.0000

> <Gold.Chemscore.DEClash>
0.0331

> <Gold.Chemscore.DEInternal>
2.0718

> <Gold.Chemscore.Rot>
1.3790

> <Gold.Chemscore.Internal.Correction>
   9.000000E+99

> <Gold.Chemscore.Hbonds>
donor molecule, donor type, donor heavy atom, donor atom, acceptor molecule, acceptor atom, score
      L1  H     6    25       P1  7948  0.78
      L1  H     9    26       P1  7948  0.13
      P1  H  7989  7998       L1    18  0.26

> <Gold.Chemscore.Hbond.Weighted>
-5.7549

> <Gold.Chemscore.Metal.Weighted>
-0.0000

> <Gold.Chemscore.Lipo.Weighted>
-7.1773

> <Gold.Chemscore.Internal_Hbond.Weighted>
0.0000

> <Gold.Chemscore.DEClash.Weighted>
0.0331

> <Gold.Chemscore.DEInternal.Weighted>
2.0718

> <Gold.Chemscore.Rot.Weighted>
3.5302

> <Gold.Chemscore.Internal.Correction.Weighted>
   9.000000E+99

> <Gold.Protein.RotatedTorsions>
[ 6907 6896 6895 6894 ] final  -52.68 input  -60.11 | X-H torsion
[ 7974 7965 7964 7962 ] final   49.51 input  175.53 | X-H torsion
[ 8008 7997 7996 7995 ] final  140.59 input   59.86 | X-H torsion
[ 10167 10162 10161 10158 ] final   51.63 input  -65.29 | X-H torsion
[ 10718 10713 10712 10709 ] final  -53.73 input   66.30 | X-H torsion
[ 10763 10752 10751 10750 ] final  -48.12 input  -60.55 | X-H torsion
[ 11005 11000 10999 10996 ] final   61.32 input  -57.11 | X-H torsion

> <Gold.Protein.ActiveResidues>
 VAL166  LYS551  ARG553  GLY616  TRP617  ASP618  TYR619  PRO620  LYS621  CYS622 
 ASP623  PHE694  ASN695  SER759  ASP760  ASP761  ALA762  ILE779  LEU786  VAL792 
 PHE793  MET794  SER795  GLU796  ALA797  LYS798  CYS799  TRP800  GLU811  SER814 

> <Gold.Protein.RotatedAtoms>
  150.8496  134.7816  159.6997 H   0  0  0  0  0  0  0  0  0  0  0  0  # atno 6907 bound_to 6896
  152.4564  134.5278  159.9812 H   0  0  0  0  0  0  0  0  0  0  0  0  # atno 6908 bound_to 6896
  151.5402  133.3396  159.2970 H   0  0  0  0  0  0  0  0  0  0  0  0  # atno 6909 bound_to 6896
  146.0101  139.4534  142.9961 H   0  0  0  0  0  0  0  0  0  0  0  0  # atno 7974 bound_to 7965
  156.2977  140.2337  156.4427 H   0  0  0  0  0  0  0  0  0  0  0  0  # atno 8008 bound_to 7997
  154.8172  140.0440  157.1405 H   0  0  0  0  0  0  0  0  0  0  0  0  # atno 8009 bound_to 7997
  154.9356  140.3022  155.5149 H   0  0  0  0  0  0  0  0  0  0  0  0  # atno 8010 bound_to 7997
  140.2599  144.3385  150.6321 H   0  0  0  0  0  0  0  0  0  0  0  0  # atno 10167 bound_to 10162
  156.1510  130.4151  149.9945 H   0  0  0  0  0  0  0  0  0  0  0  0  # atno 10718 bound_to 10713
  154.0725  135.6602  153.4826 H   0  0  0  0  0  0  0  0  0  0  0  0  # atno 10763 bound_to 10752
  153.0385  135.5161  154.7552 H   0  0  0  0  0  0  0  0  0  0  0  0  # atno 10764 bound_to 10752
  154.6623  135.3017  154.9818 H   0  0  0  0  0  0  0  0  0  0  0  0  # atno 10765 bound_to 10752
  140.0170  134.6210  155.9696 H   0  0  0  0  0  0  0  0  0  0  0  0  # atno 11005 bound_to 11000
  145.7355  141.0027  143.1329 LP  0  0  0  0  0  0  0  0  0  0  0  0  # atno 17320 bound_to 7965
  144.6950  139.9035  143.7460 LP  0  0  0  0  0  0  0  0  0  0  0  0  # atno 17321 bound_to 7965
  140.5974  143.2167  151.7137 LP  0  0  0  0  0  0  0  0  0  0  0  0  # atno 17342 bound_to 10162
  139.5020  144.3846  152.0342 LP  0  0  0  0  0  0  0  0  0  0  0  0  # atno 17343 bound_to 10162
  156.7803  130.9219  151.3646 LP  0  0  0  0  0  0  0  0  0  0  0  0  # atno 17370 bound_to 10713
  157.6657  130.9005  149.9926 LP  0  0  0  0  0  0  0  0  0  0  0  0  # atno 17371 bound_to 10713
  141.1749  133.6539  156.4790 LP  0  0  0  0  0  0  0  0  0  0  0  0  # atno 17394 bound_to 11000
  140.4454  134.6977  157.5013 LP  0  0  0  0  0  0  0  0  0  0  0  0  # atno 17395 bound_to 11000

$$$$
