AV-unprocessed.smi:49|AV-procd|sdf|467|dock2
  -GOLD-   2262016333D 1   1.00000     0.00000
 Structure written by MMmdl.
 28 29  0  0  0  0  0  0  0  0  2 V2000
  147.2979  135.5178  154.8998 C   0  0  0  0  0  0  0  0  0  0  0  0
  146.7243  136.7783  154.2427 C   0  0  0  0  0  0  0  0  0  0  0  0
  145.8945  136.4624  153.0426 C   0  0  0  0  0  0  0  0  0  0  0  0
  145.7026  135.1861  152.5914 N   0  0  0  0  0  0  0  0  0  0  0  0
  144.9599  135.4242  151.5122 C   0  0  0  0  0  0  0  0  0  0  0  0
  144.4025  134.3905  150.5801 C   0  0  2  0  0  0  0  0  0  0  0  0
  143.5609  133.3026  151.2485 C   0  0  0  0  0  0  0  0  0  0  0  0
  143.8045  132.0840  150.3595 C   0  0  1  0  0  0  0  0  0  0  0  0
  142.9051  132.0918  149.2685 O   0  0  0  0  0  0  0  0  0  0  0  0
  145.2430  132.2700  149.8501 C   0  0  0  0  0  0  0  0  0  0  0  0
  145.5762  133.7007  150.0104 N   0  3  0  0  0  0  0  0  0  0  0  0
  144.7329  136.7276  151.3323 N   0  0  0  0  0  0  0  0  0  0  0  0
  145.3431  137.4288  152.3107 N   0  0  0  0  0  0  0  0  0  0  0  0
  143.8455  134.8637  149.7697 H   0  0  0  0  0  0  0  0  0  0  0  0
  143.6823  131.1473  150.9044 H   0  0  0  0  0  0  0  0  0  0  0  0
  144.2015  137.1646  150.5926 H   0  0  0  0  0  0  0  0  0  0  0  0
  147.8987  135.7741  155.7727 H   0  0  0  0  0  0  0  0  0  0  0  0
  147.9354  134.9681  154.2065 H   0  0  0  0  0  0  0  0  0  0  0  0
  146.5024  134.8479  155.2278 H   0  0  0  0  0  0  0  0  0  0  0  0
  146.1149  137.3262  154.9625 H   0  0  0  0  0  0  0  0  0  0  0  0
  147.5360  137.4468  153.9529 H   0  0  0  0  0  0  0  0  0  0  0  0
  143.9538  133.0887  152.2440 H   0  0  0  0  0  0  0  0  0  0  0  0
  142.5106  133.5749  151.3605 H   0  0  0  0  0  0  0  0  0  0  0  0
  142.3036  132.8135  149.3761 H   0  0  0  0  0  0  0  0  0  0  0  0
  145.9373  131.6955  150.4641 H   0  0  0  0  0  0  0  0  0  0  0  0
  145.3721  131.9450  148.8168 H   0  0  0  0  0  0  0  0  0  0  0  0
  145.8361  134.1169  149.1279 H   0  0  0  0  0  0  0  0  0  0  0  0
  146.3428  133.7805  150.6641 H   0  0  0  0  0  0  0  0  0  0  0  0
  1  2  1  0  0  0  0
  1 17  1  0  0  0  0
  1 18  1  0  0  0  0
  1 19  1  0  0  0  0
  2 20  1  0  0  0  0
  2 21  1  0  0  0  0
  2  3  1  0  0  0  0
  3  4  1  0  0  0  0
  3 13  2  0  0  0  0
  4  5  2  0  0  0  0
  5  6  1  0  0  0  0
  5 12  1  0  0  0  0
  6 14  1  0  0  0  0
  6 11  1  0  0  0  0
  6  7  1  0  0  0  0
  7  8  1  0  0  0  0
  7 22  1  0  0  0  0
  7 23  1  0  0  0  0
  8 15  1  0  0  0  0
  8  9  1  0  0  0  0
  8 10  1  0  0  0  0
  9 24  1  0  0  0  0
 10 11  1  0  0  0  0
 10 25  1  0  0  0  0
 10 26  1  0  0  0  0
 11 27  1  0  0  0  0
 11 28  1  0  0  0  0
 12 13  1  0  0  0  0
 12 16  1  0  0  0  0
M  CHG  1  11   1
M  END
> <s_m_source_file>
AV-unprocessed.smi

> <i_m_source_file_index>
49

> <i_lp_mmshare_version>
43012

> <i_f3d_flags>
0

> <s_epik_input>
W0NIM11bQ0gyXWMxbmMobltuSF0xKVtDQEBIXTJbQ0gyXVtDQEBIXShbT0hdKVtDSDJdW05IXTI=

> <s_epik_cmdline>
J2VwaWtfcHl0aG9uJywgJy1waCcsICc3LjAnLCAnLXRuJywgJzgnLCAnLW1hJywgJzIwMCcsICctbWV0YWxfYmluZGluZycsICctaW1hZScsICc8aW5maWxlLm1hZT4nLCAnLW9tYWUnLCAnPG91dGZpbGUubWFlPic=

> <r_epik_Ionization_Penalty>
0.372103

> <r_epik_Ionization_Penalty_Charging>
0.0688988

> <r_epik_Ionization_Penalty_Neutral>
0.303204

> <r_epik_State_Penalty>
0.737493

> <r_epik_Charging_Adjusted_Penalty>
0.806392

> <i_epik_Tot_Q>
1

> <i_epik_Tot_abs_Q>
1

> <r_epik_Metal_State_Penalty>
1.01235

> <b_epik_Metal_Only>
0

> <s_lp_Force_Field>
OPLS_2005

> <r_lp_Energy>
18.9462

> <b_lp_Chiralities_Consistent>
1

> <s_lp_Variant>
AV-unprocessed.smi:49-5

> <Gold.Version>
5.8.1

> <Gold.Id.Protein>
6NUR|6NUR_protein|mol2

> <Gold.PLP.Fitness>
34.0060

> <Gold.PLP.PLP>
-23.0829

> <Gold.PLP.part.hbond>
-5.0000

> <Gold.PLP.part.metal>
0.0000

> <Gold.PLP.part.buried>
-4.3164

> <Gold.PLP.part.nonpolar>
-14.1404

> <Gold.PLP.part.repulsive>
0.5413

> <Gold.PLP.ligand.clash>
0.0000

> <Gold.PLP.ligand.torsion>
0.0285

> <Gold.PLP.Chemscore.Hbond>
3.6535

> <Gold.PLP.Chemscore.CHOScore>
0.0000

> <Gold.PLP.Chemscore.Metal>
0.0000

> <Gold.Chemscore.Hbonds>
donor molecule, donor type, donor heavy atom, donor atom, acceptor molecule, acceptor atom, score
      L1  H     9    24       P1 10186  0.91
      L1  H    11    27       P1  7921  1.00
      L1  H    12    16       P1 10171  0.93
      P1  H 10785 10796       L1     9  0.78

> <Gold.PLP.Chemscore.Internal.Correction>
0.0196

> <Gold.Rescore>
     Score         DG    S(hbond)    S(metal)    S(lipo)     H(rot)  DE(clash)    DE(int)     intcor
     14.76     -14.84       2.92        0.00      37.99       1.89       0.01       0.08       ----

> <Gold.Chemscore.Fitness>
14.7552

> <Gold.Chemscore.DG>
-14.8430

> <Gold.Chemscore.ZeroCoef>
-5.4800

> <Gold.Chemscore.Hbond>
2.9197

> <Gold.Chemscore.Metal>
0.0000

> <Gold.Chemscore.Lipo>
37.9929

> <Gold.Chemscore.Internal_Hbond>
0.0000

> <Gold.Chemscore.DEClash>
0.0115

> <Gold.Chemscore.DEInternal>
0.0763

> <Gold.Chemscore.Rot>
1.8883

> <Gold.Chemscore.Internal.Correction>
   9.000000E+99

> <Gold.Chemscore.Hbonds>
donor molecule, donor type, donor heavy atom, donor atom, acceptor molecule, acceptor atom, score
      L1  H     9    24       P1 10186  0.89
      L1  H    11    27       P1  7921  0.40
      L1  H    12    16       P1 10171  0.89
      P1  H 10785 10796       L1     9  0.11

> <Gold.Chemscore.Hbond.Weighted>
-9.7518

> <Gold.Chemscore.Metal.Weighted>
-0.0000

> <Gold.Chemscore.Lipo.Weighted>
-4.4452

> <Gold.Chemscore.Internal_Hbond.Weighted>
0.0000

> <Gold.Chemscore.DEClash.Weighted>
0.0115

> <Gold.Chemscore.DEInternal.Weighted>
0.0763

> <Gold.Chemscore.Rot.Weighted>
4.8340

> <Gold.Chemscore.Internal.Correction.Weighted>
   9.000000E+99

> <Gold.Protein.RotatedTorsions>
[ 6907 6896 6895 6894 ] final   64.10 input  -60.11 | X-H torsion
[ 7974 7965 7964 7962 ] final  -38.65 input  175.53 | X-H torsion
[ 8008 7997 7996 7995 ] final  160.54 input   59.86 | X-H torsion
[ 10167 10162 10161 10158 ] final -124.87 input  -65.29 | X-H torsion
[ 10718 10713 10712 10709 ] final   85.10 input   66.30 | X-H torsion
[ 10763 10752 10751 10750 ] final  -41.71 input  -60.55 | X-H torsion
[ 11005 11000 10999 10996 ] final -101.87 input  -57.11 | X-H torsion

> <Gold.Protein.ActiveResidues>
 VAL166  LYS551  ARG553  GLY616  TRP617  ASP618  TYR619  PRO620  LYS621  CYS622 
 ASP623  PHE694  ASN695  SER759  ASP760  ASP761  ALA762  ILE779  LEU786  VAL792 
 PHE793  MET794  SER795  GLU796  ALA797  LYS798  CYS799  TRP800  GLU811  SER814 

> <Gold.Protein.RotatedAtoms>
  152.4305  134.5787  159.9941 H   0  0  0  0  0  0  0  0  0  0  0  0  # atno 6907 bound_to 6896
  151.5911  133.3361  159.3036 H   0  0  0  0  0  0  0  0  0  0  0  0  # atno 6908 bound_to 6896
  150.8197  134.7435  159.6826 H   0  0  0  0  0  0  0  0  0  0  0  0  # atno 6909 bound_to 6896
  146.0467  140.6537  142.9061 H   0  0  0  0  0  0  0  0  0  0  0  0  # atno 7974 bound_to 7965
  156.2165  140.1801  156.7576 H   0  0  0  0  0  0  0  0  0  0  0  0  # atno 8008 bound_to 7997
  154.5800  140.0668  156.9119 H   0  0  0  0  0  0  0  0  0  0  0  0  # atno 8009 bound_to 7997
  155.2520  140.3329  155.4284 H   0  0  0  0  0  0  0  0  0  0  0  0  # atno 8010 bound_to 7997
  139.9881  143.5670  152.2352 H   0  0  0  0  0  0  0  0  0  0  0  0  # atno 10167 bound_to 10162
  157.6909  131.0160  150.2771 H   0  0  0  0  0  0  0  0  0  0  0  0  # atno 10718 bound_to 10713
  153.9670  135.6733  153.4746 H   0  0  0  0  0  0  0  0  0  0  0  0  # atno 10763 bound_to 10752
  153.0811  135.4923  154.8500 H   0  0  0  0  0  0  0  0  0  0  0  0  # atno 10764 bound_to 10752
  154.7240  135.3123  154.8961 H   0  0  0  0  0  0  0  0  0  0  0  0  # atno 10765 bound_to 10752
  141.1213  133.8512  157.1287 H   0  0  0  0  0  0  0  0  0  0  0  0  # atno 11005 bound_to 11000
  144.7101  140.4007  143.7087 LP  0  0  0  0  0  0  0  0  0  0  0  0  # atno 17320 bound_to 7965
  145.6794  139.1615  143.2709 LP  0  0  0  0  0  0  0  0  0  0  0  0  # atno 17321 bound_to 7965
  139.6360  144.7650  151.2437 LP  0  0  0  0  0  0  0  0  0  0  0  0  # atno 17342 bound_to 10162
  140.7465  143.6398  150.8345 LP  0  0  0  0  0  0  0  0  0  0  0  0  # atno 17343 bound_to 10162
  156.3324  130.3802  149.7479 LP  0  0  0  0  0  0  0  0  0  0  0  0  # atno 17370 bound_to 10713
  156.5015  130.8131  151.3134 LP  0  0  0  0  0  0  0  0  0  0  0  0  # atno 17371 bound_to 10713
  140.0173  134.9962  157.0519 LP  0  0  0  0  0  0  0  0  0  0  0  0  # atno 17394 bound_to 11000
  140.4499  134.1593  155.7180 LP  0  0  0  0  0  0  0  0  0  0  0  0  # atno 17395 bound_to 11000

$$$$
