AV-unprocessed.smi:2499|AV-procd|sdf|9837|dock2
  -GOLD-   2272013463D 1   1.00000     0.00000
 Structure written by MMmdl.
 27 28  0  0  0  0  0  0  0  0  1 V2000
  154.0557  141.8827  159.3910 C   0  0  0  0  0  0  0  0  0  0  0  0
  152.5896  142.3346  159.4320 C   0  0  2  0  0  0  0  0  0  0  0  0
  151.9587  141.9838  158.1633 N   0  0  0  0  0  0  0  0  0  0  0  0
  152.0835  140.8135  157.5194 C   0  0  0  0  0  0  0  0  0  0  0  0
  152.7865  139.8994  157.9620 O   0  0  0  0  0  0  0  0  0  0  0  0
  151.3561  140.8386  156.3387 N   0  0  0  0  0  0  0  0  0  0  0  0
  151.2765  139.7663  155.6118 C   0  0  0  0  0  0  0  0  0  0  0  0
  151.8169  138.4896  155.7427 N   0  0  0  0  0  0  0  0  0  0  0  0
  151.4149  137.7447  154.6696 C   0  0  0  0  0  0  0  0  0  0  0  0
  150.6550  138.5139  153.8958 C   0  0  0  0  0  0  0  0  0  0  0  0
  150.5526  139.7561  154.4463 O   0  0  0  0  0  0  0  0  0  0  0  0
  152.4875  143.8129  159.7684 C   0  0  0  0  0  0  0  0  0  0  0  0
  152.2893  144.2724  161.1936 C   0  0  0  0  0  0  0  0  0  0  0  0
  151.1766  144.4378  160.1843 C   0  0  0  0  0  0  0  0  0  0  0  0
  154.5532  142.0763  160.3418 H   0  0  0  0  0  0  0  0  0  0  0  0
  154.6116  142.4062  158.6122 H   0  0  0  0  0  0  0  0  0  0  0  0
  154.1327  140.8129  159.1940 H   0  0  0  0  0  0  0  0  0  0  0  0
  152.1027  141.7715  160.2306 H   0  0  0  0  0  0  0  0  0  0  0  0
  151.3741  142.6899  157.7391 H   0  0  0  0  0  0  0  0  0  0  0  0
  152.4067  138.1330  156.4811 H   0  0  0  0  0  0  0  0  0  0  0  0
  151.7249  136.7148  154.5719 H   0  0  0  0  0  0  0  0  0  0  0  0
  150.1384  138.3349  152.9645 H   0  0  0  0  0  0  0  0  0  0  0  0
  153.1398  144.4405  159.1639 H   0  0  0  0  0  0  0  0  0  0  0  0
  152.1614  143.5101  161.9596 H   0  0  0  0  0  0  0  0  0  0  0  0
  152.8195  145.1681  161.5107 H   0  0  0  0  0  0  0  0  0  0  0  0
  150.9651  145.4434  159.8264 H   0  0  0  0  0  0  0  0  0  0  0  0
  150.3104  143.7867  160.2841 H   0  0  0  0  0  0  0  0  0  0  0  0
  1  2  1  0  0  0  0
  1 15  1  0  0  0  0
  1 16  1  0  0  0  0
  1 17  1  0  0  0  0
  2  3  1  0  0  0  0
  2 12  1  0  0  0  0
  2 18  1  0  0  0  0
  3 19  1  0  0  0  0
  3  4  1  0  0  0  0
  4  6  1  0  0  0  0
  4  5  2  0  0  0  0
  6  7  2  0  0  0  0
  7 11  1  0  0  0  0
  7  8  1  0  0  0  0
  8 20  1  0  0  0  0
  8  9  1  0  0  0  0
  9 21  1  0  0  0  0
  9 10  2  0  0  0  0
 10 22  1  0  0  0  0
 10 11  1  0  0  0  0
 12 14  1  0  0  0  0
 12 13  1  0  0  0  0
 12 23  1  0  0  0  0
 13 14  1  0  0  0  0
 13 24  1  0  0  0  0
 13 25  1  0  0  0  0
 14 26  1  0  0  0  0
 14 27  1  0  0  0  0
M  END
> <s_m_source_file>
AV-unprocessed.smi

> <i_m_source_file_index>
2499

> <i_lp_mmshare_version>
43012

> <i_f3d_flags>
0

> <s_epik_input>
W0NIMl0xW0NIMl1bQ0hdMVtDQEhdKFtDSDNdKVtOSF1DKD1PKVtOSF1jMm5bY0hdW2NIXW8y

> <s_epik_cmdline>
J2VwaWtfcHl0aG9uJywgJy1waCcsICc3LjAnLCAnLXRuJywgJzgnLCAnLW1hJywgJzIwMCcsICctbWV0YWxfYmluZGluZycsICctaW1hZScsICc8aW5maWxlLm1hZT4nLCAnLW9tYWUnLCAnPG91dGZpbGUubWFlPic=

> <r_lp_tautomer_probability>
0.107061

> <r_epik_Ionization_Penalty>
1.51515

> <r_epik_Ionization_Penalty_Charging>
1.51478

> <r_epik_Ionization_Penalty_Neutral>
0.000369309

> <r_epik_State_Penalty>
2.62718

> <r_epik_Charging_Adjusted_Penalty>
4.14196

> <i_epik_Tot_Q>
0

> <i_epik_Tot_abs_Q>
0

> <r_epik_Metal_State_Penalty>
3.5378

> <b_epik_Metal_Only>
0

> <s_lp_Force_Field>
OPLS_2005

> <r_lp_Energy>
36.8038

> <b_lp_Chiralities_Consistent>
1

> <s_lp_Variant>
AV-unprocessed.smi:2499-7

> <Gold.Version>
5.8.1

> <Gold.Id.Protein>
6NUR|6NUR_protein|mol2

> <Gold.PLP.Fitness>
38.2116

> <Gold.PLP.PLP>
-29.6295

> <Gold.PLP.part.hbond>
-1.0000

> <Gold.PLP.part.metal>
0.0000

> <Gold.PLP.part.buried>
-5.5317

> <Gold.PLP.part.nonpolar>
-24.1421

> <Gold.PLP.part.repulsive>
0.2893

> <Gold.PLP.ligand.clash>
0.0000

> <Gold.PLP.ligand.torsion>
0.7259

> <Gold.PLP.Chemscore.Hbond>
1.0000

> <Gold.PLP.Chemscore.CHOScore>
1.9891

> <Gold.PLP.Chemscore.Metal>
0.0000

> <Gold.Chemscore.Hbonds>
donor molecule, donor type, donor heavy atom, donor atom, acceptor molecule, acceptor atom, score
      P1  H  7989  7998       L1    11  0.90
      P1  H  7997  8010       L1     5  0.98
      L1  C    10    22       P1  7948  0.82
      L1  C    10    22       P1  7957  0.95

> <Gold.PLP.Chemscore.Internal.Correction>
1.0666

> <Gold.Rescore>
     Score         DG    S(hbond)    S(metal)    S(lipo)     H(rot)  DE(clash)    DE(int)     intcor
     11.76     -13.68       0.96        0.00      71.07       1.29       0.02       1.90       ----

> <Gold.Chemscore.Fitness>
11.7582

> <Gold.Chemscore.DG>
-13.6789

> <Gold.Chemscore.ZeroCoef>
-5.4800

> <Gold.Chemscore.Hbond>
0.9552

> <Gold.Chemscore.Metal>
0.0000

> <Gold.Chemscore.Lipo>
71.0657

> <Gold.Chemscore.Internal_Hbond>
0.0000

> <Gold.Chemscore.DEClash>
0.0211

> <Gold.Chemscore.DEInternal>
1.8996

> <Gold.Chemscore.Rot>
1.2915

> <Gold.Chemscore.Internal.Correction>
   9.000000E+99

> <Gold.Chemscore.Hbonds>
donor molecule, donor type, donor heavy atom, donor atom, acceptor molecule, acceptor atom, score
      P1  H  7989  7998       L1    11  0.11
      P1  H  7997  8010       L1     5  0.53

> <Gold.Chemscore.Hbond.Weighted>
-3.1905

> <Gold.Chemscore.Metal.Weighted>
-0.0000

> <Gold.Chemscore.Lipo.Weighted>
-8.3147

> <Gold.Chemscore.Internal_Hbond.Weighted>
0.0000

> <Gold.Chemscore.DEClash.Weighted>
0.0211

> <Gold.Chemscore.DEInternal.Weighted>
1.8996

> <Gold.Chemscore.Rot.Weighted>
3.3062

> <Gold.Chemscore.Internal.Correction.Weighted>
   9.000000E+99

> <Gold.Protein.RotatedTorsions>
[ 6907 6896 6895 6894 ] final   35.10 input  -60.11 | X-H torsion
[ 7974 7965 7964 7962 ] final  -35.72 input  175.53 | X-H torsion
[ 8008 7997 7996 7995 ] final   33.26 input   59.86 | X-H torsion
[ 10167 10162 10161 10158 ] final  -36.38 input  -65.29 | X-H torsion
[ 10718 10713 10712 10709 ] final -129.83 input   66.30 | X-H torsion
[ 10763 10752 10751 10750 ] final -165.85 input  -60.55 | X-H torsion
[ 11005 11000 10999 10996 ] final -119.43 input  -57.11 | X-H torsion

> <Gold.Protein.ActiveResidues>
 VAL166  LYS551  ARG553  GLY616  TRP617  ASP618  TYR619  PRO620  LYS621  CYS622 
 ASP623  PHE694  ASN695  SER759  ASP760  ASP761  ALA762  ILE779  LEU786  VAL792 
 PHE793  MET794  SER795  GLU796  ALA797  LYS798  CYS799  TRP800  GLU811  SER814 

> <Gold.Protein.RotatedAtoms>
  152.1115  134.9271  160.0566 H   0  0  0  0  0  0  0  0  0  0  0  0  # atno 6907 bound_to 6896
  152.0447  133.3988  159.4360 H   0  0  0  0  0  0  0  0  0  0  0  0  # atno 6908 bound_to 6896
  150.6844  134.3296  159.4865 H   0  0  0  0  0  0  0  0  0  0  0  0  # atno 6909 bound_to 6896
  146.0723  140.6192  142.8947 H   0  0  0  0  0  0  0  0  0  0  0  0  # atno 7974 bound_to 7965
  155.1357  140.3261  155.4464 H   0  0  0  0  0  0  0  0  0  0  0  0  # atno 8008 bound_to 7997
  156.2620  140.2002  156.6424 H   0  0  0  0  0  0  0  0  0  0  0  0  # atno 8009 bound_to 7997
  154.6579  140.0550  157.0016 H   0  0  0  0  0  0  0  0  0  0  0  0  # atno 8010 bound_to 7997
  140.7144  143.3412  151.2353 H   0  0  0  0  0  0  0  0  0  0  0  0  # atno 10167 bound_to 10162
  156.2084  130.6903  151.0621 H   0  0  0  0  0  0  0  0  0  0  0  0  # atno 10718 bound_to 10713
  154.6891  135.2967  154.9505 H   0  0  0  0  0  0  0  0  0  0  0  0  # atno 10763 bound_to 10752
  154.0474  135.6649  153.4800 H   0  0  0  0  0  0  0  0  0  0  0  0  # atno 10764 bound_to 10752
  153.0600  135.5121  154.7974 H   0  0  0  0  0  0  0  0  0  0  0  0  # atno 10765 bound_to 10752
  141.0216  134.0116  157.3274 H   0  0  0  0  0  0  0  0  0  0  0  0  # atno 11005 bound_to 11000
  144.7239  140.4463  143.6987 LP  0  0  0  0  0  0  0  0  0  0  0  0  # atno 17320 bound_to 7965
  145.6369  139.1544  143.2937 LP  0  0  0  0  0  0  0  0  0  0  0  0  # atno 17321 bound_to 7965
  139.6920  143.9676  152.2864 LP  0  0  0  0  0  0  0  0  0  0  0  0  # atno 17342 bound_to 10162
  139.9340  144.6723  150.8333 LP  0  0  0  0  0  0  0  0  0  0  0  0  # atno 17343 bound_to 10162
  157.7025  131.0770  150.6774 LP  0  0  0  0  0  0  0  0  0  0  0  0  # atno 17370 bound_to 10713
  156.6833  130.4573  149.5621 LP  0  0  0  0  0  0  0  0  0  0  0  0  # atno 17371 bound_to 10713
  139.9149  135.0195  156.7843 LP  0  0  0  0  0  0  0  0  0  0  0  0  # atno 17394 bound_to 11000
  140.6563  133.9685  155.7781 LP  0  0  0  0  0  0  0  0  0  0  0  0  # atno 17395 bound_to 11000

$$$$
