AV-unprocessed.smi:313|AV-procd|sdf|2312|dock4
  -GOLD-   2262022213D 1   1.00000     0.00000
 Structure written by MMmdl.
 50 51  0  0  0  0  0  0  0  0  1 V2000
  136.1311  140.6935  155.6243 C   0  0  0  0  0  0  0  0  0  0  0  0
  136.0347  141.9765  154.7860 C   0  0  0  0  0  0  0  0  0  0  0  0
  136.8521  141.9277  153.4814 C   0  0  1  0  0  0  0  0  0  0  0  0
  136.7053  143.2273  152.6740 C   0  0  0  0  0  0  0  0  0  0  0  0
  138.2609  141.6797  153.7788 N   0  0  0  0  0  0  0  0  0  0  0  0
  138.9652  140.6075  153.3851 C   0  0  0  0  0  0  0  0  0  0  0  0
  138.4861  139.6929  152.7124 O   0  0  0  0  0  0  0  0  0  0  0  0
  140.4323  140.5607  153.8420 C   0  0  1  0  0  0  0  0  0  0  0  0
  140.4521  140.5853  155.3793 C   0  0  0  0  0  0  0  0  0  0  0  0
  141.0769  139.3245  153.4017 N   0  0  0  0  0  0  0  0  0  0  0  0
  140.5696  138.0890  153.5493 C   0  0  0  0  0  0  0  0  0  0  0  0
  139.4898  137.8579  154.0939 O   0  0  0  0  0  0  0  0  0  0  0  0
  141.4421  136.9689  153.0620 C   0  0  0  0  0  0  0  0  0  0  0  0
  141.0571  135.6170  153.1896 C   0  0  0  0  0  0  0  0  0  0  0  0
  141.9267  134.6079  152.7335 C   0  0  0  0  0  0  0  0  0  0  0  0
  143.1723  134.9714  152.1608 C   0  0  0  0  0  0  0  0  0  0  0  0
  144.0941  134.0085  151.6875 N   0  0  0  0  0  0  0  0  0  0  0  0
  145.3730  134.5162  151.1893 C   0  0  0  0  0  0  0  0  0  0  0  0
  146.3884  133.3721  151.0303 C   0  0  0  0  0  0  0  0  0  0  0  0
  145.8363  132.3478  150.2119 O   0  0  0  0  0  0  0  0  0  0  0  0
  144.6732  131.7788  150.8009 C   0  0  0  0  0  0  0  0  0  0  0  0
  143.5845  132.8547  150.9497 C   0  0  0  0  0  0  0  0  0  0  0  0
  143.5410  136.2710  152.0534 N   0  0  0  0  0  0  0  0  0  0  0  0
  142.7052  137.2351  152.4937 C   0  0  0  0  0  0  0  0  0  0  0  0
  135.5003  140.7635  156.5106 H   0  0  0  0  0  0  0  0  0  0  0  0
  137.1513  140.5085  155.9612 H   0  0  0  0  0  0  0  0  0  0  0  0
  135.8040  139.8249  155.0522 H   0  0  0  0  0  0  0  0  0  0  0  0
  134.9861  142.1544  154.5448 H   0  0  0  0  0  0  0  0  0  0  0  0
  136.3535  142.8265  155.3908 H   0  0  0  0  0  0  0  0  0  0  0  0
  136.4651  141.1054  152.8767 H   0  0  0  0  0  0  0  0  0  0  0  0
  135.6606  143.4198  152.4289 H   0  0  0  0  0  0  0  0  0  0  0  0
  137.2568  143.1748  151.7348 H   0  0  0  0  0  0  0  0  0  0  0  0
  137.0796  144.0863  153.2321 H   0  0  0  0  0  0  0  0  0  0  0  0
  138.7364  142.3780  154.3317 H   0  0  0  0  0  0  0  0  0  0  0  0
  140.9770  141.4235  153.4535 H   0  0  0  0  0  0  0  0  0  0  0  0
  139.9867  141.4924  155.7676 H   0  0  0  0  0  0  0  0  0  0  0  0
  141.4753  140.5607  155.7553 H   0  0  0  0  0  0  0  0  0  0  0  0
  139.9242  139.7313  155.8068 H   0  0  0  0  0  0  0  0  0  0  0  0
  141.9865  139.4151  152.9733 H   0  0  0  0  0  0  0  0  0  0  0  0
  140.1098  135.3440  153.6313 H   0  0  0  0  0  0  0  0  0  0  0  0
  141.6133  133.5797  152.8278 H   0  0  0  0  0  0  0  0  0  0  0  0
  145.2057  135.0047  150.2286 H   0  0  0  0  0  0  0  0  0  0  0  0
  145.7984  135.2643  151.8580 H   0  0  0  0  0  0  0  0  0  0  0  0
  147.3014  133.7439  150.5651 H   0  0  0  0  0  0  0  0  0  0  0  0
  146.6706  132.9655  152.0029 H   0  0  0  0  0  0  0  0  0  0  0  0
  144.3142  130.9674  150.1676 H   0  0  0  0  0  0  0  0  0  0  0  0
  144.9207  131.3398  151.7693 H   0  0  0  0  0  0  0  0  0  0  0  0
  142.7345  132.4153  151.4725 H   0  0  0  0  0  0  0  0  0  0  0  0
  143.2390  133.1792  149.9672 H   0  0  0  0  0  0  0  0  0  0  0  0
  143.0605  138.2491  152.3800 H   0  0  0  0  0  0  0  0  0  0  0  0
  1  2  1  0  0  0  0
  1 25  1  0  0  0  0
  1 26  1  0  0  0  0
  1 27  1  0  0  0  0
  2  3  1  0  0  0  0
  2 28  1  0  0  0  0
  2 29  1  0  0  0  0
  3  4  1  0  0  0  0
  3  5  1  0  0  0  0
  3 30  1  0  0  0  0
  4 31  1  0  0  0  0
  4 32  1  0  0  0  0
  4 33  1  0  0  0  0
  5  6  1  0  0  0  0
  5 34  1  0  0  0  0
  6  7  2  0  0  0  0
  6  8  1  0  0  0  0
  8  9  1  0  0  0  0
  8 10  1  0  0  0  0
  8 35  1  0  0  0  0
  9 36  1  0  0  0  0
  9 37  1  0  0  0  0
  9 38  1  0  0  0  0
 10 11  1  0  0  0  0
 10 39  1  0  0  0  0
 11 12  2  0  0  0  0
 11 13  1  0  0  0  0
 13 24  1  0  0  0  0
 13 14  2  0  0  0  0
 14 15  1  0  0  0  0
 14 40  1  0  0  0  0
 15 16  2  0  0  0  0
 15 41  1  0  0  0  0
 16 17  1  0  0  0  0
 16 23  1  0  0  0  0
 17 22  1  0  0  0  0
 17 18  1  0  0  0  0
 18 19  1  0  0  0  0
 18 42  1  0  0  0  0
 18 43  1  0  0  0  0
 19 20  1  0  0  0  0
 19 44  1  0  0  0  0
 19 45  1  0  0  0  0
 20 21  1  0  0  0  0
 21 22  1  0  0  0  0
 21 46  1  0  0  0  0
 21 47  1  0  0  0  0
 22 48  1  0  0  0  0
 22 49  1  0  0  0  0
 23 24  2  0  0  0  0
 24 50  1  0  0  0  0
M  END
> <s_m_source_file>
AV-unprocessed.smi

> <i_m_source_file_index>
313

> <i_lp_mmshare_version>
43012

> <i_f3d_flags>
0

> <s_epik_input>
W0NIM11bQ0gyXVtDQEhdKFtDSDNdKVtOSF1DKD1PKVtDQEhdKFtDSDNdKVtOSF1DKD1PKWMxW2NIXVtjSF1jKG5bY0hdMSlOMltDSDJdW0NIMl1PW0NIMl1bQ0gyXTI=

> <s_epik_cmdline>
J2VwaWtfcHl0aG9uJywgJy1waCcsICc3LjAnLCAnLXRuJywgJzgnLCAnLW1hJywgJzIwMCcsICctbWV0YWxfYmluZGluZycsICctaW1hZScsICc8aW5maWxlLm1hZT4nLCAnLW9tYWUnLCAnPG91dGZpbGUubWFlPic=

> <r_lp_tautomer_probability>
1

> <r_epik_Ionization_Penalty>
9.96442e-06

> <r_epik_Ionization_Penalty_Charging>
0

> <r_epik_Ionization_Penalty_Neutral>
9.96442e-06

> <r_epik_State_Penalty>
-0

> <r_epik_Charging_Adjusted_Penalty>
0

> <i_epik_Tot_Q>
0

> <i_epik_Tot_abs_Q>
0

> <r_epik_Metal_State_Penalty>
-0

> <b_epik_Metal_Only>
0

> <s_lp_Force_Field>
OPLS_2005

> <r_lp_Energy>
19.952

> <b_lp_Chiralities_Consistent>
1

> <s_lp_Variant>
AV-unprocessed.smi:313-4

> <Gold.Version>
5.8.1

> <Gold.Id.Protein>
6NUR|6NUR_protein|mol2

> <Gold.PLP.Fitness>
42.0919

> <Gold.PLP.PLP>
-35.4494

> <Gold.PLP.part.hbond>
-1.7957

> <Gold.PLP.part.metal>
0.0000

> <Gold.PLP.part.buried>
-8.3500

> <Gold.PLP.part.nonpolar>
-26.1948

> <Gold.PLP.part.repulsive>
0.6212

> <Gold.PLP.ligand.clash>
0.0000

> <Gold.PLP.ligand.torsion>
0.3957

> <Gold.PLP.Chemscore.Hbond>
1.0000

> <Gold.PLP.Chemscore.CHOScore>
1.3124

> <Gold.PLP.Chemscore.Metal>
0.0000

> <Gold.Chemscore.Hbonds>
donor molecule, donor type, donor heavy atom, donor atom, acceptor molecule, acceptor atom, score
      L1  H    10    39       P1 10175  1.00
      L1  C    24    50       P1 10171  0.35
      L1  C    24    50       P1 10175  1.00

> <Gold.PLP.Chemscore.Internal.Correction>
0.4967

> <Gold.Rescore>
     Score         DG    S(hbond)    S(metal)    S(lipo)     H(rot)  DE(clash)    DE(int)     intcor
      7.50     -12.11       0.84        0.00      71.74       1.79       0.11       4.49       ----

> <Gold.Chemscore.Fitness>
7.5006

> <Gold.Chemscore.DG>
-12.1066

> <Gold.Chemscore.ZeroCoef>
-5.4800

> <Gold.Chemscore.Hbond>
0.8419

> <Gold.Chemscore.Metal>
0.0000

> <Gold.Chemscore.Lipo>
71.7428

> <Gold.Chemscore.Internal_Hbond>
0.0000

> <Gold.Chemscore.DEClash>
0.1132

> <Gold.Chemscore.DEInternal>
4.4928

> <Gold.Chemscore.Rot>
1.7888

> <Gold.Chemscore.Internal.Correction>
   9.000000E+99

> <Gold.Chemscore.Hbonds>
donor molecule, donor type, donor heavy atom, donor atom, acceptor molecule, acceptor atom, score
      L1  H    10    39       P1 10175  0.78

> <Gold.Chemscore.Hbond.Weighted>
-2.8119

> <Gold.Chemscore.Metal.Weighted>
-0.0000

> <Gold.Chemscore.Lipo.Weighted>
-8.3939

> <Gold.Chemscore.Internal_Hbond.Weighted>
0.0000

> <Gold.Chemscore.DEClash.Weighted>
0.1132

> <Gold.Chemscore.DEInternal.Weighted>
4.4928

> <Gold.Chemscore.Rot.Weighted>
4.5793

> <Gold.Chemscore.Internal.Correction.Weighted>
   9.000000E+99

> <Gold.Protein.RotatedTorsions>
[ 6907 6896 6895 6894 ] final  162.97 input  -60.11 | X-H torsion
[ 7974 7965 7964 7962 ] final  -88.00 input  175.53 | X-H torsion
[ 8008 7997 7996 7995 ] final -111.01 input   59.86 | X-H torsion
[ 10167 10162 10161 10158 ] final -176.75 input  -65.29 | X-H torsion
[ 10718 10713 10712 10709 ] final  -87.36 input   66.30 | X-H torsion
[ 10763 10752 10751 10750 ] final  134.17 input  -60.55 | X-H torsion
[ 11005 11000 10999 10996 ] final -130.61 input  -57.11 | X-H torsion

> <Gold.Protein.ActiveResidues>
 VAL166  LYS551  ARG553  GLY616  TRP617  ASP618  TYR619  PRO620  LYS621  CYS622 
 ASP623  PHE694  ASN695  SER759  ASP760  ASP761  ALA762  ILE779  LEU786  VAL792 
 PHE793  MET794  SER795  GLU796  ALA797  LYS798  CYS799  TRP800  GLU811  SER814 

> <Gold.Protein.RotatedAtoms>
  151.9323  133.3614  159.3935 H   0  0  0  0  0  0  0  0  0  0  0  0  # atno 6907 bound_to 6896
  150.7014  134.4524  159.5352 H   0  0  0  0  0  0  0  0  0  0  0  0  # atno 6908 bound_to 6896
  152.2167  134.8451  160.0542 H   0  0  0  0  0  0  0  0  0  0  0  0  # atno 6909 bound_to 6896
  145.4591  140.9561  143.1980 H   0  0  0  0  0  0  0  0  0  0  0  0  # atno 7974 bound_to 7965
  154.9832  140.0396  157.2287 H   0  0  0  0  0  0  0  0  0  0  0  0  # atno 8008 bound_to 7997
  154.7695  140.2799  155.6127 H   0  0  0  0  0  0  0  0  0  0  0  0  # atno 8009 bound_to 7997
  156.2918  140.2613  156.2494 H   0  0  0  0  0  0  0  0  0  0  0  0  # atno 8010 bound_to 7997
  139.5514  144.2100  152.1083 H   0  0  0  0  0  0  0  0  0  0  0  0  # atno 10167 bound_to 10162
  155.9986  130.4797  150.4856 H   0  0  0  0  0  0  0  0  0  0  0  0  # atno 10718 bound_to 10713
  153.8192  135.3118  155.3408 H   0  0  0  0  0  0  0  0  0  0  0  0  # atno 10763 bound_to 10752
  154.8020  135.4721  154.0301 H   0  0  0  0  0  0  0  0  0  0  0  0  # atno 10764 bound_to 10752
  153.1704  135.6877  153.8705 H   0  0  0  0  0  0  0  0  0  0  0  0  # atno 10765 bound_to 10752
  140.9331  134.1293  157.4217 H   0  0  0  0  0  0  0  0  0  0  0  0  # atno 11005 bound_to 11000
  144.8014  139.6133  143.7070 LP  0  0  0  0  0  0  0  0  0  0  0  0  # atno 17320 bound_to 7965
  146.2461  139.6102  142.9458 LP  0  0  0  0  0  0  0  0  0  0  0  0  # atno 17321 bound_to 7965
  140.1596  144.5038  150.6640 LP  0  0  0  0  0  0  0  0  0  0  0  0  # atno 17342 bound_to 10162
  140.6777  143.2312  151.5464 LP  0  0  0  0  0  0  0  0  0  0  0  0  # atno 17343 bound_to 10162
  157.2856  131.0616  151.2168 LP  0  0  0  0  0  0  0  0  0  0  0  0  # atno 17370 bound_to 10713
  157.3199  130.6932  149.6263 LP  0  0  0  0  0  0  0  0  0  0  0  0  # atno 17371 bound_to 10713
  139.8801  135.0011  156.6052 LP  0  0  0  0  0  0  0  0  0  0  0  0  # atno 17394 bound_to 11000
  140.7836  133.8640  155.8588 LP  0  0  0  0  0  0  0  0  0  0  0  0  # atno 17395 bound_to 11000

$$$$
