AV-unprocessed.smi:1188|AV-procd|sdf|4977|dock2
  -GOLD-   22720 3573D 1   1.00000     0.00000
 Structure written by MMmdl.
 48 49  0  0  0  0  0  0  0  0  1 V2000
  150.8615  129.7272  155.1455 C   0  0  0  0  0  0  0  0  0  0  0  0
  151.4910  130.6466  155.6451 C   0  0  0  0  0  0  0  0  0  0  0  0
  152.2347  131.7596  156.2535 C   0  0  0  0  0  0  0  0  0  0  0  0
  151.5844  133.0383  156.0096 N   0  0  0  0  0  0  0  0  0  0  0  0
  150.5719  133.5356  156.7409 C   0  0  0  0  0  0  0  0  0  0  0  0
  150.1059  132.9194  157.7001 O   0  0  0  0  0  0  0  0  0  0  0  0
  150.0956  134.8480  156.2947 C   0  0  0  0  0  0  0  0  0  0  0  0
  148.7357  135.2479  156.6005 C   0  0  0  0  0  0  0  0  0  0  0  0
  148.2680  136.4522  156.2183 C   0  0  0  0  0  0  0  0  0  0  0  0
  149.1027  137.4030  155.4789 C   0  0  0  0  0  0  0  0  0  0  0  0
  148.6840  138.5080  155.1320 O   0  0  0  0  0  0  0  0  0  0  0  0
  150.3740  136.9843  155.1980 N   0  0  0  0  0  0  0  0  0  0  0  0
  151.3030  137.8525  154.4550 C   0  0  0  0  0  0  0  0  0  0  0  0
  151.8372  139.0225  155.2933 C   0  0  0  0  0  0  0  0  0  0  0  0
  152.6254  139.8360  154.8095 O   0  0  0  0  0  0  0  0  0  0  0  0
  151.3785  139.1025  156.5514 N   0  0  0  0  0  0  0  0  0  0  0  0
  151.7510  140.1300  157.5165 C   0  0  0  0  0  0  0  0  0  0  0  0
  151.0883  141.4806  157.1908 C   0  0  0  0  0  0  0  0  0  0  0  0
  151.4581  142.5716  158.1822 C   0  0  0  0  0  0  0  0  0  0  0  0
  151.9433  142.2880  159.4069 C   0  0  0  0  0  0  0  0  0  0  0  0
  152.3138  143.3358  160.4421 C   0  0  0  0  0  0  0  0  0  0  0  0
  151.7624  144.7277  160.0897 C   0  0  0  0  0  0  0  0  0  0  0  0
  151.9609  145.0406  158.6015 C   0  0  0  0  0  0  0  0  0  0  0  0
  151.2481  144.0067  157.7114 C   0  0  0  0  0  0  0  0  0  0  0  0
  150.8595  135.7261  155.6075 C   0  0  0  0  0  0  0  0  0  0  0  0
  150.3097  128.9263  154.7068 H   0  0  0  0  0  0  0  0  0  0  0  0
  152.3118  131.5762  157.3259 H   0  0  0  0  0  0  0  0  0  0  0  0
  153.2435  131.7617  155.8384 H   0  0  0  0  0  0  0  0  0  0  0  0
  151.9285  133.5878  155.2358 H   0  0  0  0  0  0  0  0  0  0  0  0
  148.0792  134.5835  157.1438 H   0  0  0  0  0  0  0  0  0  0  0  0
  147.2518  136.7255  156.4618 H   0  0  0  0  0  0  0  0  0  0  0  0
  152.1566  137.2795  154.0906 H   0  0  0  0  0  0  0  0  0  0  0  0
  150.8172  138.2388  153.5567 H   0  0  0  0  0  0  0  0  0  0  0  0
  150.7279  138.3969  156.8650 H   0  0  0  0  0  0  0  0  0  0  0  0
  151.4925  139.8003  158.5240 H   0  0  0  0  0  0  0  0  0  0  0  0
  152.8362  140.2352  157.4919 H   0  0  0  0  0  0  0  0  0  0  0  0
  151.3771  141.7936  156.1862 H   0  0  0  0  0  0  0  0  0  0  0  0
  150.0024  141.3785  157.1790 H   0  0  0  0  0  0  0  0  0  0  0  0
  152.0981  141.2596  159.6991 H   0  0  0  0  0  0  0  0  0  0  0  0
  151.9407  143.0249  161.4182 H   0  0  0  0  0  0  0  0  0  0  0  0
  153.4014  143.3685  160.5132 H   0  0  0  0  0  0  0  0  0  0  0  0
  150.6980  144.7681  160.3251 H   0  0  0  0  0  0  0  0  0  0  0  0
  152.2438  145.4871  160.7064 H   0  0  0  0  0  0  0  0  0  0  0  0
  151.5967  146.0426  158.3723 H   0  0  0  0  0  0  0  0  0  0  0  0
  153.0280  145.0414  158.3753 H   0  0  0  0  0  0  0  0  0  0  0  0
  151.5977  144.1090  156.6833 H   0  0  0  0  0  0  0  0  0  0  0  0
  150.1767  144.2091  157.7024 H   0  0  0  0  0  0  0  0  0  0  0  0
  151.8874  135.5451  155.3275 H   0  0  0  0  0  0  0  0  0  0  0  0
  1  2  3  0  0  0  0
  1 26  1  0  0  0  0
  2  3  1  0  0  0  0
  3  4  1  0  0  0  0
  3 27  1  0  0  0  0
  3 28  1  0  0  0  0
  4  5  1  0  0  0  0
  4 29  1  0  0  0  0
  5  6  2  0  0  0  0
  5  7  1  0  0  0  0
  7 25  2  0  0  0  0
  7  8  1  0  0  0  0
  8  9  2  0  0  0  0
  8 30  1  0  0  0  0
  9 10  1  0  0  0  0
  9 31  1  0  0  0  0
 10 11  2  0  0  0  0
 10 12  1  0  0  0  0
 12 13  1  0  0  0  0
 12 25  1  0  0  0  0
 13 14  1  0  0  0  0
 13 32  1  0  0  0  0
 13 33  1  0  0  0  0
 14 15  2  0  0  0  0
 14 16  1  0  0  0  0
 16 17  1  0  0  0  0
 16 34  1  0  0  0  0
 17 18  1  0  0  0  0
 17 35  1  0  0  0  0
 17 36  1  0  0  0  0
 18 19  1  0  0  0  0
 18 37  1  0  0  0  0
 18 38  1  0  0  0  0
 19 24  1  0  0  0  0
 19 20  2  0  0  0  0
 20 21  1  0  0  0  0
 20 39  1  0  0  0  0
 21 22  1  0  0  0  0
 21 40  1  0  0  0  0
 21 41  1  0  0  0  0
 22 23  1  0  0  0  0
 22 42  1  0  0  0  0
 22 43  1  0  0  0  0
 23 24  1  0  0  0  0
 23 44  1  0  0  0  0
 23 45  1  0  0  0  0
 24 46  1  0  0  0  0
 24 47  1  0  0  0  0
 25 48  1  0  0  0  0
M  END
> <s_m_source_file>
AV-unprocessed.smi

> <i_m_source_file_index>
1188

> <i_lp_mmshare_version>
43012

> <i_f3d_flags>
0

> <s_epik_input>
W0NIXSNDW0NIMl1bTkhdQyg9TyljMVtjSF1bY0hdYyg9TyluKFtjSF0xKVtDSDJdQyg9TylbTkhdW0NIMl1bQ0gyXUMyPVtDSF1bQ0gyXVtDSDJdW0NIMl1bQ0gyXTI=

> <s_epik_cmdline>
J2VwaWtfcHl0aG9uJywgJy1waCcsICc3LjAnLCAnLXRuJywgJzgnLCAnLW1hJywgJzIwMCcsICctbWV0YWxfYmluZGluZycsICctaW1hZScsICc8aW5maWxlLm1hZT4nLCAnLW9tYWUnLCAnPG91dGZpbGUubWFlPic=

> <r_lp_tautomer_probability>
1

> <r_epik_Ionization_Penalty>
3.04448e-06

> <r_epik_Ionization_Penalty_Charging>
4.20752e-08

> <r_epik_Ionization_Penalty_Neutral>
3.00241e-06

> <r_epik_State_Penalty>
-0

> <r_epik_Charging_Adjusted_Penalty>
4.20752e-08

> <i_epik_Tot_Q>
0

> <i_epik_Tot_abs_Q>
0

> <r_epik_Metal_State_Penalty>
-0

> <b_epik_Metal_Only>
0

> <s_lp_Force_Field>
OPLS_2005

> <r_lp_Energy>
18.5418

> <b_lp_Chiralities_Consistent>
1

> <s_lp_Variant>
AV-unprocessed.smi:1188-1

> <Gold.Version>
5.8.1

> <Gold.Id.Protein>
6NUR|6NUR_protein|mol2

> <Gold.PLP.Fitness>
51.7834

> <Gold.PLP.PLP>
-46.1620

> <Gold.PLP.part.hbond>
-3.0000

> <Gold.PLP.part.metal>
0.0000

> <Gold.PLP.part.buried>
-5.3070

> <Gold.PLP.part.nonpolar>
-39.0455

> <Gold.PLP.part.repulsive>
0.3188

> <Gold.PLP.ligand.clash>
0.0000

> <Gold.PLP.ligand.torsion>
0.9573

> <Gold.PLP.Chemscore.Hbond>
2.4553

> <Gold.PLP.Chemscore.CHOScore>
0.0000

> <Gold.PLP.Chemscore.Metal>
0.0000

> <Gold.Chemscore.Hbonds>
donor molecule, donor type, donor heavy atom, donor atom, acceptor molecule, acceptor atom, score
      P1  H  6896  6907       L1     6  1.00
      P1  H  7989  7998       L1    15  0.53
      P1  H  7997  8009       L1    15  0.68

> <Gold.PLP.Chemscore.Internal.Correction>
0.1702

> <Gold.Rescore>
     Score         DG    S(hbond)    S(metal)    S(lipo)     H(rot)  DE(clash)    DE(int)     intcor
     19.61     -21.07       2.13        0.00     115.53       1.97       0.02       1.44       ----

> <Gold.Chemscore.Fitness>
19.6136

> <Gold.Chemscore.DG>
-21.0731

> <Gold.Chemscore.ZeroCoef>
-5.4800

> <Gold.Chemscore.Hbond>
2.1311

> <Gold.Chemscore.Metal>
0.0000

> <Gold.Chemscore.Lipo>
115.5276

> <Gold.Chemscore.Internal_Hbond>
0.0000

> <Gold.Chemscore.DEClash>
0.0156

> <Gold.Chemscore.DEInternal>
1.4439

> <Gold.Chemscore.Rot>
1.9694

> <Gold.Chemscore.Internal.Correction>
   9.000000E+99

> <Gold.Chemscore.Hbonds>
donor molecule, donor type, donor heavy atom, donor atom, acceptor molecule, acceptor atom, score
      P1  H  6896  6907       L1     6  0.55
      P1  H  7989  7998       L1    15  0.34
      P1  H  7997  8009       L1    15  0.67

> <Gold.Chemscore.Hbond.Weighted>
-7.1180

> <Gold.Chemscore.Metal.Weighted>
-0.0000

> <Gold.Chemscore.Lipo.Weighted>
-13.5167

> <Gold.Chemscore.Internal_Hbond.Weighted>
0.0000

> <Gold.Chemscore.DEClash.Weighted>
0.0156

> <Gold.Chemscore.DEInternal.Weighted>
1.4439

> <Gold.Chemscore.Rot.Weighted>
5.0416

> <Gold.Chemscore.Internal.Correction.Weighted>
   9.000000E+99

> <Gold.Protein.RotatedTorsions>
[ 6907 6896 6895 6894 ] final -141.21 input  -60.11 | X-H torsion
[ 7974 7965 7964 7962 ] final  -81.72 input  175.53 | X-H torsion
[ 8008 7997 7996 7995 ] final -129.34 input   59.86 | X-H torsion
[ 10167 10162 10161 10158 ] final   16.46 input  -65.29 | X-H torsion
[ 10718 10713 10712 10709 ] final   29.57 input   66.30 | X-H torsion
[ 10763 10752 10751 10750 ] final   59.49 input  -60.55 | X-H torsion
[ 11005 11000 10999 10996 ] final   99.10 input  -57.11 | X-H torsion

> <Gold.Protein.ActiveResidues>
 VAL166  LYS551  ARG553  GLY616  TRP617  ASP618  TYR619  PRO620  LYS621  CYS622 
 ASP623  PHE694  ASN695  SER759  ASP760  ASP761  ALA762  ILE779  LEU786  VAL792 
 PHE793  MET794  SER795  GLU796  ALA797  LYS798  CYS799  TRP800  GLU811  SER814 

> <Gold.Protein.RotatedAtoms>
  151.0708  133.5468  159.2627 H   0  0  0  0  0  0  0  0  0  0  0  0  # atno 6907 bound_to 6896
  151.2408  135.0587  159.9034 H   0  0  0  0  0  0  0  0  0  0  0  0  # atno 6908 bound_to 6896
  152.5411  134.0483  159.8152 H   0  0  0  0  0  0  0  0  0  0  0  0  # atno 6909 bound_to 6896
  145.5428  140.9507  143.1541 H   0  0  0  0  0  0  0  0  0  0  0  0  # atno 7974 bound_to 7965
  155.2775  140.0442  157.3012 H   0  0  0  0  0  0  0  0  0  0  0  0  # atno 8008 bound_to 7997
  154.5616  140.2348  155.8295 H   0  0  0  0  0  0  0  0  0  0  0  0  # atno 8009 bound_to 7997
  156.2052  140.3014  155.9619 H   0  0  0  0  0  0  0  0  0  0  0  0  # atno 8010 bound_to 7997
  140.5796  143.9006  150.6778 H   0  0  0  0  0  0  0  0  0  0  0  0  # atno 10167 bound_to 10162
  157.2483  130.7102  149.6392 H   0  0  0  0  0  0  0  0  0  0  0  0  # atno 10718 bound_to 10713
  152.9896  135.5570  154.5722 H   0  0  0  0  0  0  0  0  0  0  0  0  # atno 10763 bound_to 10752
  154.5120  135.2803  155.1337 H   0  0  0  0  0  0  0  0  0  0  0  0  # atno 10764 bound_to 10752
  154.2725  135.6360  153.5368 H   0  0  0  0  0  0  0  0  0  0  0  0  # atno 10765 bound_to 10752
  139.8771  134.9080  156.4556 H   0  0  0  0  0  0  0  0  0  0  0  0  # atno 11005 bound_to 11000
  144.7568  139.7054  143.7250 LP  0  0  0  0  0  0  0  0  0  0  0  0  # atno 17320 bound_to 7965
  146.1969  139.5241  142.9768 LP  0  0  0  0  0  0  0  0  0  0  0  0  # atno 17321 bound_to 7965
  140.2502  143.3598  152.1412 LP  0  0  0  0  0  0  0  0  0  0  0  0  # atno 17342 bound_to 10162
  139.5162  144.6974  151.5591 LP  0  0  0  0  0  0  0  0  0  0  0  0  # atno 17343 bound_to 10162
  155.9667  130.4436  150.5427 LP  0  0  0  0  0  0  0  0  0  0  0  0  # atno 17370 bound_to 10713
  157.3306  131.0699  151.1864 LP  0  0  0  0  0  0  0  0  0  0  0  0  # atno 17371 bound_to 10713
  140.8901  133.7854  155.9562 LP  0  0  0  0  0  0  0  0  0  0  0  0  # atno 17394 bound_to 11000
  140.8763  134.2666  157.5166 LP  0  0  0  0  0  0  0  0  0  0  0  0  # atno 17395 bound_to 11000

$$$$
