AV-unprocessed.smi:1629|AV-procd|sdf|6524|dock5
  -GOLD-   22720 7203D 1   1.00000     0.00000
 Structure written by MMmdl.
 44 45  0  0  0  0  0  0  0  0  3 V2000
  146.5176  135.5515  162.9327 C   0  0  0  0  0  0  0  0  0  0  0  0
  146.5244  136.3916  161.2995 S   0  0  0  0  0  0  0  0  0  0  0  0
  145.1155  136.6933  160.9993 O   0  0  0  0  0  0  0  0  0  0  0  0
  147.4416  137.5340  161.4405 O   0  0  0  0  0  0  0  0  0  0  0  0
  147.1303  135.2154  160.3617 N   0  5  0  0  0  0  0  0  0  0  0  0
  147.7816  135.5553  159.1049 C   0  0  0  0  0  0  0  0  0  0  0  0
  148.9518  136.5500  159.3361 C   0  0  0  0  0  0  0  0  0  0  0  0
  149.5236  137.1429  158.0185 C   0  0  0  0  0  0  0  0  0  0  0  0
  148.4568  137.8039  157.2348 N   0  0  0  0  0  0  0  0  0  0  0  0
  148.3028  139.1353  157.0273 C   0  0  0  0  0  0  0  0  0  0  0  0
  147.3253  139.6230  156.4576 O   0  0  0  0  0  0  0  0  0  0  0  0
  149.3061  139.8962  157.4968 N   0  0  0  0  0  0  0  0  0  0  0  0
  149.3630  141.3513  157.4273 C   0  0  0  0  0  0  0  0  0  0  0  0
  150.7910  141.8483  157.1452 C   0  0  0  0  0  0  0  0  0  0  0  0
  151.1821  143.0073  158.0405 C   0  0  0  0  0  0  0  0  0  0  0  0
  152.2157  142.9021  158.9966 C   0  0  0  0  0  0  0  0  0  0  0  0
  152.5239  144.0173  159.8036 C   0  0  0  0  0  0  0  0  0  0  0  0
  151.7925  145.2118  159.6386 C   0  0  0  0  0  0  0  0  0  0  0  0
  150.7692  145.2608  158.6700 C   0  0  0  0  0  0  0  0  0  0  0  0
  150.5037  144.1709  157.9163 N   0  3  0  0  0  0  0  0  0  0  0  0
  147.4255  136.8168  156.8645 C   0  0  0  0  0  0  0  0  0  0  0  0
  146.7641  136.2114  158.1346 C   0  0  0  0  0  0  0  0  0  0  0  0
  146.1361  136.2369  163.6888 H   0  0  0  0  0  0  0  0  0  0  0  0
  147.5329  135.2533  163.1920 H   0  0  0  0  0  0  0  0  0  0  0  0
  145.8789  134.6701  162.8856 H   0  0  0  0  0  0  0  0  0  0  0  0
  148.1819  134.6711  158.6073 H   0  0  0  0  0  0  0  0  0  0  0  0
  148.6139  137.3726  159.9687 H   0  0  0  0  0  0  0  0  0  0  0  0
  149.7545  136.0564  159.8846 H   0  0  0  0  0  0  0  0  0  0  0  0
  150.3558  137.8034  158.2600 H   0  0  0  0  0  0  0  0  0  0  0  0
  149.9692  136.3551  157.4070 H   0  0  0  0  0  0  0  0  0  0  0  0
  150.0780  139.4278  157.9488 H   0  0  0  0  0  0  0  0  0  0  0  0
  148.6899  141.6764  156.6335 H   0  0  0  0  0  0  0  0  0  0  0  0
  148.9825  141.7835  158.3545 H   0  0  0  0  0  0  0  0  0  0  0  0
  151.5090  141.0391  157.2845 H   0  0  0  0  0  0  0  0  0  0  0  0
  150.8799  142.1602  156.1033 H   0  0  0  0  0  0  0  0  0  0  0  0
  152.7653  141.9790  159.1125 H   0  0  0  0  0  0  0  0  0  0  0  0
  153.3115  143.9568  160.5403 H   0  0  0  0  0  0  0  0  0  0  0  0
  152.0132  146.0772  160.2464 H   0  0  0  0  0  0  0  0  0  0  0  0
  150.1596  146.1315  158.4770 H   0  0  0  0  0  0  0  0  0  0  0  0
  146.6504  137.2509  156.2320 H   0  0  0  0  0  0  0  0  0  0  0  0
  147.8824  136.0344  156.2544 H   0  0  0  0  0  0  0  0  0  0  0  0
  146.0131  135.4774  157.8398 H   0  0  0  0  0  0  0  0  0  0  0  0
  146.2239  137.0059  158.6523 H   0  0  0  0  0  0  0  0  0  0  0  0
  149.7592  144.2286  157.2212 H   0  0  0  0  0  0  0  0  0  0  0  0
  1  2  1  0  0  0  0
  1 23  1  0  0  0  0
  1 24  1  0  0  0  0
  1 25  1  0  0  0  0
  2  3  2  0  0  0  0
  2  4  2  0  0  0  0
  2  5  1  0  0  0  0
  5  6  1  0  0  0  0
  6 22  1  0  0  0  0
  6  7  1  0  0  0  0
  6 26  1  0  0  0  0
  7  8  1  0  0  0  0
  7 27  1  0  0  0  0
  7 28  1  0  0  0  0
  8  9  1  0  0  0  0
  8 29  1  0  0  0  0
  8 30  1  0  0  0  0
  9 10  1  0  0  0  0
  9 21  1  0  0  0  0
 10 11  2  0  0  0  0
 10 12  1  0  0  0  0
 12 13  1  0  0  0  0
 12 31  1  0  0  0  0
 13 14  1  0  0  0  0
 13 32  1  0  0  0  0
 13 33  1  0  0  0  0
 14 15  1  0  0  0  0
 14 34  1  0  0  0  0
 14 35  1  0  0  0  0
 15 20  1  0  0  0  0
 15 16  2  0  0  0  0
 16 17  1  0  0  0  0
 16 36  1  0  0  0  0
 17 18  2  0  0  0  0
 17 37  1  0  0  0  0
 18 19  1  0  0  0  0
 18 38  1  0  0  0  0
 19 20  2  0  0  0  0
 19 39  1  0  0  0  0
 20 44  1  0  0  0  0
 21 22  1  0  0  0  0
 21 40  1  0  0  0  0
 21 41  1  0  0  0  0
 22 42  1  0  0  0  0
 22 43  1  0  0  0  0
M  CHG  1   5  -1
M  CHG  1  20   1
M  END
> <s_m_source_file>
AV-unprocessed.smi

> <i_m_source_file_index>
1629

> <i_lp_mmshare_version>
43012

> <i_f3d_flags>
0

> <s_epik_input>
W0NIM11TKD1PKSg9TylbTkhdW0NIXTFbQ0gyXVtDSDJdTihbQ0gyXVtDSDJdMSlDKD1PKVtOSF1bQ0gyXVtDSDJdYzJbY0hdW2NIXVtjSF1bY0hdbjI=

> <s_epik_cmdline>
J2VwaWtfcHl0aG9uJywgJy1waCcsICc3LjAnLCAnLXRuJywgJzgnLCAnLW1hJywgJzIwMCcsICctbWV0YWxfYmluZGluZycsICctaW1hZScsICc8aW5maWxlLm1hZT4nLCAnLW9tYWUnLCAnPG91dGZpbGUubWFlPic=

> <r_epik_Ionization_Penalty>
8.25917

> <r_epik_Ionization_Penalty_Charging>
8.2591

> <r_epik_Ionization_Penalty_Neutral>
6.17235e-05

> <r_epik_State_Penalty>
8.35449

> <r_epik_Charging_Adjusted_Penalty>
16.6136

> <i_epik_Tot_Q>
0

> <i_epik_Tot_abs_Q>
2

> <r_epik_Metal_State_Penalty>
4.3175

> <b_epik_Metal_Only>
1

> <s_lp_Force_Field>
OPLS_2005

> <r_lp_Energy>
28.7999

> <b_lp_Chiralities_Consistent>
1

> <s_lp_Variant>
AV-unprocessed.smi:1629-4

> <Gold.Version>
5.8.1

> <Gold.Id.Protein>
6NUR|6NUR_protein|mol2

> <Gold.PLP.Fitness>
44.8660

> <Gold.PLP.PLP>
-35.0992

> <Gold.PLP.part.hbond>
-2.9487

> <Gold.PLP.part.metal>
0.0000

> <Gold.PLP.part.buried>
-4.5980

> <Gold.PLP.part.nonpolar>
-27.5143

> <Gold.PLP.part.repulsive>
0.1207

> <Gold.PLP.ligand.clash>
0.0000

> <Gold.PLP.ligand.torsion>
1.1469

> <Gold.PLP.Chemscore.Hbond>
3.6720

> <Gold.PLP.Chemscore.CHOScore>
0.0000

> <Gold.PLP.Chemscore.Metal>
0.0000

> <Gold.Chemscore.Hbonds>
donor molecule, donor type, donor heavy atom, donor atom, acceptor molecule, acceptor atom, score
      L1  H    20    44       P1  8028  2.00
      P1  H  6931  6943       L1     4  0.74
      P1  H  6934  6947       L1     4  0.83

> <Gold.PLP.Chemscore.Internal.Correction>
1.0445

> <Gold.Rescore>
     Score         DG    S(hbond)    S(metal)    S(lipo)     H(rot)  DE(clash)    DE(int)     intcor
     18.11     -20.65       2.70        0.00      91.18       1.77       0.02       2.51       ----

> <Gold.Chemscore.Fitness>
18.1137

> <Gold.Chemscore.DG>
-20.6472

> <Gold.Chemscore.ZeroCoef>
-5.4800

> <Gold.Chemscore.Hbond>
2.7008

> <Gold.Chemscore.Metal>
0.0000

> <Gold.Chemscore.Lipo>
91.1763

> <Gold.Chemscore.Internal_Hbond>
0.0000

> <Gold.Chemscore.DEClash>
0.0202

> <Gold.Chemscore.DEInternal>
2.5133

> <Gold.Chemscore.Rot>
1.7661

> <Gold.Chemscore.Internal.Correction>
   9.000000E+99

> <Gold.Chemscore.Hbonds>
donor molecule, donor type, donor heavy atom, donor atom, acceptor molecule, acceptor atom, score
      L1  H    20    44       P1  8028  0.50
      P1  H  6931  6943       L1     4  0.74
      P1  H  6934  6947       L1     4  0.81

> <Gold.Chemscore.Hbond.Weighted>
-9.0207

> <Gold.Chemscore.Metal.Weighted>
-0.0000

> <Gold.Chemscore.Lipo.Weighted>
-10.6676

> <Gold.Chemscore.Internal_Hbond.Weighted>
0.0000

> <Gold.Chemscore.DEClash.Weighted>
0.0202

> <Gold.Chemscore.DEInternal.Weighted>
2.5133

> <Gold.Chemscore.Rot.Weighted>
4.5211

> <Gold.Chemscore.Internal.Correction.Weighted>
   9.000000E+99

> <Gold.Protein.RotatedTorsions>
[ 6907 6896 6895 6894 ] final  143.10 input  -60.11 | X-H torsion
[ 7974 7965 7964 7962 ] final  130.97 input  175.53 | X-H torsion
[ 8008 7997 7996 7995 ] final  127.01 input   59.86 | X-H torsion
[ 10167 10162 10161 10158 ] final -122.11 input  -65.29 | X-H torsion
[ 10718 10713 10712 10709 ] final -111.31 input   66.30 | X-H torsion
[ 10763 10752 10751 10750 ] final -158.70 input  -60.55 | X-H torsion
[ 11005 11000 10999 10996 ] final  -62.06 input  -57.11 | X-H torsion

> <Gold.Protein.ActiveResidues>
 VAL166  LYS551  ARG553  GLY616  TRP617  ASP618  TYR619  PRO620  LYS621  CYS622 
 ASP623  PHE694  ASN695  SER759  ASP760  ASP761  ALA762  ILE779  LEU786  VAL792 
 PHE793  MET794  SER795  GLU796  ALA797  LYS798  CYS799  TRP800  GLU811  SER814 

> <Gold.Protein.RotatedAtoms>
  152.2105  133.4908  159.5107 H   0  0  0  0  0  0  0  0  0  0  0  0  # atno 6907 bound_to 6896
  150.6989  134.1473  159.4136 H   0  0  0  0  0  0  0  0  0  0  0  0  # atno 6908 bound_to 6896
  151.9392  135.0221  160.0585 H   0  0  0  0  0  0  0  0  0  0  0  0  # atno 6909 bound_to 6896
  145.0122  139.4209  143.5239 H   0  0  0  0  0  0  0  0  0  0  0  0  # atno 7974 bound_to 7965
  156.2879  140.2679  156.2203 H   0  0  0  0  0  0  0  0  0  0  0  0  # atno 8008 bound_to 7997
  155.0174  140.0387  157.2442 H   0  0  0  0  0  0  0  0  0  0  0  0  # atno 8009 bound_to 7997
  154.7465  140.2735  155.6334 H   0  0  0  0  0  0  0  0  0  0  0  0  # atno 8010 bound_to 7997
  140.0178  143.5375  152.2234 H   0  0  0  0  0  0  0  0  0  0  0  0  # atno 10167 bound_to 10162
  156.0640  130.5860  150.8356 H   0  0  0  0  0  0  0  0  0  0  0  0  # atno 10718 bound_to 10713
  154.7535  135.3098  154.8513 H   0  0  0  0  0  0  0  0  0  0  0  0  # atno 10763 bound_to 10752
  153.9293  135.6787  153.4750 H   0  0  0  0  0  0  0  0  0  0  0  0  # atno 10764 bound_to 10752
  153.1132  135.4857  154.9000 H   0  0  0  0  0  0  0  0  0  0  0  0  # atno 10765 bound_to 10752
  141.1346  133.6636  156.5469 H   0  0  0  0  0  0  0  0  0  0  0  0  # atno 11005 bound_to 11000
  146.3472  139.9573  142.8721 LP  0  0  0  0  0  0  0  0  0  0  0  0  # atno 17320 bound_to 7965
  145.2007  140.9853  143.4157 LP  0  0  0  0  0  0  0  0  0  0  0  0  # atno 17321 bound_to 7965
  139.6160  144.7619  151.2844 LP  0  0  0  0  0  0  0  0  0  0  0  0  # atno 17342 bound_to 10162
  140.7355  143.6735  150.8061 LP  0  0  0  0  0  0  0  0  0  0  0  0  # atno 17343 bound_to 10162
  157.5668  131.0946  150.9477 LP  0  0  0  0  0  0  0  0  0  0  0  0  # atno 17370 bound_to 10713
  156.9702  130.5488  149.5290 LP  0  0  0  0  0  0  0  0  0  0  0  0  # atno 17371 bound_to 10713
  140.4094  134.7285  157.4827 LP  0  0  0  0  0  0  0  0  0  0  0  0  # atno 17394 bound_to 11000
  140.0438  134.6229  155.8947 LP  0  0  0  0  0  0  0  0  0  0  0  0  # atno 17395 bound_to 11000

$$$$
