AV-unprocessed.smi:1667|AV-procd|sdf|6676|dock6
  -GOLD-   22720 7393D 1   1.00000     0.00000
 Structure written by MMmdl.
 45 47  0  0  0  0  0  0  0  0  1 V2000
  148.1606  136.3924  160.4130 C   0  0  0  0  0  0  0  0  0  0  0  0
  149.0283  136.4605  159.1614 C   0  0  0  0  0  0  0  0  0  0  0  0
  149.2901  135.4316  158.5404 O   0  0  0  0  0  0  0  0  0  0  0  0
  149.4608  137.6842  158.8136 N   0  0  0  0  0  0  0  0  0  0  0  0
  150.3116  138.0530  157.6792 C   0  0  2  0  0  0  0  0  0  0  0  0
  151.6169  138.7603  158.0924 C   0  0  0  0  0  0  0  0  0  0  0  0
  149.4976  138.8031  156.6513 C   0  0  0  0  0  0  0  0  0  0  0  0
  149.0133  138.2032  155.5613 N   0  0  0  0  0  0  0  0  0  0  0  0
  148.4151  139.2383  154.8750 C   0  0  0  0  0  0  0  0  0  0  0  0
  147.7249  139.2418  153.6419 C   0  0  0  0  0  0  0  0  0  0  0  0
  147.2004  140.4425  153.1213 C   0  0  0  0  0  0  0  0  0  0  0  0
  147.3603  141.6539  153.8243 C   0  0  0  0  0  0  0  0  0  0  0  0
  148.0457  141.6711  155.0543 C   0  0  0  0  0  0  0  0  0  0  0  0
  148.5638  140.4685  155.5732 C   0  0  0  0  0  0  0  0  0  0  0  0
  149.2735  140.1438  156.7274 N   0  0  0  0  0  0  0  0  0  0  0  0
  149.6964  141.0851  157.7625 C   0  0  0  0  0  0  0  0  0  0  0  0
  150.9466  141.9181  157.3920 C   0  0  1  0  0  0  0  0  0  0  0  0
  150.7395  142.6054  156.1741 O   0  0  0  0  0  0  0  0  0  0  0  0
  151.4062  142.8377  158.5159 C   0  0  0  0  0  0  0  0  0  0  0  0
  151.3957  144.2423  158.3579 C   0  0  0  0  0  0  0  0  0  0  0  0
  151.8084  145.0791  159.4127 C   0  0  0  0  0  0  0  0  0  0  0  0
  152.2303  144.5186  160.6333 C   0  0  0  0  0  0  0  0  0  0  0  0
  152.2423  143.1203  160.7975 C   0  0  0  0  0  0  0  0  0  0  0  0
  152.6441  142.5802  161.9720 F   0  0  0  0  0  0  0  0  0  0  0  0
  151.8338  142.2828  159.7414 C   0  0  0  0  0  0  0  0  0  0  0  0
  150.6284  137.1092  157.2434 H   0  0  0  0  0  0  0  0  0  0  0  0
  147.2297  136.9390  160.2599 H   0  0  0  0  0  0  0  0  0  0  0  0
  148.6834  136.8296  161.2643 H   0  0  0  0  0  0  0  0  0  0  0  0
  147.9141  135.3590  160.6588 H   0  0  0  0  0  0  0  0  0  0  0  0
  149.1752  138.4486  159.4079 H   0  0  0  0  0  0  0  0  0  0  0  0
  152.2614  138.9184  157.2279 H   0  0  0  0  0  0  0  0  0  0  0  0
  152.1748  138.1608  158.8121 H   0  0  0  0  0  0  0  0  0  0  0  0
  151.4349  139.7353  158.5441 H   0  0  0  0  0  0  0  0  0  0  0  0
  147.6020  138.3191  153.0940 H   0  0  0  0  0  0  0  0  0  0  0  0
  146.6753  140.4341  152.1775 H   0  0  0  0  0  0  0  0  0  0  0  0
  146.9569  142.5701  153.4188 H   0  0  0  0  0  0  0  0  0  0  0  0
  148.1691  142.5983  155.5934 H   0  0  0  0  0  0  0  0  0  0  0  0
  148.8647  141.7387  158.0241 H   0  0  0  0  0  0  0  0  0  0  0  0
  149.9016  140.5119  158.6675 H   0  0  0  0  0  0  0  0  0  0  0  0
  151.7603  141.2185  157.1965 H   0  0  0  0  0  0  0  0  0  0  0  0
  150.2268  143.3795  156.3504 H   0  0  0  0  0  0  0  0  0  0  0  0
  151.0608  144.6855  157.4316 H   0  0  0  0  0  0  0  0  0  0  0  0
  151.7951  146.1518  159.2874 H   0  0  0  0  0  0  0  0  0  0  0  0
  152.5428  145.1609  161.4434 H   0  0  0  0  0  0  0  0  0  0  0  0
  151.8417  141.2114  159.8782 H   0  0  0  0  0  0  0  0  0  0  0  0
  1  2  1  0  0  0  0
  1 27  1  0  0  0  0
  1 28  1  0  0  0  0
  1 29  1  0  0  0  0
  2  3  2  0  0  0  0
  2  4  1  0  0  0  0
  4  5  1  0  0  0  0
  4 30  1  0  0  0  0
  5 26  1  0  0  0  0
  5  6  1  0  0  0  0
  5  7  1  0  0  0  0
  6 31  1  0  0  0  0
  6 32  1  0  0  0  0
  6 33  1  0  0  0  0
  7 15  1  0  0  0  0
  7  8  2  0  0  0  0
  8  9  1  0  0  0  0
  9 14  2  0  0  0  0
  9 10  1  0  0  0  0
 10 11  2  0  0  0  0
 10 34  1  0  0  0  0
 11 12  1  0  0  0  0
 11 35  1  0  0  0  0
 12 13  2  0  0  0  0
 12 36  1  0  0  0  0
 13 14  1  0  0  0  0
 13 37  1  0  0  0  0
 14 15  1  0  0  0  0
 15 16  1  0  0  0  0
 16 17  1  0  0  0  0
 16 38  1  0  0  0  0
 16 39  1  0  0  0  0
 17 18  1  0  0  0  0
 17 19  1  0  0  0  0
 17 40  1  0  0  0  0
 18 41  1  0  0  0  0
 19 25  1  0  0  0  0
 19 20  2  0  0  0  0
 20 21  1  0  0  0  0
 20 42  1  0  0  0  0
 21 22  2  0  0  0  0
 21 43  1  0  0  0  0
 22 23  1  0  0  0  0
 22 44  1  0  0  0  0
 23 24  1  0  0  0  0
 23 25  2  0  0  0  0
 25 45  1  0  0  0  0
M  END
> <s_m_source_file>
AV-unprocessed.smi

> <i_m_source_file_index>
1667

> <i_lp_mmshare_version>
43012

> <i_f3d_flags>
0

> <s_epik_input>
W0NIM11DKD1PKVtOSF1bQ0BASF0oW0NIM10pYyhuMSluKGMoYzEyKVtjSF1bY0hdW2NIXVtjSF0yKVtDSDJdW0NASF0oW09IXSljM1tjSF1bY0hdW2NIXWMoRilbY0hdMw==

> <s_epik_cmdline>
J2VwaWtfcHl0aG9uJywgJy1waCcsICc3LjAnLCAnLXRuJywgJzgnLCAnLW1hJywgJzIwMCcsICctbWV0YWxfYmluZGluZycsICctaW1hZScsICc8aW5maWxlLm1hZT4nLCAnLW9tYWUnLCAnPG91dGZpbGUubWFlPic=

> <r_epik_Ionization_Penalty>
0.133011

> <r_epik_Ionization_Penalty_Charging>
0

> <r_epik_Ionization_Penalty_Neutral>
0.133011

> <r_epik_State_Penalty>
0.122384

> <r_epik_Charging_Adjusted_Penalty>
0.122384

> <i_epik_Tot_Q>
0

> <i_epik_Tot_abs_Q>
0

> <r_epik_Metal_State_Penalty>
0.0997374

> <b_epik_Metal_Only>
0

> <s_lp_Force_Field>
OPLS_2005

> <r_lp_Energy>
8.29393

> <b_lp_Chiralities_Consistent>
1

> <s_lp_Variant>
AV-unprocessed.smi:1667-4

> <Gold.Version>
5.8.1

> <Gold.Id.Protein>
6NUR|6NUR_protein|mol2

> <Gold.PLP.Fitness>
52.4826

> <Gold.PLP.PLP>
-48.0875

> <Gold.PLP.part.hbond>
-2.0000

> <Gold.PLP.part.metal>
0.0000

> <Gold.PLP.part.buried>
-4.5374

> <Gold.PLP.part.nonpolar>
-41.0987

> <Gold.PLP.part.repulsive>
0.2485

> <Gold.PLP.ligand.clash>
0.0000

> <Gold.PLP.ligand.torsion>
0.8951

> <Gold.PLP.Chemscore.Hbond>
1.9920

> <Gold.PLP.Chemscore.CHOScore>
0.0000

> <Gold.PLP.Chemscore.Metal>
0.0000

> <Gold.Chemscore.Hbonds>
donor molecule, donor type, donor heavy atom, donor atom, acceptor molecule, acceptor atom, score
      L1  H    18    41       P1  8028  0.96
      P1  H  6896  6909       L1     3  1.00

> <Gold.PLP.Chemscore.Internal.Correction>
0.2093

> <Gold.Rescore>
     Score         DG    S(hbond)    S(metal)    S(lipo)     H(rot)  DE(clash)    DE(int)     intcor
     18.16     -20.87       1.86        0.00     132.50       2.48       1.98       0.72       ----

> <Gold.Chemscore.Fitness>
18.1649

> <Gold.Chemscore.DG>
-20.8670

> <Gold.Chemscore.ZeroCoef>
-5.4800

> <Gold.Chemscore.Hbond>
1.8632

> <Gold.Chemscore.Metal>
0.0000

> <Gold.Chemscore.Lipo>
132.4984

> <Gold.Chemscore.Internal_Hbond>
0.0000

> <Gold.Chemscore.DEClash>
1.9849

> <Gold.Chemscore.DEInternal>
0.7171

> <Gold.Chemscore.Rot>
2.4760

> <Gold.Chemscore.Internal.Correction>
   9.000000E+99

> <Gold.Chemscore.Hbonds>
donor molecule, donor type, donor heavy atom, donor atom, acceptor molecule, acceptor atom, score
      L1  H    18    41       P1  8028  0.88
      P1  H  6896  6909       L1     3  0.65

> <Gold.Chemscore.Hbond.Weighted>
-6.2232

> <Gold.Chemscore.Metal.Weighted>
-0.0000

> <Gold.Chemscore.Lipo.Weighted>
-15.5023

> <Gold.Chemscore.Internal_Hbond.Weighted>
0.0000

> <Gold.Chemscore.DEClash.Weighted>
1.9849

> <Gold.Chemscore.DEInternal.Weighted>
0.7171

> <Gold.Chemscore.Rot.Weighted>
6.3385

> <Gold.Chemscore.Internal.Correction.Weighted>
   9.000000E+99

> <Gold.Protein.RotatedTorsions>
[ 6907 6896 6895 6894 ] final   42.41 input  -60.11 | X-H torsion
[ 7974 7965 7964 7962 ] final  132.47 input  175.53 | X-H torsion
[ 8008 7997 7996 7995 ] final   89.91 input   59.86 | X-H torsion
[ 10167 10162 10161 10158 ] final   84.40 input  -65.29 | X-H torsion
[ 10718 10713 10712 10709 ] final  149.30 input   66.30 | X-H torsion
[ 10763 10752 10751 10750 ] final  -58.23 input  -60.55 | X-H torsion
[ 11005 11000 10999 10996 ] final  -46.69 input  -57.11 | X-H torsion

> <Gold.Protein.ActiveResidues>
 VAL166  LYS551  ARG553  GLY616  TRP617  ASP618  TYR619  PRO620  LYS621  CYS622 
 ASP623  PHE694  ASN695  SER759  ASP760  ASP761  ALA762  ILE779  LEU786  VAL792 
 PHE793  MET794  SER795  GLU796  ALA797  LYS798  CYS799  TRP800  GLU811  SER814 

> <Gold.Protein.RotatedAtoms>
  152.2076  134.8531  160.0500 H   0  0  0  0  0  0  0  0  0  0  0  0  # atno 6907 bound_to 6896
  151.9362  133.3620  159.3956 H   0  0  0  0  0  0  0  0  0  0  0  0  # atno 6908 bound_to 6896
  150.6969  134.4411  159.5337 H   0  0  0  0  0  0  0  0  0  0  0  0  # atno 6909 bound_to 6896
  144.9965  139.4354  143.5313 H   0  0  0  0  0  0  0  0  0  0  0  0  # atno 7974 bound_to 7965
  156.0056  140.3355  155.6889 H   0  0  0  0  0  0  0  0  0  0  0  0  # atno 8008 bound_to 7997
  155.6229  140.0677  157.2690 H   0  0  0  0  0  0  0  0  0  0  0  0  # atno 8009 bound_to 7997
  154.4264  140.1773  156.1378 H   0  0  0  0  0  0  0  0  0  0  0  0  # atno 8010 bound_to 7997
  139.9084  144.6287  150.8563 H   0  0  0  0  0  0  0  0  0  0  0  0  # atno 10167 bound_to 10162
  157.2979  131.0865  151.1412 H   0  0  0  0  0  0  0  0  0  0  0  0  # atno 10718 bound_to 10713
  154.2349  135.6354  153.5187 H   0  0  0  0  0  0  0  0  0  0  0  0  # atno 10763 bound_to 10752
  152.9941  135.5528  154.5973 H   0  0  0  0  0  0  0  0  0  0  0  0  # atno 10764 bound_to 10752
  154.5464  135.2898  155.1023 H   0  0  0  0  0  0  0  0  0  0  0  0  # atno 10765 bound_to 10752
  141.0595  133.6714  156.3191 H   0  0  0  0  0  0  0  0  0  0  0  0  # atno 11005 bound_to 11000
  146.3443  139.9329  142.8751 LP  0  0  0  0  0  0  0  0  0  0  0  0  # atno 17320 bound_to 7965
  145.2212  140.9936  143.4044 LP  0  0  0  0  0  0  0  0  0  0  0  0  # atno 17321 bound_to 7965
  140.7691  143.3384  151.2260 LP  0  0  0  0  0  0  0  0  0  0  0  0  # atno 17342 bound_to 10162
  139.6964  143.9606  152.2884 LP  0  0  0  0  0  0  0  0  0  0  0  0  # atno 17343 bound_to 10162
  157.2783  130.6738  149.6053 LP  0  0  0  0  0  0  0  0  0  0  0  0  # atno 17370 bound_to 10713
  155.9670  130.4457  150.5514 LP  0  0  0  0  0  0  0  0  0  0  0  0  # atno 17371 bound_to 10713
  140.5898  134.5662  157.5497 LP  0  0  0  0  0  0  0  0  0  0  0  0  # atno 17394 bound_to 11000
  139.9419  134.7771  156.0656 LP  0  0  0  0  0  0  0  0  0  0  0  0  # atno 17395 bound_to 11000

$$$$
