AV-unprocessed.smi:2710|AV-procd|sdf|10470|dock9
  -GOLD-   2272014513D 1   1.00000     0.00000
 Structure written by MMmdl.
 53 54  0  0  0  0  0  0  0  0  2 V2000
  146.7186  129.2823  151.6591 C   0  0  0  0  0  0  0  0  0  0  0  0
  146.1477  130.4732  152.4436 C   0  0  0  0  0  0  0  0  0  0  0  0
  146.6845  131.7866  151.9802 N   0  3  2  0  0  0  0  0  0  0  0  0
  147.0072  132.7342  153.0845 C   0  0  0  0  0  0  0  0  0  0  0  0
  145.7381  133.3283  153.7277 C   0  0  0  0  0  0  0  0  0  0  0  0
  144.8317  133.9932  152.6760 C   0  0  2  0  0  0  0  0  0  0  0  0
  143.5706  134.4022  153.2893 N   0  0  0  0  0  0  0  0  0  0  0  0
  142.9186  135.5494  153.0506 C   0  0  0  0  0  0  0  0  0  0  0  0
  143.3164  136.4106  152.2667 O   0  0  0  0  0  0  0  0  0  0  0  0
  141.8007  135.6345  153.7913 N   0  0  0  0  0  0  0  0  0  0  0  0
  140.8439  136.6837  153.8122 C   0  0  0  0  0  0  0  0  0  0  0  0
  139.5502  136.4260  154.3083 C   0  0  0  0  0  0  0  0  0  0  0  0
  138.5955  137.3792  154.3445 N   0  0  0  0  0  0  0  0  0  0  0  0
  138.9161  138.5950  153.8830 C   0  0  0  0  0  0  0  0  0  0  0  0
  137.7990  139.6540  153.9115 C   0  0  0  0  0  0  0  0  0  0  0  0
  138.1710  140.8716  154.7933 C   0  0  0  0  0  0  0  0  0  0  0  0
  136.5128  139.0447  154.5082 C   0  0  0  0  0  0  0  0  0  0  0  0
  137.5373  140.1729  152.4835 C   0  0  0  0  0  0  0  0  0  0  0  0
  140.1022  138.9369  153.3626 N   0  0  0  0  0  0  0  0  0  0  0  0
  141.0678  137.9941  153.3271 C   0  0  0  0  0  0  0  0  0  0  0  0
  144.5572  133.0277  151.5090 C   0  0  0  0  0  0  0  0  0  0  0  0
  145.8739  132.4719  150.9280 C   0  0  2  0  0  0  0  0  0  0  0  0
  145.6509  131.6193  149.6660 C   0  0  0  0  0  0  0  0  0  0  0  0
  146.2027  128.3627  151.9358 H   0  0  0  0  0  0  0  0  0  0  0  0
  147.7777  129.1236  151.8594 H   0  0  0  0  0  0  0  0  0  0  0  0
  146.5909  129.4191  150.5851 H   0  0  0  0  0  0  0  0  0  0  0  0
  145.0694  130.4421  152.3022 H   0  0  0  0  0  0  0  0  0  0  0  0
  146.3162  130.3361  153.5113 H   0  0  0  0  0  0  0  0  0  0  0  0
  147.6328  132.2637  153.8413 H   0  0  0  0  0  0  0  0  0  0  0  0
  147.6115  133.5442  152.6740 H   0  0  0  0  0  0  0  0  0  0  0  0
  145.1897  132.5481  154.2565 H   0  0  0  0  0  0  0  0  0  0  0  0
  146.0220  134.0608  154.4845 H   0  0  0  0  0  0  0  0  0  0  0  0
  145.3599  134.8599  152.2742 H   0  0  0  0  0  0  0  0  0  0  0  0
  143.1626  133.7612  153.9541 H   0  0  0  0  0  0  0  0  0  0  0  0
  141.6454  134.8914  154.4568 H   0  0  0  0  0  0  0  0  0  0  0  0
  139.2771  135.4506  154.6840 H   0  0  0  0  0  0  0  0  0  0  0  0
  137.3650  141.6060  154.8157 H   0  0  0  0  0  0  0  0  0  0  0  0
  139.0583  141.3850  154.4203 H   0  0  0  0  0  0  0  0  0  0  0  0
  138.3663  140.5766  155.8252 H   0  0  0  0  0  0  0  0  0  0  0  0
  136.6857  138.6667  155.5166 H   0  0  0  0  0  0  0  0  0  0  0  0
  136.1396  138.2158  153.9060 H   0  0  0  0  0  0  0  0  0  0  0  0
  135.7127  139.7834  154.5663 H   0  0  0  0  0  0  0  0  0  0  0  0
  136.7599  140.9376  152.4746 H   0  0  0  0  0  0  0  0  0  0  0  0
  137.2099  139.3724  151.8192 H   0  0  0  0  0  0  0  0  0  0  0  0
  138.4371  140.6118  152.0509 H   0  0  0  0  0  0  0  0  0  0  0  0
  142.0044  138.3001  152.8876 H   0  0  0  0  0  0  0  0  0  0  0  0
  143.9178  132.2076  151.8387 H   0  0  0  0  0  0  0  0  0  0  0  0
  144.0025  133.5516  150.7292 H   0  0  0  0  0  0  0  0  0  0  0  0
  146.4701  133.3257  150.6015 H   0  0  0  0  0  0  0  0  0  0  0  0
  145.2582  132.2339  148.8552 H   0  0  0  0  0  0  0  0  0  0  0  0
  144.9307  130.8177  149.8295 H   0  0  0  0  0  0  0  0  0  0  0  0
  146.5837  131.1762  149.3166 H   0  0  0  0  0  0  0  0  0  0  0  0
  147.5660  131.5676  151.5384 H   0  0  0  0  0  0  0  0  0  0  0  0
  1  2  1  0  0  0  0
  1 24  1  0  0  0  0
  1 25  1  0  0  0  0
  1 26  1  0  0  0  0
  2  3  1  0  0  0  0
  2 27  1  0  0  0  0
  2 28  1  0  0  0  0
  3 22  1  0  0  0  0
  3  4  1  0  0  0  0
  3 53  1  0  0  0  0
  4  5  1  0  0  0  0
  4 29  1  0  0  0  0
  4 30  1  0  0  0  0
  5  6  1  0  0  0  0
  5 31  1  0  0  0  0
  5 32  1  0  0  0  0
  6  7  1  0  0  0  0
  6 21  1  0  0  0  0
  6 33  1  0  0  0  0
  7  8  1  0  0  0  0
  7 34  1  0  0  0  0
  8  9  2  0  0  0  0
  8 10  1  0  0  0  0
 10 11  1  0  0  0  0
 10 35  1  0  0  0  0
 11 20  1  0  0  0  0
 11 12  2  0  0  0  0
 12 13  1  0  0  0  0
 12 36  1  0  0  0  0
 13 14  2  0  0  0  0
 14 15  1  0  0  0  0
 14 19  1  0  0  0  0
 15 16  1  0  0  0  0
 15 17  1  0  0  0  0
 15 18  1  0  0  0  0
 16 37  1  0  0  0  0
 16 38  1  0  0  0  0
 16 39  1  0  0  0  0
 17 40  1  0  0  0  0
 17 41  1  0  0  0  0
 17 42  1  0  0  0  0
 18 43  1  0  0  0  0
 18 44  1  0  0  0  0
 18 45  1  0  0  0  0
 19 20  2  0  0  0  0
 20 46  1  0  0  0  0
 21 22  1  0  0  0  0
 21 47  1  0  0  0  0
 21 48  1  0  0  0  0
 22 23  1  0  0  0  0
 22 49  1  0  0  0  0
 23 50  1  0  0  0  0
 23 51  1  0  0  0  0
 23 52  1  0  0  0  0
M  CHG  1   3   1
M  END
> <s_m_source_file>
AV-unprocessed.smi

> <i_m_source_file_index>
2710

> <i_lp_mmshare_version>
43012

> <i_f3d_flags>
0

> <s_epik_input>
W0NIM11bQ0gyXU4xW0NIMl1bQ0gyXVtDQEhdKFtDSDJdW0NASF0xW0NIM10pW05IXUMoPU8pW05IXWMyW2NIXW5jKEMoW0NIM10pKFtDSDNdKVtDSDNdKW5bY0hdMg==

> <s_epik_cmdline>
J2VwaWtfcHl0aG9uJywgJy1waCcsICc3LjAnLCAnLXRuJywgJzgnLCAnLW1hJywgJzIwMCcsICctbWV0YWxfYmluZGluZycsICctaW1hZScsICc8aW5maWxlLm1hZT4nLCAnLW9tYWUnLCAnPG91dGZpbGUubWFlPic=

> <r_lp_tautomer_probability>
1

> <r_epik_Ionization_Penalty>
0.00396003

> <r_epik_Ionization_Penalty_Charging>
0.0039379

> <r_epik_Ionization_Penalty_Neutral>
2.21316e-05

> <r_epik_State_Penalty>
0.00281651

> <r_epik_Charging_Adjusted_Penalty>
0.00675441

> <i_epik_Tot_Q>
1

> <i_epik_Tot_abs_Q>
1

> <r_epik_Metal_State_Penalty>
-0

> <b_epik_Metal_Only>
0

> <s_lp_Force_Field>
OPLS_2005

> <r_lp_Energy>
21.9784

> <b_lp_Chiralities_Consistent>
1

> <s_lp_Variant>
AV-unprocessed.smi:2710-7

> <Gold.Version>
5.8.1

> <Gold.Id.Protein>
6NUR|6NUR_protein|mol2

> <Gold.PLP.Fitness>
42.5204

> <Gold.PLP.PLP>
-33.9179

> <Gold.PLP.part.hbond>
-1.4731

> <Gold.PLP.part.metal>
0.0000

> <Gold.PLP.part.buried>
-6.4540

> <Gold.PLP.part.nonpolar>
-27.5445

> <Gold.PLP.part.repulsive>
0.4616

> <Gold.PLP.ligand.clash>
0.0000

> <Gold.PLP.ligand.torsion>
0.8814

> <Gold.PLP.Chemscore.Hbond>
1.4875

> <Gold.PLP.Chemscore.CHOScore>
1.9533

> <Gold.PLP.Chemscore.Metal>
0.0000

> <Gold.Chemscore.Hbonds>
donor molecule, donor type, donor heavy atom, donor atom, acceptor molecule, acceptor atom, score
      L1  H     3    53       P1 10747  1.00
      L1  H     7    34       P1 10957  0.54
      L1  C    12    36       P1 11000  0.88
      L1  C    20    46       P1 10175  0.58

> <Gold.PLP.Chemscore.Internal.Correction>
0.0429

> <Gold.Rescore>
     Score         DG    S(hbond)    S(metal)    S(lipo)     H(rot)  DE(clash)    DE(int)     intcor
     17.45     -19.62       1.95        0.00      93.81       1.31       0.19       1.97       ----

> <Gold.Chemscore.Fitness>
17.4550

> <Gold.Chemscore.DG>
-19.6182

> <Gold.Chemscore.ZeroCoef>
-5.4800

> <Gold.Chemscore.Hbond>
1.9495

> <Gold.Chemscore.Metal>
0.0000

> <Gold.Chemscore.Lipo>
93.8101

> <Gold.Chemscore.Internal_Hbond>
0.0000

> <Gold.Chemscore.DEClash>
0.1889

> <Gold.Chemscore.DEInternal>
1.9743

> <Gold.Chemscore.Rot>
1.3081

> <Gold.Chemscore.Internal.Correction>
   9.000000E+99

> <Gold.Chemscore.Hbonds>
donor molecule, donor type, donor heavy atom, donor atom, acceptor molecule, acceptor atom, score
      L1  H     3    53       P1 10747  0.93
      L1  H     7    34       P1 10957  0.53

> <Gold.Chemscore.Hbond.Weighted>
-6.5112

> <Gold.Chemscore.Metal.Weighted>
-0.0000

> <Gold.Chemscore.Lipo.Weighted>
-10.9758

> <Gold.Chemscore.Internal_Hbond.Weighted>
0.0000

> <Gold.Chemscore.DEClash.Weighted>
0.1889

> <Gold.Chemscore.DEInternal.Weighted>
1.9743

> <Gold.Chemscore.Rot.Weighted>
3.3488

> <Gold.Chemscore.Internal.Correction.Weighted>
   9.000000E+99

> <Gold.Protein.RotatedTorsions>
[ 6907 6896 6895 6894 ] final -172.90 input  -60.11 | X-H torsion
[ 7974 7965 7964 7962 ] final -170.00 input  175.53 | X-H torsion
[ 8008 7997 7996 7995 ] final   82.42 input   59.86 | X-H torsion
[ 10167 10162 10161 10158 ] final   66.03 input  -65.29 | X-H torsion
[ 10718 10713 10712 10709 ] final  -51.64 input   66.30 | X-H torsion
[ 10763 10752 10751 10750 ] final  -77.11 input  -60.55 | X-H torsion
[ 11005 11000 10999 10996 ] final  -67.85 input  -57.11 | X-H torsion

> <Gold.Protein.ActiveResidues>
 VAL166  LYS551  ARG553  GLY616  TRP617  ASP618  TYR619  PRO620  LYS621  CYS622 
 ASP623  PHE694  ASN695  SER759  ASP760  ASP761  ALA762  ILE779  LEU786  VAL792 
 PHE793  MET794  SER795  GLU796  ALA797  LYS798  CYS799  TRP800  GLU811  SER814 

> <Gold.Protein.RotatedAtoms>
  151.5475  133.3423  159.2946 H   0  0  0  0  0  0  0  0  0  0  0  0  # atno 6907 bound_to 6896
  150.8499  134.7822  159.7011 H   0  0  0  0  0  0  0  0  0  0  0  0  # atno 6908 bound_to 6896
  152.4547  134.5325  159.9867 H   0  0  0  0  0  0  0  0  0  0  0  0  # atno 6909 bound_to 6896
  144.7176  140.2138  143.6324 H   0  0  0  0  0  0  0  0  0  0  0  0  # atno 7974 bound_to 7965
  155.9103  140.3428  155.6094 H   0  0  0  0  0  0  0  0  0  0  0  0  # atno 8008 bound_to 7997
  155.7395  140.0806  157.2271 H   0  0  0  0  0  0  0  0  0  0  0  0  # atno 8009 bound_to 7997
  154.4055  140.1573  156.2587 H   0  0  0  0  0  0  0  0  0  0  0  0  # atno 8010 bound_to 7997
  140.1049  144.4871  150.7014 H   0  0  0  0  0  0  0  0  0  0  0  0  # atno 10167 bound_to 10162
  156.1692  130.4149  149.9674 H   0  0  0  0  0  0  0  0  0  0  0  0  # atno 10718 bound_to 10713
  154.5087  135.5775  153.6588 H   0  0  0  0  0  0  0  0  0  0  0  0  # atno 10763 bound_to 10752
  152.9893  135.6153  154.2907 H   0  0  0  0  0  0  0  0  0  0  0  0  # atno 10764 bound_to 10752
  154.2820  135.2850  155.2672 H   0  0  0  0  0  0  0  0  0  0  0  0  # atno 10765 bound_to 10752
  141.1518  133.6728  156.6357 H   0  0  0  0  0  0  0  0  0  0  0  0  # atno 11005 bound_to 11000
  145.8566  139.2202  143.1741 LP  0  0  0  0  0  0  0  0  0  0  0  0  # atno 17320 bound_to 7965
  146.0212  140.8346  142.9922 LP  0  0  0  0  0  0  0  0  0  0  0  0  # atno 17321 bound_to 7965
  140.6958  143.2403  151.5005 LP  0  0  0  0  0  0  0  0  0  0  0  0  # atno 17342 bound_to 10162
  139.5651  144.2062  152.1752 LP  0  0  0  0  0  0  0  0  0  0  0  0  # atno 17343 bound_to 10162
  156.7479  130.9104  151.3636 LP  0  0  0  0  0  0  0  0  0  0  0  0  # atno 17370 bound_to 10713
  157.6790  130.9122  150.0220 LP  0  0  0  0  0  0  0  0  0  0  0  0  # atno 17371 bound_to 10713
  140.3432  134.7831  157.4413 LP  0  0  0  0  0  0  0  0  0  0  0  0  # atno 17394 bound_to 11000
  140.0920  134.5588  155.8434 LP  0  0  0  0  0  0  0  0  0  0  0  0  # atno 17395 bound_to 11000

$$$$
