AV-unprocessed.smi:37|AV-procd|sdf|321|dock8
  -GOLD-   2262016143D 1   1.00000     0.00000
 Structure written by MMmdl.
 43 44  0  0  0  0  0  0  0  0  2 V2000
  146.9890  132.5789  152.4178 C   0  0  0  0  0  0  0  0  0  0  0  0
  148.5010  132.8127  152.5398 C   0  0  0  0  0  0  0  0  0  0  0  0
  148.9563  132.9517  153.9912 C   0  0  0  0  0  0  0  0  0  0  0  0
  149.7517  132.1576  154.4934 O   0  0  0  0  0  0  0  0  0  0  0  0
  148.3820  133.9907  154.6150 O   0  0  0  0  0  0  0  0  0  0  0  0
  148.6802  134.2529  155.9755 C   0  0  0  0  0  0  0  0  0  0  0  0
  147.8896  135.4843  156.4370 C   0  0  2  0  0  0  0  0  0  0  0  0
  147.9493  136.5220  155.4561 O   0  0  0  0  0  0  0  0  0  0  0  0
  148.1551  137.7676  156.0632 C   0  0  2  0  0  0  0  0  0  0  0  0
  149.5678  138.2482  155.7862 N   0  0  0  0  0  0  0  0  0  0  0  0
  150.6691  137.6593  156.3871 C   0  0  0  0  0  0  0  0  0  0  0  0
  151.9205  138.0969  156.1396 C   0  0  0  0  0  0  0  0  0  0  0  0
  152.9669  137.5045  156.7399 F   0  0  0  0  0  0  0  0  0  0  0  0
  152.1282  139.2115  155.2178 C   0  0  0  0  0  0  0  0  0  0  0  0
  153.2710  139.6120  155.0026 O   0  0  0  0  0  0  0  0  0  0  0  0
  151.0289  139.7642  154.6287 N   0  5  0  0  0  0  0  0  0  0  0  0
  149.7605  139.3235  154.8750 C   0  0  0  0  0  0  0  0  0  0  0  0
  148.7638  139.8166  154.3468 O   0  0  0  0  0  0  0  0  0  0  0  0
  147.9491  137.5614  157.5672 C   0  0  1  0  0  0  0  0  0  0  0  0
  146.0086  137.7697  157.9873 Br  0  0  0  0  0  0  0  0  0  0  0  0
  148.3929  136.1202  157.7374 C   0  0  1  0  0  0  0  0  0  0  0  0
  147.8213  135.5449  158.9068 O   0  0  0  0  0  0  0  0  0  0  0  0
  147.9821  136.1288  160.1072 C   0  0  0  0  0  0  0  0  0  0  0  0
  148.2377  137.3185  160.3019 O   0  0  0  0  0  0  0  0  0  0  0  0
  147.8211  135.1288  161.2535 C   0  0  0  0  0  0  0  0  0  0  0  0
  147.7926  135.7859  162.6414 C   0  0  0  0  0  0  0  0  0  0  0  0
  146.6910  132.5416  151.3700 H   0  0  0  0  0  0  0  0  0  0  0  0
  146.4233  133.3801  152.8942 H   0  0  0  0  0  0  0  0  0  0  0  0
  146.6915  131.6354  152.8768 H   0  0  0  0  0  0  0  0  0  0  0  0
  149.0450  131.9881  152.0786 H   0  0  0  0  0  0  0  0  0  0  0  0
  148.7787  133.7167  151.9972 H   0  0  0  0  0  0  0  0  0  0  0  0
  148.4422  133.3872  156.5946 H   0  0  0  0  0  0  0  0  0  0  0  0
  149.7501  134.4423  156.0694 H   0  0  0  0  0  0  0  0  0  0  0  0
  146.8344  135.2250  156.5378 H   0  0  0  0  0  0  0  0  0  0  0  0
  147.5052  138.5229  155.6181 H   0  0  0  0  0  0  0  0  0  0  0  0
  150.5458  136.8319  157.0669 H   0  0  0  0  0  0  0  0  0  0  0  0
  148.5089  138.2705  158.1771 H   0  0  0  0  0  0  0  0  0  0  0  0
  149.4838  136.0992  157.7602 H   0  0  0  0  0  0  0  0  0  0  0  0
  146.9010  134.5667  161.0935 H   0  0  0  0  0  0  0  0  0  0  0  0
  148.6412  134.4121  161.2050 H   0  0  0  0  0  0  0  0  0  0  0  0
  147.6689  135.0331  163.4196 H   0  0  0  0  0  0  0  0  0  0  0  0
  146.9666  136.4920  162.7326 H   0  0  0  0  0  0  0  0  0  0  0  0
  148.7206  136.3212  162.8456 H   0  0  0  0  0  0  0  0  0  0  0  0
  1  2  1  0  0  0  0
  1 27  1  0  0  0  0
  1 28  1  0  0  0  0
  1 29  1  0  0  0  0
  2  3  1  0  0  0  0
  2 30  1  0  0  0  0
  2 31  1  0  0  0  0
  3  4  2  0  0  0  0
  3  5  1  0  0  0  0
  5  6  1  0  0  0  0
  6  7  1  0  0  0  0
  6 32  1  0  0  0  0
  6 33  1  0  0  0  0
  7 21  1  0  0  0  0
  7  8  1  0  0  0  0
  7 34  1  0  0  0  0
  8  9  1  0  0  0  0
  9 10  1  0  0  0  0
  9 19  1  0  0  0  0
  9 35  1  0  0  0  0
 10 17  1  0  0  0  0
 10 11  1  0  0  0  0
 11 12  2  0  0  0  0
 11 36  1  0  0  0  0
 12 13  1  0  0  0  0
 12 14  1  0  0  0  0
 14 15  2  0  0  0  0
 14 16  1  0  0  0  0
 16 17  1  0  0  0  0
 17 18  2  0  0  0  0
 19 20  1  0  0  0  0
 19 21  1  0  0  0  0
 19 37  1  0  0  0  0
 21 22  1  0  0  0  0
 21 38  1  0  0  0  0
 22 23  1  0  0  0  0
 23 24  2  0  0  0  0
 23 25  1  0  0  0  0
 25 26  1  0  0  0  0
 25 39  1  0  0  0  0
 25 40  1  0  0  0  0
 26 41  1  0  0  0  0
 26 42  1  0  0  0  0
 26 43  1  0  0  0  0
M  CHG  1  16  -1
M  END
> <s_m_source_file>
AV-unprocessed.smi

> <i_m_source_file_index>
37

> <i_lp_mmshare_version>
43012

> <i_f3d_flags>
0

> <s_epik_input>
W0NIM11bQ0gyXUMoPU8pT1tDSDJdW0NAQEhdMU9bQ0BASF0objJbY0hdYyhGKWMoPU8pW25IXWMyPU8pW0NAQEhdKEJyKVtDQEhdMU9DKD1PKVtDSDJdW0NIM10=

> <s_epik_cmdline>
J2VwaWtfcHl0aG9uJywgJy1waCcsICc3LjAnLCAnLXRuJywgJzgnLCAnLW1hJywgJzIwMCcsICctbWV0YWxfYmluZGluZycsICctaW1hZScsICc8aW5maWxlLm1hZT4nLCAnLW9tYWUnLCAnPG91dGZpbGUubWFlPic=

> <r_epik_Ionization_Penalty>
1.08158

> <r_epik_Ionization_Penalty_Charging>
9.05154e-09

> <r_epik_Ionization_Penalty_Neutral>
1.08158

> <r_epik_State_Penalty>
1.13706

> <r_epik_Charging_Adjusted_Penalty>
1.13706

> <i_epik_Tot_Q>
-1

> <i_epik_Tot_abs_Q>
1

> <r_epik_Metal_State_Penalty>
0.00343535

> <b_epik_Metal_Only>
0

> <s_epik_Chemistry_Notes>
This compound has an ester and may undergo hydrolysis at high or low pH. This compound contains an acetal/aminal-like group ( X-CH(R)-Y where X, Y are N, S, or O) that may be acid/base labile, releasing an aldehyde.

> <s_lp_Force_Field>
OPLS_2005

> <r_lp_Energy>
31.9514

> <b_lp_Chiralities_Consistent>
1

> <s_lp_Variant>
AV-unprocessed.smi:37-19

> <Gold.Version>
5.8.1

> <Gold.Id.Protein>
6NUR|6NUR_protein|mol2

> <Gold.PLP.Fitness>
38.6718

> <Gold.PLP.PLP>
-30.5320

> <Gold.PLP.part.hbond>
-4.6639

> <Gold.PLP.part.metal>
0.0000

> <Gold.PLP.part.buried>
-4.6307

> <Gold.PLP.part.nonpolar>
-21.9701

> <Gold.PLP.part.repulsive>
0.4048

> <Gold.PLP.ligand.clash>
0.0000

> <Gold.PLP.ligand.torsion>
0.8810

> <Gold.PLP.Chemscore.Hbond>
3.2640

> <Gold.PLP.Chemscore.CHOScore>
0.0000

> <Gold.PLP.Chemscore.Metal>
0.0000

> <Gold.Chemscore.Hbonds>
donor molecule, donor type, donor heavy atom, donor atom, acceptor molecule, acceptor atom, score
      P1  H  6931  6943       L1    24  0.62
      P1  H  6934  6947       L1    24  0.52
      P1  H  7989  7998       L1    16  1.00
      P1  H  7997  8010       L1    15  1.00

> <Gold.PLP.Chemscore.Internal.Correction>
0.1098

> <Gold.Rescore>
     Score         DG    S(hbond)    S(metal)    S(lipo)     H(rot)  DE(clash)    DE(int)     intcor
     10.12     -13.11       3.27        0.00      43.32       3.27       0.00       2.99       ----

> <Gold.Chemscore.Fitness>
10.1186

> <Gold.Chemscore.DG>
-13.1073

> <Gold.Chemscore.ZeroCoef>
-5.4800

> <Gold.Chemscore.Hbond>
3.2702

> <Gold.Chemscore.Metal>
0.0000

> <Gold.Chemscore.Lipo>
43.3182

> <Gold.Chemscore.Internal_Hbond>
0.0000

> <Gold.Chemscore.DEClash>
0.0000

> <Gold.Chemscore.DEInternal>
2.9886

> <Gold.Chemscore.Rot>
3.2669

> <Gold.Chemscore.Internal.Correction>
   9.000000E+99

> <Gold.Chemscore.Hbonds>
donor molecule, donor type, donor heavy atom, donor atom, acceptor molecule, acceptor atom, score
      P1  H  6931  6943       L1    24  0.59
      P1  H  6934  6947       L1    24  0.52
      P1  H  7989  7998       L1    16  0.50
      P1  H  7997  8010       L1    15  0.99

> <Gold.Chemscore.Hbond.Weighted>
-10.9224

> <Gold.Chemscore.Metal.Weighted>
-0.0000

> <Gold.Chemscore.Lipo.Weighted>
-5.0682

> <Gold.Chemscore.Internal_Hbond.Weighted>
0.0000

> <Gold.Chemscore.DEClash.Weighted>
0.0000

> <Gold.Chemscore.DEInternal.Weighted>
2.9886

> <Gold.Chemscore.Rot.Weighted>
8.3634

> <Gold.Chemscore.Internal.Correction.Weighted>
   9.000000E+99

> <Gold.Protein.RotatedTorsions>
[ 6907 6896 6895 6894 ] final -163.23 input  -60.11 | X-H torsion
[ 7974 7965 7964 7962 ] final   -8.80 input  175.53 | X-H torsion
[ 8008 7997 7996 7995 ] final   98.51 input   59.86 | X-H torsion
[ 10167 10162 10161 10158 ] final   97.18 input  -65.29 | X-H torsion
[ 10718 10713 10712 10709 ] final  -37.84 input   66.30 | X-H torsion
[ 10763 10752 10751 10750 ] final  -35.39 input  -60.55 | X-H torsion
[ 11005 11000 10999 10996 ] final  156.37 input  -57.11 | X-H torsion

> <Gold.Protein.ActiveResidues>
 VAL166  LYS551  ARG553  GLY616  TRP617  ASP618  TYR619  PRO620  LYS621  CYS622 
 ASP623  PHE694  ASN695  SER759  ASP760  ASP761  ALA762  ILE779  LEU786  VAL792 
 PHE793  MET794  SER795  GLU796  ALA797  LYS798  CYS799  TRP800  GLU811  SER814 

> <Gold.Protein.RotatedAtoms>
  151.3928  133.3783  159.2722 H   0  0  0  0  0  0  0  0  0  0  0  0  # atno 6907 bound_to 6896
  150.9492  134.8895  159.7672 H   0  0  0  0  0  0  0  0  0  0  0  0  # atno 6908 bound_to 6896
  152.5104  134.3882  159.9427 H   0  0  0  0  0  0  0  0  0  0  0  0  # atno 6909 bound_to 6896
  146.2270  140.2522  142.8348 H   0  0  0  0  0  0  0  0  0  0  0  0  # atno 7974 bound_to 7965
  156.1012  140.3242  155.7944 H   0  0  0  0  0  0  0  0  0  0  0  0  # atno 8008 bound_to 7997
  155.4833  140.0555  157.2981 H   0  0  0  0  0  0  0  0  0  0  0  0  # atno 8009 bound_to 7997
  154.4698  140.2006  156.0039 H   0  0  0  0  0  0  0  0  0  0  0  0  # atno 8010 bound_to 7997
  139.7825  144.6883  151.0003 H   0  0  0  0  0  0  0  0  0  0  0  0  # atno 10167 bound_to 10162
  156.3106  130.4252  149.8054 H   0  0  0  0  0  0  0  0  0  0  0  0  # atno 10718 bound_to 10713
  153.8624  135.6839  153.4781 H   0  0  0  0  0  0  0  0  0  0  0  0  # atno 10763 bound_to 10752
  153.1334  135.4688  154.9382 H   0  0  0  0  0  0  0  0  0  0  0  0  # atno 10764 bound_to 10752
  154.7752  135.3251  154.8056 H   0  0  0  0  0  0  0  0  0  0  0  0  # atno 10765 bound_to 10752
  140.1668  134.8571  157.2642 H   0  0  0  0  0  0  0  0  0  0  0  0  # atno 11005 bound_to 11000
  144.9403  140.8071  143.5635 LP  0  0  0  0  0  0  0  0  0  0  0  0  # atno 17320 bound_to 7965
  145.2474  139.2046  143.4961 LP  0  0  0  0  0  0  0  0  0  0  0  0  # atno 17321 bound_to 7965
  140.7819  143.4467  151.0471 LP  0  0  0  0  0  0  0  0  0  0  0  0  # atno 17342 bound_to 10162
  139.8147  143.7902  152.3173 LP  0  0  0  0  0  0  0  0  0  0  0  0  # atno 17343 bound_to 10162
  156.5398  130.8295  151.3265 LP  0  0  0  0  0  0  0  0  0  0  0  0  # atno 17370 bound_to 10713
  157.7390  130.9824  150.2287 LP  0  0  0  0  0  0  0  0  0  0  0  0  # atno 17371 bound_to 10713
  140.2424  134.3780  155.7475 LP  0  0  0  0  0  0  0  0  0  0  0  0  # atno 17394 bound_to 11000
  141.2214  133.7272  156.8809 LP  0  0  0  0  0  0  0  0  0  0  0  0  # atno 17395 bound_to 11000

$$$$
