AV-unprocessed.smi:273|AV-procd|sdf|2057|dock10
  -GOLD-   2262021303D 1   1.00000     0.00000
 Structure written by MMmdl.
 59 62  0  0  0  0  0  0  0  0  1 V2000
  142.6073  134.7546  163.5955 C   0  0  0  0  0  0  0  0  0  0  0  0
  143.3522  135.7766  162.7268 C   0  0  0  0  0  0  0  0  0  0  0  0
  144.7972  135.6505  162.8760 N   0  0  0  0  0  0  0  0  0  0  0  0
  145.4871  134.5027  162.7850 C   0  0  0  0  0  0  0  0  0  0  0  0
  144.9482  133.4156  162.5775 O   0  0  0  0  0  0  0  0  0  0  0  0
  147.0147  134.6121  162.9495 C   0  0  0  0  0  0  0  0  0  0  0  0
  147.5144  136.0736  162.9028 C   0  0  0  0  0  0  0  0  0  0  0  0
  147.5499  136.6561  161.4774 C   0  0  0  0  0  0  0  0  0  0  0  0
  148.2970  135.7832  160.5729 N   0  0  0  0  0  0  0  0  0  0  0  0
  148.6739  136.3680  159.4066 C   0  0  0  0  0  0  0  0  0  0  0  0
  149.7932  135.9390  158.7630 N   0  0  0  0  0  0  0  0  0  0  0  0
  150.1693  136.5013  157.6108 C   0  0  0  0  0  0  0  0  0  0  0  0
  149.5842  137.4923  156.9362 N   0  0  0  0  0  0  0  0  0  0  0  0
  148.4638  137.9310  157.5772 C   0  0  0  0  0  0  0  0  0  0  0  0
  147.9434  137.4322  158.8052 C   0  0  0  0  0  0  0  0  0  0  0  0
  146.7990  138.1412  159.1538 N   0  0  0  0  0  0  0  0  0  0  0  0
  146.6460  139.0003  158.1834 C   0  0  0  0  0  0  0  0  0  0  0  0
  147.5962  138.9367  157.1897 N   0  0  0  0  0  0  0  0  0  0  0  0
  147.6741  139.7715  156.0025 C   0  0  0  0  0  0  0  0  0  0  0  0
  149.0528  140.4553  155.8106 C   0  0  1  0  0  0  0  0  0  0  0  0
  148.9892  141.5480  154.7121 C   0  0  0  0  0  0  0  0  0  0  0  0
  149.4293  141.0635  153.4609 O   0  0  0  0  0  0  0  0  0  0  0  0
  149.5729  141.0119  157.1651 C   0  0  1  0  0  0  0  0  0  0  0  0
  150.8402  141.8460  157.0707 C   0  0  0  0  0  0  0  0  0  0  0  0
  150.8429  142.5935  158.3994 C   0  0  0  0  0  0  0  0  0  0  0  0
  149.4742  142.7872  158.7336 O   0  0  0  0  0  0  0  0  0  0  0  0
  148.6491  142.0134  157.8686 C   0  0  0  0  0  0  0  0  0  0  0  0
  147.8247  134.3986  160.5140 C   0  0  0  0  0  0  0  0  0  0  0  0
  147.7912  133.7641  161.9171 C   0  0  0  0  0  0  0  0  0  0  0  0
  141.5297  134.8373  163.4533 H   0  0  0  0  0  0  0  0  0  0  0  0
  142.8133  134.9082  164.6552 H   0  0  0  0  0  0  0  0  0  0  0  0
  142.8986  133.7353  163.3412 H   0  0  0  0  0  0  0  0  0  0  0  0
  143.1030  135.6176  161.6776 H   0  0  0  0  0  0  0  0  0  0  0  0
  143.0308  136.7903  162.9717 H   0  0  0  0  0  0  0  0  0  0  0  0
  145.3137  136.5006  163.0497 H   0  0  0  0  0  0  0  0  0  0  0  0
  147.2553  134.2182  163.9384 H   0  0  0  0  0  0  0  0  0  0  0  0
  146.8983  136.7070  163.5425 H   0  0  0  0  0  0  0  0  0  0  0  0
  148.5201  136.1146  163.3231 H   0  0  0  0  0  0  0  0  0  0  0  0
  146.5388  136.7814  161.0899 H   0  0  0  0  0  0  0  0  0  0  0  0
  147.9846  137.6541  161.5160 H   0  0  0  0  0  0  0  0  0  0  0  0
  151.0668  136.0982  157.1652 H   0  0  0  0  0  0  0  0  0  0  0  0
  145.8276  139.7053  158.1646 H   0  0  0  0  0  0  0  0  0  0  0  0
  147.4362  139.1595  155.1316 H   0  0  0  0  0  0  0  0  0  0  0  0
  146.8809  140.5142  156.0854 H   0  0  0  0  0  0  0  0  0  0  0  0
  149.7481  139.6849  155.4732 H   0  0  0  0  0  0  0  0  0  0  0  0
  147.9708  141.9004  154.5545 H   0  0  0  0  0  0  0  0  0  0  0  0
  149.5815  142.4181  154.9966 H   0  0  0  0  0  0  0  0  0  0  0  0
  148.7222  140.5831  153.0580 H   0  0  0  0  0  0  0  0  0  0  0  0
  149.7625  140.1804  157.8461 H   0  0  0  0  0  0  0  0  0  0  0  0
  151.7428  141.2502  156.9348 H   0  0  0  0  0  0  0  0  0  0  0  0
  150.7692  142.5537  156.2432 H   0  0  0  0  0  0  0  0  0  0  0  0
  151.3062  141.9852  159.1772 H   0  0  0  0  0  0  0  0  0  0  0  0
  151.3797  143.5410  158.3445 H   0  0  0  0  0  0  0  0  0  0  0  0
  148.1886  142.6888  157.1463 H   0  0  0  0  0  0  0  0  0  0  0  0
  147.8533  141.5250  158.4311 H   0  0  0  0  0  0  0  0  0  0  0  0
  146.8349  134.3715  160.0580 H   0  0  0  0  0  0  0  0  0  0  0  0
  148.4834  133.8098  159.8740 H   0  0  0  0  0  0  0  0  0  0  0  0
  148.8158  133.6370  162.2683 H   0  0  0  0  0  0  0  0  0  0  0  0
  147.3714  132.7593  161.8557 H   0  0  0  0  0  0  0  0  0  0  0  0
  1  2  1  0  0  0  0
  1 30  1  0  0  0  0
  1 31  1  0  0  0  0
  1 32  1  0  0  0  0
  2  3  1  0  0  0  0
  2 33  1  0  0  0  0
  2 34  1  0  0  0  0
  3  4  1  0  0  0  0
  3 35  1  0  0  0  0
  4  5  2  0  0  0  0
  4  6  1  0  0  0  0
  6 29  1  0  0  0  0
  6  7  1  0  0  0  0
  6 36  1  0  0  0  0
  7  8  1  0  0  0  0
  7 37  1  0  0  0  0
  7 38  1  0  0  0  0
  8  9  1  0  0  0  0
  8 39  1  0  0  0  0
  8 40  1  0  0  0  0
  9 10  1  0  0  0  0
  9 28  1  0  0  0  0
 10 15  1  0  0  0  0
 10 11  2  0  0  0  0
 11 12  1  0  0  0  0
 12 13  2  0  0  0  0
 12 41  1  0  0  0  0
 13 14  1  0  0  0  0
 14 18  1  0  0  0  0
 14 15  2  0  0  0  0
 15 16  1  0  0  0  0
 16 17  2  0  0  0  0
 17 18  1  0  0  0  0
 17 42  1  0  0  0  0
 18 19  1  0  0  0  0
 19 20  1  0  0  0  0
 19 43  1  0  0  0  0
 19 44  1  0  0  0  0
 20 21  1  0  0  0  0
 20 23  1  0  0  0  0
 20 45  1  0  0  0  0
 21 22  1  0  0  0  0
 21 46  1  0  0  0  0
 21 47  1  0  0  0  0
 22 48  1  0  0  0  0
 23 27  1  0  0  0  0
 23 24  1  0  0  0  0
 23 49  1  0  0  0  0
 24 25  1  0  0  0  0
 24 50  1  0  0  0  0
 24 51  1  0  0  0  0
 25 26  1  0  0  0  0
 25 52  1  0  0  0  0
 25 53  1  0  0  0  0
 26 27  1  0  0  0  0
 27 54  1  0  0  0  0
 27 55  1  0  0  0  0
 28 29  1  0  0  0  0
 28 56  1  0  0  0  0
 28 57  1  0  0  0  0
 29 58  1  0  0  0  0
 29 59  1  0  0  0  0
M  END
> <s_m_source_file>
AV-unprocessed.smi

> <i_m_source_file_index>
273

> <i_lp_mmshare_version>
43012

> <i_f3d_flags>
0

> <s_epik_input>
W0NIM11bQ0gyXVtOSF1DKD1PKVtDSF0xW0NIMl1bQ0gyXU4oW0NIMl1bQ0gyXTEpYyhuW2NIXW4yKWMoYzIzKW5bY0hdbjNbQ0gyXVtDQEhdKFtDSDJdW09IXSlbQ0BASF00W0NIMl1bQ0gyXU9bQ0gyXTQ=

> <s_epik_cmdline>
J2VwaWtfcHl0aG9uJywgJy1waCcsICc3LjAnLCAnLXRuJywgJzgnLCAnLW1hJywgJzIwMCcsICctbWV0YWxfYmluZGluZycsICctaW1hZScsICc8aW5maWxlLm1hZT4nLCAnLW9tYWUnLCAnPG91dGZpbGUubWFlPic=

> <r_lp_tautomer_probability>
1

> <r_epik_Ionization_Penalty>
0.00226556

> <r_epik_Ionization_Penalty_Charging>
0

> <r_epik_Ionization_Penalty_Neutral>
0.00226556

> <r_epik_State_Penalty>
0.00139883

> <r_epik_Charging_Adjusted_Penalty>
0.00139883

> <i_epik_Tot_Q>
0

> <i_epik_Tot_abs_Q>
0

> <r_epik_Metal_State_Penalty>
-0

> <b_epik_Metal_Only>
0

> <s_lp_Force_Field>
OPLS_2005

> <r_lp_Energy>
41.2023

> <b_lp_Chiralities_Consistent>
1

> <s_lp_Variant>
AV-unprocessed.smi:273-4

> <Gold.Version>
5.8.1

> <Gold.Id.Protein>
6NUR|6NUR_protein|mol2

> <Gold.PLP.Fitness>
51.1875

> <Gold.PLP.PLP>
-45.5763

> <Gold.PLP.part.hbond>
-5.3443

> <Gold.PLP.part.metal>
0.0000

> <Gold.PLP.part.buried>
-7.0492

> <Gold.PLP.part.nonpolar>
-34.2633

> <Gold.PLP.part.repulsive>
0.2715

> <Gold.PLP.ligand.clash>
0.0000

> <Gold.PLP.ligand.torsion>
1.5970

> <Gold.PLP.Chemscore.Hbond>
2.7358

> <Gold.PLP.Chemscore.CHOScore>
0.0000

> <Gold.PLP.Chemscore.Metal>
0.0000

> <Gold.Chemscore.Hbonds>
donor molecule, donor type, donor heavy atom, donor atom, acceptor molecule, acceptor atom, score
      L1  H    22    48       P1  7957  0.02
      P1  H  6896  6907       L1    11  1.00
      P1  H  6934  6947       L1    16  0.56
      P1  H  7989  7998       L1    22  0.15
      P1  H  8011  8017       L1    22  1.00

> <Gold.PLP.Chemscore.Internal.Correction>
0.5978

> <Gold.Rescore>
     Score         DG    S(hbond)    S(metal)    S(lipo)     H(rot)  DE(clash)    DE(int)     intcor
     11.11     -14.07       1.87        0.00      90.62       3.22       0.00       2.95       ----

> <Gold.Chemscore.Fitness>
11.1103

> <Gold.Chemscore.DG>
-14.0682

> <Gold.Chemscore.ZeroCoef>
-5.4800

> <Gold.Chemscore.Hbond>
1.8684

> <Gold.Chemscore.Metal>
0.0000

> <Gold.Chemscore.Lipo>
90.6161

> <Gold.Chemscore.Internal_Hbond>
0.0000

> <Gold.Chemscore.DEClash>
0.0029

> <Gold.Chemscore.DEInternal>
2.9549

> <Gold.Chemscore.Rot>
3.2244

> <Gold.Chemscore.Internal.Correction>
   9.000000E+99

> <Gold.Chemscore.Hbonds>
donor molecule, donor type, donor heavy atom, donor atom, acceptor molecule, acceptor atom, score
      L1  H    22    48       P1  7957  0.04
      P1  H  6896  6907       L1    11  0.92
      P1  H  6934  6947       L1    16  0.26
      P1  H  7989  7998       L1    22  0.11
      P1  H  8011  8017       L1    22  0.38

> <Gold.Chemscore.Hbond.Weighted>
-6.2406

> <Gold.Chemscore.Metal.Weighted>
-0.0000

> <Gold.Chemscore.Lipo.Weighted>
-10.6021

> <Gold.Chemscore.Internal_Hbond.Weighted>
0.0000

> <Gold.Chemscore.DEClash.Weighted>
0.0029

> <Gold.Chemscore.DEInternal.Weighted>
2.9549

> <Gold.Chemscore.Rot.Weighted>
8.2545

> <Gold.Chemscore.Internal.Correction.Weighted>
   9.000000E+99

> <Gold.Protein.RotatedTorsions>
[ 6907 6896 6895 6894 ] final  -58.60 input  -60.11 | X-H torsion
[ 7974 7965 7964 7962 ] final  -28.23 input  175.53 | X-H torsion
[ 8008 7997 7996 7995 ] final  128.76 input   59.86 | X-H torsion
[ 10167 10162 10161 10158 ] final   41.96 input  -65.29 | X-H torsion
[ 10718 10713 10712 10709 ] final   41.15 input   66.30 | X-H torsion
[ 10763 10752 10751 10750 ] final   44.89 input  -60.55 | X-H torsion
[ 11005 11000 10999 10996 ] final   12.81 input  -57.11 | X-H torsion

> <Gold.Protein.ActiveResidues>
 VAL166  LYS551  ARG553  GLY616  TRP617  ASP618  TYR619  PRO620  LYS621  CYS622 
 ASP623  PHE694  ASN695  SER759  ASP760  ASP761  ALA762  ILE779  LEU786  VAL792 
 PHE793  MET794  SER795  GLU796  ALA797  LYS798  CYS799  TRP800  GLU811  SER814 

> <Gold.Protein.RotatedAtoms>
  150.7994  134.7077  159.6585 H   0  0  0  0  0  0  0  0  0  0  0  0  # atno 6907 bound_to 6896
  152.4109  134.6122  160.0038 H   0  0  0  0  0  0  0  0  0  0  0  0  # atno 6908 bound_to 6896
  151.6365  133.3291  159.3156 H   0  0  0  0  0  0  0  0  0  0  0  0  # atno 6909 bound_to 6896
  146.1303  140.5255  142.8696 H   0  0  0  0  0  0  0  0  0  0  0  0  # atno 7974 bound_to 7965
  156.2922  140.2637  156.2489 H   0  0  0  0  0  0  0  0  0  0  0  0  # atno 8008 bound_to 7997
  154.9902  140.0389  157.2335 H   0  0  0  0  0  0  0  0  0  0  0  0  # atno 8009 bound_to 7997
  154.7692  140.2775  155.6156 H   0  0  0  0  0  0  0  0  0  0  0  0  # atno 8010 bound_to 7997
  140.3591  144.2251  150.6139 H   0  0  0  0  0  0  0  0  0  0  0  0  # atno 10167 bound_to 10162
  157.3903  130.7802  149.7264 H   0  0  0  0  0  0  0  0  0  0  0  0  # atno 10718 bound_to 10713
  152.9833  135.6057  154.3347 H   0  0  0  0  0  0  0  0  0  0  0  0  # atno 10763 bound_to 10752
  154.3048  135.2772  155.2596 H   0  0  0  0  0  0  0  0  0  0  0  0  # atno 10764 bound_to 10752
  154.4832  135.5911  153.6461 H   0  0  0  0  0  0  0  0  0  0  0  0  # atno 10765 bound_to 10752
  140.4878  134.0871  155.7764 H   0  0  0  0  0  0  0  0  0  0  0  0  # atno 11005 bound_to 11000
  144.7683  140.5581  143.6687 LP  0  0  0  0  0  0  0  0  0  0  0  0  # atno 17320 bound_to 7965
  145.5276  139.1475  143.3518 LP  0  0  0  0  0  0  0  0  0  0  0  0  # atno 17321 bound_to 7965
  140.5144  143.2282  151.8485 LP  0  0  0  0  0  0  0  0  0  0  0  0  # atno 17342 bound_to 10162
  139.4816  144.4911  151.9184 LP  0  0  0  0  0  0  0  0  0  0  0  0  # atno 17343 bound_to 10162
  155.9796  130.4038  150.3574 LP  0  0  0  0  0  0  0  0  0  0  0  0  # atno 17370 bound_to 10713
  157.1690  131.0364  151.2805 LP  0  0  0  0  0  0  0  0  0  0  0  0  # atno 17371 bound_to 10713
  141.1499  133.8987  157.2123 LP  0  0  0  0  0  0  0  0  0  0  0  0  # atno 17394 bound_to 11000
  139.9788  135.0105  156.9697 LP  0  0  0  0  0  0  0  0  0  0  0  0  # atno 17395 bound_to 11000

$$$$
