AV-unprocessed.smi:107|AV-procd|sdf|1017|dock10
  -GOLD-   2262018 23D 1   1.00000     0.00000
 Structure written by MMmdl.
 31 32  0  0  0  0  0  0  0  0  1 V2000
  152.3818  138.3710  154.3936 C   0  0  0  0  0  0  0  0  0  0  0  0
  151.4873  139.3641  155.1166 C   0  0  0  0  0  0  0  0  0  0  0  0
  150.3272  139.8222  154.5812 C   0  0  0  0  0  0  0  0  0  0  0  0
  149.4895  140.7297  155.2136 N   0  0  0  0  0  0  0  0  0  0  0  0
  148.2265  141.2060  154.5323 C   0  0  2  0  0  0  0  0  0  0  0  0
  146.9811  140.8379  155.3470 C   0  0  0  0  0  0  0  0  0  0  0  0
  146.3359  139.7607  154.4934 C   0  0  1  0  0  0  0  0  0  0  0  0
  144.9288  139.7882  154.6203 O   0  0  0  0  0  0  0  0  0  0  0  0
  146.8021  140.1256  153.0813 C   0  0  2  0  0  0  0  0  0  0  0  0
  146.7992  138.9368  152.1083 C   0  0  0  0  0  0  0  0  0  0  0  0
  145.4869  138.4407  151.9537 O   0  0  0  0  0  0  0  0  0  0  0  0
  148.1367  140.5742  153.2919 O   0  0  0  0  0  0  0  0  0  0  0  0
  149.8479  141.2308  156.4835 C   0  0  0  0  0  0  0  0  0  0  0  0
  149.1618  142.0370  157.1107 O   0  0  0  0  0  0  0  0  0  0  0  0
  151.0392  140.7607  157.0341 N   0  0  0  0  0  0  0  0  0  0  0  0
  151.9064  139.8426  156.4367 C   0  0  0  0  0  0  0  0  0  0  0  0
  152.9304  139.5016  157.0265 O   0  0  0  0  0  0  0  0  0  0  0  0
  151.2977  141.1146  157.9436 H   0  0  0  0  0  0  0  0  0  0  0  0
  151.9660  138.0799  153.4287 H   0  0  0  0  0  0  0  0  0  0  0  0
  152.5073  137.4662  154.9894 H   0  0  0  0  0  0  0  0  0  0  0  0
  153.3666  138.8048  154.2165 H   0  0  0  0  0  0  0  0  0  0  0  0
  150.0424  139.4627  153.6037 H   0  0  0  0  0  0  0  0  0  0  0  0
  148.3098  142.2802  154.3654 H   0  0  0  0  0  0  0  0  0  0  0  0
  147.2281  140.5055  156.3561 H   0  0  0  0  0  0  0  0  0  0  0  0
  146.3478  141.7237  155.4162 H   0  0  0  0  0  0  0  0  0  0  0  0
  146.7118  138.7785  154.7821 H   0  0  0  0  0  0  0  0  0  0  0  0
  144.5625  140.1727  153.8385 H   0  0  0  0  0  0  0  0  0  0  0  0
  146.2036  140.9553  152.6992 H   0  0  0  0  0  0  0  0  0  0  0  0
  147.2187  139.2148  151.1409 H   0  0  0  0  0  0  0  0  0  0  0  0
  147.4096  138.1251  152.5052 H   0  0  0  0  0  0  0  0  0  0  0  0
  144.8779  139.1415  152.1302 H   0  0  0  0  0  0  0  0  0  0  0  0
  1  2  1  0  0  0  0
  1 19  1  0  0  0  0
  1 20  1  0  0  0  0
  1 21  1  0  0  0  0
  2 16  1  0  0  0  0
  2  3  2  0  0  0  0
  3  4  1  0  0  0  0
  3 22  1  0  0  0  0
  4  5  1  0  0  0  0
  4 13  1  0  0  0  0
  5 12  1  0  0  0  0
  5  6  1  0  0  0  0
  5 23  1  0  0  0  0
  6  7  1  0  0  0  0
  6 24  1  0  0  0  0
  6 25  1  0  0  0  0
  7  8  1  0  0  0  0
  7  9  1  0  0  0  0
  7 26  1  0  0  0  0
  8 27  1  0  0  0  0
  9 10  1  0  0  0  0
  9 12  1  0  0  0  0
  9 28  1  0  0  0  0
 10 11  1  0  0  0  0
 10 29  1  0  0  0  0
 10 30  1  0  0  0  0
 11 31  1  0  0  0  0
 13 14  2  0  0  0  0
 13 15  1  0  0  0  0
 15 18  1  0  0  0  0
 15 16  1  0  0  0  0
 16 17  2  0  0  0  0
M  END
> <s_m_source_file>
AV-unprocessed.smi

> <i_m_source_file_index>
107

> <i_lp_mmshare_version>
43012

> <i_f3d_flags>
0

> <s_epik_input>
Tz1jMVtuSF1jKD1PKW4oW2NIXWMxW0NIM10pW0NAQEhdMltDSDJdW0NAQEhdKFtPSF0pW0NASF0oTzIpW0NIMl1bT0hd

> <s_epik_cmdline>
J2VwaWtfcHl0aG9uJywgJy1waCcsICc3LjAnLCAnLXRuJywgJzgnLCAnLW1hJywgJzIwMCcsICctbWV0YWxfYmluZGluZycsICctaW1hZScsICc8aW5maWxlLm1hZT4nLCAnLW9tYWUnLCAnPG91dGZpbGUubWFlPic=

> <r_lp_tautomer_probability>
0.999537

> <r_epik_Ionization_Penalty>
0.00121888

> <r_epik_Ionization_Penalty_Charging>
0.00121876

> <r_epik_Ionization_Penalty_Neutral>
1.19946e-07

> <r_epik_State_Penalty>
0.000805124

> <r_epik_Charging_Adjusted_Penalty>
0.00202389

> <i_epik_Tot_Q>
0

> <i_epik_Tot_abs_Q>
0

> <r_epik_Metal_State_Penalty>
0.662472

> <b_epik_Metal_Only>
0

> <s_epik_Chemistry_Notes>
This compound contains an acetal/aminal-like group ( X-CH(R)-Y where X, Y are N, S, or O) that may be acid/base labile, releasing an aldehyde.

> <s_lp_Force_Field>
OPLS_2005

> <r_lp_Energy>
24.9707

> <b_lp_Chiralities_Consistent>
1

> <s_lp_Variant>
AV-unprocessed.smi:107-5

> <Gold.Version>
5.8.1

> <Gold.Id.Protein>
6NUR|6NUR_protein|mol2

> <Gold.PLP.Fitness>
38.6052

> <Gold.PLP.PLP>
-26.6162

> <Gold.PLP.part.hbond>
-4.0000

> <Gold.PLP.part.metal>
0.0000

> <Gold.PLP.part.buried>
-1.5329

> <Gold.PLP.part.nonpolar>
-24.4863

> <Gold.PLP.part.repulsive>
3.8525

> <Gold.PLP.ligand.clash>
0.0000

> <Gold.PLP.ligand.torsion>
0.0083

> <Gold.PLP.Chemscore.Hbond>
3.0000

> <Gold.PLP.Chemscore.CHOScore>
0.9978

> <Gold.PLP.Chemscore.Metal>
0.0000

> <Gold.Chemscore.Hbonds>
donor molecule, donor type, donor heavy atom, donor atom, acceptor molecule, acceptor atom, score
      L1  H     8    27       P1 10175  1.00
      L1  H    11    31       P1 10175  1.00
      P1  H  7997  8008       L1    17  1.00
      L1  C     3    22       P1  7957  0.97

> <Gold.PLP.Chemscore.Internal.Correction>
0.0124

> <Gold.Rescore>
     Score         DG    S(hbond)    S(metal)    S(lipo)     H(rot)  DE(clash)    DE(int)     intcor
     12.43     -13.81       2.99        0.00      45.35       2.73       1.34       0.04       ----

> <Gold.Chemscore.Fitness>
12.4285

> <Gold.Chemscore.DG>
-13.8094

> <Gold.Chemscore.ZeroCoef>
-5.4800

> <Gold.Chemscore.Hbond>
2.9940

> <Gold.Chemscore.Metal>
0.0000

> <Gold.Chemscore.Lipo>
45.3532

> <Gold.Chemscore.Internal_Hbond>
0.0000

> <Gold.Chemscore.DEClash>
1.3410

> <Gold.Chemscore.DEInternal>
0.0399

> <Gold.Chemscore.Rot>
2.7253

> <Gold.Chemscore.Internal.Correction>
   9.000000E+99

> <Gold.Chemscore.Hbonds>
donor molecule, donor type, donor heavy atom, donor atom, acceptor molecule, acceptor atom, score
      L1  H     8    27       P1 10175  1.00
      L1  H    11    31       P1 10175  1.00
      P1  H  7997  8008       L1    17  0.98

> <Gold.Chemscore.Hbond.Weighted>
-9.9999

> <Gold.Chemscore.Metal.Weighted>
-0.0000

> <Gold.Chemscore.Lipo.Weighted>
-5.3063

> <Gold.Chemscore.Internal_Hbond.Weighted>
0.0000

> <Gold.Chemscore.DEClash.Weighted>
1.3410

> <Gold.Chemscore.DEInternal.Weighted>
0.0399

> <Gold.Chemscore.Rot.Weighted>
6.9769

> <Gold.Chemscore.Internal.Correction.Weighted>
   9.000000E+99

> <Gold.Protein.RotatedTorsions>
[ 6907 6896 6895 6894 ] final  120.46 input  -60.11 | X-H torsion
[ 7974 7965 7964 7962 ] final   70.93 input  175.53 | X-H torsion
[ 8008 7997 7996 7995 ] final  -58.72 input   59.86 | X-H torsion
[ 10167 10162 10161 10158 ] final  121.39 input  -65.29 | X-H torsion
[ 10718 10713 10712 10709 ] final   14.64 input   66.30 | X-H torsion
[ 10763 10752 10751 10750 ] final -138.79 input  -60.55 | X-H torsion
[ 11005 11000 10999 10996 ] final  -34.52 input  -57.11 | X-H torsion

> <Gold.Protein.ActiveResidues>
 VAL166  LYS551  ARG553  GLY616  TRP617  ASP618  TYR619  PRO620  LYS621  CYS622 
 ASP623  PHE694  ASN695  SER759  ASP760  ASP761  ALA762  ILE779  LEU786  VAL792 
 PHE793  MET794  SER795  GLU796  ALA797  LYS798  CYS799  TRP800  GLU811  SER814 

> <Gold.Protein.RotatedAtoms>
  152.4396  133.7424  159.6648 H   0  0  0  0  0  0  0  0  0  0  0  0  # atno 6907 bound_to 6896
  150.8285  133.8120  159.3114 H   0  0  0  0  0  0  0  0  0  0  0  0  # atno 6908 bound_to 6896
  151.5781  135.1062  160.0062 H   0  0  0  0  0  0  0  0  0  0  0  0  # atno 6909 bound_to 6896
  145.7721  139.2848  143.1315 H   0  0  0  0  0  0  0  0  0  0  0  0  # atno 7974 bound_to 7965
  154.4321  140.1078  156.6001 H   0  0  0  0  0  0  0  0  0  0  0  0  # atno 8008 bound_to 7997
  155.5920  140.3492  155.4550 H   0  0  0  0  0  0  0  0  0  0  0  0  # atno 8009 bound_to 7997
  156.0239  140.1246  157.0318 H   0  0  0  0  0  0  0  0  0  0  0  0  # atno 8010 bound_to 7997
  139.5922  144.7029  151.3261 H   0  0  0  0  0  0  0  0  0  0  0  0  # atno 10167 bound_to 10162
  157.0421  130.6235  149.5753 H   0  0  0  0  0  0  0  0  0  0  0  0  # atno 10718 bound_to 10713
  154.8627  135.3601  154.5442 H   0  0  0  0  0  0  0  0  0  0  0  0  # atno 10763 bound_to 10752
  153.6062  135.7011  153.5369 H   0  0  0  0  0  0  0  0  0  0  0  0  # atno 10764 bound_to 10752
  153.3248  135.4141  155.1408 H   0  0  0  0  0  0  0  0  0  0  0  0  # atno 10765 bound_to 10752
  140.9722  133.7103  156.1543 H   0  0  0  0  0  0  0  0  0  0  0  0  # atno 11005 bound_to 11000
  146.0159  140.8393  142.9947 LP  0  0  0  0  0  0  0  0  0  0  0  0  # atno 17320 bound_to 7965
  144.6811  140.2558  143.7325 LP  0  0  0  0  0  0  0  0  0  0  0  0  # atno 17321 bound_to 7965
  140.7183  143.7206  150.7698 LP  0  0  0  0  0  0  0  0  0  0  0  0  # atno 17342 bound_to 10162
  140.0765  143.5010  152.2553 LP  0  0  0  0  0  0  0  0  0  0  0  0  # atno 17343 bound_to 10162
  156.0035  130.5118  150.7747 LP  0  0  0  0  0  0  0  0  0  0  0  0  # atno 17370 bound_to 10713
  157.5096  131.0924  151.0214 LP  0  0  0  0  0  0  0  0  0  0  0  0  # atno 17371 bound_to 10713
  140.7311  134.4253  157.5565 LP  0  0  0  0  0  0  0  0  0  0  0  0  # atno 17394 bound_to 11000
  139.8917  134.8774  156.2308 LP  0  0  0  0  0  0  0  0  0  0  0  0  # atno 17395 bound_to 11000

$$$$
