AV-unprocessed.smi:3303|AV-procd|sdf|12677|dock3
  -GOLD-   2272019 13D 1   1.00000     0.00000
 Structure written by MMmdl.
 44 45  0  0  0  0  0  0  0  0  2 V2000
  149.5340  140.4162  154.3782 C   0  0  0  0  0  0  0  0  0  0  0  0
  148.2085  140.8593  155.0189 C   0  0  2  0  0  0  0  0  0  0  0  0
  147.5417  142.0092  154.2400 C   0  0  0  0  0  0  0  0  0  0  0  0
  146.2207  142.3249  154.7911 N   0  0  0  0  0  0  0  0  0  0  0  0
  145.6314  143.3537  153.9378 C   0  0  0  0  0  0  0  0  0  0  0  0
  146.3250  142.7655  156.1937 C   0  0  1  0  0  0  0  0  0  0  0  0
  144.9479  143.1208  156.7902 C   0  0  0  0  0  0  0  0  0  0  0  0
  146.9780  141.6510  157.0447 C   0  0  0  0  0  0  0  0  0  0  0  0
  148.3517  141.2233  156.5088 C   0  0  2  0  0  0  0  0  0  0  0  0
  149.3473  142.3004  156.7222 N   0  3  0  0  0  0  0  0  0  0  0  0
  149.7966  142.4649  158.1189 C   0  0  0  0  0  0  0  0  0  0  0  0
  151.0795  143.3039  158.1884 C   0  0  0  0  0  0  0  0  0  0  0  0
  151.8461  143.0737  159.4767 C   0  0  0  0  0  0  0  0  0  0  0  0
  152.7375  141.9868  159.6018 C   0  0  0  0  0  0  0  0  0  0  0  0
  153.4198  141.8163  160.8223 C   0  0  0  0  0  0  0  0  0  0  0  0
  153.1849  142.7338  161.8645 C   0  0  0  0  0  0  0  0  0  0  0  0
  152.2731  143.7846  161.6399 C   0  0  0  0  0  0  0  0  0  0  0  0
  151.6122  143.9558  160.4741 N   0  0  0  0  0  0  0  0  0  0  0  0
  150.2614  141.2277  154.3494 H   0  0  0  0  0  0  0  0  0  0  0  0
  149.3777  140.0802  153.3528 H   0  0  0  0  0  0  0  0  0  0  0  0
  149.9788  139.5878  154.9302 H   0  0  0  0  0  0  0  0  0  0  0  0
  147.5374  140.0002  154.9594 H   0  0  0  0  0  0  0  0  0  0  0  0
  148.1762  142.8970  154.2474 H   0  0  0  0  0  0  0  0  0  0  0  0
  147.4302  141.7099  153.1966 H   0  0  0  0  0  0  0  0  0  0  0  0
  144.5922  143.5451  154.2021 H   0  0  0  0  0  0  0  0  0  0  0  0
  145.6316  143.0356  152.8945 H   0  0  0  0  0  0  0  0  0  0  0  0
  146.1845  144.2917  154.0064 H   0  0  0  0  0  0  0  0  0  0  0  0
  146.9552  143.6554  156.2349 H   0  0  0  0  0  0  0  0  0  0  0  0
  145.0269  143.3141  157.8603 H   0  0  0  0  0  0  0  0  0  0  0  0
  144.2329  142.3083  156.6557 H   0  0  0  0  0  0  0  0  0  0  0  0
  144.5254  144.0216  156.3457 H   0  0  0  0  0  0  0  0  0  0  0  0
  147.0742  141.9758  158.0818 H   0  0  0  0  0  0  0  0  0  0  0  0
  146.3182  140.7818  157.0639 H   0  0  0  0  0  0  0  0  0  0  0  0
  148.6669  140.3330  157.0558 H   0  0  0  0  0  0  0  0  0  0  0  0
  150.1538  142.1003  156.1484 H   0  0  0  0  0  0  0  0  0  0  0  0
  149.0023  142.9418  158.6950 H   0  0  0  0  0  0  0  0  0  0  0  0
  149.9730  141.4822  158.5586 H   0  0  0  0  0  0  0  0  0  0  0  0
  151.7249  143.0699  157.3406 H   0  0  0  0  0  0  0  0  0  0  0  0
  150.8383  144.3649  158.1069 H   0  0  0  0  0  0  0  0  0  0  0  0
  152.8970  141.2985  158.7847 H   0  0  0  0  0  0  0  0  0  0  0  0
  154.1112  140.9975  160.9563 H   0  0  0  0  0  0  0  0  0  0  0  0
  153.6915  142.6353  162.8133 H   0  0  0  0  0  0  0  0  0  0  0  0
  152.0687  144.5062  162.4169 H   0  0  0  0  0  0  0  0  0  0  0  0
  148.9428  143.1723  156.4122 H   0  0  0  0  0  0  0  0  0  0  0  0
  1  2  1  0  0  0  0
  1 19  1  0  0  0  0
  1 20  1  0  0  0  0
  1 21  1  0  0  0  0
  2  9  1  0  0  0  0
  2  3  1  0  0  0  0
  2 22  1  0  0  0  0
  3  4  1  0  0  0  0
  3 23  1  0  0  0  0
  3 24  1  0  0  0  0
  4  5  1  0  0  0  0
  4  6  1  0  0  0  0
  5 25  1  0  0  0  0
  5 26  1  0  0  0  0
  5 27  1  0  0  0  0
  6  7  1  0  0  0  0
  6  8  1  0  0  0  0
  6 28  1  0  0  0  0
  7 29  1  0  0  0  0
  7 30  1  0  0  0  0
  7 31  1  0  0  0  0
  8  9  1  0  0  0  0
  8 32  1  0  0  0  0
  8 33  1  0  0  0  0
  9 10  1  0  0  0  0
  9 34  1  0  0  0  0
 10 11  1  0  0  0  0
 10 35  1  0  0  0  0
 10 44  1  0  0  0  0
 11 12  1  0  0  0  0
 11 36  1  0  0  0  0
 11 37  1  0  0  0  0
 12 13  1  0  0  0  0
 12 38  1  0  0  0  0
 12 39  1  0  0  0  0
 13 18  1  0  0  0  0
 13 14  2  0  0  0  0
 14 15  1  0  0  0  0
 14 40  1  0  0  0  0
 15 16  2  0  0  0  0
 15 41  1  0  0  0  0
 16 17  1  0  0  0  0
 16 42  1  0  0  0  0
 17 18  2  0  0  0  0
 17 43  1  0  0  0  0
M  CHG  1  10   1
M  END
> <s_m_source_file>
AV-unprocessed.smi

> <i_m_source_file_index>
3303

> <i_lp_mmshare_version>
43012

> <i_f3d_flags>
0

> <s_epik_input>
W0NIM11bQ0BASF0xW0NIMl1OKFtDSDNdKVtDQEBIXShbQ0gzXSlbQ0gyXVtDQEhdMVtOSF1bQ0gyXVtDSDJdYzJbY0hdW2NIXVtjSF1bY0hdbjI=

> <s_epik_cmdline>
J2VwaWtfcHl0aG9uJywgJy1waCcsICc3LjAnLCAnLXRuJywgJzgnLCAnLW1hJywgJzIwMCcsICctbWV0YWxfYmluZGluZycsICctaW1hZScsICc8aW5maWxlLm1hZT4nLCAnLW9tYWUnLCAnPG91dGZpbGUubWFlPic=

> <r_epik_Ionization_Penalty>
1.37325

> <r_epik_Ionization_Penalty_Charging>
0.000251572

> <r_epik_Ionization_Penalty_Neutral>
1.373

> <r_epik_State_Penalty>
1.46343

> <r_epik_Charging_Adjusted_Penalty>
1.46368

> <i_epik_Tot_Q>
1

> <i_epik_Tot_abs_Q>
1

> <r_epik_Metal_State_Penalty>
1.46331

> <b_epik_Metal_Only>
0

> <s_lp_Force_Field>
OPLS_2005

> <r_lp_Energy>
25.9316

> <b_lp_Chiralities_Consistent>
1

> <s_lp_Variant>
AV-unprocessed.smi:3303-21

> <Gold.Version>
5.8.1

> <Gold.Id.Protein>
6NUR|6NUR_protein|mol2

> <Gold.PLP.Fitness>
44.1948

> <Gold.PLP.PLP>
-39.3983

> <Gold.PLP.part.hbond>
-1.0000

> <Gold.PLP.part.metal>
0.0000

> <Gold.PLP.part.buried>
-4.7562

> <Gold.PLP.part.nonpolar>
-33.4375

> <Gold.PLP.part.repulsive>
0.2922

> <Gold.PLP.ligand.clash>
0.0000

> <Gold.PLP.ligand.torsion>
0.6102

> <Gold.PLP.Chemscore.Hbond>
2.0000

> <Gold.PLP.Chemscore.CHOScore>
0.0000

> <Gold.PLP.Chemscore.Metal>
0.0000

> <Gold.Chemscore.Hbonds>
donor molecule, donor type, donor heavy atom, donor atom, acceptor molecule, acceptor atom, score
      L1  H    10    44       P1  8028  2.00

> <Gold.PLP.Chemscore.Internal.Correction>
0.0169

> <Gold.Rescore>
     Score         DG    S(hbond)    S(metal)    S(lipo)     H(rot)  DE(clash)    DE(int)     intcor
     17.65     -18.27       0.99        0.00     110.08       1.33       0.01       0.61       ----

> <Gold.Chemscore.Fitness>
17.6457

> <Gold.Chemscore.DG>
-18.2744

> <Gold.Chemscore.ZeroCoef>
-5.4800

> <Gold.Chemscore.Hbond>
0.9938

> <Gold.Chemscore.Metal>
0.0000

> <Gold.Chemscore.Lipo>
110.0805

> <Gold.Chemscore.Internal_Hbond>
0.0000

> <Gold.Chemscore.DEClash>
0.0149

> <Gold.Chemscore.DEInternal>
0.6138

> <Gold.Chemscore.Rot>
1.3298

> <Gold.Chemscore.Internal.Correction>
   9.000000E+99

> <Gold.Chemscore.Hbonds>
donor molecule, donor type, donor heavy atom, donor atom, acceptor molecule, acceptor atom, score
      L1  H    10    44       P1  8028  0.98

> <Gold.Chemscore.Hbond.Weighted>
-3.3193

> <Gold.Chemscore.Metal.Weighted>
-0.0000

> <Gold.Chemscore.Lipo.Weighted>
-12.8794

> <Gold.Chemscore.Internal_Hbond.Weighted>
0.0000

> <Gold.Chemscore.DEClash.Weighted>
0.0149

> <Gold.Chemscore.DEInternal.Weighted>
0.6138

> <Gold.Chemscore.Rot.Weighted>
3.4043

> <Gold.Chemscore.Internal.Correction.Weighted>
   9.000000E+99

> <Gold.Protein.RotatedTorsions>
[ 6907 6896 6895 6894 ] final   28.42 input  -60.11 | X-H torsion
[ 7974 7965 7964 7962 ] final  128.85 input  175.53 | X-H torsion
[ 8008 7997 7996 7995 ] final  -61.63 input   59.86 | X-H torsion
[ 10167 10162 10161 10158 ] final   10.31 input  -65.29 | X-H torsion
[ 10718 10713 10712 10709 ] final -159.35 input   66.30 | X-H torsion
[ 10763 10752 10751 10750 ] final -138.75 input  -60.55 | X-H torsion
[ 11005 11000 10999 10996 ] final  157.62 input  -57.11 | X-H torsion

> <Gold.Protein.ActiveResidues>
 VAL166  LYS551  ARG553  GLY616  TRP617  ASP618  TYR619  PRO620  LYS621  CYS622 
 ASP623  PHE694  ASN695  SER759  ASP760  ASP761  ALA762  ILE779  LEU786  VAL792 
 PHE793  MET794  SER795  GLU796  ALA797  LYS798  CYS799  TRP800  GLU811  SER814 

> <Gold.Protein.RotatedAtoms>
  152.0167  134.9846  160.0569 H   0  0  0  0  0  0  0  0  0  0  0  0  # atno 6907 bound_to 6896
  152.1377  133.4440  159.4760 H   0  0  0  0  0  0  0  0  0  0  0  0  # atno 6908 bound_to 6896
  150.6862  134.2262  159.4459 H   0  0  0  0  0  0  0  0  0  0  0  0  # atno 6909 bound_to 6896
  145.0350  139.4012  143.5130 H   0  0  0  0  0  0  0  0  0  0  0  0  # atno 7974 bound_to 7965
  154.4458  140.1013  156.6461 H   0  0  0  0  0  0  0  0  0  0  0  0  # atno 8008 bound_to 7997
  155.5449  140.3484  155.4436 H   0  0  0  0  0  0  0  0  0  0  0  0  # atno 8009 bound_to 7997
  156.0571  140.1317  156.9973 H   0  0  0  0  0  0  0  0  0  0  0  0  # atno 8010 bound_to 7997
  140.6202  143.8220  150.7166 H   0  0  0  0  0  0  0  0  0  0  0  0  # atno 10167 bound_to 10162
  156.5669  130.8671  151.2826 H   0  0  0  0  0  0  0  0  0  0  0  0  # atno 10718 bound_to 10713
  154.8628  135.3603  154.5435 H   0  0  0  0  0  0  0  0  0  0  0  0  # atno 10763 bound_to 10752
  153.6055  135.7011  153.5372 H   0  0  0  0  0  0  0  0  0  0  0  0  # atno 10764 bound_to 10752
  153.3254  135.4139  155.1412 H   0  0  0  0  0  0  0  0  0  0  0  0  # atno 10765 bound_to 10752
  140.1786  134.8491  157.2776 H   0  0  0  0  0  0  0  0  0  0  0  0  # atno 11005 bound_to 11000
  146.3503  139.9921  142.8684 LP  0  0  0  0  0  0  0  0  0  0  0  0  # atno 17320 bound_to 7965
  145.1721  140.9726  143.4315 LP  0  0  0  0  0  0  0  0  0  0  0  0  # atno 17321 bound_to 7965
  140.1809  143.4116  152.1934 LP  0  0  0  0  0  0  0  0  0  0  0  0  # atno 17342 bound_to 10162
  139.5432  144.7275  151.4666 LP  0  0  0  0  0  0  0  0  0  0  0  0  # atno 17343 bound_to 10162
  157.7356  130.9766  150.2093 LP  0  0  0  0  0  0  0  0  0  0  0  0  # atno 17370 bound_to 10713
  156.2749  130.3726  149.7994 LP  0  0  0  0  0  0  0  0  0  0  0  0  # atno 17371 bound_to 10713
  140.2293  134.3928  155.7529 LP  0  0  0  0  0  0  0  0  0  0  0  0  # atno 17394 bound_to 11000
  141.2222  133.7206  156.8615 LP  0  0  0  0  0  0  0  0  0  0  0  0  # atno 17395 bound_to 11000

$$$$
