AV-unprocessed.smi:2928|AV-procd|sdf|11235|dock7
  -GOLD-   2272016133D 1   1.00000     0.00000
 Structure written by MMmdl.
 56 59  0  0  0  0  0  0  0  0  3 V2000
  149.4251  141.2154  156.6379 C   0  0  0  0  0  0  0  0  0  0  0  0
  150.0196  139.9270  156.2085 N   0  3  2  0  0  0  0  0  0  0  0  0
  150.1106  139.7415  154.7404 C   0  0  2  0  0  0  0  0  0  0  0  0
  148.7095  139.5451  154.1066 C   0  0  0  0  0  0  0  0  0  0  0  0
  147.8494  138.4642  154.7881 C   0  0  0  0  0  0  0  0  0  0  0  0
  147.9790  138.4777  156.3219 C   0  0  0  0  0  0  0  0  0  0  0  0
  149.4194  138.7257  156.8359 C   0  0  1  0  0  0  0  0  0  0  0  0
  150.3903  137.5325  156.6767 C   0  0  0  0  0  0  0  0  0  0  0  0
  150.9679  137.3169  155.2501 C   0  0  1  0  0  0  0  0  0  0  0  0
  150.2465  136.3040  154.4845 N   0  0  0  0  0  0  0  0  0  0  0  0
  150.1844  134.9956  154.7702 C   0  0  0  0  0  0  0  0  0  0  0  0
  150.7643  134.4761  155.7231 O   0  0  0  0  0  0  0  0  0  0  0  0
  149.3909  134.3512  153.9000 N   0  0  0  0  0  0  0  0  0  0  0  0
  148.9862  132.9876  153.9273 C   0  0  0  0  0  0  0  0  0  0  0  0
  149.7549  131.9737  154.5532 C   0  0  0  0  0  0  0  0  0  0  0  0
  149.3022  130.6395  154.5261 C   0  0  0  0  0  0  0  0  0  0  0  0
  148.0951  130.3386  153.8682 C   0  0  0  0  0  0  0  0  0  0  0  0
  147.3953  131.3244  153.2686 N   0  3  0  0  0  0  0  0  0  0  0  0
  147.7872  132.6221  153.2645 C   0  0  0  0  0  0  0  0  0  0  0  0
  146.9863  133.5751  152.6120 N   0  0  0  0  0  0  0  0  0  0  0  0
  146.7897  133.3580  151.1887 C   0  0  0  0  0  0  0  0  0  0  0  0
  145.6176  134.2621  150.7978 C   0  0  0  0  0  0  0  0  0  0  0  0
  144.8748  134.5365  152.1116 C   0  0  0  0  0  0  0  0  0  0  0  0
  145.6611  133.7674  153.1761 C   0  0  0  0  0  0  0  0  0  0  0  0
  151.1377  138.6251  154.4365 C   0  0  0  0  0  0  0  0  0  0  0  0
  148.3833  141.3131  156.3344 H   0  0  0  0  0  0  0  0  0  0  0  0
  149.9807  142.0508  156.2111 H   0  0  0  0  0  0  0  0  0  0  0  0
  149.4705  141.3111  157.7230 H   0  0  0  0  0  0  0  0  0  0  0  0
  150.5244  140.6573  154.3157 H   0  0  0  0  0  0  0  0  0  0  0  0
  148.1697  140.4911  154.1568 H   0  0  0  0  0  0  0  0  0  0  0  0
  148.8045  139.3251  153.0429 H   0  0  0  0  0  0  0  0  0  0  0  0
  146.8040  138.6074  154.5131 H   0  0  0  0  0  0  0  0  0  0  0  0
  148.0938  137.4825  154.3979 H   0  0  0  0  0  0  0  0  0  0  0  0
  147.3294  139.2610  156.7133 H   0  0  0  0  0  0  0  0  0  0  0  0
  147.5878  137.5469  156.7338 H   0  0  0  0  0  0  0  0  0  0  0  0
  149.3448  138.9147  157.9080 H   0  0  0  0  0  0  0  0  0  0  0  0
  151.2381  137.7254  157.3356 H   0  0  0  0  0  0  0  0  0  0  0  0
  149.9366  136.6213  157.0674 H   0  0  0  0  0  0  0  0  0  0  0  0
  151.9718  136.9053  155.3728 H   0  0  0  0  0  0  0  0  0  0  0  0
  149.7371  136.6314  153.6768 H   0  0  0  0  0  0  0  0  0  0  0  0
  148.9233  134.9278  153.2160 H   0  0  0  0  0  0  0  0  0  0  0  0
  150.6911  132.1950  155.0427 H   0  0  0  0  0  0  0  0  0  0  0  0
  149.8767  129.8574  155.0006 H   0  0  0  0  0  0  0  0  0  0  0  0
  147.6739  129.3460  153.7987 H   0  0  0  0  0  0  0  0  0  0  0  0
  147.6906  133.6039  150.6255 H   0  0  0  0  0  0  0  0  0  0  0  0
  146.5418  132.3144  150.9900 H   0  0  0  0  0  0  0  0  0  0  0  0
  145.9843  135.1989  150.3765 H   0  0  0  0  0  0  0  0  0  0  0  0
  144.9790  133.7898  150.0505 H   0  0  0  0  0  0  0  0  0  0  0  0
  144.8884  135.6053  152.3289 H   0  0  0  0  0  0  0  0  0  0  0  0
  143.8325  134.2185  152.0746 H   0  0  0  0  0  0  0  0  0  0  0  0
  145.1845  132.8057  153.3722 H   0  0  0  0  0  0  0  0  0  0  0  0
  145.7094  134.3181  154.1160 H   0  0  0  0  0  0  0  0  0  0  0  0
  151.1732  138.4176  153.3661 H   0  0  0  0  0  0  0  0  0  0  0  0
  152.1231  139.0268  154.6779 H   0  0  0  0  0  0  0  0  0  0  0  0
  150.9731  139.9627  156.5404 H   0  0  0  0  0  0  0  0  0  0  0  0
  146.5255  131.0796  152.7949 H   0  0  0  0  0  0  0  0  0  0  0  0
  1  2  1  0  0  0  0
  1 26  1  0  0  0  0
  1 27  1  0  0  0  0
  1 28  1  0  0  0  0
  2  7  1  0  0  0  0
  2  3  1  0  0  0  0
  2 55  1  0  0  0  0
  3 25  1  0  0  0  0
  3  4  1  0  0  0  0
  3 29  1  0  0  0  0
  4  5  1  0  0  0  0
  4 30  1  0  0  0  0
  4 31  1  0  0  0  0
  5  6  1  0  0  0  0
  5 32  1  0  0  0  0
  5 33  1  0  0  0  0
  6  7  1  0  0  0  0
  6 34  1  0  0  0  0
  6 35  1  0  0  0  0
  7  8  1  0  0  0  0
  7 36  1  0  0  0  0
  8  9  1  0  0  0  0
  8 37  1  0  0  0  0
  8 38  1  0  0  0  0
  9 10  1  0  0  0  0
  9 25  1  0  0  0  0
  9 39  1  0  0  0  0
 10 11  1  0  0  0  0
 10 40  1  0  0  0  0
 11 12  2  0  0  0  0
 11 13  1  0  0  0  0
 13 14  1  0  0  0  0
 13 41  1  0  0  0  0
 14 19  1  0  0  0  0
 14 15  2  0  0  0  0
 15 16  1  0  0  0  0
 15 42  1  0  0  0  0
 16 17  2  0  0  0  0
 16 43  1  0  0  0  0
 17 18  1  0  0  0  0
 17 44  1  0  0  0  0
 18 19  2  0  0  0  0
 18 56  1  0  0  0  0
 19 20  1  0  0  0  0
 20 24  1  0  0  0  0
 20 21  1  0  0  0  0
 21 22  1  0  0  0  0
 21 45  1  0  0  0  0
 21 46  1  0  0  0  0
 22 23  1  0  0  0  0
 22 47  1  0  0  0  0
 22 48  1  0  0  0  0
 23 24  1  0  0  0  0
 23 49  1  0  0  0  0
 23 50  1  0  0  0  0
 24 51  1  0  0  0  0
 24 52  1  0  0  0  0
 25 53  1  0  0  0  0
 25 54  1  0  0  0  0
M  CHG  1   2   1
M  CHG  1  18   1
M  END
> <s_m_source_file>
AV-unprocessed.smi

> <i_m_source_file_index>
2928

> <i_lp_mmshare_version>
43012

> <i_f3d_flags>
0

> <s_epik_input>
W0NIMl0xW0NIMl1bQ0gyXVtDQEhdKE4oW0NIM10pW0NIXTEyKVtDSDJdW0NASF0oW0NIMl0yKVtOSF1DKD1PKVtOSF1jM1tjSF1bY0hdW2NIXW5jM040W0NIMl1bQ0gyXVtDSDJdW0NIMl00

> <s_epik_cmdline>
J2VwaWtfcHl0aG9uJywgJy1waCcsICc3LjAnLCAnLXRuJywgJzgnLCAnLW1hJywgJzIwMCcsICctbWV0YWxfYmluZGluZycsICctaW1hZScsICc8aW5maWxlLm1hZT4nLCAnLW9tYWUnLCAnPG91dGZpbGUubWFlPic=

> <r_lp_tautomer_probability>
0.999994

> <r_epik_Ionization_Penalty>
1.2404

> <r_epik_Ionization_Penalty_Charging>
1.24038

> <r_epik_Ionization_Penalty_Neutral>
1.86539e-05

> <r_epik_State_Penalty>
1.30821

> <r_epik_Charging_Adjusted_Penalty>
2.54859

> <i_epik_Tot_Q>
2

> <i_epik_Tot_abs_Q>
2

> <r_epik_Metal_State_Penalty>
1.3782

> <b_epik_Metal_Only>
0

> <s_lp_Force_Field>
OPLS_2005

> <r_lp_Energy>
75.6224

> <b_lp_Chiralities_Consistent>
1

> <s_lp_Variant>
AV-unprocessed.smi:2928-5

> <Gold.Version>
5.8.1

> <Gold.Id.Protein>
6NUR|6NUR_protein|mol2

> <Gold.PLP.Fitness>
40.2275

> <Gold.PLP.PLP>
-34.8058

> <Gold.PLP.part.hbond>
-2.6353

> <Gold.PLP.part.metal>
0.0000

> <Gold.PLP.part.buried>
-3.6513

> <Gold.PLP.part.nonpolar>
-28.9666

> <Gold.PLP.part.repulsive>
0.3084

> <Gold.PLP.ligand.clash>
0.0000

> <Gold.PLP.ligand.torsion>
0.2645

> <Gold.PLP.Chemscore.Hbond>
1.9600

> <Gold.PLP.Chemscore.CHOScore>
0.0000

> <Gold.PLP.Chemscore.Metal>
0.0000

> <Gold.Chemscore.Hbonds>
donor molecule, donor type, donor heavy atom, donor atom, acceptor molecule, acceptor atom, score
      L1  H    10    40       P1  7948  0.96
      L1  H    13    41       P1  7948  1.00

> <Gold.PLP.Chemscore.Internal.Correction>
0.0707

> <Gold.Rescore>
     Score         DG    S(hbond)    S(metal)    S(lipo)     H(rot)  DE(clash)    DE(int)     intcor
     14.38     -15.90       1.37        0.00      76.01       1.19       0.06       1.46       ----

> <Gold.Chemscore.Fitness>
14.3838

> <Gold.Chemscore.DG>
-15.9018

> <Gold.Chemscore.ZeroCoef>
-5.4800

> <Gold.Chemscore.Hbond>
1.3682

> <Gold.Chemscore.Metal>
0.0000

> <Gold.Chemscore.Lipo>
76.0102

> <Gold.Chemscore.Internal_Hbond>
0.0000

> <Gold.Chemscore.DEClash>
0.0612

> <Gold.Chemscore.DEInternal>
1.4567

> <Gold.Chemscore.Rot>
1.1879

> <Gold.Chemscore.Internal.Correction>
   9.000000E+99

> <Gold.Chemscore.Hbonds>
donor molecule, donor type, donor heavy atom, donor atom, acceptor molecule, acceptor atom, score
      L1  H    10    40       P1  7948  0.45
      L1  H    13    41       P1  7948  0.24

> <Gold.Chemscore.Hbond.Weighted>
-4.5696

> <Gold.Chemscore.Metal.Weighted>
-0.0000

> <Gold.Chemscore.Lipo.Weighted>
-8.8932

> <Gold.Chemscore.Internal_Hbond.Weighted>
0.0000

> <Gold.Chemscore.DEClash.Weighted>
0.0612

> <Gold.Chemscore.DEInternal.Weighted>
1.4567

> <Gold.Chemscore.Rot.Weighted>
3.0410

> <Gold.Chemscore.Internal.Correction.Weighted>
   9.000000E+99

> <Gold.Protein.RotatedTorsions>
[ 6907 6896 6895 6894 ] final   13.06 input  -60.11 | X-H torsion
[ 7974 7965 7964 7962 ] final   23.54 input  175.53 | X-H torsion
[ 8008 7997 7996 7995 ] final  -78.97 input   59.86 | X-H torsion
[ 10167 10162 10161 10158 ] final   31.78 input  -65.29 | X-H torsion
[ 10718 10713 10712 10709 ] final  128.67 input   66.30 | X-H torsion
[ 10763 10752 10751 10750 ] final  -98.47 input  -60.55 | X-H torsion
[ 11005 11000 10999 10996 ] final -164.25 input  -57.11 | X-H torsion

> <Gold.Protein.ActiveResidues>
 VAL166  LYS551  ARG553  GLY616  TRP617  ASP618  TYR619  PRO620  LYS621  CYS622 
 ASP623  PHE694  ASN695  SER759  ASP760  ASP761  ALA762  ILE779  LEU786  VAL792 
 PHE793  MET794  SER795  GLU796  ALA797  LYS798  CYS799  TRP800  GLU811  SER814 

> <Gold.Protein.RotatedAtoms>
  151.7803  135.0763  160.0372 H   0  0  0  0  0  0  0  0  0  0  0  0  # atno 6907 bound_to 6896
  152.3227  133.5867  159.5764 H   0  0  0  0  0  0  0  0  0  0  0  0  # atno 6908 bound_to 6896
  150.7378  133.9902  159.3646 H   0  0  0  0  0  0  0  0  0  0  0  0  # atno 6909 bound_to 6896
  146.1979  139.7730  142.8783 H   0  0  0  0  0  0  0  0  0  0  0  0  # atno 7974 bound_to 7965
  154.5740  140.0686  156.9007 H   0  0  0  0  0  0  0  0  0  0  0  0  # atno 8008 bound_to 7997
  155.2582  140.3356  155.4257 H   0  0  0  0  0  0  0  0  0  0  0  0  # atno 8009 bound_to 7997
  156.2140  140.1771  156.7616 H   0  0  0  0  0  0  0  0  0  0  0  0  # atno 8010 bound_to 7997
  140.4558  144.0980  150.6201 H   0  0  0  0  0  0  0  0  0  0  0  0  # atno 10167 bound_to 10162
  157.5223  131.1098  150.9134 H   0  0  0  0  0  0  0  0  0  0  0  0  # atno 10718 bound_to 10713
  154.7417  135.5008  153.9134 H   0  0  0  0  0  0  0  0  0  0  0  0  # atno 10763 bound_to 10752
  153.1050  135.6695  153.9612 H   0  0  0  0  0  0  0  0  0  0  0  0  # atno 10764 bound_to 10752
  153.9387  135.3070  155.3422 H   0  0  0  0  0  0  0  0  0  0  0  0  # atno 10765 bound_to 10752
  140.5890  134.5064  157.5190 H   0  0  0  0  0  0  0  0  0  0  0  0  # atno 11005 bound_to 11000
  145.3581  141.0320  143.3300 LP  0  0  0  0  0  0  0  0  0  0  0  0  # atno 17320 bound_to 7965
  144.8620  139.5163  143.6808 LP  0  0  0  0  0  0  0  0  0  0  0  0  # atno 17321 bound_to 7965
  140.4153  143.2637  151.9783 LP  0  0  0  0  0  0  0  0  0  0  0  0  # atno 17342 bound_to 10162
  139.4801  144.5879  151.7821 LP  0  0  0  0  0  0  0  0  0  0  0  0  # atno 17343 bound_to 10162
  156.9741  130.5502  149.5292 LP  0  0  0  0  0  0  0  0  0  0  0  0  # atno 17370 bound_to 10713
  156.0362  130.5449  150.8660 LP  0  0  0  0  0  0  0  0  0  0  0  0  # atno 17371 bound_to 10713
  139.9283  134.8013  156.1005 LP  0  0  0  0  0  0  0  0  0  0  0  0  # atno 17394 bound_to 11000
  141.0947  133.6700  156.2619 LP  0  0  0  0  0  0  0  0  0  0  0  0  # atno 17395 bound_to 11000

$$$$
