AV-unprocessed.smi:3282|AV-procd|sdf|12567|dock3
  -GOLD-   2272018483D 1   1.00000     0.00000
 Structure written by MMmdl.
 33 34  0  0  0  0  0  0  0  0  2 V2000
  155.1418  140.7353  161.2370 C   0  0  0  0  0  0  0  0  0  0  0  0
  154.0414  140.9708  162.2844 C   0  0  0  0  0  0  0  0  0  0  0  0
  153.4599  142.3943  162.2624 C   0  0  0  0  0  0  0  0  0  0  0  0
  153.5442  143.1060  163.2646 O   0  0  0  0  0  0  0  0  0  0  0  0
  152.8670  142.8221  161.1283 N   0  0  0  0  0  0  0  0  0  0  0  0
  152.2552  144.1341  160.9279 C   0  0  0  0  0  0  0  0  0  0  0  0
  151.5370  144.0626  159.5801 C   0  0  0  0  0  0  0  0  0  0  0  0
  152.2493  142.9485  158.8179 C   0  0  2  0  0  0  0  0  0  0  0  0
  151.3495  142.2710  157.8891 N   0  0  0  0  0  0  0  0  0  0  0  0
  151.5193  141.0354  157.3972 C   0  0  0  0  0  0  0  0  0  0  0  0
  152.5094  140.3758  157.7220 O   0  0  0  0  0  0  0  0  0  0  0  0
  150.5308  140.6405  156.5634 N   0  5  0  0  0  0  0  0  0  0  0  0
  150.7316  139.6054  155.7318 C   0  0  0  0  0  0  0  0  0  0  0  0
  149.7871  138.8614  155.1537 N   0  0  0  0  0  0  0  0  0  0  0  0
  150.4605  137.9156  154.3960 C   0  0  0  0  0  0  0  0  0  0  0  0
  151.8025  138.1273  154.5563 C   0  0  0  0  0  0  0  0  0  0  0  0
  151.9862  139.1874  155.4003 O   0  0  0  0  0  0  0  0  0  0  0  0
  152.7620  142.0100  159.9188 C   0  0  0  0  0  0  0  0  0  0  0  0
  155.5199  139.7147  161.2994 H   0  0  0  0  0  0  0  0  0  0  0  0
  155.9862  141.4087  161.3886 H   0  0  0  0  0  0  0  0  0  0  0  0
  154.7674  140.8847  160.2234 H   0  0  0  0  0  0  0  0  0  0  0  0
  153.2326  140.2584  162.1186 H   0  0  0  0  0  0  0  0  0  0  0  0
  154.4471  140.7676  163.2761 H   0  0  0  0  0  0  0  0  0  0  0  0
  151.5590  144.3935  161.7264 H   0  0  0  0  0  0  0  0  0  0  0  0
  153.0396  144.8916  160.8986 H   0  0  0  0  0  0  0  0  0  0  0  0
  150.4926  143.7946  159.7486 H   0  0  0  0  0  0  0  0  0  0  0  0
  151.5511  145.0128  159.0455 H   0  0  0  0  0  0  0  0  0  0  0  0
  153.0973  143.3787  158.2817 H   0  0  0  0  0  0  0  0  0  0  0  0
  150.5269  142.7778  157.5968 H   0  0  0  0  0  0  0  0  0  0  0  0
  149.9373  137.1743  153.8108 H   0  0  0  0  0  0  0  0  0  0  0  0
  152.6913  137.6497  154.1725 H   0  0  0  0  0  0  0  0  0  0  0  0
  153.7189  141.5651  159.6411 H   0  0  0  0  0  0  0  0  0  0  0  0
  152.0569  141.1984  160.1074 H   0  0  0  0  0  0  0  0  0  0  0  0
  1  2  1  0  0  0  0
  1 19  1  0  0  0  0
  1 20  1  0  0  0  0
  1 21  1  0  0  0  0
  2  3  1  0  0  0  0
  2 22  1  0  0  0  0
  2 23  1  0  0  0  0
  3  4  2  0  0  0  0
  3  5  1  0  0  0  0
  5 18  1  0  0  0  0
  5  6  1  0  0  0  0
  6  7  1  0  0  0  0
  6 24  1  0  0  0  0
  6 25  1  0  0  0  0
  7  8  1  0  0  0  0
  7 26  1  0  0  0  0
  7 27  1  0  0  0  0
  8  9  1  0  0  0  0
  8 18  1  0  0  0  0
  8 28  1  0  0  0  0
  9 10  1  0  0  0  0
  9 29  1  0  0  0  0
 10 11  2  0  0  0  0
 10 12  1  0  0  0  0
 12 13  1  0  0  0  0
 13 17  1  0  0  0  0
 13 14  2  0  0  0  0
 14 15  1  0  0  0  0
 15 16  2  0  0  0  0
 15 30  1  0  0  0  0
 16 17  1  0  0  0  0
 16 31  1  0  0  0  0
 18 32  1  0  0  0  0
 18 33  1  0  0  0  0
M  CHG  1  12  -1
M  END
> <s_m_source_file>
AV-unprocessed.smi

> <i_m_source_file_index>
3282

> <i_lp_mmshare_version>
43012

> <i_f3d_flags>
0

> <s_epik_input>
W0NIM11bQ0gyXUMoPU8pTjFbQ0gyXVtDSDJdW0NASF0oW0NIMl0xKVtOSF1DKD1PKVtOSF1jMm5bY0hdW2NIXW8y

> <s_epik_cmdline>
J2VwaWtfcHl0aG9uJywgJy1waCcsICc3LjAnLCAnLXRuJywgJzgnLCAnLW1hJywgJzIwMCcsICctbWV0YWxfYmluZGluZycsICctaW1hZScsICc8aW5maWxlLm1hZT4nLCAnLW9tYWUnLCAnPG91dGZpbGUubWFlPic=

> <r_lp_tautomer_probability>
0.785861

> <r_epik_Ionization_Penalty>
9.30511

> <r_epik_Ionization_Penalty_Charging>
6.7516

> <r_epik_Ionization_Penalty_Neutral>
2.55351

> <r_epik_State_Penalty>
6.77285

> <r_epik_Charging_Adjusted_Penalty>
13.5244

> <i_epik_Tot_Q>
-1

> <i_epik_Tot_abs_Q>
1

> <r_epik_Metal_State_Penalty>
2.67327

> <b_epik_Metal_Only>
1

> <s_lp_Force_Field>
OPLS_2005

> <r_lp_Energy>
20.6417

> <b_lp_Chiralities_Consistent>
1

> <s_lp_Variant>
AV-unprocessed.smi:3282-8

> <Gold.Version>
5.8.1

> <Gold.Id.Protein>
6NUR|6NUR_protein|mol2

> <Gold.PLP.Fitness>
43.2891

> <Gold.PLP.PLP>
-38.2408

> <Gold.PLP.part.hbond>
-1.5686

> <Gold.PLP.part.metal>
0.0000

> <Gold.PLP.part.buried>
-2.9008

> <Gold.PLP.part.nonpolar>
-32.8519

> <Gold.PLP.part.repulsive>
0.2910

> <Gold.PLP.ligand.clash>
0.0158

> <Gold.PLP.ligand.torsion>
0.4451

> <Gold.PLP.Chemscore.Hbond>
0.8640

> <Gold.PLP.Chemscore.CHOScore>
1.1164

> <Gold.PLP.Chemscore.Metal>
0.0000

> <Gold.Chemscore.Hbonds>
donor molecule, donor type, donor heavy atom, donor atom, acceptor molecule, acceptor atom, score
      P1  H  7997  8009       L1    11  0.65
      L1  C    15    30       P1  7948  1.00

> <Gold.PLP.Chemscore.Internal.Correction>
0.0133

> <Gold.Rescore>
     Score         DG    S(hbond)    S(metal)    S(lipo)     H(rot)  DE(clash)    DE(int)     intcor
      9.71     -14.30       0.91        0.00      78.08       1.31       0.07       4.52       ----

> <Gold.Chemscore.Fitness>
9.7073

> <Gold.Chemscore.DG>
-14.2982

> <Gold.Chemscore.ZeroCoef>
-5.4800

> <Gold.Chemscore.Hbond>
0.9077

> <Gold.Chemscore.Metal>
0.0000

> <Gold.Chemscore.Lipo>
78.0797

> <Gold.Chemscore.Internal_Hbond>
0.0000

> <Gold.Chemscore.DEClash>
0.0717

> <Gold.Chemscore.DEInternal>
4.5192

> <Gold.Chemscore.Rot>
1.3082

> <Gold.Chemscore.Internal.Correction>
   9.000000E+99

> <Gold.Chemscore.Hbonds>
donor molecule, donor type, donor heavy atom, donor atom, acceptor molecule, acceptor atom, score
      P1  H  7997  8009       L1    11  0.62

> <Gold.Chemscore.Hbond.Weighted>
-3.0317

> <Gold.Chemscore.Metal.Weighted>
-0.0000

> <Gold.Chemscore.Lipo.Weighted>
-9.1353

> <Gold.Chemscore.Internal_Hbond.Weighted>
0.0000

> <Gold.Chemscore.DEClash.Weighted>
0.0717

> <Gold.Chemscore.DEInternal.Weighted>
4.5192

> <Gold.Chemscore.Rot.Weighted>
3.3489

> <Gold.Chemscore.Internal.Correction.Weighted>
   9.000000E+99

> <Gold.Protein.RotatedTorsions>
[ 6907 6896 6895 6894 ] final  -54.31 input  -60.11 | X-H torsion
[ 7974 7965 7964 7962 ] final  -67.39 input  175.53 | X-H torsion
[ 8008 7997 7996 7995 ] final  170.77 input   59.86 | X-H torsion
[ 10167 10162 10161 10158 ] final -149.03 input  -65.29 | X-H torsion
[ 10718 10713 10712 10709 ] final  135.81 input   66.30 | X-H torsion
[ 10763 10752 10751 10750 ] final -161.21 input  -60.55 | X-H torsion
[ 11005 11000 10999 10996 ] final  153.90 input  -57.11 | X-H torsion

> <Gold.Protein.ActiveResidues>
 VAL166  LYS551  ARG553  GLY616  TRP617  ASP618  TYR619  PRO620  LYS621  CYS622 
 ASP623  PHE694  ASN695  SER759  ASP760  ASP761  ALA762  ILE779  LEU786  VAL792 
 PHE793  MET794  SER795  GLU796  ALA797  LYS798  CYS799  TRP800  GLU811  SER814 

> <Gold.Protein.RotatedAtoms>
  150.8349  134.7618  159.6884 H   0  0  0  0  0  0  0  0  0  0  0  0  # atno 6907 bound_to 6896
  152.4447  134.5515  159.9878 H   0  0  0  0  0  0  0  0  0  0  0  0  # atno 6908 bound_to 6896
  151.5667  133.3358  159.3017 H   0  0  0  0  0  0  0  0  0  0  0  0  # atno 6909 bound_to 6896
  145.7298  140.9002  143.0586 H   0  0  0  0  0  0  0  0  0  0  0  0  # atno 7974 bound_to 7965
  156.1334  140.1529  156.9031 H   0  0  0  0  0  0  0  0  0  0  0  0  # atno 8008 bound_to 7997
  154.4927  140.0847  156.7669 H   0  0  0  0  0  0  0  0  0  0  0  0  # atno 8009 bound_to 7997
  155.4214  140.3423  155.4274 H   0  0  0  0  0  0  0  0  0  0  0  0  # atno 8010 bound_to 7997
  139.7478  143.8564  152.2579 H   0  0  0  0  0  0  0  0  0  0  0  0  # atno 10167 bound_to 10162
  157.4532  131.1067  151.0008 H   0  0  0  0  0  0  0  0  0  0  0  0  # atno 10718 bound_to 10713
  154.7323  135.3049  154.8870 H   0  0  0  0  0  0  0  0  0  0  0  0  # atno 10763 bound_to 10752
  153.9709  135.6742  153.4751 H   0  0  0  0  0  0  0  0  0  0  0  0  # atno 10764 bound_to 10752
  153.0930  135.4950  154.8648 H   0  0  0  0  0  0  0  0  0  0  0  0  # atno 10765 bound_to 10752
  140.1440  134.8720  157.2368 H   0  0  0  0  0  0  0  0  0  0  0  0  # atno 11005 bound_to 11000
  144.6896  139.9315  143.7472 LP  0  0  0  0  0  0  0  0  0  0  0  0  # atno 17320 bound_to 7965
  146.0548  139.3546  143.0617 LP  0  0  0  0  0  0  0  0  0  0  0  0  # atno 17321 bound_to 7965
  139.8533  144.7153  150.9187 LP  0  0  0  0  0  0  0  0  0  0  0  0  # atno 17342 bound_to 10162
  140.7794  143.3880  151.1359 LP  0  0  0  0  0  0  0  0  0  0  0  0  # atno 17343 bound_to 10162
  157.0831  130.5911  149.5424 LP  0  0  0  0  0  0  0  0  0  0  0  0  # atno 17370 bound_to 10713
  155.9996  130.5072  150.7613 LP  0  0  0  0  0  0  0  0  0  0  0  0  # atno 17371 bound_to 10713
  140.2687  134.3486  155.7381 LP  0  0  0  0  0  0  0  0  0  0  0  0  # atno 17394 bound_to 11000
  141.2190  133.7411  156.9190 LP  0  0  0  0  0  0  0  0  0  0  0  0  # atno 17395 bound_to 11000

$$$$
