AV-unprocessed.smi:84|AV-procd|sdf|808|dock9
  -GOLD-   2262017203D 1   1.00000     0.00000
 Structure written by MMmdl.
 51 55  0  0  0  0  0  0  0  0  1 V2000
  152.4251  124.5762  156.3815 O   0  0  0  0  0  0  0  0  0  0  0  0
  151.6769  125.3314  155.7654 C   0  0  0  0  0  0  0  0  0  0  0  0
  151.2706  126.7085  156.2641 C   0  0  0  0  0  0  0  0  0  0  0  0
  150.0656  127.0575  155.3688 C   0  0  1  0  0  0  0  0  0  0  0  0
  148.7121  126.7213  156.0225 C   0  0  0  0  0  0  0  0  0  0  0  0
  147.7244  127.6218  155.2826 C   0  0  0  0  0  0  0  0  0  0  0  0
  148.4895  128.8159  154.9575 N   0  0  0  0  0  0  0  0  0  0  0  0
  147.9797  129.8164  154.1937 C   0  0  0  0  0  0  0  0  0  0  0  0
  148.5121  131.0615  154.3148 N   0  0  0  0  0  0  0  0  0  0  0  0
  148.0393  132.0765  153.5868 C   0  0  0  0  0  0  0  0  0  0  0  0
  147.0589  132.0676  152.6833 N   0  0  0  0  0  0  0  0  0  0  0  0
  146.5289  130.8196  152.5405 C   0  0  0  0  0  0  0  0  0  0  0  0
  146.9214  129.6488  153.2518 C   0  0  0  0  0  0  0  0  0  0  0  0
  146.1463  128.5710  152.8361 N   0  0  0  0  0  0  0  0  0  0  0  0
  145.3368  129.0773  151.9472 C   0  0  0  0  0  0  0  0  0  0  0  0
  145.5179  130.4158  151.6862 N   0  0  0  0  0  0  0  0  0  0  0  0
  144.7491  131.2272  150.7888 C   0  0  0  0  0  0  0  0  0  0  0  0
  145.4184  132.2670  149.8865 C   0  0  0  0  0  0  0  0  0  0  0  0
  144.1610  133.1594  149.9967 C   0  0  0  0  0  0  0  0  0  0  0  0
  144.4287  134.6636  150.1695 C   0  0  0  0  0  0  0  0  0  0  0  0
  145.7818  134.9093  150.4957 O   0  0  0  0  0  0  0  0  0  0  0  0
  143.1091  132.9557  148.8875 C   0  0  0  0  0  0  0  0  0  0  0  0
  143.3756  133.7735  147.7663 O   0  0  0  0  0  0  0  0  0  0  0  0
  143.8915  132.3849  151.3054 C   0  0  0  0  0  0  0  0  0  0  0  0
  149.9201  128.5552  155.0415 C   0  0  0  0  0  0  0  0  0  0  0  0
  150.2957  126.1840  154.1122 C   0  0  0  0  0  0  0  0  0  0  0  0
  151.1116  125.0821  154.5855 N   0  0  0  0  0  0  0  0  0  0  0  0
  151.0305  126.7012  157.3278 H   0  0  0  0  0  0  0  0  0  0  0  0
  152.1012  127.3969  156.1029 H   0  0  0  0  0  0  0  0  0  0  0  0
  148.4465  125.6648  155.9658 H   0  0  0  0  0  0  0  0  0  0  0  0
  148.7236  127.0011  157.0769 H   0  0  0  0  0  0  0  0  0  0  0  0
  147.3807  127.1435  154.3644 H   0  0  0  0  0  0  0  0  0  0  0  0
  146.8544  127.8555  155.8974 H   0  0  0  0  0  0  0  0  0  0  0  0
  148.5156  133.0319  153.7509 H   0  0  0  0  0  0  0  0  0  0  0  0
  144.5858  128.4809  151.4495 H   0  0  0  0  0  0  0  0  0  0  0  0
  144.1473  130.5339  150.1987 H   0  0  0  0  0  0  0  0  0  0  0  0
  146.2993  132.7158  150.3497 H   0  0  0  0  0  0  0  0  0  0  0  0
  145.6478  131.9094  148.8822 H   0  0  0  0  0  0  0  0  0  0  0  0
  144.2063  135.2046  149.2490 H   0  0  0  0  0  0  0  0  0  0  0  0
  143.7926  135.0995  150.9401 H   0  0  0  0  0  0  0  0  0  0  0  0
  146.2903  134.8902  149.6994 H   0  0  0  0  0  0  0  0  0  0  0  0
  143.0906  131.9207  148.5460 H   0  0  0  0  0  0  0  0  0  0  0  0
  142.1028  133.1707  149.2473 H   0  0  0  0  0  0  0  0  0  0  0  0
  144.2943  133.9954  147.7690 H   0  0  0  0  0  0  0  0  0  0  0  0
  142.8459  132.1294  151.4802 H   0  0  0  0  0  0  0  0  0  0  0  0
  144.3272  132.8666  152.1833 H   0  0  0  0  0  0  0  0  0  0  0  0
  150.3304  129.1670  155.8454 H   0  0  0  0  0  0  0  0  0  0  0  0
  150.4416  128.8168  154.1203 H   0  0  0  0  0  0  0  0  0  0  0  0
  149.3697  125.8266  153.6602 H   0  0  0  0  0  0  0  0  0  0  0  0
  150.8573  126.7187  153.3451 H   0  0  0  0  0  0  0  0  0  0  0  0
  151.2387  124.2286  154.0609 H   0  0  0  0  0  0  0  0  0  0  0  0
  1  2  2  0  0  0  0
  2 27  1  0  0  0  0
  2  3  1  0  0  0  0
  3  4  1  0  0  0  0
  3 28  1  0  0  0  0
  3 29  1  0  0  0  0
  4 25  1  0  0  0  0
  4  5  1  0  0  0  0
  4 26  1  0  0  0  0
  5  6  1  0  0  0  0
  5 30  1  0  0  0  0
  5 31  1  0  0  0  0
  6  7  1  0  0  0  0
  6 32  1  0  0  0  0
  6 33  1  0  0  0  0
  7  8  1  0  0  0  0
  7 25  1  0  0  0  0
  8 13  1  0  0  0  0
  8  9  2  0  0  0  0
  9 10  1  0  0  0  0
 10 11  2  0  0  0  0
 10 34  1  0  0  0  0
 11 12  1  0  0  0  0
 12 16  1  0  0  0  0
 12 13  2  0  0  0  0
 13 14  1  0  0  0  0
 14 15  2  0  0  0  0
 15 16  1  0  0  0  0
 15 35  1  0  0  0  0
 16 17  1  0  0  0  0
 17 24  1  0  0  0  0
 17 18  1  0  0  0  0
 17 36  1  0  0  0  0
 18 19  1  0  0  0  0
 18 37  1  0  0  0  0
 18 38  1  0  0  0  0
 19 20  1  0  0  0  0
 19 22  1  0  0  0  0
 19 24  1  0  0  0  0
 20 21  1  0  0  0  0
 20 39  1  0  0  0  0
 20 40  1  0  0  0  0
 21 41  1  0  0  0  0
 22 23  1  0  0  0  0
 22 42  1  0  0  0  0
 22 43  1  0  0  0  0
 23 44  1  0  0  0  0
 24 45  1  0  0  0  0
 24 46  1  0  0  0  0
 25 47  1  0  0  0  0
 25 48  1  0  0  0  0
 26 27  1  0  0  0  0
 26 49  1  0  0  0  0
 26 50  1  0  0  0  0
 27 51  1  0  0  0  0
M  END
> <s_m_source_file>
AV-unprocessed.smi

> <i_m_source_file_index>
84

> <i_lp_mmshare_version>
43012

> <i_f3d_flags>
0

> <s_epik_input>
W0NIMl0xW05IXUMoPU8pW0NIMl1bQ0BdMTJbQ0gyXVtDSDJdTihbQ0gyXTIpYyhuW2NIXW4zKWMoYzM0KW5bY0hdbjRbQ0hdKFtDSDJdNSlbQ0gyXUM1KFtDSDJdW09IXSlbQ0gyXVtPSF0=

> <s_epik_cmdline>
J2VwaWtfcHl0aG9uJywgJy1waCcsICc3LjAnLCAnLXRuJywgJzgnLCAnLW1hJywgJzIwMCcsICctbWV0YWxfYmluZGluZycsICctaW1hZScsICc8aW5maWxlLm1hZT4nLCAnLW9tYWUnLCAnPG91dGZpbGUubWFlPic=

> <r_lp_tautomer_probability>
1

> <r_epik_Ionization_Penalty>
0.00201507

> <r_epik_Ionization_Penalty_Charging>
0

> <r_epik_Ionization_Penalty_Neutral>
0.00201507

> <r_epik_State_Penalty>
0.00133787

> <r_epik_Charging_Adjusted_Penalty>
0.00133787

> <i_epik_Tot_Q>
0

> <i_epik_Tot_abs_Q>
0

> <r_epik_Metal_State_Penalty>
-0

> <b_epik_Metal_Only>
0

> <s_lp_Force_Field>
OPLS_2005

> <r_lp_Energy>
65.4538

> <b_lp_Chiralities_Consistent>
1

> <s_lp_Variant>
AV-unprocessed.smi:84-1

> <Gold.Version>
5.8.1

> <Gold.Id.Protein>
6NUR|6NUR_protein|mol2

> <Gold.PLP.Fitness>
41.8252

> <Gold.PLP.PLP>
-36.4058

> <Gold.PLP.part.hbond>
-5.0000

> <Gold.PLP.part.metal>
0.0000

> <Gold.PLP.part.buried>
-1.3557

> <Gold.PLP.part.nonpolar>
-31.2738

> <Gold.PLP.part.repulsive>
0.2724

> <Gold.PLP.ligand.clash>
0.5134

> <Gold.PLP.ligand.torsion>
1.7164

> <Gold.PLP.Chemscore.Hbond>
2.9040

> <Gold.PLP.Chemscore.CHOScore>
0.0000

> <Gold.PLP.Chemscore.Metal>
0.0000

> <Gold.Chemscore.Hbonds>
donor molecule, donor type, donor heavy atom, donor atom, acceptor molecule, acceptor atom, score
      L1  H    21    41       P1  7921  0.82
      L1  H    23    44       P1  7921  1.00
      P1  H 10192 10197       L1    23  0.99

> <Gold.PLP.Chemscore.Internal.Correction>
0.6536

> <Gold.Rescore>
     Score         DG    S(hbond)    S(metal)    S(lipo)     H(rot)  DE(clash)    DE(int)     intcor
     11.68     -16.27       2.86        0.00      75.50       2.96       1.81       2.78       ----

> <Gold.Chemscore.Fitness>
11.6753

> <Gold.Chemscore.DG>
-16.2664

> <Gold.Chemscore.ZeroCoef>
-5.4800

> <Gold.Chemscore.Hbond>
2.8571

> <Gold.Chemscore.Metal>
0.0000

> <Gold.Chemscore.Lipo>
75.5037

> <Gold.Chemscore.Internal_Hbond>
0.0000

> <Gold.Chemscore.DEClash>
1.8077

> <Gold.Chemscore.DEInternal>
2.7833

> <Gold.Chemscore.Rot>
2.9649

> <Gold.Chemscore.Internal.Correction>
   9.000000E+99

> <Gold.Chemscore.Hbonds>
donor molecule, donor type, donor heavy atom, donor atom, acceptor molecule, acceptor atom, score
      L1  H    21    41       P1  7921  0.30
      L1  H    23    44       P1  7921  0.97
      P1  H 10192 10197       L1    23  0.88

> <Gold.Chemscore.Hbond.Weighted>
-9.5426

> <Gold.Chemscore.Metal.Weighted>
-0.0000

> <Gold.Chemscore.Lipo.Weighted>
-8.8339

> <Gold.Chemscore.Internal_Hbond.Weighted>
0.0000

> <Gold.Chemscore.DEClash.Weighted>
1.8077

> <Gold.Chemscore.DEInternal.Weighted>
2.7833

> <Gold.Chemscore.Rot.Weighted>
7.5902

> <Gold.Chemscore.Internal.Correction.Weighted>
   9.000000E+99

> <Gold.Protein.RotatedTorsions>
[ 6907 6896 6895 6894 ] final  -21.77 input  -60.11 | X-H torsion
[ 7974 7965 7964 7962 ] final  140.88 input  175.53 | X-H torsion
[ 8008 7997 7996 7995 ] final  -93.91 input   59.86 | X-H torsion
[ 10167 10162 10161 10158 ] final  -74.65 input  -65.29 | X-H torsion
[ 10718 10713 10712 10709 ] final  148.49 input   66.30 | X-H torsion
[ 10763 10752 10751 10750 ] final  -73.45 input  -60.55 | X-H torsion
[ 11005 11000 10999 10996 ] final -128.62 input  -57.11 | X-H torsion

> <Gold.Protein.ActiveResidues>
 VAL166  LYS551  ARG553  GLY616  TRP617  ASP618  TYR619  PRO620  LYS621  CYS622 
 ASP623  PHE694  ASN695  SER759  ASP760  ASP761  ALA762  ILE779  LEU786  VAL792 
 PHE793  MET794  SER795  GLU796  ALA797  LYS798  CYS799  TRP800  GLU811  SER814 

> <Gold.Protein.RotatedAtoms>
  151.2284  135.0545  159.8977 H   0  0  0  0  0  0  0  0  0  0  0  0  # atno 6907 bound_to 6896
  152.5407  134.0563  159.8143 H   0  0  0  0  0  0  0  0  0  0  0  0  # atno 6908 bound_to 6896
  151.0740  133.5395  159.2656 H   0  0  0  0  0  0  0  0  0  0  0  0  # atno 6909 bound_to 6896
  144.9147  139.5246  143.5692 H   0  0  0  0  0  0  0  0  0  0  0  0  # atno 7974 bound_to 7965
  154.7417  140.0494  157.0816 H   0  0  0  0  0  0  0  0  0  0  0  0  # atno 8008 bound_to 7997
  155.0170  140.3142  155.4788 H   0  0  0  0  0  0  0  0  0  0  0  0  # atno 8009 bound_to 7997
  156.2865  140.2174  156.5287 H   0  0  0  0  0  0  0  0  0  0  0  0  # atno 8010 bound_to 7997
  140.5009  143.2361  151.7754 H   0  0  0  0  0  0  0  0  0  0  0  0  # atno 10167 bound_to 10162
  157.3079  131.0882  151.1339 H   0  0  0  0  0  0  0  0  0  0  0  0  # atno 10718 bound_to 10713
  154.4596  135.5897  153.6246 H   0  0  0  0  0  0  0  0  0  0  0  0  # atno 10763 bound_to 10752
  152.9822  135.6040  154.3503 H   0  0  0  0  0  0  0  0  0  0  0  0  # atno 10764 bound_to 10752
  154.3373  135.2842  155.2420 H   0  0  0  0  0  0  0  0  0  0  0  0  # atno 10765 bound_to 10752
  140.9501  134.1077  157.4070 H   0  0  0  0  0  0  0  0  0  0  0  0  # atno 11005 bound_to 11000
  146.3176  139.7980  142.8971 LP  0  0  0  0  0  0  0  0  0  0  0  0  # atno 17320 bound_to 7965
  145.3396  141.0285  143.3400 LP  0  0  0  0  0  0  0  0  0  0  0  0  # atno 17321 bound_to 7965
  139.4872  144.4523  151.9639 LP  0  0  0  0  0  0  0  0  0  0  0  0  # atno 17342 bound_to 10162
  140.3612  144.2970  150.5933 LP  0  0  0  0  0  0  0  0  0  0  0  0  # atno 17343 bound_to 10162
  157.2673  130.6687  149.6002 LP  0  0  0  0  0  0  0  0  0  0  0  0  # atno 17370 bound_to 10713
  155.9675  130.4490  150.5641 LP  0  0  0  0  0  0  0  0  0  0  0  0  # atno 17371 bound_to 10713
  139.8845  135.0063  156.6372 LP  0  0  0  0  0  0  0  0  0  0  0  0  # atno 17394 bound_to 11000
  140.7614  133.8814  155.8421 LP  0  0  0  0  0  0  0  0  0  0  0  0  # atno 17395 bound_to 11000

$$$$
