AV-unprocessed.smi:115|AV-procd|sdf|1124|dock4
  -GOLD-   2262018253D 1   1.00000     0.00000
 Structure written by MMmdl.
 55 57  0  0  0  0  0  0  0  0  1 V2000
  154.8086  133.8118  163.4795 C   0  0  0  0  0  0  0  0  0  0  0  0
  154.6636  133.5385  162.0966 O   0  0  0  0  0  0  0  0  0  0  0  0
  155.8246  133.8685  161.3507 C   0  0  0  0  0  0  0  0  0  0  0  0
  156.0875  135.3837  161.4706 C   0  0  1  0  0  0  0  0  0  0  0  0
  157.4144  135.8374  160.8380 C   0  0  0  0  0  0  0  0  0  0  0  0
  154.9547  136.2134  161.0276 N   0  0  0  0  0  0  0  0  0  0  0  0
  154.1183  136.9130  161.8965 C   0  0  0  0  0  0  0  0  0  0  0  0
  154.2800  136.9074  163.3843 C   0  0  0  0  0  0  0  0  0  0  0  0
  153.1773  137.5541  161.1490 C   0  0  0  0  0  0  0  0  0  0  0  0
  153.4235  137.2796  159.7778 C   0  0  0  0  0  0  0  0  0  0  0  0
  152.6356  137.7351  158.6034 C   0  0  0  0  0  0  0  0  0  0  0  0
  153.0185  137.6047  157.4398 O   0  0  0  0  0  0  0  0  0  0  0  0
  151.2740  138.3815  158.9212 C   0  0  0  0  0  0  0  0  0  0  0  0
  151.1094  139.6944  158.3080 N   0  0  0  0  0  0  0  0  0  0  0  0
  150.1159  139.8335  157.3074 C   0  0  0  0  0  0  0  0  0  0  0  0
  149.3942  138.8951  156.9651 O   0  0  0  0  0  0  0  0  0  0  0  0
  150.0248  141.1685  156.7287 C   0  0  0  0  0  0  0  0  0  0  0  0
  149.1601  141.4005  155.7263 F   0  0  0  0  0  0  0  0  0  0  0  0
  150.8082  142.1754  157.1710 C   0  0  0  0  0  0  0  0  0  0  0  0
  151.7214  142.0324  158.2035 N   0  0  0  0  0  0  0  0  0  0  0  0
  152.6430  143.1649  158.6085 C   0  0  2  0  0  0  0  0  0  0  0  0
  152.6672  143.4452  160.1216 C   0  0  0  0  0  0  0  0  0  0  0  0
  151.8645  144.7275  160.2277 C   0  0  0  0  0  0  0  0  0  0  0  0
  152.1708  145.3948  158.8925 C   0  0  0  0  0  0  0  0  0  0  0  0
  152.1970  144.3199  157.9626 O   0  0  0  0  0  0  0  0  0  0  0  0
  151.9313  140.7527  158.7675 C   0  0  0  0  0  0  0  0  0  0  0  0
  152.7886  140.5743  159.6358 O   0  0  0  0  0  0  0  0  0  0  0  0
  154.5446  136.4820  159.7120 C   0  0  0  0  0  0  0  0  0  0  0  0
  155.2693  135.9400  158.5108 C   0  0  0  0  0  0  0  0  0  0  0  0
  153.8900  133.5475  164.0032 H   0  0  0  0  0  0  0  0  0  0  0  0
  155.0036  134.8707  163.6550 H   0  0  0  0  0  0  0  0  0  0  0  0
  155.6225  133.2290  163.9132 H   0  0  0  0  0  0  0  0  0  0  0  0
  156.6636  133.2801  161.7193 H   0  0  0  0  0  0  0  0  0  0  0  0
  155.6652  133.6008  160.3045 H   0  0  0  0  0  0  0  0  0  0  0  0
  156.2005  135.5469  162.5409 H   0  0  0  0  0  0  0  0  0  0  0  0
  158.2541  135.2867  161.2627 H   0  0  0  0  0  0  0  0  0  0  0  0
  157.5913  136.8964  161.0271 H   0  0  0  0  0  0  0  0  0  0  0  0
  157.4408  135.6881  159.7605 H   0  0  0  0  0  0  0  0  0  0  0  0
  153.5783  137.5976  163.8531 H   0  0  0  0  0  0  0  0  0  0  0  0
  155.2858  137.2155  163.6713 H   0  0  0  0  0  0  0  0  0  0  0  0
  154.0911  135.9152  163.7950 H   0  0  0  0  0  0  0  0  0  0  0  0
  152.3809  138.1602  161.5555 H   0  0  0  0  0  0  0  0  0  0  0  0
  150.4526  137.7439  158.5918 H   0  0  0  0  0  0  0  0  0  0  0  0
  151.1367  138.4943  159.9978 H   0  0  0  0  0  0  0  0  0  0  0  0
  150.7045  143.1289  156.6785 H   0  0  0  0  0  0  0  0  0  0  0  0
  153.6400  142.8885  158.2628 H   0  0  0  0  0  0  0  0  0  0  0  0
  152.2935  142.6165  160.7231 H   0  0  0  0  0  0  0  0  0  0  0  0
  153.7012  143.6320  160.4145 H   0  0  0  0  0  0  0  0  0  0  0  0
  150.7985  144.5127  160.3031 H   0  0  0  0  0  0  0  0  0  0  0  0
  152.1494  145.3392  161.0842 H   0  0  0  0  0  0  0  0  0  0  0  0
  151.4316  146.1470  158.6166 H   0  0  0  0  0  0  0  0  0  0  0  0
  153.1521  145.8712  158.9170 H   0  0  0  0  0  0  0  0  0  0  0  0
  155.1776  136.6046  157.6532 H   0  0  0  0  0  0  0  0  0  0  0  0
  154.8716  134.9661  158.2249 H   0  0  0  0  0  0  0  0  0  0  0  0
  156.3374  135.8393  158.6787 H   0  0  0  0  0  0  0  0  0  0  0  0
  1  2  1  0  0  0  0
  1 30  1  0  0  0  0
  1 31  1  0  0  0  0
  1 32  1  0  0  0  0
  2  3  1  0  0  0  0
  3  4  1  0  0  0  0
  3 33  1  0  0  0  0
  3 34  1  0  0  0  0
  4  5  1  0  0  0  0
  4  6  1  0  0  0  0
  4 35  1  0  0  0  0
  5 36  1  0  0  0  0
  5 37  1  0  0  0  0
  5 38  1  0  0  0  0
  6 28  1  0  0  0  0
  6  7  1  0  0  0  0
  7  8  1  0  0  0  0
  7  9  2  0  0  0  0
  8 39  1  0  0  0  0
  8 40  1  0  0  0  0
  8 41  1  0  0  0  0
  9 10  1  0  0  0  0
  9 42  1  0  0  0  0
 10 11  1  0  0  0  0
 10 28  2  0  0  0  0
 11 12  2  0  0  0  0
 11 13  1  0  0  0  0
 13 14  1  0  0  0  0
 13 43  1  0  0  0  0
 13 44  1  0  0  0  0
 14 26  1  0  0  0  0
 14 15  1  0  0  0  0
 15 16  2  0  0  0  0
 15 17  1  0  0  0  0
 17 18  1  0  0  0  0
 17 19  2  0  0  0  0
 19 20  1  0  0  0  0
 19 45  1  0  0  0  0
 20 21  1  0  0  0  0
 20 26  1  0  0  0  0
 21 25  1  0  0  0  0
 21 22  1  0  0  0  0
 21 46  1  0  0  0  0
 22 23  1  0  0  0  0
 22 47  1  0  0  0  0
 22 48  1  0  0  0  0
 23 24  1  0  0  0  0
 23 49  1  0  0  0  0
 23 50  1  0  0  0  0
 24 25  1  0  0  0  0
 24 51  1  0  0  0  0
 24 52  1  0  0  0  0
 26 27  2  0  0  0  0
 28 29  1  0  0  0  0
 29 53  1  0  0  0  0
 29 54  1  0  0  0  0
 29 55  1  0  0  0  0
M  END
> <s_m_source_file>
AV-unprocessed.smi

> <i_m_source_file_index>
115

> <i_lp_mmshare_version>
43012

> <i_f3d_flags>
0

> <s_epik_input>
W0NIM11PW0NIMl1bQ0BIXShbQ0gzXSluMWMoW0NIM10pW2NIXWMoYzFbQ0gzXSlDKD1PKVtDSDJdbjJjKD1PKWMoRilbY0hdbihjMj1PKVtDQEBIXTNbQ0gyXVtDSDJdW0NIMl1PMw==

> <s_epik_cmdline>
J2VwaWtfcHl0aG9uJywgJy1waCcsICc3LjAnLCAnLXRuJywgJzgnLCAnLW1hJywgJzIwMCcsICctbWV0YWxfYmluZGluZycsICctaW1hZScsICc8aW5maWxlLm1hZT4nLCAnLW9tYWUnLCAnPG91dGZpbGUubWFlPic=

> <r_lp_tautomer_probability>
1

> <r_epik_Ionization_Penalty>
5.02611e-09

> <r_epik_Ionization_Penalty_Charging>
5.01743e-09

> <r_epik_Ionization_Penalty_Neutral>
8.68114e-12

> <r_epik_State_Penalty>
-0

> <r_epik_Charging_Adjusted_Penalty>
5.01743e-09

> <i_epik_Tot_Q>
0

> <i_epik_Tot_abs_Q>
0

> <r_epik_Metal_State_Penalty>
-0

> <b_epik_Metal_Only>
0

> <s_epik_Chemistry_Notes>
This compound contains an acetal/aminal-like group ( X-CH(R)-Y where X, Y are N, S, or O) that may be acid/base labile, releasing an aldehyde.

> <s_lp_Force_Field>
OPLS_2005

> <r_lp_Energy>
46.8154

> <b_lp_Chiralities_Consistent>
1

> <s_lp_Variant>
AV-unprocessed.smi:115-2

> <Gold.Version>
5.8.1

> <Gold.Id.Protein>
6NUR|6NUR_protein|mol2

> <Gold.PLP.Fitness>
48.4380

> <Gold.PLP.PLP>
-46.5755

> <Gold.PLP.part.hbond>
0.0000

> <Gold.PLP.part.metal>
0.0000

> <Gold.PLP.part.buried>
-8.2671

> <Gold.PLP.part.nonpolar>
-38.6109

> <Gold.PLP.part.repulsive>
0.0695

> <Gold.PLP.ligand.clash>
0.0000

> <Gold.PLP.ligand.torsion>
0.4629

> <Gold.PLP.Chemscore.Hbond>
0.0000

> <Gold.PLP.Chemscore.CHOScore>
0.7914

> <Gold.PLP.Chemscore.Metal>
0.0000

> <Gold.Chemscore.Hbonds>
donor molecule, donor type, donor heavy atom, donor atom, acceptor molecule, acceptor atom, score
      L1  C    19    45       P1  8028  0.79

> <Gold.PLP.Chemscore.Internal.Correction>
0.4142

> <Gold.Rescore>
     Score         DG    S(hbond)    S(metal)    S(lipo)     H(rot)  DE(clash)    DE(int)     intcor
      9.15     -11.81       0.00        0.00     102.08       2.19       0.05       2.61       ----

> <Gold.Chemscore.Fitness>
9.1477

> <Gold.Chemscore.DG>
-11.8074

> <Gold.Chemscore.ZeroCoef>
-5.4800

> <Gold.Chemscore.Hbond>
0.0000

> <Gold.Chemscore.Metal>
0.0000

> <Gold.Chemscore.Lipo>
102.0806

> <Gold.Chemscore.Internal_Hbond>
0.0000

> <Gold.Chemscore.DEClash>
0.0476

> <Gold.Chemscore.DEInternal>
2.6121

> <Gold.Chemscore.Rot>
2.1938

> <Gold.Chemscore.Internal.Correction>
   9.000000E+99

> <Gold.Chemscore.Hbond.Weighted>
-0.0000

> <Gold.Chemscore.Metal.Weighted>
-0.0000

> <Gold.Chemscore.Lipo.Weighted>
-11.9434

> <Gold.Chemscore.Internal_Hbond.Weighted>
0.0000

> <Gold.Chemscore.DEClash.Weighted>
0.0476

> <Gold.Chemscore.DEInternal.Weighted>
2.6121

> <Gold.Chemscore.Rot.Weighted>
5.6160

> <Gold.Chemscore.Internal.Correction.Weighted>
   9.000000E+99

> <Gold.Protein.RotatedTorsions>
[ 6907 6896 6895 6894 ] final   86.19 input  -60.11 | X-H torsion
[ 7974 7965 7964 7962 ] final  -46.53 input  175.53 | X-H torsion
[ 8008 7997 7996 7995 ] final   18.73 input   59.86 | X-H torsion
[ 10167 10162 10161 10158 ] final -102.74 input  -65.29 | X-H torsion
[ 10718 10713 10712 10709 ] final  143.13 input   66.30 | X-H torsion
[ 10763 10752 10751 10750 ] final -111.73 input  -60.55 | X-H torsion
[ 11005 11000 10999 10996 ] final  -20.33 input  -57.11 | X-H torsion

> <Gold.Protein.ActiveResidues>
 VAL166  LYS551  ARG553  GLY616  TRP617  ASP618  TYR619  PRO620  LYS621  CYS622 
 ASP623  PHE694  ASN695  SER759  ASP760  ASP761  ALA762  ILE779  LEU786  VAL792 
 PHE793  MET794  SER795  GLU796  ALA797  LYS798  CYS799  TRP800  GLU811  SER814 

> <Gold.Protein.RotatedAtoms>
  152.5389  134.2470  159.8883 H   0  0  0  0  0  0  0  0  0  0  0  0  # atno 6907 bound_to 6896
  151.2435  133.4380  159.2616 H   0  0  0  0  0  0  0  0  0  0  0  0  # atno 6908 bound_to 6896
  151.0605  134.9747  159.8314 H   0  0  0  0  0  0  0  0  0  0  0  0  # atno 6909 bound_to 6896
  145.9710  140.7383  142.9410 H   0  0  0  0  0  0  0  0  0  0  0  0  # atno 7974 bound_to 7965
  154.9103  140.3013  155.5270 H   0  0  0  0  0  0  0  0  0  0  0  0  # atno 8008 bound_to 7997
  156.3015  140.2390  156.4076 H   0  0  0  0  0  0  0  0  0  0  0  0  # atno 8009 bound_to 7997
  154.8432  140.0413  157.1544 H   0  0  0  0  0  0  0  0  0  0  0  0  # atno 8010 bound_to 7997
  140.2274  143.3631  152.0917 H   0  0  0  0  0  0  0  0  0  0  0  0  # atno 10167 bound_to 10162
  157.3726  131.0981  151.0814 H   0  0  0  0  0  0  0  0  0  0  0  0  # atno 10718 bound_to 10713
  154.8315  135.4516  154.1085 H   0  0  0  0  0  0  0  0  0  0  0  0  # atno 10763 bound_to 10752
  153.2354  135.6910  153.7849 H   0  0  0  0  0  0  0  0  0  0  0  0  # atno 10764 bound_to 10752
  153.7217  135.3341  155.3244 H   0  0  0  0  0  0  0  0  0  0  0  0  # atno 10765 bound_to 10752
  140.8454  133.7896  155.9906 H   0  0  0  0  0  0  0  0  0  0  0  0  # atno 11005 bound_to 11000
  144.6837  140.2748  143.7300 LP  0  0  0  0  0  0  0  0  0  0  0  0  # atno 17320 bound_to 7965
  145.7906  139.1925  143.2105 LP  0  0  0  0  0  0  0  0  0  0  0  0  # atno 17321 bound_to 7965
  139.5122  144.6913  151.5752 LP  0  0  0  0  0  0  0  0  0  0  0  0  # atno 17342 bound_to 10162
  140.6210  143.9258  150.6526 LP  0  0  0  0  0  0  0  0  0  0  0  0  # atno 17343 bound_to 10162
  157.1913  130.6353  149.5705 LP  0  0  0  0  0  0  0  0  0  0  0  0  # atno 17370 bound_to 10713
  155.9758  130.4721  150.6488 LP  0  0  0  0  0  0  0  0  0  0  0  0  # atno 17371 bound_to 10713
  140.8849  134.2566  157.5125 LP  0  0  0  0  0  0  0  0  0  0  0  0  # atno 17394 bound_to 11000
  139.8703  134.9633  156.4458 LP  0  0  0  0  0  0  0  0  0  0  0  0  # atno 17395 bound_to 11000

$$$$
