AV-unprocessed.smi:2596|AV-procd|sdf|10169|dock5
  -GOLD-   2272014183D 1   1.00000     0.00000
 Structure written by MMmdl.
 32 33  0  0  0  0  0  0  0  0  1 V2000
  148.8954  140.1989  157.0152 O   0  0  0  0  0  0  0  0  0  0  0  0
  149.3077  141.2939  156.6342 C   0  0  0  0  0  0  0  0  0  0  0  0
  150.8007  141.4950  156.3550 C   0  0  0  0  0  0  0  0  0  0  0  0
  151.4945  142.0969  157.5052 N   0  0  0  0  0  0  0  0  0  0  0  0
  151.1534  143.4237  157.8366 C   0  0  0  0  0  0  0  0  0  0  0  0
  151.7184  144.0576  158.8754 C   0  0  0  0  0  0  0  0  0  0  0  0
  151.3734  145.3199  159.1769 F   0  0  0  0  0  0  0  0  0  0  0  0
  152.7001  143.3550  159.6654 C   0  0  0  0  0  0  0  0  0  0  0  0
  153.0313  142.0855  159.3565 C   0  0  0  0  0  0  0  0  0  0  0  0
  152.4169  141.3825  158.2233 C   0  0  0  0  0  0  0  0  0  0  0  0
  152.7134  140.2221  157.9386 O   0  0  0  0  0  0  0  0  0  0  0  0
  148.5183  142.3656  156.4612 N   0  0  0  0  0  0  0  0  0  0  0  0
  147.0929  142.4201  156.7601 C   0  0  0  0  0  0  0  0  0  0  0  0
  146.2752  142.4576  155.4721 C   0  0  0  0  0  0  0  0  0  0  0  0
  146.9815  142.5729  154.1118 C   0  0  0  0  0  0  0  0  0  0  0  0
  145.8012  143.4168  153.6238 C   0  0  0  0  0  0  0  0  0  0  0  0
  145.5094  143.7339  155.0932 C   0  0  0  0  0  0  0  0  0  0  0  0
  151.2540  140.5369  156.0932 H   0  0  0  0  0  0  0  0  0  0  0  0
  150.9125  142.1152  155.4642 H   0  0  0  0  0  0  0  0  0  0  0  0
  150.4070  143.8812  157.2033 H   0  0  0  0  0  0  0  0  0  0  0  0
  153.1696  143.8466  160.5049 H   0  0  0  0  0  0  0  0  0  0  0  0
  153.7676  141.5706  159.9560 H   0  0  0  0  0  0  0  0  0  0  0  0
  148.9469  143.2218  156.1405 H   0  0  0  0  0  0  0  0  0  0  0  0
  146.8370  141.5338  157.3409 H   0  0  0  0  0  0  0  0  0  0  0  0
  146.8596  143.2759  157.3958 H   0  0  0  0  0  0  0  0  0  0  0  0
  145.5819  141.6144  155.4330 H   0  0  0  0  0  0  0  0  0  0  0  0
  147.9118  143.1410  154.1635 H   0  0  0  0  0  0  0  0  0  0  0  0
  147.1185  141.6261  153.5883 H   0  0  0  0  0  0  0  0  0  0  0  0
  146.0754  144.2786  153.0149 H   0  0  0  0  0  0  0  0  0  0  0  0
  145.0181  142.8187  153.1551 H   0  0  0  0  0  0  0  0  0  0  0  0
  144.4526  143.7290  155.3615 H   0  0  0  0  0  0  0  0  0  0  0  0
  146.0063  144.6442  155.4329 H   0  0  0  0  0  0  0  0  0  0  0  0
  1  2  2  0  0  0  0
  2  3  1  0  0  0  0
  2 12  1  0  0  0  0
  3  4  1  0  0  0  0
  3 18  1  0  0  0  0
  3 19  1  0  0  0  0
  4 10  1  0  0  0  0
  4  5  1  0  0  0  0
  5  6  2  0  0  0  0
  5 20  1  0  0  0  0
  6  7  1  0  0  0  0
  6  8  1  0  0  0  0
  8  9  2  0  0  0  0
  8 21  1  0  0  0  0
  9 10  1  0  0  0  0
  9 22  1  0  0  0  0
 10 11  2  0  0  0  0
 12 13  1  0  0  0  0
 12 23  1  0  0  0  0
 13 14  1  0  0  0  0
 13 24  1  0  0  0  0
 13 25  1  0  0  0  0
 14 17  1  0  0  0  0
 14 15  1  0  0  0  0
 14 26  1  0  0  0  0
 15 16  1  0  0  0  0
 15 27  1  0  0  0  0
 15 28  1  0  0  0  0
 16 17  1  0  0  0  0
 16 29  1  0  0  0  0
 16 30  1  0  0  0  0
 17 31  1  0  0  0  0
 17 32  1  0  0  0  0
M  END
> <s_m_source_file>
AV-unprocessed.smi

> <i_m_source_file_index>
2596

> <i_lp_mmshare_version>
43012

> <i_f3d_flags>
0

> <s_epik_input>
W0NIMl0xW0NIMl1bQ0gyXVtDSF0xW0NIMl1bTkhdQyg9TylbQ0gyXW4yW2NIXWMoRilbY0hdW2NIXWMyPU8=

> <s_epik_cmdline>
J2VwaWtfcHl0aG9uJywgJy1waCcsICc3LjAnLCAnLXRuJywgJzgnLCAnLW1hJywgJzIwMCcsICctbWV0YWxfYmluZGluZycsICctaW1hZScsICc8aW5maWxlLm1hZT4nLCAnLW9tYWUnLCAnPG91dGZpbGUubWFlPic=

> <r_lp_tautomer_probability>
1

> <r_epik_Ionization_Penalty>
2.75493e-07

> <r_epik_Ionization_Penalty_Charging>
2.56191e-07

> <r_epik_Ionization_Penalty_Neutral>
1.93017e-08

> <r_epik_State_Penalty>
-0

> <r_epik_Charging_Adjusted_Penalty>
2.56191e-07

> <i_epik_Tot_Q>
0

> <i_epik_Tot_abs_Q>
0

> <r_epik_Metal_State_Penalty>
-0

> <b_epik_Metal_Only>
0

> <s_lp_Force_Field>
OPLS_2005

> <r_lp_Energy>
22.7993

> <b_lp_Chiralities_Consistent>
1

> <s_lp_Variant>
AV-unprocessed.smi:2596-1

> <Gold.Version>
5.8.1

> <Gold.Id.Protein>
6NUR|6NUR_protein|mol2

> <Gold.PLP.Fitness>
46.0254

> <Gold.PLP.PLP>
-39.2785

> <Gold.PLP.part.hbond>
-2.0000

> <Gold.PLP.part.metal>
0.0000

> <Gold.PLP.part.buried>
-4.8253

> <Gold.PLP.part.nonpolar>
-30.1355

> <Gold.PLP.part.repulsive>
0.0186

> <Gold.PLP.ligand.clash>
0.0000

> <Gold.PLP.ligand.torsion>
1.1592

> <Gold.PLP.Chemscore.Hbond>
2.0000

> <Gold.PLP.Chemscore.CHOScore>
1.0000

> <Gold.PLP.Chemscore.Metal>
0.0000

> <Gold.Chemscore.Hbonds>
donor molecule, donor type, donor heavy atom, donor atom, acceptor molecule, acceptor atom, score
      L1  H    12    23       P1  8028  1.00
      P1  H  7997  8010       L1    11  0.86
      L1  C     5    20       P1  8028  1.00

> <Gold.PLP.Chemscore.Internal.Correction>
0.0654

> <Gold.Rescore>
     Score         DG    S(hbond)    S(metal)    S(lipo)     H(rot)  DE(clash)    DE(int)     intcor
     15.01     -16.06       1.82        0.00      75.91       1.71       0.05       1.00       ----

> <Gold.Chemscore.Fitness>
15.0122

> <Gold.Chemscore.DG>
-16.0606

> <Gold.Chemscore.ZeroCoef>
-5.4800

> <Gold.Chemscore.Hbond>
1.8178

> <Gold.Chemscore.Metal>
0.0000

> <Gold.Chemscore.Lipo>
75.9081

> <Gold.Chemscore.Internal_Hbond>
0.0000

> <Gold.Chemscore.DEClash>
0.0464

> <Gold.Chemscore.DEInternal>
1.0020

> <Gold.Chemscore.Rot>
1.7078

> <Gold.Chemscore.Internal.Correction>
   9.000000E+99

> <Gold.Chemscore.Hbonds>
donor molecule, donor type, donor heavy atom, donor atom, acceptor molecule, acceptor atom, score
      L1  H    12    23       P1  8028  0.93
      P1  H  7997  8010       L1    11  0.69

> <Gold.Chemscore.Hbond.Weighted>
-6.0713

> <Gold.Chemscore.Metal.Weighted>
-0.0000

> <Gold.Chemscore.Lipo.Weighted>
-8.8812

> <Gold.Chemscore.Internal_Hbond.Weighted>
0.0000

> <Gold.Chemscore.DEClash.Weighted>
0.0464

> <Gold.Chemscore.DEInternal.Weighted>
1.0020

> <Gold.Chemscore.Rot.Weighted>
4.3719

> <Gold.Chemscore.Internal.Correction.Weighted>
   9.000000E+99

> <Gold.Protein.RotatedTorsions>
[ 6907 6896 6895 6894 ] final -112.03 input  -60.11 | X-H torsion
[ 7974 7965 7964 7962 ] final  -66.64 input  175.53 | X-H torsion
[ 8008 7997 7996 7995 ] final   39.33 input   59.86 | X-H torsion
[ 10167 10162 10161 10158 ] final  -14.47 input  -65.29 | X-H torsion
[ 10718 10713 10712 10709 ] final  -27.62 input   66.30 | X-H torsion
[ 10763 10752 10751 10750 ] final  150.52 input  -60.55 | X-H torsion
[ 11005 11000 10999 10996 ] final  139.64 input  -57.11 | X-H torsion

> <Gold.Protein.ActiveResidues>
 VAL166  LYS551  ARG553  GLY616  TRP617  ASP618  TYR619  PRO620  LYS621  CYS622 
 ASP623  PHE694  ASN695  SER759  ASP760  ASP761  ALA762  ILE779  LEU786  VAL792 
 PHE793  MET794  SER795  GLU796  ALA797  LYS798  CYS799  TRP800  GLU811  SER814 

> <Gold.Protein.RotatedAtoms>
  150.7730  133.9149  159.3380 H   0  0  0  0  0  0  0  0  0  0  0  0  # atno 6907 bound_to 6896
  151.7030  135.0924  160.0264 H   0  0  0  0  0  0  0  0  0  0  0  0  # atno 6908 bound_to 6896
  152.3756  133.6438  159.6156 H   0  0  0  0  0  0  0  0  0  0  0  0  # atno 6909 bound_to 6896
  145.7393  140.8961  143.0538 H   0  0  0  0  0  0  0  0  0  0  0  0  # atno 7974 bound_to 7965
  155.2348  140.3341  155.4299 H   0  0  0  0  0  0  0  0  0  0  0  0  # atno 8008 bound_to 7997
  156.2280  140.1838  156.7360 H   0  0  0  0  0  0  0  0  0  0  0  0  # atno 8009 bound_to 7997
  154.5931  140.0635  156.9251 H   0  0  0  0  0  0  0  0  0  0  0  0  # atno 8010 bound_to 7997
  140.7202  143.5318  150.9511 H   0  0  0  0  0  0  0  0  0  0  0  0  # atno 10167 bound_to 10162
  156.4358  130.4454  149.7086 H   0  0  0  0  0  0  0  0  0  0  0  0  # atno 10718 bound_to 10713
  154.0889  135.2854  155.3275 H   0  0  0  0  0  0  0  0  0  0  0  0  # atno 10763 bound_to 10752
  154.6633  135.5326  153.8049 H   0  0  0  0  0  0  0  0  0  0  0  0  # atno 10764 bound_to 10752
  153.0421  135.6539  154.1059 H   0  0  0  0  0  0  0  0  0  0  0  0  # atno 10765 bound_to 10752
  140.0269  134.9370  157.0586 H   0  0  0  0  0  0  0  0  0  0  0  0  # atno 11005 bound_to 11000
  144.6874  139.9438  143.7476 LP  0  0  0  0  0  0  0  0  0  0  0  0  # atno 17320 bound_to 7965
  146.0463  139.3469  143.0666 LP  0  0  0  0  0  0  0  0  0  0  0  0  # atno 17321 bound_to 7965
  139.9038  143.6803  152.3127 LP  0  0  0  0  0  0  0  0  0  0  0  0  # atno 17342 bound_to 10162
  139.7162  144.7611  151.1030 LP  0  0  0  0  0  0  0  0  0  0  0  0  # atno 17343 bound_to 10162
  156.3971  130.7656  151.2661 LP  0  0  0  0  0  0  0  0  0  0  0  0  # atno 17370 bound_to 10713
  157.7507  131.0251  150.3904 LP  0  0  0  0  0  0  0  0  0  0  0  0  # atno 17371 bound_to 10713
  140.4291  134.1800  155.7167 LP  0  0  0  0  0  0  0  0  0  0  0  0  # atno 17394 bound_to 11000
  141.1808  133.8418  157.1264 LP  0  0  0  0  0  0  0  0  0  0  0  0  # atno 17395 bound_to 11000

$$$$
