AV-unprocessed.smi:2724|AV-procd|sdf|10510|dock1
  -GOLD-   2272014553D 1   1.00000     0.00000
 Structure written by MMmdl.
 25 26  0  0  0  0  0  0  0  0  1 V2000
  150.9640  143.3412  157.2177 O   0  0  0  0  0  0  0  0  0  0  0  0
  151.7297  143.9387  158.2432 C   0  0  1  0  0  0  0  0  0  0  0  0
  151.1619  145.3012  158.6377 C   0  0  0  0  0  0  0  0  0  0  0  0
  151.7245  145.5475  160.0375 C   0  0  0  0  0  0  0  0  0  0  0  0
  151.8797  144.1597  160.6773 C   0  0  0  0  0  0  0  0  0  0  0  0
  151.6843  143.1276  159.5478 C   0  0  2  0  0  0  0  0  0  0  0  0
  152.6816  141.9772  159.5930 C   0  0  0  0  0  0  0  0  0  0  0  0
  153.6507  141.8782  160.6153 C   0  0  0  0  0  0  0  0  0  0  0  0
  154.5484  140.7937  160.6016 C   0  0  0  0  0  0  0  0  0  0  0  0
  154.4414  139.8484  159.5627 C   0  0  0  0  0  0  0  0  0  0  0  0
  153.5208  139.9308  158.5784 N   0  0  0  0  0  0  0  0  0  0  0  0
  152.6636  140.9739  158.5996 C   0  0  0  0  0  0  0  0  0  0  0  0
  150.3604  143.9858  156.8809 H   0  0  0  0  0  0  0  0  0  0  0  0
  152.7568  144.0730  157.9016 H   0  0  0  0  0  0  0  0  0  0  0  0
  151.4270  146.0892  157.9320 H   0  0  0  0  0  0  0  0  0  0  0  0
  150.0729  145.2536  158.6902 H   0  0  0  0  0  0  0  0  0  0  0  0
  152.7035  146.0220  159.9569 H   0  0  0  0  0  0  0  0  0  0  0  0
  151.0878  146.2085  160.6264 H   0  0  0  0  0  0  0  0  0  0  0  0
  152.8642  144.0847  161.1404 H   0  0  0  0  0  0  0  0  0  0  0  0
  151.1467  144.0003  161.4692 H   0  0  0  0  0  0  0  0  0  0  0  0
  150.6771  142.7207  159.6587 H   0  0  0  0  0  0  0  0  0  0  0  0
  153.7068  142.6192  161.3991 H   0  0  0  0  0  0  0  0  0  0  0  0
  155.3008  140.6883  161.3691 H   0  0  0  0  0  0  0  0  0  0  0  0
  155.1133  139.0040  159.5207 H   0  0  0  0  0  0  0  0  0  0  0  0
  151.9426  141.0073  157.7961 H   0  0  0  0  0  0  0  0  0  0  0  0
  1  2  1  0  0  0  0
  1 13  1  0  0  0  0
  2  6  1  0  0  0  0
  2  3  1  0  0  0  0
  2 14  1  0  0  0  0
  3  4  1  0  0  0  0
  3 15  1  0  0  0  0
  3 16  1  0  0  0  0
  4  5  1  0  0  0  0
  4 17  1  0  0  0  0
  4 18  1  0  0  0  0
  5  6  1  0  0  0  0
  5 19  1  0  0  0  0
  5 20  1  0  0  0  0
  6  7  1  0  0  0  0
  6 21  1  0  0  0  0
  7 12  1  0  0  0  0
  7  8  2  0  0  0  0
  8  9  1  0  0  0  0
  8 22  1  0  0  0  0
  9 10  2  0  0  0  0
  9 23  1  0  0  0  0
 10 11  1  0  0  0  0
 10 24  1  0  0  0  0
 11 12  2  0  0  0  0
 12 25  1  0  0  0  0
M  END
> <s_m_source_file>
AV-unprocessed.smi

> <i_m_source_file_index>
2724

> <i_lp_mmshare_version>
43012

> <i_f3d_flags>
0

> <s_epik_input>
W09IXVtDQEBIXTFbQ0gyXVtDSDJdW0NIMl1bQ0BIXTFjMltjSF1bY0hdW2NIXW5bY0hdMg==

> <s_epik_cmdline>
J2VwaWtfcHl0aG9uJywgJy1waCcsICc3LjAnLCAnLXRuJywgJzgnLCAnLW1hJywgJzIwMCcsICctbWV0YWxfYmluZGluZycsICctaW1hZScsICc8aW5maWxlLm1hZT4nLCAnLW9tYWUnLCAnPG91dGZpbGUubWFlPic=

> <r_epik_Ionization_Penalty>
0.0175299

> <r_epik_Ionization_Penalty_Charging>
0

> <r_epik_Ionization_Penalty_Neutral>
0.0175299

> <r_epik_State_Penalty>
0.0138989

> <r_epik_Charging_Adjusted_Penalty>
0.0138989

> <i_epik_Tot_Q>
0

> <i_epik_Tot_abs_Q>
0

> <r_epik_Metal_State_Penalty>
1.40631e-05

> <b_epik_Metal_Only>
0

> <s_lp_Force_Field>
OPLS_2005

> <r_lp_Energy>
19.4991

> <b_lp_Chiralities_Consistent>
1

> <s_lp_Variant>
AV-unprocessed.smi:2724-4

> <Gold.Version>
5.8.1

> <Gold.Id.Protein>
6NUR|6NUR_protein|mol2

> <Gold.PLP.Fitness>
40.1143

> <Gold.PLP.PLP>
-34.1360

> <Gold.PLP.part.hbond>
-2.0000

> <Gold.PLP.part.metal>
0.0000

> <Gold.PLP.part.buried>
-2.9977

> <Gold.PLP.part.nonpolar>
-28.4281

> <Gold.PLP.part.repulsive>
0.0000

> <Gold.PLP.ligand.clash>
0.0000

> <Gold.PLP.ligand.torsion>
0.0111

> <Gold.PLP.Chemscore.Hbond>
2.0000

> <Gold.PLP.Chemscore.CHOScore>
0.0000

> <Gold.PLP.Chemscore.Metal>
0.0000

> <Gold.Chemscore.Hbonds>
donor molecule, donor type, donor heavy atom, donor atom, acceptor molecule, acceptor atom, score
      L1  H     1    13       P1  8028  0.99
      P1  H  7997  8009       L1    11  1.00

> <Gold.PLP.Chemscore.Internal.Correction>
0.0005

> <Gold.Rescore>
     Score         DG    S(hbond)    S(metal)    S(lipo)     H(rot)  DE(clash)    DE(int)     intcor
     18.90     -19.06       1.62        0.00      98.62       1.32       0.02       0.14       ----

> <Gold.Chemscore.Fitness>
18.9005

> <Gold.Chemscore.DG>
-19.0648

> <Gold.Chemscore.ZeroCoef>
-5.4800

> <Gold.Chemscore.Hbond>
1.6239

> <Gold.Chemscore.Metal>
0.0000

> <Gold.Chemscore.Lipo>
98.6154

> <Gold.Chemscore.Internal_Hbond>
0.0000

> <Gold.Chemscore.DEClash>
0.0249

> <Gold.Chemscore.DEInternal>
0.1394

> <Gold.Chemscore.Rot>
1.3192

> <Gold.Chemscore.Internal.Correction>
   9.000000E+99

> <Gold.Chemscore.Hbonds>
donor molecule, donor type, donor heavy atom, donor atom, acceptor molecule, acceptor atom, score
      L1  H     1    13       P1  8028  0.92
      P1  H  7997  8009       L1    11  0.23

> <Gold.Chemscore.Hbond.Weighted>
-5.4239

> <Gold.Chemscore.Metal.Weighted>
-0.0000

> <Gold.Chemscore.Lipo.Weighted>
-11.5380

> <Gold.Chemscore.Internal_Hbond.Weighted>
0.0000

> <Gold.Chemscore.DEClash.Weighted>
0.0249

> <Gold.Chemscore.DEInternal.Weighted>
0.1394

> <Gold.Chemscore.Rot.Weighted>
3.3772

> <Gold.Chemscore.Internal.Correction.Weighted>
   9.000000E+99

> <Gold.Protein.RotatedTorsions>
[ 6907 6896 6895 6894 ] final   87.42 input  -60.11 | X-H torsion
[ 7974 7965 7964 7962 ] final   70.24 input  175.53 | X-H torsion
[ 8008 7997 7996 7995 ] final  154.29 input   59.86 | X-H torsion
[ 10167 10162 10161 10158 ] final  114.48 input  -65.29 | X-H torsion
[ 10718 10713 10712 10709 ] final   51.86 input   66.30 | X-H torsion
[ 10763 10752 10751 10750 ] final  151.85 input  -60.55 | X-H torsion
[ 11005 11000 10999 10996 ] final -120.53 input  -57.11 | X-H torsion

> <Gold.Protein.ActiveResidues>
 VAL166  LYS551  ARG553  GLY616  TRP617  ASP618  TYR619  PRO620  LYS621  CYS622 
 ASP623  PHE694  ASN695  SER759  ASP760  ASP761  ALA762  ILE779  LEU786  VAL792 
 PHE793  MET794  SER795  GLU796  ALA797  LYS798  CYS799  TRP800  GLU811  SER814 

> <Gold.Protein.RotatedAtoms>
  152.5411  134.2279  159.8813 H   0  0  0  0  0  0  0  0  0  0  0  0  # atno 6907 bound_to 6896
  151.2253  133.4473  159.2609 H   0  0  0  0  0  0  0  0  0  0  0  0  # atno 6908 bound_to 6896
  151.0767  134.9846  159.8391 H   0  0  0  0  0  0  0  0  0  0  0  0  # atno 6909 bound_to 6896
  145.7806  139.2886  143.1268 H   0  0  0  0  0  0  0  0  0  0  0  0  # atno 7974 bound_to 7965
  156.2538  140.1970  156.6624 H   0  0  0  0  0  0  0  0  0  0  0  0  # atno 8008 bound_to 7997
  154.6455  140.0578  156.9920 H   0  0  0  0  0  0  0  0  0  0  0  0  # atno 8009 bound_to 7997
  155.1498  140.3250  155.4436 H   0  0  0  0  0  0  0  0  0  0  0  0  # atno 8010 bound_to 7997
  139.6385  144.7122  151.2284 H   0  0  0  0  0  0  0  0  0  0  0  0  # atno 10167 bound_to 10162
  157.5020  130.8444  149.8328 H   0  0  0  0  0  0  0  0  0  0  0  0  # atno 10718 bound_to 10713
  154.1105  135.2839  155.3231 H   0  0  0  0  0  0  0  0  0  0  0  0  # atno 10763 bound_to 10752
  154.6493  135.5375  153.7885 H   0  0  0  0  0  0  0  0  0  0  0  0  # atno 10764 bound_to 10752
  153.0347  135.6506  154.1264 H   0  0  0  0  0  0  0  0  0  0  0  0  # atno 10765 bound_to 10752
  141.0137  134.0227  157.3379 H   0  0  0  0  0  0  0  0  0  0  0  0  # atno 11005 bound_to 11000
  146.0077  140.8463  142.9986 LP  0  0  0  0  0  0  0  0  0  0  0  0  # atno 17320 bound_to 7965
  144.6797  140.2445  143.7339 LP  0  0  0  0  0  0  0  0  0  0  0  0  # atno 17321 bound_to 7965
  140.7478  143.6353  150.8385 LP  0  0  0  0  0  0  0  0  0  0  0  0  # atno 17342 bound_to 10162
  139.9987  143.5768  152.2883 LP  0  0  0  0  0  0  0  0  0  0  0  0  # atno 17343 bound_to 10162
  156.0235  130.3787  150.1891 LP  0  0  0  0  0  0  0  0  0  0  0  0  # atno 17370 bound_to 10713
  157.0081  130.9942  151.3373 LP  0  0  0  0  0  0  0  0  0  0  0  0  # atno 17371 bound_to 10713
  139.9104  135.0189  156.7668 LP  0  0  0  0  0  0  0  0  0  0  0  0  # atno 17394 bound_to 11000
  140.6691  133.9576  155.7846 LP  0  0  0  0  0  0  0  0  0  0  0  0  # atno 17395 bound_to 11000

$$$$
