AV-unprocessed.smi:2182|AV-procd|sdf|8864|dock6
  -GOLD-   2272012 63D 1   1.00000     0.00000
 Structure written by MMmdl.
 41 43  0  0  0  0  0  0  0  0  1 V2000
  149.2614  141.6019  153.9361 N   0  0  0  0  0  0  0  0  0  0  0  0
  149.7845  141.4505  154.9574 C   0  0  0  0  0  0  0  0  0  0  0  0
  150.4561  141.2718  156.2021 C   0  0  0  0  0  0  0  0  0  0  0  0
  150.9812  142.3117  156.8823 C   0  0  0  0  0  0  0  0  0  0  0  0
  151.6251  142.1578  158.0907 N   0  0  0  0  0  0  0  0  0  0  0  0
  152.3118  143.2510  158.7187 C   0  0  0  0  0  0  0  0  0  0  0  0
  152.0338  143.5936  160.1693 C   0  0  0  0  0  0  0  0  0  0  0  0
  151.5356  144.5012  159.0715 C   0  0  0  0  0  0  0  0  0  0  0  0
  151.8277  140.8678  158.6276 C   0  0  0  0  0  0  0  0  0  0  0  0
  152.4862  140.7010  159.6575 O   0  0  0  0  0  0  0  0  0  0  0  0
  151.2619  139.7672  157.9394 N   0  0  0  0  0  0  0  0  0  0  0  0
  151.4535  138.4102  158.4977 C   0  0  0  0  0  0  0  0  0  0  0  0
  152.9114  138.0999  158.8715 C   0  0  0  0  0  0  0  0  0  0  0  0
  153.8271  138.2815  158.0678 O   0  0  0  0  0  0  0  0  0  0  0  0
  153.1084  137.6275  160.1113 N   0  0  0  0  0  0  0  0  0  0  0  0
  154.4071  137.2826  160.6793 C   0  0  0  0  0  0  0  0  0  0  0  0
  154.4488  137.4998  162.2022 C   0  0  1  0  0  0  0  0  0  0  0  0
  153.4182  136.6933  162.9921 C   0  0  0  0  0  0  0  0  0  0  0  0
  154.0625  136.6402  164.3584 C   0  0  0  0  0  0  0  0  0  0  0  0
  155.5397  136.4848  164.0049 C   0  0  0  0  0  0  0  0  0  0  0  0
  155.7091  137.0912  162.7254 O   0  0  0  0  0  0  0  0  0  0  0  0
  150.5608  139.9075  156.7143 C   0  0  0  0  0  0  0  0  0  0  0  0
  150.0929  138.9262  156.1344 O   0  0  0  0  0  0  0  0  0  0  0  0
  150.8901  143.3058  156.4684 H   0  0  0  0  0  0  0  0  0  0  0  0
  153.3357  143.4086  158.3839 H   0  0  0  0  0  0  0  0  0  0  0  0
  151.2896  143.0061  160.7036 H   0  0  0  0  0  0  0  0  0  0  0  0
  152.8712  143.9418  160.7703 H   0  0  0  0  0  0  0  0  0  0  0  0
  152.0391  145.4571  158.9422 H   0  0  0  0  0  0  0  0  0  0  0  0
  150.4641  144.5106  158.8812 H   0  0  0  0  0  0  0  0  0  0  0  0
  150.8296  138.2657  159.3814 H   0  0  0  0  0  0  0  0  0  0  0  0
  151.1060  137.6450  157.8019 H   0  0  0  0  0  0  0  0  0  0  0  0
  152.3030  137.5054  160.7077 H   0  0  0  0  0  0  0  0  0  0  0  0
  154.6106  136.2368  160.4476 H   0  0  0  0  0  0  0  0  0  0  0  0
  155.1932  137.8632  160.1936 H   0  0  0  0  0  0  0  0  0  0  0  0
  154.3277  138.5588  162.4356 H   0  0  0  0  0  0  0  0  0  0  0  0
  152.4311  137.1567  163.0021 H   0  0  0  0  0  0  0  0  0  0  0  0
  153.3213  135.6857  162.5851 H   0  0  0  0  0  0  0  0  0  0  0  0
  153.8989  137.5818  164.8846 H   0  0  0  0  0  0  0  0  0  0  0  0
  153.6851  135.8291  164.9817 H   0  0  0  0  0  0  0  0  0  0  0  0
  156.1923  136.9408  164.7497 H   0  0  0  0  0  0  0  0  0  0  0  0
  155.8043  135.4300  163.9240 H   0  0  0  0  0  0  0  0  0  0  0  0
  1  2  3  0  0  0  0
  2  3  1  0  0  0  0
  3 22  1  0  0  0  0
  3  4  2  0  0  0  0
  4  5  1  0  0  0  0
  4 24  1  0  0  0  0
  5  6  1  0  0  0  0
  5  9  1  0  0  0  0
  6  8  1  0  0  0  0
  6  7  1  0  0  0  0
  6 25  1  0  0  0  0
  7  8  1  0  0  0  0
  7 26  1  0  0  0  0
  7 27  1  0  0  0  0
  8 28  1  0  0  0  0
  8 29  1  0  0  0  0
  9 10  2  0  0  0  0
  9 11  1  0  0  0  0
 11 12  1  0  0  0  0
 11 22  1  0  0  0  0
 12 13  1  0  0  0  0
 12 30  1  0  0  0  0
 12 31  1  0  0  0  0
 13 14  2  0  0  0  0
 13 15  1  0  0  0  0
 15 16  1  0  0  0  0
 15 32  1  0  0  0  0
 16 17  1  0  0  0  0
 16 33  1  0  0  0  0
 16 34  1  0  0  0  0
 17 21  1  0  0  0  0
 17 18  1  0  0  0  0
 17 35  1  0  0  0  0
 18 19  1  0  0  0  0
 18 36  1  0  0  0  0
 18 37  1  0  0  0  0
 19 20  1  0  0  0  0
 19 38  1  0  0  0  0
 19 39  1  0  0  0  0
 20 21  1  0  0  0  0
 20 40  1  0  0  0  0
 20 41  1  0  0  0  0
 22 23  2  0  0  0  0
M  END
> <s_m_source_file>
AV-unprocessed.smi

> <i_m_source_file_index>
2182

> <i_lp_mmshare_version>
43012

> <i_f3d_flags>
0

> <s_epik_input>
TiNDYzFbY0hdbihbQ0hdMltDSDJdW0NIMl0yKWMoPU8pbihjMT1PKVtDSDJdQyg9TylbTkhdW0NIMl1bQ0BASF0zW0NIMl1bQ0gyXVtDSDJdTzM=

> <s_epik_cmdline>
J2VwaWtfcHl0aG9uJywgJy1waCcsICc3LjAnLCAnLXRuJywgJzgnLCAnLW1hJywgJzIwMCcsICctbWV0YWxfYmluZGluZycsICctaW1hZScsICc8aW5maWxlLm1hZT4nLCAnLW9tYWUnLCAnPG91dGZpbGUubWFlPic=

> <r_lp_tautomer_probability>
1

> <r_epik_Ionization_Penalty>
2.69429e-08

> <r_epik_Ionization_Penalty_Charging>
8.38654e-11

> <r_epik_Ionization_Penalty_Neutral>
2.6859e-08

> <r_epik_State_Penalty>
-0

> <r_epik_Charging_Adjusted_Penalty>
8.38654e-11

> <i_epik_Tot_Q>
0

> <i_epik_Tot_abs_Q>
0

> <r_epik_Metal_State_Penalty>
-0

> <b_epik_Metal_Only>
0

> <s_lp_Force_Field>
OPLS_2005

> <r_lp_Energy>
43.7942

> <b_lp_Chiralities_Consistent>
1

> <s_lp_Variant>
AV-unprocessed.smi:2182-2

> <Gold.Version>
5.8.1

> <Gold.Id.Protein>
6NUR|6NUR_protein|mol2

> <Gold.PLP.Fitness>
50.2227

> <Gold.PLP.PLP>
-42.8269

> <Gold.PLP.part.hbond>
-3.0000

> <Gold.PLP.part.metal>
0.0000

> <Gold.PLP.part.buried>
-4.9372

> <Gold.PLP.part.nonpolar>
-35.2406

> <Gold.PLP.part.repulsive>
0.2769

> <Gold.PLP.ligand.clash>
0.0000

> <Gold.PLP.ligand.torsion>
0.4648

> <Gold.PLP.Chemscore.Hbond>
1.7040

> <Gold.PLP.Chemscore.CHOScore>
0.9951

> <Gold.PLP.Chemscore.Metal>
0.0000

> <Gold.Chemscore.Hbonds>
donor molecule, donor type, donor heavy atom, donor atom, acceptor molecule, acceptor atom, score
      P1  H  7997  8009       L1    14  0.61
      P1  H  8011  8017       L1     1  0.66
      L1  C     4    24       P1  8028  0.90

> <Gold.PLP.Chemscore.Internal.Correction>
0.2282

> <Gold.Rescore>
     Score         DG    S(hbond)    S(metal)    S(lipo)     H(rot)  DE(clash)    DE(int)     intcor
     12.20     -15.38       1.60        0.00      84.22       2.08       0.00       3.17       ----

> <Gold.Chemscore.Fitness>
12.2049

> <Gold.Chemscore.DG>
-15.3751

> <Gold.Chemscore.ZeroCoef>
-5.4800

> <Gold.Chemscore.Hbond>
1.6049

> <Gold.Chemscore.Metal>
0.0000

> <Gold.Chemscore.Lipo>
84.2210

> <Gold.Chemscore.Internal_Hbond>
0.0000

> <Gold.Chemscore.DEClash>
0.0021

> <Gold.Chemscore.DEInternal>
3.1681

> <Gold.Chemscore.Rot>
2.0778

> <Gold.Chemscore.Internal.Correction>
   9.000000E+99

> <Gold.Chemscore.Hbonds>
donor molecule, donor type, donor heavy atom, donor atom, acceptor molecule, acceptor atom, score
      P1  H  7997  8009       L1    14  0.59
      P1  H  8011  8017       L1     1  0.66

> <Gold.Chemscore.Hbond.Weighted>
-5.3603

> <Gold.Chemscore.Metal.Weighted>
-0.0000

> <Gold.Chemscore.Lipo.Weighted>
-9.8539

> <Gold.Chemscore.Internal_Hbond.Weighted>
0.0000

> <Gold.Chemscore.DEClash.Weighted>
0.0021

> <Gold.Chemscore.DEInternal.Weighted>
3.1681

> <Gold.Chemscore.Rot.Weighted>
5.3191

> <Gold.Chemscore.Internal.Correction.Weighted>
   9.000000E+99

> <Gold.Protein.RotatedTorsions>
[ 6907 6896 6895 6894 ] final -112.30 input  -60.11 | X-H torsion
[ 7974 7965 7964 7962 ] final  -49.30 input  175.53 | X-H torsion
[ 8008 7997 7996 7995 ] final  131.64 input   59.86 | X-H torsion
[ 10167 10162 10161 10158 ] final  165.20 input  -65.29 | X-H torsion
[ 10718 10713 10712 10709 ] final  164.61 input   66.30 | X-H torsion
[ 10763 10752 10751 10750 ] final  -18.83 input  -60.55 | X-H torsion
[ 11005 11000 10999 10996 ] final  115.54 input  -57.11 | X-H torsion

> <Gold.Protein.ActiveResidues>
 VAL166  LYS551  ARG553  GLY616  TRP617  ASP618  TYR619  PRO620  LYS621  CYS622 
 ASP623  PHE694  ASN695  SER759  ASP760  ASP761  ALA762  ILE779  LEU786  VAL792 
 PHE793  MET794  SER795  GLU796  ALA797  LYS798  CYS799  TRP800  GLU811  SER814 

> <Gold.Protein.RotatedAtoms>
  150.7749  133.9109  159.3368 H   0  0  0  0  0  0  0  0  0  0  0  0  # atno 6907 bound_to 6896
  151.6986  135.0932  160.0256 H   0  0  0  0  0  0  0  0  0  0  0  0  # atno 6908 bound_to 6896
  152.3781  133.6471  159.6175 H   0  0  0  0  0  0  0  0  0  0  0  0  # atno 6909 bound_to 6896
  145.9421  140.7653  142.9547 H   0  0  0  0  0  0  0  0  0  0  0  0  # atno 7974 bound_to 7965
  156.2972  140.2566  156.2958 H   0  0  0  0  0  0  0  0  0  0  0  0  # atno 8008 bound_to 7997
  154.9465  140.0395  157.2142 H   0  0  0  0  0  0  0  0  0  0  0  0  # atno 8009 bound_to 7997
  154.8076  140.2839  155.5880 H   0  0  0  0  0  0  0  0  0  0  0  0  # atno 8010 bound_to 7997
  139.4902  144.4156  151.9248 H   0  0  0  0  0  0  0  0  0  0  0  0  # atno 10167 bound_to 10162
  157.0919  131.0420  151.2533 H   0  0  0  0  0  0  0  0  0  0  0  0  # atno 10718 bound_to 10713
  153.5953  135.7001  153.5406 H   0  0  0  0  0  0  0  0  0  0  0  0  # atno 10763 bound_to 10752
  153.3143  135.4092  155.1362 H   0  0  0  0  0  0  0  0  0  0  0  0  # atno 10764 bound_to 10752
  154.8593  135.3680  154.5487 H   0  0  0  0  0  0  0  0  0  0  0  0  # atno 10765 bound_to 10752
  139.9013  134.9585  156.7061 H   0  0  0  0  0  0  0  0  0  0  0  0  # atno 11005 bound_to 11000
  144.6781  140.2296  143.7357 LP  0  0  0  0  0  0  0  0  0  0  0  0  # atno 17320 bound_to 7965
  145.8286  139.2076  143.1896 LP  0  0  0  0  0  0  0  0  0  0  0  0  # atno 17321 bound_to 7965
  140.3599  144.2986  150.5935 LP  0  0  0  0  0  0  0  0  0  0  0  0  # atno 17342 bound_to 10162
  140.5412  143.2223  151.8081 LP  0  0  0  0  0  0  0  0  0  0  0  0  # atno 17343 bound_to 10162
  157.4714  130.7711  149.7327 LP  0  0  0  0  0  0  0  0  0  0  0  0  # atno 17370 bound_to 10713
  155.9896  130.3951  150.3067 LP  0  0  0  0  0  0  0  0  0  0  0  0  # atno 17371 bound_to 10713
  140.7112  133.9221  155.8086 LP  0  0  0  0  0  0  0  0  0  0  0  0  # atno 17394 bound_to 11000
  141.0298  134.0772  157.4027 LP  0  0  0  0  0  0  0  0  0  0  0  0  # atno 17395 bound_to 11000

$$$$
