AV-unprocessed.smi:496|AV-procd|sdf|2723|dock10
  -GOLD-   2262023173D 1   1.00000     0.00000
 Structure written by MMmdl.
 42 44  0  0  0  0  0  0  0  0  3 V2000
  155.2391  140.1415  161.1448 C   0  0  0  0  0  0  0  0  0  0  0  0
  154.0753  139.6987  160.4691 O   0  0  0  0  0  0  0  0  0  0  0  0
  153.7568  140.5122  159.3536 C   0  0  0  0  0  0  0  0  0  0  0  0
  152.3013  140.2509  158.9472 C   0  0  0  0  0  0  0  0  0  0  0  0
  151.6785  141.4487  158.3510 N   0  0  0  0  0  0  0  0  0  0  0  0
  151.0059  141.6350  157.1687 C   0  0  0  0  0  0  0  0  0  0  0  0
  150.6848  140.6211  156.1016 C   0  0  1  0  0  0  0  0  0  0  0  0
  149.5831  141.1591  155.1767 C   0  0  0  0  0  0  0  0  0  0  0  0
  151.8709  140.2921  155.3082 N   0  5  0  0  0  0  0  0  0  0  0  0
  152.4219  139.0484  155.2241 C   0  0  0  0  0  0  0  0  0  0  0  0
  153.6094  138.7162  155.1453 O   0  0  0  0  0  0  0  0  0  0  0  0
  151.3966  137.9782  155.2332 C   0  0  0  0  0  0  0  0  0  0  0  0
  150.1120  137.9854  154.7572 C   0  0  0  0  0  0  0  0  0  0  0  0
  149.5651  136.7006  155.0275 C   0  0  0  0  0  0  0  0  0  0  0  0
  150.5546  135.9946  155.6484 C   0  0  0  0  0  0  0  0  0  0  0  0
  151.6745  136.7551  155.7821 O   0  0  0  0  0  0  0  0  0  0  0  0
  150.6466  142.9506  157.1223 N   0  3  0  0  0  0  0  0  0  0  0  0
  151.1030  143.6159  158.2579 C   0  0  0  0  0  0  0  0  0  0  0  0
  150.9882  144.9489  158.6393 C   0  0  0  0  0  0  0  0  0  0  0  0
  151.5789  145.3076  159.8684 C   0  0  0  0  0  0  0  0  0  0  0  0
  152.2513  144.3575  160.6641 C   0  0  0  0  0  0  0  0  0  0  0  0
  152.3600  143.0086  160.2659 C   0  0  0  0  0  0  0  0  0  0  0  0
  151.7706  142.6604  159.0500 C   0  0  0  0  0  0  0  0  0  0  0  0
  155.4366  139.4937  161.9987 H   0  0  0  0  0  0  0  0  0  0  0  0
  155.1175  141.1600  161.5158 H   0  0  0  0  0  0  0  0  0  0  0  0
  156.1107  140.1090  160.4896 H   0  0  0  0  0  0  0  0  0  0  0  0
  153.8967  141.5639  159.6090 H   0  0  0  0  0  0  0  0  0  0  0  0
  154.4228  140.2841  158.5197 H   0  0  0  0  0  0  0  0  0  0  0  0
  152.2500  139.4367  158.2239 H   0  0  0  0  0  0  0  0  0  0  0  0
  151.7079  139.9257  159.8015 H   0  0  0  0  0  0  0  0  0  0  0  0
  150.2894  139.7412  156.6110 H   0  0  0  0  0  0  0  0  0  0  0  0
  148.6817  141.3970  155.7424 H   0  0  0  0  0  0  0  0  0  0  0  0
  149.3092  140.4237  154.4192 H   0  0  0  0  0  0  0  0  0  0  0  0
  149.9000  142.0667  154.6611 H   0  0  0  0  0  0  0  0  0  0  0  0
  149.6240  138.8184  154.2730 H   0  0  0  0  0  0  0  0  0  0  0  0
  148.5740  136.3395  154.7966 H   0  0  0  0  0  0  0  0  0  0  0  0
  150.6283  134.9917  156.0420 H   0  0  0  0  0  0  0  0  0  0  0  0
  150.4762  145.6772  158.0277 H   0  0  0  0  0  0  0  0  0  0  0  0
  151.5171  146.3319  160.2059 H   0  0  0  0  0  0  0  0  0  0  0  0
  152.6937  144.6692  161.5992 H   0  0  0  0  0  0  0  0  0  0  0  0
  152.8804  142.2911  160.8823 H   0  0  0  0  0  0  0  0  0  0  0  0
  150.1406  143.3536  156.3440 H   0  0  0  0  0  0  0  0  0  0  0  0
  1  2  1  0  0  0  0
  1 24  1  0  0  0  0
  1 25  1  0  0  0  0
  1 26  1  0  0  0  0
  2  3  1  0  0  0  0
  3  4  1  0  0  0  0
  3 27  1  0  0  0  0
  3 28  1  0  0  0  0
  4  5  1  0  0  0  0
  4 29  1  0  0  0  0
  4 30  1  0  0  0  0
  5 23  1  0  0  0  0
  5  6  1  0  0  0  0
  6  7  1  0  0  0  0
  6 17  2  0  0  0  0
  7  8  1  0  0  0  0
  7  9  1  0  0  0  0
  7 31  1  0  0  0  0
  8 32  1  0  0  0  0
  8 33  1  0  0  0  0
  8 34  1  0  0  0  0
  9 10  1  0  0  0  0
 10 11  2  0  0  0  0
 10 12  1  0  0  0  0
 12 16  1  0  0  0  0
 12 13  2  0  0  0  0
 13 14  1  0  0  0  0
 13 35  1  0  0  0  0
 14 15  2  0  0  0  0
 14 36  1  0  0  0  0
 15 16  1  0  0  0  0
 15 37  1  0  0  0  0
 17 18  1  0  0  0  0
 17 42  1  0  0  0  0
 18 23  2  0  0  0  0
 18 19  1  0  0  0  0
 19 20  2  0  0  0  0
 19 38  1  0  0  0  0
 20 21  1  0  0  0  0
 20 39  1  0  0  0  0
 21 22  2  0  0  0  0
 21 40  1  0  0  0  0
 22 23  1  0  0  0  0
 22 41  1  0  0  0  0
M  CHG  1   9  -1
M  CHG  1  17   1
M  END
> <s_m_source_file>
AV-unprocessed.smi

> <i_m_source_file_index>
496

> <i_lp_mmshare_version>
43012

> <i_f3d_flags>
0

> <s_epik_input>
W2NIXTFbY0hdW2NIXVtjSF1jKGMxMiluKFtDSDJdW0NIMl1PW0NIM10pYyhuMilbQ0BIXShbQ0gzXSlbTkhdQyg9TyljM1tjSF1bY0hdW2NIXW8z

> <s_epik_cmdline>
J2VwaWtfcHl0aG9uJywgJy1waCcsICc3LjAnLCAnLXRuJywgJzgnLCAnLW1hJywgJzIwMCcsICctbWV0YWxfYmluZGluZycsICctaW1hZScsICc8aW5maWxlLm1hZT4nLCAnLW9tYWUnLCAnPG91dGZpbGUubWFlPic=

> <r_epik_Ionization_Penalty>
6.2189

> <r_epik_Ionization_Penalty_Charging>
6.2189

> <r_epik_Ionization_Penalty_Neutral>
2.56052e-12

> <r_epik_State_Penalty>
7.14475

> <r_epik_Charging_Adjusted_Penalty>
13.3636

> <i_epik_Tot_Q>
0

> <i_epik_Tot_abs_Q>
2

> <r_epik_Metal_State_Penalty>
3.17915

> <b_epik_Metal_Only>
1

> <s_lp_Force_Field>
OPLS_2005

> <r_lp_Energy>
11.4028

> <b_lp_Chiralities_Consistent>
1

> <s_lp_Variant>
AV-unprocessed.smi:496-8

> <Gold.Version>
5.8.1

> <Gold.Id.Protein>
6NUR|6NUR_protein|mol2

> <Gold.PLP.Fitness>
61.4971

> <Gold.PLP.PLP>
-50.0340

> <Gold.PLP.part.hbond>
-4.0000

> <Gold.PLP.part.metal>
0.0000

> <Gold.PLP.part.buried>
-7.3073

> <Gold.PLP.part.nonpolar>
-39.4852

> <Gold.PLP.part.repulsive>
0.0757

> <Gold.PLP.ligand.clash>
0.0000

> <Gold.PLP.ligand.torsion>
1.3968

> <Gold.PLP.Chemscore.Hbond>
4.6960

> <Gold.PLP.Chemscore.CHOScore>
0.0000

> <Gold.PLP.Chemscore.Metal>
0.0000

> <Gold.Chemscore.Hbonds>
donor molecule, donor type, donor heavy atom, donor atom, acceptor molecule, acceptor atom, score
      L1  H    17    42       P1  8028  1.95
      P1  H  7989  7998       L1     9  0.78
      P1  H  7997  8010       L1    11  0.91
      P1  H 10752 10763       L1    16  0.96

> <Gold.PLP.Chemscore.Internal.Correction>
0.1686

> <Gold.Rescore>
     Score         DG    S(hbond)    S(metal)    S(lipo)     H(rot)  DE(clash)    DE(int)     intcor
     20.87     -22.93       2.45        0.00     119.43       1.83       0.16       1.90       ----

> <Gold.Chemscore.Fitness>
20.8719

> <Gold.Chemscore.DG>
-22.9292

> <Gold.Chemscore.ZeroCoef>
-5.4800

> <Gold.Chemscore.Hbond>
2.4468

> <Gold.Chemscore.Metal>
0.0000

> <Gold.Chemscore.Lipo>
119.4252

> <Gold.Chemscore.Internal_Hbond>
0.0000

> <Gold.Chemscore.DEClash>
0.1566

> <Gold.Chemscore.DEInternal>
1.9007

> <Gold.Chemscore.Rot>
1.8343

> <Gold.Chemscore.Internal.Correction>
   9.000000E+99

> <Gold.Chemscore.Hbonds>
donor molecule, donor type, donor heavy atom, donor atom, acceptor molecule, acceptor atom, score
      L1  H    17    42       P1  8028  0.91
      P1  H  7989  7998       L1     9  0.34
      P1  H  7997  8010       L1    11  0.35
      P1  H 10752 10763       L1    16  0.26

> <Gold.Chemscore.Hbond.Weighted>
-8.1722

> <Gold.Chemscore.Metal.Weighted>
-0.0000

> <Gold.Chemscore.Lipo.Weighted>
-13.9728

> <Gold.Chemscore.Internal_Hbond.Weighted>
0.0000

> <Gold.Chemscore.DEClash.Weighted>
0.1566

> <Gold.Chemscore.DEInternal.Weighted>
1.9007

> <Gold.Chemscore.Rot.Weighted>
4.6958

> <Gold.Chemscore.Internal.Correction.Weighted>
   9.000000E+99

> <Gold.Protein.RotatedTorsions>
[ 6907 6896 6895 6894 ] final  147.97 input  -60.11 | X-H torsion
[ 7974 7965 7964 7962 ] final   -5.85 input  175.53 | X-H torsion
[ 8008 7997 7996 7995 ] final  104.91 input   59.86 | X-H torsion
[ 10167 10162 10161 10158 ] final   44.18 input  -65.29 | X-H torsion
[ 10718 10713 10712 10709 ] final  -87.15 input   66.30 | X-H torsion
[ 10763 10752 10751 10750 ] final   82.95 input  -60.55 | X-H torsion
[ 11005 11000 10999 10996 ] final  -51.94 input  -57.11 | X-H torsion

> <Gold.Protein.ActiveResidues>
 VAL166  LYS551  ARG553  GLY616  TRP617  ASP618  TYR619  PRO620  LYS621  CYS622 
 ASP623  PHE694  ASN695  SER759  ASP760  ASP761  ALA762  ILE779  LEU786  VAL792 
 PHE793  MET794  SER795  GLU796  ALA797  LYS798  CYS799  TRP800  GLU811  SER814 

> <Gold.Protein.RotatedAtoms>
  152.1477  133.4502  159.4797 H   0  0  0  0  0  0  0  0  0  0  0  0  # atno 6907 bound_to 6896
  150.6892  134.2228  159.4412 H   0  0  0  0  0  0  0  0  0  0  0  0  # atno 6908 bound_to 6896
  152.0123  134.9869  160.0619 H   0  0  0  0  0  0  0  0  0  0  0  0  # atno 6909 bound_to 6896
  146.2344  140.2082  142.8335 H   0  0  0  0  0  0  0  0  0  0  0  0  # atno 7974 bound_to 7965
  156.1613  140.3139  155.8813 H   0  0  0  0  0  0  0  0  0  0  0  0  # atno 8008 bound_to 7997
  155.3775  140.0485  157.3061 H   0  0  0  0  0  0  0  0  0  0  0  0  # atno 8009 bound_to 7997
  154.5150  140.2178  155.9095 H   0  0  0  0  0  0  0  0  0  0  0  0  # atno 8010 bound_to 7997
  140.3369  144.2519  150.6160 H   0  0  0  0  0  0  0  0  0  0  0  0  # atno 10167 bound_to 10162
  155.9986  130.4790  150.4823 H   0  0  0  0  0  0  0  0  0  0  0  0  # atno 10718 bound_to 10713
  153.1248  135.4709  154.9254 H   0  0  0  0  0  0  0  0  0  0  0  0  # atno 10763 bound_to 10752
  154.7609  135.3131  154.8382 H   0  0  0  0  0  0  0  0  0  0  0  0  # atno 10764 bound_to 10752
  153.8938  135.6882  153.4813 H   0  0  0  0  0  0  0  0  0  0  0  0  # atno 10765 bound_to 10752
  141.0898  133.6635  156.3952 H   0  0  0  0  0  0  0  0  0  0  0  0  # atno 11005 bound_to 11000
  144.9728  140.8385  143.5445 LP  0  0  0  0  0  0  0  0  0  0  0  0  # atno 17320 bound_to 7965
  145.2066  139.2225  143.5165 LP  0  0  0  0  0  0  0  0  0  0  0  0  # atno 17321 bound_to 7965
  140.5345  143.2236  151.8185 LP  0  0  0  0  0  0  0  0  0  0  0  0  # atno 17342 bound_to 10162
  139.4847  144.4678  151.9462 LP  0  0  0  0  0  0  0  0  0  0  0  0  # atno 17343 bound_to 10162
  157.2827  131.0610  151.2187 LP  0  0  0  0  0  0  0  0  0  0  0  0  # atno 17370 bound_to 10713
  157.3228  130.6945  149.6279 LP  0  0  0  0  0  0  0  0  0  0  0  0  # atno 17371 bound_to 10713
  140.5278  134.6242  157.5340 LP  0  0  0  0  0  0  0  0  0  0  0  0  # atno 17394 bound_to 11000
  139.9722  134.7274  156.0019 LP  0  0  0  0  0  0  0  0  0  0  0  0  # atno 17395 bound_to 11000

$$$$
