AV-unprocessed.smi:685|AV-procd|sdf|3336|dock7
  -GOLD-   22720 0303D 1   1.00000     0.00000
 Structure written by MMmdl.
 51 52  0  0  0  0  0  0  0  0  2 V2000
  147.4773  141.4796  154.0282 C   0  0  0  0  0  0  0  0  0  0  0  0
  148.7782  141.2036  154.7049 C   0  0  0  0  0  0  0  0  0  0  0  0
  149.4552  142.1052  155.4653 N   0  3  0  0  0  0  0  0  0  0  0  0
  150.5848  141.5578  155.9370 N   0  0  0  0  0  0  0  0  0  0  0  0
  151.4627  142.3629  156.7865 C   0  0  0  0  0  0  0  0  0  0  0  0
  150.7036  140.2717  155.5004 C   0  0  0  0  0  0  0  0  0  0  0  0
  151.8435  139.3643  155.8318 C   0  0  0  0  0  0  0  0  0  0  0  0
  149.5609  140.0434  154.7229 C   0  0  0  0  0  0  0  0  0  0  0  0
  149.2132  138.7622  154.0186 C   0  0  0  0  0  0  0  0  0  0  0  0
  148.1593  137.9232  154.7738 C   0  0  1  0  0  0  0  0  0  0  0  0
  146.8457  138.6866  155.0039 C   0  0  0  0  0  0  0  0  0  0  0  0
  147.8732  136.6914  154.0435 N   0  0  0  0  0  0  0  0  0  0  0  0
  147.1214  135.6783  154.5027 C   0  0  0  0  0  0  0  0  0  0  0  0
  146.5930  135.6834  155.6151 O   0  0  0  0  0  0  0  0  0  0  0  0
  146.9383  134.4855  153.5597 C   0  0  0  0  0  0  0  0  0  0  0  0
  145.6186  134.5457  152.7669 C   0  0  0  0  0  0  0  0  0  0  0  0
  145.3730  133.2951  151.9041 C   0  0  0  0  0  0  0  0  0  0  0  0
  146.4009  133.1179  150.7845 C   0  0  0  0  0  0  0  0  0  0  0  0
  145.7435  132.1509  149.7950 C   0  0  0  0  0  0  0  0  0  0  0  0
  144.2277  132.2945  149.9994 C   0  0  0  0  0  0  0  0  0  0  0  0
  144.0390  133.2902  151.1504 C   0  0  0  0  0  0  0  0  0  0  0  0
  146.7872  140.6495  154.1799 H   0  0  0  0  0  0  0  0  0  0  0  0
  147.6314  141.6110  152.9571 H   0  0  0  0  0  0  0  0  0  0  0  0
  147.0205  142.3856  154.4273 H   0  0  0  0  0  0  0  0  0  0  0  0
  151.8713  141.7346  157.5786 H   0  0  0  0  0  0  0  0  0  0  0  0
  150.9010  143.1840  157.2342 H   0  0  0  0  0  0  0  0  0  0  0  0
  152.2763  142.7617  156.1802 H   0  0  0  0  0  0  0  0  0  0  0  0
  151.9802  138.6166  155.0510 H   0  0  0  0  0  0  0  0  0  0  0  0
  151.6522  138.8524  156.7747 H   0  0  0  0  0  0  0  0  0  0  0  0
  152.7704  139.9308  155.9235 H   0  0  0  0  0  0  0  0  0  0  0  0
  148.8633  138.9638  153.0056 H   0  0  0  0  0  0  0  0  0  0  0  0
  150.1241  138.1763  153.8910 H   0  0  0  0  0  0  0  0  0  0  0  0
  148.5575  137.6495  155.7523 H   0  0  0  0  0  0  0  0  0  0  0  0
  147.0062  139.5850  155.6002 H   0  0  0  0  0  0  0  0  0  0  0  0
  146.1223  138.0692  155.5375 H   0  0  0  0  0  0  0  0  0  0  0  0
  146.3911  138.9895  154.0601 H   0  0  0  0  0  0  0  0  0  0  0  0
  148.2676  136.6062  153.1177 H   0  0  0  0  0  0  0  0  0  0  0  0
  147.7842  134.4632  152.8719 H   0  0  0  0  0  0  0  0  0  0  0  0
  146.9807  133.5612  154.1371 H   0  0  0  0  0  0  0  0  0  0  0  0
  144.7814  134.6912  153.4514 H   0  0  0  0  0  0  0  0  0  0  0  0
  145.6301  135.4181  152.1116 H   0  0  0  0  0  0  0  0  0  0  0  0
  145.4137  132.4096  152.5408 H   0  0  0  0  0  0  0  0  0  0  0  0
  146.5821  134.0739  150.2908 H   0  0  0  0  0  0  0  0  0  0  0  0
  147.3593  132.7497  151.1519 H   0  0  0  0  0  0  0  0  0  0  0  0
  146.0411  132.3642  148.7679 H   0  0  0  0  0  0  0  0  0  0  0  0
  146.0481  131.1274  150.0168 H   0  0  0  0  0  0  0  0  0  0  0  0
  143.7277  132.6404  149.0942 H   0  0  0  0  0  0  0  0  0  0  0  0
  143.7965  131.3270  150.2596 H   0  0  0  0  0  0  0  0  0  0  0  0
  143.1977  133.0239  151.7911 H   0  0  0  0  0  0  0  0  0  0  0  0
  143.8399  134.2818  150.7411 H   0  0  0  0  0  0  0  0  0  0  0  0
  149.2033  143.0600  155.6878 H   0  0  0  0  0  0  0  0  0  0  0  0
  1  2  1  0  0  0  0
  1 22  1  0  0  0  0
  1 23  1  0  0  0  0
  1 24  1  0  0  0  0
  2  8  1  0  0  0  0
  2  3  2  0  0  0  0
  3  4  1  0  0  0  0
  3 51  1  0  0  0  0
  4  5  1  0  0  0  0
  4  6  1  0  0  0  0
  5 25  1  0  0  0  0
  5 26  1  0  0  0  0
  5 27  1  0  0  0  0
  6  7  1  0  0  0  0
  6  8  2  0  0  0  0
  7 28  1  0  0  0  0
  7 29  1  0  0  0  0
  7 30  1  0  0  0  0
  8  9  1  0  0  0  0
  9 10  1  0  0  0  0
  9 31  1  0  0  0  0
  9 32  1  0  0  0  0
 10 11  1  0  0  0  0
 10 12  1  0  0  0  0
 10 33  1  0  0  0  0
 11 34  1  0  0  0  0
 11 35  1  0  0  0  0
 11 36  1  0  0  0  0
 12 13  1  0  0  0  0
 12 37  1  0  0  0  0
 13 14  2  0  0  0  0
 13 15  1  0  0  0  0
 15 16  1  0  0  0  0
 15 38  1  0  0  0  0
 15 39  1  0  0  0  0
 16 17  1  0  0  0  0
 16 40  1  0  0  0  0
 16 41  1  0  0  0  0
 17 21  1  0  0  0  0
 17 18  1  0  0  0  0
 17 42  1  0  0  0  0
 18 19  1  0  0  0  0
 18 43  1  0  0  0  0
 18 44  1  0  0  0  0
 19 20  1  0  0  0  0
 19 45  1  0  0  0  0
 19 46  1  0  0  0  0
 20 21  1  0  0  0  0
 20 47  1  0  0  0  0
 20 48  1  0  0  0  0
 21 49  1  0  0  0  0
 21 50  1  0  0  0  0
M  CHG  1   3   1
M  END
> <s_m_source_file>
AV-unprocessed.smi

> <i_m_source_file_index>
685

> <i_lp_mmshare_version>
43012

> <i_f3d_flags>
0

> <s_epik_input>
W0NIM11jMW5uKFtDSDNdKWMoW0NIM10pYzFbQ0gyXVtDQEhdKFtDSDNdKVtOSF1DKD1PKVtDSDJdW0NIMl1bQ0hdMltDSDJdW0NIMl1bQ0gyXVtDSDJdMg==

> <s_epik_cmdline>
J2VwaWtfcHl0aG9uJywgJy1waCcsICc3LjAnLCAnLXRuJywgJzgnLCAnLW1hJywgJzIwMCcsICctbWV0YWxfYmluZGluZycsICctaW1hZScsICc8aW5maWxlLm1hZT4nLCAnLW9tYWUnLCAnPG91dGZpbGUubWFlPic=

> <r_lp_tautomer_probability>
1

> <r_epik_Ionization_Penalty>
2.26429

> <r_epik_Ionization_Penalty_Charging>
2.26429

> <r_epik_Ionization_Penalty_Neutral>
2.3289e-07

> <r_epik_State_Penalty>
2.41237

> <r_epik_Charging_Adjusted_Penalty>
4.67666

> <i_epik_Tot_Q>
1

> <i_epik_Tot_abs_Q>
1

> <r_epik_Metal_State_Penalty>
2.42525

> <b_epik_Metal_Only>
0

> <s_lp_Force_Field>
OPLS_2005

> <r_lp_Energy>
28.4866

> <b_lp_Chiralities_Consistent>
1

> <s_lp_Variant>
AV-unprocessed.smi:685-4

> <Gold.Version>
5.8.1

> <Gold.Id.Protein>
6NUR|6NUR_protein|mol2

> <Gold.PLP.Fitness>
47.8826

> <Gold.PLP.PLP>
-40.0891

> <Gold.PLP.part.hbond>
-1.9911

> <Gold.PLP.part.metal>
0.0000

> <Gold.PLP.part.buried>
-5.2029

> <Gold.PLP.part.nonpolar>
-33.8705

> <Gold.PLP.part.repulsive>
0.2035

> <Gold.PLP.ligand.clash>
0.0000

> <Gold.PLP.ligand.torsion>
0.6349

> <Gold.PLP.Chemscore.Hbond>
2.9913

> <Gold.PLP.Chemscore.CHOScore>
0.0000

> <Gold.PLP.Chemscore.Metal>
0.0000

> <Gold.Chemscore.Hbonds>
donor molecule, donor type, donor heavy atom, donor atom, acceptor molecule, acceptor atom, score
      L1  H     3    51       P1  8028  2.00
      L1  H    12    37       P1  7948  0.88

> <Gold.PLP.Chemscore.Internal.Correction>
0.0896

> <Gold.Rescore>
     Score         DG    S(hbond)    S(metal)    S(lipo)     H(rot)  DE(clash)    DE(int)     intcor
     18.83     -19.56       2.00        0.00      98.52       1.61       0.01       0.71       ----

> <Gold.Chemscore.Fitness>
18.8342

> <Gold.Chemscore.DG>
-19.5551

> <Gold.Chemscore.ZeroCoef>
-5.4800

> <Gold.Chemscore.Hbond>
1.9964

> <Gold.Chemscore.Metal>
0.0000

> <Gold.Chemscore.Lipo>
98.5236

> <Gold.Chemscore.Internal_Hbond>
0.0000

> <Gold.Chemscore.DEClash>
0.0124

> <Gold.Chemscore.DEInternal>
0.7085

> <Gold.Chemscore.Rot>
1.6095

> <Gold.Chemscore.Internal.Correction>
   9.000000E+99

> <Gold.Chemscore.Hbonds>
donor molecule, donor type, donor heavy atom, donor atom, acceptor molecule, acceptor atom, score
      L1  H     3    51       P1  8028  1.00
      L1  H    12    37       P1  7948  0.84

> <Gold.Chemscore.Hbond.Weighted>
-6.6681

> <Gold.Chemscore.Metal.Weighted>
-0.0000

> <Gold.Chemscore.Lipo.Weighted>
-11.5273

> <Gold.Chemscore.Internal_Hbond.Weighted>
0.0000

> <Gold.Chemscore.DEClash.Weighted>
0.0124

> <Gold.Chemscore.DEInternal.Weighted>
0.7085

> <Gold.Chemscore.Rot.Weighted>
4.1202

> <Gold.Chemscore.Internal.Correction.Weighted>
   9.000000E+99

> <Gold.Protein.RotatedTorsions>
[ 6907 6896 6895 6894 ] final  -42.42 input  -60.11 | X-H torsion
[ 7974 7965 7964 7962 ] final -168.66 input  175.53 | X-H torsion
[ 8008 7997 7996 7995 ] final   45.46 input   59.86 | X-H torsion
[ 10167 10162 10161 10158 ] final   36.08 input  -65.29 | X-H torsion
[ 10718 10713 10712 10709 ] final  111.32 input   66.30 | X-H torsion
[ 10763 10752 10751 10750 ] final    9.81 input  -60.55 | X-H torsion
[ 11005 11000 10999 10996 ] final   -7.24 input  -57.11 | X-H torsion

> <Gold.Protein.ActiveResidues>
 VAL166  LYS551  ARG553  GLY616  TRP617  ASP618  TYR619  PRO620  LYS621  CYS622 
 ASP623  PHE694  ASN695  SER759  ASP760  ASP761  ALA762  ILE779  LEU786  VAL792 
 PHE793  MET794  SER795  GLU796  ALA797  LYS798  CYS799  TRP800  GLU811  SER814 

> <Gold.Protein.RotatedAtoms>
  150.9554  134.8949  159.7697 H   0  0  0  0  0  0  0  0  0  0  0  0  # atno 6907 bound_to 6896
  152.5136  134.3747  159.9340 H   0  0  0  0  0  0  0  0  0  0  0  0  # atno 6908 bound_to 6896
  151.3762  133.3797  159.2740 H   0  0  0  0  0  0  0  0  0  0  0  0  # atno 6909 bound_to 6896
  144.7199  140.2337  143.6300 H   0  0  0  0  0  0  0  0  0  0  0  0  # atno 7974 bound_to 7965
  155.3362  140.3405  155.4239 H   0  0  0  0  0  0  0  0  0  0  0  0  # atno 8008 bound_to 7997
  156.1836  140.1673  156.8263 H   0  0  0  0  0  0  0  0  0  0  0  0  # atno 8009 bound_to 7997
  154.5361  140.0734  156.8413 H   0  0  0  0  0  0  0  0  0  0  0  0  # atno 8010 bound_to 7997
  140.4161  144.1525  150.6143 H   0  0  0  0  0  0  0  0  0  0  0  0  # atno 10167 bound_to 10162
  157.6450  131.0948  150.6732 H   0  0  0  0  0  0  0  0  0  0  0  0  # atno 10718 bound_to 10713
  153.2099  135.6867  153.8126 H   0  0  0  0  0  0  0  0  0  0  0  0  # atno 10763 bound_to 10752
  153.7362  135.3245  155.3296 H   0  0  0  0  0  0  0  0  0  0  0  0  # atno 10764 bound_to 10752
  154.8217  135.4647  154.0903 H   0  0  0  0  0  0  0  0  0  0  0  0  # atno 10765 bound_to 10752
  140.7106  133.8912  155.8748 H   0  0  0  0  0  0  0  0  0  0  0  0  # atno 11005 bound_to 11000
  145.8386  139.2119  143.1841 LP  0  0  0  0  0  0  0  0  0  0  0  0  # atno 17320 bound_to 7965
  146.0367  140.8205  142.9849 LP  0  0  0  0  0  0  0  0  0  0  0  0  # atno 17321 bound_to 7965
  140.4585  143.2458  151.9252 LP  0  0  0  0  0  0  0  0  0  0  0  0  # atno 17342 bound_to 10162
  139.4782  144.5492  151.8412 LP  0  0  0  0  0  0  0  0  0  0  0  0  # atno 17343 bound_to 10162
  156.7050  130.4635  149.5562 LP  0  0  0  0  0  0  0  0  0  0  0  0  # atno 17370 bound_to 10713
  156.1769  130.6473  151.0905 LP  0  0  0  0  0  0  0  0  0  0  0  0  # atno 17371 bound_to 10713
  141.0088  134.1050  157.4243 LP  0  0  0  0  0  0  0  0  0  0  0  0  # atno 17394 bound_to 11000
  139.8873  135.0088  156.6550 LP  0  0  0  0  0  0  0  0  0  0  0  0  # atno 17395 bound_to 11000

$$$$
