AV-unprocessed.smi:798|AV-procd|sdf|3782|dock2
  -GOLD-   22720 1213D 1   1.00000     0.00000
 Structure written by MMmdl.
 33 35  0  0  0  0  0  0  0  0  2 V2000
  150.9220  140.5253  156.7607 O   0  0  0  0  0  0  0  0  0  0  0  0
  150.5224  141.5436  156.1918 C   0  0  0  0  0  0  0  0  0  0  0  0
  150.1501  141.6444  154.8954 N   0  5  0  0  0  0  0  0  0  0  0  0
  149.1263  140.9104  154.4293 C   0  0  0  0  0  0  0  0  0  0  0  0
  149.1590  139.5684  154.4019 N   0  0  0  0  0  0  0  0  0  0  0  0
  148.0060  139.0048  153.8720 N   0  0  0  0  0  0  0  0  0  0  0  0
  147.1318  139.9413  153.5047 C   0  0  0  0  0  0  0  0  0  0  0  0
  147.6379  141.5961  153.7710 S   0  0  0  0  0  0  0  0  0  0  0  0
  150.4209  142.6944  156.8714 N   0  0  0  0  0  0  0  0  0  0  0  0
  150.7360  142.8882  158.2854 C   0  0  1  0  0  0  0  0  0  0  0  0
  152.2629  142.8240  158.5096 C   0  0  2  0  0  0  0  0  0  0  0  0
  152.5375  142.6357  160.0127 C   0  0  0  0  0  0  0  0  0  0  0  0
  152.1892  144.0199  160.5909 C   0  0  0  0  0  0  0  0  0  0  0  0
  151.7390  144.8124  159.3446 C   0  0  1  0  0  0  0  0  0  0  0  0
  152.7002  144.2701  158.2947 C   0  0  0  0  0  0  0  0  0  0  0  0
  150.3811  144.3106  158.7920 C   0  0  2  0  0  0  0  0  0  0  0  0
  149.1926  144.3504  159.7725 C   0  0  0  0  0  0  0  0  0  0  0  0
  148.6398  145.6485  159.8293 O   0  0  0  0  0  0  0  0  0  0  0  0
  146.1851  139.6563  153.0713 H   0  0  0  0  0  0  0  0  0  0  0  0
  150.0903  143.5023  156.3645 H   0  0  0  0  0  0  0  0  0  0  0  0
  150.2400  142.1112  158.8703 H   0  0  0  0  0  0  0  0  0  0  0  0
  152.7726  142.0887  157.8857 H   0  0  0  0  0  0  0  0  0  0  0  0
  151.9377  141.8369  160.4505 H   0  0  0  0  0  0  0  0  0  0  0  0
  153.5876  142.4000  160.1901 H   0  0  0  0  0  0  0  0  0  0  0  0
  151.4335  143.9748  161.3738 H   0  0  0  0  0  0  0  0  0  0  0  0
  153.0770  144.4774  161.0292 H   0  0  0  0  0  0  0  0  0  0  0  0
  151.7803  145.8939  159.4780 H   0  0  0  0  0  0  0  0  0  0  0  0
  153.7505  144.4452  158.5340 H   0  0  0  0  0  0  0  0  0  0  0  0
  152.4985  144.6398  157.2877 H   0  0  0  0  0  0  0  0  0  0  0  0
  150.1223  144.9411  157.9386 H   0  0  0  0  0  0  0  0  0  0  0  0
  148.4145  143.6633  159.4399 H   0  0  0  0  0  0  0  0  0  0  0  0
  149.4790  144.0312  160.7739 H   0  0  0  0  0  0  0  0  0  0  0  0
  148.3897  145.9056  158.9551 H   0  0  0  0  0  0  0  0  0  0  0  0
  1  2  2  0  0  0  0
  2  3  1  0  0  0  0
  2  9  1  0  0  0  0
  3  4  1  0  0  0  0
  4  8  1  0  0  0  0
  4  5  2  0  0  0  0
  5  6  1  0  0  0  0
  6  7  2  0  0  0  0
  7  8  1  0  0  0  0
  7 19  1  0  0  0  0
  9 10  1  0  0  0  0
  9 20  1  0  0  0  0
 10 16  1  0  0  0  0
 10 11  1  0  0  0  0
 10 21  1  0  0  0  0
 11 15  1  0  0  0  0
 11 12  1  0  0  0  0
 11 22  1  0  0  0  0
 12 13  1  0  0  0  0
 12 23  1  0  0  0  0
 12 24  1  0  0  0  0
 13 14  1  0  0  0  0
 13 25  1  0  0  0  0
 13 26  1  0  0  0  0
 14 15  1  0  0  0  0
 14 16  1  0  0  0  0
 14 27  1  0  0  0  0
 15 28  1  0  0  0  0
 15 29  1  0  0  0  0
 16 17  1  0  0  0  0
 16 30  1  0  0  0  0
 17 18  1  0  0  0  0
 17 31  1  0  0  0  0
 17 32  1  0  0  0  0
 18 33  1  0  0  0  0
M  CHG  1   3  -1
M  END
> <s_m_source_file>
AV-unprocessed.smi

> <i_m_source_file_index>
798

> <i_lp_mmshare_version>
43012

> <i_f3d_flags>
0

> <s_epik_input>
W0NIMl0xW0NIMl1bQ0BASF0oW0NIMl0yKVtDQEBIXShbQ0gyXVtPSF0pW0NAQEhdKFtDQEhdMTIpW05IXUMoPU8pW05IXWMzbm5bY0hdczM=

> <s_epik_cmdline>
J2VwaWtfcHl0aG9uJywgJy1waCcsICc3LjAnLCAnLXRuJywgJzgnLCAnLW1hJywgJzIwMCcsICctbWV0YWxfYmluZGluZycsICctaW1hZScsICc8aW5maWxlLm1hZT4nLCAnLW9tYWUnLCAnPG91dGZpbGUubWFlPic=

> <r_lp_tautomer_probability>
1

> <r_epik_Ionization_Penalty>
4.53732

> <r_epik_Ionization_Penalty_Charging>
4.48632

> <r_epik_Ionization_Penalty_Neutral>
0.0510007

> <r_epik_State_Penalty>
4.48602

> <r_epik_Charging_Adjusted_Penalty>
8.97234

> <i_epik_Tot_Q>
-1

> <i_epik_Tot_abs_Q>
1

> <r_epik_Metal_State_Penalty>
0.812492

> <b_epik_Metal_Only>
1

> <s_lp_Force_Field>
OPLS_2005

> <r_lp_Energy>
47.3152

> <b_lp_Chiralities_Consistent>
1

> <s_lp_Variant>
AV-unprocessed.smi:798-14

> <Gold.Version>
5.8.1

> <Gold.Id.Protein>
6NUR|6NUR_protein|mol2

> <Gold.PLP.Fitness>
46.7366

> <Gold.PLP.PLP>
-40.1586

> <Gold.PLP.part.hbond>
-4.2873

> <Gold.PLP.part.metal>
0.0000

> <Gold.PLP.part.buried>
-4.2238

> <Gold.PLP.part.nonpolar>
-32.7511

> <Gold.PLP.part.repulsive>
0.5077

> <Gold.PLP.ligand.clash>
0.0000

> <Gold.PLP.ligand.torsion>
1.4377

> <Gold.PLP.Chemscore.Hbond>
2.1425

> <Gold.PLP.Chemscore.CHOScore>
1.0000

> <Gold.PLP.Chemscore.Metal>
0.0000

> <Gold.Chemscore.Hbonds>
donor molecule, donor type, donor heavy atom, donor atom, acceptor molecule, acceptor atom, score
      L1  H     9    20       P1  8028  1.00
      L1  H    18    33       P1  8029  1.00
      P1  H  7989  7998       L1     3  0.21
      L1  C     7    19       P1 10175  0.58

> <Gold.PLP.Chemscore.Internal.Correction>
0.0258

> <Gold.Rescore>
     Score         DG    S(hbond)    S(metal)    S(lipo)     H(rot)  DE(clash)    DE(int)     intcor
     15.96     -18.83       2.07        0.00      97.20       1.92       1.47       1.41       ----

> <Gold.Chemscore.Fitness>
15.9566

> <Gold.Chemscore.DG>
-18.8329

> <Gold.Chemscore.ZeroCoef>
-5.4800

> <Gold.Chemscore.Hbond>
2.0652

> <Gold.Chemscore.Metal>
0.0000

> <Gold.Chemscore.Lipo>
97.1977

> <Gold.Chemscore.Internal_Hbond>
0.0000

> <Gold.Chemscore.DEClash>
1.4694

> <Gold.Chemscore.DEInternal>
1.4069

> <Gold.Chemscore.Rot>
1.9207

> <Gold.Chemscore.Internal.Correction>
   9.000000E+99

> <Gold.Chemscore.Hbonds>
donor molecule, donor type, donor heavy atom, donor atom, acceptor molecule, acceptor atom, score
      L1  H     9    20       P1  8028  0.99
      L1  H    18    33       P1  8029  1.00
      P1  H  7989  7998       L1     3  0.03

> <Gold.Chemscore.Hbond.Weighted>
-6.8977

> <Gold.Chemscore.Metal.Weighted>
-0.0000

> <Gold.Chemscore.Lipo.Weighted>
-11.3721

> <Gold.Chemscore.Internal_Hbond.Weighted>
0.0000

> <Gold.Chemscore.DEClash.Weighted>
1.4694

> <Gold.Chemscore.DEInternal.Weighted>
1.4069

> <Gold.Chemscore.Rot.Weighted>
4.9169

> <Gold.Chemscore.Internal.Correction.Weighted>
   9.000000E+99

> <Gold.Protein.RotatedTorsions>
[ 6907 6896 6895 6894 ] final -174.98 input  -60.11 | X-H torsion
[ 7974 7965 7964 7962 ] final   74.46 input  175.53 | X-H torsion
[ 8008 7997 7996 7995 ] final    7.95 input   59.86 | X-H torsion
[ 10167 10162 10161 10158 ] final  147.59 input  -65.29 | X-H torsion
[ 10718 10713 10712 10709 ] final   44.39 input   66.30 | X-H torsion
[ 10763 10752 10751 10750 ] final  145.77 input  -60.55 | X-H torsion
[ 11005 11000 10999 10996 ] final   43.84 input  -57.11 | X-H torsion

> <Gold.Protein.ActiveResidues>
 VAL166  LYS551  ARG553  GLY616  TRP617  ASP618  TYR619  PRO620  LYS621  CYS622 
 ASP623  PHE694  ASN695  SER759  ASP760  ASP761  ALA762  ILE779  LEU786  VAL792 
 PHE793  MET794  SER795  GLU796  ALA797  LYS798  CYS799  TRP800  GLU811  SER814 

> <Gold.Protein.RotatedAtoms>
  151.5811  133.3377  159.3008 H   0  0  0  0  0  0  0  0  0  0  0  0  # atno 6907 bound_to 6896
  150.8313  134.7570  159.6867 H   0  0  0  0  0  0  0  0  0  0  0  0  # atno 6908 bound_to 6896
  152.4396  134.5624  159.9949 H   0  0  0  0  0  0  0  0  0  0  0  0  # atno 6909 bound_to 6896
  145.7280  139.2673  143.1557 H   0  0  0  0  0  0  0  0  0  0  0  0  # atno 7974 bound_to 7965
  154.7605  140.2783  155.6218 H   0  0  0  0  0  0  0  0  0  0  0  0  # atno 8008 bound_to 7997
  156.2914  140.2661  156.2309 H   0  0  0  0  0  0  0  0  0  0  0  0  # atno 8009 bound_to 7997
  155.0023  140.0372  157.2355 H   0  0  0  0  0  0  0  0  0  0  0  0  # atno 8010 bound_to 7997
  139.4888  144.5744  151.6993 H   0  0  0  0  0  0  0  0  0  0  0  0  # atno 10167 bound_to 10162
  157.4263  130.7998  149.7561 H   0  0  0  0  0  0  0  0  0  0  0  0  # atno 10718 bound_to 10713
  154.0109  135.2914  155.3392 H   0  0  0  0  0  0  0  0  0  0  0  0  # atno 10763 bound_to 10752
  154.7103  135.5152  153.8660 H   0  0  0  0  0  0  0  0  0  0  0  0  # atno 10764 bound_to 10752
  153.0723  135.6652  154.0341 H   0  0  0  0  0  0  0  0  0  0  0  0  # atno 10765 bound_to 10752
  140.1607  134.4344  155.8319 H   0  0  0  0  0  0  0  0  0  0  0  0  # atno 11005 bound_to 11000
  146.0564  140.8016  142.9756 LP  0  0  0  0  0  0  0  0  0  0  0  0  # atno 17320 bound_to 7965
  144.6900  140.3130  143.7245 LP  0  0  0  0  0  0  0  0  0  0  0  0  # atno 17321 bound_to 7965
  140.5337  144.0689  150.6063 LP  0  0  0  0  0  0  0  0  0  0  0  0  # atno 17342 bound_to 10162
  140.3688  143.2866  152.0302 LP  0  0  0  0  0  0  0  0  0  0  0  0  # atno 17343 bound_to 10162
  155.9897  130.3949  150.3059 LP  0  0  0  0  0  0  0  0  0  0  0  0  # atno 17370 bound_to 10713
  157.1211  131.0247  151.3009 LP  0  0  0  0  0  0  0  0  0  0  0  0  # atno 17371 bound_to 10713
  141.2209  133.6912  156.7589 LP  0  0  0  0  0  0  0  0  0  0  0  0  # atno 17394 bound_to 11000
  140.2493  134.8553  157.3651 LP  0  0  0  0  0  0  0  0  0  0  0  0  # atno 17395 bound_to 11000

$$$$
