AV-unprocessed.smi:96|AV-procd|sdf|860|dock1
  -GOLD-   2262017303D 1   1.00000     0.00000
 Structure written by MMmdl.
 43 46  0  0  0  0  0  0  0  0  1 V2000
  152.2691  136.5913  157.5580 O   0  0  0  0  0  0  0  0  0  0  0  0
  152.0287  137.1821  156.5039 C   0  0  0  0  0  0  0  0  0  0  0  0
  152.7209  138.5164  156.1821 C   0  0  0  0  0  0  0  0  0  0  0  0
  151.8445  139.6946  156.3636 N   0  0  0  0  0  0  0  0  0  0  0  0
  150.8832  139.9924  155.3661 C   0  0  0  0  0  0  0  0  0  0  0  0
  150.7621  139.2858  154.3645 O   0  0  0  0  0  0  0  0  0  0  0  0
  150.0707  141.1792  155.6091 C   0  0  0  0  0  0  0  0  0  0  0  0
  149.1237  141.5301  154.7224 F   0  0  0  0  0  0  0  0  0  0  0  0
  150.2535  141.9336  156.7124 C   0  0  0  0  0  0  0  0  0  0  0  0
  151.2088  141.6409  157.6696 N   0  0  0  0  0  0  0  0  0  0  0  0
  151.4098  142.5033  158.8981 C   0  0  1  0  0  0  0  0  0  0  0  0
  152.8453  143.0618  158.9393 C   0  0  0  0  0  0  0  0  0  0  0  0
  152.6215  144.5465  159.1453 C   0  0  0  0  0  0  0  0  0  0  0  0
  151.2753  144.7584  158.4692 C   0  0  0  0  0  0  0  0  0  0  0  0
  150.5441  143.6022  158.8557 O   0  0  0  0  0  0  0  0  0  0  0  0
  152.0257  140.5003  157.5127 C   0  0  0  0  0  0  0  0  0  0  0  0
  152.8814  140.2206  158.3556 O   0  0  0  0  0  0  0  0  0  0  0  0
  151.1624  136.7480  155.5707 N   0  0  0  0  0  0  0  0  0  0  0  0
  150.3724  135.5677  155.5867 C   0  0  0  0  0  0  0  0  0  0  0  0
  149.8089  134.9949  154.4101 C   0  0  0  0  0  0  0  0  0  0  0  0
  149.0149  133.8280  154.4823 C   0  0  0  0  0  0  0  0  0  0  0  0
  148.7940  133.2618  155.7476 C   0  0  0  0  0  0  0  0  0  0  0  0
  149.3225  133.8212  156.8918 C   0  0  0  0  0  0  0  0  0  0  0  0
  150.1126  134.9813  156.8485 C   0  0  0  0  0  0  0  0  0  0  0  0
  148.9526  133.0847  157.9703 O   0  0  0  0  0  0  0  0  0  0  0  0
  148.1711  132.0322  157.4669 C   0  0  0  0  0  0  0  0  0  0  0  0
  148.0755  132.1566  156.0715 O   0  0  0  0  0  0  0  0  0  0  0  0
  153.6189  138.5909  156.7971 H   0  0  0  0  0  0  0  0  0  0  0  0
  153.1038  138.4788  155.1607 H   0  0  0  0  0  0  0  0  0  0  0  0
  149.6175  142.7969  156.8327 H   0  0  0  0  0  0  0  0  0  0  0  0
  151.1508  141.8708  159.7492 H   0  0  0  0  0  0  0  0  0  0  0  0
  153.4231  142.5984  159.7393 H   0  0  0  0  0  0  0  0  0  0  0  0
  153.3490  142.8819  157.9879 H   0  0  0  0  0  0  0  0  0  0  0  0
  152.5446  144.7711  160.2100 H   0  0  0  0  0  0  0  0  0  0  0  0
  153.4150  145.1619  158.7205 H   0  0  0  0  0  0  0  0  0  0  0  0
  150.7791  145.6738  158.7918 H   0  0  0  0  0  0  0  0  0  0  0  0
  151.3868  144.7898  157.3844 H   0  0  0  0  0  0  0  0  0  0  0  0
  150.9888  137.3775  154.8007 H   0  0  0  0  0  0  0  0  0  0  0  0
  149.9645  135.4459  153.4419 H   0  0  0  0  0  0  0  0  0  0  0  0
  148.5876  133.3885  153.5931 H   0  0  0  0  0  0  0  0  0  0  0  0
  150.5157  135.4044  157.7571 H   0  0  0  0  0  0  0  0  0  0  0  0
  148.6370  131.0786  157.7176 H   0  0  0  0  0  0  0  0  0  0  0  0
  147.1744  132.0745  157.9072 H   0  0  0  0  0  0  0  0  0  0  0  0
  1  2  2  0  0  0  0
  2  3  1  0  0  0  0
  2 18  1  0  0  0  0
  3  4  1  0  0  0  0
  3 28  1  0  0  0  0
  3 29  1  0  0  0  0
  4 16  1  0  0  0  0
  4  5  1  0  0  0  0
  5  6  2  0  0  0  0
  5  7  1  0  0  0  0
  7  8  1  0  0  0  0
  7  9  2  0  0  0  0
  9 10  1  0  0  0  0
  9 30  1  0  0  0  0
 10 11  1  0  0  0  0
 10 16  1  0  0  0  0
 11 15  1  0  0  0  0
 11 12  1  0  0  0  0
 11 31  1  0  0  0  0
 12 13  1  0  0  0  0
 12 32  1  0  0  0  0
 12 33  1  0  0  0  0
 13 14  1  0  0  0  0
 13 34  1  0  0  0  0
 13 35  1  0  0  0  0
 14 15  1  0  0  0  0
 14 36  1  0  0  0  0
 14 37  1  0  0  0  0
 16 17  2  0  0  0  0
 18 19  1  0  0  0  0
 18 38  1  0  0  0  0
 19 24  1  0  0  0  0
 19 20  2  0  0  0  0
 20 21  1  0  0  0  0
 20 39  1  0  0  0  0
 21 22  2  0  0  0  0
 21 40  1  0  0  0  0
 22 27  1  0  0  0  0
 22 23  1  0  0  0  0
 23 24  2  0  0  0  0
 23 25  1  0  0  0  0
 24 41  1  0  0  0  0
 25 26  1  0  0  0  0
 26 27  1  0  0  0  0
 26 42  1  0  0  0  0
 26 43  1  0  0  0  0
M  END
> <s_m_source_file>
AV-unprocessed.smi

> <i_m_source_file_index>
96

> <i_lp_mmshare_version>
43012

> <i_f3d_flags>
0

> <s_epik_input>
TzFbQ0gyXU9jKGMxMilbY0hdYyhbY0hdW2NIXTIpW05IXUMoPU8pW0NIMl1uM2MoPU8pYyhGKVtjSF1uKGMzPU8pW0NAQEhdNFtDSDJdW0NIMl1bQ0gyXU80

> <s_epik_cmdline>
J2VwaWtfcHl0aG9uJywgJy1waCcsICc3LjAnLCAnLXRuJywgJzgnLCAnLW1hJywgJzIwMCcsICctbWV0YWxfYmluZGluZycsICctaW1hZScsICc8aW5maWxlLm1hZT4nLCAnLW9tYWUnLCAnPG91dGZpbGUubWFlPic=

> <r_lp_tautomer_probability>
1

> <r_epik_Ionization_Penalty>
1.04778e-05

> <r_epik_Ionization_Penalty_Charging>
3.88729e-08

> <r_epik_Ionization_Penalty_Neutral>
1.04389e-05

> <r_epik_State_Penalty>
-0

> <r_epik_Charging_Adjusted_Penalty>
3.88729e-08

> <i_epik_Tot_Q>
0

> <i_epik_Tot_abs_Q>
0

> <r_epik_Metal_State_Penalty>
-0

> <b_epik_Metal_Only>
0

> <s_epik_Chemistry_Notes>
This compound contains an acetal/aminal-like group ( X-CH(R)-Y where X, Y are N, S, or O) that may be acid/base labile, releasing an aldehyde.

> <s_lp_Force_Field>
OPLS_2005

> <r_lp_Energy>
46.4939

> <b_lp_Chiralities_Consistent>
1

> <s_lp_Variant>
AV-unprocessed.smi:96-2

> <Gold.Version>
5.8.1

> <Gold.Id.Protein>
6NUR|6NUR_protein|mol2

> <Gold.PLP.Fitness>
50.6275

> <Gold.PLP.PLP>
-42.4759

> <Gold.PLP.part.hbond>
-3.0000

> <Gold.PLP.part.metal>
0.0000

> <Gold.PLP.part.buried>
-1.1422

> <Gold.PLP.part.nonpolar>
-38.5677

> <Gold.PLP.part.repulsive>
0.3707

> <Gold.PLP.ligand.clash>
0.0000

> <Gold.PLP.ligand.torsion>
0.5309

> <Gold.PLP.Chemscore.Hbond>
2.0540

> <Gold.PLP.Chemscore.CHOScore>
1.0000

> <Gold.PLP.Chemscore.Metal>
0.0000

> <Gold.Chemscore.Hbonds>
donor molecule, donor type, donor heavy atom, donor atom, acceptor molecule, acceptor atom, score
      P1  H  6896  6909       L1    25  0.04
      P1  H  7989  7998       L1     6  0.10
      P1  H  7997  8009       L1    17  0.58
      L1  C     9    30       P1  8028  1.00

> <Gold.PLP.Chemscore.Internal.Correction>
0.0514

> <Gold.Rescore>
     Score         DG    S(hbond)    S(metal)    S(lipo)     H(rot)  DE(clash)    DE(int)     intcor
     11.38     -15.07       1.24        0.00      87.05       1.85       0.48       3.21       ----

> <Gold.Chemscore.Fitness>
11.3826

> <Gold.Chemscore.DG>
-15.0680

> <Gold.Chemscore.ZeroCoef>
-5.4800

> <Gold.Chemscore.Hbond>
1.2392

> <Gold.Chemscore.Metal>
0.0000

> <Gold.Chemscore.Lipo>
87.0474

> <Gold.Chemscore.Internal_Hbond>
0.0000

> <Gold.Chemscore.DEClash>
0.4791

> <Gold.Chemscore.DEInternal>
3.2062

> <Gold.Chemscore.Rot>
1.8497

> <Gold.Chemscore.Internal.Correction>
   9.000000E+99

> <Gold.Chemscore.Hbonds>
donor molecule, donor type, donor heavy atom, donor atom, acceptor molecule, acceptor atom, score
      P1  H  6896  6909       L1    25  0.01
      P1  H  7997  8009       L1    17  0.11

> <Gold.Chemscore.Hbond.Weighted>
-4.1388

> <Gold.Chemscore.Metal.Weighted>
-0.0000

> <Gold.Chemscore.Lipo.Weighted>
-10.1846

> <Gold.Chemscore.Internal_Hbond.Weighted>
0.0000

> <Gold.Chemscore.DEClash.Weighted>
0.4791

> <Gold.Chemscore.DEInternal.Weighted>
3.2062

> <Gold.Chemscore.Rot.Weighted>
4.7354

> <Gold.Chemscore.Internal.Correction.Weighted>
   9.000000E+99

> <Gold.Protein.RotatedTorsions>
[ 6907 6896 6895 6894 ] final  -15.75 input  -60.11 | X-H torsion
[ 7974 7965 7964 7962 ] final  116.74 input  175.53 | X-H torsion
[ 8008 7997 7996 7995 ] final  155.42 input   59.86 | X-H torsion
[ 10167 10162 10161 10158 ] final  108.44 input  -65.29 | X-H torsion
[ 10718 10713 10712 10709 ] final -147.03 input   66.30 | X-H torsion
[ 10763 10752 10751 10750 ] final   62.35 input  -60.55 | X-H torsion
[ 11005 11000 10999 10996 ] final  112.27 input  -57.11 | X-H torsion

> <Gold.Protein.ActiveResidues>
 VAL166  LYS551  ARG553  GLY616  TRP617  ASP618  TYR619  PRO620  LYS621  CYS622 
 ASP623  PHE694  ASN695  SER759  ASP760  ASP761  ALA762  ILE779  LEU786  VAL792 
 PHE793  MET794  SER795  GLU796  ALA797  LYS798  CYS799  TRP800  GLU811  SER814 

> <Gold.Protein.RotatedAtoms>
  151.3191  135.0814  159.9299 H   0  0  0  0  0  0  0  0  0  0  0  0  # atno 6907 bound_to 6896
  152.5261  133.9657  159.7748 H   0  0  0  0  0  0  0  0  0  0  0  0  # atno 6908 bound_to 6896
  150.9975  133.6037  159.2730 H   0  0  0  0  0  0  0  0  0  0  0  0  # atno 6909 bound_to 6896
  145.1760  139.3076  143.4443 H   0  0  0  0  0  0  0  0  0  0  0  0  # atno 7974 bound_to 7965
  156.2479  140.1940  156.6799 H   0  0  0  0  0  0  0  0  0  0  0  0  # atno 8008 bound_to 7997
  154.6330  140.0593  156.9781 H   0  0  0  0  0  0  0  0  0  0  0  0  # atno 8009 bound_to 7997
  155.1681  140.3266  155.4400 H   0  0  0  0  0  0  0  0  0  0  0  0  # atno 8010 bound_to 7997
  139.6846  144.7115  151.1455 H   0  0  0  0  0  0  0  0  0  0  0  0  # atno 10167 bound_to 10162
  156.4024  130.7940  151.2152 H   0  0  0  0  0  0  0  0  0  0  0  0  # atno 10718 bound_to 10713
  152.9980  135.5468  154.6179 H   0  0  0  0  0  0  0  0  0  0  0  0  # atno 10763 bound_to 10752
  154.5485  135.2825  155.1033 H   0  0  0  0  0  0  0  0  0  0  0  0  # atno 10764 bound_to 10752
  154.2282  135.6438  153.5219 H   0  0  0  0  0  0  0  0  0  0  0  0  # atno 10765 bound_to 10752
  139.8923  134.9526  156.6560 H   0  0  0  0  0  0  0  0  0  0  0  0  # atno 11005 bound_to 11000
  146.3461  140.1922  142.8589 LP  0  0  0  0  0  0  0  0  0  0  0  0  # atno 17320 bound_to 7965
  145.0185  140.8774  143.5181 LP  0  0  0  0  0  0  0  0  0  0  0  0  # atno 17321 bound_to 7965
  140.7663  143.5648  150.9059 LP  0  0  0  0  0  0  0  0  0  0  0  0  # atno 17342 bound_to 10162
  139.9322  143.6479  152.3073 LP  0  0  0  0  0  0  0  0  0  0  0  0  # atno 17343 bound_to 10162
  157.7504  131.0283  150.4042 LP  0  0  0  0  0  0  0  0  0  0  0  0  # atno 17370 bound_to 10713
  156.4324  130.3974  149.6752 LP  0  0  0  0  0  0  0  0  0  0  0  0  # atno 17371 bound_to 10713
  140.7484  133.8918  155.8328 LP  0  0  0  0  0  0  0  0  0  0  0  0  # atno 17394 bound_to 11000
  141.0021  134.1136  157.4307 LP  0  0  0  0  0  0  0  0  0  0  0  0  # atno 17395 bound_to 11000

$$$$
