AV-unprocessed.smi:1824|AV-procd|sdf|7407|dock7
  -GOLD-   22720 9 83D 1   1.00000     0.00000
 Structure written by MMmdl.
 45 47  0  0  0  0  0  0  0  0  2 V2000
  148.2313  141.2846  156.1746 C   0  0  0  0  0  0  0  0  0  0  0  0
  148.9543  141.3517  154.8185 C   0  0  2  0  0  0  0  0  0  0  0  0
  148.0466  140.9912  153.6250 C   0  0  0  0  0  0  0  0  0  0  0  0
  147.7667  139.5585  153.5396 N   0  0  0  0  0  0  0  0  0  0  0  0
  146.9322  139.2114  152.3879 C   0  0  0  0  0  0  0  0  0  0  0  0
  146.6971  137.7036  152.1679 C   0  0  2  0  0  0  0  0  0  0  0  0
  146.5164  137.4788  150.7835 O   0  0  0  0  0  0  0  0  0  0  0  0
  145.4562  137.2094  152.9370 C   0  0  0  0  0  0  0  0  0  0  0  0
  144.8589  136.0027  152.3462 N   0  0  0  0  0  0  0  0  0  0  0  0
  143.7301  135.8710  151.5980 C   0  0  0  0  0  0  0  0  0  0  0  0
  143.5958  134.5528  151.2836 N   0  3  0  0  0  0  0  0  0  0  0  0
  144.6530  133.8303  151.8410 C   0  0  0  0  0  0  0  0  0  0  0  0
  144.9496  132.4718  151.7998 C   0  0  0  0  0  0  0  0  0  0  0  0
  146.1115  132.0543  152.4815 C   0  0  0  0  0  0  0  0  0  0  0  0
  146.4463  130.7424  152.4740 F   0  0  0  0  0  0  0  0  0  0  0  0
  146.9288  132.9752  153.1706 C   0  0  0  0  0  0  0  0  0  0  0  0
  148.0344  132.5320  153.8144 F   0  0  0  0  0  0  0  0  0  0  0  0
  146.6182  134.3506  153.2037 C   0  0  0  0  0  0  0  0  0  0  0  0
  145.4686  134.7552  152.5262 C   0  0  0  0  0  0  0  0  0  0  0  0
  149.0312  138.8344  153.5006 C   0  0  0  0  0  0  0  0  0  0  0  0
  149.9103  139.1408  154.7262 C   0  0  1  0  0  0  0  0  0  0  0  0
  151.2733  138.4452  154.6464 C   0  0  0  0  0  0  0  0  0  0  0  0
  150.1343  140.5470  154.8068 O   0  0  0  0  0  0  0  0  0  0  0  0
  147.4006  141.9899  156.2059 H   0  0  0  0  0  0  0  0  0  0  0  0
  148.9100  141.5371  156.9894 H   0  0  0  0  0  0  0  0  0  0  0  0
  147.8238  140.2939  156.3739 H   0  0  0  0  0  0  0  0  0  0  0  0
  149.2858  142.3819  154.6866 H   0  0  0  0  0  0  0  0  0  0  0  0
  147.1225  141.5616  153.7061 H   0  0  0  0  0  0  0  0  0  0  0  0
  148.5309  141.3197  152.7042 H   0  0  0  0  0  0  0  0  0  0  0  0
  145.9690  139.7151  152.4830 H   0  0  0  0  0  0  0  0  0  0  0  0
  147.3854  139.6144  151.4808 H   0  0  0  0  0  0  0  0  0  0  0  0
  147.5571  137.1237  152.5004 H   0  0  0  0  0  0  0  0  0  0  0  0
  145.7140  137.9027  150.5175 H   0  0  0  0  0  0  0  0  0  0  0  0
  145.7339  136.9574  153.9613 H   0  0  0  0  0  0  0  0  0  0  0  0
  144.6974  137.9890  153.0112 H   0  0  0  0  0  0  0  0  0  0  0  0
  143.0620  136.6685  151.3059 H   0  0  0  0  0  0  0  0  0  0  0  0
  144.3260  131.7631  151.2750 H   0  0  0  0  0  0  0  0  0  0  0  0
  147.2478  135.0447  153.7400 H   0  0  0  0  0  0  0  0  0  0  0  0
  148.8400  137.7615  153.4591 H   0  0  0  0  0  0  0  0  0  0  0  0
  149.5739  139.0891  152.5886 H   0  0  0  0  0  0  0  0  0  0  0  0
  149.4051  138.8016  155.6310 H   0  0  0  0  0  0  0  0  0  0  0  0
  151.1589  137.3624  154.5925 H   0  0  0  0  0  0  0  0  0  0  0  0
  151.8781  138.6720  155.5247 H   0  0  0  0  0  0  0  0  0  0  0  0
  151.8299  138.7682  153.7663 H   0  0  0  0  0  0  0  0  0  0  0  0
  142.8365  134.1769  150.7300 H   0  0  0  0  0  0  0  0  0  0  0  0
  1  2  1  0  0  0  0
  1 24  1  0  0  0  0
  1 25  1  0  0  0  0
  1 26  1  0  0  0  0
  2 23  1  0  0  0  0
  2  3  1  0  0  0  0
  2 27  1  0  0  0  0
  3  4  1  0  0  0  0
  3 28  1  0  0  0  0
  3 29  1  0  0  0  0
  4  5  1  0  0  0  0
  4 20  1  0  0  0  0
  5  6  1  0  0  0  0
  5 30  1  0  0  0  0
  5 31  1  0  0  0  0
  6  7  1  0  0  0  0
  6  8  1  0  0  0  0
  6 32  1  0  0  0  0
  7 33  1  0  0  0  0
  8  9  1  0  0  0  0
  8 34  1  0  0  0  0
  8 35  1  0  0  0  0
  9 19  1  0  0  0  0
  9 10  1  0  0  0  0
 10 11  2  0  0  0  0
 10 36  1  0  0  0  0
 11 12  1  0  0  0  0
 11 45  1  0  0  0  0
 12 19  2  0  0  0  0
 12 13  1  0  0  0  0
 13 14  2  0  0  0  0
 13 37  1  0  0  0  0
 14 15  1  0  0  0  0
 14 16  1  0  0  0  0
 16 17  1  0  0  0  0
 16 18  2  0  0  0  0
 18 19  1  0  0  0  0
 18 38  1  0  0  0  0
 20 21  1  0  0  0  0
 20 39  1  0  0  0  0
 20 40  1  0  0  0  0
 21 22  1  0  0  0  0
 21 23  1  0  0  0  0
 21 41  1  0  0  0  0
 22 42  1  0  0  0  0
 22 43  1  0  0  0  0
 22 44  1  0  0  0  0
M  CHG  1  11   1
M  END
> <s_m_source_file>
AV-unprocessed.smi

> <i_m_source_file_index>
1824

> <i_lp_mmshare_version>
43012

> <i_f3d_flags>
0

> <s_epik_input>
W0NIM11bQ0BASF0xW0NIMl1OKFtDSDJdW0NASF0oTzEpW0NIM10pW0NIMl1bQ0BIXShbT0hdKVtDSDJdbihbY0hdbjIpYyhjMjMpW2NIXWMoRiljKEYpW2NIXTM=

> <s_epik_cmdline>
J2VwaWtfcHl0aG9uJywgJy1waCcsICc3LjAnLCAnLXRuJywgJzgnLCAnLW1hJywgJzIwMCcsICctbWV0YWxfYmluZGluZycsICctaW1hZScsICc8aW5maWxlLm1hZT4nLCAnLW9tYWUnLCAnPG91dGZpbGUubWFlPic=

> <r_epik_Ionization_Penalty>
2.58709

> <r_epik_Ionization_Penalty_Charging>
2.37273

> <r_epik_Ionization_Penalty_Neutral>
0.214359

> <r_epik_State_Penalty>
2.71799

> <r_epik_Charging_Adjusted_Penalty>
5.09071

> <i_epik_Tot_Q>
1

> <i_epik_Tot_abs_Q>
1

> <r_epik_Metal_State_Penalty>
6.80217

> <b_epik_Metal_Only>
0

> <s_lp_Force_Field>
OPLS_2005

> <r_lp_Energy>
35.5782

> <b_lp_Chiralities_Consistent>
1

> <s_lp_Variant>
AV-unprocessed.smi:1824-15

> <Gold.Version>
5.8.1

> <Gold.Id.Protein>
6NUR|6NUR_protein|mol2

> <Gold.PLP.Fitness>
51.1192

> <Gold.PLP.PLP>
-35.8565

> <Gold.PLP.part.hbond>
-4.7526

> <Gold.PLP.part.metal>
0.0000

> <Gold.PLP.part.buried>
4.4468

> <Gold.PLP.part.nonpolar>
-36.1014

> <Gold.PLP.part.repulsive>
0.5871

> <Gold.PLP.ligand.clash>
0.0000

> <Gold.PLP.ligand.torsion>
0.8492

> <Gold.PLP.Chemscore.Hbond>
4.9280

> <Gold.PLP.Chemscore.CHOScore>
0.7191

> <Gold.PLP.Chemscore.Metal>
0.0000

> <Gold.Chemscore.Hbonds>
donor molecule, donor type, donor heavy atom, donor atom, acceptor molecule, acceptor atom, score
      L1  H     7    33       P1 10171  0.88
      L1  H    11    45       P1 10186  1.24
      P1  H  7954  7966       L1     7  1.00
      P1  H  7989  7998       L1    23  0.91
      L1  C    10    36       P1 10171  0.82

> <Gold.PLP.Chemscore.Internal.Correction>
0.0197

> <Gold.Rescore>
     Score         DG    S(hbond)    S(metal)    S(lipo)     H(rot)  DE(clash)    DE(int)     intcor
     15.93     -20.38       3.09        0.00      89.90       2.32       3.43       1.01       ----

> <Gold.Chemscore.Fitness>
15.9300

> <Gold.Chemscore.DG>
-20.3757

> <Gold.Chemscore.ZeroCoef>
-5.4800

> <Gold.Chemscore.Hbond>
3.0896

> <Gold.Chemscore.Metal>
0.0000

> <Gold.Chemscore.Lipo>
89.8978

> <Gold.Chemscore.Internal_Hbond>
0.0000

> <Gold.Chemscore.DEClash>
3.4328

> <Gold.Chemscore.DEInternal>
1.0129

> <Gold.Chemscore.Rot>
2.3210

> <Gold.Chemscore.Internal.Correction>
   9.000000E+99

> <Gold.Chemscore.Hbonds>
donor molecule, donor type, donor heavy atom, donor atom, acceptor molecule, acceptor atom, score
      L1  H     7    33       P1 10171  0.86
      L1  H    11    45       P1 10186  0.39
      P1  H  7954  7966       L1     7  0.67
      P1  H  7989  7998       L1    23  0.38

> <Gold.Chemscore.Hbond.Weighted>
-10.3193

> <Gold.Chemscore.Metal.Weighted>
-0.0000

> <Gold.Chemscore.Lipo.Weighted>
-10.5180

> <Gold.Chemscore.Internal_Hbond.Weighted>
0.0000

> <Gold.Chemscore.DEClash.Weighted>
3.4328

> <Gold.Chemscore.DEInternal.Weighted>
1.0129

> <Gold.Chemscore.Rot.Weighted>
5.9416

> <Gold.Chemscore.Internal.Correction.Weighted>
   9.000000E+99

> <Gold.Protein.RotatedTorsions>
[ 6907 6896 6895 6894 ] final   26.85 input  -60.11 | X-H torsion
[ 7974 7965 7964 7962 ] final   -1.77 input  175.53 | X-H torsion
[ 8008 7997 7996 7995 ] final  -20.75 input   59.86 | X-H torsion
[ 10167 10162 10161 10158 ] final  104.46 input  -65.29 | X-H torsion
[ 10718 10713 10712 10709 ] final   77.10 input   66.30 | X-H torsion
[ 10763 10752 10751 10750 ] final   60.31 input  -60.55 | X-H torsion
[ 11005 11000 10999 10996 ] final -174.76 input  -57.11 | X-H torsion

> <Gold.Protein.ActiveResidues>
 VAL166  LYS551  ARG553  GLY616  TRP617  ASP618  TYR619  PRO620  LYS621  CYS622 
 ASP623  PHE694  ASN695  SER759  ASP760  ASP761  ALA762  ILE779  LEU786  VAL792 
 PHE793  MET794  SER795  GLU796  ALA797  LYS798  CYS799  TRP800  GLU811  SER814 

> <Gold.Protein.RotatedAtoms>
  151.9936  134.9966  160.0562 H   0  0  0  0  0  0  0  0  0  0  0  0  # atno 6907 bound_to 6896
  152.1586  133.4562  159.4857 H   0  0  0  0  0  0  0  0  0  0  0  0  # atno 6908 bound_to 6896
  150.6884  134.2018  159.4368 H   0  0  0  0  0  0  0  0  0  0  0  0  # atno 6909 bound_to 6896
  146.2413  140.1471  142.8334 H   0  0  0  0  0  0  0  0  0  0  0  0  # atno 7974 bound_to 7965
  154.4750  140.2053  155.9902 H   0  0  0  0  0  0  0  0  0  0  0  0  # atno 8008 bound_to 7997
  156.1073  140.3234  155.7994 H   0  0  0  0  0  0  0  0  0  0  0  0  # atno 8009 bound_to 7997
  155.4695  140.0530  157.2972 H   0  0  0  0  0  0  0  0  0  0  0  0  # atno 8010 bound_to 7997
  139.7176  144.7065  151.0925 H   0  0  0  0  0  0  0  0  0  0  0  0  # atno 10167 bound_to 10162
  157.6698  130.9805  150.1592 H   0  0  0  0  0  0  0  0  0  0  0  0  # atno 10718 bound_to 10713
  152.9918  135.5540  154.5854 H   0  0  0  0  0  0  0  0  0  0  0  0  # atno 10763 bound_to 10752
  154.5226  135.2808  155.1251 H   0  0  0  0  0  0  0  0  0  0  0  0  # atno 10764 bound_to 10752
  154.2598  135.6383  153.5323 H   0  0  0  0  0  0  0  0  0  0  0  0  # atno 10765 bound_to 10752
  140.4709  134.6166  157.4881 H   0  0  0  0  0  0  0  0  0  0  0  0  # atno 11005 bound_to 11000
  145.0199  140.8784  143.5173 LP  0  0  0  0  0  0  0  0  0  0  0  0  # atno 17320 bound_to 7965
  145.1517  139.2510  143.5437 LP  0  0  0  0  0  0  0  0  0  0  0  0  # atno 17321 bound_to 7965
  140.7747  143.5209  150.9537 LP  0  0  0  0  0  0  0  0  0  0  0  0  # atno 17342 bound_to 10162
  139.8896  143.6970  152.3147 LP  0  0  0  0  0  0  0  0  0  0  0  0  # atno 17343 bound_to 10162
  156.2372  130.3687  149.8377 LP  0  0  0  0  0  0  0  0  0  0  0  0  # atno 17370 bound_to 10713
  156.6187  130.8617  151.3470 LP  0  0  0  0  0  0  0  0  0  0  0  0  # atno 17371 bound_to 10713
  139.9886  134.7022  155.9730 LP  0  0  0  0  0  0  0  0  0  0  0  0  # atno 17394 bound_to 11000
  141.1577  133.6541  156.4216 LP  0  0  0  0  0  0  0  0  0  0  0  0  # atno 17395 bound_to 11000

$$$$
