AV-unprocessed.smi:2144|AV-procd|sdf|8731|dock1
  -GOLD-   2272011503D 1   1.00000     0.00000
 Structure written by MMmdl.
 40 42  0  0  0  0  0  0  0  0  1 V2000
  151.7256  139.0701  154.4267 O   0  0  0  0  0  0  0  0  0  0  0  0
  151.5167  138.8398  155.8055 C   0  0  0  0  0  0  0  0  0  0  0  0
  151.6950  140.0606  156.6638 C   0  0  0  0  0  0  0  0  0  0  0  0
  152.4876  140.0874  157.7382 N   0  0  0  0  0  0  0  0  0  0  0  0
  152.3499  141.3851  158.1890 C   0  0  0  0  0  0  0  0  0  0  0  0
  152.9381  142.0406  159.2946 C   0  0  0  0  0  0  0  0  0  0  0  0
  152.6446  143.3941  159.5611 C   0  0  0  0  0  0  0  0  0  0  0  0
  151.7606  144.1098  158.7279 C   0  0  0  0  0  0  0  0  0  0  0  0
  151.1642  143.4758  157.6210 C   0  0  0  0  0  0  0  0  0  0  0  0
  151.4607  142.1244  157.3592 C   0  0  0  0  0  0  0  0  0  0  0  0
  151.0556  141.2230  156.3788 N   0  0  0  0  0  0  0  0  0  0  0  0
  150.1383  141.4959  155.2799 C   0  0  0  0  0  0  0  0  0  0  0  0
  148.6600  141.5120  155.7218 C   0  0  1  0  0  0  0  0  0  0  0  0
  148.4793  142.4303  156.7816 O   0  0  0  0  0  0  0  0  0  0  0  0
  147.7099  141.8984  154.5791 C   0  0  0  0  0  0  0  0  0  0  0  0
  146.4269  142.1803  155.1219 O   0  0  0  0  0  0  0  0  0  0  0  0
  145.7213  143.2502  154.6133 C   0  0  0  0  0  0  0  0  0  0  0  0
  145.8573  143.7344  153.2871 C   0  0  0  0  0  0  0  0  0  0  0  0
  145.0997  144.8379  152.8491 C   0  0  0  0  0  0  0  0  0  0  0  0
  144.1994  145.4702  153.7263 C   0  0  0  0  0  0  0  0  0  0  0  0
  144.0565  144.9960  155.0432 C   0  0  0  0  0  0  0  0  0  0  0  0
  144.8135  143.8924  155.4823 C   0  0  0  0  0  0  0  0  0  0  0  0
  144.6660  143.4446  156.7523 F   0  0  0  0  0  0  0  0  0  0  0  0
  151.0659  138.6004  153.9402 H   0  0  0  0  0  0  0  0  0  0  0  0
  150.5064  138.4536  155.9422 H   0  0  0  0  0  0  0  0  0  0  0  0
  152.2098  138.0644  156.1303 H   0  0  0  0  0  0  0  0  0  0  0  0
  153.6164  141.5010  159.9387 H   0  0  0  0  0  0  0  0  0  0  0  0
  153.0997  143.8852  160.4087 H   0  0  0  0  0  0  0  0  0  0  0  0
  151.5406  145.1459  158.9394 H   0  0  0  0  0  0  0  0  0  0  0  0
  150.4861  144.0214  156.9822 H   0  0  0  0  0  0  0  0  0  0  0  0
  150.4086  142.4533  154.8331 H   0  0  0  0  0  0  0  0  0  0  0  0
  150.2945  140.7499  154.5004 H   0  0  0  0  0  0  0  0  0  0  0  0
  148.3761  140.5281  156.0954 H   0  0  0  0  0  0  0  0  0  0  0  0
  148.5912  143.3055  156.4437 H   0  0  0  0  0  0  0  0  0  0  0  0
  148.0919  142.7863  154.0718 H   0  0  0  0  0  0  0  0  0  0  0  0
  147.6513  141.0892  153.8491 H   0  0  0  0  0  0  0  0  0  0  0  0
  146.5379  143.2776  152.5848 H   0  0  0  0  0  0  0  0  0  0  0  0
  145.2108  145.2004  151.8378 H   0  0  0  0  0  0  0  0  0  0  0  0
  143.6200  146.3170  153.3896 H   0  0  0  0  0  0  0  0  0  0  0  0
  143.3657  145.4795  155.7179 H   0  0  0  0  0  0  0  0  0  0  0  0
  1  2  1  0  0  0  0
  1 24  1  0  0  0  0
  2  3  1  0  0  0  0
  2 25  1  0  0  0  0
  2 26  1  0  0  0  0
  3 11  1  0  0  0  0
  3  4  2  0  0  0  0
  4  5  1  0  0  0  0
  5 10  2  0  0  0  0
  5  6  1  0  0  0  0
  6  7  2  0  0  0  0
  6 27  1  0  0  0  0
  7  8  1  0  0  0  0
  7 28  1  0  0  0  0
  8  9  2  0  0  0  0
  8 29  1  0  0  0  0
  9 10  1  0  0  0  0
  9 30  1  0  0  0  0
 10 11  1  0  0  0  0
 11 12  1  0  0  0  0
 12 13  1  0  0  0  0
 12 31  1  0  0  0  0
 12 32  1  0  0  0  0
 13 14  1  0  0  0  0
 13 15  1  0  0  0  0
 13 33  1  0  0  0  0
 14 34  1  0  0  0  0
 15 16  1  0  0  0  0
 15 35  1  0  0  0  0
 15 36  1  0  0  0  0
 16 17  1  0  0  0  0
 17 22  1  0  0  0  0
 17 18  2  0  0  0  0
 18 19  1  0  0  0  0
 18 37  1  0  0  0  0
 19 20  2  0  0  0  0
 19 38  1  0  0  0  0
 20 21  1  0  0  0  0
 20 39  1  0  0  0  0
 21 22  2  0  0  0  0
 21 40  1  0  0  0  0
 22 23  1  0  0  0  0
M  END
> <s_m_source_file>
AV-unprocessed.smi

> <i_m_source_file_index>
2144

> <i_lp_mmshare_version>
43012

> <i_f3d_flags>
0

> <s_epik_input>
W2NIXTFbY0hdW2NIXVtjSF1jKGMxMiluKGMobjIpW0NIMl1bT0hdKVtDSDJdW0NASF0oW09IXSlbQ0gyXU9jM1tjSF1bY0hdW2NIXVtjSF1jM0Y=

> <s_epik_cmdline>
J2VwaWtfcHl0aG9uJywgJy1waCcsICc3LjAnLCAnLXRuJywgJzgnLCAnLW1hJywgJzIwMCcsICctbWV0YWxfYmluZGluZycsICctaW1hZScsICc8aW5maWxlLm1hZT4nLCAnLW9tYWUnLCAnPG91dGZpbGUubWFlPic=

> <r_lp_tautomer_probability>
1

> <r_epik_Ionization_Penalty>
0.0547315

> <r_epik_Ionization_Penalty_Charging>
0

> <r_epik_Ionization_Penalty_Neutral>
0.0547315

> <r_epik_State_Penalty>
0.047032

> <r_epik_Charging_Adjusted_Penalty>
0.047032

> <i_epik_Tot_Q>
0

> <i_epik_Tot_abs_Q>
0

> <r_epik_Metal_State_Penalty>
4.89471e-05

> <b_epik_Metal_Only>
0

> <s_lp_Force_Field>
OPLS_2005

> <r_lp_Energy>
15.6378

> <b_lp_Chiralities_Consistent>
1

> <s_lp_Variant>
AV-unprocessed.smi:2144-2

> <Gold.Version>
5.8.1

> <Gold.Id.Protein>
6NUR|6NUR_protein|mol2

> <Gold.PLP.Fitness>
55.2885

> <Gold.PLP.PLP>
-49.0490

> <Gold.PLP.part.hbond>
-2.8186

> <Gold.PLP.part.metal>
0.0000

> <Gold.PLP.part.buried>
-3.6653

> <Gold.PLP.part.nonpolar>
-42.2328

> <Gold.PLP.part.repulsive>
0.1466

> <Gold.PLP.ligand.clash>
0.0000

> <Gold.PLP.ligand.torsion>
1.0612

> <Gold.PLP.Chemscore.Hbond>
2.7070

> <Gold.PLP.Chemscore.CHOScore>
0.0000

> <Gold.PLP.Chemscore.Metal>
0.0000

> <Gold.Chemscore.Hbonds>
donor molecule, donor type, donor heavy atom, donor atom, acceptor molecule, acceptor atom, score
      L1  H    14    34       P1  8028  1.00
      P1  H  7989  7998       L1     1  1.00
      P1  H  7997  8009       L1     4  0.68

> <Gold.PLP.Chemscore.Internal.Correction>
0.2409

> <Gold.Rescore>
     Score         DG    S(hbond)    S(metal)    S(lipo)     H(rot)  DE(clash)    DE(int)     intcor
     14.74     -17.98       1.66        0.00     129.96       3.22       1.14       2.10       ----

> <Gold.Chemscore.Fitness>
14.7398

> <Gold.Chemscore.DG>
-17.9778

> <Gold.Chemscore.ZeroCoef>
-5.4800

> <Gold.Chemscore.Hbond>
1.6571

> <Gold.Chemscore.Metal>
0.0000

> <Gold.Chemscore.Lipo>
129.9591

> <Gold.Chemscore.Internal_Hbond>
0.0000

> <Gold.Chemscore.DEClash>
1.1396

> <Gold.Chemscore.DEInternal>
2.0984

> <Gold.Chemscore.Rot>
3.2196

> <Gold.Chemscore.Internal.Correction>
   9.000000E+99

> <Gold.Chemscore.Hbonds>
donor molecule, donor type, donor heavy atom, donor atom, acceptor molecule, acceptor atom, score
      L1  H    14    34       P1  8028  0.78
      P1  H  7989  7998       L1     1  0.23
      P1  H  7997  8009       L1     4  0.08

> <Gold.Chemscore.Hbond.Weighted>
-5.5348

> <Gold.Chemscore.Metal.Weighted>
-0.0000

> <Gold.Chemscore.Lipo.Weighted>
-15.2052

> <Gold.Chemscore.Internal_Hbond.Weighted>
0.0000

> <Gold.Chemscore.DEClash.Weighted>
1.1396

> <Gold.Chemscore.DEInternal.Weighted>
2.0984

> <Gold.Chemscore.Rot.Weighted>
8.2422

> <Gold.Chemscore.Internal.Correction.Weighted>
   9.000000E+99

> <Gold.Protein.RotatedTorsions>
[ 6907 6896 6895 6894 ] final  -10.40 input  -60.11 | X-H torsion
[ 7974 7965 7964 7962 ] final   37.55 input  175.53 | X-H torsion
[ 8008 7997 7996 7995 ] final  170.78 input   59.86 | X-H torsion
[ 10167 10162 10161 10158 ] final  134.26 input  -65.29 | X-H torsion
[ 10718 10713 10712 10709 ] final   83.73 input   66.30 | X-H torsion
[ 10763 10752 10751 10750 ] final   97.21 input  -60.55 | X-H torsion
[ 11005 11000 10999 10996 ] final  -39.01 input  -57.11 | X-H torsion

> <Gold.Protein.ActiveResidues>
 VAL166  LYS551  ARG553  GLY616  TRP617  ASP618  TYR619  PRO620  LYS621  CYS622 
 ASP623  PHE694  ASN695  SER759  ASP760  ASP761  ALA762  ILE779  LEU786  VAL792 
 PHE793  MET794  SER795  GLU796  ALA797  LYS798  CYS799  TRP800  GLU811  SER814 

> <Gold.Protein.RotatedAtoms>
  151.4026  135.0973  159.9560 H   0  0  0  0  0  0  0  0  0  0  0  0  # atno 6907 bound_to 6896
  152.5045  133.8874  159.7387 H   0  0  0  0  0  0  0  0  0  0  0  0  # atno 6908 bound_to 6896
  150.9351  133.6665  159.2831 H   0  0  0  0  0  0  0  0  0  0  0  0  # atno 6909 bound_to 6896
  146.1129  139.5880  142.9340 H   0  0  0  0  0  0  0  0  0  0  0  0  # atno 7974 bound_to 7965
  156.1333  140.1529  156.9033 H   0  0  0  0  0  0  0  0  0  0  0  0  # atno 8008 bound_to 7997
  154.4926  140.0847  156.7668 H   0  0  0  0  0  0  0  0  0  0  0  0  # atno 8009 bound_to 7997
  155.4216  140.3423  155.4274 H   0  0  0  0  0  0  0  0  0  0  0  0  # atno 8010 bound_to 7997
  139.5263  144.6576  151.5114 H   0  0  0  0  0  0  0  0  0  0  0  0  # atno 10167 bound_to 10162
  157.6885  131.0103  150.2567 H   0  0  0  0  0  0  0  0  0  0  0  0  # atno 10718 bound_to 10713
  153.2742  135.4191  155.1017 H   0  0  0  0  0  0  0  0  0  0  0  0  # atno 10763 bound_to 10752
  154.8467  135.3479  154.6202 H   0  0  0  0  0  0  0  0  0  0  0  0  # atno 10764 bound_to 10752
  153.6622  135.7048  153.5231 H   0  0  0  0  0  0  0  0  0  0  0  0  # atno 10765 bound_to 10752
  141.0070  133.6927  156.2129 H   0  0  0  0  0  0  0  0  0  0  0  0  # atno 11005 bound_to 11000
  145.5627  141.0403  143.2217 LP  0  0  0  0  0  0  0  0  0  0  0  0  # atno 17320 bound_to 7965
  144.7527  139.7152  143.7266 LP  0  0  0  0  0  0  0  0  0  0  0  0  # atno 17321 bound_to 7965
  140.6409  143.8891  150.6691 LP  0  0  0  0  0  0  0  0  0  0  0  0  # atno 17342 bound_to 10162
  140.2225  143.3798  152.1631 LP  0  0  0  0  0  0  0  0  0  0  0  0  # atno 17343 bound_to 10162
  156.3154  130.3778  149.7623 LP  0  0  0  0  0  0  0  0  0  0  0  0  # atno 17370 bound_to 10713
  156.5210  130.8215  151.3203 LP  0  0  0  0  0  0  0  0  0  0  0  0  # atno 17371 bound_to 10713
  140.6796  134.4781  157.5589 LP  0  0  0  0  0  0  0  0  0  0  0  0  # atno 17394 bound_to 11000
  139.9069  134.8430  156.1673 LP  0  0  0  0  0  0  0  0  0  0  0  0  # atno 17395 bound_to 11000

$$$$
