AV-unprocessed.smi:1840|AV-procd|sdf|7495|dock1
  -GOLD-   22720 9193D 1   1.00000     0.00000
 Structure written by MMmdl.
 43 44  0  0  0  0  0  0  0  0  1 V2000
  147.4553  138.1955  155.7218 C   0  0  0  0  0  0  0  0  0  0  0  0
  147.3793  138.5666  154.2346 C   0  0  1  0  0  0  0  0  0  0  0  0
  148.5394  139.5004  153.8270 C   0  0  0  0  0  0  0  0  0  0  0  0
  149.8249  139.0510  154.3339 N   0  0  0  0  0  0  0  0  0  0  0  0
  150.2878  137.7591  154.4692 C   0  0  0  0  0  0  0  0  0  0  0  0
  151.5387  137.8305  155.0117 C   0  0  0  0  0  0  0  0  0  0  0  0
  151.7584  139.2272  155.1724 C   0  0  0  0  0  0  0  0  0  0  0  0
  150.7333  139.9556  154.7610 N   0  0  0  0  0  0  0  0  0  0  0  0
  147.3920  137.3417  153.4351 N   0  0  0  0  0  0  0  0  0  0  0  0
  146.4081  136.4311  153.3935 C   0  0  0  0  0  0  0  0  0  0  0  0
  145.3858  136.4855  154.0779 O   0  0  0  0  0  0  0  0  0  0  0  0
  146.6575  135.4706  152.4932 N   0  0  0  0  0  0  0  0  0  0  0  0
  145.7496  134.3746  152.1616 C   0  0  1  0  0  0  0  0  0  0  0  0
  145.1107  134.6287  150.7789 C   0  0  0  0  0  0  0  0  0  0  0  0
  144.1900  133.4742  150.3596 C   0  0  0  0  0  0  0  0  0  0  0  0
  144.9432  132.1374  150.3751 C   0  0  0  0  0  0  0  0  0  0  0  0
  145.5671  131.8725  151.7535 C   0  0  0  0  0  0  0  0  0  0  0  0
  146.4999  133.0196  152.1936 C   0  0  2  0  0  0  0  0  0  0  0  0
  147.1125  132.7182  153.5733 C   0  0  0  0  0  0  0  0  0  0  0  0
  147.4158  139.0861  156.3496 H   0  0  0  0  0  0  0  0  0  0  0  0
  148.3803  137.6662  155.9537 H   0  0  0  0  0  0  0  0  0  0  0  0
  146.6221  137.5534  156.0098 H   0  0  0  0  0  0  0  0  0  0  0  0
  146.4372  139.0970  154.0840 H   0  0  0  0  0  0  0  0  0  0  0  0
  148.6116  139.5522  152.7398 H   0  0  0  0  0  0  0  0  0  0  0  0
  148.3525  140.5183  154.1740 H   0  0  0  0  0  0  0  0  0  0  0  0
  149.6912  136.9067  154.1795 H   0  0  0  0  0  0  0  0  0  0  0  0
  152.1956  137.0101  155.2595 H   0  0  0  0  0  0  0  0  0  0  0  0
  152.6265  139.7300  155.5726 H   0  0  0  0  0  0  0  0  0  0  0  0
  148.1885  137.2048  152.8300 H   0  0  0  0  0  0  0  0  0  0  0  0
  147.5234  135.5153  151.9764 H   0  0  0  0  0  0  0  0  0  0  0  0
  144.9543  134.3366  152.9090 H   0  0  0  0  0  0  0  0  0  0  0  0
  144.5411  135.5589  150.7909 H   0  0  0  0  0  0  0  0  0  0  0  0
  145.8925  134.7583  150.0291 H   0  0  0  0  0  0  0  0  0  0  0  0
  143.3364  133.4222  151.0366 H   0  0  0  0  0  0  0  0  0  0  0  0
  143.7857  133.6629  149.3646 H   0  0  0  0  0  0  0  0  0  0  0  0
  144.2649  131.3254  150.1119 H   0  0  0  0  0  0  0  0  0  0  0  0
  145.7246  132.1474  149.6141 H   0  0  0  0  0  0  0  0  0  0  0  0
  144.7736  131.7404  152.4905 H   0  0  0  0  0  0  0  0  0  0  0  0
  146.1193  130.9325  151.7255 H   0  0  0  0  0  0  0  0  0  0  0  0
  147.3202  133.0696  151.4754 H   0  0  0  0  0  0  0  0  0  0  0  0
  146.3460  132.6947  154.3485 H   0  0  0  0  0  0  0  0  0  0  0  0
  147.8516  133.4665  153.8591 H   0  0  0  0  0  0  0  0  0  0  0  0
  147.6156  131.7510  153.5755 H   0  0  0  0  0  0  0  0  0  0  0  0
  1  2  1  0  0  0  0
  1 20  1  0  0  0  0
  1 21  1  0  0  0  0
  1 22  1  0  0  0  0
  2  3  1  0  0  0  0
  2  9  1  0  0  0  0
  2 23  1  0  0  0  0
  3  4  1  0  0  0  0
  3 24  1  0  0  0  0
  3 25  1  0  0  0  0
  4  8  1  0  0  0  0
  4  5  1  0  0  0  0
  5  6  2  0  0  0  0
  5 26  1  0  0  0  0
  6  7  1  0  0  0  0
  6 27  1  0  0  0  0
  7  8  2  0  0  0  0
  7 28  1  0  0  0  0
  9 10  1  0  0  0  0
  9 29  1  0  0  0  0
 10 11  2  0  0  0  0
 10 12  1  0  0  0  0
 12 13  1  0  0  0  0
 12 30  1  0  0  0  0
 13 18  1  0  0  0  0
 13 14  1  0  0  0  0
 13 31  1  0  0  0  0
 14 15  1  0  0  0  0
 14 32  1  0  0  0  0
 14 33  1  0  0  0  0
 15 16  1  0  0  0  0
 15 34  1  0  0  0  0
 15 35  1  0  0  0  0
 16 17  1  0  0  0  0
 16 36  1  0  0  0  0
 16 37  1  0  0  0  0
 17 18  1  0  0  0  0
 17 38  1  0  0  0  0
 17 39  1  0  0  0  0
 18 19  1  0  0  0  0
 18 40  1  0  0  0  0
 19 41  1  0  0  0  0
 19 42  1  0  0  0  0
 19 43  1  0  0  0  0
M  END
> <s_m_source_file>
AV-unprocessed.smi

> <i_m_source_file_index>
1840

> <i_lp_mmshare_version>
43012

> <i_f3d_flags>
0

> <s_epik_input>
bjFbY0hdW2NIXVtjSF1uMVtDSDJdW0NAQEhdKFtDSDNdKVtOSF1DKD1PKVtOSF1bQ0BASF0yW0NIMl1bQ0gyXVtDSDJdW0NIMl1bQ0BIXTJbQ0gzXQ==

> <s_epik_cmdline>
J2VwaWtfcHl0aG9uJywgJy1waCcsICc3LjAnLCAnLXRuJywgJzgnLCAnLW1hJywgJzIwMCcsICctbWV0YWxfYmluZGluZycsICctaW1hZScsICc8aW5maWxlLm1hZT4nLCAnLW9tYWUnLCAnPG91dGZpbGUubWFlPic=

> <r_lp_tautomer_probability>
1

> <r_epik_Ionization_Penalty>
7.38659e-05

> <r_epik_Ionization_Penalty_Charging>
0

> <r_epik_Ionization_Penalty_Neutral>
7.38659e-05

> <r_epik_State_Penalty>
-0

> <r_epik_Charging_Adjusted_Penalty>
0

> <i_epik_Tot_Q>
0

> <i_epik_Tot_abs_Q>
0

> <r_epik_Metal_State_Penalty>
-0

> <b_epik_Metal_Only>
0

> <s_lp_Force_Field>
OPLS_2005

> <r_lp_Energy>
7.84096

> <b_lp_Chiralities_Consistent>
1

> <s_lp_Variant>
AV-unprocessed.smi:1840-8

> <Gold.Version>
5.8.1

> <Gold.Id.Protein>
6NUR|6NUR_protein|mol2

> <Gold.PLP.Fitness>
40.8615

> <Gold.PLP.PLP>
-30.5911

> <Gold.PLP.part.hbond>
-2.6262

> <Gold.PLP.part.metal>
0.0000

> <Gold.PLP.part.buried>
-2.9163

> <Gold.PLP.part.nonpolar>
-26.5614

> <Gold.PLP.part.repulsive>
0.1283

> <Gold.PLP.ligand.clash>
0.0000

> <Gold.PLP.ligand.torsion>
0.6622

> <Gold.PLP.Chemscore.Hbond>
2.9040

> <Gold.PLP.Chemscore.CHOScore>
0.9561

> <Gold.PLP.Chemscore.Metal>
0.0000

> <Gold.Chemscore.Hbonds>
donor molecule, donor type, donor heavy atom, donor atom, acceptor molecule, acceptor atom, score
      L1  H     9    29       P1  7948  0.96
      L1  H    12    30       P1  7948  0.94
      P1  H  7989  7998       L1     8  0.80
      L1  C     5    26       P1  7948  0.95

> <Gold.PLP.Chemscore.Internal.Correction>
0.0145

> <Gold.Rescore>
     Score         DG    S(hbond)    S(metal)    S(lipo)     H(rot)  DE(clash)    DE(int)     intcor
     17.05     -18.12       2.44        0.00      72.44       1.56       0.49       0.58       ----

> <Gold.Chemscore.Fitness>
17.0477

> <Gold.Chemscore.DG>
-18.1198

> <Gold.Chemscore.ZeroCoef>
-5.4800

> <Gold.Chemscore.Hbond>
2.4408

> <Gold.Chemscore.Metal>
0.0000

> <Gold.Chemscore.Lipo>
72.4360

> <Gold.Chemscore.Internal_Hbond>
0.0000

> <Gold.Chemscore.DEClash>
0.4916

> <Gold.Chemscore.DEInternal>
0.5804

> <Gold.Chemscore.Rot>
1.5576

> <Gold.Chemscore.Internal.Correction>
   9.000000E+99

> <Gold.Chemscore.Hbonds>
donor molecule, donor type, donor heavy atom, donor atom, acceptor molecule, acceptor atom, score
      L1  H     9    29       P1  7948  0.89
      L1  H    12    30       P1  7948  0.88
      P1  H  7989  7998       L1     8  0.11

> <Gold.Chemscore.Hbond.Weighted>
-8.1523

> <Gold.Chemscore.Metal.Weighted>
-0.0000

> <Gold.Chemscore.Lipo.Weighted>
-8.4750

> <Gold.Chemscore.Internal_Hbond.Weighted>
0.0000

> <Gold.Chemscore.DEClash.Weighted>
0.4916

> <Gold.Chemscore.DEInternal.Weighted>
0.5804

> <Gold.Chemscore.Rot.Weighted>
3.9875

> <Gold.Chemscore.Internal.Correction.Weighted>
   9.000000E+99

> <Gold.Protein.RotatedTorsions>
[ 6907 6896 6895 6894 ] final  112.27 input  -60.11 | X-H torsion
[ 7974 7965 7964 7962 ] final   26.90 input  175.53 | X-H torsion
[ 8008 7997 7996 7995 ] final -158.42 input   59.86 | X-H torsion
[ 10167 10162 10161 10158 ] final   62.26 input  -65.29 | X-H torsion
[ 10718 10713 10712 10709 ] final    4.09 input   66.30 | X-H torsion
[ 10763 10752 10751 10750 ] final  -43.03 input  -60.55 | X-H torsion
[ 11005 11000 10999 10996 ] final   39.27 input  -57.11 | X-H torsion

> <Gold.Protein.ActiveResidues>
 VAL166  LYS551  ARG553  GLY616  TRP617  ASP618  TYR619  PRO620  LYS621  CYS622 
 ASP623  PHE694  ASN695  SER759  ASP760  ASP761  ALA762  ILE779  LEU786  VAL792 
 PHE793  MET794  SER795  GLU796  ALA797  LYS798  CYS799  TRP800  GLU811  SER814 

> <Gold.Protein.RotatedAtoms>
  152.4925  133.8539  159.7215 H   0  0  0  0  0  0  0  0  0  0  0  0  # atno 6907 bound_to 6896
  150.9069  133.7038  159.2871 H   0  0  0  0  0  0  0  0  0  0  0  0  # atno 6908 bound_to 6896
  151.4460  135.1029  159.9736 H   0  0  0  0  0  0  0  0  0  0  0  0  # atno 6909 bound_to 6896
  146.1813  139.7265  142.8898 H   0  0  0  0  0  0  0  0  0  0  0  0  # atno 7974 bound_to 7965
  155.7473  140.0822  157.2218 H   0  0  0  0  0  0  0  0  0  0  0  0  # atno 8008 bound_to 7997
  154.4015  140.1567  156.2739 H   0  0  0  0  0  0  0  0  0  0  0  0  # atno 8009 bound_to 7997
  155.8964  140.3412  155.5997 H   0  0  0  0  0  0  0  0  0  0  0  0  # atno 8010 bound_to 7997
  140.1458  144.4510  150.6786 H   0  0  0  0  0  0  0  0  0  0  0  0  # atno 10167 bound_to 10162
  156.8875  130.5675  149.5651 H   0  0  0  0  0  0  0  0  0  0  0  0  # atno 10718 bound_to 10713
  153.9888  135.6708  153.4753 H   0  0  0  0  0  0  0  0  0  0  0  0  # atno 10763 bound_to 10752
  153.0715  135.4972  154.8310 H   0  0  0  0  0  0  0  0  0  0  0  0  # atno 10764 bound_to 10752
  154.7121  135.3099  154.9142 H   0  0  0  0  0  0  0  0  0  0  0  0  # atno 10765 bound_to 10752
  140.2044  134.3831  155.8080 H   0  0  0  0  0  0  0  0  0  0  0  0  # atno 11005 bound_to 11000
  145.4068  141.0392  143.3040 LP  0  0  0  0  0  0  0  0  0  0  0  0  # atno 17320 bound_to 7965
  144.8320  139.5612  143.6939 LP  0  0  0  0  0  0  0  0  0  0  0  0  # atno 17321 bound_to 7965
  140.6732  143.2294  151.5572 LP  0  0  0  0  0  0  0  0  0  0  0  0  # atno 17342 bound_to 10162
  139.5449  144.2547  152.1424 LP  0  0  0  0  0  0  0  0  0  0  0  0  # atno 17343 bound_to 10162
  156.0646  130.5692  150.9262 LP  0  0  0  0  0  0  0  0  0  0  0  0  # atno 17370 bound_to 10713
  157.6104  131.0936  150.8805 LP  0  0  0  0  0  0  0  0  0  0  0  0  # atno 17371 bound_to 10713
  141.2227  133.7110  156.8312 LP  0  0  0  0  0  0  0  0  0  0  0  0  # atno 17394 bound_to 11000
  140.2019  134.8891  157.3178 LP  0  0  0  0  0  0  0  0  0  0  0  0  # atno 17395 bound_to 11000

$$$$
