AV-unprocessed.smi:512|AV-procd|sdf|2771|dock3
  -GOLD-   2262023233D 1   1.00000     0.00000
 Structure written by MMmdl.
 47 49  0  0  0  0  0  0  0  0  2 V2000
  147.4302  141.8202  154.2348 C   0  0  0  0  0  0  0  0  0  0  0  0
  148.1708  140.5145  154.5319 C   0  0  0  0  0  0  0  0  0  0  0  0
  147.4244  139.7689  155.4784 O   0  0  0  0  0  0  0  0  0  0  0  0
  148.1438  139.5269  156.6756 C   0  0  0  0  0  0  0  0  0  0  0  0
  148.2955  138.0081  156.8594 C   0  0  0  0  0  0  0  0  0  0  0  0
  149.2975  137.6664  157.8657 N   0  0  0  0  0  0  0  0  0  0  0  0
  149.1483  136.9581  159.0233 C   0  0  0  0  0  0  0  0  0  0  0  0
  147.9247  136.4364  159.4652 N   0  0  0  0  0  0  0  0  0  0  0  0
  146.6272  137.0442  159.1711 C   0  0  0  0  0  0  0  0  0  0  0  0
  145.7911  137.2177  160.4543 C   0  0  0  0  0  0  0  0  0  0  0  0
  145.5373  135.9075  161.0516 N   0  0  0  0  0  0  0  0  0  0  0  0
  144.7555  136.0663  162.2691 C   0  0  0  0  0  0  0  0  0  0  0  0
  146.8227  135.2879  161.3694 C   0  0  0  0  0  0  0  0  0  0  0  0
  147.6451  135.1353  160.0746 C   0  0  0  0  0  0  0  0  0  0  0  0
  150.2864  136.7646  159.6950 N   0  0  0  0  0  0  0  0  0  0  0  0
  151.2324  137.4133  158.9198 C   0  0  0  0  0  0  0  0  0  0  0  0
  150.6664  137.9568  157.8104 C   0  0  0  0  0  0  0  0  0  0  0  0
  151.4325  138.6859  156.7736 C   0  0  0  0  0  0  0  0  0  0  0  0
  150.8795  139.1380  155.7733 O   0  0  0  0  0  0  0  0  0  0  0  0
  152.7662  138.7709  157.0782 N   0  5  0  0  0  0  0  0  0  0  0  0
  153.3778  138.2417  158.1940 C   0  0  0  0  0  0  0  0  0  0  0  0
  154.5870  138.3655  158.3932 O   0  0  0  0  0  0  0  0  0  0  0  0
  152.6329  137.5562  159.1169 N   0  0  0  0  0  0  0  0  0  0  0  0
  153.2570  136.9753  160.3091 C   0  0  0  0  0  0  0  0  0  0  0  0
  147.9788  142.4234  153.5111 H   0  0  0  0  0  0  0  0  0  0  0  0
  147.3055  142.4140  155.1406 H   0  0  0  0  0  0  0  0  0  0  0  0
  146.4399  141.6226  153.8238 H   0  0  0  0  0  0  0  0  0  0  0  0
  148.2945  139.9405  153.6124 H   0  0  0  0  0  0  0  0  0  0  0  0
  149.1657  140.7313  154.9237 H   0  0  0  0  0  0  0  0  0  0  0  0
  149.1211  140.0073  156.6245 H   0  0  0  0  0  0  0  0  0  0  0  0
  147.6192  139.9721  157.5209 H   0  0  0  0  0  0  0  0  0  0  0  0
  147.3431  137.5527  157.1207 H   0  0  0  0  0  0  0  0  0  0  0  0
  148.5726  137.5406  155.9149 H   0  0  0  0  0  0  0  0  0  0  0  0
  146.7731  138.0212  158.7097 H   0  0  0  0  0  0  0  0  0  0  0  0
  146.0917  136.4354  158.4411 H   0  0  0  0  0  0  0  0  0  0  0  0
  146.3107  137.8678  161.1605 H   0  0  0  0  0  0  0  0  0  0  0  0
  144.8415  137.6964  160.2126 H   0  0  0  0  0  0  0  0  0  0  0  0
  144.5601  135.0955  162.7257 H   0  0  0  0  0  0  0  0  0  0  0  0
  143.7934  136.5295  162.0475 H   0  0  0  0  0  0  0  0  0  0  0  0
  145.2751  136.6891  162.9988 H   0  0  0  0  0  0  0  0  0  0  0  0
  147.3657  135.8854  162.1033 H   0  0  0  0  0  0  0  0  0  0  0  0
  146.6522  134.3068  161.8141 H   0  0  0  0  0  0  0  0  0  0  0  0
  147.0995  134.5184  159.3591 H   0  0  0  0  0  0  0  0  0  0  0  0
  148.5631  134.5938  160.2783 H   0  0  0  0  0  0  0  0  0  0  0  0
  154.0495  136.2811  160.0273 H   0  0  0  0  0  0  0  0  0  0  0  0
  152.5501  136.4233  160.9279 H   0  0  0  0  0  0  0  0  0  0  0  0
  153.6932  137.7589  160.9296 H   0  0  0  0  0  0  0  0  0  0  0  0
  1  2  1  0  0  0  0
  1 25  1  0  0  0  0
  1 26  1  0  0  0  0
  1 27  1  0  0  0  0
  2  3  1  0  0  0  0
  2 28  1  0  0  0  0
  2 29  1  0  0  0  0
  3  4  1  0  0  0  0
  4  5  1  0  0  0  0
  4 30  1  0  0  0  0
  4 31  1  0  0  0  0
  5  6  1  0  0  0  0
  5 32  1  0  0  0  0
  5 33  1  0  0  0  0
  6 17  1  0  0  0  0
  6  7  1  0  0  0  0
  7  8  1  0  0  0  0
  7 15  2  0  0  0  0
  8 14  1  0  0  0  0
  8  9  1  0  0  0  0
  9 10  1  0  0  0  0
  9 34  1  0  0  0  0
  9 35  1  0  0  0  0
 10 11  1  0  0  0  0
 10 36  1  0  0  0  0
 10 37  1  0  0  0  0
 11 12  1  0  0  0  0
 11 13  1  0  0  0  0
 12 38  1  0  0  0  0
 12 39  1  0  0  0  0
 12 40  1  0  0  0  0
 13 14  1  0  0  0  0
 13 41  1  0  0  0  0
 13 42  1  0  0  0  0
 14 43  1  0  0  0  0
 14 44  1  0  0  0  0
 15 16  1  0  0  0  0
 16 23  1  0  0  0  0
 16 17  2  0  0  0  0
 17 18  1  0  0  0  0
 18 19  2  0  0  0  0
 18 20  1  0  0  0  0
 20 21  1  0  0  0  0
 21 22  2  0  0  0  0
 21 23  1  0  0  0  0
 23 24  1  0  0  0  0
 24 45  1  0  0  0  0
 24 46  1  0  0  0  0
 24 47  1  0  0  0  0
M  CHG  1  20  -1
M  END
> <s_m_source_file>
AV-unprocessed.smi

> <i_m_source_file_index>
512

> <i_lp_mmshare_version>
43012

> <i_f3d_flags>
0

> <s_epik_input>
W0NIM11uMWMoPU8pW25IXWMoPU8pYyhjMTIpbihbQ0gyXVtDSDJdT1tDSDJdW0NIM10pYyhuMilOM1tDSDJdW0NIMl1OKFtDSDNdKVtDSDJdW0NIMl0z

> <s_epik_cmdline>
J2VwaWtfcHl0aG9uJywgJy1waCcsICc3LjAnLCAnLXRuJywgJzgnLCAnLW1hJywgJzIwMCcsICctbWV0YWxfYmluZGluZycsICctaW1hZScsICc8aW5maWxlLm1hZT4nLCAnLW9tYWUnLCAnPG91dGZpbGUubWFlPic=

> <r_epik_Ionization_Penalty>
7.67022

> <r_epik_Ionization_Penalty_Charging>
0.0776929

> <r_epik_Ionization_Penalty_Neutral>
7.59253

> <r_epik_State_Penalty>
7.66971

> <r_epik_Charging_Adjusted_Penalty>
7.7474

> <i_epik_Tot_Q>
-1

> <i_epik_Tot_abs_Q>
1

> <r_epik_Metal_State_Penalty>
3.61867

> <b_epik_Metal_Only>
1

> <s_lp_Force_Field>
OPLS_2005

> <r_lp_Energy>
53.7442

> <b_lp_Chiralities_Consistent>
1

> <s_lp_Variant>
AV-unprocessed.smi:512-4

> <Gold.Version>
5.8.1

> <Gold.Id.Protein>
6NUR|6NUR_protein|mol2

> <Gold.PLP.Fitness>
35.8001

> <Gold.PLP.PLP>
-29.2884

> <Gold.PLP.part.hbond>
-3.4274

> <Gold.PLP.part.metal>
0.0000

> <Gold.PLP.part.buried>
-4.2013

> <Gold.PLP.part.nonpolar>
-21.3837

> <Gold.PLP.part.repulsive>
0.0195

> <Gold.PLP.ligand.clash>
0.0000

> <Gold.PLP.ligand.torsion>
1.2964

> <Gold.PLP.Chemscore.Hbond>
3.0034

> <Gold.PLP.Chemscore.CHOScore>
0.0000

> <Gold.PLP.Chemscore.Metal>
0.0000

> <Gold.Chemscore.Hbonds>
donor molecule, donor type, donor heavy atom, donor atom, acceptor molecule, acceptor atom, score
      P1  H  6896  6907       L1    15  0.85
      P1  H  7997  8008       L1    20  1.24
      P1  H  7997  8010       L1    22  0.02

> <Gold.PLP.Chemscore.Internal.Correction>
0.0943

> <Gold.Rescore>
     Score         DG    S(hbond)    S(metal)    S(lipo)     H(rot)  DE(clash)    DE(int)     intcor
     10.00     -12.42       1.81        0.00      42.74       1.61       0.01       2.42       ----

> <Gold.Chemscore.Fitness>
9.9972

> <Gold.Chemscore.DG>
-12.4202

> <Gold.Chemscore.ZeroCoef>
-5.4800

> <Gold.Chemscore.Hbond>
1.8121

> <Gold.Chemscore.Metal>
0.0000

> <Gold.Chemscore.Lipo>
42.7369

> <Gold.Chemscore.Internal_Hbond>
0.0000

> <Gold.Chemscore.DEClash>
0.0073

> <Gold.Chemscore.DEInternal>
2.4157

> <Gold.Chemscore.Rot>
1.6064

> <Gold.Chemscore.Internal.Correction>
   9.000000E+99

> <Gold.Chemscore.Hbonds>
donor molecule, donor type, donor heavy atom, donor atom, acceptor molecule, acceptor atom, score
      P1  H  6896  6907       L1    15  0.15
      P1  H  7997  8008       L1    20  0.14
      P1  H  7997  8010       L1    22  0.03

> <Gold.Chemscore.Hbond.Weighted>
-6.0523

> <Gold.Chemscore.Metal.Weighted>
-0.0000

> <Gold.Chemscore.Lipo.Weighted>
-5.0002

> <Gold.Chemscore.Internal_Hbond.Weighted>
0.0000

> <Gold.Chemscore.DEClash.Weighted>
0.0073

> <Gold.Chemscore.DEInternal.Weighted>
2.4157

> <Gold.Chemscore.Rot.Weighted>
4.1123

> <Gold.Chemscore.Internal.Correction.Weighted>
   9.000000E+99

> <Gold.Protein.RotatedTorsions>
[ 6907 6896 6895 6894 ] final  -20.14 input  -60.11 | X-H torsion
[ 7974 7965 7964 7962 ] final   78.56 input  175.53 | X-H torsion
[ 8008 7997 7996 7995 ] final  -45.23 input   59.86 | X-H torsion
[ 10167 10162 10161 10158 ] final  -25.50 input  -65.29 | X-H torsion
[ 10718 10713 10712 10709 ] final  149.42 input   66.30 | X-H torsion
[ 10763 10752 10751 10750 ] final  162.83 input  -60.55 | X-H torsion
[ 11005 11000 10999 10996 ] final  -95.68 input  -57.11 | X-H torsion

> <Gold.Protein.ActiveResidues>
 VAL166  LYS551  ARG553  GLY616  TRP617  ASP618  TYR619  PRO620  LYS621  CYS622 
 ASP623  PHE694  ASN695  SER759  ASP760  ASP761  ALA762  ILE779  LEU786  VAL792 
 PHE793  MET794  SER795  GLU796  ALA797  LYS798  CYS799  TRP800  GLU811  SER814 

> <Gold.Protein.RotatedAtoms>
  151.2526  135.0627  159.9067 H   0  0  0  0  0  0  0  0  0  0  0  0  # atno 6907 bound_to 6896
  152.5378  134.0316  159.8037 H   0  0  0  0  0  0  0  0  0  0  0  0  # atno 6908 bound_to 6896
  151.0526  133.5562  159.2672 H   0  0  0  0  0  0  0  0  0  0  0  0  # atno 6909 bound_to 6896
  145.6756  139.2509  143.1843 H   0  0  0  0  0  0  0  0  0  0  0  0  # atno 7974 bound_to 7965
  154.4000  140.1402  156.3813 H   0  0  0  0  0  0  0  0  0  0  0  0  # atno 8008 bound_to 7997
  155.8001  140.3476  155.5377 H   0  0  0  0  0  0  0  0  0  0  0  0  # atno 8009 bound_to 7997
  155.8492  140.0939  157.1676 H   0  0  0  0  0  0  0  0  0  0  0  0  # atno 8010 bound_to 7997
  140.7286  143.4259  151.0877 H   0  0  0  0  0  0  0  0  0  0  0  0  # atno 10167 bound_to 10162
  157.2963  131.0862  151.1424 H   0  0  0  0  0  0  0  0  0  0  0  0  # atno 10718 bound_to 10713
  154.2845  135.2762  155.2682 H   0  0  0  0  0  0  0  0  0  0  0  0  # atno 10763 bound_to 10752
  154.5189  135.5762  153.6668 H   0  0  0  0  0  0  0  0  0  0  0  0  # atno 10764 bound_to 10752
  152.9924  135.6199  154.3006 H   0  0  0  0  0  0  0  0  0  0  0  0  # atno 10765 bound_to 10752
  141.1434  133.8043  157.0468 H   0  0  0  0  0  0  0  0  0  0  0  0  # atno 11005 bound_to 11000
  146.1008  140.7546  142.9550 LP  0  0  0  0  0  0  0  0  0  0  0  0  # atno 17320 bound_to 7965
  144.7042  140.3785  143.7131 LP  0  0  0  0  0  0  0  0  0  0  0  0  # atno 17321 bound_to 7965
  139.7911  143.8218  152.3151 LP  0  0  0  0  0  0  0  0  0  0  0  0  # atno 17342 bound_to 10162
  139.8202  144.7299  150.9583 LP  0  0  0  0  0  0  0  0  0  0  0  0  # atno 17343 bound_to 10162
  157.2800  130.6745  149.6061 LP  0  0  0  0  0  0  0  0  0  0  0  0  # atno 17370 bound_to 10713
  155.9669  130.4453  150.5494 LP  0  0  0  0  0  0  0  0  0  0  0  0  # atno 17371 bound_to 10713
  140.0657  134.9730  157.1382 LP  0  0  0  0  0  0  0  0  0  0  0  0  # atno 17394 bound_to 11000
  140.3783  134.2315  155.7172 LP  0  0  0  0  0  0  0  0  0  0  0  0  # atno 17395 bound_to 11000

$$$$
