AV-unprocessed.smi:1695|AV-procd|sdf|6795|dock10
  -GOLD-   22720 7563D 1   1.00000     0.00000
 Structure written by MMmdl.
 52 54  0  0  0  0  0  0  0  0  3 V2000
  153.5606  142.1199  160.4310 C   0  0  0  0  0  0  0  0  0  0  0  0
  152.5662  141.8024  159.3271 C   0  0  0  0  0  0  0  0  0  0  0  0
  152.5676  140.5033  158.7715 C   0  0  0  0  0  0  0  0  0  0  0  0
  151.6495  140.2442  157.7611 C   0  0  0  0  0  0  0  0  0  0  0  0
  151.4087  139.0839  157.0228 N   0  3  0  0  0  0  0  0  0  0  0  0
  150.4039  139.3114  156.1331 C   0  0  0  0  0  0  0  0  0  0  0  0
  149.9933  140.5989  156.2962 N   0  0  0  0  0  0  0  0  0  0  0  0
  148.9500  141.3425  155.5760 C   0  0  0  0  0  0  0  0  0  0  0  0
  148.5796  140.7014  154.2242 C   0  0  2  0  0  0  0  0  0  0  0  0
  149.5284  141.1360  153.2716 O   0  0  0  0  0  0  0  0  0  0  0  0
  147.1662  141.0692  153.7222 C   0  0  0  0  0  0  0  0  0  0  0  0
  146.4222  139.8868  153.2164 N   0  3  1  0  0  0  0  0  0  0  0  0
  147.1014  139.2021  152.0846 C   0  0  0  0  0  0  0  0  0  0  0  0
  146.2153  138.0886  151.5032 C   0  0  0  0  0  0  0  0  0  0  0  0
  145.8225  137.0651  152.5861 C   0  0  2  0  0  0  0  0  0  0  0  0
  144.8850  135.9930  152.0142 C   0  0  0  0  0  0  0  0  0  0  0  0
  145.3224  134.7317  152.0212 N   0  0  0  0  0  0  0  0  0  0  0  0
  143.7794  136.2981  151.5715 O   0  0  0  0  0  0  0  0  0  0  0  0
  145.1638  137.8070  153.7654 C   0  0  0  0  0  0  0  0  0  0  0  0
  146.0713  138.9294  154.2962 C   0  0  0  0  0  0  0  0  0  0  0  0
  150.7467  141.2226  157.2995 C   0  0  0  0  0  0  0  0  0  0  0  0
  150.7308  142.5075  157.8393 C   0  0  0  0  0  0  0  0  0  0  0  0
  151.6594  142.7917  158.8663 C   0  0  0  0  0  0  0  0  0  0  0  0
  151.6685  144.1863  159.4690 C   0  0  0  0  0  0  0  0  0  0  0  0
  154.1708  141.2514  160.6806 H   0  0  0  0  0  0  0  0  0  0  0  0
  153.0417  142.4333  161.3372 H   0  0  0  0  0  0  0  0  0  0  0  0
  154.2326  142.9206  160.1215 H   0  0  0  0  0  0  0  0  0  0  0  0
  153.2561  139.7453  159.1163 H   0  0  0  0  0  0  0  0  0  0  0  0
  150.0074  138.5991  155.4232 H   0  0  0  0  0  0  0  0  0  0  0  0
  148.0741  141.4564  156.2144 H   0  0  0  0  0  0  0  0  0  0  0  0
  149.3374  142.3494  155.4131 H   0  0  0  0  0  0  0  0  0  0  0  0
  148.6778  139.6206  154.3209 H   0  0  0  0  0  0  0  0  0  0  0  0
  149.6893  140.4347  152.6583 H   0  0  0  0  0  0  0  0  0  0  0  0
  146.5786  141.5429  154.5095 H   0  0  0  0  0  0  0  0  0  0  0  0
  147.2662  141.8129  152.9301 H   0  0  0  0  0  0  0  0  0  0  0  0
  147.3369  139.9135  151.2940 H   0  0  0  0  0  0  0  0  0  0  0  0
  148.0507  138.7856  152.4253 H   0  0  0  0  0  0  0  0  0  0  0  0
  145.3227  138.5354  151.0619 H   0  0  0  0  0  0  0  0  0  0  0  0
  146.7442  137.5896  150.6900 H   0  0  0  0  0  0  0  0  0  0  0  0
  146.7302  136.5786  152.9483 H   0  0  0  0  0  0  0  0  0  0  0  0
  144.7417  133.9904  151.6571 H   0  0  0  0  0  0  0  0  0  0  0  0
  146.2376  134.5231  152.3943 H   0  0  0  0  0  0  0  0  0  0  0  0
  144.2085  138.2360  153.4574 H   0  0  0  0  0  0  0  0  0  0  0  0
  144.9409  137.1065  154.5715 H   0  0  0  0  0  0  0  0  0  0  0  0
  146.9827  138.5096  154.7248 H   0  0  0  0  0  0  0  0  0  0  0  0
  145.5533  139.4532  155.1006 H   0  0  0  0  0  0  0  0  0  0  0  0
  150.0437  143.2650  157.4935 H   0  0  0  0  0  0  0  0  0  0  0  0
  150.9363  144.8348  158.9868 H   0  0  0  0  0  0  0  0  0  0  0  0
  152.6487  144.6488  159.3517 H   0  0  0  0  0  0  0  0  0  0  0  0
  151.4293  144.1458  160.5318 H   0  0  0  0  0  0  0  0  0  0  0  0
  145.5444  140.2407  152.8622 H   0  0  0  0  0  0  0  0  0  0  0  0
  151.8978  138.2022  157.1131 H   0  0  0  0  0  0  0  0  0  0  0  0
  1  2  1  0  0  0  0
  1 25  1  0  0  0  0
  1 26  1  0  0  0  0
  1 27  1  0  0  0  0
  2 23  1  0  0  0  0
  2  3  2  0  0  0  0
  3  4  1  0  0  0  0
  3 28  1  0  0  0  0
  4 21  2  0  0  0  0
  4  5  1  0  0  0  0
  5  6  2  0  0  0  0
  5 52  1  0  0  0  0
  6  7  1  0  0  0  0
  6 29  1  0  0  0  0
  7  8  1  0  0  0  0
  7 21  1  0  0  0  0
  8  9  1  0  0  0  0
  8 30  1  0  0  0  0
  8 31  1  0  0  0  0
  9 10  1  0  0  0  0
  9 11  1  0  0  0  0
  9 32  1  0  0  0  0
 10 33  1  0  0  0  0
 11 12  1  0  0  0  0
 11 34  1  0  0  0  0
 11 35  1  0  0  0  0
 12 20  1  0  0  0  0
 12 13  1  0  0  0  0
 12 51  1  0  0  0  0
 13 14  1  0  0  0  0
 13 36  1  0  0  0  0
 13 37  1  0  0  0  0
 14 15  1  0  0  0  0
 14 38  1  0  0  0  0
 14 39  1  0  0  0  0
 15 16  1  0  0  0  0
 15 19  1  0  0  0  0
 15 40  1  0  0  0  0
 16 17  1  0  0  0  0
 16 18  2  0  0  0  0
 17 41  1  0  0  0  0
 17 42  1  0  0  0  0
 19 20  1  0  0  0  0
 19 43  1  0  0  0  0
 19 44  1  0  0  0  0
 20 45  1  0  0  0  0
 20 46  1  0  0  0  0
 21 22  1  0  0  0  0
 22 23  2  0  0  0  0
 22 47  1  0  0  0  0
 23 24  1  0  0  0  0
 24 48  1  0  0  0  0
 24 49  1  0  0  0  0
 24 50  1  0  0  0  0
M  CHG  1   5   1
M  CHG  1  12   1
M  END
> <s_m_source_file>
AV-unprocessed.smi

> <i_m_source_file_index>
1695

> <i_lp_mmshare_version>
43012

> <i_f3d_flags>
0

> <s_epik_input>
W0NIM11jKFtjSF0xKWMoW0NIM10pW2NIXWMoYzEyKW4oW2NIXW4yKVtDSDJdW0NASF0oW09IXSlbQ0gyXU4zW0NIMl1bQ0gyXVtDSF0oQyg9TylbTkgyXSlbQ0gyXVtDSDJdMw==

> <s_epik_cmdline>
J2VwaWtfcHl0aG9uJywgJy1waCcsICc3LjAnLCAnLXRuJywgJzgnLCAnLW1hJywgJzIwMCcsICctbWV0YWxfYmluZGluZycsICctaW1hZScsICc8aW5maWxlLm1hZT4nLCAnLW9tYWUnLCAnPG91dGZpbGUubWFlPic=

> <r_epik_Ionization_Penalty>
1.20173

> <r_epik_Ionization_Penalty_Charging>
1.20172

> <r_epik_Ionization_Penalty_Neutral>
1.7852e-06

> <r_epik_State_Penalty>
1.28089

> <r_epik_Charging_Adjusted_Penalty>
2.48261

> <i_epik_Tot_Q>
2

> <i_epik_Tot_abs_Q>
2

> <r_epik_Metal_State_Penalty>
1.35652

> <b_epik_Metal_Only>
0

> <s_lp_Force_Field>
OPLS_2005

> <r_lp_Energy>
30.6346

> <b_lp_Chiralities_Consistent>
1

> <s_lp_Variant>
AV-unprocessed.smi:1695-7

> <Gold.Version>
5.8.1

> <Gold.Id.Protein>
6NUR|6NUR_protein|mol2

> <Gold.PLP.Fitness>
51.9768

> <Gold.PLP.PLP>
-42.6178

> <Gold.PLP.part.hbond>
-3.2894

> <Gold.PLP.part.metal>
0.0000

> <Gold.PLP.part.buried>
-0.1875

> <Gold.PLP.part.nonpolar>
-40.1924

> <Gold.PLP.part.repulsive>
0.9973

> <Gold.PLP.ligand.clash>
0.0000

> <Gold.PLP.ligand.torsion>
1.1835

> <Gold.PLP.Chemscore.Hbond>
3.8963

> <Gold.PLP.Chemscore.CHOScore>
0.0000

> <Gold.PLP.Chemscore.Metal>
0.0000

> <Gold.Chemscore.Hbonds>
donor molecule, donor type, donor heavy atom, donor atom, acceptor molecule, acceptor atom, score
      L1  H    10    33       P1  7957  0.86
      L1  H    12    51       P1 10175  2.00
      P1  H  8011  8017       L1    10  1.00

> <Gold.PLP.Chemscore.Internal.Correction>
0.0370

> <Gold.Rescore>
     Score         DG    S(hbond)    S(metal)    S(lipo)     H(rot)  DE(clash)    DE(int)     intcor
     16.95     -18.28       2.13        0.00     112.27       2.91       0.06       1.27       ----

> <Gold.Chemscore.Fitness>
16.9540

> <Gold.Chemscore.DG>
-18.2772

> <Gold.Chemscore.ZeroCoef>
-5.4800

> <Gold.Chemscore.Hbond>
2.1311

> <Gold.Chemscore.Metal>
0.0000

> <Gold.Chemscore.Lipo>
112.2725

> <Gold.Chemscore.Internal_Hbond>
0.0000

> <Gold.Chemscore.DEClash>
0.0569

> <Gold.Chemscore.DEInternal>
1.2663

> <Gold.Chemscore.Rot>
2.9127

> <Gold.Chemscore.Internal.Correction>
   9.000000E+99

> <Gold.Chemscore.Hbonds>
donor molecule, donor type, donor heavy atom, donor atom, acceptor molecule, acceptor atom, score
      L1  H    10    33       P1  7957  0.81
      L1  H    12    51       P1 10175  0.94
      P1  H  8011  8017       L1    10  0.25

> <Gold.Chemscore.Hbond.Weighted>
-7.1178

> <Gold.Chemscore.Metal.Weighted>
-0.0000

> <Gold.Chemscore.Lipo.Weighted>
-13.1359

> <Gold.Chemscore.Internal_Hbond.Weighted>
0.0000

> <Gold.Chemscore.DEClash.Weighted>
0.0569

> <Gold.Chemscore.DEInternal.Weighted>
1.2663

> <Gold.Chemscore.Rot.Weighted>
7.4565

> <Gold.Chemscore.Internal.Correction.Weighted>
   9.000000E+99

> <Gold.Protein.RotatedTorsions>
[ 6907 6896 6895 6894 ] final   46.90 input  -60.11 | X-H torsion
[ 7974 7965 7964 7962 ] final  160.26 input  175.53 | X-H torsion
[ 8008 7997 7996 7995 ] final   57.63 input   59.86 | X-H torsion
[ 10167 10162 10161 10158 ] final  -80.98 input  -65.29 | X-H torsion
[ 10718 10713 10712 10709 ] final -146.90 input   66.30 | X-H torsion
[ 10763 10752 10751 10750 ] final  -56.16 input  -60.55 | X-H torsion
[ 11005 11000 10999 10996 ] final  -54.13 input  -57.11 | X-H torsion

> <Gold.Protein.ActiveResidues>
 VAL166  LYS551  ARG553  GLY616  TRP617  ASP618  TYR619  PRO620  LYS621  CYS622 
 ASP623  PHE694  ASN695  SER759  ASP760  ASP761  ALA762  ILE779  LEU786  VAL792 
 PHE793  MET794  SER795  GLU796  ALA797  LYS798  CYS799  TRP800  GLU811  SER814 

> <Gold.Protein.RotatedAtoms>
  152.2618  134.8026  160.0429 H   0  0  0  0  0  0  0  0  0  0  0  0  # atno 6907 bound_to 6896
  151.8669  133.3463  159.3730 H   0  0  0  0  0  0  0  0  0  0  0  0  # atno 6908 bound_to 6896
  150.7119  134.5078  159.5637 H   0  0  0  0  0  0  0  0  0  0  0  0  # atno 6909 bound_to 6896
  144.7746  139.7732  143.6283 H   0  0  0  0  0  0  0  0  0  0  0  0  # atno 7974 bound_to 7965
  155.5369  140.3483  155.4438 H   0  0  0  0  0  0  0  0  0  0  0  0  # atno 8008 bound_to 7997
  156.0679  140.1356  156.9891 H   0  0  0  0  0  0  0  0  0  0  0  0  # atno 8009 bound_to 7997
  154.4512  140.0972  156.6599 H   0  0  0  0  0  0  0  0  0  0  0  0  # atno 8010 bound_to 7997
  140.4454  143.2500  151.8566 H   0  0  0  0  0  0  0  0  0  0  0  0  # atno 10167 bound_to 10162
  156.4007  130.7932  151.2143 H   0  0  0  0  0  0  0  0  0  0  0  0  # atno 10718 bound_to 10713
  154.2023  135.6409  153.5091 H   0  0  0  0  0  0  0  0  0  0  0  0  # atno 10763 bound_to 10752
  153.0009  135.5454  154.6302 H   0  0  0  0  0  0  0  0  0  0  0  0  # atno 10764 bound_to 10752
  154.5718  135.2917  155.0793 H   0  0  0  0  0  0  0  0  0  0  0  0  # atno 10765 bound_to 10752
  141.1011  133.6618  156.4275 H   0  0  0  0  0  0  0  0  0  0  0  0  # atno 11005 bound_to 11000
  146.1917  139.5161  142.9800 LP  0  0  0  0  0  0  0  0  0  0  0  0  # atno 17320 bound_to 7965
  145.6222  141.0320  143.1908 LP  0  0  0  0  0  0  0  0  0  0  0  0  # atno 17321 bound_to 7965
  139.4792  144.5181  151.8839 LP  0  0  0  0  0  0  0  0  0  0  0  0  # atno 17342 bound_to 10162
  140.4270  144.2167  150.5887 LP  0  0  0  0  0  0  0  0  0  0  0  0  # atno 17343 bound_to 10162
  157.7504  131.0287  150.4062 LP  0  0  0  0  0  0  0  0  0  0  0  0  # atno 17370 bound_to 10713
  156.4341  130.3978  149.6740 LP  0  0  0  0  0  0  0  0  0  0  0  0  # atno 17371 bound_to 10713
  140.5020  134.6476  157.5252 LP  0  0  0  0  0  0  0  0  0  0  0  0  # atno 17394 bound_to 11000
  139.9862  134.7057  155.9769 LP  0  0  0  0  0  0  0  0  0  0  0  0  # atno 17395 bound_to 11000

$$$$
