AV-unprocessed.smi:26|AV-procd|sdf|185|dock7
  -GOLD-   2262015453D 1   1.00000     0.00000
 Structure written by MMmdl.
 58 61  0  0  0  0  0  0  0  0  1 V2000
  149.0412  140.7708  156.0061 C   0  0  0  0  0  0  0  0  0  0  0  0
  149.1886  139.7128  157.0545 C   0  0  0  0  0  0  0  0  0  0  0  0
  148.2054  138.9749  157.6427 C   0  0  0  0  0  0  0  0  0  0  0  0
  148.7978  138.0824  158.5757 C   0  0  0  0  0  0  0  0  0  0  0  0
  148.1135  137.1123  159.4687 C   0  0  0  0  0  0  0  0  0  0  0  0
  148.1989  137.1453  160.6970 O   0  0  0  0  0  0  0  0  0  0  0  0
  147.2548  136.0458  158.7630 C   0  0  0  0  0  0  0  0  0  0  0  0
  146.1505  135.5658  159.5850 N   0  0  0  0  0  0  0  0  0  0  0  0
  146.4693  134.9070  160.7987 C   0  0  0  0  0  0  0  0  0  0  0  0
  147.6334  134.7391  161.1666 O   0  0  0  0  0  0  0  0  0  0  0  0
  145.3128  134.4615  161.5681 C   0  0  0  0  0  0  0  0  0  0  0  0
  145.4984  133.8132  162.7305 F   0  0  0  0  0  0  0  0  0  0  0  0
  144.0545  134.6876  161.1322 C   0  0  0  0  0  0  0  0  0  0  0  0
  143.7722  135.3501  159.9485 N   0  0  0  0  0  0  0  0  0  0  0  0
  142.3526  135.5969  159.4839 C   0  0  2  0  0  0  0  0  0  0  0  0
  141.5849  136.4462  160.5138 C   0  0  0  0  0  0  0  0  0  0  0  0
  140.3121  135.6496  160.7191 C   0  0  0  0  0  0  0  0  0  0  0  0
  140.7878  134.2269  160.4673 C   0  0  0  0  0  0  0  0  0  0  0  0
  141.6722  134.3798  159.3647 O   0  0  0  0  0  0  0  0  0  0  0  0
  144.8307  135.8124  159.1364 C   0  0  0  0  0  0  0  0  0  0  0  0
  144.6010  136.4161  158.0856 O   0  0  0  0  0  0  0  0  0  0  0  0
  150.1592  138.2806  158.5211 C   0  0  0  0  0  0  0  0  0  0  0  0
  151.2876  137.5899  159.2381 C   0  0  0  0  0  0  0  0  0  0  0  0
  150.4055  139.3201  157.6159 N   0  0  0  0  0  0  0  0  0  0  0  0
  151.7354  139.8616  157.2925 C   0  0  1  0  0  0  0  0  0  0  0  0
  152.0458  139.7029  155.7916 C   0  0  0  0  0  0  0  0  0  0  0  0
  151.9586  141.2595  157.8751 C   0  0  0  0  0  0  0  0  0  0  0  0
  151.2797  142.3543  157.2949 C   0  0  0  0  0  0  0  0  0  0  0  0
  151.4564  143.6570  157.7986 C   0  0  0  0  0  0  0  0  0  0  0  0
  152.3117  143.8777  158.8938 C   0  0  0  0  0  0  0  0  0  0  0  0
  152.9881  142.7942  159.4841 C   0  0  0  0  0  0  0  0  0  0  0  0
  152.8123  141.4910  158.9799 C   0  0  0  0  0  0  0  0  0  0  0  0
  148.0540  140.7205  155.5464 H   0  0  0  0  0  0  0  0  0  0  0  0
  149.7741  140.6570  155.2095 H   0  0  0  0  0  0  0  0  0  0  0  0
  149.1484  141.7661  156.4370 H   0  0  0  0  0  0  0  0  0  0  0  0
  147.1526  139.0747  157.4225 H   0  0  0  0  0  0  0  0  0  0  0  0
  146.8426  136.4325  157.8299 H   0  0  0  0  0  0  0  0  0  0  0  0
  147.8585  135.1832  158.4763 H   0  0  0  0  0  0  0  0  0  0  0  0
  143.2472  134.3277  161.7511 H   0  0  0  0  0  0  0  0  0  0  0  0
  142.4381  136.0583  158.4985 H   0  0  0  0  0  0  0  0  0  0  0  0
  142.1483  136.5099  161.4462 H   0  0  0  0  0  0  0  0  0  0  0  0
  141.4071  137.4538  160.1373 H   0  0  0  0  0  0  0  0  0  0  0  0
  139.8770  135.7858  161.7092 H   0  0  0  0  0  0  0  0  0  0  0  0
  139.5674  135.9319  159.9739 H   0  0  0  0  0  0  0  0  0  0  0  0
  141.3271  133.8396  161.3327 H   0  0  0  0  0  0  0  0  0  0  0  0
  139.9710  133.5430  160.2352 H   0  0  0  0  0  0  0  0  0  0  0  0
  151.0081  136.5974  159.5857 H   0  0  0  0  0  0  0  0  0  0  0  0
  151.6128  138.1715  160.1006 H   0  0  0  0  0  0  0  0  0  0  0  0
  152.1452  137.4378  158.5836 H   0  0  0  0  0  0  0  0  0  0  0  0
  152.4794  139.2662  157.8189 H   0  0  0  0  0  0  0  0  0  0  0  0
  153.0727  139.9938  155.5696 H   0  0  0  0  0  0  0  0  0  0  0  0
  151.3845  140.3007  155.1660 H   0  0  0  0  0  0  0  0  0  0  0  0
  151.9314  138.6638  155.4816 H   0  0  0  0  0  0  0  0  0  0  0  0
  150.6213  142.1954  156.4533 H   0  0  0  0  0  0  0  0  0  0  0  0
  150.9353  144.4866  157.3442 H   0  0  0  0  0  0  0  0  0  0  0  0
  152.4479  144.8766  159.2815 H   0  0  0  0  0  0  0  0  0  0  0  0
  153.6440  142.9626  160.3255 H   0  0  0  0  0  0  0  0  0  0  0  0
  153.3479  140.6817  159.4516 H   0  0  0  0  0  0  0  0  0  0  0  0
  1  2  1  0  0  0  0
  1 33  1  0  0  0  0
  1 34  1  0  0  0  0
  1 35  1  0  0  0  0
  2 24  1  0  0  0  0
  2  3  2  0  0  0  0
  3  4  1  0  0  0  0
  3 36  1  0  0  0  0
  4  5  1  0  0  0  0
  4 22  2  0  0  0  0
  5  6  2  0  0  0  0
  5  7  1  0  0  0  0
  7  8  1  0  0  0  0
  7 37  1  0  0  0  0
  7 38  1  0  0  0  0
  8 20  1  0  0  0  0
  8  9  1  0  0  0  0
  9 10  2  0  0  0  0
  9 11  1  0  0  0  0
 11 12  1  0  0  0  0
 11 13  2  0  0  0  0
 13 14  1  0  0  0  0
 13 39  1  0  0  0  0
 14 15  1  0  0  0  0
 14 20  1  0  0  0  0
 15 19  1  0  0  0  0
 15 16  1  0  0  0  0
 15 40  1  0  0  0  0
 16 17  1  0  0  0  0
 16 41  1  0  0  0  0
 16 42  1  0  0  0  0
 17 18  1  0  0  0  0
 17 43  1  0  0  0  0
 17 44  1  0  0  0  0
 18 19  1  0  0  0  0
 18 45  1  0  0  0  0
 18 46  1  0  0  0  0
 20 21  2  0  0  0  0
 22 23  1  0  0  0  0
 22 24  1  0  0  0  0
 23 47  1  0  0  0  0
 23 48  1  0  0  0  0
 23 49  1  0  0  0  0
 24 25  1  0  0  0  0
 25 26  1  0  0  0  0
 25 27  1  0  0  0  0
 25 50  1  0  0  0  0
 26 51  1  0  0  0  0
 26 52  1  0  0  0  0
 26 53  1  0  0  0  0
 27 32  1  0  0  0  0
 27 28  2  0  0  0  0
 28 29  1  0  0  0  0
 28 54  1  0  0  0  0
 29 30  2  0  0  0  0
 29 55  1  0  0  0  0
 30 31  1  0  0  0  0
 30 56  1  0  0  0  0
 31 32  2  0  0  0  0
 31 57  1  0  0  0  0
 32 58  1  0  0  0  0
M  END
> <s_m_source_file>
AV-unprocessed.smi

> <i_m_source_file_index>
26

> <i_lp_mmshare_version>
43012

> <i_f3d_flags>
0

> <s_epik_input>
W2NIXTFbY0hdW2NIXVtjSF1bY0hdYzFbQ0BASF0oW0NIM10pbjJjKFtDSDNdKWMoW2NIXWMyW0NIM10pQyg9TylbQ0gyXW4zYyg9TyljKEYpW2NIXW4oYzM9TylbQ0BASF00W0NIMl1bQ0gyXVtDSDJdTzQ=

> <s_epik_cmdline>
J2VwaWtfcHl0aG9uJywgJy1waCcsICc3LjAnLCAnLXRuJywgJzgnLCAnLW1hJywgJzIwMCcsICctbWV0YWxfYmluZGluZycsICctaW1hZScsICc8aW5maWxlLm1hZT4nLCAnLW9tYWUnLCAnPG91dGZpbGUubWFlPic=

> <r_lp_tautomer_probability>
1

> <r_epik_Ionization_Penalty>
5.02402e-09

> <r_epik_Ionization_Penalty_Charging>
5.01743e-09

> <r_epik_Ionization_Penalty_Neutral>
6.58831e-12

> <r_epik_State_Penalty>
-0

> <r_epik_Charging_Adjusted_Penalty>
5.01743e-09

> <i_epik_Tot_Q>
0

> <i_epik_Tot_abs_Q>
0

> <r_epik_Metal_State_Penalty>
-0

> <b_epik_Metal_Only>
0

> <s_epik_Chemistry_Notes>
This compound contains an acetal/aminal-like group ( X-CH(R)-Y where X, Y are N, S, or O) that may be acid/base labile, releasing an aldehyde.

> <s_lp_Force_Field>
OPLS_2005

> <r_lp_Energy>
50.3932

> <b_lp_Chiralities_Consistent>
1

> <s_lp_Variant>
AV-unprocessed.smi:26-3

> <Gold.Version>
5.8.1

> <Gold.Id.Protein>
6NUR|6NUR_protein|mol2

> <Gold.PLP.Fitness>
45.8137

> <Gold.PLP.PLP>
-42.3335

> <Gold.PLP.part.hbond>
-3.0000

> <Gold.PLP.part.metal>
0.0000

> <Gold.PLP.part.buried>
-5.9351

> <Gold.PLP.part.nonpolar>
-34.9285

> <Gold.PLP.part.repulsive>
0.0000

> <Gold.PLP.ligand.clash>
0.0000

> <Gold.PLP.ligand.torsion>
1.7958

> <Gold.PLP.Chemscore.Hbond>
2.2665

> <Gold.PLP.Chemscore.CHOScore>
0.0000

> <Gold.PLP.Chemscore.Metal>
0.0000

> <Gold.Chemscore.Hbonds>
donor molecule, donor type, donor heavy atom, donor atom, acceptor molecule, acceptor atom, score
      P1  H  6931  6943       L1     6  0.85
      P1  H  6934  6947       L1     6  0.39
      P1  H 11000 11005       L1    19  1.00

> <Gold.PLP.Chemscore.Internal.Correction>
0.2724

> <Gold.Rescore>
     Score         DG    S(hbond)    S(metal)    S(lipo)     H(rot)  DE(clash)    DE(int)     intcor
     15.24     -19.64       1.94        0.00     105.91       1.84       0.00       4.40       ----

> <Gold.Chemscore.Fitness>
15.2392

> <Gold.Chemscore.DG>
-19.6388

> <Gold.Chemscore.ZeroCoef>
-5.4800

> <Gold.Chemscore.Hbond>
1.9362

> <Gold.Chemscore.Metal>
0.0000

> <Gold.Chemscore.Lipo>
105.9149

> <Gold.Chemscore.Internal_Hbond>
0.0000

> <Gold.Chemscore.DEClash>
0.0009

> <Gold.Chemscore.DEInternal>
4.3988

> <Gold.Chemscore.Rot>
1.8359

> <Gold.Chemscore.Internal.Correction>
   9.000000E+99

> <Gold.Chemscore.Hbonds>
donor molecule, donor type, donor heavy atom, donor atom, acceptor molecule, acceptor atom, score
      P1  H  6931  6943       L1     6  0.85
      P1  H  6934  6947       L1     6  0.06
      P1  H 11000 11005       L1    19  0.57

> <Gold.Chemscore.Hbond.Weighted>
-6.4668

> <Gold.Chemscore.Metal.Weighted>
-0.0000

> <Gold.Chemscore.Lipo.Weighted>
-12.3920

> <Gold.Chemscore.Internal_Hbond.Weighted>
0.0000

> <Gold.Chemscore.DEClash.Weighted>
0.0009

> <Gold.Chemscore.DEInternal.Weighted>
4.3988

> <Gold.Chemscore.Rot.Weighted>
4.7000

> <Gold.Chemscore.Internal.Correction.Weighted>
   9.000000E+99

> <Gold.Protein.RotatedTorsions>
[ 6907 6896 6895 6894 ] final  172.83 input  -60.11 | X-H torsion
[ 7974 7965 7964 7962 ] final -118.05 input  175.53 | X-H torsion
[ 8008 7997 7996 7995 ] final -157.86 input   59.86 | X-H torsion
[ 10167 10162 10161 10158 ] final  -22.53 input  -65.29 | X-H torsion
[ 10718 10713 10712 10709 ] final  171.28 input   66.30 | X-H torsion
[ 10763 10752 10751 10750 ] final    5.86 input  -60.55 | X-H torsion
[ 11005 11000 10999 10996 ] final -148.89 input  -57.11 | X-H torsion

> <Gold.Protein.ActiveResidues>
 VAL166  LYS551  ARG553  GLY616  TRP617  ASP618  TYR619  PRO620  LYS621  CYS622 
 ASP623  PHE694  ASN695  SER759  ASP760  ASP761  ALA762  ILE779  LEU786  VAL792 
 PHE793  MET794  SER795  GLU796  ALA797  LYS798  CYS799  TRP800  GLU811  SER814 

> <Gold.Protein.RotatedAtoms>
  151.7780  133.3347  159.3463 H   0  0  0  0  0  0  0  0  0  0  0  0  # atno 6907 bound_to 6896
  150.7437  134.5957  159.6020 H   0  0  0  0  0  0  0  0  0  0  0  0  # atno 6908 bound_to 6896
  152.3296  134.7278  160.0344 H   0  0  0  0  0  0  0  0  0  0  0  0  # atno 6909 bound_to 6896
  145.0782  140.8407  143.4055 H   0  0  0  0  0  0  0  0  0  0  0  0  # atno 7974 bound_to 7965
  155.7388  140.0811  157.2255 H   0  0  0  0  0  0  0  0  0  0  0  0  # atno 8008 bound_to 7997
  154.4024  140.1581  156.2647 H   0  0  0  0  0  0  0  0  0  0  0  0  # atno 8009 bound_to 7997
  155.9040  140.3408  155.6050 H   0  0  0  0  0  0  0  0  0  0  0  0  # atno 8010 bound_to 7997
  140.7286  143.4526  151.0495 H   0  0  0  0  0  0  0  0  0  0  0  0  # atno 10167 bound_to 10162
  156.9958  131.0161  151.2844 H   0  0  0  0  0  0  0  0  0  0  0  0  # atno 10718 bound_to 10713
  153.2545  135.6917  153.7644 H   0  0  0  0  0  0  0  0  0  0  0  0  # atno 10763 bound_to 10752
  153.6726  135.3342  155.3158 H   0  0  0  0  0  0  0  0  0  0  0  0  # atno 10764 bound_to 10752
  154.8407  135.4503  154.1513 H   0  0  0  0  0  0  0  0  0  0  0  0  # atno 10765 bound_to 10752
  140.7565  134.3347  157.5113 H   0  0  0  0  0  0  0  0  0  0  0  0  # atno 11005 bound_to 11000
  145.1210  139.2694  143.5588 LP  0  0  0  0  0  0  0  0  0  0  0  0  # atno 17320 bound_to 7965
  146.3530  140.0833  142.8616 LP  0  0  0  0  0  0  0  0  0  0  0  0  # atno 17321 bound_to 7965
  139.8203  143.7829  152.3176 LP  0  0  0  0  0  0  0  0  0  0  0  0  # atno 17342 bound_to 10162
  139.7909  144.7410  150.9956 LP  0  0  0  0  0  0  0  0  0  0  0  0  # atno 17343 bound_to 10162
  157.5426  130.8129  149.8047 LP  0  0  0  0  0  0  0  0  0  0  0  0  # atno 17370 bound_to 10713
  156.0190  130.3803  150.2022 LP  0  0  0  0  0  0  0  0  0  0  0  0  # atno 17371 bound_to 10713
  139.8778  134.9175  156.3180 LP  0  0  0  0  0  0  0  0  0  0  0  0  # atno 17394 bound_to 11000
  140.9703  133.7332  156.0524 LP  0  0  0  0  0  0  0  0  0  0  0  0  # atno 17395 bound_to 11000

$$$$
