AV-unprocessed.smi:2054|AV-procd|sdf|8332|dock10
  -GOLD-   2272011 03D 1   1.00000     0.00000
 Structure written by MMmdl.
 42 43  0  0  0  0  0  0  0  0  1 V2000
  150.8167  132.5582  155.6321 C   0  0  0  0  0  0  0  0  0  0  0  0
  149.5348  133.6387  156.3919 S   0  0  0  0  0  0  0  0  0  0  0  0
  148.3202  133.5331  155.5689 O   0  0  0  0  0  0  0  0  0  0  0  0
  149.4694  133.3677  157.8360 O   0  0  0  0  0  0  0  0  0  0  0  0
  150.1858  135.2332  156.1816 N   0  0  0  0  0  0  0  0  0  0  0  0
  149.9621  135.8925  154.8793 C   0  0  0  0  0  0  0  0  0  0  0  0
  150.2112  137.4071  154.9626 C   0  0  0  0  0  0  0  0  0  0  0  0
  151.6181  137.7101  155.5025 C   0  0  0  0  0  0  0  0  0  0  0  0
  151.8678  139.2213  155.5938 C   0  0  0  0  0  0  0  0  0  0  0  0
  152.7333  139.7522  154.8972 O   0  0  0  0  0  0  0  0  0  0  0  0
  151.1015  139.9027  156.4594 N   0  0  0  0  0  0  0  0  0  0  0  0
  151.1749  141.3403  156.6937 C   0  0  0  0  0  0  0  0  0  0  0  0
  150.5397  141.7301  158.0387 C   0  0  0  0  0  0  0  0  0  0  0  0
  151.0756  143.0487  158.5638 C   0  0  0  0  0  0  0  0  0  0  0  0
  151.9921  143.8073  157.8044 C   0  0  0  0  0  0  0  0  0  0  0  0
  152.4672  145.0194  158.3417 C   0  0  0  0  0  0  0  0  0  0  0  0
  152.0109  145.4239  159.6110 C   0  0  0  0  0  0  0  0  0  0  0  0
  151.0960  144.5943  160.2896 C   0  0  0  0  0  0  0  0  0  0  0  0
  150.6347  143.4301  159.7838 N   0  0  0  0  0  0  0  0  0  0  0  0
  151.7603  137.0371  156.8769 C   0  0  0  0  0  0  0  0  0  0  0  0
  151.4997  135.5238  156.7907 C   0  0  0  0  0  0  0  0  0  0  0  0
  150.4678  131.5259  155.6436 H   0  0  0  0  0  0  0  0  0  0  0  0
  151.7468  132.6246  156.1946 H   0  0  0  0  0  0  0  0  0  0  0  0
  150.9900  132.8683  154.6021 H   0  0  0  0  0  0  0  0  0  0  0  0
  150.6217  135.4412  154.1370 H   0  0  0  0  0  0  0  0  0  0  0  0
  148.9425  135.7118  154.5428 H   0  0  0  0  0  0  0  0  0  0  0  0
  150.0836  137.8506  153.9743 H   0  0  0  0  0  0  0  0  0  0  0  0
  149.4527  137.8599  155.6036 H   0  0  0  0  0  0  0  0  0  0  0  0
  152.3533  137.2746  154.8233 H   0  0  0  0  0  0  0  0  0  0  0  0
  150.4150  139.3882  156.9922 H   0  0  0  0  0  0  0  0  0  0  0  0
  152.2124  141.6761  156.6470 H   0  0  0  0  0  0  0  0  0  0  0  0
  150.6505  141.8402  155.8790 H   0  0  0  0  0  0  0  0  0  0  0  0
  149.4563  141.8010  157.9324 H   0  0  0  0  0  0  0  0  0  0  0  0
  150.7239  140.9544  158.7837 H   0  0  0  0  0  0  0  0  0  0  0  0
  152.3264  143.4691  156.8346 H   0  0  0  0  0  0  0  0  0  0  0  0
  153.1696  145.6270  157.7905 H   0  0  0  0  0  0  0  0  0  0  0  0
  152.3542  146.3469  160.0541 H   0  0  0  0  0  0  0  0  0  0  0  0
  150.7259  144.8730  161.2652 H   0  0  0  0  0  0  0  0  0  0  0  0
  152.7592  137.2105  157.2793 H   0  0  0  0  0  0  0  0  0  0  0  0
  151.0611  137.4797  157.5885 H   0  0  0  0  0  0  0  0  0  0  0  0
  151.5466  135.0991  157.7931 H   0  0  0  0  0  0  0  0  0  0  0  0
  152.2779  135.0354  156.2029 H   0  0  0  0  0  0  0  0  0  0  0  0
  1  2  1  0  0  0  0
  1 22  1  0  0  0  0
  1 23  1  0  0  0  0
  1 24  1  0  0  0  0
  2  3  2  0  0  0  0
  2  4  2  0  0  0  0
  2  5  1  0  0  0  0
  5 21  1  0  0  0  0
  5  6  1  0  0  0  0
  6  7  1  0  0  0  0
  6 25  1  0  0  0  0
  6 26  1  0  0  0  0
  7  8  1  0  0  0  0
  7 27  1  0  0  0  0
  7 28  1  0  0  0  0
  8  9  1  0  0  0  0
  8 20  1  0  0  0  0
  8 29  1  0  0  0  0
  9 10  2  0  0  0  0
  9 11  1  0  0  0  0
 11 12  1  0  0  0  0
 11 30  1  0  0  0  0
 12 13  1  0  0  0  0
 12 31  1  0  0  0  0
 12 32  1  0  0  0  0
 13 14  1  0  0  0  0
 13 33  1  0  0  0  0
 13 34  1  0  0  0  0
 14 19  1  0  0  0  0
 14 15  2  0  0  0  0
 15 16  1  0  0  0  0
 15 35  1  0  0  0  0
 16 17  2  0  0  0  0
 16 36  1  0  0  0  0
 17 18  1  0  0  0  0
 17 37  1  0  0  0  0
 18 19  2  0  0  0  0
 18 38  1  0  0  0  0
 20 21  1  0  0  0  0
 20 39  1  0  0  0  0
 20 40  1  0  0  0  0
 21 41  1  0  0  0  0
 21 42  1  0  0  0  0
M  END
> <s_m_source_file>
AV-unprocessed.smi

> <i_m_source_file_index>
2054

> <i_lp_mmshare_version>
43012

> <i_f3d_flags>
0

> <s_epik_input>
W0NIM11TKD1PKSg9TylOMVtDSDJdW0NIMl1bQ0hdKFtDSDJdW0NIMl0xKUMoPU8pW05IXVtDSDJdW0NIMl1jMltjSF1bY0hdW2NIXVtjSF1uMg==

> <s_epik_cmdline>
J2VwaWtfcHl0aG9uJywgJy1waCcsICc3LjAnLCAnLXRuJywgJzgnLCAnLW1hJywgJzIwMCcsICctbWV0YWxfYmluZGluZycsICctaW1hZScsICc8aW5maWxlLm1hZT4nLCAnLW9tYWUnLCAnPG91dGZpbGUubWFlPic=

> <r_epik_Ionization_Penalty>
0.0277532

> <r_epik_Ionization_Penalty_Charging>
0

> <r_epik_Ionization_Penalty_Neutral>
0.0277532

> <r_epik_State_Penalty>
0.022734

> <r_epik_Charging_Adjusted_Penalty>
0.022734

> <i_epik_Tot_Q>
0

> <i_epik_Tot_abs_Q>
0

> <r_epik_Metal_State_Penalty>
0.021713

> <b_epik_Metal_Only>
0

> <s_lp_Force_Field>
OPLS_2005

> <r_lp_Energy>
2.16831

> <b_lp_Chiralities_Consistent>
1

> <s_lp_Variant>
AV-unprocessed.smi:2054-1

> <Gold.Version>
5.8.1

> <Gold.Id.Protein>
6NUR|6NUR_protein|mol2

> <Gold.PLP.Fitness>
44.4719

> <Gold.PLP.PLP>
-37.8807

> <Gold.PLP.part.hbond>
-3.7861

> <Gold.PLP.part.metal>
0.0000

> <Gold.PLP.part.buried>
-5.7239

> <Gold.PLP.part.nonpolar>
-28.8350

> <Gold.PLP.part.repulsive>
0.2345

> <Gold.PLP.ligand.clash>
0.0000

> <Gold.PLP.ligand.torsion>
0.8219

> <Gold.PLP.Chemscore.Hbond>
2.4873

> <Gold.PLP.Chemscore.CHOScore>
0.0000

> <Gold.PLP.Chemscore.Metal>
0.0000

> <Gold.Chemscore.Hbonds>
donor molecule, donor type, donor heavy atom, donor atom, acceptor molecule, acceptor atom, score
      P1  H  6896  6908       L1     4  0.89
      P1  H  7989  7998       L1    10  0.47
      P1  H  7997  8009       L1    10  0.99

> <Gold.PLP.Chemscore.Internal.Correction>
0.7732

> <Gold.Rescore>
     Score         DG    S(hbond)    S(metal)    S(lipo)     H(rot)  DE(clash)    DE(int)     intcor
     18.73     -19.60       2.10        0.00     101.11       1.84       0.08       0.79       ----

> <Gold.Chemscore.Fitness>
18.7270

> <Gold.Chemscore.DG>
-19.5957

> <Gold.Chemscore.ZeroCoef>
-5.4800

> <Gold.Chemscore.Hbond>
2.0961

> <Gold.Chemscore.Metal>
0.0000

> <Gold.Chemscore.Lipo>
101.1118

> <Gold.Chemscore.Internal_Hbond>
0.0000

> <Gold.Chemscore.DEClash>
0.0771

> <Gold.Chemscore.DEInternal>
0.7916

> <Gold.Chemscore.Rot>
1.8419

> <Gold.Chemscore.Internal.Correction>
   9.000000E+99

> <Gold.Chemscore.Hbonds>
donor molecule, donor type, donor heavy atom, donor atom, acceptor molecule, acceptor atom, score
      P1  H  6896  6908       L1     4  0.82
      P1  H  7989  7998       L1    10  0.22
      P1  H  7997  8009       L1    10  0.79

> <Gold.Chemscore.Hbond.Weighted>
-7.0009

> <Gold.Chemscore.Metal.Weighted>
-0.0000

> <Gold.Chemscore.Lipo.Weighted>
-11.8301

> <Gold.Chemscore.Internal_Hbond.Weighted>
0.0000

> <Gold.Chemscore.DEClash.Weighted>
0.0771

> <Gold.Chemscore.DEInternal.Weighted>
0.7916

> <Gold.Chemscore.Rot.Weighted>
4.7153

> <Gold.Chemscore.Internal.Correction.Weighted>
   9.000000E+99

> <Gold.Protein.RotatedTorsions>
[ 6907 6896 6895 6894 ] final   99.65 input  -60.11 | X-H torsion
[ 7974 7965 7964 7962 ] final   64.54 input  175.53 | X-H torsion
[ 8008 7997 7996 7995 ] final -139.07 input   59.86 | X-H torsion
[ 10167 10162 10161 10158 ] final  -54.77 input  -65.29 | X-H torsion
[ 10718 10713 10712 10709 ] final  -88.55 input   66.30 | X-H torsion
[ 10763 10752 10751 10750 ] final  163.50 input  -60.55 | X-H torsion
[ 11005 11000 10999 10996 ] final   70.44 input  -57.11 | X-H torsion

> <Gold.Protein.ActiveResidues>
 VAL166  LYS551  ARG553  GLY616  TRP617  ASP618  TYR619  PRO620  LYS621  CYS622 
 ASP623  PHE694  ASN695  SER759  ASP760  ASP761  ALA762  ILE779  LEU786  VAL792 
 PHE793  MET794  SER795  GLU796  ALA797  LYS798  CYS799  TRP800  GLU811  SER814 

> <Gold.Protein.RotatedAtoms>
  152.5388  134.0396  159.8061 H   0  0  0  0  0  0  0  0  0  0  0  0  # atno 6907 bound_to 6896
  151.0554  133.5581  159.2646 H   0  0  0  0  0  0  0  0  0  0  0  0  # atno 6908 bound_to 6896
  151.2499  135.0626  159.9112 H   0  0  0  0  0  0  0  0  0  0  0  0  # atno 6909 bound_to 6896
  145.8490  139.3242  143.0886 H   0  0  0  0  0  0  0  0  0  0  0  0  # atno 7974 bound_to 7965
  155.4387  140.0530  157.3012 H   0  0  0  0  0  0  0  0  0  0  0  0  # atno 8008 bound_to 7997
  154.4827  140.2088  155.9683 H   0  0  0  0  0  0  0  0  0  0  0  0  # atno 8009 bound_to 7997
  156.1230  140.3185  155.8241 H   0  0  0  0  0  0  0  0  0  0  0  0  # atno 8010 bound_to 7997
  140.6412  143.2509  151.4984 H   0  0  0  0  0  0  0  0  0  0  0  0  # atno 10167 bound_to 10162
  155.9983  130.4839  150.5035 H   0  0  0  0  0  0  0  0  0  0  0  0  # atno 10718 bound_to 10713
  154.2946  135.2760  155.2639 H   0  0  0  0  0  0  0  0  0  0  0  0  # atno 10763 bound_to 10752
  154.5103  135.5784  153.6603 H   0  0  0  0  0  0  0  0  0  0  0  0  # atno 10764 bound_to 10752
  152.9909  135.6179  154.3113 H   0  0  0  0  0  0  0  0  0  0  0  0  # atno 10765 bound_to 10752
  139.9598  134.7081  156.0672 H   0  0  0  0  0  0  0  0  0  0  0  0  # atno 11005 bound_to 11000
  145.9379  140.9001  143.0323 LP  0  0  0  0  0  0  0  0  0  0  0  0  # atno 17320 bound_to 7965
  144.6730  140.1508  143.7430 LP  0  0  0  0  0  0  0  0  0  0  0  0  # atno 17321 bound_to 7965
  139.5621  144.2131  152.1708 LP  0  0  0  0  0  0  0  0  0  0  0  0  # atno 17342 bound_to 10162
  140.1402  144.5209  150.6749 LP  0  0  0  0  0  0  0  0  0  0  0  0  # atno 17343 bound_to 10162
  157.3017  131.0646  151.2063 LP  0  0  0  0  0  0  0  0  0  0  0  0  # atno 17370 bound_to 10713
  157.3040  130.6857  149.6179 LP  0  0  0  0  0  0  0  0  0  0  0  0  # atno 17371 bound_to 10713
  141.1273  133.6595  156.3371 LP  0  0  0  0  0  0  0  0  0  0  0  0  # atno 17394 bound_to 11000
  140.5527  134.6012  157.5412 LP  0  0  0  0  0  0  0  0  0  0  0  0  # atno 17395 bound_to 11000

$$$$
