AV-unprocessed.smi:1427|AV-procd|sdf|5809|dock10
  -GOLD-   22720 5463D 1   1.00000     0.00000
 Structure written by MMmdl.
 33 34  0  0  0  0  0  0  0  0  1 V2000
  154.4766  140.5323  161.3573 C   0  0  0  0  0  0  0  0  0  0  0  0
  153.6020  141.4014  160.4415 C   0  0  2  0  0  0  0  0  0  0  0  0
  152.7787  142.4275  161.2449 C   0  0  0  0  0  0  0  0  0  0  0  0
  152.3990  143.5780  160.4422 N   0  0  0  0  0  0  0  0  0  0  0  0
  151.7580  144.7297  160.8468 C   0  0  0  0  0  0  0  0  0  0  0  0
  151.6337  145.5324  159.7491 C   0  0  0  0  0  0  0  0  0  0  0  0
  152.2378  144.7761  158.7063 C   0  0  0  0  0  0  0  0  0  0  0  0
  152.6914  143.6053  159.1232 N   0  0  0  0  0  0  0  0  0  0  0  0
  152.7041  140.5586  159.6579 N   0  0  0  0  0  0  0  0  0  0  0  0
  153.0654  139.7138  158.6784 C   0  0  0  0  0  0  0  0  0  0  0  0
  154.2409  139.4886  158.3915 O   0  0  0  0  0  0  0  0  0  0  0  0
  151.9449  139.0108  157.8873 C   0  0  2  0  0  0  0  0  0  0  0  0
  152.4557  138.1237  156.7348 C   0  0  0  0  0  0  0  0  0  0  0  0
  152.2557  138.9652  155.4672 C   0  0  0  0  0  0  0  0  0  0  0  0
  151.1939  139.9638  155.8989 C   0  0  0  0  0  0  0  0  0  0  0  0
  150.5848  140.6898  155.1170 O   0  0  0  0  0  0  0  0  0  0  0  0
  151.0295  139.9291  157.2222 N   0  0  0  0  0  0  0  0  0  0  0  0
  155.1626  141.1469  161.9405 H   0  0  0  0  0  0  0  0  0  0  0  0
  155.0778  139.8299  160.7792 H   0  0  0  0  0  0  0  0  0  0  0  0
  153.8695  139.9558  162.0561 H   0  0  0  0  0  0  0  0  0  0  0  0
  154.2588  141.9530  159.7660 H   0  0  0  0  0  0  0  0  0  0  0  0
  151.8786  141.9652  161.6546 H   0  0  0  0  0  0  0  0  0  0  0  0
  153.3570  142.7883  162.0963 H   0  0  0  0  0  0  0  0  0  0  0  0
  151.4508  144.8813  161.8711 H   0  0  0  0  0  0  0  0  0  0  0  0
  151.1820  146.5121  159.6997 H   0  0  0  0  0  0  0  0  0  0  0  0
  152.3592  145.0408  157.6664 H   0  0  0  0  0  0  0  0  0  0  0  0
  151.7153  140.6812  159.8233 H   0  0  0  0  0  0  0  0  0  0  0  0
  151.3775  138.4043  158.5942 H   0  0  0  0  0  0  0  0  0  0  0  0
  153.4942  137.8125  156.8569 H   0  0  0  0  0  0  0  0  0  0  0  0
  151.8538  137.2158  156.6713 H   0  0  0  0  0  0  0  0  0  0  0  0
  153.1653  139.5033  155.1980 H   0  0  0  0  0  0  0  0  0  0  0  0
  151.9320  138.3664  154.6154 H   0  0  0  0  0  0  0  0  0  0  0  0
  150.3742  140.5073  157.7280 H   0  0  0  0  0  0  0  0  0  0  0  0
  1  2  1  0  0  0  0
  1 18  1  0  0  0  0
  1 19  1  0  0  0  0
  1 20  1  0  0  0  0
  2  3  1  0  0  0  0
  2  9  1  0  0  0  0
  2 21  1  0  0  0  0
  3  4  1  0  0  0  0
  3 22  1  0  0  0  0
  3 23  1  0  0  0  0
  4  8  1  0  0  0  0
  4  5  1  0  0  0  0
  5  6  2  0  0  0  0
  5 24  1  0  0  0  0
  6  7  1  0  0  0  0
  6 25  1  0  0  0  0
  7  8  2  0  0  0  0
  7 26  1  0  0  0  0
  9 10  1  0  0  0  0
  9 27  1  0  0  0  0
 10 11  2  0  0  0  0
 10 12  1  0  0  0  0
 12 17  1  0  0  0  0
 12 13  1  0  0  0  0
 12 28  1  0  0  0  0
 13 14  1  0  0  0  0
 13 29  1  0  0  0  0
 13 30  1  0  0  0  0
 14 15  1  0  0  0  0
 14 31  1  0  0  0  0
 14 32  1  0  0  0  0
 15 16  2  0  0  0  0
 15 17  1  0  0  0  0
 17 33  1  0  0  0  0
M  END
> <s_m_source_file>
AV-unprocessed.smi

> <i_m_source_file_index>
1427

> <i_lp_mmshare_version>
43012

> <i_f3d_flags>
0

> <s_epik_input>
bjFbY0hdW2NIXVtjSF1uMVtDSDJdW0NAQEhdKFtDSDNdKVtOSF1DKD1PKVtDQEBIXTJbQ0gyXVtDSDJdQyg9TylbTkhdMg==

> <s_epik_cmdline>
J2VwaWtfcHl0aG9uJywgJy1waCcsICc3LjAnLCAnLXRuJywgJzgnLCAnLW1hJywgJzIwMCcsICctbWV0YWxfYmluZGluZycsICctaW1hZScsICc8aW5maWxlLm1hZT4nLCAnLW9tYWUnLCAnPG91dGZpbGUubWFlPic=

> <r_lp_tautomer_probability>
1

> <r_epik_Ionization_Penalty>
0.000310707

> <r_epik_Ionization_Penalty_Charging>
0

> <r_epik_Ionization_Penalty_Neutral>
0.000310707

> <r_epik_State_Penalty>
-0

> <r_epik_Charging_Adjusted_Penalty>
0

> <i_epik_Tot_Q>
0

> <i_epik_Tot_abs_Q>
0

> <r_epik_Metal_State_Penalty>
-0

> <b_epik_Metal_Only>
0

> <s_lp_Force_Field>
OPLS_2005

> <r_lp_Energy>
13.3236

> <b_lp_Chiralities_Consistent>
1

> <s_lp_Variant>
AV-unprocessed.smi:1427-1

> <Gold.Version>
5.8.1

> <Gold.Id.Protein>
6NUR|6NUR_protein|mol2

> <Gold.PLP.Fitness>
46.5246

> <Gold.PLP.PLP>
-41.2509

> <Gold.PLP.part.hbond>
-1.9006

> <Gold.PLP.part.metal>
0.0000

> <Gold.PLP.part.buried>
-3.8033

> <Gold.PLP.part.nonpolar>
-34.7308

> <Gold.PLP.part.repulsive>
0.2574

> <Gold.PLP.ligand.clash>
0.0000

> <Gold.PLP.ligand.torsion>
0.3744

> <Gold.PLP.Chemscore.Hbond>
2.0000

> <Gold.PLP.Chemscore.CHOScore>
0.0000

> <Gold.PLP.Chemscore.Metal>
0.0000

> <Gold.Chemscore.Hbonds>
donor molecule, donor type, donor heavy atom, donor atom, acceptor molecule, acceptor atom, score
      P1  H  7989  7998       L1    16  0.90
      P1  H  7997  8008       L1    11  0.80

> <Gold.PLP.Chemscore.Internal.Correction>
0.0225

> <Gold.Rescore>
     Score         DG    S(hbond)    S(metal)    S(lipo)     H(rot)  DE(clash)    DE(int)     intcor
     17.08     -17.38       1.95        0.00      87.32       1.88       0.04       0.27       ----

> <Gold.Chemscore.Fitness>
17.0758

> <Gold.Chemscore.DG>
-17.3832

> <Gold.Chemscore.ZeroCoef>
-5.4800

> <Gold.Chemscore.Hbond>
1.9476

> <Gold.Chemscore.Metal>
0.0000

> <Gold.Chemscore.Lipo>
87.3194

> <Gold.Chemscore.Internal_Hbond>
0.0000

> <Gold.Chemscore.DEClash>
0.0385

> <Gold.Chemscore.DEInternal>
0.2689

> <Gold.Chemscore.Rot>
1.8821

> <Gold.Chemscore.Internal.Correction>
   9.000000E+99

> <Gold.Chemscore.Hbonds>
donor molecule, donor type, donor heavy atom, donor atom, acceptor molecule, acceptor atom, score
      P1  H  7989  7998       L1    16  0.61
      P1  H  7997  8008       L1    11  0.78

> <Gold.Chemscore.Hbond.Weighted>
-6.5049

> <Gold.Chemscore.Metal.Weighted>
-0.0000

> <Gold.Chemscore.Lipo.Weighted>
-10.2164

> <Gold.Chemscore.Internal_Hbond.Weighted>
0.0000

> <Gold.Chemscore.DEClash.Weighted>
0.0385

> <Gold.Chemscore.DEInternal.Weighted>
0.2689

> <Gold.Chemscore.Rot.Weighted>
4.8181

> <Gold.Chemscore.Internal.Correction.Weighted>
   9.000000E+99

> <Gold.Protein.RotatedTorsions>
[ 6907 6896 6895 6894 ] final  -51.80 input  -60.11 | X-H torsion
[ 7974 7965 7964 7962 ] final -175.99 input  175.53 | X-H torsion
[ 8008 7997 7996 7995 ] final -118.75 input   59.86 | X-H torsion
[ 10167 10162 10161 10158 ] final -101.12 input  -65.29 | X-H torsion
[ 10718 10713 10712 10709 ] final -113.14 input   66.30 | X-H torsion
[ 10763 10752 10751 10750 ] final  -24.33 input  -60.55 | X-H torsion
[ 11005 11000 10999 10996 ] final   61.08 input  -57.11 | X-H torsion

> <Gold.Protein.ActiveResidues>
 VAL166  LYS551  ARG553  GLY616  TRP617  ASP618  TYR619  PRO620  LYS621  CYS622 
 ASP623  PHE694  ASN695  SER759  ASP760  ASP761  ALA762  ILE779  LEU786  VAL792 
 PHE793  MET794  SER795  GLU796  ALA797  LYS798  CYS799  TRP800  GLU811  SER814 

> <Gold.Protein.RotatedAtoms>
  150.8577  134.7920  159.7058 H   0  0  0  0  0  0  0  0  0  0  0  0  # atno 6907 bound_to 6896
  152.4623  134.5152  159.9775 H   0  0  0  0  0  0  0  0  0  0  0  0  # atno 6908 bound_to 6896
  151.5261  133.3419  159.2945 H   0  0  0  0  0  0  0  0  0  0  0  0  # atno 6909 bound_to 6896
  144.7127  140.1237  143.6403 H   0  0  0  0  0  0  0  0  0  0  0  0  # atno 7974 bound_to 7965
  155.1046  140.0396  157.2707 H   0  0  0  0  0  0  0  0  0  0  0  0  # atno 8008 bound_to 7997
  154.6731  140.2616  155.6960 H   0  0  0  0  0  0  0  0  0  0  0  0  # atno 8009 bound_to 7997
  156.2666  140.2793  156.1248 H   0  0  0  0  0  0  0  0  0  0  0  0  # atno 8010 bound_to 7997
  140.2447  143.3514  152.0770 H   0  0  0  0  0  0  0  0  0  0  0  0  # atno 10167 bound_to 10162
  156.0748  130.5957  150.8602 H   0  0  0  0  0  0  0  0  0  0  0  0  # atno 10718 bound_to 10713
  153.6821  135.6966  153.5115 H   0  0  0  0  0  0  0  0  0  0  0  0  # atno 10763 bound_to 10752
  153.2477  135.4285  155.0764 H   0  0  0  0  0  0  0  0  0  0  0  0  # atno 10764 bound_to 10752
  154.8397  135.3523  154.6364 H   0  0  0  0  0  0  0  0  0  0  0  0  # atno 10765 bound_to 10752
  140.0186  134.6187  155.9673 H   0  0  0  0  0  0  0  0  0  0  0  0  # atno 11005 bound_to 11000
  145.9348  139.2630  143.1304 LP  0  0  0  0  0  0  0  0  0  0  0  0  # atno 17320 bound_to 7965
  145.9485  140.8926  143.0271 LP  0  0  0  0  0  0  0  0  0  0  0  0  # atno 17321 bound_to 7965
  139.5066  144.6816  151.5994 LP  0  0  0  0  0  0  0  0  0  0  0  0  # atno 17342 bound_to 10162
  140.6087  143.9477  150.6437 LP  0  0  0  0  0  0  0  0  0  0  0  0  # atno 17343 bound_to 10162
  157.5838  131.0946  150.9229 LP  0  0  0  0  0  0  0  0  0  0  0  0  # atno 17370 bound_to 10713
  156.9419  130.5387  149.5280 LP  0  0  0  0  0  0  0  0  0  0  0  0  # atno 17371 bound_to 10713
  141.1759  133.6540  156.4827 LP  0  0  0  0  0  0  0  0  0  0  0  0  # atno 17394 bound_to 11000
  140.4427  134.7001  157.5000 LP  0  0  0  0  0  0  0  0  0  0  0  0  # atno 17395 bound_to 11000

$$$$
