AV-unprocessed.smi:1682|AV-procd|sdf|6744|dock4
  -GOLD-   22720 7493D 1   1.00000     0.00000
 Structure written by MMmdl.
 38 39  0  0  0  0  0  0  0  0  1 V2000
  152.3039  136.8328  159.3142 O   0  0  0  0  0  0  0  0  0  0  0  0
  151.7487  137.7449  158.7006 C   0  0  0  0  0  0  0  0  0  0  0  0
  150.4452  137.7301  158.3826 N   0  0  0  0  0  0  0  0  0  0  0  0
  149.5170  136.6544  158.7107 C   0  0  0  0  0  0  0  0  0  0  0  0
  148.0679  137.1628  158.7957 C   0  0  0  0  0  0  0  0  0  0  0  0
  147.2898  136.4942  159.9129 C   0  0  0  0  0  0  0  0  0  0  0  0
  147.1758  135.0887  159.9707 C   0  0  0  0  0  0  0  0  0  0  0  0
  146.4472  134.5177  161.0323 C   0  0  0  0  0  0  0  0  0  0  0  0
  145.8652  135.3697  161.9907 C   0  0  0  0  0  0  0  0  0  0  0  0
  146.0377  136.7606  161.8438 C   0  0  0  0  0  0  0  0  0  0  0  0
  146.7335  137.3184  160.8295 N   0  0  0  0  0  0  0  0  0  0  0  0
  152.5505  138.9769  158.2527 C   0  0  1  0  0  0  0  0  0  0  0  0
  152.2973  139.3072  156.7683 C   0  0  0  0  0  0  0  0  0  0  0  0
  151.5490  140.6287  156.8072 C   0  0  0  0  0  0  0  0  0  0  0  0
  151.0709  141.1521  155.8018 O   0  0  0  0  0  0  0  0  0  0  0  0
  151.4800  141.1063  158.0542 N   0  0  0  0  0  0  0  0  0  0  0  0
  150.8032  142.3312  158.4780 C   0  0  0  0  0  0  0  0  0  0  0  0
  151.7539  143.3174  159.1804 C   0  0  0  0  0  0  0  0  0  0  0  0
  152.9081  143.4285  158.5232 F   0  0  0  0  0  0  0  0  0  0  0  0
  151.1768  144.5174  159.2250 F   0  0  0  0  0  0  0  0  0  0  0  0
  151.9972  142.9174  160.4286 F   0  0  0  0  0  0  0  0  0  0  0  0
  152.1472  140.2527  159.0240 C   0  0  0  0  0  0  0  0  0  0  0  0
  150.0691  138.5194  157.8773 H   0  0  0  0  0  0  0  0  0  0  0  0
  149.5981  135.8520  157.9753 H   0  0  0  0  0  0  0  0  0  0  0  0
  149.8195  136.2293  159.6681 H   0  0  0  0  0  0  0  0  0  0  0  0
  148.0583  138.2420  158.9549 H   0  0  0  0  0  0  0  0  0  0  0  0
  147.5513  136.9888  157.8508 H   0  0  0  0  0  0  0  0  0  0  0  0
  147.6362  134.4612  159.2216 H   0  0  0  0  0  0  0  0  0  0  0  0
  146.3376  133.4461  161.1098 H   0  0  0  0  0  0  0  0  0  0  0  0
  145.3007  134.9676  162.8188 H   0  0  0  0  0  0  0  0  0  0  0  0
  145.6058  137.4435  162.5604 H   0  0  0  0  0  0  0  0  0  0  0  0
  153.6138  138.7835  158.4068 H   0  0  0  0  0  0  0  0  0  0  0  0
  153.2362  139.4374  156.2291 H   0  0  0  0  0  0  0  0  0  0  0  0
  151.7099  138.5518  156.2436 H   0  0  0  0  0  0  0  0  0  0  0  0
  150.3417  142.8100  157.6128 H   0  0  0  0  0  0  0  0  0  0  0  0
  149.9846  142.0716  159.1505 H   0  0  0  0  0  0  0  0  0  0  0  0
  151.4907  140.0484  159.8718 H   0  0  0  0  0  0  0  0  0  0  0  0
  153.0294  140.7649  159.4100 H   0  0  0  0  0  0  0  0  0  0  0  0
  1  2  2  0  0  0  0
  2  3  1  0  0  0  0
  2 12  1  0  0  0  0
  3  4  1  0  0  0  0
  3 23  1  0  0  0  0
  4  5  1  0  0  0  0
  4 24  1  0  0  0  0
  4 25  1  0  0  0  0
  5  6  1  0  0  0  0
  5 26  1  0  0  0  0
  5 27  1  0  0  0  0
  6 11  1  0  0  0  0
  6  7  2  0  0  0  0
  7  8  1  0  0  0  0
  7 28  1  0  0  0  0
  8  9  2  0  0  0  0
  8 29  1  0  0  0  0
  9 10  1  0  0  0  0
  9 30  1  0  0  0  0
 10 11  2  0  0  0  0
 10 31  1  0  0  0  0
 12 22  1  0  0  0  0
 12 13  1  0  0  0  0
 12 32  1  0  0  0  0
 13 14  1  0  0  0  0
 13 33  1  0  0  0  0
 13 34  1  0  0  0  0
 14 15  2  0  0  0  0
 14 16  1  0  0  0  0
 16 17  1  0  0  0  0
 16 22  1  0  0  0  0
 17 18  1  0  0  0  0
 17 35  1  0  0  0  0
 17 36  1  0  0  0  0
 18 19  1  0  0  0  0
 18 20  1  0  0  0  0
 18 21  1  0  0  0  0
 22 37  1  0  0  0  0
 22 38  1  0  0  0  0
M  END
> <s_m_source_file>
AV-unprocessed.smi

> <i_m_source_file_index>
1682

> <i_lp_mmshare_version>
43012

> <i_f3d_flags>
0

> <s_epik_input>
RkMoRikoRilbQ0gyXU4oW0NIMl0xKUMoPU8pW0NIMl1bQ0BIXTFDKD1PKVtOSF1bQ0gyXVtDSDJdYzJbY0hdW2NIXVtjSF1bY0hdbjI=

> <s_epik_cmdline>
J2VwaWtfcHl0aG9uJywgJy1waCcsICc3LjAnLCAnLXRuJywgJzgnLCAnLW1hJywgJzIwMCcsICctbWV0YWxfYmluZGluZycsICctaW1hZScsICc8aW5maWxlLm1hZT4nLCAnLW9tYWUnLCAnPG91dGZpbGUubWFlPic=

> <r_epik_Ionization_Penalty>
0.0252359

> <r_epik_Ionization_Penalty_Charging>
0

> <r_epik_Ionization_Penalty_Neutral>
0.0252359

> <r_epik_State_Penalty>
0.020532

> <r_epik_Charging_Adjusted_Penalty>
0.020532

> <i_epik_Tot_Q>
0

> <i_epik_Tot_abs_Q>
0

> <r_epik_Metal_State_Penalty>
0.0196899

> <b_epik_Metal_Only>
0

> <s_lp_Force_Field>
OPLS_2005

> <r_lp_Energy>
9.99714

> <b_lp_Chiralities_Consistent>
1

> <s_lp_Variant>
AV-unprocessed.smi:1682-2

> <Gold.Version>
5.8.1

> <Gold.Id.Protein>
6NUR|6NUR_protein|mol2

> <Gold.PLP.Fitness>
52.9546

> <Gold.PLP.PLP>
-47.2100

> <Gold.PLP.part.hbond>
-2.9110

> <Gold.PLP.part.metal>
0.0000

> <Gold.PLP.part.buried>
-5.1154

> <Gold.PLP.part.nonpolar>
-40.2078

> <Gold.PLP.part.repulsive>
0.2019

> <Gold.PLP.ligand.clash>
0.0000

> <Gold.PLP.ligand.torsion>
0.8330

> <Gold.PLP.Chemscore.Hbond>
2.4043

> <Gold.PLP.Chemscore.CHOScore>
0.0000

> <Gold.PLP.Chemscore.Metal>
0.0000

> <Gold.Chemscore.Hbonds>
donor molecule, donor type, donor heavy atom, donor atom, acceptor molecule, acceptor atom, score
      P1  H  6896  6907       L1     1  1.00
      P1  H  6934  6947       L1    11  1.00
      P1  H  7989  7998       L1    15  0.09

> <Gold.PLP.Chemscore.Internal.Correction>
0.1977

> <Gold.Rescore>
     Score         DG    S(hbond)    S(metal)    S(lipo)     H(rot)  DE(clash)    DE(int)     intcor
     15.41     -17.67       2.46        0.00      79.58       2.09       1.09       1.17       ----

> <Gold.Chemscore.Fitness>
15.4122

> <Gold.Chemscore.DG>
-17.6708

> <Gold.Chemscore.ZeroCoef>
-5.4800

> <Gold.Chemscore.Hbond>
2.4631

> <Gold.Chemscore.Metal>
0.0000

> <Gold.Chemscore.Lipo>
79.5765

> <Gold.Chemscore.Internal_Hbond>
0.0000

> <Gold.Chemscore.DEClash>
1.0934

> <Gold.Chemscore.DEInternal>
1.1653

> <Gold.Chemscore.Rot>
2.0884

> <Gold.Chemscore.Internal.Correction>
   9.000000E+99

> <Gold.Chemscore.Hbonds>
donor molecule, donor type, donor heavy atom, donor atom, acceptor molecule, acceptor atom, score
      P1  H  6896  6907       L1     1  0.97
      P1  H  6934  6947       L1    11  0.96
      P1  H  7989  7998       L1    15  0.10

> <Gold.Chemscore.Hbond.Weighted>
-8.2268

> <Gold.Chemscore.Metal.Weighted>
-0.0000

> <Gold.Chemscore.Lipo.Weighted>
-9.3104

> <Gold.Chemscore.Internal_Hbond.Weighted>
0.0000

> <Gold.Chemscore.DEClash.Weighted>
1.0934

> <Gold.Chemscore.DEInternal.Weighted>
1.1653

> <Gold.Chemscore.Rot.Weighted>
5.3464

> <Gold.Chemscore.Internal.Correction.Weighted>
   9.000000E+99

> <Gold.Protein.RotatedTorsions>
[ 6907 6896 6895 6894 ] final   13.58 input  -60.11 | X-H torsion
[ 7974 7965 7964 7962 ] final -130.09 input  175.53 | X-H torsion
[ 8008 7997 7996 7995 ] final   30.29 input   59.86 | X-H torsion
[ 10167 10162 10161 10158 ] final  -22.23 input  -65.29 | X-H torsion
[ 10718 10713 10712 10709 ] final -102.58 input   66.30 | X-H torsion
[ 10763 10752 10751 10750 ] final -152.40 input  -60.55 | X-H torsion
[ 11005 11000 10999 10996 ] final   24.46 input  -57.11 | X-H torsion

> <Gold.Protein.ActiveResidues>
 VAL166  LYS551  ARG553  GLY616  TRP617  ASP618  TYR619  PRO620  LYS621  CYS622 
 ASP623  PHE694  ASN695  SER759  ASP760  ASP761  ALA762  ILE779  LEU786  VAL792 
 PHE793  MET794  SER795  GLU796  ALA797  LYS798  CYS799  TRP800  GLU811  SER814 

> <Gold.Protein.RotatedAtoms>
  151.7885  135.0742  160.0383 H   0  0  0  0  0  0  0  0  0  0  0  0  # atno 6907 bound_to 6896
  152.3173  133.5812  159.5729 H   0  0  0  0  0  0  0  0  0  0  0  0  # atno 6908 bound_to 6896
  150.7351  133.9979  159.3670 H   0  0  0  0  0  0  0  0  0  0  0  0  # atno 6909 bound_to 6896
  144.9509  140.7343  143.4788 H   0  0  0  0  0  0  0  0  0  0  0  0  # atno 7974 bound_to 7965
  155.0880  140.3217  155.4582 H   0  0  0  0  0  0  0  0  0  0  0  0  # atno 8008 bound_to 7997
  156.2750  140.2083  156.5954 H   0  0  0  0  0  0  0  0  0  0  0  0  # atno 8009 bound_to 7997
  154.6925  140.0515  157.0365 H   0  0  0  0  0  0  0  0  0  0  0  0  # atno 8010 bound_to 7997
  140.7285  143.4554  151.0456 H   0  0  0  0  0  0  0  0  0  0  0  0  # atno 10167 bound_to 10162
  156.0234  130.5427  150.7129 H   0  0  0  0  0  0  0  0  0  0  0  0  # atno 10718 bound_to 10713
  154.7997  135.3237  154.7581 H   0  0  0  0  0  0  0  0  0  0  0  0  # atno 10763 bound_to 10752
  153.8252  135.6884  153.4826 H   0  0  0  0  0  0  0  0  0  0  0  0  # atno 10764 bound_to 10752
  153.1706  135.4624  154.9840 H   0  0  0  0  0  0  0  0  0  0  0  0  # atno 10765 bound_to 10752
  140.3585  134.2151  155.7674 H   0  0  0  0  0  0  0  0  0  0  0  0  # atno 11005 bound_to 11000
  145.2846  139.1906  143.4773 LP  0  0  0  0  0  0  0  0  0  0  0  0  # atno 17320 bound_to 7965
  146.3320  140.2813  142.8610 LP  0  0  0  0  0  0  0  0  0  0  0  0  # atno 17321 bound_to 7965
  139.8234  143.7789  152.3178 LP  0  0  0  0  0  0  0  0  0  0  0  0  # atno 17342 bound_to 10162
  139.7880  144.7421  150.9995 LP  0  0  0  0  0  0  0  0  0  0  0  0  # atno 17343 bound_to 10162
  157.4763  131.0898  151.0586 LP  0  0  0  0  0  0  0  0  0  0  0  0  # atno 17370 bound_to 10713
  157.1032  130.5990  149.5465 LP  0  0  0  0  0  0  0  0  0  0  0  0  # atno 17371 bound_to 10713
  141.1991  133.8019  157.0551 LP  0  0  0  0  0  0  0  0  0  0  0  0  # atno 17394 bound_to 11000
  140.0646  134.9736  157.1363 LP  0  0  0  0  0  0  0  0  0  0  0  0  # atno 17395 bound_to 11000

$$$$
