AV-unprocessed.smi:1995|AV-procd|sdf|8083|dock1
  -GOLD-   2272010293D 1   1.00000     0.00000
 Structure written by MMmdl.
 42 43  0  0  0  0  0  0  0  0  3 V2000
  145.7364  143.3513  153.5370 C   0  0  0  0  0  0  0  0  0  0  0  0
  147.0765  142.5967  153.4895 C   0  0  0  0  0  0  0  0  0  0  0  0
  147.1009  141.1880  154.1572 C   0  0  2  0  0  0  0  0  0  0  0  0
  146.2549  141.2216  155.4585 C   0  0  0  0  0  0  0  0  0  0  0  0
  148.5553  140.8093  154.5711 C   0  0  0  0  0  0  0  0  0  0  0  0
  149.1545  141.8047  155.4623 N   0  0  0  0  0  0  0  0  0  0  0  0
  150.3063  141.6871  156.1380 C   0  0  0  0  0  0  0  0  0  0  0  0
  151.0355  140.7108  155.9545 O   0  0  0  0  0  0  0  0  0  0  0  0
  150.5261  142.6957  157.0090 N   0  5  0  0  0  0  0  0  0  0  0  0
  151.1708  142.4539  158.1619 C   0  0  0  0  0  0  0  0  0  0  0  0
  151.6063  143.4273  158.9704 N   0  0  0  0  0  0  0  0  0  0  0  0
  152.2506  142.9515  160.1140 C   0  0  0  0  0  0  0  0  0  0  0  0
  152.3124  141.5846  160.1737 C   0  0  0  0  0  0  0  0  0  0  0  0
  151.5587  140.8494  158.7877 S   0  0  0  0  0  0  0  0  0  0  0  0
  146.5752  140.1365  153.2097 N   0  3  0  0  0  0  0  0  0  0  0  0
  147.3158  139.9339  151.9336 C   0  0  0  0  0  0  0  0  0  0  0  0
  146.5203  138.9991  151.0033 C   0  0  0  0  0  0  0  0  0  0  0  0
  146.2529  137.7635  151.6535 O   0  0  0  0  0  0  0  0  0  0  0  0
  145.4834  137.9442  152.8348 C   0  0  0  0  0  0  0  0  0  0  0  0
  146.2822  138.8100  153.8195 C   0  0  0  0  0  0  0  0  0  0  0  0
  145.8392  144.3336  153.0755 H   0  0  0  0  0  0  0  0  0  0  0  0
  145.3949  143.5113  154.5591 H   0  0  0  0  0  0  0  0  0  0  0  0
  144.9517  142.8253  152.9939 H   0  0  0  0  0  0  0  0  0  0  0  0
  147.3745  142.5084  152.4443 H   0  0  0  0  0  0  0  0  0  0  0  0
  147.8184  143.2434  153.9580 H   0  0  0  0  0  0  0  0  0  0  0  0
  146.7360  141.8136  156.2374 H   0  0  0  0  0  0  0  0  0  0  0  0
  146.1100  140.2234  155.8736 H   0  0  0  0  0  0  0  0  0  0  0  0
  145.2711  141.6629  155.2955 H   0  0  0  0  0  0  0  0  0  0  0  0
  148.5956  139.8149  155.0163 H   0  0  0  0  0  0  0  0  0  0  0  0
  149.1973  140.7490  153.6924 H   0  0  0  0  0  0  0  0  0  0  0  0
  148.6103  142.6376  155.6349 H   0  0  0  0  0  0  0  0  0  0  0  0
  152.6369  143.6584  160.8329 H   0  0  0  0  0  0  0  0  0  0  0  0
  152.7534  140.9682  160.9426 H   0  0  0  0  0  0  0  0  0  0  0  0
  147.4639  140.8672  151.3940 H   0  0  0  0  0  0  0  0  0  0  0  0
  148.3027  139.5170  152.1376 H   0  0  0  0  0  0  0  0  0  0  0  0
  145.5834  139.4670  150.6956 H   0  0  0  0  0  0  0  0  0  0  0  0
  147.0890  138.8021  150.0944 H   0  0  0  0  0  0  0  0  0  0  0  0
  144.5204  138.4008  152.5993 H   0  0  0  0  0  0  0  0  0  0  0  0
  145.2765  136.9682  153.2737 H   0  0  0  0  0  0  0  0  0  0  0  0
  147.2109  138.2960  154.0701 H   0  0  0  0  0  0  0  0  0  0  0  0
  145.7194  138.9114  154.7452 H   0  0  0  0  0  0  0  0  0  0  0  0
  145.6759  140.5008  152.9253 H   0  0  0  0  0  0  0  0  0  0  0  0
  1  2  1  0  0  0  0
  1 21  1  0  0  0  0
  1 22  1  0  0  0  0
  1 23  1  0  0  0  0
  2  3  1  0  0  0  0
  2 24  1  0  0  0  0
  2 25  1  0  0  0  0
  3  4  1  0  0  0  0
  3  5  1  0  0  0  0
  3 15  1  0  0  0  0
  4 26  1  0  0  0  0
  4 27  1  0  0  0  0
  4 28  1  0  0  0  0
  5  6  1  0  0  0  0
  5 29  1  0  0  0  0
  5 30  1  0  0  0  0
  6  7  1  0  0  0  0
  6 31  1  0  0  0  0
  7  8  2  0  0  0  0
  7  9  1  0  0  0  0
  9 10  1  0  0  0  0
 10 14  1  0  0  0  0
 10 11  2  0  0  0  0
 11 12  1  0  0  0  0
 12 13  2  0  0  0  0
 12 32  1  0  0  0  0
 13 14  1  0  0  0  0
 13 33  1  0  0  0  0
 15 20  1  0  0  0  0
 15 16  1  0  0  0  0
 15 42  1  0  0  0  0
 16 17  1  0  0  0  0
 16 34  1  0  0  0  0
 16 35  1  0  0  0  0
 17 18  1  0  0  0  0
 17 36  1  0  0  0  0
 17 37  1  0  0  0  0
 18 19  1  0  0  0  0
 19 20  1  0  0  0  0
 19 38  1  0  0  0  0
 19 39  1  0  0  0  0
 20 40  1  0  0  0  0
 20 41  1  0  0  0  0
M  CHG  1   9  -1
M  CHG  1  15   1
M  END
> <s_m_source_file>
AV-unprocessed.smi

> <i_m_source_file_index>
1995

> <i_lp_mmshare_version>
43012

> <i_f3d_flags>
0

> <s_epik_input>
W0NIMl0xW0NIMl1PW0NIMl1bQ0gyXU4xW0NAQF0oW0NIM10pKFtDSDJdW0NIM10pW0NIMl1bTkhdQyg9TylbTkhdYzJuW2NIXVtjSF1zMg==

> <s_epik_cmdline>
J2VwaWtfcHl0aG9uJywgJy1waCcsICc3LjAnLCAnLXRuJywgJzgnLCAnLW1hJywgJzIwMCcsICctbWV0YWxfYmluZGluZycsICctaW1hZScsICc8aW5maWxlLm1hZT4nLCAnLW9tYWUnLCAnPG91dGZpbGUubWFlPic=

> <r_lp_tautomer_probability>
0.999

> <r_epik_Ionization_Penalty>
8.09417

> <r_epik_Ionization_Penalty_Charging>
6.70334

> <r_epik_Ionization_Penalty_Neutral>
1.39083

> <r_epik_State_Penalty>
6.86521

> <r_epik_Charging_Adjusted_Penalty>
13.5685

> <i_epik_Tot_Q>
0

> <i_epik_Tot_abs_Q>
2

> <r_epik_Metal_State_Penalty>
2.79608

> <b_epik_Metal_Only>
1

> <s_lp_Force_Field>
OPLS_2005

> <r_lp_Energy>
20.9753

> <b_lp_Chiralities_Consistent>
1

> <s_lp_Variant>
AV-unprocessed.smi:1995-8

> <Gold.Version>
5.8.1

> <Gold.Id.Protein>
6NUR|6NUR_protein|mol2

> <Gold.PLP.Fitness>
41.8347

> <Gold.PLP.PLP>
-33.5427

> <Gold.PLP.part.hbond>
-3.0000

> <Gold.PLP.part.metal>
0.0000

> <Gold.PLP.part.buried>
-0.4759

> <Gold.PLP.part.nonpolar>
-32.4347

> <Gold.PLP.part.repulsive>
1.9907

> <Gold.PLP.ligand.clash>
0.0000

> <Gold.PLP.ligand.torsion>
0.7661

> <Gold.PLP.Chemscore.Hbond>
3.1364

> <Gold.PLP.Chemscore.CHOScore>
0.0000

> <Gold.PLP.Chemscore.Metal>
0.0000

> <Gold.Chemscore.Hbonds>
donor molecule, donor type, donor heavy atom, donor atom, acceptor molecule, acceptor atom, score
      L1  H     6    31       P1  8028  0.66
      L1  H    15    42       P1 10175  1.95

> <Gold.PLP.Chemscore.Internal.Correction>
0.4150

> <Gold.Rescore>
     Score         DG    S(hbond)    S(metal)    S(lipo)     H(rot)  DE(clash)    DE(int)     intcor
     10.95     -16.41       1.65        0.00      84.76       1.75       3.33       2.13       ----

> <Gold.Chemscore.Fitness>
10.9539

> <Gold.Chemscore.DG>
-16.4123

> <Gold.Chemscore.ZeroCoef>
-5.4800

> <Gold.Chemscore.Hbond>
1.6471

> <Gold.Chemscore.Metal>
0.0000

> <Gold.Chemscore.Lipo>
84.7602

> <Gold.Chemscore.Internal_Hbond>
0.0000

> <Gold.Chemscore.DEClash>
3.3264

> <Gold.Chemscore.DEInternal>
2.1319

> <Gold.Chemscore.Rot>
1.7523

> <Gold.Chemscore.Internal.Correction>
   9.000000E+99

> <Gold.Chemscore.Hbonds>
donor molecule, donor type, donor heavy atom, donor atom, acceptor molecule, acceptor atom, score
      L1  H     6    31       P1  8028  0.64
      L1  H    15    42       P1 10175  0.72

> <Gold.Chemscore.Hbond.Weighted>
-5.5012

> <Gold.Chemscore.Metal.Weighted>
-0.0000

> <Gold.Chemscore.Lipo.Weighted>
-9.9169

> <Gold.Chemscore.Internal_Hbond.Weighted>
0.0000

> <Gold.Chemscore.DEClash.Weighted>
3.3264

> <Gold.Chemscore.DEInternal.Weighted>
2.1319

> <Gold.Chemscore.Rot.Weighted>
4.4858

> <Gold.Chemscore.Internal.Correction.Weighted>
   9.000000E+99

> <Gold.Protein.RotatedTorsions>
[ 6907 6896 6895 6894 ] final -150.91 input  -60.11 | X-H torsion
[ 7974 7965 7964 7962 ] final  104.35 input  175.53 | X-H torsion
[ 8008 7997 7996 7995 ] final  108.44 input   59.86 | X-H torsion
[ 10167 10162 10161 10158 ] final   87.18 input  -65.29 | X-H torsion
[ 10718 10713 10712 10709 ] final   23.03 input   66.30 | X-H torsion
[ 10763 10752 10751 10750 ] final  117.37 input  -60.55 | X-H torsion
[ 11005 11000 10999 10996 ] final -134.36 input  -57.11 | X-H torsion

> <Gold.Protein.ActiveResidues>
 VAL166  LYS551  ARG553  GLY616  TRP617  ASP618  TYR619  PRO620  LYS621  CYS622 
 ASP623  PHE694  ASN695  SER759  ASP760  ASP761  ALA762  ILE779  LEU786  VAL792 
 PHE793  MET794  SER795  GLU796  ALA797  LYS798  CYS799  TRP800  GLU811  SER814 

> <Gold.Protein.RotatedAtoms>
  151.2054  133.4586  159.2596 H   0  0  0  0  0  0  0  0  0  0  0  0  # atno 6907 bound_to 6896
  151.1028  134.9982  159.8467 H   0  0  0  0  0  0  0  0  0  0  0  0  # atno 6908 bound_to 6896
  152.5444  134.1979  159.8753 H   0  0  0  0  0  0  0  0  0  0  0  0  # atno 6909 bound_to 6896
  145.3339  139.2479  143.3646 H   0  0  0  0  0  0  0  0  0  0  0  0  # atno 7974 bound_to 7965
  156.1903  140.3076  155.9319 H   0  0  0  0  0  0  0  0  0  0  0  0  # atno 8008 bound_to 7997
  155.3188  140.0455  157.3055 H   0  0  0  0  0  0  0  0  0  0  0  0  # atno 8009 bound_to 7997
  154.5444  140.2272  155.8596 H   0  0  0  0  0  0  0  0  0  0  0  0  # atno 8010 bound_to 7997
  139.8799  144.6446  150.8854 H   0  0  0  0  0  0  0  0  0  0  0  0  # atno 10167 bound_to 10162
  157.1605  130.6715  149.6042 H   0  0  0  0  0  0  0  0  0  0  0  0  # atno 10718 bound_to 10713
  153.5514  135.3539  155.2761 H   0  0  0  0  0  0  0  0  0  0  0  0  # atno 10763 bound_to 10752
  154.8706  135.4115  154.2932 H   0  0  0  0  0  0  0  0  0  0  0  0  # atno 10764 bound_to 10752
  153.3659  135.7062  153.6744 H   0  0  0  0  0  0  0  0  0  0  0  0  # atno 10765 bound_to 10752
  140.8997  134.1706  157.4469 H   0  0  0  0  0  0  0  0  0  0  0  0  # atno 11005 bound_to 11000
  146.3034  140.3923  142.8696 LP  0  0  0  0  0  0  0  0  0  0  0  0  # atno 17320 bound_to 7965
  144.8842  140.7441  143.5967 LP  0  0  0  0  0  0  0  0  0  0  0  0  # atno 17321 bound_to 7965
  140.7746  143.3594  151.1858 LP  0  0  0  0  0  0  0  0  0  0  0  0  # atno 17342 bound_to 10162
  139.7205  143.9231  152.2983 LP  0  0  0  0  0  0  0  0  0  0  0  0  # atno 17343 bound_to 10162
  155.9754  130.4713  150.6460 LP  0  0  0  0  0  0  0  0  0  0  0  0  # atno 17370 bound_to 10713
  157.4137  131.0827  151.1197 LP  0  0  0  0  0  0  0  0  0  0  0  0  # atno 17371 bound_to 10713
  139.8740  134.9893  156.5450 LP  0  0  0  0  0  0  0  0  0  0  0  0  # atno 17394 bound_to 11000
  140.8245  133.8327  155.8926 LP  0  0  0  0  0  0  0  0  0  0  0  0  # atno 17395 bound_to 11000

$$$$
