AV-unprocessed.smi:148|AV-procd|sdf|1229|dock6
  -GOLD-   2262018433D 1   1.00000     0.00000
 Structure written by MMmdl.
 63 67  0  0  0  0  0  0  0  0  1 V2000
  142.2839  141.6595  154.9127 O   0  0  0  0  0  0  0  0  0  0  0  0
  142.6140  142.4811  156.0133 C   0  0  0  0  0  0  0  0  0  0  0  0
  144.1422  142.7157  156.1036 C   0  0  1  0  0  0  0  0  0  0  0  0
  144.9512  141.4073  155.9038 C   0  0  0  0  0  0  0  0  0  0  0  0
  146.3180  141.4950  156.3875 N   0  0  0  0  0  0  0  0  0  0  0  0
  146.7214  141.8595  157.6526 C   0  0  0  0  0  0  0  0  0  0  0  0
  148.0132  141.8744  157.8423 N   0  0  0  0  0  0  0  0  0  0  0  0
  148.5371  141.4925  156.6142 C   0  0  0  0  0  0  0  0  0  0  0  0
  149.8536  141.3155  156.1149 C   0  0  0  0  0  0  0  0  0  0  0  0
  150.9470  141.5396  156.8797 N   0  0  0  0  0  0  0  0  0  0  0  0
  150.8550  142.8619  157.5011 C   0  0  0  0  0  0  0  0  0  0  0  0
  152.1535  143.2397  158.2256 C   0  0  0  0  0  0  0  0  0  0  0  0
  152.5260  142.1594  159.2457 C   0  0  0  0  0  0  0  0  0  0  0  0
  152.6416  140.8029  158.5407 C   0  0  0  0  0  0  0  0  0  0  0  0
  151.3395  140.4359  157.7781 C   0  0  2  0  0  0  0  0  0  0  0  0
  151.4133  139.0403  157.0657 C   0  0  2  0  0  0  0  0  0  0  0  0
  151.7050  137.8834  158.0498 C   0  0  0  0  0  0  0  0  0  0  0  0
  152.9134  137.1140  157.4996 C   0  0  0  0  0  0  0  0  0  0  0  0
  153.6102  138.0845  156.5500 C   0  0  0  0  0  0  0  0  0  0  0  0
  152.4501  138.8590  155.9288 C   0  0  2  0  0  0  0  0  0  0  0  0
  152.8788  140.0366  155.2761 O   0  0  0  0  0  0  0  0  0  0  0  0
  149.9973  140.9166  154.8230 N   0  0  0  0  0  0  0  0  0  0  0  0
  148.9162  140.7139  154.0639 C   0  0  0  0  0  0  0  0  0  0  0  0
  147.6289  140.8515  154.3904 N   0  0  0  0  0  0  0  0  0  0  0  0
  147.4860  141.2472  155.6881 C   0  0  0  0  0  0  0  0  0  0  0  0
  144.5955  143.8744  155.1700 C   0  0  1  0  0  0  0  0  0  0  0  0
  144.8963  143.5153  153.7256 C   0  0  0  0  0  0  0  0  0  0  0  0
  144.9535  144.8967  153.0840 C   0  0  0  0  0  0  0  0  0  0  0  0
  143.9582  145.6611  153.7567 O   0  0  0  0  0  0  0  0  0  0  0  0
  143.6234  145.0479  155.0002 C   0  0  0  0  0  0  0  0  0  0  0  0
  142.6047  142.0697  154.1241 H   0  0  0  0  0  0  0  0  0  0  0  0
  142.0746  143.4181  155.8785 H   0  0  0  0  0  0  0  0  0  0  0  0
  142.2351  142.0272  156.9293 H   0  0  0  0  0  0  0  0  0  0  0  0
  144.3461  143.0440  157.1240 H   0  0  0  0  0  0  0  0  0  0  0  0
  144.4680  140.5701  156.4061 H   0  0  0  0  0  0  0  0  0  0  0  0
  145.0059  141.1439  154.8483 H   0  0  0  0  0  0  0  0  0  0  0  0
  146.0217  142.1163  158.4346 H   0  0  0  0  0  0  0  0  0  0  0  0
  150.6330  143.6131  156.7415 H   0  0  0  0  0  0  0  0  0  0  0  0
  150.0259  142.8735  158.2105 H   0  0  0  0  0  0  0  0  0  0  0  0
  152.9600  143.3578  157.5006 H   0  0  0  0  0  0  0  0  0  0  0  0
  152.0372  144.2025  158.7236 H   0  0  0  0  0  0  0  0  0  0  0  0
  153.4674  142.4115  159.7347 H   0  0  0  0  0  0  0  0  0  0  0  0
  151.7682  142.1080  160.0283 H   0  0  0  0  0  0  0  0  0  0  0  0
  153.4876  140.8480  157.8564 H   0  0  0  0  0  0  0  0  0  0  0  0
  152.8919  140.0428  159.2791 H   0  0  0  0  0  0  0  0  0  0  0  0
  150.5487  140.3648  158.5266 H   0  0  0  0  0  0  0  0  0  0  0  0
  150.4355  138.8209  156.6373 H   0  0  0  0  0  0  0  0  0  0  0  0
  151.9214  138.2507  159.0521 H   0  0  0  0  0  0  0  0  0  0  0  0
  150.8428  137.2231  158.1493 H   0  0  0  0  0  0  0  0  0  0  0  0
  153.5749  136.7558  158.2889 H   0  0  0  0  0  0  0  0  0  0  0  0
  152.5675  136.2443  156.9394 H   0  0  0  0  0  0  0  0  0  0  0  0
  154.2610  138.7519  157.1158 H   0  0  0  0  0  0  0  0  0  0  0  0
  154.2219  137.5752  155.8048 H   0  0  0  0  0  0  0  0  0  0  0  0
  151.9999  138.2247  155.1635 H   0  0  0  0  0  0  0  0  0  0  0  0
  153.1872  139.8075  154.4122 H   0  0  0  0  0  0  0  0  0  0  0  0
  149.1101  140.3996  153.0489 H   0  0  0  0  0  0  0  0  0  0  0  0
  145.5221  144.2847  155.5748 H   0  0  0  0  0  0  0  0  0  0  0  0
  145.8227  142.9531  153.6061 H   0  0  0  0  0  0  0  0  0  0  0  0
  144.0869  142.9467  153.2698 H   0  0  0  0  0  0  0  0  0  0  0  0
  145.9266  145.3579  153.2583 H   0  0  0  0  0  0  0  0  0  0  0  0
  144.7783  144.8693  152.0084 H   0  0  0  0  0  0  0  0  0  0  0  0
  142.5874  144.7170  154.9421 H   0  0  0  0  0  0  0  0  0  0  0  0
  143.6999  145.7630  155.8196 H   0  0  0  0  0  0  0  0  0  0  0  0
  1  2  1  0  0  0  0
  1 31  1  0  0  0  0
  2  3  1  0  0  0  0
  2 32  1  0  0  0  0
  2 33  1  0  0  0  0
  3  4  1  0  0  0  0
  3 26  1  0  0  0  0
  3 34  1  0  0  0  0
  4  5  1  0  0  0  0
  4 35  1  0  0  0  0
  4 36  1  0  0  0  0
  5 25  1  0  0  0  0
  5  6  1  0  0  0  0
  6  7  2  0  0  0  0
  6 37  1  0  0  0  0
  7  8  1  0  0  0  0
  8 25  2  0  0  0  0
  8  9  1  0  0  0  0
  9 10  1  0  0  0  0
  9 22  2  0  0  0  0
 10 15  1  0  0  0  0
 10 11  1  0  0  0  0
 11 12  1  0  0  0  0
 11 38  1  0  0  0  0
 11 39  1  0  0  0  0
 12 13  1  0  0  0  0
 12 40  1  0  0  0  0
 12 41  1  0  0  0  0
 13 14  1  0  0  0  0
 13 42  1  0  0  0  0
 13 43  1  0  0  0  0
 14 15  1  0  0  0  0
 14 44  1  0  0  0  0
 14 45  1  0  0  0  0
 15 16  1  0  0  0  0
 15 46  1  0  0  0  0
 16 20  1  0  0  0  0
 16 17  1  0  0  0  0
 16 47  1  0  0  0  0
 17 18  1  0  0  0  0
 17 48  1  0  0  0  0
 17 49  1  0  0  0  0
 18 19  1  0  0  0  0
 18 50  1  0  0  0  0
 18 51  1  0  0  0  0
 19 20  1  0  0  0  0
 19 52  1  0  0  0  0
 19 53  1  0  0  0  0
 20 21  1  0  0  0  0
 20 54  1  0  0  0  0
 21 55  1  0  0  0  0
 22 23  1  0  0  0  0
 23 24  2  0  0  0  0
 23 56  1  0  0  0  0
 24 25  1  0  0  0  0
 26 30  1  0  0  0  0
 26 27  1  0  0  0  0
 26 57  1  0  0  0  0
 27 28  1  0  0  0  0
 27 58  1  0  0  0  0
 27 59  1  0  0  0  0
 28 29  1  0  0  0  0
 28 60  1  0  0  0  0
 28 61  1  0  0  0  0
 29 30  1  0  0  0  0
 30 62  1  0  0  0  0
 30 63  1  0  0  0  0
M  END
> <s_m_source_file>
AV-unprocessed.smi

> <i_m_source_file_index>
148

> <i_lp_mmshare_version>
43012

> <i_f3d_flags>
0

> <s_epik_input>
W0NIMl0xT1tDSDJdW0NIMl1bQ0BIXTFbQ0BIXShbQ0gyXVtPSF0pW0NIMl1uKFtjSF1uMiljKGMyMyluW2NIXW5jM040W0NIMl1bQ0gyXVtDSDJdW0NIMl1bQ0BIXTRbQ0BASF01W0NIMl1bQ0gyXVtDSDJdW0NASF01W09IXQ==

> <s_epik_cmdline>
J2VwaWtfcHl0aG9uJywgJy1waCcsICc3LjAnLCAnLXRuJywgJzgnLCAnLW1hJywgJzIwMCcsICctbWV0YWxfYmluZGluZycsICctaW1hZScsICc8aW5maWxlLm1hZT4nLCAnLW9tYWUnLCAnPG91dGZpbGUubWFlPic=

> <r_lp_tautomer_probability>
1

> <r_epik_Ionization_Penalty>
0.00556303

> <r_epik_Ionization_Penalty_Charging>
0

> <r_epik_Ionization_Penalty_Neutral>
0.00556303

> <r_epik_State_Penalty>
0.00401767

> <r_epik_Charging_Adjusted_Penalty>
0.00401767

> <i_epik_Tot_Q>
0

> <i_epik_Tot_abs_Q>
0

> <r_epik_Metal_State_Penalty>
-0

> <b_epik_Metal_Only>
0

> <s_lp_Force_Field>
OPLS_2005

> <r_lp_Energy>
73.9782

> <b_lp_Chiralities_Consistent>
1

> <s_lp_Variant>
AV-unprocessed.smi:148-28

> <Gold.Version>
5.8.1

> <Gold.Id.Protein>
6NUR|6NUR_protein|mol2

> <Gold.PLP.Fitness>
51.3214

> <Gold.PLP.PLP>
-42.6626

> <Gold.PLP.part.hbond>
-6.2728

> <Gold.PLP.part.metal>
0.0000

> <Gold.PLP.part.buried>
-2.9997

> <Gold.PLP.part.nonpolar>
-33.3135

> <Gold.PLP.part.repulsive>
0.5540

> <Gold.PLP.ligand.clash>
0.0000

> <Gold.PLP.ligand.torsion>
1.1371

> <Gold.PLP.Chemscore.Hbond>
2.5216

> <Gold.PLP.Chemscore.CHOScore>
1.0000

> <Gold.PLP.Chemscore.Metal>
0.0000

> <Gold.Chemscore.Hbonds>
donor molecule, donor type, donor heavy atom, donor atom, acceptor molecule, acceptor atom, score
      L1  H     1    31       P1 10174  0.90
      P1  H  7989  7998       L1    22  0.59
      P1  H  7997  8008       L1    21  0.48
      L1  C    23    56       P1  7957  0.89

> <Gold.PLP.Chemscore.Internal.Correction>
0.3682

> <Gold.Rescore>
     Score         DG    S(hbond)    S(metal)    S(lipo)     H(rot)  DE(clash)    DE(int)     intcor
      8.60     -11.98       1.09        0.00      97.09       3.32       0.89       2.49       ----

> <Gold.Chemscore.Fitness>
8.5997

> <Gold.Chemscore.DG>
-11.9760

> <Gold.Chemscore.ZeroCoef>
-5.4800

> <Gold.Chemscore.Hbond>
1.0889

> <Gold.Chemscore.Metal>
0.0000

> <Gold.Chemscore.Lipo>
97.0851

> <Gold.Chemscore.Internal_Hbond>
0.0000

> <Gold.Chemscore.DEClash>
0.8909

> <Gold.Chemscore.DEInternal>
2.4854

> <Gold.Chemscore.Rot>
3.3203

> <Gold.Chemscore.Internal.Correction>
   9.000000E+99

> <Gold.Chemscore.Hbonds>
donor molecule, donor type, donor heavy atom, donor atom, acceptor molecule, acceptor atom, score
      L1  H     1    31       P1 10174  0.17
      P1  H  7989  7998       L1    22  0.30
      P1  H  7997  8008       L1    21  0.01

> <Gold.Chemscore.Hbond.Weighted>
-3.6371

> <Gold.Chemscore.Metal.Weighted>
-0.0000

> <Gold.Chemscore.Lipo.Weighted>
-11.3590

> <Gold.Chemscore.Internal_Hbond.Weighted>
0.0000

> <Gold.Chemscore.DEClash.Weighted>
0.8909

> <Gold.Chemscore.DEInternal.Weighted>
2.4854

> <Gold.Chemscore.Rot.Weighted>
8.5000

> <Gold.Chemscore.Internal.Correction.Weighted>
   9.000000E+99

> <Gold.Protein.RotatedTorsions>
[ 6907 6896 6895 6894 ] final   -2.83 input  -60.11 | X-H torsion
[ 7974 7965 7964 7962 ] final  106.36 input  175.53 | X-H torsion
[ 8008 7997 7996 7995 ] final  -44.42 input   59.86 | X-H torsion
[ 10167 10162 10161 10158 ] final   44.67 input  -65.29 | X-H torsion
[ 10718 10713 10712 10709 ] final  122.49 input   66.30 | X-H torsion
[ 10763 10752 10751 10750 ] final  -36.25 input  -60.55 | X-H torsion
[ 11005 11000 10999 10996 ] final  -83.17 input  -57.11 | X-H torsion

> <Gold.Protein.ActiveResidues>
 VAL166  LYS551  ARG553  GLY616  TRP617  ASP618  TYR619  PRO620  LYS621  CYS622 
 ASP623  PHE694  ASN695  SER759  ASP760  ASP761  ALA762  ILE779  LEU786  VAL792 
 PHE793  MET794  SER795  GLU796  ALA797  LYS798  CYS799  TRP800  GLU811  SER814 

> <Gold.Protein.RotatedAtoms>
  151.5235  135.1067  159.9884 H   0  0  0  0  0  0  0  0  0  0  0  0  # atno 6907 bound_to 6896
  152.4610  133.7818  159.6865 H   0  0  0  0  0  0  0  0  0  0  0  0  # atno 6908 bound_to 6896
  150.8572  133.7633  159.3030 H   0  0  0  0  0  0  0  0  0  0  0  0  # atno 6909 bound_to 6896
  145.3077  139.2550  143.3780 H   0  0  0  0  0  0  0  0  0  0  0  0  # atno 7974 bound_to 7965
  154.3997  140.1423  156.3680 H   0  0  0  0  0  0  0  0  0  0  0  0  # atno 8008 bound_to 7997
  155.8119  140.3472  155.5442 H   0  0  0  0  0  0  0  0  0  0  0  0  # atno 8009 bound_to 7997
  155.8377  140.0922  157.1744 H   0  0  0  0  0  0  0  0  0  0  0  0  # atno 8010 bound_to 7997
  140.3319  144.2577  150.6167 H   0  0  0  0  0  0  0  0  0  0  0  0  # atno 10167 bound_to 10162
  157.5738  131.1081  150.8317 H   0  0  0  0  0  0  0  0  0  0  0  0  # atno 10718 bound_to 10713
  153.8766  135.6826  153.4770 H   0  0  0  0  0  0  0  0  0  0  0  0  # atno 10763 bound_to 10752
  153.1257  135.4720  154.9266 H   0  0  0  0  0  0  0  0  0  0  0  0  # atno 10764 bound_to 10752
  154.7689  135.3232  154.8182 H   0  0  0  0  0  0  0  0  0  0  0  0  # atno 10765 bound_to 10752
  141.1659  133.7281  156.8681 H   0  0  0  0  0  0  0  0  0  0  0  0  # atno 11005 bound_to 11000
  146.3129  140.3605  142.8664 LP  0  0  0  0  0  0  0  0  0  0  0  0  # atno 17320 bound_to 7965
  144.9042  140.7679  143.5848 LP  0  0  0  0  0  0  0  0  0  0  0  0  # atno 17321 bound_to 7965
  140.5389  143.2227  151.8118 LP  0  0  0  0  0  0  0  0  0  0  0  0  # atno 17342 bound_to 10162
  139.4855  144.4626  151.9523 LP  0  0  0  0  0  0  0  0  0  0  0  0  # atno 17343 bound_to 10162
  156.8781  130.5170  149.5292 LP  0  0  0  0  0  0  0  0  0  0  0  0  # atno 17370 bound_to 10713
  156.0783  130.5800  150.9515 LP  0  0  0  0  0  0  0  0  0  0  0  0  # atno 17371 bound_to 10713
  140.1801  134.9039  157.2938 LP  0  0  0  0  0  0  0  0  0  0  0  0  # atno 17394 bound_to 11000
  140.2404  134.3802  155.7483 LP  0  0  0  0  0  0  0  0  0  0  0  0  # atno 17395 bound_to 11000

$$$$
