AV-unprocessed.smi:2532|AV-procd|sdf|9970|dock1
  -GOLD-   2272014 13D 1   1.00000     0.00000
 Structure written by MMmdl.
 37 39  0  0  0  0  0  0  0  0  2 V2000
  151.5149  137.8283  158.7432 O   0  0  0  0  0  0  0  0  0  0  0  0
  151.1901  138.9205  157.9063 C   0  0  2  0  0  0  0  0  0  0  0  0
  151.3158  138.4629  156.4450 C   0  0  0  0  0  0  0  0  0  0  0  0
  150.5602  139.3365  155.6231 O   0  0  0  0  0  0  0  0  0  0  0  0
  149.4454  138.6980  155.0211 C   0  0  0  0  0  0  0  0  0  0  0  0
  148.3957  139.7344  154.7677 C   0  0  0  0  0  0  0  0  0  0  0  0
  148.5094  141.0846  154.9822 C   0  0  0  0  0  0  0  0  0  0  0  0
  147.3365  141.8141  154.6277 C   0  0  0  0  0  0  0  0  0  0  0  0
  146.3397  141.0122  154.1397 C   0  0  0  0  0  0  0  0  0  0  0  0
  146.8253  139.3395  154.1038 S   0  0  0  0  0  0  0  0  0  0  0  0
  152.1303  140.1011  158.2208 C   0  0  0  0  0  0  0  0  0  0  0  0
  151.4769  141.4096  158.0700 N   0  0  0  0  0  0  0  0  0  0  0  0
  150.6764  141.8679  157.0695 C   0  0  0  0  0  0  0  0  0  0  0  0
  150.3194  143.1449  157.3793 N   0  3  0  0  0  0  0  0  0  0  0  0
  150.8984  143.5087  158.5968 C   0  0  0  0  0  0  0  0  0  0  0  0
  150.8279  144.6958  159.3195 C   0  0  0  0  0  0  0  0  0  0  0  0
  151.5391  144.7390  160.5366 C   0  0  0  0  0  0  0  0  0  0  0  0
  152.2815  143.6305  160.9930 C   0  0  0  0  0  0  0  0  0  0  0  0
  152.3469  142.4326  160.2514 C   0  0  0  0  0  0  0  0  0  0  0  0
  151.6428  142.3979  159.0480 C   0  0  0  0  0  0  0  0  0  0  0  0
  151.2493  137.0318  158.3085 H   0  0  0  0  0  0  0  0  0  0  0  0
  150.1619  139.2248  158.1066 H   0  0  0  0  0  0  0  0  0  0  0  0
  152.3597  138.5165  156.1314 H   0  0  0  0  0  0  0  0  0  0  0  0
  150.9956  137.4261  156.3264 H   0  0  0  0  0  0  0  0  0  0  0  0
  149.7405  138.2244  154.0837 H   0  0  0  0  0  0  0  0  0  0  0  0
  149.0503  137.9226  155.6788 H   0  0  0  0  0  0  0  0  0  0  0  0
  149.3883  141.5706  155.3794 H   0  0  0  0  0  0  0  0  0  0  0  0
  147.2668  142.8860  154.7399 H   0  0  0  0  0  0  0  0  0  0  0  0
  145.3562  141.2999  153.7983 H   0  0  0  0  0  0  0  0  0  0  0  0
  152.5502  140.0188  159.2236 H   0  0  0  0  0  0  0  0  0  0  0  0
  152.9782  140.0907  157.5348 H   0  0  0  0  0  0  0  0  0  0  0  0
  150.3788  141.3180  156.1883 H   0  0  0  0  0  0  0  0  0  0  0  0
  150.2580  145.5456  158.9734 H   0  0  0  0  0  0  0  0  0  0  0  0
  151.5134  145.6396  161.1328 H   0  0  0  0  0  0  0  0  0  0  0  0
  152.8107  143.6993  161.9325 H   0  0  0  0  0  0  0  0  0  0  0  0
  152.9133  141.5879  160.6144 H   0  0  0  0  0  0  0  0  0  0  0  0
  149.7235  143.7231  156.8008 H   0  0  0  0  0  0  0  0  0  0  0  0
  1  2  1  0  0  0  0
  1 21  1  0  0  0  0
  2  3  1  0  0  0  0
  2 11  1  0  0  0  0
  2 22  1  0  0  0  0
  3  4  1  0  0  0  0
  3 23  1  0  0  0  0
  3 24  1  0  0  0  0
  4  5  1  0  0  0  0
  5  6  1  0  0  0  0
  5 25  1  0  0  0  0
  5 26  1  0  0  0  0
  6 10  1  0  0  0  0
  6  7  2  0  0  0  0
  7  8  1  0  0  0  0
  7 27  1  0  0  0  0
  8  9  2  0  0  0  0
  8 28  1  0  0  0  0
  9 10  1  0  0  0  0
  9 29  1  0  0  0  0
 11 12  1  0  0  0  0
 11 30  1  0  0  0  0
 11 31  1  0  0  0  0
 12 20  1  0  0  0  0
 12 13  1  0  0  0  0
 13 14  2  0  0  0  0
 13 32  1  0  0  0  0
 14 15  1  0  0  0  0
 14 37  1  0  0  0  0
 15 20  2  0  0  0  0
 15 16  1  0  0  0  0
 16 17  2  0  0  0  0
 16 33  1  0  0  0  0
 17 18  1  0  0  0  0
 17 34  1  0  0  0  0
 18 19  2  0  0  0  0
 18 35  1  0  0  0  0
 19 20  1  0  0  0  0
 19 36  1  0  0  0  0
M  CHG  1  14   1
M  END
> <s_m_source_file>
AV-unprocessed.smi

> <i_m_source_file_index>
2532

> <i_lp_mmshare_version>
43012

> <i_f3d_flags>
0

> <s_epik_input>
W2NIXTFbY0hdW2NIXVtjSF1jKGMxMiluKFtjSF1uMilbQ0gyXVtDQEhdKFtPSF0pW0NIMl1PW0NIMl1jM1tjSF1bY0hdW2NIXXMz

> <s_epik_cmdline>
J2VwaWtfcHl0aG9uJywgJy1waCcsICc3LjAnLCAnLXRuJywgJzgnLCAnLW1hJywgJzIwMCcsICctbWV0YWxfYmluZGluZycsICctaW1hZScsICc8aW5maWxlLm1hZT4nLCAnLW9tYWUnLCAnPG91dGZpbGUubWFlPic=

> <r_epik_Ionization_Penalty>
1.31758

> <r_epik_Ionization_Penalty_Charging>
1.31758

> <r_epik_Ionization_Penalty_Neutral>
1.26231e-06

> <r_epik_State_Penalty>
1.39289

> <r_epik_Charging_Adjusted_Penalty>
2.71047

> <i_epik_Tot_Q>
1

> <i_epik_Tot_abs_Q>
1

> <r_epik_Metal_State_Penalty>
5.42637

> <b_epik_Metal_Only>
0

> <s_lp_Force_Field>
OPLS_2005

> <r_lp_Energy>
15.3098

> <b_lp_Chiralities_Consistent>
1

> <s_lp_Variant>
AV-unprocessed.smi:2532-3

> <Gold.Version>
5.8.1

> <Gold.Id.Protein>
6NUR|6NUR_protein|mol2

> <Gold.PLP.Fitness>
52.9766

> <Gold.PLP.PLP>
-44.9958

> <Gold.PLP.part.hbond>
-2.0000

> <Gold.PLP.part.metal>
0.0000

> <Gold.PLP.part.buried>
-4.0677

> <Gold.PLP.part.nonpolar>
-39.3485

> <Gold.PLP.part.repulsive>
0.0489

> <Gold.PLP.ligand.clash>
0.0000

> <Gold.PLP.ligand.torsion>
1.3650

> <Gold.PLP.Chemscore.Hbond>
2.9000

> <Gold.PLP.Chemscore.CHOScore>
0.6399

> <Gold.PLP.Chemscore.Metal>
0.0000

> <Gold.Chemscore.Hbonds>
donor molecule, donor type, donor heavy atom, donor atom, acceptor molecule, acceptor atom, score
      L1  H    14    37       P1  8028  2.00
      L1  C     9    29       P1 10175  1.00

> <Gold.PLP.Chemscore.Internal.Correction>
0.0912

> <Gold.Rescore>
     Score         DG    S(hbond)    S(metal)    S(lipo)     H(rot)  DE(clash)    DE(int)     intcor
     17.11     -19.32       1.76        0.00     121.81       2.46       0.50       1.71       ----

> <Gold.Chemscore.Fitness>
17.1135

> <Gold.Chemscore.DG>
-19.3216

> <Gold.Chemscore.ZeroCoef>
-5.4800

> <Gold.Chemscore.Hbond>
1.7634

> <Gold.Chemscore.Metal>
0.0000

> <Gold.Chemscore.Lipo>
121.8069

> <Gold.Chemscore.Internal_Hbond>
0.0000

> <Gold.Chemscore.DEClash>
0.5008

> <Gold.Chemscore.DEInternal>
1.7072

> <Gold.Chemscore.Rot>
2.4608

> <Gold.Chemscore.Internal.Correction>
   9.000000E+99

> <Gold.Chemscore.Hbonds>
donor molecule, donor type, donor heavy atom, donor atom, acceptor molecule, acceptor atom, score
      L1  H    14    37       P1  8028  0.99

> <Gold.Chemscore.Hbond.Weighted>
-5.8898

> <Gold.Chemscore.Metal.Weighted>
-0.0000

> <Gold.Chemscore.Lipo.Weighted>
-14.2514

> <Gold.Chemscore.Internal_Hbond.Weighted>
0.0000

> <Gold.Chemscore.DEClash.Weighted>
0.5008

> <Gold.Chemscore.DEInternal.Weighted>
1.7072

> <Gold.Chemscore.Rot.Weighted>
6.2996

> <Gold.Chemscore.Internal.Correction.Weighted>
   9.000000E+99

> <Gold.Protein.RotatedTorsions>
[ 6907 6896 6895 6894 ] final   24.52 input  -60.11 | X-H torsion
[ 7974 7965 7964 7962 ] final  125.02 input  175.53 | X-H torsion
[ 8008 7997 7996 7995 ] final    3.64 input   59.86 | X-H torsion
[ 10167 10162 10161 10158 ] final  -59.88 input  -65.29 | X-H torsion
[ 10718 10713 10712 10709 ] final  -72.08 input   66.30 | X-H torsion
[ 10763 10752 10751 10750 ] final  -40.44 input  -60.55 | X-H torsion
[ 11005 11000 10999 10996 ] final  135.59 input  -57.11 | X-H torsion

> <Gold.Protein.ActiveResidues>
 VAL166  LYS551  ARG553  GLY616  TRP617  ASP618  TYR619  PRO620  LYS621  CYS622 
 ASP623  PHE694  ASN695  SER759  ASP760  ASP761  ALA762  ILE779  LEU786  VAL792 
 PHE793  MET794  SER795  GLU796  ALA797  LYS798  CYS799  TRP800  GLU811  SER814 

> <Gold.Protein.RotatedAtoms>
  151.9587  135.0134  160.0546 H   0  0  0  0  0  0  0  0  0  0  0  0  # atno 6907 bound_to 6896
  152.1888  133.4754  159.5005 H   0  0  0  0  0  0  0  0  0  0  0  0  # atno 6908 bound_to 6896
  150.6931  134.1656  159.4235 H   0  0  0  0  0  0  0  0  0  0  0  0  # atno 6909 bound_to 6896
  145.0778  139.3680  143.4925 H   0  0  0  0  0  0  0  0  0  0  0  0  # atno 7974 bound_to 7965
  154.7061  140.2683  155.6673 H   0  0  0  0  0  0  0  0  0  0  0  0  # atno 8008 bound_to 7997
  156.2781  140.2762  156.1612 H   0  0  0  0  0  0  0  0  0  0  0  0  # atno 8009 bound_to 7997
  155.0697  140.0372  157.2594 H   0  0  0  0  0  0  0  0  0  0  0  0  # atno 8010 bound_to 7997
  140.6107  143.2386  151.5716 H   0  0  0  0  0  0  0  0  0  0  0  0  # atno 10167 bound_to 10162
  156.0335  130.4364  150.2539 H   0  0  0  0  0  0  0  0  0  0  0  0  # atno 10718 bound_to 10713
  153.9461  135.6756  153.4744 H   0  0  0  0  0  0  0  0  0  0  0  0  # atno 10763 bound_to 10752
  153.0907  135.4876  154.8682 H   0  0  0  0  0  0  0  0  0  0  0  0  # atno 10764 bound_to 10752
  154.7351  135.3147  154.8784 H   0  0  0  0  0  0  0  0  0  0  0  0  # atno 10765 bound_to 10752
  139.9990  134.9486  157.0029 H   0  0  0  0  0  0  0  0  0  0  0  0  # atno 11005 bound_to 11000
  146.3530  140.0553  142.8633 LP  0  0  0  0  0  0  0  0  0  0  0  0  # atno 17320 bound_to 7965
  145.1215  140.9465  143.4598 LP  0  0  0  0  0  0  0  0  0  0  0  0  # atno 17321 bound_to 7965
  139.5359  144.2782  152.1250 LP  0  0  0  0  0  0  0  0  0  0  0  0  # atno 17342 bound_to 10162
  140.1981  144.4685  150.6445 LP  0  0  0  0  0  0  0  0  0  0  0  0  # atno 17343 bound_to 10162
  157.0640  131.0098  151.3213 LP  0  0  0  0  0  0  0  0  0  0  0  0  # atno 17370 bound_to 10713
  157.5049  130.7903  149.7643 LP  0  0  0  0  0  0  0  0  0  0  0  0  # atno 17371 bound_to 10713
  140.4764  134.1334  155.7210 LP  0  0  0  0  0  0  0  0  0  0  0  0  # atno 17394 bound_to 11000
  141.1627  133.8762  157.1803 LP  0  0  0  0  0  0  0  0  0  0  0  0  # atno 17395 bound_to 11000

$$$$
