AV-unprocessed.smi:561|AV-procd|sdf|2940|dock5
  -GOLD-   2262023433D 1   1.00000     0.00000
 Structure written by MMmdl.
 36 37  0  0  0  0  0  0  0  0  3 V2000
  147.0707  141.7350  154.3982 C   0  0  0  0  0  0  0  0  0  0  0  0
  148.4970  141.1882  154.2487 C   0  0  2  0  0  0  0  0  0  0  0  0
  148.4956  139.6414  154.1414 C   0  0  0  0  0  0  0  0  0  0  0  0
  147.3689  139.0840  153.3707 N   0  0  0  0  0  0  0  0  0  0  0  0
  146.4522  138.1547  153.7976 C   0  0  0  0  0  0  0  0  0  0  0  0
  145.5955  137.9370  152.7501 C   0  0  0  0  0  0  0  0  0  0  0  0
  146.0145  138.7496  151.7311 N   0  3  0  0  0  0  0  0  0  0  0  0
  147.0868  139.4513  152.1115 C   0  0  0  0  0  0  0  0  0  0  0  0
  149.2878  141.6173  155.4077 N   0  5  0  0  0  0  0  0  0  0  0  0
  150.5271  141.1454  155.7451 C   0  0  0  0  0  0  0  0  0  0  0  0
  151.1845  140.3105  155.1115 O   0  0  0  0  0  0  0  0  0  0  0  0
  151.1690  141.6422  156.9983 C   0  0  0  0  0  0  0  0  0  0  0  0
  151.2943  142.9183  157.1916 N   0  0  0  0  0  0  0  0  0  0  0  0
  151.8606  143.4382  158.3372 N   0  0  0  0  0  0  0  0  0  0  0  0
  151.6875  144.8795  158.5057 C   0  0  0  0  0  0  0  0  0  0  0  0
  152.5651  142.7178  159.2443 C   0  0  0  0  0  0  0  0  0  0  0  0
  153.0521  143.1957  160.2692 O   0  0  0  0  0  0  0  0  0  0  0  0
  152.7740  141.2355  158.9241 C   0  0  0  0  0  0  0  0  0  0  0  0
  151.6383  140.6588  158.0563 C   0  0  0  0  0  0  0  0  0  0  0  0
  146.4519  141.4506  153.5470 H   0  0  0  0  0  0  0  0  0  0  0  0
  147.0694  142.8242  154.4533 H   0  0  0  0  0  0  0  0  0  0  0  0
  146.5892  141.3545  155.2999 H   0  0  0  0  0  0  0  0  0  0  0  0
  148.8957  141.5879  153.3149 H   0  0  0  0  0  0  0  0  0  0  0  0
  149.4205  139.2874  153.6831 H   0  0  0  0  0  0  0  0  0  0  0  0
  148.4557  139.1982  155.1374 H   0  0  0  0  0  0  0  0  0  0  0  0
  146.4902  137.7202  154.7861 H   0  0  0  0  0  0  0  0  0  0  0  0
  144.7425  137.2810  152.6560 H   0  0  0  0  0  0  0  0  0  0  0  0
  147.6294  140.1633  151.5154 H   0  0  0  0  0  0  0  0  0  0  0  0
  152.6539  145.3849  158.4851 H   0  0  0  0  0  0  0  0  0  0  0  0
  151.2042  145.1023  159.4580 H   0  0  0  0  0  0  0  0  0  0  0  0
  151.0715  145.3125  157.7159 H   0  0  0  0  0  0  0  0  0  0  0  0
  153.7218  141.1474  158.3919 H   0  0  0  0  0  0  0  0  0  0  0  0
  152.8766  140.6620  159.8460 H   0  0  0  0  0  0  0  0  0  0  0  0
  150.7930  140.3780  158.6858 H   0  0  0  0  0  0  0  0  0  0  0  0
  152.0000  139.7384  157.5969 H   0  0  0  0  0  0  0  0  0  0  0  0
  145.5808  138.8098  150.8187 H   0  0  0  0  0  0  0  0  0  0  0  0
  1  2  1  0  0  0  0
  1 20  1  0  0  0  0
  1 21  1  0  0  0  0
  1 22  1  0  0  0  0
  2  3  1  0  0  0  0
  2  9  1  0  0  0  0
  2 23  1  0  0  0  0
  3  4  1  0  0  0  0
  3 24  1  0  0  0  0
  3 25  1  0  0  0  0
  4  8  1  0  0  0  0
  4  5  1  0  0  0  0
  5  6  2  0  0  0  0
  5 26  1  0  0  0  0
  6  7  1  0  0  0  0
  6 27  1  0  0  0  0
  7  8  2  0  0  0  0
  7 36  1  0  0  0  0
  8 28  1  0  0  0  0
  9 10  1  0  0  0  0
 10 11  2  0  0  0  0
 10 12  1  0  0  0  0
 12 19  1  0  0  0  0
 12 13  2  0  0  0  0
 13 14  1  0  0  0  0
 14 15  1  0  0  0  0
 14 16  1  0  0  0  0
 15 29  1  0  0  0  0
 15 30  1  0  0  0  0
 15 31  1  0  0  0  0
 16 17  2  0  0  0  0
 16 18  1  0  0  0  0
 18 19  1  0  0  0  0
 18 32  1  0  0  0  0
 18 33  1  0  0  0  0
 19 34  1  0  0  0  0
 19 35  1  0  0  0  0
M  CHG  1   7   1
M  CHG  1   9  -1
M  END
> <s_m_source_file>
AV-unprocessed.smi

> <i_m_source_file_index>
561

> <i_lp_mmshare_version>
43012

> <i_f3d_flags>
0

> <s_epik_input>
W2NIXTFuW2NIXVtjSF1uMVtDSDJdW0NAQEhdKFtDSDNdKVtOSF1DKD1PKUMyPU5OKFtDSDNdKUMoPU8pW0NIMl1bQ0gyXTI=

> <s_epik_cmdline>
J2VwaWtfcHl0aG9uJywgJy1waCcsICc3LjAnLCAnLXRuJywgJzgnLCAnLW1hJywgJzIwMCcsICctbWV0YWxfYmluZGluZycsICctaW1hZScsICc8aW5maWxlLm1hZT4nLCAnLW9tYWUnLCAnPG91dGZpbGUubWFlPic=

> <r_lp_tautomer_probability>
1

> <r_epik_Ionization_Penalty>
5.37239

> <r_epik_Ionization_Penalty_Charging>
5.18263

> <r_epik_Ionization_Penalty_Neutral>
0.189756

> <r_epik_State_Penalty>
5.53772

> <r_epik_Charging_Adjusted_Penalty>
10.7204

> <i_epik_Tot_Q>
0

> <i_epik_Tot_abs_Q>
2

> <r_epik_Metal_State_Penalty>
1.80836

> <b_epik_Metal_Only>
1

> <s_epik_Chemistry_Notes>
This compound has an imine and may undergo hydrolysis.

> <s_lp_Force_Field>
OPLS_2005

> <r_lp_Energy>
20.2917

> <b_lp_Chiralities_Consistent>
1

> <s_lp_Variant>
AV-unprocessed.smi:561-5

> <Gold.Version>
5.8.1

> <Gold.Id.Protein>
6NUR|6NUR_protein|mol2

> <Gold.PLP.Fitness>
44.2970

> <Gold.PLP.PLP>
-38.3495

> <Gold.PLP.part.hbond>
-3.0000

> <Gold.PLP.part.metal>
0.0000

> <Gold.PLP.part.buried>
-3.9718

> <Gold.PLP.part.nonpolar>
-32.5745

> <Gold.PLP.part.repulsive>
0.3307

> <Gold.PLP.ligand.clash>
0.0000

> <Gold.PLP.ligand.torsion>
1.3704

> <Gold.PLP.Chemscore.Hbond>
2.0000

> <Gold.PLP.Chemscore.CHOScore>
0.8829

> <Gold.PLP.Chemscore.Metal>
0.0000

> <Gold.Chemscore.Hbonds>
donor molecule, donor type, donor heavy atom, donor atom, acceptor molecule, acceptor atom, score
      L1  H     7    36       P1 10171  0.91
      P1  H  7989  7998       L1    11  1.00
      L1  C     8    28       P1  7957  0.76

> <Gold.PLP.Chemscore.Internal.Correction>
0.0395

> <Gold.Rescore>
     Score         DG    S(hbond)    S(metal)    S(lipo)     H(rot)  DE(clash)    DE(int)     intcor
     12.33     -14.77       1.94        0.00      61.83       1.73       0.21       2.22       ----

> <Gold.Chemscore.Fitness>
12.3327

> <Gold.Chemscore.DG>
-14.7659

> <Gold.Chemscore.ZeroCoef>
-5.4800

> <Gold.Chemscore.Hbond>
1.9403

> <Gold.Chemscore.Metal>
0.0000

> <Gold.Chemscore.Lipo>
61.8286

> <Gold.Chemscore.Internal_Hbond>
0.0000

> <Gold.Chemscore.DEClash>
0.2101

> <Gold.Chemscore.DEInternal>
2.2232

> <Gold.Chemscore.Rot>
1.7299

> <Gold.Chemscore.Internal.Correction>
   9.000000E+99

> <Gold.Chemscore.Hbonds>
donor molecule, donor type, donor heavy atom, donor atom, acceptor molecule, acceptor atom, score
      L1  H     7    36       P1 10171  0.88
      P1  H  7989  7998       L1    11  0.83

> <Gold.Chemscore.Hbond.Weighted>
-6.4806

> <Gold.Chemscore.Metal.Weighted>
-0.0000

> <Gold.Chemscore.Lipo.Weighted>
-7.2339

> <Gold.Chemscore.Internal_Hbond.Weighted>
0.0000

> <Gold.Chemscore.DEClash.Weighted>
0.2101

> <Gold.Chemscore.DEInternal.Weighted>
2.2232

> <Gold.Chemscore.Rot.Weighted>
4.4286

> <Gold.Chemscore.Internal.Correction.Weighted>
   9.000000E+99

> <Gold.Protein.RotatedTorsions>
[ 6907 6896 6895 6894 ] final    0.93 input  -60.11 | X-H torsion
[ 7974 7965 7964 7962 ] final -158.80 input  175.53 | X-H torsion
[ 8008 7997 7996 7995 ] final   71.26 input   59.86 | X-H torsion
[ 10167 10162 10161 10158 ] final  -39.67 input  -65.29 | X-H torsion
[ 10718 10713 10712 10709 ] final  135.57 input   66.30 | X-H torsion
[ 10763 10752 10751 10750 ] final   80.62 input  -60.55 | X-H torsion
[ 11005 11000 10999 10996 ] final   32.81 input  -57.11 | X-H torsion

> <Gold.Protein.ActiveResidues>
 VAL166  LYS551  ARG553  GLY616  TRP617  ASP618  TYR619  PRO620  LYS621  CYS622 
 ASP623  PHE694  ASN695  SER759  ASP760  ASP761  ALA762  ILE779  LEU786  VAL792 
 PHE793  MET794  SER795  GLU796  ALA797  LYS798  CYS799  TRP800  GLU811  SER814 

> <Gold.Protein.RotatedAtoms>
  151.5845  135.1057  160.0024 H   0  0  0  0  0  0  0  0  0  0  0  0  # atno 6907 bound_to 6896
  152.4337  133.7319  159.6603 H   0  0  0  0  0  0  0  0  0  0  0  0  # atno 6908 bound_to 6896
  150.8233  133.8145  159.3152 H   0  0  0  0  0  0  0  0  0  0  0  0  # atno 6909 bound_to 6896
  144.7491  140.3775  143.6062 H   0  0  0  0  0  0  0  0  0  0  0  0  # atno 7974 bound_to 7965
  155.7511  140.3488  155.5151 H   0  0  0  0  0  0  0  0  0  0  0  0  # atno 8008 bound_to 7997
  155.9003  140.1033  157.1376 H   0  0  0  0  0  0  0  0  0  0  0  0  # atno 8009 bound_to 7997
  154.4043  140.1287  156.4415 H   0  0  0  0  0  0  0  0  0  0  0  0  # atno 8010 bound_to 7997
  140.7057  143.3200  151.2815 H   0  0  0  0  0  0  0  0  0  0  0  0  # atno 10167 bound_to 10162
  157.4556  131.1069  150.9981 H   0  0  0  0  0  0  0  0  0  0  0  0  # atno 10718 bound_to 10713
  153.1049  135.4796  154.8932 H   0  0  0  0  0  0  0  0  0  0  0  0  # atno 10763 bound_to 10752
  154.7419  135.3084  154.8716 H   0  0  0  0  0  0  0  0  0  0  0  0  # atno 10764 bound_to 10752
  153.9322  135.6843  153.4799 H   0  0  0  0  0  0  0  0  0  0  0  0  # atno 10765 bound_to 10752
  140.2696  134.3097  155.7832 H   0  0  0  0  0  0  0  0  0  0  0  0  # atno 11005 bound_to 11000
  145.7012  139.1662  143.2591 LP  0  0  0  0  0  0  0  0  0  0  0  0  # atno 17320 bound_to 7965
  146.1414  140.7052  142.9365 LP  0  0  0  0  0  0  0  0  0  0  0  0  # atno 17321 bound_to 7965
  139.6651  144.0120  152.2717 LP  0  0  0  0  0  0  0  0  0  0  0  0  # atno 17342 bound_to 10162
  139.9700  144.6500  150.7998 LP  0  0  0  0  0  0  0  0  0  0  0  0  # atno 17343 bound_to 10162
  157.0796  130.5897  149.5418 LP  0  0  0  0  0  0  0  0  0  0  0  0  # atno 17370 bound_to 10713
  156.0006  130.5084  150.7648 LP  0  0  0  0  0  0  0  0  0  0  0  0  # atno 17371 bound_to 10713
  141.2179  133.7459  156.9314 LP  0  0  0  0  0  0  0  0  0  0  0  0  # atno 17394 bound_to 11000
  140.1386  134.9309  157.2435 LP  0  0  0  0  0  0  0  0  0  0  0  0  # atno 17395 bound_to 11000

$$$$
