AV-unprocessed.smi:2060|AV-procd|sdf|8355|dock1
  -GOLD-   2272011 23D 1   1.00000     0.00000
 Structure written by MMmdl.
 45 46  0  0  0  0  0  0  0  0  1 V2000
  147.0689  142.0865  154.1332 C   0  0  0  0  0  0  0  0  0  0  0  0
  148.2691  141.1483  154.3566 C   0  0  0  0  0  0  0  0  0  0  0  0
  147.9598  139.6200  154.2657 C   0  0  2  0  0  0  0  0  0  0  0  0
  149.3276  138.9058  154.0920 C   0  0  0  0  0  0  0  0  0  0  0  0
  147.1069  139.3560  152.9828 C   0  0  0  0  0  0  0  0  0  0  0  0
  147.0810  137.9538  152.5650 N   0  0  0  0  0  0  0  0  0  0  0  0
  145.9790  137.2092  152.3913 C   0  0  0  0  0  0  0  0  0  0  0  0
  144.8354  137.6334  152.5604 O   0  0  0  0  0  0  0  0  0  0  0  0
  146.2912  135.9601  152.0065 N   0  0  0  0  0  0  0  0  0  0  0  0
  145.3993  134.8930  151.7290 C   0  0  0  0  0  0  0  0  0  0  0  0
  145.8811  133.6478  151.2449 C   0  0  0  0  0  0  0  0  0  0  0  0
  144.7404  132.9074  151.1102 C   0  0  0  0  0  0  0  0  0  0  0  0
  144.4862  131.5115  150.6543 C   0  0  0  0  0  0  0  0  0  0  0  0
  143.6544  133.6387  151.4816 O   0  0  0  0  0  0  0  0  0  0  0  0
  144.0834  134.9114  151.8764 N   0  0  0  0  0  0  0  0  0  0  0  0
  147.2730  139.1427  155.4998 N   0  0  0  0  0  0  0  0  0  0  0  0
  146.0145  139.8256  155.8229 C   0  0  0  0  0  0  0  0  0  0  0  0
  145.2997  139.1789  157.0220 C   0  0  0  0  0  0  0  0  0  0  0  0
  146.1671  139.1657  158.1495 O   0  0  0  0  0  0  0  0  0  0  0  0
  147.3782  138.4641  157.8951 C   0  0  0  0  0  0  0  0  0  0  0  0
  148.1093  139.1096  156.7062 C   0  0  0  0  0  0  0  0  0  0  0  0
  147.3806  143.1279  154.2140 H   0  0  0  0  0  0  0  0  0  0  0  0
  146.2854  141.9254  154.8729 H   0  0  0  0  0  0  0  0  0  0  0  0
  146.6293  141.9563  153.1443 H   0  0  0  0  0  0  0  0  0  0  0  0
  149.0600  141.4159  153.6559 H   0  0  0  0  0  0  0  0  0  0  0  0
  148.6842  141.3865  155.3361 H   0  0  0  0  0  0  0  0  0  0  0  0
  149.9535  139.3940  153.3443 H   0  0  0  0  0  0  0  0  0  0  0  0
  149.2093  137.8724  153.7658 H   0  0  0  0  0  0  0  0  0  0  0  0
  149.8948  138.8898  155.0229 H   0  0  0  0  0  0  0  0  0  0  0  0
  146.0677  139.6343  153.1528 H   0  0  0  0  0  0  0  0  0  0  0  0
  147.4456  139.9795  152.1551 H   0  0  0  0  0  0  0  0  0  0  0  0
  147.9764  137.5190  152.3975 H   0  0  0  0  0  0  0  0  0  0  0  0
  147.2726  135.7487  151.9014 H   0  0  0  0  0  0  0  0  0  0  0  0
  146.8952  133.3444  151.0310 H   0  0  0  0  0  0  0  0  0  0  0  0
  145.2920  131.1608  150.0093 H   0  0  0  0  0  0  0  0  0  0  0  0
  143.5540  131.4486  150.0924 H   0  0  0  0  0  0  0  0  0  0  0  0
  144.4151  130.8347  151.5060 H   0  0  0  0  0  0  0  0  0  0  0  0
  146.2003  140.8748  156.0521 H   0  0  0  0  0  0  0  0  0  0  0  0
  145.3295  139.8021  154.9772 H   0  0  0  0  0  0  0  0  0  0  0  0
  144.3990  139.7392  157.2732 H   0  0  0  0  0  0  0  0  0  0  0  0
  144.9876  138.1613  156.7822 H   0  0  0  0  0  0  0  0  0  0  0  0
  148.0032  138.4978  158.7875 H   0  0  0  0  0  0  0  0  0  0  0  0
  147.1647  137.4133  157.6924 H   0  0  0  0  0  0  0  0  0  0  0  0
  149.0253  138.5480  156.5331 H   0  0  0  0  0  0  0  0  0  0  0  0
  148.4061  140.1194  156.9891 H   0  0  0  0  0  0  0  0  0  0  0  0
  1  2  1  0  0  0  0
  1 22  1  0  0  0  0
  1 23  1  0  0  0  0
  1 24  1  0  0  0  0
  2  3  1  0  0  0  0
  2 25  1  0  0  0  0
  2 26  1  0  0  0  0
  3  4  1  0  0  0  0
  3  5  1  0  0  0  0
  3 16  1  0  0  0  0
  4 27  1  0  0  0  0
  4 28  1  0  0  0  0
  4 29  1  0  0  0  0
  5  6  1  0  0  0  0
  5 30  1  0  0  0  0
  5 31  1  0  0  0  0
  6  7  1  0  0  0  0
  6 32  1  0  0  0  0
  7  8  2  0  0  0  0
  7  9  1  0  0  0  0
  9 10  1  0  0  0  0
  9 33  1  0  0  0  0
 10 15  2  0  0  0  0
 10 11  1  0  0  0  0
 11 12  2  0  0  0  0
 11 34  1  0  0  0  0
 12 13  1  0  0  0  0
 12 14  1  0  0  0  0
 13 35  1  0  0  0  0
 13 36  1  0  0  0  0
 13 37  1  0  0  0  0
 14 15  1  0  0  0  0
 16 21  1  0  0  0  0
 16 17  1  0  0  0  0
 17 18  1  0  0  0  0
 17 38  1  0  0  0  0
 17 39  1  0  0  0  0
 18 19  1  0  0  0  0
 18 40  1  0  0  0  0
 18 41  1  0  0  0  0
 19 20  1  0  0  0  0
 20 21  1  0  0  0  0
 20 42  1  0  0  0  0
 20 43  1  0  0  0  0
 21 44  1  0  0  0  0
 21 45  1  0  0  0  0
M  END
> <s_m_source_file>
AV-unprocessed.smi

> <i_m_source_file_index>
2060

> <i_lp_mmshare_version>
43012

> <i_f3d_flags>
0

> <s_epik_input>
W0NIMl0xW0NIMl1PW0NIMl1bQ0gyXU4xW0NAQF0oW0NIM10pKFtDSDJdW0NIM10pW0NIMl1bTkhdQyg9TylbTkhdYzJbY0hdYyhbQ0gzXSlvbjI=

> <s_epik_cmdline>
J2VwaWtfcHl0aG9uJywgJy1waCcsICc3LjAnLCAnLXRuJywgJzgnLCAnLW1hJywgJzIwMCcsICctbWV0YWxfYmluZGluZycsICctaW1hZScsICc8aW5maWxlLm1hZT4nLCAnLW9tYWUnLCAnPG91dGZpbGUubWFlPic=

> <r_epik_Ionization_Penalty>
0.289127

> <r_epik_Ionization_Penalty_Charging>
0

> <r_epik_Ionization_Penalty_Neutral>
0.289127

> <r_epik_State_Penalty>
0.282056

> <r_epik_Charging_Adjusted_Penalty>
0.282056

> <i_epik_Tot_Q>
0

> <i_epik_Tot_abs_Q>
0

> <r_epik_Metal_State_Penalty>
0.284526

> <b_epik_Metal_Only>
0

> <s_lp_Force_Field>
OPLS_2005

> <r_lp_Energy>
40.1787

> <b_lp_Chiralities_Consistent>
1

> <s_lp_Variant>
AV-unprocessed.smi:2060-2

> <Gold.Version>
5.8.1

> <Gold.Id.Protein>
6NUR|6NUR_protein|mol2

> <Gold.PLP.Fitness>
32.7570

> <Gold.PLP.PLP>
-27.4386

> <Gold.PLP.part.hbond>
-2.4207

> <Gold.PLP.part.metal>
0.0000

> <Gold.PLP.part.buried>
-5.1301

> <Gold.PLP.part.nonpolar>
-21.2808

> <Gold.PLP.part.repulsive>
1.4572

> <Gold.PLP.ligand.clash>
0.0000

> <Gold.PLP.ligand.torsion>
0.4474

> <Gold.PLP.Chemscore.Hbond>
2.0000

> <Gold.PLP.Chemscore.CHOScore>
0.0000

> <Gold.PLP.Chemscore.Metal>
0.0000

> <Gold.Chemscore.Hbonds>
donor molecule, donor type, donor heavy atom, donor atom, acceptor molecule, acceptor atom, score
      L1  H     6    32       P1  7948  1.00
      L1  H     9    33       P1  7948  1.00

> <Gold.PLP.Chemscore.Internal.Correction>
0.2133

> <Gold.Rescore>
     Score         DG    S(hbond)    S(metal)    S(lipo)     H(rot)  DE(clash)    DE(int)     intcor
     12.54     -14.37       1.95        0.00      57.81       1.71       0.10       1.73       ----

> <Gold.Chemscore.Fitness>
12.5401

> <Gold.Chemscore.DG>
-14.3694

> <Gold.Chemscore.ZeroCoef>
-5.4800

> <Gold.Chemscore.Hbond>
1.9504

> <Gold.Chemscore.Metal>
0.0000

> <Gold.Chemscore.Lipo>
57.8094

> <Gold.Chemscore.Internal_Hbond>
0.0000

> <Gold.Chemscore.DEClash>
0.0998

> <Gold.Chemscore.DEInternal>
1.7295

> <Gold.Chemscore.Rot>
1.7143

> <Gold.Chemscore.Internal.Correction>
   9.000000E+99

> <Gold.Chemscore.Hbonds>
donor molecule, donor type, donor heavy atom, donor atom, acceptor molecule, acceptor atom, score
      L1  H     6    32       P1  7948  0.97
      L1  H     9    33       P1  7948  0.97

> <Gold.Chemscore.Hbond.Weighted>
-6.5142

> <Gold.Chemscore.Metal.Weighted>
-0.0000

> <Gold.Chemscore.Lipo.Weighted>
-6.7637

> <Gold.Chemscore.Internal_Hbond.Weighted>
0.0000

> <Gold.Chemscore.DEClash.Weighted>
0.0998

> <Gold.Chemscore.DEInternal.Weighted>
1.7295

> <Gold.Chemscore.Rot.Weighted>
4.3885

> <Gold.Chemscore.Internal.Correction.Weighted>
   9.000000E+99

> <Gold.Protein.RotatedTorsions>
[ 6907 6896 6895 6894 ] final  161.44 input  -60.11 | X-H torsion
[ 7974 7965 7964 7962 ] final  123.70 input  175.53 | X-H torsion
[ 8008 7997 7996 7995 ] final  -82.91 input   59.86 | X-H torsion
[ 10167 10162 10161 10158 ] final -116.11 input  -65.29 | X-H torsion
[ 10718 10713 10712 10709 ] final -131.06 input   66.30 | X-H torsion
[ 10763 10752 10751 10750 ] final  -69.36 input  -60.55 | X-H torsion
[ 11005 11000 10999 10996 ] final  -35.40 input  -57.11 | X-H torsion

> <Gold.Protein.ActiveResidues>
 VAL166  LYS551  ARG553  GLY616  TRP617  ASP618  TYR619  PRO620  LYS621  CYS622 
 ASP623  PHE694  ASN695  SER759  ASP760  ASP761  ALA762  ILE779  LEU786  VAL792 
 PHE793  MET794  SER795  GLU796  ALA797  LYS798  CYS799  TRP800  GLU811  SER814 

> <Gold.Protein.RotatedAtoms>
  151.9556  133.3679  159.4015 H   0  0  0  0  0  0  0  0  0  0  0  0  # atno 6907 bound_to 6896
  150.6973  134.4294  159.5251 H   0  0  0  0  0  0  0  0  0  0  0  0  # atno 6908 bound_to 6896
  152.1975  134.8618  160.0562 H   0  0  0  0  0  0  0  0  0  0  0  0  # atno 6909 bound_to 6896
  145.0929  139.3574  143.4851 H   0  0  0  0  0  0  0  0  0  0  0  0  # atno 7974 bound_to 7965
  154.6135  140.0626  156.9525 H   0  0  0  0  0  0  0  0  0  0  0  0  # atno 8008 bound_to 7997
  155.1933  140.3309  155.4336 H   0  0  0  0  0  0  0  0  0  0  0  0  # atno 8009 bound_to 7997
  156.2391  140.1877  156.7022 H   0  0  0  0  0  0  0  0  0  0  0  0  # atno 8010 bound_to 7997
  140.0828  143.4772  152.1916 H   0  0  0  0  0  0  0  0  0  0  0  0  # atno 10167 bound_to 10162
  156.2206  130.6976  151.0751 H   0  0  0  0  0  0  0  0  0  0  0  0  # atno 10718 bound_to 10713
  154.4023  135.6028  153.5904 H   0  0  0  0  0  0  0  0  0  0  0  0  # atno 10763 bound_to 10752
  152.9788  135.5909  154.4170 H   0  0  0  0  0  0  0  0  0  0  0  0  # atno 10764 bound_to 10752
  154.3970  135.2842  155.2098 H   0  0  0  0  0  0  0  0  0  0  0  0  # atno 10765 bound_to 10752
  140.9793  133.7065  156.1656 H   0  0  0  0  0  0  0  0  0  0  0  0  # atno 11005 bound_to 11000
  146.3531  140.0771  142.8620 LP  0  0  0  0  0  0  0  0  0  0  0  0  # atno 17320 bound_to 7965
  145.1045  140.9366  143.4693 LP  0  0  0  0  0  0  0  0  0  0  0  0  # atno 17321 bound_to 7965
  139.5769  144.7492  151.3740 LP  0  0  0  0  0  0  0  0  0  0  0  0  # atno 17342 bound_to 10162
  140.7069  143.7491  150.7497 LP  0  0  0  0  0  0  0  0  0  0  0  0  # atno 17343 bound_to 10162
  157.7085  131.0745  150.6583 LP  0  0  0  0  0  0  0  0  0  0  0  0  # atno 17370 bound_to 10713
  156.6645  130.4522  149.5677 LP  0  0  0  0  0  0  0  0  0  0  0  0  # atno 17371 bound_to 10713
  140.7211  134.4357  157.5574 LP  0  0  0  0  0  0  0  0  0  0  0  0  # atno 17394 bound_to 11000
  139.8943  134.8709  156.2182 LP  0  0  0  0  0  0  0  0  0  0  0  0  # atno 17395 bound_to 11000

$$$$
