AV-unprocessed.smi:745|AV-procd|sdf|3573|dock10
  -GOLD-   22720 0563D 1   1.00000     0.00000
 Structure written by MMmdl.
 42 43  0  0  0  0  0  0  0  0  2 V2000
  145.6495  141.3569  157.6863 C   0  0  0  0  0  0  0  0  0  0  0  0
  146.3243  141.6720  156.3399 C   0  0  1  0  0  0  0  0  0  0  0  0
  147.5967  142.3369  156.6253 N   0  0  0  0  0  0  0  0  0  0  0  0
  148.5319  141.9113  157.4888 C   0  0  0  0  0  0  0  0  0  0  0  0
  148.4041  140.9065  158.1891 O   0  0  0  0  0  0  0  0  0  0  0  0
  149.6017  142.7259  157.4854 N   0  0  0  0  0  0  0  0  0  0  0  0
  150.7877  142.6206  158.2599 C   0  0  0  0  0  0  0  0  0  0  0  0
  151.6512  143.7368  158.1867 C   0  0  0  0  0  0  0  0  0  0  0  0
  152.8544  143.7313  158.9188 C   0  0  0  0  0  0  0  0  0  0  0  0
  153.1635  142.6082  159.7067 C   0  0  0  0  0  0  0  0  0  0  0  0
  152.2487  141.5393  159.7245 C   0  0  0  0  0  0  0  0  0  0  0  0
  151.0948  141.5427  159.0242 N   0  0  0  0  0  0  0  0  0  0  0  0
  146.5372  140.4178  155.4467 C   0  0  2  0  0  0  0  0  0  0  0  0
  146.9914  140.7803  154.0127 C   0  0  0  0  0  0  0  0  0  0  0  0
  147.1490  139.5382  153.1210 C   0  0  0  0  0  0  0  0  0  0  0  0
  145.8918  138.7556  153.0744 N   0  3  1  0  0  0  0  0  0  0  0  0
  145.9650  137.6244  152.1250 C   0  0  0  0  0  0  0  0  0  0  0  0
  145.4635  138.3320  154.4280 C   0  0  0  0  0  0  0  0  0  0  0  0
  145.2644  139.5474  155.3484 C   0  0  0  0  0  0  0  0  0  0  0  0
  144.6286  140.9999  157.5559 H   0  0  0  0  0  0  0  0  0  0  0  0
  145.5903  142.2494  158.3106 H   0  0  0  0  0  0  0  0  0  0  0  0
  146.2031  140.6001  158.2429 H   0  0  0  0  0  0  0  0  0  0  0  0
  145.6666  142.3613  155.8071 H   0  0  0  0  0  0  0  0  0  0  0  0
  147.7913  143.1770  156.1003 H   0  0  0  0  0  0  0  0  0  0  0  0
  149.5658  143.5115  156.8530 H   0  0  0  0  0  0  0  0  0  0  0  0
  151.3984  144.5917  157.5763 H   0  0  0  0  0  0  0  0  0  0  0  0
  153.5277  144.5747  158.8756 H   0  0  0  0  0  0  0  0  0  0  0  0
  154.0765  142.5671  160.2819 H   0  0  0  0  0  0  0  0  0  0  0  0
  152.4477  140.6584  160.3169 H   0  0  0  0  0  0  0  0  0  0  0  0
  147.3231  139.8112  155.9002 H   0  0  0  0  0  0  0  0  0  0  0  0
  146.2708  141.4634  153.5605 H   0  0  0  0  0  0  0  0  0  0  0  0
  147.9444  141.3087  154.0328 H   0  0  0  0  0  0  0  0  0  0  0  0
  147.4231  139.8492  152.1119 H   0  0  0  0  0  0  0  0  0  0  0  0
  147.9602  138.9090  153.4912 H   0  0  0  0  0  0  0  0  0  0  0  0
  146.7223  136.9026  152.4338 H   0  0  0  0  0  0  0  0  0  0  0  0
  146.2156  137.9778  151.1244 H   0  0  0  0  0  0  0  0  0  0  0  0
  145.0053  137.1098  152.0651 H   0  0  0  0  0  0  0  0  0  0  0  0
  144.5292  137.7736  154.3574 H   0  0  0  0  0  0  0  0  0  0  0  0
  146.2064  137.6549  154.8533 H   0  0  0  0  0  0  0  0  0  0  0  0
  144.9700  139.1846  156.3328 H   0  0  0  0  0  0  0  0  0  0  0  0
  144.4331  140.1503  154.9798 H   0  0  0  0  0  0  0  0  0  0  0  0
  145.1766  139.3777  152.7255 H   0  0  0  0  0  0  0  0  0  0  0  0
  1  2  1  0  0  0  0
  1 20  1  0  0  0  0
  1 21  1  0  0  0  0
  1 22  1  0  0  0  0
  2  3  1  0  0  0  0
  2 13  1  0  0  0  0
  2 23  1  0  0  0  0
  3  4  1  0  0  0  0
  3 24  1  0  0  0  0
  4  5  2  0  0  0  0
  4  6  1  0  0  0  0
  6  7  1  0  0  0  0
  6 25  1  0  0  0  0
  7 12  1  0  0  0  0
  7  8  2  0  0  0  0
  8  9  1  0  0  0  0
  8 26  1  0  0  0  0
  9 10  2  0  0  0  0
  9 27  1  0  0  0  0
 10 11  1  0  0  0  0
 10 28  1  0  0  0  0
 11 12  2  0  0  0  0
 11 29  1  0  0  0  0
 13 19  1  0  0  0  0
 13 14  1  0  0  0  0
 13 30  1  0  0  0  0
 14 15  1  0  0  0  0
 14 31  1  0  0  0  0
 14 32  1  0  0  0  0
 15 16  1  0  0  0  0
 15 33  1  0  0  0  0
 15 34  1  0  0  0  0
 16 17  1  0  0  0  0
 16 18  1  0  0  0  0
 16 42  1  0  0  0  0
 17 35  1  0  0  0  0
 17 36  1  0  0  0  0
 17 37  1  0  0  0  0
 18 19  1  0  0  0  0
 18 38  1  0  0  0  0
 18 39  1  0  0  0  0
 19 40  1  0  0  0  0
 19 41  1  0  0  0  0
M  CHG  1  16   1
M  END
> <s_m_source_file>
AV-unprocessed.smi

> <i_m_source_file_index>
745

> <i_lp_mmshare_version>
43012

> <i_f3d_flags>
0

> <s_epik_input>
W0NIMl0xW0NIMl1OKFtDSDNdKVtDSDJdW0NIMl1bQ0hdMVtDQEhdKFtDSDNdKVtOSF1DKD1PKVtOSF1jMltjSF1bY0hdW2NIXVtjSF1uMg==

> <s_epik_cmdline>
J2VwaWtfcHl0aG9uJywgJy1waCcsICc3LjAnLCAnLXRuJywgJzgnLCAnLW1hJywgJzIwMCcsICctbWV0YWxfYmluZGluZycsICctaW1hZScsICc8aW5maWxlLm1hZT4nLCAnLW9tYWUnLCAnPG91dGZpbGUubWFlPic=

> <r_epik_Ionization_Penalty>
0.0011087

> <r_epik_Ionization_Penalty_Charging>
0.00106265

> <r_epik_Ionization_Penalty_Neutral>
4.60506e-05

> <r_epik_State_Penalty>
0.000695551

> <r_epik_Charging_Adjusted_Penalty>
0.0017582

> <i_epik_Tot_Q>
1

> <i_epik_Tot_abs_Q>
1

> <r_epik_Metal_State_Penalty>
-0

> <b_epik_Metal_Only>
0

> <s_lp_Force_Field>
OPLS_2005

> <r_lp_Energy>
20.1287

> <b_lp_Chiralities_Consistent>
1

> <s_lp_Variant>
AV-unprocessed.smi:745-2

> <Gold.Version>
5.8.1

> <Gold.Id.Protein>
6NUR|6NUR_protein|mol2

> <Gold.PLP.Fitness>
41.9013

> <Gold.PLP.PLP>
-30.4335

> <Gold.PLP.part.hbond>
-4.0184

> <Gold.PLP.part.metal>
0.0000

> <Gold.PLP.part.buried>
-3.5527

> <Gold.PLP.part.nonpolar>
-24.0149

> <Gold.PLP.part.repulsive>
0.0576

> <Gold.PLP.ligand.clash>
0.0000

> <Gold.PLP.ligand.torsion>
0.2744

> <Gold.PLP.Chemscore.Hbond>
4.0000

> <Gold.PLP.Chemscore.CHOScore>
0.0000

> <Gold.PLP.Chemscore.Metal>
0.0000

> <Gold.Chemscore.Hbonds>
donor molecule, donor type, donor heavy atom, donor atom, acceptor molecule, acceptor atom, score
      L1  H     3    24       P1  8028  0.95
      L1  H     6    25       P1  8028  1.00
      L1  H    16    42       P1 10175  2.00

> <Gold.PLP.Chemscore.Internal.Correction>
0.0166

> <Gold.Rescore>
     Score         DG    S(hbond)    S(metal)    S(lipo)     H(rot)  DE(clash)    DE(int)     intcor
     16.69     -19.53       2.52        0.00      75.61       1.26       0.03       2.81       ----

> <Gold.Chemscore.Fitness>
16.6934

> <Gold.Chemscore.DG>
-19.5340

> <Gold.Chemscore.ZeroCoef>
-5.4800

> <Gold.Chemscore.Hbond>
2.5249

> <Gold.Chemscore.Metal>
0.0000

> <Gold.Chemscore.Lipo>
75.6141

> <Gold.Chemscore.Internal_Hbond>
0.0000

> <Gold.Chemscore.DEClash>
0.0310

> <Gold.Chemscore.DEInternal>
2.8096

> <Gold.Chemscore.Rot>
1.2601

> <Gold.Chemscore.Internal.Correction>
   9.000000E+99

> <Gold.Chemscore.Hbonds>
donor molecule, donor type, donor heavy atom, donor atom, acceptor molecule, acceptor atom, score
      L1  H     3    24       P1  8028  0.21
      L1  H     6    25       P1  8028  0.98
      L1  H    16    42       P1 10175  1.00

> <Gold.Chemscore.Hbond.Weighted>
-8.4331

> <Gold.Chemscore.Metal.Weighted>
-0.0000

> <Gold.Chemscore.Lipo.Weighted>
-8.8468

> <Gold.Chemscore.Internal_Hbond.Weighted>
0.0000

> <Gold.Chemscore.DEClash.Weighted>
0.0310

> <Gold.Chemscore.DEInternal.Weighted>
2.8096

> <Gold.Chemscore.Rot.Weighted>
3.2260

> <Gold.Chemscore.Internal.Correction.Weighted>
   9.000000E+99

> <Gold.Protein.RotatedTorsions>
[ 6907 6896 6895 6894 ] final  -41.50 input  -60.11 | X-H torsion
[ 7974 7965 7964 7962 ] final   11.80 input  175.53 | X-H torsion
[ 8008 7997 7996 7995 ] final   55.74 input   59.86 | X-H torsion
[ 10167 10162 10161 10158 ] final   -9.72 input  -65.29 | X-H torsion
[ 10718 10713 10712 10709 ] final  165.08 input   66.30 | X-H torsion
[ 10763 10752 10751 10750 ] final  -77.98 input  -60.55 | X-H torsion
[ 11005 11000 10999 10996 ] final -119.11 input  -57.11 | X-H torsion

> <Gold.Protein.ActiveResidues>
 VAL166  LYS551  ARG553  GLY616  TRP617  ASP618  TYR619  PRO620  LYS621  CYS622 
 ASP623  PHE694  ASN695  SER759  ASP760  ASP761  ALA762  ILE779  LEU786  VAL792 
 PHE793  MET794  SER795  GLU796  ALA797  LYS798  CYS799  TRP800  GLU811  SER814 

> <Gold.Protein.RotatedAtoms>
  150.9660  134.9040  159.7758 H   0  0  0  0  0  0  0  0  0  0  0  0  # atno 6907 bound_to 6896
  152.5173  134.3607  159.9293 H   0  0  0  0  0  0  0  0  0  0  0  0  # atno 6908 bound_to 6896
  151.3617  133.3846  159.2725 H   0  0  0  0  0  0  0  0  0  0  0  0  # atno 6909 bound_to 6896
  146.2364  139.9431  142.8480 H   0  0  0  0  0  0  0  0  0  0  0  0  # atno 7974 bound_to 7965
  155.5060  140.3476  155.4379 H   0  0  0  0  0  0  0  0  0  0  0  0  # atno 8008 bound_to 7997
  156.0882  140.1404  156.9654 H   0  0  0  0  0  0  0  0  0  0  0  0  # atno 8009 bound_to 7997
  154.4619  140.0932  156.6893 H   0  0  0  0  0  0  0  0  0  0  0  0  # atno 8010 bound_to 7997
  140.7095  143.5827  150.8975 H   0  0  0  0  0  0  0  0  0  0  0  0  # atno 10167 bound_to 10162
  157.0852  131.0403  151.2559 H   0  0  0  0  0  0  0  0  0  0  0  0  # atno 10718 bound_to 10713
  154.5200  135.5745  153.6673 H   0  0  0  0  0  0  0  0  0  0  0  0  # atno 10763 bound_to 10752
  152.9915  135.6179  154.2766 H   0  0  0  0  0  0  0  0  0  0  0  0  # atno 10764 bound_to 10752
  154.2687  135.2854  155.2727 H   0  0  0  0  0  0  0  0  0  0  0  0  # atno 10765 bound_to 10752
  141.0239  134.0083  157.3243 H   0  0  0  0  0  0  0  0  0  0  0  0  # atno 11005 bound_to 11000
  145.1933  140.9821  143.4198 LP  0  0  0  0  0  0  0  0  0  0  0  0  # atno 17320 bound_to 7965
  144.9838  139.3757  143.6249 LP  0  0  0  0  0  0  0  0  0  0  0  0  # atno 17321 bound_to 7965
  139.9553  143.6225  152.3018 LP  0  0  0  0  0  0  0  0  0  0  0  0  # atno 17342 bound_to 10162
  139.6758  144.7658  151.1698 LP  0  0  0  0  0  0  0  0  0  0  0  0  # atno 17343 bound_to 10162
  157.4767  130.7740  149.7374 LP  0  0  0  0  0  0  0  0  0  0  0  0  # atno 17370 bound_to 10713
  155.9913  130.3939  150.2992 LP  0  0  0  0  0  0  0  0  0  0  0  0  # atno 17371 bound_to 10713
  139.9163  135.0197  156.7894 LP  0  0  0  0  0  0  0  0  0  0  0  0  # atno 17394 bound_to 11000
  140.6525  133.9718  155.7763 LP  0  0  0  0  0  0  0  0  0  0  0  0  # atno 17395 bound_to 11000

$$$$
