AV-unprocessed.smi:2999|AV-procd|sdf|11422|dock8
  -GOLD-   2272016343D 1   1.00000     0.00000
 Structure written by MMmdl.
 38 40  0  0  0  0  0  0  0  0  2 V2000
  151.6205  134.6106  155.2800 O   0  0  0  0  0  0  0  0  0  0  0  0
  150.8660  135.0542  154.4148 C   0  0  0  0  0  0  0  0  0  0  0  0
  149.9248  134.3162  153.8088 N   0  0  0  0  0  0  0  0  0  0  0  0
  149.6723  132.8984  154.0549 C   0  0  0  0  0  0  0  0  0  0  0  0
  148.7304  132.2643  153.0125 C   0  0  1  0  0  0  0  0  0  0  0  0
  148.3261  130.8064  153.3201 C   0  0  0  0  0  0  0  0  0  0  0  0
  147.4171  130.2944  152.2705 N   0  3  1  0  0  0  0  0  0  0  0  0
  147.0331  128.8840  152.4956 C   0  0  0  0  0  0  0  0  0  0  0  0
  148.1390  127.8986  152.1978 C   0  0  0  0  0  0  0  0  0  0  0  0
  146.9861  128.0580  151.2315 C   0  0  0  0  0  0  0  0  0  0  0  0
  146.2424  131.1836  152.1230 C   0  0  0  0  0  0  0  0  0  0  0  0
  146.6964  132.6288  151.8588 C   0  0  0  0  0  0  0  0  0  0  0  0
  147.5554  133.0635  152.9071 O   0  0  0  0  0  0  0  0  0  0  0  0
  150.8612  136.3178  153.9614 N   0  0  0  0  0  0  0  0  0  0  0  0
  151.6840  137.3925  154.3804 C   0  0  0  0  0  0  0  0  0  0  0  0
  152.8698  137.1210  154.9283 N   0  0  0  0  0  0  0  0  0  0  0  0
  153.5619  138.2824  155.2841 C   0  0  0  0  0  0  0  0  0  0  0  0
  152.8817  139.4399  154.9973 C   0  0  0  0  0  0  0  0  0  0  0  0
  151.3336  139.1189  154.2633 S   0  0  0  0  0  0  0  0  0  0  0  0
  149.3455  134.7645  153.1139 H   0  0  0  0  0  0  0  0  0  0  0  0
  150.6324  132.3821  154.0354 H   0  0  0  0  0  0  0  0  0  0  0  0
  149.2728  132.7466  155.0590 H   0  0  0  0  0  0  0  0  0  0  0  0
  149.2488  132.2881  152.0522 H   0  0  0  0  0  0  0  0  0  0  0  0
  149.2153  130.1774  153.3774 H   0  0  0  0  0  0  0  0  0  0  0  0
  147.8210  130.7374  154.2840 H   0  0  0  0  0  0  0  0  0  0  0  0
  146.3316  128.6961  153.3068 H   0  0  0  0  0  0  0  0  0  0  0  0
  149.1084  128.2875  151.8913 H   0  0  0  0  0  0  0  0  0  0  0  0
  148.1703  126.9863  152.7898 H   0  0  0  0  0  0  0  0  0  0  0  0
  146.2591  127.2497  151.1859 H   0  0  0  0  0  0  0  0  0  0  0  0
  147.1915  128.5519  150.2833 H   0  0  0  0  0  0  0  0  0  0  0  0
  145.6161  130.8346  151.3014 H   0  0  0  0  0  0  0  0  0  0  0  0
  145.6356  131.1427  153.0291 H   0  0  0  0  0  0  0  0  0  0  0  0
  147.2074  132.7070  150.8978 H   0  0  0  0  0  0  0  0  0  0  0  0
  145.8322  133.2919  151.8137 H   0  0  0  0  0  0  0  0  0  0  0  0
  150.1885  136.5404  153.2427 H   0  0  0  0  0  0  0  0  0  0  0  0
  154.5378  138.1928  155.7378 H   0  0  0  0  0  0  0  0  0  0  0  0
  153.1962  140.4580  155.1725 H   0  0  0  0  0  0  0  0  0  0  0  0
  147.9249  130.3268  151.3981 H   0  0  0  0  0  0  0  0  0  0  0  0
  1  2  2  0  0  0  0
  2  3  1  0  0  0  0
  2 14  1  0  0  0  0
  3  4  1  0  0  0  0
  3 20  1  0  0  0  0
  4  5  1  0  0  0  0
  4 21  1  0  0  0  0
  4 22  1  0  0  0  0
  5 13  1  0  0  0  0
  5  6  1  0  0  0  0
  5 23  1  0  0  0  0
  6  7  1  0  0  0  0
  6 24  1  0  0  0  0
  6 25  1  0  0  0  0
  7  8  1  0  0  0  0
  7 11  1  0  0  0  0
  7 38  1  0  0  0  0
  8 10  1  0  0  0  0
  8  9  1  0  0  0  0
  8 26  1  0  0  0  0
  9 10  1  0  0  0  0
  9 27  1  0  0  0  0
  9 28  1  0  0  0  0
 10 29  1  0  0  0  0
 10 30  1  0  0  0  0
 11 12  1  0  0  0  0
 11 31  1  0  0  0  0
 11 32  1  0  0  0  0
 12 13  1  0  0  0  0
 12 33  1  0  0  0  0
 12 34  1  0  0  0  0
 14 15  1  0  0  0  0
 14 35  1  0  0  0  0
 15 19  1  0  0  0  0
 15 16  2  0  0  0  0
 16 17  1  0  0  0  0
 17 18  2  0  0  0  0
 17 36  1  0  0  0  0
 18 19  1  0  0  0  0
 18 37  1  0  0  0  0
M  CHG  1   7   1
M  END
> <s_m_source_file>
AV-unprocessed.smi

> <i_m_source_file_index>
2999

> <i_lp_mmshare_version>
43012

> <i_f3d_flags>
0

> <s_epik_input>
czFbY0hdW2NIXW5jMVtOSF1DKD1PKVtOSF1bQ0gyXVtDQEBIXTJbQ0gyXU4oW0NIMl1bQ0gyXU8yKVtDSF0zW0NIMl1bQ0gyXTM=

> <s_epik_cmdline>
J2VwaWtfcHl0aG9uJywgJy1waCcsICc3LjAnLCAnLXRuJywgJzgnLCAnLW1hJywgJzIwMCcsICctbWV0YWxfYmluZGluZycsICctaW1hZScsICc8aW5maWxlLm1hZT4nLCAnLW9tYWUnLCAnPG91dGZpbGUubWFlPic=

> <r_lp_tautomer_probability>
0.999

> <r_epik_Ionization_Penalty>
1.55235

> <r_epik_Ionization_Penalty_Charging>
1.55221

> <r_epik_Ionization_Penalty_Neutral>
0.000139685

> <r_epik_State_Penalty>
1.64652

> <r_epik_Charging_Adjusted_Penalty>
3.19873

> <i_epik_Tot_Q>
1

> <i_epik_Tot_abs_Q>
1

> <r_epik_Metal_State_Penalty>
1.68612

> <b_epik_Metal_Only>
0

> <s_lp_Force_Field>
OPLS_2005

> <r_lp_Energy>
20.9615

> <b_lp_Chiralities_Consistent>
1

> <s_lp_Variant>
AV-unprocessed.smi:2999-6

> <Gold.Version>
5.8.1

> <Gold.Id.Protein>
6NUR|6NUR_protein|mol2

> <Gold.PLP.Fitness>
49.3112

> <Gold.PLP.PLP>
-38.7088

> <Gold.PLP.part.hbond>
-5.8327

> <Gold.PLP.part.metal>
0.0000

> <Gold.PLP.part.buried>
-1.6770

> <Gold.PLP.part.nonpolar>
-31.5080

> <Gold.PLP.part.repulsive>
0.3264

> <Gold.PLP.ligand.clash>
0.0000

> <Gold.PLP.ligand.torsion>
0.8645

> <Gold.PLP.Chemscore.Hbond>
3.6898

> <Gold.PLP.Chemscore.CHOScore>
0.0000

> <Gold.PLP.Chemscore.Metal>
0.0000

> <Gold.Chemscore.Hbonds>
donor molecule, donor type, donor heavy atom, donor atom, acceptor molecule, acceptor atom, score
      L1  H     3    20       P1  7948  0.30
      L1  H     7    38       P1 10747  1.00
      L1  H    14    35       P1  7948  0.40
      P1  H 10752 10765       L1     1  0.45

> <Gold.PLP.Chemscore.Internal.Correction>
1.2620

> <Gold.Rescore>
     Score         DG    S(hbond)    S(metal)    S(lipo)     H(rot)  DE(clash)    DE(int)     intcor
     17.32     -19.71       2.71        0.00      78.79       1.58       0.15       2.24       ----

> <Gold.Chemscore.Fitness>
17.3234

> <Gold.Chemscore.DG>
-19.7085

> <Gold.Chemscore.ZeroCoef>
-5.4800

> <Gold.Chemscore.Hbond>
2.7105

> <Gold.Chemscore.Metal>
0.0000

> <Gold.Chemscore.Lipo>
78.7929

> <Gold.Chemscore.Internal_Hbond>
0.0000

> <Gold.Chemscore.DEClash>
0.1476

> <Gold.Chemscore.DEInternal>
2.2376

> <Gold.Chemscore.Rot>
1.5795

> <Gold.Chemscore.Internal.Correction>
   9.000000E+99

> <Gold.Chemscore.Hbonds>
donor molecule, donor type, donor heavy atom, donor atom, acceptor molecule, acceptor atom, score
      L1  H     7    38       P1 10747  0.98
      L1  H    14    35       P1  7948  0.01
      P1  H 10752 10765       L1    16  0.18

> <Gold.Chemscore.Hbond.Weighted>
-9.0532

> <Gold.Chemscore.Metal.Weighted>
-0.0000

> <Gold.Chemscore.Lipo.Weighted>
-9.2188

> <Gold.Chemscore.Internal_Hbond.Weighted>
0.0000

> <Gold.Chemscore.DEClash.Weighted>
0.1476

> <Gold.Chemscore.DEInternal.Weighted>
2.2376

> <Gold.Chemscore.Rot.Weighted>
4.0434

> <Gold.Chemscore.Internal.Correction.Weighted>
   9.000000E+99

> <Gold.Protein.RotatedTorsions>
[ 6907 6896 6895 6894 ] final   96.00 input  -60.11 | X-H torsion
[ 7974 7965 7964 7962 ] final  -25.35 input  175.53 | X-H torsion
[ 8008 7997 7996 7995 ] final  -34.16 input   59.86 | X-H torsion
[ 10167 10162 10161 10158 ] final -141.65 input  -65.29 | X-H torsion
[ 10718 10713 10712 10709 ] final  131.53 input   66.30 | X-H torsion
[ 10763 10752 10751 10750 ] final -168.62 input  -60.55 | X-H torsion
[ 11005 11000 10999 10996 ] final  110.78 input  -57.11 | X-H torsion

> <Gold.Protein.ActiveResidues>
 VAL166  LYS551  ARG553  GLY616  TRP617  ASP618  TYR619  PRO620  LYS621  CYS622 
 ASP623  PHE694  ASN695  SER759  ASP760  ASP761  ALA762  ILE779  LEU786  VAL792 
 PHE793  MET794  SER795  GLU796  ALA797  LYS798  CYS799  TRP800  GLU811  SER814 

> <Gold.Protein.RotatedAtoms>
  152.5439  134.0954  159.8294 H   0  0  0  0  0  0  0  0  0  0  0  0  # atno 6907 bound_to 6896
  151.1038  133.5216  159.2616 H   0  0  0  0  0  0  0  0  0  0  0  0  # atno 6908 bound_to 6896
  151.1961  135.0432  159.8907 H   0  0  0  0  0  0  0  0  0  0  0  0  # atno 6909 bound_to 6896
  146.1497  140.4874  142.8617 H   0  0  0  0  0  0  0  0  0  0  0  0  # atno 7974 bound_to 7965
  154.4128  140.1691  156.2005 H   0  0  0  0  0  0  0  0  0  0  0  0  # atno 8008 bound_to 7997
  155.9528  140.3399  155.6399 H   0  0  0  0  0  0  0  0  0  0  0  0  # atno 8009 bound_to 7997
  155.6848  140.0727  157.2462 H   0  0  0  0  0  0  0  0  0  0  0  0  # atno 8010 bound_to 7997
  139.8164  143.7633  152.2665 H   0  0  0  0  0  0  0  0  0  0  0  0  # atno 10167 bound_to 10162
  157.4958  131.1092  150.9494 H   0  0  0  0  0  0  0  0  0  0  0  0  # atno 10718 bound_to 10713
  154.6609  135.2925  154.9868 H   0  0  0  0  0  0  0  0  0  0  0  0  # atno 10763 bound_to 10752
  154.0928  135.6588  153.4859 H   0  0  0  0  0  0  0  0  0  0  0  0  # atno 10764 bound_to 10752
  153.0429  135.5224  154.7560 H   0  0  0  0  0  0  0  0  0  0  0  0  # atno 10765 bound_to 10752
  139.8889  134.9492  156.6332 H   0  0  0  0  0  0  0  0  0  0  0  0  # atno 11005 bound_to 11000
  144.7888  140.5991  143.6555 LP  0  0  0  0  0  0  0  0  0  0  0  0  # atno 17320 bound_to 7965
  145.4854  139.1492  143.3739 LP  0  0  0  0  0  0  0  0  0  0  0  0  # atno 17321 bound_to 7965
  139.7797  144.7448  151.0105 LP  0  0  0  0  0  0  0  0  0  0  0  0  # atno 17342 bound_to 10162
  140.7815  143.4555  151.0352 LP  0  0  0  0  0  0  0  0  0  0  0  0  # atno 17343 bound_to 10162
  157.0181  130.5663  149.5328 LP  0  0  0  0  0  0  0  0  0  0  0  0  # atno 17370 bound_to 10713
  156.0200  130.5295  150.8247 LP  0  0  0  0  0  0  0  0  0  0  0  0  # atno 17371 bound_to 10713
  140.7650  133.8785  155.8448 LP  0  0  0  0  0  0  0  0  0  0  0  0  # atno 17394 bound_to 11000
  140.9890  134.1304  157.4426 LP  0  0  0  0  0  0  0  0  0  0  0  0  # atno 17395 bound_to 11000

$$$$
