AV-unprocessed.smi:1445|AV-procd|sdf|5885|dock1
  -GOLD-   22720 5563D 1   1.00000     0.00000
 Structure written by MMmdl.
 46 47  0  0  0  0  0  0  0  0  2 V2000
  151.6944  145.3130  159.0130 C   0  0  0  0  0  0  0  0  0  0  0  0
  151.1669  144.2606  158.2124 O   0  0  0  0  0  0  0  0  0  0  0  0
  151.7406  143.0069  158.3082 C   0  0  0  0  0  0  0  0  0  0  0  0
  152.7747  142.8354  159.1698 N   0  0  0  0  0  0  0  0  0  0  0  0
  153.3390  141.6141  159.2617 C   0  0  0  0  0  0  0  0  0  0  0  0
  152.9114  140.5098  158.5026 C   0  0  0  0  0  0  0  0  0  0  0  0
  151.8394  140.6849  157.6083 C   0  0  0  0  0  0  0  0  0  0  0  0
  151.2263  141.9582  157.5094 C   0  0  0  0  0  0  0  0  0  0  0  0
  150.1461  142.2577  156.6318 N   0  0  0  0  0  0  0  0  0  0  0  0
  149.4626  141.4379  155.8151 C   0  0  0  0  0  0  0  0  0  0  0  0
  149.6548  140.2291  155.6867 O   0  0  0  0  0  0  0  0  0  0  0  0
  148.5086  142.1038  155.1490 N   0  0  0  0  0  0  0  0  0  0  0  0
  147.6005  141.5095  154.1746 C   0  0  0  0  0  0  0  0  0  0  0  0
  146.8394  140.3059  154.7638 C   0  0  0  0  0  0  0  0  0  0  0  0
  146.2655  139.4319  153.7097 N   0  3  1  0  0  0  0  0  0  0  0  0
  147.1836  139.2697  152.5526 C   0  0  0  0  0  0  0  0  0  0  0  0
  146.5109  138.4806  151.4184 C   0  0  0  0  0  0  0  0  0  0  0  0
  146.0174  137.1166  151.9163 C   0  0  0  0  0  0  0  0  0  0  0  0
  145.0917  137.2961  153.1311 C   0  0  1  0  0  0  0  0  0  0  0  0
  144.6031  135.9430  153.6675 C   0  0  0  0  0  0  0  0  0  0  0  0
  145.8014  138.1163  154.2274 C   0  0  0  0  0  0  0  0  0  0  0  0
  151.1346  146.2277  158.8187 H   0  0  0  0  0  0  0  0  0  0  0  0
  152.7410  145.5094  158.7752 H   0  0  0  0  0  0  0  0  0  0  0  0
  151.6037  145.0897  160.0770 H   0  0  0  0  0  0  0  0  0  0  0  0
  154.1592  141.5151  159.9573 H   0  0  0  0  0  0  0  0  0  0  0  0
  153.3977  139.5505  158.6011 H   0  0  0  0  0  0  0  0  0  0  0  0
  151.5237  139.8432  157.0130 H   0  0  0  0  0  0  0  0  0  0  0  0
  149.8226  143.2135  156.6686 H   0  0  0  0  0  0  0  0  0  0  0  0
  148.4142  143.0949  155.3176 H   0  0  0  0  0  0  0  0  0  0  0  0
  146.9098  142.2906  153.8598 H   0  0  0  0  0  0  0  0  0  0  0  0
  148.1578  141.2105  153.2850 H   0  0  0  0  0  0  0  0  0  0  0  0
  147.5364  139.7215  155.3658 H   0  0  0  0  0  0  0  0  0  0  0  0
  146.0518  140.6365  155.4427 H   0  0  0  0  0  0  0  0  0  0  0  0
  147.4807  140.2490  152.1752 H   0  0  0  0  0  0  0  0  0  0  0  0
  148.0948  138.7636  152.8762 H   0  0  0  0  0  0  0  0  0  0  0  0
  145.6713  139.0525  151.0209 H   0  0  0  0  0  0  0  0  0  0  0  0
  147.2104  138.3445  150.5932 H   0  0  0  0  0  0  0  0  0  0  0  0
  145.4935  136.5965  151.1136 H   0  0  0  0  0  0  0  0  0  0  0  0
  146.8718  136.4943  152.1865 H   0  0  0  0  0  0  0  0  0  0  0  0
  144.2132  137.8563  152.8064 H   0  0  0  0  0  0  0  0  0  0  0  0
  145.4351  135.3291  154.0139 H   0  0  0  0  0  0  0  0  0  0  0  0
  144.0756  135.3823  152.8954 H   0  0  0  0  0  0  0  0  0  0  0  0
  143.9163  136.0758  154.5039 H   0  0  0  0  0  0  0  0  0  0  0  0
  146.6541  137.5608  154.6217 H   0  0  0  0  0  0  0  0  0  0  0  0
  145.1129  138.2645  155.0586 H   0  0  0  0  0  0  0  0  0  0  0  0
  145.4521  139.9133  153.3541 H   0  0  0  0  0  0  0  0  0  0  0  0
  1  2  1  0  0  0  0
  1 22  1  0  0  0  0
  1 23  1  0  0  0  0
  1 24  1  0  0  0  0
  2  3  1  0  0  0  0
  3  8  1  0  0  0  0
  3  4  2  0  0  0  0
  4  5  1  0  0  0  0
  5  6  2  0  0  0  0
  5 25  1  0  0  0  0
  6  7  1  0  0  0  0
  6 26  1  0  0  0  0
  7  8  2  0  0  0  0
  7 27  1  0  0  0  0
  8  9  1  0  0  0  0
  9 10  1  0  0  0  0
  9 28  1  0  0  0  0
 10 11  2  0  0  0  0
 10 12  1  0  0  0  0
 12 13  1  0  0  0  0
 12 29  1  0  0  0  0
 13 14  1  0  0  0  0
 13 30  1  0  0  0  0
 13 31  1  0  0  0  0
 14 15  1  0  0  0  0
 14 32  1  0  0  0  0
 14 33  1  0  0  0  0
 15 21  1  0  0  0  0
 15 16  1  0  0  0  0
 15 46  1  0  0  0  0
 16 17  1  0  0  0  0
 16 34  1  0  0  0  0
 16 35  1  0  0  0  0
 17 18  1  0  0  0  0
 17 36  1  0  0  0  0
 17 37  1  0  0  0  0
 18 19  1  0  0  0  0
 18 38  1  0  0  0  0
 18 39  1  0  0  0  0
 19 20  1  0  0  0  0
 19 21  1  0  0  0  0
 19 40  1  0  0  0  0
 20 41  1  0  0  0  0
 20 42  1  0  0  0  0
 20 43  1  0  0  0  0
 21 44  1  0  0  0  0
 21 45  1  0  0  0  0
M  CHG  1  15   1
M  END
> <s_m_source_file>
AV-unprocessed.smi

> <i_m_source_file_index>
1445

> <i_lp_mmshare_version>
43012

> <i_f3d_flags>
0

> <s_epik_input>
W0NIM11PYzFuW2NIXVtjSF1bY0hdYzFbTkhdQyg9TylbTkhdW0NIMl1bQ0gyXU4yW0NIMl1bQ0gyXVtDSDJdW0NAQEhdKFtDSDNdKVtDSDJdMg==

> <s_epik_cmdline>
J2VwaWtfcHl0aG9uJywgJy1waCcsICc3LjAnLCAnLXRuJywgJzgnLCAnLW1hJywgJzIwMCcsICctbWV0YWxfYmluZGluZycsICctaW1hZScsICc8aW5maWxlLm1hZT4nLCAnLW9tYWUnLCAnPG91dGZpbGUubWFlPic=

> <r_lp_tautomer_probability>
1

> <r_epik_Ionization_Penalty>
0.00179544

> <r_epik_Ionization_Penalty_Charging>
0.00171832

> <r_epik_Ionization_Penalty_Neutral>
7.71118e-05

> <r_epik_State_Penalty>
0.0011618

> <r_epik_Charging_Adjusted_Penalty>
0.00288012

> <i_epik_Tot_Q>
1

> <i_epik_Tot_abs_Q>
1

> <r_epik_Metal_State_Penalty>
-0

> <b_epik_Metal_Only>
0

> <s_lp_Force_Field>
OPLS_2005

> <r_lp_Energy>
18.8564

> <b_lp_Chiralities_Consistent>
1

> <s_lp_Variant>
AV-unprocessed.smi:1445-1

> <Gold.Version>
5.8.1

> <Gold.Id.Protein>
6NUR|6NUR_protein|mol2

> <Gold.PLP.Fitness>
47.4611

> <Gold.PLP.PLP>
-35.8512

> <Gold.PLP.part.hbond>
-3.0000

> <Gold.PLP.part.metal>
0.0000

> <Gold.PLP.part.buried>
-2.3996

> <Gold.PLP.part.nonpolar>
-31.6467

> <Gold.PLP.part.repulsive>
0.3976

> <Gold.PLP.ligand.clash>
0.0000

> <Gold.PLP.ligand.torsion>
0.2390

> <Gold.PLP.Chemscore.Hbond>
3.9760

> <Gold.PLP.Chemscore.CHOScore>
0.0000

> <Gold.PLP.Chemscore.Metal>
0.0000

> <Gold.Chemscore.Hbonds>
donor molecule, donor type, donor heavy atom, donor atom, acceptor molecule, acceptor atom, score
      L1  H     9    28       P1  8028  0.90
      L1  H    12    29       P1  8028  1.00
      L1  H    15    46       P1 10175  1.89

> <Gold.PLP.Chemscore.Internal.Correction>
0.1599

> <Gold.Rescore>
     Score         DG    S(hbond)    S(metal)    S(lipo)     H(rot)  DE(clash)    DE(int)     intcor
     19.13     -20.61       2.90        0.00      83.85       1.71       0.09       1.38       ----

> <Gold.Chemscore.Fitness>
19.1344

> <Gold.Chemscore.DG>
-20.6087

> <Gold.Chemscore.ZeroCoef>
-5.4800

> <Gold.Chemscore.Hbond>
2.9036

> <Gold.Chemscore.Metal>
0.0000

> <Gold.Chemscore.Lipo>
83.8455

> <Gold.Chemscore.Internal_Hbond>
0.0000

> <Gold.Chemscore.DEClash>
0.0925

> <Gold.Chemscore.DEInternal>
1.3817

> <Gold.Chemscore.Rot>
1.7107

> <Gold.Chemscore.Internal.Correction>
   9.000000E+99

> <Gold.Chemscore.Hbonds>
donor molecule, donor type, donor heavy atom, donor atom, acceptor molecule, acceptor atom, score
      L1  H     9    28       P1  8028  0.83
      L1  H    12    29       P1  8028  0.99
      L1  H    15    46       P1 10175  0.90

> <Gold.Chemscore.Hbond.Weighted>
-9.6982

> <Gold.Chemscore.Metal.Weighted>
-0.0000

> <Gold.Chemscore.Lipo.Weighted>
-9.8099

> <Gold.Chemscore.Internal_Hbond.Weighted>
0.0000

> <Gold.Chemscore.DEClash.Weighted>
0.0925

> <Gold.Chemscore.DEInternal.Weighted>
1.3817

> <Gold.Chemscore.Rot.Weighted>
4.3794

> <Gold.Chemscore.Internal.Correction.Weighted>
   9.000000E+99

> <Gold.Protein.RotatedTorsions>
[ 6907 6896 6895 6894 ] final  150.74 input  -60.11 | X-H torsion
[ 7974 7965 7964 7962 ] final -151.71 input  175.53 | X-H torsion
[ 8008 7997 7996 7995 ] final   41.07 input   59.86 | X-H torsion
[ 10167 10162 10161 10158 ] final  -97.10 input  -65.29 | X-H torsion
[ 10718 10713 10712 10709 ] final -131.22 input   66.30 | X-H torsion
[ 10763 10752 10751 10750 ] final   39.13 input  -60.55 | X-H torsion
[ 11005 11000 10999 10996 ] final   97.53 input  -57.11 | X-H torsion

> <Gold.Protein.ActiveResidues>
 VAL166  LYS551  ARG553  GLY616  TRP617  ASP618  TYR619  PRO620  LYS621  CYS622 
 ASP623  PHE694  ASN695  SER759  ASP760  ASP761  ALA762  ILE779  LEU786  VAL792 
 PHE793  MET794  SER795  GLU796  ALA797  LYS798  CYS799  TRP800  GLU811  SER814 

> <Gold.Protein.RotatedAtoms>
  152.1103  133.4297  159.4627 H   0  0  0  0  0  0  0  0  0  0  0  0  # atno 6907 bound_to 6896
  150.6867  134.2656  159.4576 H   0  0  0  0  0  0  0  0  0  0  0  0  # atno 6908 bound_to 6896
  152.0524  134.9645  160.0625 H   0  0  0  0  0  0  0  0  0  0  0  0  # atno 6909 bound_to 6896
  144.7835  140.4761  143.5823 H   0  0  0  0  0  0  0  0  0  0  0  0  # atno 7974 bound_to 7965
  155.2636  140.3361  155.4271 H   0  0  0  0  0  0  0  0  0  0  0  0  # atno 8008 bound_to 7997
  156.2164  140.1790  156.7622 H   0  0  0  0  0  0  0  0  0  0  0  0  # atno 8009 bound_to 7997
  154.5759  140.0662  156.9018 H   0  0  0  0  0  0  0  0  0  0  0  0  # atno 8010 bound_to 7997
  140.2869  143.3246  152.0385 H   0  0  0  0  0  0  0  0  0  0  0  0  # atno 10167 bound_to 10162
  156.2223  130.6986  151.0769 H   0  0  0  0  0  0  0  0  0  0  0  0  # atno 10718 bound_to 10713
  152.9977  135.6229  154.2416 H   0  0  0  0  0  0  0  0  0  0  0  0  # atno 10763 bound_to 10752
  154.2156  135.2798  155.2945 H   0  0  0  0  0  0  0  0  0  0  0  0  # atno 10764 bound_to 10752
  154.5571  135.5716  153.7032 H   0  0  0  0  0  0  0  0  0  0  0  0  # atno 10765 bound_to 10752
  139.8775  134.9005  156.4321 H   0  0  0  0  0  0  0  0  0  0  0  0  # atno 11005 bound_to 11000
  145.5986  139.1502  143.3142 LP  0  0  0  0  0  0  0  0  0  0  0  0  # atno 17320 bound_to 7965
  146.2055  140.6109  142.9083 LP  0  0  0  0  0  0  0  0  0  0  0  0  # atno 17321 bound_to 7965
  139.4948  144.6552  151.6587 LP  0  0  0  0  0  0  0  0  0  0  0  0  # atno 17342 bound_to 10162
  140.5765  144.0020  150.6244 LP  0  0  0  0  0  0  0  0  0  0  0  0  # atno 17343 bound_to 10162
  157.7093  131.0742  150.6557 LP  0  0  0  0  0  0  0  0  0  0  0  0  # atno 17370 bound_to 10713
  156.6620  130.4515  149.5684 LP  0  0  0  0  0  0  0  0  0  0  0  0  # atno 17371 bound_to 10713
  140.9059  133.7746  155.9734 LP  0  0  0  0  0  0  0  0  0  0  0  0  # atno 17394 bound_to 11000
  140.8600  134.2852  157.5239 LP  0  0  0  0  0  0  0  0  0  0  0  0  # atno 17395 bound_to 11000

$$$$
