AV-unprocessed.smi:1809|AV-procd|sdf|7330|dock10
  -GOLD-   22720 8583D 1   1.00000     0.00000
 Structure written by MMmdl.
 38 40  0  0  0  0  0  0  0  0  2 V2000
  156.1172  134.7654  164.9308 C   0  0  0  0  0  0  0  0  0  0  0  0
  155.6548  134.8882  163.5195 C   0  0  0  0  0  0  0  0  0  0  0  0
  155.9368  133.9775  162.5847 N   0  0  0  0  0  0  0  0  0  0  0  0
  155.3997  134.3124  161.3501 N   0  0  0  0  0  0  0  0  0  0  0  0
  154.7322  135.4750  161.3646 C   0  0  0  0  0  0  0  0  0  0  0  0
  154.1347  135.9761  160.2708 N   0  5  0  0  0  0  0  0  0  0  0  0
  153.6072  137.2212  160.2988 C   0  0  0  0  0  0  0  0  0  0  0  0
  153.9457  138.1424  161.0457 O   0  0  0  0  0  0  0  0  0  0  0  0
  152.6255  137.4127  159.4082 N   0  0  0  0  0  0  0  0  0  0  0  0
  151.8909  138.6577  159.2252 C   0  0  0  0  0  0  0  0  0  0  0  0
  152.6661  139.6203  158.3051 C   0  0  1  0  0  0  0  0  0  0  0  0
  151.8031  140.8082  157.8172 C   0  0  0  0  0  0  0  0  0  0  0  0
  151.6160  141.7780  158.8804 N   0  0  0  0  0  0  0  0  0  0  0  0
  150.9068  142.9889  158.5396 C   0  0  0  0  0  0  0  0  0  0  0  0
  151.2243  143.9536  159.6952 C   0  0  0  0  0  0  0  0  0  0  0  0
  152.5070  143.3784  160.3353 C   0  0  0  0  0  0  0  0  0  0  0  0
  152.8806  142.2399  159.3841 C   0  0  1  0  0  0  0  0  0  0  0  0
  153.6945  141.0742  159.9617 C   0  0  0  0  0  0  0  0  0  0  0  0
  153.8689  140.0958  158.9320 O   0  0  0  0  0  0  0  0  0  0  0  0
  154.6999  136.2467  162.9500 S   0  0  0  0  0  0  0  0  0  0  0  0
  157.1406  135.1296  165.0195 H   0  0  0  0  0  0  0  0  0  0  0  0
  156.0849  133.7237  165.2511 H   0  0  0  0  0  0  0  0  0  0  0  0
  155.4775  135.3522  165.5901 H   0  0  0  0  0  0  0  0  0  0  0  0
  152.3772  136.6397  158.8082 H   0  0  0  0  0  0  0  0  0  0  0  0
  150.9191  138.4325  158.7834 H   0  0  0  0  0  0  0  0  0  0  0  0
  151.6957  139.1127  160.1969 H   0  0  0  0  0  0  0  0  0  0  0  0
  152.9747  139.0522  157.4267 H   0  0  0  0  0  0  0  0  0  0  0  0
  152.2987  141.2861  156.9709 H   0  0  0  0  0  0  0  0  0  0  0  0
  150.8371  140.4555  157.4545 H   0  0  0  0  0  0  0  0  0  0  0  0
  151.2873  143.3968  157.6018 H   0  0  0  0  0  0  0  0  0  0  0  0
  149.8378  142.8099  158.4222 H   0  0  0  0  0  0  0  0  0  0  0  0
  151.3693  144.9706  159.3296 H   0  0  0  0  0  0  0  0  0  0  0  0
  150.4125  143.9712  160.4233 H   0  0  0  0  0  0  0  0  0  0  0  0
  153.3025  144.1188  160.4234 H   0  0  0  0  0  0  0  0  0  0  0  0
  152.2889  142.9930  161.3324 H   0  0  0  0  0  0  0  0  0  0  0  0
  153.4510  142.6719  158.5589 H   0  0  0  0  0  0  0  0  0  0  0  0
  154.6728  141.4185  160.2971 H   0  0  0  0  0  0  0  0  0  0  0  0
  153.1971  140.6333  160.8262 H   0  0  0  0  0  0  0  0  0  0  0  0
  1  2  1  0  0  0  0
  1 21  1  0  0  0  0
  1 22  1  0  0  0  0
  1 23  1  0  0  0  0
  2 20  1  0  0  0  0
  2  3  2  0  0  0  0
  3  4  1  0  0  0  0
  4  5  2  0  0  0  0
  5  6  1  0  0  0  0
  5 20  1  0  0  0  0
  6  7  1  0  0  0  0
  7  8  2  0  0  0  0
  7  9  1  0  0  0  0
  9 10  1  0  0  0  0
  9 24  1  0  0  0  0
 10 11  1  0  0  0  0
 10 25  1  0  0  0  0
 10 26  1  0  0  0  0
 11 19  1  0  0  0  0
 11 12  1  0  0  0  0
 11 27  1  0  0  0  0
 12 13  1  0  0  0  0
 12 28  1  0  0  0  0
 12 29  1  0  0  0  0
 13 17  1  0  0  0  0
 13 14  1  0  0  0  0
 14 15  1  0  0  0  0
 14 30  1  0  0  0  0
 14 31  1  0  0  0  0
 15 16  1  0  0  0  0
 15 32  1  0  0  0  0
 15 33  1  0  0  0  0
 16 17  1  0  0  0  0
 16 34  1  0  0  0  0
 16 35  1  0  0  0  0
 17 18  1  0  0  0  0
 17 36  1  0  0  0  0
 18 19  1  0  0  0  0
 18 37  1  0  0  0  0
 18 38  1  0  0  0  0
M  CHG  1   6  -1
M  END
> <s_m_source_file>
AV-unprocessed.smi

> <i_m_source_file_index>
1809

> <i_lp_mmshare_version>
43012

> <i_f3d_flags>
0

> <s_epik_input>
W0NIM11jMW5uYyhzMSlbTkhdQyg9TylbTkhdW0NIMl1bQ0BIXShbQ0gyXTIpT1tDSDJdW0NAQEhdKE4yMylbQ0gyXVtDSDJdW0NIMl0z

> <s_epik_cmdline>
J2VwaWtfcHl0aG9uJywgJy1waCcsICc3LjAnLCAnLXRuJywgJzgnLCAnLW1hJywgJzIwMCcsICctbWV0YWxfYmluZGluZycsICctaW1hZScsICc8aW5maWxlLm1hZT4nLCAnLW9tYWUnLCAnPG91dGZpbGUubWFlPic=

> <r_lp_tautomer_probability>
1

> <r_epik_Ionization_Penalty>
4.48809

> <r_epik_Ionization_Penalty_Charging>
3.27284

> <r_epik_Ionization_Penalty_Neutral>
1.21525

> <r_epik_State_Penalty>
4.69427

> <r_epik_Charging_Adjusted_Penalty>
7.96711

> <i_epik_Tot_Q>
-1

> <i_epik_Tot_abs_Q>
1

> <r_epik_Metal_State_Penalty>
1.91976

> <b_epik_Metal_Only>
1

> <s_lp_Force_Field>
OPLS_2005

> <r_lp_Energy>
48.8238

> <b_lp_Chiralities_Consistent>
1

> <s_lp_Variant>
AV-unprocessed.smi:1809-22

> <Gold.Version>
5.8.1

> <Gold.Id.Protein>
6NUR|6NUR_protein|mol2

> <Gold.PLP.Fitness>
38.3534

> <Gold.PLP.PLP>
-30.3541

> <Gold.PLP.part.hbond>
-2.0000

> <Gold.PLP.part.metal>
0.0000

> <Gold.PLP.part.buried>
-4.6249

> <Gold.PLP.part.nonpolar>
-23.8020

> <Gold.PLP.part.repulsive>
0.1148

> <Gold.PLP.ligand.clash>
0.0000

> <Gold.PLP.ligand.torsion>
0.3731

> <Gold.PLP.Chemscore.Hbond>
2.9120

> <Gold.PLP.Chemscore.CHOScore>
0.0000

> <Gold.PLP.Chemscore.Metal>
0.0000

> <Gold.Chemscore.Hbonds>
donor molecule, donor type, donor heavy atom, donor atom, acceptor molecule, acceptor atom, score
      P1  H  6896  6907       L1     6  1.20
      P1  H  7997  8010       L1    19  0.78

> <Gold.PLP.Chemscore.Internal.Correction>
0.0095

> <Gold.Rescore>
     Score         DG    S(hbond)    S(metal)    S(lipo)     H(rot)  DE(clash)    DE(int)     intcor
     15.28     -17.12       1.37        0.00      89.03       1.31       0.01       1.83       ----

> <Gold.Chemscore.Fitness>
15.2843

> <Gold.Chemscore.DG>
-17.1249

> <Gold.Chemscore.ZeroCoef>
-5.4800

> <Gold.Chemscore.Hbond>
1.3682

> <Gold.Chemscore.Metal>
0.0000

> <Gold.Chemscore.Lipo>
89.0284

> <Gold.Chemscore.Internal_Hbond>
0.0000

> <Gold.Chemscore.DEClash>
0.0089

> <Gold.Chemscore.DEInternal>
1.8317

> <Gold.Chemscore.Rot>
1.3051

> <Gold.Chemscore.Internal.Correction>
   9.000000E+99

> <Gold.Chemscore.Hbonds>
donor molecule, donor type, donor heavy atom, donor atom, acceptor molecule, acceptor atom, score
      P1  H  6896  6907       L1     6  0.07
      P1  H  7997  8010       L1    19  0.13

> <Gold.Chemscore.Hbond.Weighted>
-4.5698

> <Gold.Chemscore.Metal.Weighted>
-0.0000

> <Gold.Chemscore.Lipo.Weighted>
-10.4163

> <Gold.Chemscore.Internal_Hbond.Weighted>
0.0000

> <Gold.Chemscore.DEClash.Weighted>
0.0089

> <Gold.Chemscore.DEInternal.Weighted>
1.8317

> <Gold.Chemscore.Rot.Weighted>
3.3412

> <Gold.Chemscore.Internal.Correction.Weighted>
   9.000000E+99

> <Gold.Protein.RotatedTorsions>
[ 6907 6896 6895 6894 ] final   44.41 input  -60.11 | X-H torsion
[ 7974 7965 7964 7962 ] final   16.51 input  175.53 | X-H torsion
[ 8008 7997 7996 7995 ] final    4.85 input   59.86 | X-H torsion
[ 10167 10162 10161 10158 ] final   94.45 input  -65.29 | X-H torsion
[ 10718 10713 10712 10709 ] final  -66.99 input   66.30 | X-H torsion
[ 10763 10752 10751 10750 ] final -142.99 input  -60.55 | X-H torsion
[ 11005 11000 10999 10996 ] final   49.85 input  -57.11 | X-H torsion

> <Gold.Protein.ActiveResidues>
 VAL166  LYS551  ARG553  GLY616  TRP617  ASP618  TYR619  PRO620  LYS621  CYS622 
 ASP623  PHE694  ASN695  SER759  ASP760  ASP761  ALA762  ILE779  LEU786  VAL792 
 PHE793  MET794  SER795  GLU796  ALA797  LYS798  CYS799  TRP800  GLU811  SER814 

> <Gold.Protein.RotatedAtoms>
  152.2322  134.8311  160.0471 H   0  0  0  0  0  0  0  0  0  0  0  0  # atno 6907 bound_to 6896
  151.9056  133.3543  159.3854 H   0  0  0  0  0  0  0  0  0  0  0  0  # atno 6908 bound_to 6896
  150.7029  134.4710  159.5469 H   0  0  0  0  0  0  0  0  0  0  0  0  # atno 6909 bound_to 6896
  146.2247  139.8737  142.8583 H   0  0  0  0  0  0  0  0  0  0  0  0  # atno 7974 bound_to 7965
  154.7210  140.2711  155.6542 H   0  0  0  0  0  0  0  0  0  0  0  0  # atno 8008 bound_to 7997
  156.2823  140.2734  156.1806 H   0  0  0  0  0  0  0  0  0  0  0  0  # atno 8009 bound_to 7997
  155.0507  140.0371  157.2532 H   0  0  0  0  0  0  0  0  0  0  0  0  # atno 8010 bound_to 7997
  139.8082  144.6785  150.9675 H   0  0  0  0  0  0  0  0  0  0  0  0  # atno 10167 bound_to 10162
  156.0582  130.4271  150.1789 H   0  0  0  0  0  0  0  0  0  0  0  0  # atno 10718 bound_to 10713
  154.8488  135.3480  154.6115 H   0  0  0  0  0  0  0  0  0  0  0  0  # atno 10763 bound_to 10752
  153.6724  135.6984  153.5147 H   0  0  0  0  0  0  0  0  0  0  0  0  # atno 10764 bound_to 10752
  153.2732  135.4286  155.0964 H   0  0  0  0  0  0  0  0  0  0  0  0  # atno 10765 bound_to 10752
  140.1068  134.5008  155.8713 H   0  0  0  0  0  0  0  0  0  0  0  0  # atno 11005 bound_to 11000
  145.2583  141.0068  143.3841 LP  0  0  0  0  0  0  0  0  0  0  0  0  # atno 17320 bound_to 7965
  144.9319  139.4288  143.6491 LP  0  0  0  0  0  0  0  0  0  0  0  0  # atno 17321 bound_to 7965
  140.7818  143.4212  151.0839 LP  0  0  0  0  0  0  0  0  0  0  0  0  # atno 17342 bound_to 10162
  139.7880  143.8260  152.3147 LP  0  0  0  0  0  0  0  0  0  0  0  0  # atno 17343 bound_to 10162
  156.9862  130.9879  151.3426 LP  0  0  0  0  0  0  0  0  0  0  0  0  # atno 17370 bound_to 10713
  157.5569  130.8220  149.8216 LP  0  0  0  0  0  0  0  0  0  0  0  0  # atno 17371 bound_to 10713
  141.2120  133.6714  156.6626 LP  0  0  0  0  0  0  0  0  0  0  0  0  # atno 17394 bound_to 11000
  140.3145  134.8059  157.4203 LP  0  0  0  0  0  0  0  0  0  0  0  0  # atno 17395 bound_to 11000

$$$$
