AV-unprocessed.smi:1910|AV-procd|sdf|7737|dock3
  -GOLD-   22720 9473D 1   1.00000     0.00000
 Structure written by MMmdl.
 41 42  0  0  0  0  0  0  0  0  2 V2000
  151.0790  145.2619  159.8182 C   0  0  0  0  0  0  0  0  0  0  0  0
  151.3346  143.9830  159.2480 O   0  0  0  0  0  0  0  0  0  0  0  0
  152.1432  143.1013  159.9396 C   0  0  0  0  0  0  0  0  0  0  0  0
  152.5460  143.4397  161.1902 N   0  0  0  0  0  0  0  0  0  0  0  0
  153.3302  142.5769  161.8685 C   0  0  0  0  0  0  0  0  0  0  0  0
  153.7465  141.3392  161.3449 C   0  0  0  0  0  0  0  0  0  0  0  0
  153.3306  140.9862  160.0480 C   0  0  0  0  0  0  0  0  0  0  0  0
  152.5190  141.8878  159.3174 C   0  0  0  0  0  0  0  0  0  0  0  0
  152.0249  141.6204  158.0110 N   0  0  0  0  0  0  0  0  0  0  0  0
  152.2736  140.5601  157.2241 C   0  0  0  0  0  0  0  0  0  0  0  0
  153.0317  139.6302  157.4988 O   0  0  0  0  0  0  0  0  0  0  0  0
  151.6012  140.6437  156.0687 N   0  0  0  0  0  0  0  0  0  0  0  0
  151.6779  139.6525  155.0040 C   0  0  0  0  0  0  0  0  0  0  0  0
  150.3485  138.8927  154.8716 C   0  0  0  0  0  0  0  0  0  0  0  0
  149.3613  139.6312  154.0452 N   0  3  0  0  0  0  0  0  0  0  0  0
  148.1421  138.8342  153.7691 C   0  0  0  0  0  0  0  0  0  0  0  0
  147.1773  139.6213  152.8659 C   0  0  0  0  0  0  0  0  0  0  0  0
  146.8527  140.8614  153.4813 O   0  0  0  0  0  0  0  0  0  0  0  0
  148.0025  141.6761  153.6728 C   0  0  0  0  0  0  0  0  0  0  0  0
  148.9966  140.9579  154.6013 C   0  0  0  0  0  0  0  0  0  0  0  0
  150.4297  145.8297  159.1520 H   0  0  0  0  0  0  0  0  0  0  0  0
  151.9992  145.8329  159.9483 H   0  0  0  0  0  0  0  0  0  0  0  0
  150.5714  145.1753  160.7800 H   0  0  0  0  0  0  0  0  0  0  0  0
  153.6289  142.8788  162.8614 H   0  0  0  0  0  0  0  0  0  0  0  0
  154.3660  140.6729  161.9269 H   0  0  0  0  0  0  0  0  0  0  0  0
  153.6277  140.0288  159.6488 H   0  0  0  0  0  0  0  0  0  0  0  0
  151.4579  142.3525  157.6086 H   0  0  0  0  0  0  0  0  0  0  0  0
  151.0041  141.4436  155.9167 H   0  0  0  0  0  0  0  0  0  0  0  0
  151.9313  140.1680  154.0774 H   0  0  0  0  0  0  0  0  0  0  0  0
  152.4850  138.9480  155.2126 H   0  0  0  0  0  0  0  0  0  0  0  0
  150.5543  137.9288  154.4036 H   0  0  0  0  0  0  0  0  0  0  0  0
  149.9236  138.6750  155.8530 H   0  0  0  0  0  0  0  0  0  0  0  0
  148.4134  137.8962  153.2830 H   0  0  0  0  0  0  0  0  0  0  0  0
  147.6505  138.5788  154.7093 H   0  0  0  0  0  0  0  0  0  0  0  0
  147.6160  139.7934  151.8817 H   0  0  0  0  0  0  0  0  0  0  0  0
  146.2600  139.0533  152.7103 H   0  0  0  0  0  0  0  0  0  0  0  0
  148.4640  141.9082  152.7116 H   0  0  0  0  0  0  0  0  0  0  0  0
  147.6939  142.6238  154.1146 H   0  0  0  0  0  0  0  0  0  0  0  0
  148.5544  140.8312  155.5908 H   0  0  0  0  0  0  0  0  0  0  0  0
  149.8835  141.5785  154.7247 H   0  0  0  0  0  0  0  0  0  0  0  0
  149.7994  139.7949  153.1498 H   0  0  0  0  0  0  0  0  0  0  0  0
  1  2  1  0  0  0  0
  1 21  1  0  0  0  0
  1 22  1  0  0  0  0
  1 23  1  0  0  0  0
  2  3  1  0  0  0  0
  3  8  1  0  0  0  0
  3  4  2  0  0  0  0
  4  5  1  0  0  0  0
  5  6  2  0  0  0  0
  5 24  1  0  0  0  0
  6  7  1  0  0  0  0
  6 25  1  0  0  0  0
  7  8  2  0  0  0  0
  7 26  1  0  0  0  0
  8  9  1  0  0  0  0
  9 10  1  0  0  0  0
  9 27  1  0  0  0  0
 10 11  2  0  0  0  0
 10 12  1  0  0  0  0
 12 13  1  0  0  0  0
 12 28  1  0  0  0  0
 13 14  1  0  0  0  0
 13 29  1  0  0  0  0
 13 30  1  0  0  0  0
 14 15  1  0  0  0  0
 14 31  1  0  0  0  0
 14 32  1  0  0  0  0
 15 20  1  0  0  0  0
 15 16  1  0  0  0  0
 15 41  1  0  0  0  0
 16 17  1  0  0  0  0
 16 33  1  0  0  0  0
 16 34  1  0  0  0  0
 17 18  1  0  0  0  0
 17 35  1  0  0  0  0
 17 36  1  0  0  0  0
 18 19  1  0  0  0  0
 19 20  1  0  0  0  0
 19 37  1  0  0  0  0
 19 38  1  0  0  0  0
 20 39  1  0  0  0  0
 20 40  1  0  0  0  0
M  CHG  1  15   1
M  END
> <s_m_source_file>
AV-unprocessed.smi

> <i_m_source_file_index>
1910

> <i_lp_mmshare_version>
43012

> <i_f3d_flags>
0

> <s_epik_input>
W0NIM11PYzFuW2NIXVtjSF1bY0hdYzFbTkhdQyg9TylbTkhdW0NIMl1bQ0gyXU4yW0NIMl1bQ0gyXU9bQ0gyXVtDSDJdMg==

> <s_epik_cmdline>
J2VwaWtfcHl0aG9uJywgJy1waCcsICc3LjAnLCAnLXRuJywgJzgnLCAnLW1hJywgJzIwMCcsICctbWV0YWxfYmluZGluZycsICctaW1hZScsICc8aW5maWxlLm1hZT4nLCAnLW9tYWUnLCAnPG91dGZpbGUubWFlPic=

> <r_lp_tautomer_probability>
1

> <r_epik_Ionization_Penalty>
0.602607

> <r_epik_Ionization_Penalty_Charging>
0.602531

> <r_epik_Ionization_Penalty_Neutral>
7.65669e-05

> <r_epik_State_Penalty>
0.617039

> <r_epik_Charging_Adjusted_Penalty>
1.21957

> <i_epik_Tot_Q>
1

> <i_epik_Tot_abs_Q>
1

> <r_epik_Metal_State_Penalty>
0.617043

> <b_epik_Metal_Only>
0

> <s_lp_Force_Field>
OPLS_2005

> <r_lp_Energy>
18.6257

> <b_lp_Chiralities_Consistent>
1

> <s_lp_Variant>
AV-unprocessed.smi:1910-2

> <Gold.Version>
5.8.1

> <Gold.Id.Protein>
6NUR|6NUR_protein|mol2

> <Gold.PLP.Fitness>
44.9457

> <Gold.PLP.PLP>
-39.4655

> <Gold.PLP.part.hbond>
-2.0000

> <Gold.PLP.part.metal>
0.0000

> <Gold.PLP.part.buried>
-2.2375

> <Gold.PLP.part.nonpolar>
-32.8400

> <Gold.PLP.part.repulsive>
0.6773

> <Gold.PLP.ligand.clash>
0.0000

> <Gold.PLP.ligand.torsion>
0.2214

> <Gold.PLP.Chemscore.Hbond>
1.9588

> <Gold.PLP.Chemscore.CHOScore>
0.0000

> <Gold.PLP.Chemscore.Metal>
0.0000

> <Gold.Chemscore.Hbonds>
donor molecule, donor type, donor heavy atom, donor atom, acceptor molecule, acceptor atom, score
      L1  H    15    41       P1  7957  0.99
      P1  H  7997  8010       L1    11  1.00

> <Gold.PLP.Chemscore.Internal.Correction>
0.0468

> <Gold.Rescore>
     Score         DG    S(hbond)    S(metal)    S(lipo)     H(rot)  DE(clash)    DE(int)     intcor
     14.27     -17.16       1.71        0.00      90.93       1.83       0.35       2.54       ----

> <Gold.Chemscore.Fitness>
14.2695

> <Gold.Chemscore.DG>
-17.1612

> <Gold.Chemscore.ZeroCoef>
-5.4800

> <Gold.Chemscore.Hbond>
1.7118

> <Gold.Chemscore.Metal>
0.0000

> <Gold.Chemscore.Lipo>
90.9256

> <Gold.Chemscore.Internal_Hbond>
0.0000

> <Gold.Chemscore.DEClash>
0.3491

> <Gold.Chemscore.DEInternal>
2.5426

> <Gold.Chemscore.Rot>
1.8260

> <Gold.Chemscore.Internal.Correction>
   9.000000E+99

> <Gold.Chemscore.Hbonds>
donor molecule, donor type, donor heavy atom, donor atom, acceptor molecule, acceptor atom, score
      L1  H    15    41       P1  7957  0.89
      P1  H  7997  8010       L1    11  0.69

> <Gold.Chemscore.Hbond.Weighted>
-5.7173

> <Gold.Chemscore.Metal.Weighted>
-0.0000

> <Gold.Chemscore.Lipo.Weighted>
-10.6383

> <Gold.Chemscore.Internal_Hbond.Weighted>
0.0000

> <Gold.Chemscore.DEClash.Weighted>
0.3491

> <Gold.Chemscore.DEInternal.Weighted>
2.5426

> <Gold.Chemscore.Rot.Weighted>
4.6744

> <Gold.Chemscore.Internal.Correction.Weighted>
   9.000000E+99

> <Gold.Protein.RotatedTorsions>
[ 6907 6896 6895 6894 ] final  -15.83 input  -60.11 | X-H torsion
[ 7974 7965 7964 7962 ] final   -8.85 input  175.53 | X-H torsion
[ 8008 7997 7996 7995 ] final   34.53 input   59.86 | X-H torsion
[ 10167 10162 10161 10158 ] final  -99.45 input  -65.29 | X-H torsion
[ 10718 10713 10712 10709 ] final   45.84 input   66.30 | X-H torsion
[ 10763 10752 10751 10750 ] final  100.04 input  -60.55 | X-H torsion
[ 11005 11000 10999 10996 ] final   -9.17 input  -57.11 | X-H torsion

> <Gold.Protein.ActiveResidues>
 VAL166  LYS551  ARG553  GLY616  TRP617  ASP618  TYR619  PRO620  LYS621  CYS622 
 ASP623  PHE694  ASN695  SER759  ASP760  ASP761  ALA762  ILE779  LEU786  VAL792 
 PHE793  MET794  SER795  GLU796  ALA797  LYS798  CYS799  TRP800  GLU811  SER814 

> <Gold.Protein.RotatedAtoms>
  151.3179  135.0811  159.9295 H   0  0  0  0  0  0  0  0  0  0  0  0  # atno 6907 bound_to 6896
  152.5263  133.9669  159.7754 H   0  0  0  0  0  0  0  0  0  0  0  0  # atno 6908 bound_to 6896
  150.9985  133.6027  159.2728 H   0  0  0  0  0  0  0  0  0  0  0  0  # atno 6909 bound_to 6896
  146.2269  140.2529  142.8348 H   0  0  0  0  0  0  0  0  0  0  0  0  # atno 7974 bound_to 7965
  155.1563  140.3279  155.4420 H   0  0  0  0  0  0  0  0  0  0  0  0  # atno 8008 bound_to 7997
  156.2557  140.1968  156.6623 H   0  0  0  0  0  0  0  0  0  0  0  0  # atno 8009 bound_to 7997
  154.6437  140.0567  156.9861 H   0  0  0  0  0  0  0  0  0  0  0  0  # atno 8010 bound_to 7997
  140.2623  143.3399  152.0614 H   0  0  0  0  0  0  0  0  0  0  0  0  # atno 10167 bound_to 10162
  157.4418  130.8086  149.7701 H   0  0  0  0  0  0  0  0  0  0  0  0  # atno 10718 bound_to 10713
  153.3090  135.4092  155.1319 H   0  0  0  0  0  0  0  0  0  0  0  0  # atno 10763 bound_to 10752
  154.8570  135.3560  154.5749 H   0  0  0  0  0  0  0  0  0  0  0  0  # atno 10764 bound_to 10752
  153.6177  135.7065  153.5381 H   0  0  0  0  0  0  0  0  0  0  0  0  # atno 10765 bound_to 10752
  140.7313  133.8746  155.8895 H   0  0  0  0  0  0  0  0  0  0  0  0  # atno 11005 bound_to 11000
  144.9398  140.8065  143.5638 LP  0  0  0  0  0  0  0  0  0  0  0  0  # atno 17320 bound_to 7965
  145.2480  139.2044  143.4957 LP  0  0  0  0  0  0  0  0  0  0  0  0  # atno 17321 bound_to 7965
  139.5013  144.6711  151.6241 LP  0  0  0  0  0  0  0  0  0  0  0  0  # atno 17342 bound_to 10162
  140.5956  143.9702  150.6352 LP  0  0  0  0  0  0  0  0  0  0  0  0  # atno 17343 bound_to 10162
  155.9952  130.3913  150.2830 LP  0  0  0  0  0  0  0  0  0  0  0  0  # atno 17370 bound_to 10713
  157.0995  131.0192  151.3091 LP  0  0  0  0  0  0  0  0  0  0  0  0  # atno 17371 bound_to 10713
  140.9918  134.1268  157.4401 LP  0  0  0  0  0  0  0  0  0  0  0  0  # atno 17394 bound_to 11000
  139.8825  135.0042  156.6238 LP  0  0  0  0  0  0  0  0  0  0  0  0  # atno 17395 bound_to 11000

$$$$
