AV-unprocessed.smi:287|AV-procd|sdf|2198|dock5
  -GOLD-   2262022 03D 1   1.00000     0.00000
 Structure written by MMmdl.
 55 58  0  0  0  0  0  0  0  0  1 V2000
  151.1654  143.9429  158.6917 C   0  0  0  0  0  0  0  0  0  0  0  0
  151.1925  142.5394  158.1922 C   0  0  0  0  0  0  0  0  0  0  0  0
  150.8745  141.9554  157.0011 C   0  0  0  0  0  0  0  0  0  0  0  0
  151.1253  140.5566  157.1315 C   0  0  0  0  0  0  0  0  0  0  0  0
  150.9131  139.4988  156.0570 C   0  0  2  0  0  0  0  0  0  0  0  0
  152.2709  138.9231  155.6233 C   0  0  0  0  0  0  0  0  0  0  0  0
  150.3332  140.0265  154.8793 O   0  0  0  0  0  0  0  0  0  0  0  0
  149.9754  138.3590  156.5185 C   0  0  0  0  0  0  0  0  0  0  0  0
  148.7091  138.8461  157.0512 N   0  0  0  0  0  0  0  0  0  0  0  0
  147.5497  138.6291  156.3959 C   0  0  0  0  0  0  0  0  0  0  0  0
  146.6467  139.6366  156.4614 N   0  0  0  0  0  0  0  0  0  0  0  0
  145.4660  139.5227  155.8471 C   0  0  0  0  0  0  0  0  0  0  0  0
  144.9970  138.5044  155.1241 N   0  0  0  0  0  0  0  0  0  0  0  0
  145.9016  137.4854  155.0527 C   0  0  0  0  0  0  0  0  0  0  0  0
  147.1926  137.4642  155.6536 C   0  0  0  0  0  0  0  0  0  0  0  0
  147.8160  136.2582  155.3503 N   0  0  0  0  0  0  0  0  0  0  0  0
  146.9455  135.6155  154.6203 C   0  0  0  0  0  0  0  0  0  0  0  0
  145.7645  136.2865  154.3875 N   0  0  0  0  0  0  0  0  0  0  0  0
  144.5609  135.8580  153.5986 C   0  0  2  0  0  0  0  0  0  0  0  0
  144.6757  134.4891  153.3630 O   0  0  0  0  0  0  0  0  0  0  0  0
  145.1081  134.2155  152.0266 C   0  0  1  0  0  0  0  0  0  0  0  0
  143.9725  133.4058  151.3653 C   0  0  0  0  0  0  0  0  0  0  0  0
  142.7241  133.9753  151.6972 O   0  0  0  0  0  0  0  0  0  0  0  0
  145.3862  135.6005  151.4020 C   0  0  1  0  0  0  0  0  0  0  0  0
  145.0684  135.6828  150.0263 O   0  0  0  0  0  0  0  0  0  0  0  0
  144.5141  136.5352  152.2216 C   0  0  2  0  0  0  0  0  0  0  0  0
  145.0239  137.8564  152.2095 O   0  0  0  0  0  0  0  0  0  0  0  0
  151.5639  140.3991  158.4239 C   0  0  0  0  0  0  0  0  0  0  0  0
  151.9784  139.2196  159.2400 C   0  0  0  0  0  0  0  0  0  0  0  0
  151.6137  141.5964  159.0717 O   0  0  0  0  0  0  0  0  0  0  0  0
  143.7089  136.0850  154.2403 H   0  0  0  0  0  0  0  0  0  0  0  0
  146.0270  133.6275  152.0345 H   0  0  0  0  0  0  0  0  0  0  0  0
  146.4392  135.8517  151.5396 H   0  0  0  0  0  0  0  0  0  0  0  0
  143.4814  136.5180  151.8700 H   0  0  0  0  0  0  0  0  0  0  0  0
  150.9428  144.6392  157.8829 H   0  0  0  0  0  0  0  0  0  0  0  0
  152.1290  144.2203  159.1198 H   0  0  0  0  0  0  0  0  0  0  0  0
  150.4035  144.0642  159.4617 H   0  0  0  0  0  0  0  0  0  0  0  0
  150.5098  142.4753  156.1275 H   0  0  0  0  0  0  0  0  0  0  0  0
  152.7886  138.4588  156.4636 H   0  0  0  0  0  0  0  0  0  0  0  0
  152.9236  139.7019  155.2262 H   0  0  0  0  0  0  0  0  0  0  0  0
  152.1555  138.1627  154.8497 H   0  0  0  0  0  0  0  0  0  0  0  0
  149.9075  140.8421  155.0944 H   0  0  0  0  0  0  0  0  0  0  0  0
  149.7980  137.6514  155.7074 H   0  0  0  0  0  0  0  0  0  0  0  0
  150.4719  137.8070  157.3177 H   0  0  0  0  0  0  0  0  0  0  0  0
  148.7564  139.2715  157.9660 H   0  0  0  0  0  0  0  0  0  0  0  0
  144.8031  140.3692  155.9486 H   0  0  0  0  0  0  0  0  0  0  0  0
  147.1492  134.6290  154.2313 H   0  0  0  0  0  0  0  0  0  0  0  0
  144.0923  133.3580  150.2824 H   0  0  0  0  0  0  0  0  0  0  0  0
  143.9492  132.3814  151.7363 H   0  0  0  0  0  0  0  0  0  0  0  0
  142.1939  134.0131  150.9160 H   0  0  0  0  0  0  0  0  0  0  0  0
  145.7909  135.3241  149.5335 H   0  0  0  0  0  0  0  0  0  0  0  0
  144.7041  138.2937  151.4349 H   0  0  0  0  0  0  0  0  0  0  0  0
  151.2204  138.4373  159.2000 H   0  0  0  0  0  0  0  0  0  0  0  0
  152.1222  139.4933  160.2856 H   0  0  0  0  0  0  0  0  0  0  0  0
  152.9153  138.8040  158.8693 H   0  0  0  0  0  0  0  0  0  0  0  0
  1  2  1  0  0  0  0
  1 35  1  0  0  0  0
  1 36  1  0  0  0  0
  1 37  1  0  0  0  0
  2 30  1  0  0  0  0
  2  3  2  0  0  0  0
  3  4  1  0  0  0  0
  3 38  1  0  0  0  0
  4  5  1  0  0  0  0
  4 28  2  0  0  0  0
  5  6  1  0  0  0  0
  5  7  1  0  0  0  0
  5  8  1  0  0  0  0
  6 39  1  0  0  0  0
  6 40  1  0  0  0  0
  6 41  1  0  0  0  0
  7 42  1  0  0  0  0
  8  9  1  0  0  0  0
  8 43  1  0  0  0  0
  8 44  1  0  0  0  0
  9 10  1  0  0  0  0
  9 45  1  0  0  0  0
 10 15  1  0  0  0  0
 10 11  2  0  0  0  0
 11 12  1  0  0  0  0
 12 13  2  0  0  0  0
 12 46  1  0  0  0  0
 13 14  1  0  0  0  0
 14 18  1  0  0  0  0
 14 15  2  0  0  0  0
 15 16  1  0  0  0  0
 16 17  2  0  0  0  0
 17 18  1  0  0  0  0
 17 47  1  0  0  0  0
 18 19  1  0  0  0  0
 19 31  1  0  0  0  0
 19 26  1  0  0  0  0
 19 20  1  0  0  0  0
 20 21  1  0  0  0  0
 21 32  1  0  0  0  0
 21 22  1  0  0  0  0
 21 24  1  0  0  0  0
 22 23  1  0  0  0  0
 22 48  1  0  0  0  0
 22 49  1  0  0  0  0
 23 50  1  0  0  0  0
 24 33  1  0  0  0  0
 24 25  1  0  0  0  0
 24 26  1  0  0  0  0
 25 51  1  0  0  0  0
 26 34  1  0  0  0  0
 26 27  1  0  0  0  0
 27 52  1  0  0  0  0
 28 29  1  0  0  0  0
 28 30  1  0  0  0  0
 29 53  1  0  0  0  0
 29 54  1  0  0  0  0
 29 55  1  0  0  0  0
M  END
> <s_m_source_file>
AV-unprocessed.smi

> <i_m_source_file_index>
287

> <i_lp_mmshare_version>
43012

> <i_f3d_flags>
0

> <s_epik_input>
W0NIM11jMVtjSF1jKGMobzEpW0NIM10pW0NAQF0oW0NIM10pKFtPSF0pW0NIMl1bTkhdYyhuW2NIXW4yKWMoYzIzKW5bY0hdbjNbQ0BASF00T1tDQEhdKFtDSDJdW09IXSlbQ0BASF0oW09IXSlbQ0BIXTRbT0hd

> <s_epik_cmdline>
J2VwaWtfcHl0aG9uJywgJy1waCcsICc3LjAnLCAnLXRuJywgJzgnLCAnLW1hJywgJzIwMCcsICctbWV0YWxfYmluZGluZycsICctaW1hZScsICc8aW5maWxlLm1hZT4nLCAnLW9tYWUnLCAnPG91dGZpbGUubWFlPic=

> <r_lp_tautomer_probability>
1

> <r_epik_Ionization_Penalty>
0.000992612

> <r_epik_Ionization_Penalty_Charging>
0

> <r_epik_Ionization_Penalty_Neutral>
0.000992612

> <r_epik_State_Penalty>
-0

> <r_epik_Charging_Adjusted_Penalty>
0

> <i_epik_Tot_Q>
0

> <i_epik_Tot_abs_Q>
0

> <r_epik_Metal_State_Penalty>
-0

> <b_epik_Metal_Only>
0

> <s_epik_Chemistry_Notes>
This compound contains an acetal/aminal-like group ( X-CH(R)-Y where X, Y are N, S, or O) that may be acid/base labile, releasing an aldehyde.

> <s_lp_Force_Field>
OPLS_2005

> <r_lp_Energy>
45.8493

> <b_lp_Chiralities_Consistent>
1

> <s_lp_Variant>
AV-unprocessed.smi:287-22

> <Gold.Version>
5.8.1

> <Gold.Id.Protein>
6NUR|6NUR_protein|mol2

> <Gold.PLP.Fitness>
49.2135

> <Gold.PLP.PLP>
-39.1831

> <Gold.PLP.part.hbond>
-6.0436

> <Gold.PLP.part.metal>
0.0000

> <Gold.PLP.part.buried>
-5.5105

> <Gold.PLP.part.nonpolar>
-27.5615

> <Gold.PLP.part.repulsive>
0.2699

> <Gold.PLP.ligand.clash>
0.0464

> <Gold.PLP.ligand.torsion>
0.9570

> <Gold.PLP.Chemscore.Hbond>
3.9440

> <Gold.PLP.Chemscore.CHOScore>
0.0000

> <Gold.PLP.Chemscore.Metal>
0.0000

> <Gold.Chemscore.Hbonds>
donor molecule, donor type, donor heavy atom, donor atom, acceptor molecule, acceptor atom, score
      L1  H    23    50       P1 10186  1.00
      L1  H    25    51       P1  7921  0.74
      L1  H    27    52       P1 10171  1.00
      P1  H  7989  7998       L1     7  0.67

> <Gold.PLP.Chemscore.Internal.Correction>
0.1586

> <Gold.Rescore>
     Score         DG    S(hbond)    S(metal)    S(lipo)     H(rot)  DE(clash)    DE(int)     intcor
     11.19     -13.08       3.57        0.00      78.35       5.27       0.07       1.82       ----

> <Gold.Chemscore.Fitness>
11.1872

> <Gold.Chemscore.DG>
-13.0783

> <Gold.Chemscore.ZeroCoef>
-5.4800

> <Gold.Chemscore.Hbond>
3.5674

> <Gold.Chemscore.Metal>
0.0000

> <Gold.Chemscore.Lipo>
78.3523

> <Gold.Chemscore.Internal_Hbond>
0.0000

> <Gold.Chemscore.DEClash>
0.0689

> <Gold.Chemscore.DEInternal>
1.8222

> <Gold.Chemscore.Rot>
5.2672

> <Gold.Chemscore.Internal.Correction>
   9.000000E+99

> <Gold.Chemscore.Hbonds>
donor molecule, donor type, donor heavy atom, donor atom, acceptor molecule, acceptor atom, score
      L1  H    23    50       P1 10186  0.35
      L1  H    25    51       P1  7921  0.71
      L1  H    27    52       P1 10171  1.00
      P1  H  7989  7998       L1     7  0.08

> <Gold.Chemscore.Hbond.Weighted>
-11.9150

> <Gold.Chemscore.Metal.Weighted>
-0.0000

> <Gold.Chemscore.Lipo.Weighted>
-9.1672

> <Gold.Chemscore.Internal_Hbond.Weighted>
0.0000

> <Gold.Chemscore.DEClash.Weighted>
0.0689

> <Gold.Chemscore.DEInternal.Weighted>
1.8222

> <Gold.Chemscore.Rot.Weighted>
13.4839

> <Gold.Chemscore.Internal.Correction.Weighted>
   9.000000E+99

> <Gold.Protein.RotatedTorsions>
[ 6907 6896 6895 6894 ] final  147.01 input  -60.11 | X-H torsion
[ 7974 7965 7964 7962 ] final -136.51 input  175.53 | X-H torsion
[ 8008 7997 7996 7995 ] final  -34.40 input   59.86 | X-H torsion
[ 10167 10162 10161 10158 ] final  101.12 input  -65.29 | X-H torsion
[ 10718 10713 10712 10709 ] final -165.72 input   66.30 | X-H torsion
[ 10763 10752 10751 10750 ] final  -61.05 input  -60.55 | X-H torsion
[ 11005 11000 10999 10996 ] final -166.29 input  -57.11 | X-H torsion

> <Gold.Protein.ActiveResidues>
 VAL166  LYS551  ARG553  GLY616  TRP617  ASP618  TYR619  PRO620  LYS621  CYS622 
 ASP623  PHE694  ASN695  SER759  ASP760  ASP761  ALA762  ILE779  LEU786  VAL792 
 PHE793  MET794  SER795  GLU796  ALA797  LYS798  CYS799  TRP800  GLU811  SER814 

> <Gold.Protein.RotatedAtoms>
  152.1603  133.4578  159.4857 H   0  0  0  0  0  0  0  0  0  0  0  0  # atno 6907 bound_to 6896
  150.6906  134.2079  159.4357 H   0  0  0  0  0  0  0  0  0  0  0  0  # atno 6908 bound_to 6896
  151.9981  134.9943  160.0614 H   0  0  0  0  0  0  0  0  0  0  0  0  # atno 6909 bound_to 6896
  144.8921  140.6656  143.5139 H   0  0  0  0  0  0  0  0  0  0  0  0  # atno 7974 bound_to 7965
  154.4122  140.1685  156.2044 H   0  0  0  0  0  0  0  0  0  0  0  0  # atno 8008 bound_to 7997
  155.9497  140.3402  155.6373 H   0  0  0  0  0  0  0  0  0  0  0  0  # atno 8009 bound_to 7997
  155.6886  140.0731  157.2448 H   0  0  0  0  0  0  0  0  0  0  0  0  # atno 8010 bound_to 7997
  139.7466  144.6996  151.0494 H   0  0  0  0  0  0  0  0  0  0  0  0  # atno 10167 bound_to 10162
  156.6574  130.9032  151.3023 H   0  0  0  0  0  0  0  0  0  0  0  0  # atno 10718 bound_to 10713
  154.2786  135.6276  153.5338 H   0  0  0  0  0  0  0  0  0  0  0  0  # atno 10763 bound_to 10752
  152.9869  135.5627  154.5521 H   0  0  0  0  0  0  0  0  0  0  0  0  # atno 10764 bound_to 10752
  154.5106  135.2877  155.1321 H   0  0  0  0  0  0  0  0  0  0  0  0  # atno 10765 bound_to 10752
  140.5661  134.5284  157.5153 H   0  0  0  0  0  0  0  0  0  0  0  0  # atno 11005 bound_to 11000
  145.3765  139.1646  143.4304 LP  0  0  0  0  0  0  0  0  0  0  0  0  # atno 17320 bound_to 7965
  146.3060  140.3841  142.8687 LP  0  0  0  0  0  0  0  0  0  0  0  0  # atno 17321 bound_to 7965
  140.7793  143.4859  150.9956 LP  0  0  0  0  0  0  0  0  0  0  0  0  # atno 17342 bound_to 10162
  139.8547  143.7392  152.3176 LP  0  0  0  0  0  0  0  0  0  0  0  0  # atno 17343 bound_to 10162
  157.7121  130.9452  150.1125 LP  0  0  0  0  0  0  0  0  0  0  0  0  # atno 17370 bound_to 10713
  156.2037  130.3662  149.8756 LP  0  0  0  0  0  0  0  0  0  0  0  0  # atno 17371 bound_to 10713
  139.9384  134.7832  156.0742 LP  0  0  0  0  0  0  0  0  0  0  0  0  # atno 17394 bound_to 11000
  141.1085  133.6651  156.2921 LP  0  0  0  0  0  0  0  0  0  0  0  0  # atno 17395 bound_to 11000

$$$$
