AV-unprocessed.smi:1762|AV-procd|sdf|7120|dock6
  -GOLD-   22720 8353D 1   1.00000     0.00000
 Structure written by MMmdl.
 52 53  0  0  0  0  0  0  0  0  3 V2000
  145.7371  131.5382  150.6125 C   0  0  0  0  0  0  0  0  0  0  0  0
  145.8446  132.5162  151.7873 C   0  0  1  0  0  0  0  0  0  0  0  0
  147.0475  133.4692  151.6382 C   0  0  0  0  0  0  0  0  0  0  0  0
  147.1068  134.4395  152.7653 N   0  3  2  0  0  0  0  0  0  0  0  0
  147.5834  133.9070  154.0924 C   0  0  2  0  0  0  0  0  0  0  0  0
  147.5335  134.9787  155.2108 C   0  0  0  0  0  0  0  0  0  0  0  0
  148.0274  136.0855  154.9707 O   0  0  0  0  0  0  0  0  0  0  0  0
  146.9427  134.5116  156.3482 N   0  5  0  0  0  0  0  0  0  0  0  0
  147.4797  134.7165  157.6924 C   0  0  0  0  0  0  0  0  0  0  0  0
  146.4363  134.3050  158.7569 C   0  0  0  0  0  0  0  0  0  0  0  0
  146.7735  134.7600  160.1731 C   0  0  0  0  0  0  0  0  0  0  0  0
  146.8905  133.8192  161.2217 C   0  0  0  0  0  0  0  0  0  0  0  0
  147.2163  134.2820  162.5109 C   0  0  0  0  0  0  0  0  0  0  0  0
  147.4173  135.6615  162.7060 C   0  0  0  0  0  0  0  0  0  0  0  0
  147.2838  136.5209  161.5976 C   0  0  0  0  0  0  0  0  0  0  0  0
  146.9736  136.0880  160.3569 N   0  0  0  0  0  0  0  0  0  0  0  0
  148.9659  133.1692  154.0499 C   0  0  0  0  0  0  0  0  0  0  0  0
  148.8608  131.7225  153.5284 C   0  0  0  0  0  0  0  0  0  0  0  0
  149.7548  133.1962  155.3756 C   0  0  0  0  0  0  0  0  0  0  0  0
  145.8098  135.1741  152.8153 C   0  0  0  0  0  0  0  0  0  0  0  0
  144.6112  134.2056  152.9157 C   0  0  1  0  0  0  0  0  0  0  0  0
  143.2706  134.9462  152.8638 C   0  0  0  0  0  0  0  0  0  0  0  0
  144.6508  133.2914  151.8244 O   0  0  0  0  0  0  0  0  0  0  0  0
  146.6279  130.9138  150.5389 H   0  0  0  0  0  0  0  0  0  0  0  0
  145.6202  132.0679  149.6667 H   0  0  0  0  0  0  0  0  0  0  0  0
  144.8782  130.8774  150.7326 H   0  0  0  0  0  0  0  0  0  0  0  0
  145.9313  131.9382  152.7085 H   0  0  0  0  0  0  0  0  0  0  0  0
  147.9764  132.9184  151.5085 H   0  0  0  0  0  0  0  0  0  0  0  0
  146.9351  134.0394  150.7147 H   0  0  0  0  0  0  0  0  0  0  0  0
  146.8640  133.1441  154.3893 H   0  0  0  0  0  0  0  0  0  0  0  0
  148.4039  134.1597  157.8538 H   0  0  0  0  0  0  0  0  0  0  0  0
  147.7417  135.7637  157.8454 H   0  0  0  0  0  0  0  0  0  0  0  0
  145.4586  134.7080  158.4884 H   0  0  0  0  0  0  0  0  0  0  0  0
  146.3207  133.2199  158.7633 H   0  0  0  0  0  0  0  0  0  0  0  0
  146.7303  132.7663  161.0423 H   0  0  0  0  0  0  0  0  0  0  0  0
  147.3108  133.5909  163.3355 H   0  0  0  0  0  0  0  0  0  0  0  0
  147.6679  136.0517  163.6812 H   0  0  0  0  0  0  0  0  0  0  0  0
  147.4316  137.5846  161.7099 H   0  0  0  0  0  0  0  0  0  0  0  0
  149.5782  133.6716  153.3021 H   0  0  0  0  0  0  0  0  0  0  0  0
  148.3443  131.0705  154.2335 H   0  0  0  0  0  0  0  0  0  0  0  0
  149.8501  131.2962  153.3597 H   0  0  0  0  0  0  0  0  0  0  0  0
  148.3228  131.6830  152.5808 H   0  0  0  0  0  0  0  0  0  0  0  0
  149.2861  132.5718  156.1361 H   0  0  0  0  0  0  0  0  0  0  0  0
  149.8401  134.2028  155.7833 H   0  0  0  0  0  0  0  0  0  0  0  0
  150.7668  132.8178  155.2305 H   0  0  0  0  0  0  0  0  0  0  0  0
  145.7809  135.9013  153.6261 H   0  0  0  0  0  0  0  0  0  0  0  0
  145.7218  135.7606  151.8997 H   0  0  0  0  0  0  0  0  0  0  0  0
  144.6506  133.6471  153.8513 H   0  0  0  0  0  0  0  0  0  0  0  0
  143.1831  135.6560  153.6867 H   0  0  0  0  0  0  0  0  0  0  0  0
  142.4366  134.2480  152.9381 H   0  0  0  0  0  0  0  0  0  0  0  0
  143.1601  135.4993  151.9308 H   0  0  0  0  0  0  0  0  0  0  0  0
  147.8068  135.1245  152.5154 H   0  0  0  0  0  0  0  0  0  0  0  0
  1  2  1  0  0  0  0
  1 24  1  0  0  0  0
  1 25  1  0  0  0  0
  1 26  1  0  0  0  0
  2 23  1  0  0  0  0
  2  3  1  0  0  0  0
  2 27  1  0  0  0  0
  3  4  1  0  0  0  0
  3 28  1  0  0  0  0
  3 29  1  0  0  0  0
  4  5  1  0  0  0  0
  4 20  1  0  0  0  0
  4 52  1  0  0  0  0
  5  6  1  0  0  0  0
  5 17  1  0  0  0  0
  5 30  1  0  0  0  0
  6  7  2  0  0  0  0
  6  8  1  0  0  0  0
  8  9  1  0  0  0  0
  9 10  1  0  0  0  0
  9 31  1  0  0  0  0
  9 32  1  0  0  0  0
 10 11  1  0  0  0  0
 10 33  1  0  0  0  0
 10 34  1  0  0  0  0
 11 16  1  0  0  0  0
 11 12  2  0  0  0  0
 12 13  1  0  0  0  0
 12 35  1  0  0  0  0
 13 14  2  0  0  0  0
 13 36  1  0  0  0  0
 14 15  1  0  0  0  0
 14 37  1  0  0  0  0
 15 16  2  0  0  0  0
 15 38  1  0  0  0  0
 17 18  1  0  0  0  0
 17 19  1  0  0  0  0
 17 39  1  0  0  0  0
 18 40  1  0  0  0  0
 18 41  1  0  0  0  0
 18 42  1  0  0  0  0
 19 43  1  0  0  0  0
 19 44  1  0  0  0  0
 19 45  1  0  0  0  0
 20 21  1  0  0  0  0
 20 46  1  0  0  0  0
 20 47  1  0  0  0  0
 21 22  1  0  0  0  0
 21 23  1  0  0  0  0
 21 48  1  0  0  0  0
 22 49  1  0  0  0  0
 22 50  1  0  0  0  0
 22 51  1  0  0  0  0
M  CHG  1   4   1
M  CHG  1   8  -1
M  END
> <s_m_source_file>
AV-unprocessed.smi

> <i_m_source_file_index>
1762

> <i_lp_mmshare_version>
43012

> <i_f3d_flags>
0

> <s_epik_input>
W0NIM11bQ0BASF0xW0NIMl1OKFtDSDJdW0NASF0oTzEpW0NIM10pW0NAQEhdKFtDSF0oW0NIM10pW0NIM10pQyg9TylbTkhdW0NIMl1bQ0gyXWMyW2NIXVtjSF1bY0hdW2NIXW4y

> <s_epik_cmdline>
J2VwaWtfcHl0aG9uJywgJy1waCcsICc3LjAnLCAnLXRuJywgJzgnLCAnLW1hJywgJzIwMCcsICctbWV0YWxfYmluZGluZycsICctaW1hZScsICc8aW5maWxlLm1hZT4nLCAnLW9tYWUnLCAnPG91dGZpbGUubWFlPic=

> <r_epik_Ionization_Penalty>
7.82966

> <r_epik_Ionization_Penalty_Charging>
7.7461

> <r_epik_Ionization_Penalty_Neutral>
0.0835571

> <r_epik_State_Penalty>
8.52273

> <r_epik_Charging_Adjusted_Penalty>
16.2688

> <i_epik_Tot_Q>
0

> <i_epik_Tot_abs_Q>
2

> <r_epik_Metal_State_Penalty>
4.47451

> <b_epik_Metal_Only>
1

> <s_lp_Force_Field>
OPLS_2005

> <r_lp_Energy>
23.0584

> <b_lp_Chiralities_Consistent>
1

> <s_lp_Variant>
AV-unprocessed.smi:1762-22

> <Gold.Version>
5.8.1

> <Gold.Id.Protein>
6NUR|6NUR_protein|mol2

> <Gold.PLP.Fitness>
40.0190

> <Gold.PLP.PLP>
-36.8689

> <Gold.PLP.part.hbond>
-1.0000

> <Gold.PLP.part.metal>
0.0000

> <Gold.PLP.part.buried>
-4.9562

> <Gold.PLP.part.nonpolar>
-31.5316

> <Gold.PLP.part.repulsive>
0.2135

> <Gold.PLP.ligand.clash>
0.0000

> <Gold.PLP.ligand.torsion>
1.6507

> <Gold.PLP.Chemscore.Hbond>
2.0000

> <Gold.PLP.Chemscore.CHOScore>
0.0000

> <Gold.PLP.Chemscore.Metal>
0.0000

> <Gold.Chemscore.Hbonds>
donor molecule, donor type, donor heavy atom, donor atom, acceptor molecule, acceptor atom, score
      L1  H     4    52       P1  7948  2.00

> <Gold.PLP.Chemscore.Internal.Correction>
0.4515

> <Gold.Rescore>
     Score         DG    S(hbond)    S(metal)    S(lipo)     H(rot)  DE(clash)    DE(int)     intcor
     14.27     -15.93       0.98        0.00      96.26       1.60       0.00       1.66       ----

> <Gold.Chemscore.Fitness>
14.2743

> <Gold.Chemscore.DG>
-15.9301

> <Gold.Chemscore.ZeroCoef>
-5.4800

> <Gold.Chemscore.Hbond>
0.9840

> <Gold.Chemscore.Metal>
0.0000

> <Gold.Chemscore.Lipo>
96.2617

> <Gold.Chemscore.Internal_Hbond>
0.0000

> <Gold.Chemscore.DEClash>
0.0000

> <Gold.Chemscore.DEInternal>
1.6558

> <Gold.Chemscore.Rot>
1.6012

> <Gold.Chemscore.Internal.Correction>
   9.000000E+99

> <Gold.Chemscore.Hbonds>
donor molecule, donor type, donor heavy atom, donor atom, acceptor molecule, acceptor atom, score
      L1  H     4    52       P1  7948  0.98

> <Gold.Chemscore.Hbond.Weighted>
-3.2865

> <Gold.Chemscore.Metal.Weighted>
-0.0000

> <Gold.Chemscore.Lipo.Weighted>
-11.2626

> <Gold.Chemscore.Internal_Hbond.Weighted>
0.0000

> <Gold.Chemscore.DEClash.Weighted>
0.0000

> <Gold.Chemscore.DEInternal.Weighted>
1.6558

> <Gold.Chemscore.Rot.Weighted>
4.0990

> <Gold.Chemscore.Internal.Correction.Weighted>
   9.000000E+99

> <Gold.Protein.RotatedTorsions>
[ 6907 6896 6895 6894 ] final -123.12 input  -60.11 | X-H torsion
[ 7974 7965 7964 7962 ] final    6.72 input  175.53 | X-H torsion
[ 8008 7997 7996 7995 ] final  -16.97 input   59.86 | X-H torsion
[ 10167 10162 10161 10158 ] final -156.86 input  -65.29 | X-H torsion
[ 10718 10713 10712 10709 ] final -176.71 input   66.30 | X-H torsion
[ 10763 10752 10751 10750 ] final  -81.53 input  -60.55 | X-H torsion
[ 11005 11000 10999 10996 ] final -108.67 input  -57.11 | X-H torsion

> <Gold.Protein.ActiveResidues>
 VAL166  LYS551  ARG553  GLY616  TRP617  ASP618  TYR619  PRO620  LYS621  CYS622 
 ASP623  PHE694  ASN695  SER759  ASP760  ASP761  ALA762  ILE779  LEU786  VAL792 
 PHE793  MET794  SER795  GLU796  ALA797  LYS798  CYS799  TRP800  GLU811  SER814 

> <Gold.Protein.RotatedAtoms>
  150.8640  133.7601  159.2982 H   0  0  0  0  0  0  0  0  0  0  0  0  # atno 6907 bound_to 6896
  151.5235  135.1066  159.9894 H   0  0  0  0  0  0  0  0  0  0  0  0  # atno 6908 bound_to 6896
  152.4647  133.7854  159.6929 H   0  0  0  0  0  0  0  0  0  0  0  0  # atno 6909 bound_to 6896
  146.2432  140.0192  142.8399 H   0  0  0  0  0  0  0  0  0  0  0  0  # atno 7974 bound_to 7965
  154.5013  140.2155  155.9341 H   0  0  0  0  0  0  0  0  0  0  0  0  # atno 8008 bound_to 7997
  156.1437  140.3175  155.8504 H   0  0  0  0  0  0  0  0  0  0  0  0  # atno 8009 bound_to 7997
  155.4071  140.0488  157.3024 H   0  0  0  0  0  0  0  0  0  0  0  0  # atno 8010 bound_to 7997
  139.6816  143.9571  152.2340 H   0  0  0  0  0  0  0  0  0  0  0  0  # atno 10167 bound_to 10162
  156.8187  130.9612  151.3113 H   0  0  0  0  0  0  0  0  0  0  0  0  # atno 10718 bound_to 10713
  154.5647  135.5623  153.7039 H   0  0  0  0  0  0  0  0  0  0  0  0  # atno 10763 bound_to 10752
  153.0029  135.6282  154.2197 H   0  0  0  0  0  0  0  0  0  0  0  0  # atno 10764 bound_to 10752
  154.2135  135.2872  155.2930 H   0  0  0  0  0  0  0  0  0  0  0  0  # atno 10765 bound_to 10752
  141.0889  133.9089  157.2121 H   0  0  0  0  0  0  0  0  0  0  0  0  # atno 11005 bound_to 11000
  145.1257  140.9488  143.4574 LP  0  0  0  0  0  0  0  0  0  0  0  0  # atno 17320 bound_to 7965
  145.0437  139.3239  143.5963 LP  0  0  0  0  0  0  0  0  0  0  0  0  # atno 17321 bound_to 7965
  139.9362  144.6710  150.8312 LP  0  0  0  0  0  0  0  0  0  0  0  0  # atno 17342 bound_to 10162
  140.7654  143.3275  151.2484 LP  0  0  0  0  0  0  0  0  0  0  0  0  # atno 17343 bound_to 10162
  157.6468  130.8851  149.9555 LP  0  0  0  0  0  0  0  0  0  0  0  0  # atno 17370 bound_to 10713
  156.1002  130.3656  150.0233 LP  0  0  0  0  0  0  0  0  0  0  0  0  # atno 17371 bound_to 10713
  139.9712  135.0128  156.9516 LP  0  0  0  0  0  0  0  0  0  0  0  0  # atno 17394 bound_to 11000
  140.5298  134.0825  155.7313 LP  0  0  0  0  0  0  0  0  0  0  0  0  # atno 17395 bound_to 11000

$$$$
