AV-unprocessed.smi:2823|AV-procd|sdf|10885|dock8
  -GOLD-   2272015323D 1   1.00000     0.00000
 Structure written by MMmdl.
 41 42  0  0  0  0  0  0  0  0  2 V2000
  146.6595  133.9630  162.6273 C   0  0  0  0  0  0  0  0  0  0  0  0
  147.2279  135.1302  161.8951 C   0  0  0  0  0  0  0  0  0  0  0  0
  147.0472  136.3690  162.3282 N   0  0  0  0  0  0  0  0  0  0  0  0
  147.7311  137.1402  161.3782 O   0  0  0  0  0  0  0  0  0  0  0  0
  148.2462  136.2718  160.4694 C   0  0  0  0  0  0  0  0  0  0  0  0
  148.9691  136.7028  159.4226 N   0  5  0  0  0  0  0  0  0  0  0  0
  148.5502  137.7731  158.7107 C   0  0  0  0  0  0  0  0  0  0  0  0
  147.4263  138.2780  158.7483 O   0  0  0  0  0  0  0  0  0  0  0  0
  149.4946  138.2916  157.9117 N   0  0  0  0  0  0  0  0  0  0  0  0
  149.3608  139.4585  157.0372 C   0  0  0  0  0  0  0  0  0  0  0  0
  150.5899  140.4176  157.1100 C   0  0  0  0  0  0  0  0  0  0  0  0
  151.9168  139.7288  156.6426 C   0  0  0  0  0  0  0  0  0  0  0  0
  152.8579  139.6826  157.4392 O   0  0  0  0  0  0  0  0  0  0  0  0
  152.0650  139.2072  155.3941 N   0  0  0  0  0  0  0  0  0  0  0  0
  150.9142  139.1768  154.4857 C   0  0  0  0  0  0  0  0  0  0  0  0
  153.2726  138.6327  154.7922 C   0  0  0  0  0  0  0  0  0  0  0  0
  150.2715  141.6696  156.2443 C   0  0  0  0  0  0  0  0  0  0  0  0
  151.1230  142.8252  156.7807 C   0  0  0  0  0  0  0  0  0  0  0  0
  151.4292  142.4652  158.2357 C   0  0  0  0  0  0  0  0  0  0  0  0
  150.7708  141.1018  158.4883 C   0  0  0  0  0  0  0  0  0  0  0  0
  147.9642  135.0007  160.7593 N   0  0  0  0  0  0  0  0  0  0  0  0
  145.7407  134.2426  163.1440 H   0  0  0  0  0  0  0  0  0  0  0  0
  147.3756  133.5979  163.3636 H   0  0  0  0  0  0  0  0  0  0  0  0
  146.4306  133.1530  161.9343 H   0  0  0  0  0  0  0  0  0  0  0  0
  150.3970  137.8394  157.9213 H   0  0  0  0  0  0  0  0  0  0  0  0
  149.2652  139.0720  156.0221 H   0  0  0  0  0  0  0  0  0  0  0  0
  148.4145  139.9629  157.2151 H   0  0  0  0  0  0  0  0  0  0  0  0
  150.5866  140.1891  154.2448 H   0  0  0  0  0  0  0  0  0  0  0  0
  150.0778  138.6441  154.9414 H   0  0  0  0  0  0  0  0  0  0  0  0
  151.1390  138.6718  153.5453 H   0  0  0  0  0  0  0  0  0  0  0  0
  154.1941  138.7950  155.3402 H   0  0  0  0  0  0  0  0  0  0  0  0
  153.4328  139.0576  153.8008 H   0  0  0  0  0  0  0  0  0  0  0  0
  153.1503  137.5562  154.6717 H   0  0  0  0  0  0  0  0  0  0  0  0
  150.4170  141.5158  155.1740 H   0  0  0  0  0  0  0  0  0  0  0  0
  149.2219  141.9426  156.3634 H   0  0  0  0  0  0  0  0  0  0  0  0
  152.0510  142.9101  156.2145 H   0  0  0  0  0  0  0  0  0  0  0  0
  150.6009  143.7786  156.6954 H   0  0  0  0  0  0  0  0  0  0  0  0
  152.5085  142.3954  158.3774 H   0  0  0  0  0  0  0  0  0  0  0  0
  151.0575  143.2196  158.9298 H   0  0  0  0  0  0  0  0  0  0  0  0
  149.7947  141.2571  158.9499 H   0  0  0  0  0  0  0  0  0  0  0  0
  151.3668  140.5402  159.2043 H   0  0  0  0  0  0  0  0  0  0  0  0
  1  2  1  0  0  0  0
  1 22  1  0  0  0  0
  1 23  1  0  0  0  0
  1 24  1  0  0  0  0
  2 21  1  0  0  0  0
  2  3  2  0  0  0  0
  3  4  1  0  0  0  0
  4  5  1  0  0  0  0
  5  6  1  0  0  0  0
  5 21  2  0  0  0  0
  6  7  1  0  0  0  0
  7  8  2  0  0  0  0
  7  9  1  0  0  0  0
  9 10  1  0  0  0  0
  9 25  1  0  0  0  0
 10 11  1  0  0  0  0
 10 26  1  0  0  0  0
 10 27  1  0  0  0  0
 11 20  1  0  0  0  0
 11 12  1  0  0  0  0
 11 17  1  0  0  0  0
 12 13  2  0  0  0  0
 12 14  1  0  0  0  0
 14 15  1  0  0  0  0
 14 16  1  0  0  0  0
 15 28  1  0  0  0  0
 15 29  1  0  0  0  0
 15 30  1  0  0  0  0
 16 31  1  0  0  0  0
 16 32  1  0  0  0  0
 16 33  1  0  0  0  0
 17 18  1  0  0  0  0
 17 34  1  0  0  0  0
 17 35  1  0  0  0  0
 18 19  1  0  0  0  0
 18 36  1  0  0  0  0
 18 37  1  0  0  0  0
 19 20  1  0  0  0  0
 19 38  1  0  0  0  0
 19 39  1  0  0  0  0
 20 40  1  0  0  0  0
 20 41  1  0  0  0  0
M  CHG  1   6  -1
M  END
> <s_m_source_file>
AV-unprocessed.smi

> <i_m_source_file_index>
2823

> <i_lp_mmshare_version>
43012

> <i_f3d_flags>
0

> <s_epik_input>
W0NIM11jMW5vYyhuMSlbTkhdQyg9TylbTkhdW0NIMl1DMihDKD1PKU4oW0NIM10pW0NIM10pW0NIMl1bQ0gyXVtDSDJdW0NIMl0y

> <s_epik_cmdline>
J2VwaWtfcHl0aG9uJywgJy1waCcsICc3LjAnLCAnLXRuJywgJzgnLCAnLW1hJywgJzIwMCcsICctbWV0YWxfYmluZGluZycsICctaW1hZScsICc8aW5maWxlLm1hZT4nLCAnLW9tYWUnLCAnPG91dGZpbGUubWFlPic=

> <r_lp_tautomer_probability>
1

> <r_epik_Ionization_Penalty>
6.03325

> <r_epik_Ionization_Penalty_Charging>
6.03318

> <r_epik_Ionization_Penalty_Neutral>
6.91426e-05

> <r_epik_State_Penalty>
6.03316

> <r_epik_Charging_Adjusted_Penalty>
12.0663

> <i_epik_Tot_Q>
-1

> <i_epik_Tot_abs_Q>
1

> <r_epik_Metal_State_Penalty>
1.98358

> <b_epik_Metal_Only>
1

> <s_lp_Force_Field>
OPLS_2005

> <r_lp_Energy>
29.6758

> <b_lp_Chiralities_Consistent>
1

> <s_lp_Variant>
AV-unprocessed.smi:2823-2

> <Gold.Version>
5.8.1

> <Gold.Id.Protein>
6NUR|6NUR_protein|mol2

> <Gold.PLP.Fitness>
44.4117

> <Gold.PLP.PLP>
-36.8757

> <Gold.PLP.part.hbond>
-4.0000

> <Gold.PLP.part.metal>
0.0000

> <Gold.PLP.part.buried>
-3.0290

> <Gold.PLP.part.nonpolar>
-29.4756

> <Gold.PLP.part.repulsive>
0.0864

> <Gold.PLP.ligand.clash>
0.0000

> <Gold.PLP.ligand.torsion>
0.6059

> <Gold.PLP.Chemscore.Hbond>
2.8480

> <Gold.PLP.Chemscore.CHOScore>
0.0000

> <Gold.PLP.Chemscore.Metal>
0.0000

> <Gold.Chemscore.Hbonds>
donor molecule, donor type, donor heavy atom, donor atom, acceptor molecule, acceptor atom, score
      P1  H  6931  6943       L1     4  1.00
      P1  H  6934  6947       L1     4  0.80
      P1  H  7997  8009       L1    13  1.00

> <Gold.PLP.Chemscore.Internal.Correction>
0.2039

> <Gold.Rescore>
     Score         DG    S(hbond)    S(metal)    S(lipo)     H(rot)  DE(clash)    DE(int)     intcor
     14.06     -17.19       2.62        0.00      62.91       1.71       0.14       2.98       ----

> <Gold.Chemscore.Fitness>
14.0618

> <Gold.Chemscore.DG>
-17.1850

> <Gold.Chemscore.ZeroCoef>
-5.4800

> <Gold.Chemscore.Hbond>
2.6153

> <Gold.Chemscore.Metal>
0.0000

> <Gold.Chemscore.Lipo>
62.9066

> <Gold.Chemscore.Internal_Hbond>
0.0000

> <Gold.Chemscore.DEClash>
0.1401

> <Gold.Chemscore.DEInternal>
2.9831

> <Gold.Chemscore.Rot>
1.7149

> <Gold.Chemscore.Internal.Correction>
   9.000000E+99

> <Gold.Chemscore.Hbonds>
donor molecule, donor type, donor heavy atom, donor atom, acceptor molecule, acceptor atom, score
      P1  H  6931  6943       L1     4  0.65
      P1  H  6934  6947       L1     4  0.75
      P1  H  7997  8009       L1    13  0.97

> <Gold.Chemscore.Hbond.Weighted>
-8.7351

> <Gold.Chemscore.Metal.Weighted>
-0.0000

> <Gold.Chemscore.Lipo.Weighted>
-7.3601

> <Gold.Chemscore.Internal_Hbond.Weighted>
0.0000

> <Gold.Chemscore.DEClash.Weighted>
0.1401

> <Gold.Chemscore.DEInternal.Weighted>
2.9831

> <Gold.Chemscore.Rot.Weighted>
4.3901

> <Gold.Chemscore.Internal.Correction.Weighted>
   9.000000E+99

> <Gold.Protein.RotatedTorsions>
[ 6907 6896 6895 6894 ] final -126.19 input  -60.11 | X-H torsion
[ 7974 7965 7964 7962 ] final   35.16 input  175.53 | X-H torsion
[ 8008 7997 7996 7995 ] final  165.20 input   59.86 | X-H torsion
[ 10167 10162 10161 10158 ] final  -60.06 input  -65.29 | X-H torsion
[ 10718 10713 10712 10709 ] final   91.79 input   66.30 | X-H torsion
[ 10763 10752 10751 10750 ] final -145.41 input  -60.55 | X-H torsion
[ 11005 11000 10999 10996 ] final  122.45 input  -57.11 | X-H torsion

> <Gold.Protein.ActiveResidues>
 VAL166  LYS551  ARG553  GLY616  TRP617  ASP618  TYR619  PRO620  LYS621  CYS622 
 ASP623  PHE694  ASN695  SER759  ASP760  ASP761  ALA762  ILE779  LEU786  VAL792 
 PHE793  MET794  SER795  GLU796  ALA797  LYS798  CYS799  TRP800  GLU811  SER814 

> <Gold.Protein.RotatedAtoms>
  150.8944  133.7201  159.2895 H   0  0  0  0  0  0  0  0  0  0  0  0  # atno 6907 bound_to 6896
  151.4740  135.1046  159.9769 H   0  0  0  0  0  0  0  0  0  0  0  0  # atno 6908 bound_to 6896
  152.4839  133.8277  159.7142 H   0  0  0  0  0  0  0  0  0  0  0  0  # atno 6909 bound_to 6896
  146.1302  139.6177  142.9231 H   0  0  0  0  0  0  0  0  0  0  0  0  # atno 7974 bound_to 7965
  156.1819  140.1676  156.8258 H   0  0  0  0  0  0  0  0  0  0  0  0  # atno 8008 bound_to 7997
  154.5370  140.0744  156.8477 H   0  0  0  0  0  0  0  0  0  0  0  0  # atno 8009 bound_to 7997
  155.3291  140.3378  155.4242 H   0  0  0  0  0  0  0  0  0  0  0  0  # atno 8010 bound_to 7997
  140.6096  143.2383  151.5741 H   0  0  0  0  0  0  0  0  0  0  0  0  # atno 10167 bound_to 10162
  157.6960  131.0420  150.3783 H   0  0  0  0  0  0  0  0  0  0  0  0  # atno 10718 bound_to 10713
  154.8385  135.3414  154.6499 H   0  0  0  0  0  0  0  0  0  0  0  0  # atno 10763 bound_to 10752
  153.7112  135.6964  153.5041 H   0  0  0  0  0  0  0  0  0  0  0  0  # atno 10764 bound_to 10752
  153.2450  135.4372  155.0692 H   0  0  0  0  0  0  0  0  0  0  0  0  # atno 10765 bound_to 10752
  139.9269  134.9641  156.8110 H   0  0  0  0  0  0  0  0  0  0  0  0  # atno 11005 bound_to 11000
  145.5277  141.0429  143.2400 LP  0  0  0  0  0  0  0  0  0  0  0  0  # atno 17320 bound_to 7965
  144.7683  139.6794  143.7205 LP  0  0  0  0  0  0  0  0  0  0  0  0  # atno 17321 bound_to 7965
  139.5351  144.2805  152.1233 LP  0  0  0  0  0  0  0  0  0  0  0  0  # atno 17342 bound_to 10162
  140.2002  144.4666  150.6435 LP  0  0  0  0  0  0  0  0  0  0  0  0  # atno 17343 bound_to 10162
  156.4200  130.3951  149.6832 LP  0  0  0  0  0  0  0  0  0  0  0  0  # atno 17370 bound_to 10713
  156.4086  130.7710  151.2722 LP  0  0  0  0  0  0  0  0  0  0  0  0  # atno 17371 bound_to 10713
  140.6312  133.9904  155.7663 LP  0  0  0  0  0  0  0  0  0  0  0  0  # atno 17394 bound_to 11000
  141.0832  134.0031  157.3354 LP  0  0  0  0  0  0  0  0  0  0  0  0  # atno 17395 bound_to 11000

$$$$
