AV-unprocessed.smi:255|AV-procd|sdf|1952|dock10
  -GOLD-   2262021 93D 1   1.00000     0.00000
 Structure written by MMmdl.
 44 47  0  0  0  0  0  0  0  0  1 V2000
  151.9146  137.3742  153.9830 O   0  0  0  0  0  0  0  0  0  0  0  0
  152.2312  138.1179  155.1396 C   0  0  0  0  0  0  0  0  0  0  0  0
  151.2668  139.3162  155.2804 C   0  0  1  0  0  0  0  0  0  0  0  0
  149.8492  139.0680  154.7613 C   0  0  0  0  0  0  0  0  0  0  0  0
  149.0624  140.2249  155.3804 C   0  0  1  0  0  0  0  0  0  0  0  0
  147.8450  139.8331  155.7567 F   0  0  0  0  0  0  0  0  0  0  0  0
  149.9098  140.6976  156.5752 C   0  0  0  0  0  0  0  0  0  0  0  0
  151.0864  139.8312  156.6397 N   0  0  0  0  0  0  0  0  0  0  0  0
  151.0830  138.9144  157.6408 C   0  0  0  0  0  0  0  0  0  0  0  0
  152.1904  138.7153  158.4052 N   0  0  0  0  0  0  0  0  0  0  0  0
  152.1603  137.8386  159.4128 C   0  0  0  0  0  0  0  0  0  0  0  0
  151.1468  137.0731  159.8231 N   0  0  0  0  0  0  0  0  0  0  0  0
  150.0368  137.2637  159.0534 C   0  0  0  0  0  0  0  0  0  0  0  0
  149.9210  138.1603  157.9548 C   0  0  0  0  0  0  0  0  0  0  0  0
  148.6389  138.1028  157.4251 N   0  0  0  0  0  0  0  0  0  0  0  0
  148.0276  137.2263  158.1744 C   0  0  0  0  0  0  0  0  0  0  0  0
  148.7969  136.6564  159.1652 N   0  0  0  0  0  0  0  0  0  0  0  0
  148.3668  135.6697  160.1463 C   0  0  0  0  0  0  0  0  0  0  0  0
  147.2698  136.1500  161.1319 C   0  0  1  0  0  0  0  0  0  0  0  0
  147.7897  137.2929  161.7869 O   0  0  0  0  0  0  0  0  0  0  0  0
  145.9408  136.5450  160.4878 C   0  0  0  0  0  0  0  0  0  0  0  0
  144.9276  136.2432  161.5835 C   0  0  0  0  0  0  0  0  0  0  0  0
  145.4243  135.0349  162.1309 O   0  0  0  0  0  0  0  0  0  0  0  0
  146.8420  135.1323  162.2129 C   0  0  0  0  0  0  0  0  0  0  0  0
  151.6948  140.1431  154.7111 H   0  0  0  0  0  0  0  0  0  0  0  0
  148.9334  141.0371  154.6643 H   0  0  0  0  0  0  0  0  0  0  0  0
  152.3676  137.7570  153.2470 H   0  0  0  0  0  0  0  0  0  0  0  0
  152.1827  137.4580  156.0067 H   0  0  0  0  0  0  0  0  0  0  0  0
  153.2606  138.4652  155.0470 H   0  0  0  0  0  0  0  0  0  0  0  0
  149.7908  139.0540  153.6728 H   0  0  0  0  0  0  0  0  0  0  0  0
  149.4743  138.1121  155.1300 H   0  0  0  0  0  0  0  0  0  0  0  0
  150.2437  141.7232  156.4162 H   0  0  0  0  0  0  0  0  0  0  0  0
  149.3353  140.6952  157.5028 H   0  0  0  0  0  0  0  0  0  0  0  0
  153.0785  137.7391  159.9725 H   0  0  0  0  0  0  0  0  0  0  0  0
  146.9889  136.9712  158.0230 H   0  0  0  0  0  0  0  0  0  0  0  0
  148.0159  134.7901  159.6044 H   0  0  0  0  0  0  0  0  0  0  0  0
  149.2481  135.3469  160.7024 H   0  0  0  0  0  0  0  0  0  0  0  0
  147.5009  137.2795  162.6867 H   0  0  0  0  0  0  0  0  0  0  0  0
  145.9075  137.5806  160.1466 H   0  0  0  0  0  0  0  0  0  0  0  0
  145.7095  135.9121  159.6335 H   0  0  0  0  0  0  0  0  0  0  0  0
  144.9253  137.0233  162.3463 H   0  0  0  0  0  0  0  0  0  0  0  0
  143.9131  136.1265  161.2020 H   0  0  0  0  0  0  0  0  0  0  0  0
  147.2731  134.1438  162.0738 H   0  0  0  0  0  0  0  0  0  0  0  0
  147.1209  135.4616  163.2151 H   0  0  0  0  0  0  0  0  0  0  0  0
  1  2  1  0  0  0  0
  1 27  1  0  0  0  0
  2  3  1  0  0  0  0
  2 28  1  0  0  0  0
  2 29  1  0  0  0  0
  3 25  1  0  0  0  0
  3  8  1  0  0  0  0
  3  4  1  0  0  0  0
  4  5  1  0  0  0  0
  4 30  1  0  0  0  0
  4 31  1  0  0  0  0
  5 26  1  0  0  0  0
  5  6  1  0  0  0  0
  5  7  1  0  0  0  0
  7  8  1  0  0  0  0
  7 32  1  0  0  0  0
  7 33  1  0  0  0  0
  8  9  1  0  0  0  0
  9 14  1  0  0  0  0
  9 10  2  0  0  0  0
 10 11  1  0  0  0  0
 11 12  2  0  0  0  0
 11 34  1  0  0  0  0
 12 13  1  0  0  0  0
 13 17  1  0  0  0  0
 13 14  2  0  0  0  0
 14 15  1  0  0  0  0
 15 16  2  0  0  0  0
 16 17  1  0  0  0  0
 16 35  1  0  0  0  0
 17 18  1  0  0  0  0
 18 19  1  0  0  0  0
 18 36  1  0  0  0  0
 18 37  1  0  0  0  0
 19 24  1  0  0  0  0
 19 20  1  0  0  0  0
 19 21  1  0  0  0  0
 20 38  1  0  0  0  0
 21 22  1  0  0  0  0
 21 39  1  0  0  0  0
 21 40  1  0  0  0  0
 22 23  1  0  0  0  0
 22 41  1  0  0  0  0
 22 42  1  0  0  0  0
 23 24  1  0  0  0  0
 24 43  1  0  0  0  0
 24 44  1  0  0  0  0
M  END
> <s_m_source_file>
AV-unprocessed.smi

> <i_m_source_file_index>
255

> <i_lp_mmshare_version>
43012

> <i_f3d_flags>
0

> <s_epik_input>
W09IXVtDSDJdW0NAQEhdMVtDSDJdW0NASF0oRilbQ0gyXU4xYyhuW2NIXW4yKWMoYzIzKW5bY0hdbjNbQ0gyXVtDQEBdNChbT0hdKVtDSDJdW0NIMl1PW0NIMl00

> <s_epik_cmdline>
J2VwaWtfcHl0aG9uJywgJy1waCcsICc3LjAnLCAnLXRuJywgJzgnLCAnLW1hJywgJzIwMCcsICctbWV0YWxfYmluZGluZycsICctaW1hZScsICc8aW5maWxlLm1hZT4nLCAnLW9tYWUnLCAnPG91dGZpbGUubWFlPic=

> <r_lp_tautomer_probability>
1

> <r_epik_Ionization_Penalty>
0.0058098

> <r_epik_Ionization_Penalty_Charging>
0

> <r_epik_Ionization_Penalty_Neutral>
0.0058098

> <r_epik_State_Penalty>
0.00411166

> <r_epik_Charging_Adjusted_Penalty>
0.00411166

> <i_epik_Tot_Q>
0

> <i_epik_Tot_abs_Q>
0

> <r_epik_Metal_State_Penalty>
-0

> <b_epik_Metal_Only>
0

> <s_lp_Force_Field>
OPLS_2005

> <r_lp_Energy>
52.3077

> <b_lp_Chiralities_Consistent>
1

> <s_lp_Variant>
AV-unprocessed.smi:255-4

> <Gold.Version>
5.8.1

> <Gold.Id.Protein>
6NUR|6NUR_protein|mol2

> <Gold.PLP.Fitness>
42.5910

> <Gold.PLP.PLP>
-33.3224

> <Gold.PLP.part.hbond>
-4.8750

> <Gold.PLP.part.metal>
0.0000

> <Gold.PLP.part.buried>
-6.2409

> <Gold.PLP.part.nonpolar>
-23.5156

> <Gold.PLP.part.repulsive>
0.0000

> <Gold.PLP.ligand.clash>
0.0000

> <Gold.PLP.ligand.torsion>
0.8106

> <Gold.PLP.Chemscore.Hbond>
3.6160

> <Gold.PLP.Chemscore.CHOScore>
0.0000

> <Gold.PLP.Chemscore.Metal>
0.0000

> <Gold.Chemscore.Hbonds>
donor molecule, donor type, donor heavy atom, donor atom, acceptor molecule, acceptor atom, score
      P1  H  6896  6908       L1    12  1.00
      P1  H  6931  6943       L1    20  1.00
      P1  H  6934  6947       L1    20  0.62
      P1  H 10752 10764       L1     1  0.98

> <Gold.PLP.Chemscore.Internal.Correction>
0.0418

> <Gold.Rescore>
     Score         DG    S(hbond)    S(metal)    S(lipo)     H(rot)  DE(clash)    DE(int)     intcor
      5.96     -10.74       2.15        0.00      56.51       3.33       0.00       4.78       ----

> <Gold.Chemscore.Fitness>
5.9602

> <Gold.Chemscore.DG>
-10.7442

> <Gold.Chemscore.ZeroCoef>
-5.4800

> <Gold.Chemscore.Hbond>
2.1468

> <Gold.Chemscore.Metal>
0.0000

> <Gold.Chemscore.Lipo>
56.5122

> <Gold.Chemscore.Internal_Hbond>
0.0000

> <Gold.Chemscore.DEClash>
0.0048

> <Gold.Chemscore.DEInternal>
4.7792

> <Gold.Chemscore.Rot>
3.3273

> <Gold.Chemscore.Internal.Correction>
   9.000000E+99

> <Gold.Chemscore.Hbonds>
donor molecule, donor type, donor heavy atom, donor atom, acceptor molecule, acceptor atom, score
      P1  H  6896  6908       L1    12  0.70
      P1  H  6931  6943       L1    20  0.23
      P1  H  6934  6947       L1    20  0.34
      P1  H 10752 10764       L1     1  0.11

> <Gold.Chemscore.Hbond.Weighted>
-7.1702

> <Gold.Chemscore.Metal.Weighted>
-0.0000

> <Gold.Chemscore.Lipo.Weighted>
-6.6119

> <Gold.Chemscore.Internal_Hbond.Weighted>
0.0000

> <Gold.Chemscore.DEClash.Weighted>
0.0048

> <Gold.Chemscore.DEInternal.Weighted>
4.7792

> <Gold.Chemscore.Rot.Weighted>
8.5179

> <Gold.Chemscore.Internal.Correction.Weighted>
   9.000000E+99

> <Gold.Protein.RotatedTorsions>
[ 6907 6896 6895 6894 ] final -114.01 input  -60.11 | X-H torsion
[ 7974 7965 7964 7962 ] final   74.18 input  175.53 | X-H torsion
[ 8008 7997 7996 7995 ] final -176.28 input   59.86 | X-H torsion
[ 10167 10162 10161 10158 ] final -157.78 input  -65.29 | X-H torsion
[ 10718 10713 10712 10709 ] final  -48.16 input   66.30 | X-H torsion
[ 10763 10752 10751 10750 ] final  -79.65 input  -60.55 | X-H torsion
[ 11005 11000 10999 10996 ] final  -10.78 input  -57.11 | X-H torsion

> <Gold.Protein.ActiveResidues>
 VAL166  LYS551  ARG553  GLY616  TRP617  ASP618  TYR619  PRO620  LYS621  CYS622 
 ASP623  PHE694  ASN695  SER759  ASP760  ASP761  ALA762  ILE779  LEU786  VAL792 
 PHE793  MET794  SER795  GLU796  ALA797  LYS798  CYS799  TRP800  GLU811  SER814 

> <Gold.Protein.RotatedAtoms>
  150.7871  133.8862  159.3299 H   0  0  0  0  0  0  0  0  0  0  0  0  # atno 6907 bound_to 6896
  151.6710  135.0974  160.0207 H   0  0  0  0  0  0  0  0  0  0  0  0  # atno 6908 bound_to 6896
  152.3937  133.6677  159.6294 H   0  0  0  0  0  0  0  0  0  0  0  0  # atno 6909 bound_to 6896
  145.7315  139.2685  143.1538 H   0  0  0  0  0  0  0  0  0  0  0  0  # atno 7974 bound_to 7965
  155.9929  140.1204  157.0621 H   0  0  0  0  0  0  0  0  0  0  0  0  # atno 8008 bound_to 7997
  154.4217  140.1122  156.5658 H   0  0  0  0  0  0  0  0  0  0  0  0  # atno 8009 bound_to 7997
  155.6318  140.3473  155.4688 H   0  0  0  0  0  0  0  0  0  0  0  0  # atno 8010 bound_to 7997
  139.6743  143.9690  152.2302 H   0  0  0  0  0  0  0  0  0  0  0  0  # atno 10167 bound_to 10162
  156.2014  130.4156  149.9236 H   0  0  0  0  0  0  0  0  0  0  0  0  # atno 10718 bound_to 10713
  154.5413  135.5688  153.6842 H   0  0  0  0  0  0  0  0  0  0  0  0  # atno 10763 bound_to 10752
  152.9964  135.6228  154.2497 H   0  0  0  0  0  0  0  0  0  0  0  0  # atno 10764 bound_to 10752
  154.2429  135.2862  155.2827 H   0  0  0  0  0  0  0  0  0  0  0  0  # atno 10765 bound_to 10752
  140.7484  133.8612  155.9024 H   0  0  0  0  0  0  0  0  0  0  0  0  # atno 11005 bound_to 11000
  146.0533  140.8047  142.9771 LP  0  0  0  0  0  0  0  0  0  0  0  0  # atno 17320 bound_to 7965
  144.6892  140.3086  143.7252 LP  0  0  0  0  0  0  0  0  0  0  0  0  # atno 17321 bound_to 7965
  139.9463  144.6649  150.8216 LP  0  0  0  0  0  0  0  0  0  0  0  0  # atno 17342 bound_to 10162
  140.7630  143.3211  151.2620 LP  0  0  0  0  0  0  0  0  0  0  0  0  # atno 17343 bound_to 10162
  156.6944  130.8908  151.3592 LP  0  0  0  0  0  0  0  0  0  0  0  0  # atno 17370 bound_to 10713
  157.6988  130.9310  150.0723 LP  0  0  0  0  0  0  0  0  0  0  0  0  # atno 17371 bound_to 10713
  140.9773  134.1452  157.4525 LP  0  0  0  0  0  0  0  0  0  0  0  0  # atno 17394 bound_to 11000
  139.8792  134.9999  156.5979 LP  0  0  0  0  0  0  0  0  0  0  0  0  # atno 17395 bound_to 11000

$$$$
