AV-unprocessed.smi:1552|AV-procd|sdf|6235|dock9
  -GOLD-   22720 6413D 1   1.00000     0.00000
 Structure written by MMmdl.
 50 51  0  0  0  0  0  0  0  0  2 V2000
  149.5434  141.4660  155.1876 C   0  0  0  0  0  0  0  0  0  0  0  0
  148.9800  141.8449  156.5076 N   0  3  0  0  0  0  0  0  0  0  0  0
  147.5271  141.5646  156.5721 C   0  0  0  0  0  0  0  0  0  0  0  0
  149.7206  141.3504  157.7117 C   0  0  1  0  0  0  0  0  0  0  0  0
  150.0028  139.8256  157.6836 C   0  0  0  0  0  0  0  0  0  0  0  0
  148.8026  139.0518  157.9796 N   0  0  0  0  0  0  0  0  0  0  0  0
  148.7225  137.8597  158.5940 C   0  0  0  0  0  0  0  0  0  0  0  0
  149.7397  137.3053  159.0046 O   0  0  0  0  0  0  0  0  0  0  0  0
  147.3549  137.1875  158.8220 C   0  0  0  0  0  0  0  0  0  0  0  0
  147.4746  136.0113  159.6940 N   0  0  0  0  0  0  0  0  0  0  0  0
  147.5787  134.7475  159.1302 C   0  0  0  0  0  0  0  0  0  0  0  0
  147.7064  133.6128  159.8576 C   0  0  0  0  0  0  0  0  0  0  0  0
  147.7419  133.6703  161.3147 C   0  0  0  0  0  0  0  0  0  0  0  0
  147.8526  132.6996  162.0601 O   0  0  0  0  0  0  0  0  0  0  0  0
  147.6380  134.9589  161.8451 N   0  0  0  0  0  0  0  0  0  0  0  0
  147.5083  136.1328  161.1011 C   0  0  0  0  0  0  0  0  0  0  0  0
  147.4301  137.2191  161.6732 O   0  0  0  0  0  0  0  0  0  0  0  0
  150.9691  142.2278  158.0213 C   0  0  0  0  0  0  0  0  0  0  0  0
  151.7868  141.6878  159.2159 C   0  0  0  0  0  0  0  0  0  0  0  0
  153.0835  142.4891  159.4200 C   0  0  0  0  0  0  0  0  0  0  0  0
  152.7956  143.9894  159.5866 C   0  0  0  0  0  0  0  0  0  0  0  0
  151.9794  144.5326  158.4037 C   0  0  0  0  0  0  0  0  0  0  0  0
  150.6802  143.7341  158.2120 C   0  0  0  0  0  0  0  0  0  0  0  0
  147.6611  135.0494  162.8504 H   0  0  0  0  0  0  0  0  0  0  0  0
  149.3934  140.4060  154.9794 H   0  0  0  0  0  0  0  0  0  0  0  0
  150.6090  141.6773  155.1197 H   0  0  0  0  0  0  0  0  0  0  0  0
  149.0509  142.0302  154.3949 H   0  0  0  0  0  0  0  0  0  0  0  0
  147.3355  140.4908  156.5699 H   0  0  0  0  0  0  0  0  0  0  0  0
  147.0096  142.0059  155.7197 H   0  0  0  0  0  0  0  0  0  0  0  0
  147.0887  141.9910  157.4753 H   0  0  0  0  0  0  0  0  0  0  0  0
  149.0627  141.5032  158.5694 H   0  0  0  0  0  0  0  0  0  0  0  0
  150.3726  139.5288  156.7012 H   0  0  0  0  0  0  0  0  0  0  0  0
  150.7726  139.5729  158.4123 H   0  0  0  0  0  0  0  0  0  0  0  0
  147.9257  139.4825  157.7234 H   0  0  0  0  0  0  0  0  0  0  0  0
  146.6859  137.9321  159.2563 H   0  0  0  0  0  0  0  0  0  0  0  0
  146.8577  136.8976  157.8977 H   0  0  0  0  0  0  0  0  0  0  0  0
  147.5605  134.6590  158.0531 H   0  0  0  0  0  0  0  0  0  0  0  0
  147.7836  132.6574  159.3588 H   0  0  0  0  0  0  0  0  0  0  0  0
  151.6292  142.1489  157.1566 H   0  0  0  0  0  0  0  0  0  0  0  0
  151.1931  141.7307  160.1297 H   0  0  0  0  0  0  0  0  0  0  0  0
  152.0340  140.6375  159.0578 H   0  0  0  0  0  0  0  0  0  0  0  0
  153.6186  142.1149  160.2931 H   0  0  0  0  0  0  0  0  0  0  0  0
  153.7447  142.3378  158.5656 H   0  0  0  0  0  0  0  0  0  0  0  0
  152.2492  144.1567  160.5157 H   0  0  0  0  0  0  0  0  0  0  0  0
  153.7326  144.5402  159.6761 H   0  0  0  0  0  0  0  0  0  0  0  0
  151.7477  145.5859  158.5656 H   0  0  0  0  0  0  0  0  0  0  0  0
  152.5772  144.4850  157.4926 H   0  0  0  0  0  0  0  0  0  0  0  0
  150.1405  144.1353  157.3544 H   0  0  0  0  0  0  0  0  0  0  0  0
  150.0478  143.8885  159.0857 H   0  0  0  0  0  0  0  0  0  0  0  0
  149.0510  142.8515  156.5556 H   0  0  0  0  0  0  0  0  0  0  0  0
  1  2  1  0  0  0  0
  1 25  1  0  0  0  0
  1 26  1  0  0  0  0
  1 27  1  0  0  0  0
  2  3  1  0  0  0  0
  2  4  1  0  0  0  0
  2 50  1  0  0  0  0
  3 28  1  0  0  0  0
  3 29  1  0  0  0  0
  3 30  1  0  0  0  0
  4  5  1  0  0  0  0
  4 18  1  0  0  0  0
  4 31  1  0  0  0  0
  5  6  1  0  0  0  0
  5 32  1  0  0  0  0
  5 33  1  0  0  0  0
  6  7  1  0  0  0  0
  6 34  1  0  0  0  0
  7  8  2  0  0  0  0
  7  9  1  0  0  0  0
  9 10  1  0  0  0  0
  9 35  1  0  0  0  0
  9 36  1  0  0  0  0
 10 16  1  0  0  0  0
 10 11  1  0  0  0  0
 11 12  2  0  0  0  0
 11 37  1  0  0  0  0
 12 13  1  0  0  0  0
 12 38  1  0  0  0  0
 13 14  2  0  0  0  0
 13 15  1  0  0  0  0
 15 24  1  0  0  0  0
 15 16  1  0  0  0  0
 16 17  2  0  0  0  0
 18 23  1  0  0  0  0
 18 19  1  0  0  0  0
 18 39  1  0  0  0  0
 19 20  1  0  0  0  0
 19 40  1  0  0  0  0
 19 41  1  0  0  0  0
 20 21  1  0  0  0  0
 20 42  1  0  0  0  0
 20 43  1  0  0  0  0
 21 22  1  0  0  0  0
 21 44  1  0  0  0  0
 21 45  1  0  0  0  0
 22 23  1  0  0  0  0
 22 46  1  0  0  0  0
 22 47  1  0  0  0  0
 23 48  1  0  0  0  0
 23 49  1  0  0  0  0
M  CHG  1   2   1
M  END
> <s_m_source_file>
AV-unprocessed.smi

> <i_m_source_file_index>
1552

> <i_lp_mmshare_version>
43012

> <i_f3d_flags>
0

> <s_epik_input>
W0NIMl0xW0NIMl1bQ0gyXVtDSDJdW0NIMl1bQ0hdMVtDQEhdKE4oW0NIM10pW0NIM10pW0NIMl1bTkhdQyg9TylbQ0gyXW4yW2NIXVtjSF1jKD1PKVtuSF1jMj1P

> <s_epik_cmdline>
J2VwaWtfcHl0aG9uJywgJy1waCcsICc3LjAnLCAnLXRuJywgJzgnLCAnLW1hJywgJzIwMCcsICctbWV0YWxfYmluZGluZycsICctaW1hZScsICc8aW5maWxlLm1hZT4nLCAnLW9tYWUnLCAnPG91dGZpbGUubWFlPic=

> <r_lp_tautomer_probability>
1

> <r_epik_Ionization_Penalty>
0.00705217

> <r_epik_Ionization_Penalty_Charging>
0.00705209

> <r_epik_Ionization_Penalty_Neutral>
7.66101e-08

> <r_epik_State_Penalty>
-0

> <r_epik_Charging_Adjusted_Penalty>
0.00705209

> <i_epik_Tot_Q>
1

> <i_epik_Tot_abs_Q>
1

> <r_epik_Metal_State_Penalty>
0.375122

> <b_epik_Metal_Only>
0

> <s_lp_Force_Field>
OPLS_2005

> <r_lp_Energy>
31.5593

> <b_lp_Chiralities_Consistent>
1

> <s_lp_Variant>
AV-unprocessed.smi:1552-2

> <Gold.Version>
5.8.1

> <Gold.Id.Protein>
6NUR|6NUR_protein|mol2

> <Gold.PLP.Fitness>
46.8997

> <Gold.PLP.PLP>
-37.6137

> <Gold.PLP.part.hbond>
-3.0000

> <Gold.PLP.part.metal>
0.0000

> <Gold.PLP.part.buried>
-6.2888

> <Gold.PLP.part.nonpolar>
-29.1810

> <Gold.PLP.part.repulsive>
0.2537

> <Gold.PLP.ligand.clash>
0.0000

> <Gold.PLP.ligand.torsion>
1.2318

> <Gold.PLP.Chemscore.Hbond>
3.7760

> <Gold.PLP.Chemscore.CHOScore>
0.0000

> <Gold.PLP.Chemscore.Metal>
0.0000

> <Gold.Chemscore.Hbonds>
donor molecule, donor type, donor heavy atom, donor atom, acceptor molecule, acceptor atom, score
      L1  H     2    50       P1  8028  1.79
      P1  H  6931  6943       L1    17  0.91
      P1  H  6934  6947       L1    17  0.82

> <Gold.PLP.Chemscore.Internal.Correction>
0.4216

> <Gold.Rescore>
     Score         DG    S(hbond)    S(metal)    S(lipo)     H(rot)  DE(clash)    DE(int)     intcor
     17.04     -18.06       2.67        0.00      85.83       2.50       0.02       1.00       ----

> <Gold.Chemscore.Fitness>
17.0374

> <Gold.Chemscore.DG>
-18.0627

> <Gold.Chemscore.ZeroCoef>
-5.4800

> <Gold.Chemscore.Hbond>
2.6743

> <Gold.Chemscore.Metal>
0.0000

> <Gold.Chemscore.Lipo>
85.8294

> <Gold.Chemscore.Internal_Hbond>
0.0000

> <Gold.Chemscore.DEClash>
0.0231

> <Gold.Chemscore.DEInternal>
1.0022

> <Gold.Chemscore.Rot>
2.4968

> <Gold.Chemscore.Internal.Correction>
   9.000000E+99

> <Gold.Chemscore.Hbonds>
donor molecule, donor type, donor heavy atom, donor atom, acceptor molecule, acceptor atom, score
      L1  H     2    50       P1  8028  0.81
      P1  H  6931  6943       L1    17  0.86
      P1  H  6934  6947       L1    17  0.80

> <Gold.Chemscore.Hbond.Weighted>
-8.9323

> <Gold.Chemscore.Metal.Weighted>
-0.0000

> <Gold.Chemscore.Lipo.Weighted>
-10.0420

> <Gold.Chemscore.Internal_Hbond.Weighted>
0.0000

> <Gold.Chemscore.DEClash.Weighted>
0.0231

> <Gold.Chemscore.DEInternal.Weighted>
1.0022

> <Gold.Chemscore.Rot.Weighted>
6.3917

> <Gold.Chemscore.Internal.Correction.Weighted>
   9.000000E+99

> <Gold.Protein.RotatedTorsions>
[ 6907 6896 6895 6894 ] final -152.87 input  -60.11 | X-H torsion
[ 7974 7965 7964 7962 ] final  169.55 input  175.53 | X-H torsion
[ 8008 7997 7996 7995 ] final   10.98 input   59.86 | X-H torsion
[ 10167 10162 10161 10158 ] final -154.92 input  -65.29 | X-H torsion
[ 10718 10713 10712 10709 ] final   37.55 input   66.30 | X-H torsion
[ 10763 10752 10751 10750 ] final   54.13 input  -60.55 | X-H torsion
[ 11005 11000 10999 10996 ] final  -13.64 input  -57.11 | X-H torsion

> <Gold.Protein.ActiveResidues>
 VAL166  LYS551  ARG553  GLY616  TRP617  ASP618  TYR619  PRO620  LYS621  CYS622 
 ASP623  PHE694  ASN695  SER759  ASP760  ASP761  ALA762  ILE779  LEU786  VAL792 
 PHE793  MET794  SER795  GLU796  ALA797  LYS798  CYS799  TRP800  GLU811  SER814 

> <Gold.Protein.RotatedAtoms>
  151.2342  133.4434  159.2604 H   0  0  0  0  0  0  0  0  0  0  0  0  # atno 6907 bound_to 6896
  151.0766  134.9832  159.8345 H   0  0  0  0  0  0  0  0  0  0  0  0  # atno 6908 bound_to 6896
  152.5419  134.2284  159.8868 H   0  0  0  0  0  0  0  0  0  0  0  0  # atno 6909 bound_to 6896
  144.7351  139.9071  143.6413 H   0  0  0  0  0  0  0  0  0  0  0  0  # atno 7974 bound_to 7965
  154.8006  140.2851  155.5924 H   0  0  0  0  0  0  0  0  0  0  0  0  # atno 8008 bound_to 7997
  156.2976  140.2587  156.2803 H   0  0  0  0  0  0  0  0  0  0  0  0  # atno 8009 bound_to 7997
  154.9562  140.0378  157.2157 H   0  0  0  0  0  0  0  0  0  0  0  0  # atno 8010 bound_to 7997
  139.6974  143.9320  152.2413 H   0  0  0  0  0  0  0  0  0  0  0  0  # atno 10167 bound_to 10162
  157.3483  130.7584  149.6960 H   0  0  0  0  0  0  0  0  0  0  0  0  # atno 10718 bound_to 10713
  152.9801  135.5755  154.4854 H   0  0  0  0  0  0  0  0  0  0  0  0  # atno 10763 bound_to 10752
  154.4396  135.2775  155.1858 H   0  0  0  0  0  0  0  0  0  0  0  0  # atno 10764 bound_to 10752
  154.3532  135.6205  153.5707 H   0  0  0  0  0  0  0  0  0  0  0  0  # atno 10765 bound_to 10752
  140.7782  133.8384  155.9268 H   0  0  0  0  0  0  0  0  0  0  0  0  # atno 11005 bound_to 11000
  146.1028  139.4025  143.0336 LP  0  0  0  0  0  0  0  0  0  0  0  0  # atno 17320 bound_to 7965
  145.7554  140.9956  143.1228 LP  0  0  0  0  0  0  0  0  0  0  0  0  # atno 17321 bound_to 7965
  139.9153  144.6832  150.8519 LP  0  0  0  0  0  0  0  0  0  0  0  0  # atno 17342 bound_to 10162
  140.7700  143.3414  151.2201 LP  0  0  0  0  0  0  0  0  0  0  0  0  # atno 17343 bound_to 10162
  155.9717  130.4148  150.4149 LP  0  0  0  0  0  0  0  0  0  0  0  0  # atno 17370 bound_to 10713
  157.2208  131.0482  151.2547 LP  0  0  0  0  0  0  0  0  0  0  0  0  # atno 17371 bound_to 10713
  140.9508  134.1781  157.4729 LP  0  0  0  0  0  0  0  0  0  0  0  0  # atno 17394 bound_to 11000
  139.8746  134.9908  156.5521 LP  0  0  0  0  0  0  0  0  0  0  0  0  # atno 17395 bound_to 11000

$$$$
