AV-unprocessed.smi:2822|AV-procd|sdf|10871|dock10
  -GOLD-   2272015313D 1   1.00000     0.00000
 Structure written by MMmdl.
 40 42  0  0  0  0  0  0  0  0  2 V2000
  147.1113  144.2889  161.3949 Cl  0  0  0  0  0  0  0  0  0  0  0  0
  145.5317  143.6111  161.2028 C   0  0  0  0  0  0  0  0  0  0  0  0
  144.5610  143.8008  162.2077 C   0  0  0  0  0  0  0  0  0  0  0  0
  143.3075  143.3064  162.1334 N   0  0  0  0  0  0  0  0  0  0  0  0
  142.9764  142.5950  161.0356 C   0  0  0  0  0  0  0  0  0  0  0  0
  143.8686  142.3472  159.9733 C   0  0  0  0  0  0  0  0  0  0  0  0
  145.1822  142.8658  160.0534 C   0  0  0  0  0  0  0  0  0  0  0  0
  146.1361  142.6682  159.0442 N   0  0  0  0  0  0  0  0  0  0  0  0
  145.8248  141.9197  157.8347 C   0  0  0  0  0  0  0  0  0  0  0  0
  146.7781  142.2635  156.6778 C   0  0  1  0  0  0  0  0  0  0  0  0
  148.2269  141.7896  156.9137 C   0  0  0  0  0  0  0  0  0  0  0  0
  149.0751  142.0989  155.7361 N   0  3  1  0  0  0  0  0  0  0  0  0
  150.4981  141.7026  155.9007 C   0  0  0  0  0  0  0  0  0  0  0  0
  150.6986  140.1800  155.7708 C   0  0  0  0  0  0  0  0  0  0  0  0
  150.1092  139.6541  154.4546 C   0  0  0  0  0  0  0  0  0  0  0  0
  148.6384  140.0736  154.3191 C   0  0  0  0  0  0  0  0  0  0  0  0
  148.4843  141.6036  154.4620 C   0  0  1  0  0  0  0  0  0  0  0  0
  147.0210  142.0703  154.3340 C   0  0  0  0  0  0  0  0  0  0  0  0
  146.2719  141.6846  155.4797 O   0  0  0  0  0  0  0  0  0  0  0  0
  144.7974  144.3665  163.0969 H   0  0  0  0  0  0  0  0  0  0  0  0
  141.9680  142.2101  161.0018 H   0  0  0  0  0  0  0  0  0  0  0  0
  143.5332  141.7673  159.1266 H   0  0  0  0  0  0  0  0  0  0  0  0
  147.0657  143.0467  159.1590 H   0  0  0  0  0  0  0  0  0  0  0  0
  145.8809  140.8523  158.0513 H   0  0  0  0  0  0  0  0  0  0  0  0
  144.7983  142.1341  157.5353 H   0  0  0  0  0  0  0  0  0  0  0  0
  146.7764  143.3490  156.5638 H   0  0  0  0  0  0  0  0  0  0  0  0
  148.6377  142.2817  157.7961 H   0  0  0  0  0  0  0  0  0  0  0  0
  148.2466  140.7185  157.1137 H   0  0  0  0  0  0  0  0  0  0  0  0
  151.0845  142.2105  155.1338 H   0  0  0  0  0  0  0  0  0  0  0  0
  150.8753  142.0578  156.8604 H   0  0  0  0  0  0  0  0  0  0  0  0
  151.7616  139.9424  155.8203 H   0  0  0  0  0  0  0  0  0  0  0  0
  150.2355  139.6652  156.6129 H   0  0  0  0  0  0  0  0  0  0  0  0
  150.6820  140.0478  153.6139 H   0  0  0  0  0  0  0  0  0  0  0  0
  150.1964  138.5682  154.4102 H   0  0  0  0  0  0  0  0  0  0  0  0
  148.2558  139.7507  153.3502 H   0  0  0  0  0  0  0  0  0  0  0  0
  148.0377  139.5576  155.0691 H   0  0  0  0  0  0  0  0  0  0  0  0
  149.0456  142.0655  153.6481 H   0  0  0  0  0  0  0  0  0  0  0  0
  146.9736  143.1535  154.2123 H   0  0  0  0  0  0  0  0  0  0  0  0
  146.5600  141.6378  153.4456 H   0  0  0  0  0  0  0  0  0  0  0  0
  149.0746  143.1068  155.6677 H   0  0  0  0  0  0  0  0  0  0  0  0
  1  2  1  0  0  0  0
  2  7  1  0  0  0  0
  2  3  2  0  0  0  0
  3  4  1  0  0  0  0
  3 20  1  0  0  0  0
  4  5  2  0  0  0  0
  5  6  1  0  0  0  0
  5 21  1  0  0  0  0
  6  7  2  0  0  0  0
  6 22  1  0  0  0  0
  7  8  1  0  0  0  0
  8  9  1  0  0  0  0
  8 23  1  0  0  0  0
  9 10  1  0  0  0  0
  9 24  1  0  0  0  0
  9 25  1  0  0  0  0
 10 19  1  0  0  0  0
 10 11  1  0  0  0  0
 10 26  1  0  0  0  0
 11 12  1  0  0  0  0
 11 27  1  0  0  0  0
 11 28  1  0  0  0  0
 12 17  1  0  0  0  0
 12 13  1  0  0  0  0
 12 40  1  0  0  0  0
 13 14  1  0  0  0  0
 13 29  1  0  0  0  0
 13 30  1  0  0  0  0
 14 15  1  0  0  0  0
 14 31  1  0  0  0  0
 14 32  1  0  0  0  0
 15 16  1  0  0  0  0
 15 33  1  0  0  0  0
 15 34  1  0  0  0  0
 16 17  1  0  0  0  0
 16 35  1  0  0  0  0
 16 36  1  0  0  0  0
 17 18  1  0  0  0  0
 17 37  1  0  0  0  0
 18 19  1  0  0  0  0
 18 38  1  0  0  0  0
 18 39  1  0  0  0  0
M  CHG  1  12   1
M  END
> <s_m_source_file>
AV-unprocessed.smi

> <i_m_source_file_index>
2822

> <i_lp_mmshare_version>
43012

> <i_f3d_flags>
0

> <s_epik_input>
Q2xjMVtjSF1uW2NIXVtjSF1jMVtOSF1bQ0gyXVtDQEhdKFtDSDJdMilPW0NIMl1bQ0BASF0oTjIzKVtDSDJdW0NIMl1bQ0gyXVtDSDJdMw==

> <s_epik_cmdline>
J2VwaWtfcHl0aG9uJywgJy1waCcsICc3LjAnLCAnLXRuJywgJzgnLCAnLW1hJywgJzIwMCcsICctbWV0YWxfYmluZGluZycsICctaW1hZScsICc8aW5maWxlLm1hZT4nLCAnLW9tYWUnLCAnPG91dGZpbGUubWFlPic=

> <r_lp_tautomer_probability>
0.999999

> <r_epik_Ionization_Penalty>
0.88937

> <r_epik_Ionization_Penalty_Charging>
0.0803403

> <r_epik_Ionization_Penalty_Neutral>
0.80903

> <r_epik_State_Penalty>
0.931884

> <r_epik_Charging_Adjusted_Penalty>
1.01222

> <i_epik_Tot_Q>
1

> <i_epik_Tot_abs_Q>
1

> <r_epik_Metal_State_Penalty>
0.0782275

> <b_epik_Metal_Only>
0

> <s_lp_Force_Field>
OPLS_2005

> <r_lp_Energy>
33.0779

> <b_lp_Chiralities_Consistent>
1

> <s_lp_Variant>
AV-unprocessed.smi:2822-12

> <Gold.Version>
5.8.1

> <Gold.Id.Protein>
6NUR|6NUR_protein|mol2

> <Gold.PLP.Fitness>
39.8592

> <Gold.PLP.PLP>
-34.2484

> <Gold.PLP.part.hbond>
-1.0000

> <Gold.PLP.part.metal>
0.0000

> <Gold.PLP.part.buried>
-5.7954

> <Gold.PLP.part.nonpolar>
-27.8538

> <Gold.PLP.part.repulsive>
0.4055

> <Gold.PLP.ligand.clash>
0.0000

> <Gold.PLP.ligand.torsion>
0.1955

> <Gold.PLP.Chemscore.Hbond>
2.0000

> <Gold.PLP.Chemscore.CHOScore>
0.0000

> <Gold.PLP.Chemscore.Metal>
0.0000

> <Gold.Chemscore.Hbonds>
donor molecule, donor type, donor heavy atom, donor atom, acceptor molecule, acceptor atom, score
      L1  H    12    40       P1  8028  2.00

> <Gold.PLP.Chemscore.Internal.Correction>
0.0018

> <Gold.Rescore>
     Score         DG    S(hbond)    S(metal)    S(lipo)     H(rot)  DE(clash)    DE(int)     intcor
     14.54     -14.71       0.99        0.00      76.18       1.17       0.00       0.17       ----

> <Gold.Chemscore.Fitness>
14.5385

> <Gold.Chemscore.DG>
-14.7123

> <Gold.Chemscore.ZeroCoef>
-5.4800

> <Gold.Chemscore.Hbond>
0.9918

> <Gold.Chemscore.Metal>
0.0000

> <Gold.Chemscore.Lipo>
76.1812

> <Gold.Chemscore.Internal_Hbond>
0.0000

> <Gold.Chemscore.DEClash>
0.0000

> <Gold.Chemscore.DEInternal>
0.1738

> <Gold.Chemscore.Rot>
1.1693

> <Gold.Chemscore.Internal.Correction>
   9.000000E+99

> <Gold.Chemscore.Hbonds>
donor molecule, donor type, donor heavy atom, donor atom, acceptor molecule, acceptor atom, score
      L1  H    12    40       P1  8028  0.99

> <Gold.Chemscore.Hbond.Weighted>
-3.3125

> <Gold.Chemscore.Metal.Weighted>
-0.0000

> <Gold.Chemscore.Lipo.Weighted>
-8.9132

> <Gold.Chemscore.Internal_Hbond.Weighted>
0.0000

> <Gold.Chemscore.DEClash.Weighted>
0.0000

> <Gold.Chemscore.DEInternal.Weighted>
0.1738

> <Gold.Chemscore.Rot.Weighted>
2.9934

> <Gold.Chemscore.Internal.Correction.Weighted>
   9.000000E+99

> <Gold.Protein.RotatedTorsions>
[ 6907 6896 6895 6894 ] final  105.47 input  -60.11 | X-H torsion
[ 7974 7965 7964 7962 ] final   75.50 input  175.53 | X-H torsion
[ 8008 7997 7996 7995 ] final   41.42 input   59.86 | X-H torsion
[ 10167 10162 10161 10158 ] final  -97.46 input  -65.29 | X-H torsion
[ 10718 10713 10712 10709 ] final   -0.58 input   66.30 | X-H torsion
[ 10763 10752 10751 10750 ] final   16.97 input  -60.55 | X-H torsion
[ 11005 11000 10999 10996 ] final  143.35 input  -57.11 | X-H torsion

> <Gold.Protein.ActiveResidues>
 VAL166  LYS551  ARG553  GLY616  TRP617  ASP618  TYR619  PRO620  LYS621  CYS622 
 ASP623  PHE694  ASN695  SER759  ASP760  ASP761  ALA762  ILE779  LEU786  VAL792 
 PHE793  MET794  SER795  GLU796  ALA797  LYS798  CYS799  TRP800  GLU811  SER814 

> <Gold.Protein.RotatedAtoms>
  152.5229  133.9523  159.7677 H   0  0  0  0  0  0  0  0  0  0  0  0  # atno 6907 bound_to 6896
  150.9831  133.6217  159.2726 H   0  0  0  0  0  0  0  0  0  0  0  0  # atno 6908 bound_to 6896
  151.3388  135.0864  159.9417 H   0  0  0  0  0  0  0  0  0  0  0  0  # atno 6909 bound_to 6896
  145.7148  139.2627  143.1630 H   0  0  0  0  0  0  0  0  0  0  0  0  # atno 7974 bound_to 7965
  155.2693  140.3365  155.4266 H   0  0  0  0  0  0  0  0  0  0  0  0  # atno 8008 bound_to 7997
  156.2140  140.1781  156.7674 H   0  0  0  0  0  0  0  0  0  0  0  0  # atno 8009 bound_to 7997
  154.5726  140.0667  156.8971 H   0  0  0  0  0  0  0  0  0  0  0  0  # atno 8010 bound_to 7997
  140.2832  143.3269  152.0421 H   0  0  0  0  0  0  0  0  0  0  0  0  # atno 10167 bound_to 10162
  156.8183  130.5448  149.5700 H   0  0  0  0  0  0  0  0  0  0  0  0  # atno 10718 bound_to 10713
  153.1381  135.6754  153.9070 H   0  0  0  0  0  0  0  0  0  0  0  0  # atno 10763 bound_to 10752
  153.8535  135.3090  155.3435 H   0  0  0  0  0  0  0  0  0  0  0  0  # atno 10764 bound_to 10752
  154.7765  135.4912  153.9837 H   0  0  0  0  0  0  0  0  0  0  0  0  # atno 10765 bound_to 10752
  140.0547  134.9237  157.1079 H   0  0  0  0  0  0  0  0  0  0  0  0  # atno 11005 bound_to 11000
  146.0680  140.7900  142.9702 LP  0  0  0  0  0  0  0  0  0  0  0  0  # atno 17320 bound_to 7965
  144.6932  140.3298  143.7218 LP  0  0  0  0  0  0  0  0  0  0  0  0  # atno 17321 bound_to 7965
  139.4957  144.6577  151.6535 LP  0  0  0  0  0  0  0  0  0  0  0  0  # atno 17342 bound_to 10162
  140.5795  143.9971  150.6260 LP  0  0  0  0  0  0  0  0  0  0  0  0  # atno 17343 bound_to 10162
  156.1003  130.5964  150.9883 LP  0  0  0  0  0  0  0  0  0  0  0  0  # atno 17370 bound_to 10713
  157.6470  131.0902  150.8133 LP  0  0  0  0  0  0  0  0  0  0  0  0  # atno 17371 bound_to 10713
  140.3863  134.2233  155.7168 LP  0  0  0  0  0  0  0  0  0  0  0  0  # atno 17394 bound_to 11000
  141.1946  133.8124  157.0749 LP  0  0  0  0  0  0  0  0  0  0  0  0  # atno 17395 bound_to 11000

$$$$
