AV-unprocessed.smi:1803|AV-procd|sdf|7285|dock4
  -GOLD-   22720 8543D 1   1.00000     0.00000
 Structure written by MMmdl.
 36 38  0  0  0  0  0  0  0  0  2 V2000
  145.5846  137.9901  154.0133 O   0  0  0  0  0  0  0  0  0  0  0  0
  146.4345  137.4626  153.2980 C   0  0  0  0  0  0  0  0  0  0  0  0
  147.6851  137.9631  153.2109 N   0  0  0  0  0  0  0  0  0  0  0  0
  148.2907  139.0919  153.8362 C   0  0  0  0  0  0  0  0  0  0  0  0
  149.6163  139.2658  153.9662 N   0  0  0  0  0  0  0  0  0  0  0  0
  149.9276  140.4643  154.5932 N   0  0  0  0  0  0  0  0  0  0  0  0
  148.8271  141.1562  154.9006 C   0  0  0  0  0  0  0  0  0  0  0  0
  147.3033  140.4090  154.4541 S   0  0  0  0  0  0  0  0  0  0  0  0
  146.1827  136.3654  152.5653 N   0  0  0  0  0  0  0  0  0  0  0  0
  144.8908  135.6928  152.4742 C   0  0  2  0  0  0  0  0  0  0  0  0
  144.5459  134.8813  153.7161 C   0  0  0  0  0  0  0  0  0  0  0  0
  143.4629  133.9223  153.2118 C   0  0  0  0  0  0  0  0  0  0  0  0
  143.6950  133.7375  151.7580 N   0  3  2  0  0  0  0  0  0  0  0  0
  143.8580  132.3168  151.3478 C   0  0  0  0  0  0  0  0  0  0  0  0
  144.4775  132.2161  149.9460 C   0  0  0  0  0  0  0  0  0  0  0  0
  145.8851  132.8407  149.9045 C   0  0  0  0  0  0  0  0  0  0  0  0
  146.0987  133.8875  151.0145 C   0  0  0  0  0  0  0  0  0  0  0  0
  144.7932  134.6548  151.3400 C   0  0  2  0  0  0  0  0  0  0  0  0
  148.3205  137.4059  152.6583 H   0  0  0  0  0  0  0  0  0  0  0  0
  148.9136  142.1149  155.3903 H   0  0  0  0  0  0  0  0  0  0  0  0
  146.9359  135.9891  152.0069 H   0  0  0  0  0  0  0  0  0  0  0  0
  144.1063  136.4404  152.3375 H   0  0  0  0  0  0  0  0  0  0  0  0
  145.4155  134.3136  154.0509 H   0  0  0  0  0  0  0  0  0  0  0  0
  144.2075  135.4998  154.5482 H   0  0  0  0  0  0  0  0  0  0  0  0
  143.4658  132.9856  153.7710 H   0  0  0  0  0  0  0  0  0  0  0  0
  142.4776  134.3721  153.3384 H   0  0  0  0  0  0  0  0  0  0  0  0
  144.4959  131.7893  152.0594 H   0  0  0  0  0  0  0  0  0  0  0  0
  142.8843  131.8266  151.3741 H   0  0  0  0  0  0  0  0  0  0  0  0
  144.5212  131.1763  149.6205 H   0  0  0  0  0  0  0  0  0  0  0  0
  143.8296  132.7306  149.2349 H   0  0  0  0  0  0  0  0  0  0  0  0
  146.6442  132.0635  150.0008 H   0  0  0  0  0  0  0  0  0  0  0  0
  146.0417  133.2964  148.9260 H   0  0  0  0  0  0  0  0  0  0  0  0
  146.4581  133.3895  151.9161 H   0  0  0  0  0  0  0  0  0  0  0  0
  146.8932  134.5689  150.7095 H   0  0  0  0  0  0  0  0  0  0  0  0
  144.4776  135.1627  150.4275 H   0  0  0  0  0  0  0  0  0  0  0  0
  142.8648  134.0777  151.2939 H   0  0  0  0  0  0  0  0  0  0  0  0
  1  2  2  0  0  0  0
  2  3  1  0  0  0  0
  2  9  1  0  0  0  0
  3  4  1  0  0  0  0
  3 19  1  0  0  0  0
  4  8  1  0  0  0  0
  4  5  2  0  0  0  0
  5  6  1  0  0  0  0
  6  7  2  0  0  0  0
  7  8  1  0  0  0  0
  7 20  1  0  0  0  0
  9 10  1  0  0  0  0
  9 21  1  0  0  0  0
 10 18  1  0  0  0  0
 10 11  1  0  0  0  0
 10 22  1  0  0  0  0
 11 12  1  0  0  0  0
 11 23  1  0  0  0  0
 11 24  1  0  0  0  0
 12 13  1  0  0  0  0
 12 25  1  0  0  0  0
 12 26  1  0  0  0  0
 13 18  1  0  0  0  0
 13 14  1  0  0  0  0
 13 36  1  0  0  0  0
 14 15  1  0  0  0  0
 14 27  1  0  0  0  0
 14 28  1  0  0  0  0
 15 16  1  0  0  0  0
 15 29  1  0  0  0  0
 15 30  1  0  0  0  0
 16 17  1  0  0  0  0
 16 31  1  0  0  0  0
 16 32  1  0  0  0  0
 17 18  1  0  0  0  0
 17 33  1  0  0  0  0
 17 34  1  0  0  0  0
 18 35  1  0  0  0  0
M  CHG  1  13   1
M  END
> <s_m_source_file>
AV-unprocessed.smi

> <i_m_source_file_index>
1803

> <i_lp_mmshare_version>
43012

> <i_f3d_flags>
0

> <s_epik_input>
czFbY0hdbm5jMVtOSF1DKD1PKVtOSF1bQ0BIXShbQ0gyXVtDSDJdMilbQ0BASF0oTjIzKVtDSDJdW0NIMl1bQ0gyXVtDSDJdMw==

> <s_epik_cmdline>
J2VwaWtfcHl0aG9uJywgJy1waCcsICc3LjAnLCAnLXRuJywgJzgnLCAnLW1hJywgJzIwMCcsICctbWV0YWxfYmluZGluZycsICctaW1hZScsICc8aW5maWxlLm1hZT4nLCAnLW9tYWUnLCAnPG91dGZpbGUubWFlPic=

> <r_lp_tautomer_probability>
1

> <r_epik_Ionization_Penalty>
0.00213286

> <r_epik_Ionization_Penalty_Charging>
0.00107044

> <r_epik_Ionization_Penalty_Neutral>
0.00106242

> <r_epik_State_Penalty>
-0

> <r_epik_Charging_Adjusted_Penalty>
0.00107044

> <i_epik_Tot_Q>
1

> <i_epik_Tot_abs_Q>
1

> <r_epik_Metal_State_Penalty>
0.292783

> <b_epik_Metal_Only>
0

> <s_lp_Force_Field>
OPLS_2005

> <r_lp_Energy>
41.7848

> <b_lp_Chiralities_Consistent>
1

> <s_lp_Variant>
AV-unprocessed.smi:1803-7

> <Gold.Version>
5.8.1

> <Gold.Id.Protein>
6NUR|6NUR_protein|mol2

> <Gold.PLP.Fitness>
46.1579

> <Gold.PLP.PLP>
-30.7605

> <Gold.PLP.part.hbond>
-4.0128

> <Gold.PLP.part.metal>
0.0000

> <Gold.PLP.part.buried>
-4.3155

> <Gold.PLP.part.nonpolar>
-27.0778

> <Gold.PLP.part.repulsive>
3.9852

> <Gold.PLP.ligand.clash>
0.0000

> <Gold.PLP.ligand.torsion>
0.2601

> <Gold.PLP.Chemscore.Hbond>
4.3048

> <Gold.PLP.Chemscore.CHOScore>
1.0000

> <Gold.PLP.Chemscore.Metal>
0.0000

> <Gold.Chemscore.Hbonds>
donor molecule, donor type, donor heavy atom, donor atom, acceptor molecule, acceptor atom, score
      L1  H     3    19       P1  7948  1.00
      L1  H     9    21       P1  7948  0.77
      P1  H  7989  7998       L1     6  0.69
      L1  C     7    20       P1  8028  0.80

> <Gold.PLP.Chemscore.Internal.Correction>
0.0032

> <Gold.Rescore>
     Score         DG    S(hbond)    S(metal)    S(lipo)     H(rot)  DE(clash)    DE(int)     intcor
     16.71     -18.12       2.37        0.00      62.22       1.00       0.16       1.26       ----

> <Gold.Chemscore.Fitness>
16.7083

> <Gold.Chemscore.DG>
-18.1217

> <Gold.Chemscore.ZeroCoef>
-5.4800

> <Gold.Chemscore.Hbond>
2.3719

> <Gold.Chemscore.Metal>
0.0000

> <Gold.Chemscore.Lipo>
62.2179

> <Gold.Chemscore.Internal_Hbond>
0.0000

> <Gold.Chemscore.DEClash>
0.1575

> <Gold.Chemscore.DEInternal>
1.2558

> <Gold.Chemscore.Rot>
1.0000

> <Gold.Chemscore.Internal.Correction>
   9.000000E+99

> <Gold.Chemscore.Hbonds>
donor molecule, donor type, donor heavy atom, donor atom, acceptor molecule, acceptor atom, score
      L1  H     3    19       P1  7948  0.94
      L1  H     9    21       P1  7948  0.74
      P1  H  7989  7998       L1     6  0.11

> <Gold.Chemscore.Hbond.Weighted>
-7.9222

> <Gold.Chemscore.Metal.Weighted>
-0.0000

> <Gold.Chemscore.Lipo.Weighted>
-7.2795

> <Gold.Chemscore.Internal_Hbond.Weighted>
0.0000

> <Gold.Chemscore.DEClash.Weighted>
0.1575

> <Gold.Chemscore.DEInternal.Weighted>
1.2558

> <Gold.Chemscore.Rot.Weighted>
2.5600

> <Gold.Chemscore.Internal.Correction.Weighted>
   9.000000E+99

> <Gold.Protein.RotatedTorsions>
[ 6907 6896 6895 6894 ] final -153.18 input  -60.11 | X-H torsion
[ 7974 7965 7964 7962 ] final   97.12 input  175.53 | X-H torsion
[ 8008 7997 7996 7995 ] final -113.61 input   59.86 | X-H torsion
[ 10167 10162 10161 10158 ] final -101.80 input  -65.29 | X-H torsion
[ 10718 10713 10712 10709 ] final   71.82 input   66.30 | X-H torsion
[ 10763 10752 10751 10750 ] final   31.06 input  -60.55 | X-H torsion
[ 11005 11000 10999 10996 ] final -147.98 input  -57.11 | X-H torsion

> <Gold.Protein.ActiveResidues>
 VAL166  LYS551  ARG553  GLY616  TRP617  ASP618  TYR619  PRO620  LYS621  CYS622 
 ASP623  PHE694  ASN695  SER759  ASP760  ASP761  ALA762  ILE779  LEU786  VAL792 
 PHE793  MET794  SER795  GLU796  ALA797  LYS798  CYS799  TRP800  GLU811  SER814 

> <Gold.Protein.RotatedAtoms>
  151.2387  133.4411  159.2606 H   0  0  0  0  0  0  0  0  0  0  0  0  # atno 6907 bound_to 6896
  151.0726  134.9808  159.8326 H   0  0  0  0  0  0  0  0  0  0  0  0  # atno 6908 bound_to 6896
  152.5414  134.2331  159.8885 H   0  0  0  0  0  0  0  0  0  0  0  0  # atno 6909 bound_to 6896
  145.4298  139.2312  143.3150 H   0  0  0  0  0  0  0  0  0  0  0  0  # atno 7974 bound_to 7965
  155.0233  140.0393  157.2446 H   0  0  0  0  0  0  0  0  0  0  0  0  # atno 8008 bound_to 7997
  154.7359  140.2739  155.6392 H   0  0  0  0  0  0  0  0  0  0  0  0  # atno 8009 bound_to 7997
  156.2853  140.2675  156.2072 H   0  0  0  0  0  0  0  0  0  0  0  0  # atno 8010 bound_to 7997
  140.2374  143.3563  152.0832 H   0  0  0  0  0  0  0  0  0  0  0  0  # atno 10167 bound_to 10162
  157.6471  130.9547  150.0842 H   0  0  0  0  0  0  0  0  0  0  0  0  # atno 10718 bound_to 10713
  153.0337  135.6448  154.1140 H   0  0  0  0  0  0  0  0  0  0  0  0  # atno 10763 bound_to 10752
  154.0858  135.2870  155.3283 H   0  0  0  0  0  0  0  0  0  0  0  0  # atno 10764 bound_to 10752
  154.6498  135.5430  153.7952 H   0  0  0  0  0  0  0  0  0  0  0  0  # atno 10765 bound_to 10752
  140.7661  134.3243  157.5088 H   0  0  0  0  0  0  0  0  0  0  0  0  # atno 11005 bound_to 11000
  146.2613  140.5033  142.8852 LP  0  0  0  0  0  0  0  0  0  0  0  0  # atno 17320 bound_to 7965
  144.8190  140.6518  143.6365 LP  0  0  0  0  0  0  0  0  0  0  0  0  # atno 17321 bound_to 7965
  139.5089  144.6857  151.5892 LP  0  0  0  0  0  0  0  0  0  0  0  0  # atno 17342 bound_to 10162
  140.6139  143.9385  150.6474 LP  0  0  0  0  0  0  0  0  0  0  0  0  # atno 17343 bound_to 10162
  156.1810  130.3650  149.9036 LP  0  0  0  0  0  0  0  0  0  0  0  0  # atno 17370 bound_to 10713
  156.6988  130.8925  151.3597 LP  0  0  0  0  0  0  0  0  0  0  0  0  # atno 17371 bound_to 10713
  139.8763  134.9232  156.3318 LP  0  0  0  0  0  0  0  0  0  0  0  0  # atno 17394 bound_to 11000
  140.9618  133.7384  156.0412 LP  0  0  0  0  0  0  0  0  0  0  0  0  # atno 17395 bound_to 11000

$$$$
