AV-unprocessed.smi:1535|AV-procd|sdf|6180|dock6
  -GOLD-   22720 6333D 1   1.00000     0.00000
 Structure written by MMmdl.
 47 48  0  0  0  0  0  0  0  0  2 V2000
  152.4438  142.4170  160.4182 C   0  0  0  0  0  0  0  0  0  0  0  0
  151.8367  141.9983  159.0907 C   0  0  0  0  0  0  0  0  0  0  0  0
  152.3644  140.8730  158.4184 C   0  0  0  0  0  0  0  0  0  0  0  0
  151.8286  140.4510  157.1821 C   0  0  0  0  0  0  0  0  0  0  0  0
  152.1854  139.3951  156.3612 N   0  0  0  0  0  0  0  0  0  0  0  0
  151.3192  139.5272  155.3614 C   0  0  0  0  0  0  0  0  0  0  0  0
  150.4509  140.5551  155.4301 N   0  0  0  0  0  0  0  0  0  0  0  0
  149.4325  140.9079  154.4579 C   0  0  0  0  0  0  0  0  0  0  0  0
  148.4881  139.7318  154.1391 C   0  0  2  0  0  0  0  0  0  0  0  0
  149.2055  138.7947  153.3620 O   0  0  0  0  0  0  0  0  0  0  0  0
  147.2213  140.1464  153.3610 C   0  0  0  0  0  0  0  0  0  0  0  0
  146.0352  140.2235  154.2516 N   0  3  1  0  0  0  0  0  0  0  0  0
  145.6370  138.8974  154.7794 C   0  0  0  0  0  0  0  0  0  0  0  0
  146.1736  141.2349  155.3293 C   0  0  0  0  0  0  0  0  0  0  0  0
  145.4948  142.5712  154.9697 C   0  0  2  0  0  0  0  0  0  0  0  0
  146.2310  143.2870  153.8303 C   0  0  0  0  0  0  0  0  0  0  0  0
  145.3785  143.4453  156.1481 C   0  0  0  0  0  0  0  0  0  0  0  0
  145.2880  144.1355  157.0713 N   0  0  0  0  0  0  0  0  0  0  0  0
  150.7424  141.1923  156.6316 C   0  0  0  0  0  0  0  0  0  0  0  0
  150.2052  142.3104  157.2937 C   0  0  0  0  0  0  0  0  0  0  0  0
  150.7528  142.7187  158.5276 C   0  0  0  0  0  0  0  0  0  0  0  0
  150.1676  143.9289  159.2339 C   0  0  0  0  0  0  0  0  0  0  0  0
  153.2745  141.7688  160.6986 H   0  0  0  0  0  0  0  0  0  0  0  0
  151.6976  142.3664  161.2115 H   0  0  0  0  0  0  0  0  0  0  0  0
  152.8216  143.4381  160.3616 H   0  0  0  0  0  0  0  0  0  0  0  0
  153.1880  140.3221  158.8486 H   0  0  0  0  0  0  0  0  0  0  0  0
  151.3239  138.8437  154.5249 H   0  0  0  0  0  0  0  0  0  0  0  0
  148.8643  141.7563  154.8432 H   0  0  0  0  0  0  0  0  0  0  0  0
  149.9331  141.2514  153.5517 H   0  0  0  0  0  0  0  0  0  0  0  0
  148.2089  139.2445  155.0730 H   0  0  0  0  0  0  0  0  0  0  0  0
  149.2559  139.1136  152.4730 H   0  0  0  0  0  0  0  0  0  0  0  0
  147.3518  141.1138  152.8743 H   0  0  0  0  0  0  0  0  0  0  0  0
  147.0614  139.4341  152.5516 H   0  0  0  0  0  0  0  0  0  0  0  0
  146.3955  138.5028  155.4569 H   0  0  0  0  0  0  0  0  0  0  0  0
  145.4936  138.1765  153.9744 H   0  0  0  0  0  0  0  0  0  0  0  0
  144.6958  138.9674  155.3258 H   0  0  0  0  0  0  0  0  0  0  0  0
  145.7102  140.8548  156.2411 H   0  0  0  0  0  0  0  0  0  0  0  0
  147.2300  141.3827  155.5590 H   0  0  0  0  0  0  0  0  0  0  0  0
  144.4744  142.3864  154.6363 H   0  0  0  0  0  0  0  0  0  0  0  0
  145.7302  144.2192  153.5679 H   0  0  0  0  0  0  0  0  0  0  0  0
  146.2668  142.6674  152.9339 H   0  0  0  0  0  0  0  0  0  0  0  0
  147.2563  143.5288  154.1122 H   0  0  0  0  0  0  0  0  0  0  0  0
  149.3778  142.8498  156.8570 H   0  0  0  0  0  0  0  0  0  0  0  0
  149.3315  144.3504  158.6751 H   0  0  0  0  0  0  0  0  0  0  0  0
  150.9223  144.7077  159.3450 H   0  0  0  0  0  0  0  0  0  0  0  0
  149.8029  143.6551  160.2243 H   0  0  0  0  0  0  0  0  0  0  0  0
  145.2688  140.5410  153.6743 H   0  0  0  0  0  0  0  0  0  0  0  0
  1  2  1  0  0  0  0
  1 23  1  0  0  0  0
  1 24  1  0  0  0  0
  1 25  1  0  0  0  0
  2 21  1  0  0  0  0
  2  3  2  0  0  0  0
  3  4  1  0  0  0  0
  3 26  1  0  0  0  0
  4 19  2  0  0  0  0
  4  5  1  0  0  0  0
  5  6  2  0  0  0  0
  6  7  1  0  0  0  0
  6 27  1  0  0  0  0
  7  8  1  0  0  0  0
  7 19  1  0  0  0  0
  8  9  1  0  0  0  0
  8 28  1  0  0  0  0
  8 29  1  0  0  0  0
  9 10  1  0  0  0  0
  9 11  1  0  0  0  0
  9 30  1  0  0  0  0
 10 31  1  0  0  0  0
 11 12  1  0  0  0  0
 11 32  1  0  0  0  0
 11 33  1  0  0  0  0
 12 13  1  0  0  0  0
 12 14  1  0  0  0  0
 12 47  1  0  0  0  0
 13 34  1  0  0  0  0
 13 35  1  0  0  0  0
 13 36  1  0  0  0  0
 14 15  1  0  0  0  0
 14 37  1  0  0  0  0
 14 38  1  0  0  0  0
 15 16  1  0  0  0  0
 15 17  1  0  0  0  0
 15 39  1  0  0  0  0
 16 40  1  0  0  0  0
 16 41  1  0  0  0  0
 16 42  1  0  0  0  0
 17 18  3  0  0  0  0
 19 20  1  0  0  0  0
 20 21  2  0  0  0  0
 20 43  1  0  0  0  0
 21 22  1  0  0  0  0
 22 44  1  0  0  0  0
 22 45  1  0  0  0  0
 22 46  1  0  0  0  0
M  CHG  1  12   1
M  END
> <s_m_source_file>
AV-unprocessed.smi

> <i_m_source_file_index>
1535

> <i_lp_mmshare_version>
43012

> <i_f3d_flags>
0

> <s_epik_input>
W0NIM11jKFtjSF0xKWMoW0NIM10pW2NIXWMoYzEyKW4oW2NIXW4yKVtDSDJdW0NASF0oW09IXSlbQ0gyXU4oW0NIM10pW0NIMl1bQ0BIXShbQ0gzXSlDI04=

> <s_epik_cmdline>
J2VwaWtfcHl0aG9uJywgJy1waCcsICc3LjAnLCAnLXRuJywgJzgnLCAnLW1hJywgJzIwMCcsICctbWV0YWxfYmluZGluZycsICctaW1hZScsICc8aW5maWxlLm1hZT4nLCAnLW9tYWUnLCAnPG91dGZpbGUubWFlPic=

> <r_epik_Ionization_Penalty>
2.21058

> <r_epik_Ionization_Penalty_Charging>
2.12381

> <r_epik_Ionization_Penalty_Neutral>
0.0867699

> <r_epik_State_Penalty>
2.36208

> <r_epik_Charging_Adjusted_Penalty>
4.48589

> <i_epik_Tot_Q>
1

> <i_epik_Tot_abs_Q>
1

> <r_epik_Metal_State_Penalty>
2.2818

> <b_epik_Metal_Only>
0

> <s_lp_Force_Field>
OPLS_2005

> <r_lp_Energy>
13.2218

> <b_lp_Chiralities_Consistent>
1

> <s_lp_Variant>
AV-unprocessed.smi:1535-11

> <Gold.Version>
5.8.1

> <Gold.Id.Protein>
6NUR|6NUR_protein|mol2

> <Gold.PLP.Fitness>
49.4428

> <Gold.PLP.PLP>
-41.6978

> <Gold.PLP.part.hbond>
-3.5557

> <Gold.PLP.part.metal>
0.0000

> <Gold.PLP.part.buried>
-0.8355

> <Gold.PLP.part.nonpolar>
-35.6400

> <Gold.PLP.part.repulsive>
0.1549

> <Gold.PLP.ligand.clash>
0.0000

> <Gold.PLP.ligand.torsion>
1.3575

> <Gold.PLP.Chemscore.Hbond>
3.4388

> <Gold.PLP.Chemscore.CHOScore>
0.0000

> <Gold.PLP.Chemscore.Metal>
0.0000

> <Gold.Chemscore.Hbonds>
donor molecule, donor type, donor heavy atom, donor atom, acceptor molecule, acceptor atom, score
      L1  H    10    31       P1  7957  1.00
      L1  H    12    47       P1 10175  2.00
      P1  H  7997  8010       L1     5  0.22

> <Gold.PLP.Chemscore.Internal.Correction>
0.1437

> <Gold.Rescore>
     Score         DG    S(hbond)    S(metal)    S(lipo)     H(rot)  DE(clash)    DE(int)     intcor
     14.59     -17.20       1.94        0.00     101.68       2.60       0.42       2.19       ----

> <Gold.Chemscore.Fitness>
14.5851

> <Gold.Chemscore.DG>
-17.1995

> <Gold.Chemscore.ZeroCoef>
-5.4800

> <Gold.Chemscore.Hbond>
1.9421

> <Gold.Chemscore.Metal>
0.0000

> <Gold.Chemscore.Lipo>
101.6818

> <Gold.Chemscore.Internal_Hbond>
0.0000

> <Gold.Chemscore.DEClash>
0.4248

> <Gold.Chemscore.DEInternal>
2.1895

> <Gold.Chemscore.Rot>
2.6031

> <Gold.Chemscore.Internal.Correction>
   9.000000E+99

> <Gold.Chemscore.Hbonds>
donor molecule, donor type, donor heavy atom, donor atom, acceptor molecule, acceptor atom, score
      L1  H    10    31       P1  7957  0.98
      L1  H    12    47       P1 10175  0.96
      P1  H  7997  8010       L1     5  0.01

> <Gold.Chemscore.Hbond.Weighted>
-6.4867

> <Gold.Chemscore.Metal.Weighted>
-0.0000

> <Gold.Chemscore.Lipo.Weighted>
-11.8968

> <Gold.Chemscore.Internal_Hbond.Weighted>
0.0000

> <Gold.Chemscore.DEClash.Weighted>
0.4248

> <Gold.Chemscore.DEInternal.Weighted>
2.1895

> <Gold.Chemscore.Rot.Weighted>
6.6640

> <Gold.Chemscore.Internal.Correction.Weighted>
   9.000000E+99

> <Gold.Protein.RotatedTorsions>
[ 6907 6896 6895 6894 ] final -104.10 input  -60.11 | X-H torsion
[ 7974 7965 7964 7962 ] final  -98.18 input  175.53 | X-H torsion
[ 8008 7997 7996 7995 ] final   78.83 input   59.86 | X-H torsion
[ 10167 10162 10161 10158 ] final  179.86 input  -65.29 | X-H torsion
[ 10718 10713 10712 10709 ] final -158.09 input   66.30 | X-H torsion
[ 10763 10752 10751 10750 ] final    6.53 input  -60.55 | X-H torsion
[ 11005 11000 10999 10996 ] final  163.88 input  -57.11 | X-H torsion

> <Gold.Protein.ActiveResidues>
 VAL166  LYS551  ARG553  GLY616  TRP617  ASP618  TYR619  PRO620  LYS621  CYS622 
 ASP623  PHE694  ASN695  SER759  ASP760  ASP761  ALA762  ILE779  LEU786  VAL792 
 PHE793  MET794  SER795  GLU796  ALA797  LYS798  CYS799  TRP800  GLU811  SER814 

> <Gold.Protein.RotatedAtoms>
  150.7271  134.0328  159.3739 H   0  0  0  0  0  0  0  0  0  0  0  0  # atno 6907 bound_to 6896
  151.8299  135.0623  160.0445 H   0  0  0  0  0  0  0  0  0  0  0  0  # atno 6908 bound_to 6896
  152.2941  133.5554  159.5613 H   0  0  0  0  0  0  0  0  0  0  0  0  # atno 6909 bound_to 6896
  145.3240  140.9428  143.2699 H   0  0  0  0  0  0  0  0  0  0  0  0  # atno 7974 bound_to 7965
  155.8612  140.3453  155.5758 H   0  0  0  0  0  0  0  0  0  0  0  0  # atno 8008 bound_to 7997
  155.7931  140.0874  157.2017 H   0  0  0  0  0  0  0  0  0  0  0  0  # atno 8009 bound_to 7997
  154.4012  140.1479  156.3173 H   0  0  0  0  0  0  0  0  0  0  0  0  # atno 8010 bound_to 7997
  139.5355  144.2511  152.0784 H   0  0  0  0  0  0  0  0  0  0  0  0  # atno 10167 bound_to 10162
  156.5493  130.8598  151.2774 H   0  0  0  0  0  0  0  0  0  0  0  0  # atno 10718 bound_to 10713
  153.2467  135.6909  153.7724 H   0  0  0  0  0  0  0  0  0  0  0  0  # atno 10763 bound_to 10752
  153.6834  135.3325  155.3185 H   0  0  0  0  0  0  0  0  0  0  0  0  # atno 10764 bound_to 10752
  154.8377  135.4528  154.1408 H   0  0  0  0  0  0  0  0  0  0  0  0  # atno 10765 bound_to 10752
  140.2402  134.8056  157.3403 H   0  0  0  0  0  0  0  0  0  0  0  0  # atno 11005 bound_to 11000
  144.8917  139.4766  143.6675 LP  0  0  0  0  0  0  0  0  0  0  0  0  # atno 17320 bound_to 7965
  146.3071  139.7618  142.9048 LP  0  0  0  0  0  0  0  0  0  0  0  0  # atno 17321 bound_to 7965
  140.1981  144.4685  150.6445 LP  0  0  0  0  0  0  0  0  0  0  0  0  # atno 17342 bound_to 10162
  140.6558  143.2237  151.5971 LP  0  0  0  0  0  0  0  0  0  0  0  0  # atno 17343 bound_to 10162
  157.7390  130.9824  150.2290 LP  0  0  0  0  0  0  0  0  0  0  0  0  # atno 17370 bound_to 10713
  156.2899  130.3744  149.7851 LP  0  0  0  0  0  0  0  0  0  0  0  0  # atno 17371 bound_to 10713
  140.1661  134.4668  155.7862 LP  0  0  0  0  0  0  0  0  0  0  0  0  # atno 17394 bound_to 11000
  141.2211  133.6921  156.7627 LP  0  0  0  0  0  0  0  0  0  0  0  0  # atno 17395 bound_to 11000

$$$$
