AV-unprocessed.smi:1572|AV-procd|sdf|6329|dock9
  -GOLD-   22720 6543D 1   1.00000     0.00000
 Structure written by MMmdl.
 42 43  0  0  0  0  0  0  0  0  1 V2000
  151.6840  143.1537  159.1953 C   0  0  0  0  0  0  0  0  0  0  0  0
  151.7425  142.1279  158.1655 N   0  0  0  0  0  0  0  0  0  0  0  0
  151.4425  140.8052  158.7053 C   0  0  0  0  0  0  0  0  0  0  0  0
  151.5218  139.7203  157.6153 C   0  0  0  0  0  0  0  0  0  0  0  0
  150.5940  139.9904  156.5047 N   0  0  0  0  0  0  0  0  0  0  0  0
  150.5232  138.9168  155.4736 C   0  0  0  0  0  0  0  0  0  0  0  0
  149.4765  139.2046  154.3701 C   0  0  0  0  0  0  0  0  0  0  0  0
  151.8903  138.7322  154.7666 C   0  0  0  0  0  0  0  0  0  0  0  0
  150.1591  137.5398  156.1032 C   0  0  0  0  0  0  0  0  0  0  0  0
  149.2522  137.6626  157.2447 N   0  0  0  0  0  0  0  0  0  0  0  0
  149.0972  136.7587  158.2227 C   0  0  0  0  0  0  0  0  0  0  0  0
  149.6964  135.6837  158.2581 O   0  0  0  0  0  0  0  0  0  0  0  0
  148.2189  137.1895  159.1452 N   0  0  0  0  0  0  0  0  0  0  0  0
  147.7919  136.5312  160.3288 C   0  0  0  0  0  0  0  0  0  0  0  0
  147.3398  137.1743  161.4171 N   0  0  0  0  0  0  0  0  0  0  0  0
  146.9903  136.2943  162.4332 N   0  0  0  0  0  0  0  0  0  0  0  0
  147.1917  135.0240  162.0717 C   0  0  0  0  0  0  0  0  0  0  0  0
  147.8291  134.7781  160.4548 S   0  0  0  0  0  0  0  0  0  0  0  0
  150.8932  141.3325  155.9778 C   0  0  0  0  0  0  0  0  0  0  0  0
  150.8149  142.4094  157.0747 C   0  0  0  0  0  0  0  0  0  0  0  0
  152.3981  142.9421  159.9919 H   0  0  0  0  0  0  0  0  0  0  0  0
  150.6886  143.2129  159.6374 H   0  0  0  0  0  0  0  0  0  0  0  0
  151.9303  144.1314  158.7801 H   0  0  0  0  0  0  0  0  0  0  0  0
  152.1463  140.5654  159.5032 H   0  0  0  0  0  0  0  0  0  0  0  0
  150.4480  140.8002  159.1548 H   0  0  0  0  0  0  0  0  0  0  0  0
  152.5467  139.6562  157.2496 H   0  0  0  0  0  0  0  0  0  0  0  0
  151.2941  138.7660  158.0867 H   0  0  0  0  0  0  0  0  0  0  0  0
  149.4606  138.4045  153.6291 H   0  0  0  0  0  0  0  0  0  0  0  0
  149.6890  140.1268  153.8299 H   0  0  0  0  0  0  0  0  0  0  0  0
  148.4657  139.2803  154.7703 H   0  0  0  0  0  0  0  0  0  0  0  0
  151.9030  137.8330  154.1492 H   0  0  0  0  0  0  0  0  0  0  0  0
  152.7077  138.6449  155.4834 H   0  0  0  0  0  0  0  0  0  0  0  0
  152.1258  139.5615  154.0996 H   0  0  0  0  0  0  0  0  0  0  0  0
  149.6857  136.8865  155.3710 H   0  0  0  0  0  0  0  0  0  0  0  0
  151.0672  137.0061  156.3899 H   0  0  0  0  0  0  0  0  0  0  0  0
  148.7252  138.5213  157.3058 H   0  0  0  0  0  0  0  0  0  0  0  0
  147.8117  138.0987  158.9851 H   0  0  0  0  0  0  0  0  0  0  0  0
  146.9636  134.2260  162.7625 H   0  0  0  0  0  0  0  0  0  0  0  0
  151.8868  141.3530  155.5296 H   0  0  0  0  0  0  0  0  0  0  0  0
  150.1884  141.6097  155.1965 H   0  0  0  0  0  0  0  0  0  0  0  0
  149.7944  142.4706  157.4560 H   0  0  0  0  0  0  0  0  0  0  0  0
  151.0442  143.3827  156.6394 H   0  0  0  0  0  0  0  0  0  0  0  0
  1  2  1  0  0  0  0
  1 21  1  0  0  0  0
  1 22  1  0  0  0  0
  1 23  1  0  0  0  0
  2 20  1  0  0  0  0
  2  3  1  0  0  0  0
  3  4  1  0  0  0  0
  3 24  1  0  0  0  0
  3 25  1  0  0  0  0
  4  5  1  0  0  0  0
  4 26  1  0  0  0  0
  4 27  1  0  0  0  0
  5  6  1  0  0  0  0
  5 19  1  0  0  0  0
  6  7  1  0  0  0  0
  6  8  1  0  0  0  0
  6  9  1  0  0  0  0
  7 28  1  0  0  0  0
  7 29  1  0  0  0  0
  7 30  1  0  0  0  0
  8 31  1  0  0  0  0
  8 32  1  0  0  0  0
  8 33  1  0  0  0  0
  9 10  1  0  0  0  0
  9 34  1  0  0  0  0
  9 35  1  0  0  0  0
 10 11  1  0  0  0  0
 10 36  1  0  0  0  0
 11 12  2  0  0  0  0
 11 13  1  0  0  0  0
 13 14  1  0  0  0  0
 13 37  1  0  0  0  0
 14 18  1  0  0  0  0
 14 15  2  0  0  0  0
 15 16  1  0  0  0  0
 16 17  2  0  0  0  0
 17 18  1  0  0  0  0
 17 38  1  0  0  0  0
 19 20  1  0  0  0  0
 19 39  1  0  0  0  0
 19 40  1  0  0  0  0
 20 41  1  0  0  0  0
 20 42  1  0  0  0  0
M  END
> <s_m_source_file>
AV-unprocessed.smi

> <i_m_source_file_index>
1572

> <i_lp_mmshare_version>
43012

> <i_f3d_flags>
0

> <s_epik_input>
W0NIM11OMVtDSDJdW0NIMl1OKFtDSDJdW0NIMl0xKUMoW0NIM10pKFtDSDNdKVtDSDJdW05IXUMoPU8pW05IXWMybm5bY0hdczI=

> <s_epik_cmdline>
J2VwaWtfcHl0aG9uJywgJy1waCcsICc3LjAnLCAnLXRuJywgJzgnLCAnLW1hJywgJzIwMCcsICctbWV0YWxfYmluZGluZycsICctaW1hZScsICc8aW5maWxlLm1hZT4nLCAnLW9tYWUnLCAnPG91dGZpbGUubWFlPic=

> <r_lp_tautomer_probability>
1

> <r_epik_Ionization_Penalty>
3.01909

> <r_epik_Ionization_Penalty_Charging>
0

> <r_epik_Ionization_Penalty_Neutral>
3.01909

> <r_epik_State_Penalty>
2.1369

> <r_epik_Charging_Adjusted_Penalty>
2.1369

> <i_epik_Tot_Q>
0

> <i_epik_Tot_abs_Q>
0

> <r_epik_Metal_State_Penalty>
2.47072

> <b_epik_Metal_Only>
0

> <s_lp_Force_Field>
OPLS_2005

> <r_lp_Energy>
48.823

> <b_lp_Chiralities_Consistent>
1

> <s_lp_Variant>
AV-unprocessed.smi:1572-3

> <Gold.Version>
5.8.1

> <Gold.Id.Protein>
6NUR|6NUR_protein|mol2

> <Gold.PLP.Fitness>
40.3993

> <Gold.PLP.PLP>
-33.5795

> <Gold.PLP.part.hbond>
-3.0000

> <Gold.PLP.part.metal>
0.0000

> <Gold.PLP.part.buried>
-5.5619

> <Gold.PLP.part.nonpolar>
-24.5855

> <Gold.PLP.part.repulsive>
0.2119

> <Gold.PLP.ligand.clash>
0.0000

> <Gold.PLP.ligand.torsion>
0.8013

> <Gold.PLP.Chemscore.Hbond>
2.7920

> <Gold.PLP.Chemscore.CHOScore>
0.0000

> <Gold.PLP.Chemscore.Metal>
0.0000

> <Gold.Chemscore.Hbonds>
donor molecule, donor type, donor heavy atom, donor atom, acceptor molecule, acceptor atom, score
      P1  H  6896  6907       L1    12  1.00
      P1  H  6931  6943       L1    15  0.83
      P1  H  6934  6947       L1    15  0.96

> <Gold.PLP.Chemscore.Internal.Correction>
0.0464

> <Gold.Rescore>
     Score         DG    S(hbond)    S(metal)    S(lipo)     H(rot)  DE(clash)    DE(int)     intcor
     16.48     -17.43       2.21        0.00      75.32       1.66       0.00       0.95       ----

> <Gold.Chemscore.Fitness>
16.4800

> <Gold.Chemscore.DG>
-17.4312

> <Gold.Chemscore.ZeroCoef>
-5.4800

> <Gold.Chemscore.Hbond>
2.2113

> <Gold.Chemscore.Metal>
0.0000

> <Gold.Chemscore.Lipo>
75.3182

> <Gold.Chemscore.Internal_Hbond>
0.0000

> <Gold.Chemscore.DEClash>
0.0000

> <Gold.Chemscore.DEInternal>
0.9511

> <Gold.Chemscore.Rot>
1.6590

> <Gold.Chemscore.Internal.Correction>
   9.000000E+99

> <Gold.Chemscore.Hbonds>
donor molecule, donor type, donor heavy atom, donor atom, acceptor molecule, acceptor atom, score
      P1  H  6896  6907       L1    12  0.96
      P1  H  6931  6943       L1    15  0.16
      P1  H  6934  6947       L1    15  0.55

> <Gold.Chemscore.Hbond.Weighted>
-7.3858

> <Gold.Chemscore.Metal.Weighted>
-0.0000

> <Gold.Chemscore.Lipo.Weighted>
-8.8122

> <Gold.Chemscore.Internal_Hbond.Weighted>
0.0000

> <Gold.Chemscore.DEClash.Weighted>
0.0000

> <Gold.Chemscore.DEInternal.Weighted>
0.9511

> <Gold.Chemscore.Rot.Weighted>
4.2469

> <Gold.Chemscore.Internal.Correction.Weighted>
   9.000000E+99

> <Gold.Protein.RotatedTorsions>
[ 6907 6896 6895 6894 ] final  -58.69 input  -60.11 | X-H torsion
[ 7974 7965 7964 7962 ] final  170.87 input  175.53 | X-H torsion
[ 8008 7997 7996 7995 ] final  -14.31 input   59.86 | X-H torsion
[ 10167 10162 10161 10158 ] final -123.29 input  -65.29 | X-H torsion
[ 10718 10713 10712 10709 ] final  -54.83 input   66.30 | X-H torsion
[ 10763 10752 10751 10750 ] final -126.48 input  -60.55 | X-H torsion
[ 11005 11000 10999 10996 ] final   -5.48 input  -57.11 | X-H torsion

> <Gold.Protein.ActiveResidues>
 VAL166  LYS551  ARG553  GLY616  TRP617  ASP618  TYR619  PRO620  LYS621  CYS622 
 ASP623  PHE694  ASN695  SER759  ASP760  ASP761  ALA762  ILE779  LEU786  VAL792 
 PHE793  MET794  SER795  GLU796  ALA797  LYS798  CYS799  TRP800  GLU811  SER814 

> <Gold.Protein.RotatedAtoms>
  150.7987  134.7065  159.6579 H   0  0  0  0  0  0  0  0  0  0  0  0  # atno 6907 bound_to 6896
  152.4102  134.6134  160.0041 H   0  0  0  0  0  0  0  0  0  0  0  0  # atno 6908 bound_to 6896
  151.6379  133.3291  159.3160 H   0  0  0  0  0  0  0  0  0  0  0  0  # atno 6909 bound_to 6896
  144.7311  139.9265  143.6422 H   0  0  0  0  0  0  0  0  0  0  0  0  # atno 7974 bound_to 7965
  154.5220  140.2226  155.8958 H   0  0  0  0  0  0  0  0  0  0  0  0  # atno 8008 bound_to 7997
  156.1673  140.3129  155.8875 H   0  0  0  0  0  0  0  0  0  0  0  0  # atno 8009 bound_to 7997
  155.3631  140.0462  157.3037 H   0  0  0  0  0  0  0  0  0  0  0  0  # atno 8010 bound_to 7997
  140.0051  143.5499  152.2287 H   0  0  0  0  0  0  0  0  0  0  0  0  # atno 10167 bound_to 10162
  156.1418  130.4154  150.0090 H   0  0  0  0  0  0  0  0  0  0  0  0  # atno 10718 bound_to 10713
  154.8746  135.3994  154.3438 H   0  0  0  0  0  0  0  0  0  0  0  0  # atno 10763 bound_to 10752
  153.4234  135.7023  153.6284 H   0  0  0  0  0  0  0  0  0  0  0  0  # atno 10764 bound_to 10752
  153.4937  135.3742  155.2475 H   0  0  0  0  0  0  0  0  0  0  0  0  # atno 10765 bound_to 10752
  140.6916  133.9066  155.8622 H   0  0  0  0  0  0  0  0  0  0  0  0  # atno 11005 bound_to 11000
  146.0890  139.3879  143.0418 LP  0  0  0  0  0  0  0  0  0  0  0  0  # atno 17320 bound_to 7965
  145.7738  140.9885  143.1135 LP  0  0  0  0  0  0  0  0  0  0  0  0  # atno 17321 bound_to 7965
  139.6244  144.7634  151.2670 LP  0  0  0  0  0  0  0  0  0  0  0  0  # atno 17342 bound_to 10162
  140.7403  143.6590  150.8180 LP  0  0  0  0  0  0  0  0  0  0  0  0  # atno 17343 bound_to 10162
  156.7974  130.9278  151.3646 LP  0  0  0  0  0  0  0  0  0  0  0  0  # atno 17370 bound_to 10713
  157.6582  130.8943  149.9774 LP  0  0  0  0  0  0  0  0  0  0  0  0  # atno 17371 bound_to 10713
  141.0237  134.0854  157.4093 LP  0  0  0  0  0  0  0  0  0  0  0  0  # atno 17394 bound_to 11000
  139.8922  135.0123  156.6832 LP  0  0  0  0  0  0  0  0  0  0  0  0  # atno 17395 bound_to 11000

$$$$
