AV-unprocessed.smi:109|AV-procd|sdf|1034|dock8
  -GOLD-   2262018 43D 1   1.00000     0.00000
 Structure written by MMmdl.
 58 61  0  0  0  0  0  0  0  0  1 V2000
  149.4156  141.1535  153.7322 O   0  0  0  0  0  0  0  0  0  0  0  0
  149.6293  140.4080  154.9112 C   0  0  0  0  0  0  0  0  0  0  0  0
  150.7291  141.0704  155.7563 C   0  0  0  0  0  0  0  0  0  0  0  0
  150.1906  141.6881  157.0657 C   0  0  1  0  0  0  0  0  0  0  0  0
  149.3938  140.6969  157.7889 N   0  0  0  0  0  0  0  0  0  0  0  0
  148.1405  140.9679  158.2170 C   0  0  0  0  0  0  0  0  0  0  0  0
  147.9181  141.6148  159.3907 N   0  0  0  0  0  0  0  0  0  0  0  0
  146.6684  141.8762  159.7836 C   0  0  0  0  0  0  0  0  0  0  0  0
  145.5223  141.5863  159.1649 N   0  0  0  0  0  0  0  0  0  0  0  0
  145.7373  140.9352  157.9847 C   0  0  0  0  0  0  0  0  0  0  0  0
  147.0094  140.5919  157.4468 C   0  0  0  0  0  0  0  0  0  0  0  0
  146.8470  139.9403  156.2315 N   0  0  0  0  0  0  0  0  0  0  0  0
  145.5526  139.9052  156.0632 C   0  0  0  0  0  0  0  0  0  0  0  0
  144.8079  140.4844  157.0666 N   0  0  0  0  0  0  0  0  0  0  0  0
  143.3137  140.5966  157.1345 C   0  0  1  0  0  0  0  0  0  0  0  0
  142.7469  139.9299  156.0432 O   0  0  0  0  0  0  0  0  0  0  0  0
  141.8407  138.9318  156.5049 C   0  0  2  0  0  0  0  0  0  0  0  0
  140.7265  138.6856  155.4722 C   0  0  0  0  0  0  0  0  0  0  0  0
  140.2867  139.8849  154.8687 O   0  0  0  0  0  0  0  0  0  0  0  0
  141.4146  139.4073  157.8962 C   0  0  1  0  0  0  0  0  0  0  0  0
  140.8906  138.3748  158.7104 O   0  0  0  0  0  0  0  0  0  0  0  0
  142.7161  139.9955  158.4252 C   0  0  1  0  0  0  0  0  0  0  0  0
  143.5510  139.0237  159.0372 O   0  0  0  0  0  0  0  0  0  0  0  0
  151.2900  142.2897  157.9841 C   0  0  0  0  0  0  0  0  0  0  0  0
  152.1397  141.2073  158.6852 C   0  0  0  0  0  0  0  0  0  0  0  0
  153.2811  141.8319  159.5042 C   0  0  0  0  0  0  0  0  0  0  0  0
  152.7419  142.8430  160.5279 C   0  0  0  0  0  0  0  0  0  0  0  0
  151.8918  143.9248  159.8435 C   0  0  0  0  0  0  0  0  0  0  0  0
  150.7516  143.3014  159.0212 C   0  0  0  0  0  0  0  0  0  0  0  0
  143.1116  141.6638  157.0354 H   0  0  0  0  0  0  0  0  0  0  0  0
  142.4184  138.0122  156.6096 H   0  0  0  0  0  0  0  0  0  0  0  0
  140.6766  140.2064  157.8194 H   0  0  0  0  0  0  0  0  0  0  0  0
  142.5356  140.7914  159.1483 H   0  0  0  0  0  0  0  0  0  0  0  0
  149.2522  140.5514  153.0222 H   0  0  0  0  0  0  0  0  0  0  0  0
  148.6950  140.3532  155.4708 H   0  0  0  0  0  0  0  0  0  0  0  0
  149.9055  139.3896  154.6366 H   0  0  0  0  0  0  0  0  0  0  0  0
  151.5063  140.3381  155.9786 H   0  0  0  0  0  0  0  0  0  0  0  0
  151.2018  141.8406  155.1481 H   0  0  0  0  0  0  0  0  0  0  0  0
  149.5325  142.5054  156.7686 H   0  0  0  0  0  0  0  0  0  0  0  0
  149.8456  139.8084  157.9515 H   0  0  0  0  0  0  0  0  0  0  0  0
  146.5728  142.3931  160.7270 H   0  0  0  0  0  0  0  0  0  0  0  0
  145.1009  139.4551  155.1912 H   0  0  0  0  0  0  0  0  0  0  0  0
  141.0644  137.9903  154.7035 H   0  0  0  0  0  0  0  0  0  0  0  0
  139.8681  138.2254  155.9618 H   0  0  0  0  0  0  0  0  0  0  0  0
  140.2219  139.7451  153.9363 H   0  0  0  0  0  0  0  0  0  0  0  0
  141.1015  138.5671  159.6112 H   0  0  0  0  0  0  0  0  0  0  0  0
  143.2417  138.8750  159.9175 H   0  0  0  0  0  0  0  0  0  0  0  0
  151.9788  142.8360  157.3378 H   0  0  0  0  0  0  0  0  0  0  0  0
  151.5205  140.6048  159.3492 H   0  0  0  0  0  0  0  0  0  0  0  0
  152.5562  140.5231  157.9451 H   0  0  0  0  0  0  0  0  0  0  0  0
  153.8429  141.0496  160.0153 H   0  0  0  0  0  0  0  0  0  0  0  0
  153.9835  142.3288  158.8338 H   0  0  0  0  0  0  0  0  0  0  0  0
  152.1396  142.3219  161.2733 H   0  0  0  0  0  0  0  0  0  0  0  0
  153.5696  143.3052  161.0664 H   0  0  0  0  0  0  0  0  0  0  0  0
  151.4817  144.6033  160.5921 H   0  0  0  0  0  0  0  0  0  0  0  0
  152.5242  144.5294  159.1920 H   0  0  0  0  0  0  0  0  0  0  0  0
  150.1919  144.0929  158.5221 H   0  0  0  0  0  0  0  0  0  0  0  0
  150.0549  142.8096  159.7006 H   0  0  0  0  0  0  0  0  0  0  0  0
  1  2  1  0  0  0  0
  1 34  1  0  0  0  0
  2  3  1  0  0  0  0
  2 35  1  0  0  0  0
  2 36  1  0  0  0  0
  3  4  1  0  0  0  0
  3 37  1  0  0  0  0
  3 38  1  0  0  0  0
  4  5  1  0  0  0  0
  4 24  1  0  0  0  0
  4 39  1  0  0  0  0
  5  6  1  0  0  0  0
  5 40  1  0  0  0  0
  6 11  1  0  0  0  0
  6  7  2  0  0  0  0
  7  8  1  0  0  0  0
  8  9  2  0  0  0  0
  8 41  1  0  0  0  0
  9 10  1  0  0  0  0
 10 14  1  0  0  0  0
 10 11  2  0  0  0  0
 11 12  1  0  0  0  0
 12 13  2  0  0  0  0
 13 14  1  0  0  0  0
 13 42  1  0  0  0  0
 14 15  1  0  0  0  0
 15 30  1  0  0  0  0
 15 22  1  0  0  0  0
 15 16  1  0  0  0  0
 16 17  1  0  0  0  0
 17 31  1  0  0  0  0
 17 18  1  0  0  0  0
 17 20  1  0  0  0  0
 18 19  1  0  0  0  0
 18 43  1  0  0  0  0
 18 44  1  0  0  0  0
 19 45  1  0  0  0  0
 20 32  1  0  0  0  0
 20 21  1  0  0  0  0
 20 22  1  0  0  0  0
 21 46  1  0  0  0  0
 22 33  1  0  0  0  0
 22 23  1  0  0  0  0
 23 47  1  0  0  0  0
 24 29  1  0  0  0  0
 24 25  1  0  0  0  0
 24 48  1  0  0  0  0
 25 26  1  0  0  0  0
 25 49  1  0  0  0  0
 25 50  1  0  0  0  0
 26 27  1  0  0  0  0
 26 51  1  0  0  0  0
 26 52  1  0  0  0  0
 27 28  1  0  0  0  0
 27 53  1  0  0  0  0
 27 54  1  0  0  0  0
 28 29  1  0  0  0  0
 28 55  1  0  0  0  0
 28 56  1  0  0  0  0
 29 57  1  0  0  0  0
 29 58  1  0  0  0  0
M  END
> <s_m_source_file>
AV-unprocessed.smi

> <i_m_source_file_index>
109

> <i_lp_mmshare_version>
43012

> <i_f3d_flags>
0

> <s_epik_input>
W0NIMl0xW0NIMl1bQ0gyXVtDSDJdW0NIMl1bQ0hdMVtDQEhdKFtDSDJdW0NIMl1bT0hdKVtOSF1jKG5bY0hdbjIpYyhjMjMpbltjSF1uM1tDQEBIXTRPW0NASF0oW0NIMl1bT0hdKVtDQEBIXShbT0hdKVtDQEhdNFtPSF0=

> <s_epik_cmdline>
J2VwaWtfcHl0aG9uJywgJy1waCcsICc3LjAnLCAnLXRuJywgJzgnLCAnLW1hJywgJzIwMCcsICctbWV0YWxfYmluZGluZycsICctaW1hZScsICc8aW5maWxlLm1hZT4nLCAnLW9tYWUnLCAnPG91dGZpbGUubWFlPic=

> <r_lp_tautomer_probability>
1

> <r_epik_Ionization_Penalty>
0.000793976

> <r_epik_Ionization_Penalty_Charging>
0

> <r_epik_Ionization_Penalty_Neutral>
0.000793976

> <r_epik_State_Penalty>
-0

> <r_epik_Charging_Adjusted_Penalty>
0

> <i_epik_Tot_Q>
0

> <i_epik_Tot_abs_Q>
0

> <r_epik_Metal_State_Penalty>
-0

> <b_epik_Metal_Only>
0

> <s_epik_Chemistry_Notes>
This compound contains an acetal/aminal-like group ( X-CH(R)-Y where X, Y are N, S, or O) that may be acid/base labile, releasing an aldehyde.

> <s_lp_Force_Field>
OPLS_2005

> <r_lp_Energy>
63.9822

> <b_lp_Chiralities_Consistent>
1

> <s_lp_Variant>
AV-unprocessed.smi:109-4

> <Gold.Version>
5.8.1

> <Gold.Id.Protein>
6NUR|6NUR_protein|mol2

> <Gold.PLP.Fitness>
47.6708

> <Gold.PLP.PLP>
-38.9129

> <Gold.PLP.part.hbond>
-6.0000

> <Gold.PLP.part.metal>
0.0000

> <Gold.PLP.part.buried>
-5.3406

> <Gold.PLP.part.nonpolar>
-30.1308

> <Gold.PLP.part.repulsive>
2.6826

> <Gold.PLP.ligand.clash>
0.0000

> <Gold.PLP.ligand.torsion>
1.6813

> <Gold.PLP.Chemscore.Hbond>
2.9760

> <Gold.PLP.Chemscore.CHOScore>
1.0000

> <Gold.PLP.Chemscore.Metal>
0.0000

> <Gold.Chemscore.Hbonds>
donor molecule, donor type, donor heavy atom, donor atom, acceptor molecule, acceptor atom, score
      L1  H     1    34       P1  7957  0.94
      P1  H  6933  6944       L1     7  0.01
      P1  H  7989  7998       L1     1  0.02
      P1  H  8011  8017       L1     1  0.23

> <Gold.PLP.Chemscore.Internal.Correction>
0.1926

> <Gold.Rescore>
     Score         DG    S(hbond)    S(metal)    S(lipo)     H(rot)  DE(clash)    DE(int)     intcor
      5.26      -8.43       1.95        0.00      89.05       5.47       1.04       2.13       ----

> <Gold.Chemscore.Fitness>
5.2626

> <Gold.Chemscore.DG>
-8.4336

> <Gold.Chemscore.ZeroCoef>
-5.4800

> <Gold.Chemscore.Hbond>
1.9544

> <Gold.Chemscore.Metal>
0.0000

> <Gold.Chemscore.Lipo>
89.0541

> <Gold.Chemscore.Internal_Hbond>
0.0000

> <Gold.Chemscore.DEClash>
1.0386

> <Gold.Chemscore.DEInternal>
2.1324

> <Gold.Chemscore.Rot>
5.4662

> <Gold.Chemscore.Internal.Correction>
   9.000000E+99

> <Gold.Chemscore.Hbonds>
donor molecule, donor type, donor heavy atom, donor atom, acceptor molecule, acceptor atom, score
      L1  H     1    34       P1  7957  0.90

> <Gold.Chemscore.Hbond.Weighted>
-6.5278

> <Gold.Chemscore.Metal.Weighted>
-0.0000

> <Gold.Chemscore.Lipo.Weighted>
-10.4193

> <Gold.Chemscore.Internal_Hbond.Weighted>
0.0000

> <Gold.Chemscore.DEClash.Weighted>
1.0386

> <Gold.Chemscore.DEInternal.Weighted>
2.1324

> <Gold.Chemscore.Rot.Weighted>
13.9935

> <Gold.Chemscore.Internal.Correction.Weighted>
   9.000000E+99

> <Gold.Protein.RotatedTorsions>
[ 6907 6896 6895 6894 ] final  -31.52 input  -60.11 | X-H torsion
[ 7974 7965 7964 7962 ] final   58.34 input  175.53 | X-H torsion
[ 8008 7997 7996 7995 ] final   27.56 input   59.86 | X-H torsion
[ 10167 10162 10161 10158 ] final  -46.95 input  -65.29 | X-H torsion
[ 10718 10713 10712 10709 ] final  -34.89 input   66.30 | X-H torsion
[ 10763 10752 10751 10750 ] final -179.62 input  -60.55 | X-H torsion
[ 11005 11000 10999 10996 ] final  -95.74 input  -57.11 | X-H torsion

> <Gold.Protein.ActiveResidues>
 VAL166  LYS551  ARG553  GLY616  TRP617  ASP618  TYR619  PRO620  LYS621  CYS622 
 ASP623  PHE694  ASN695  SER759  ASP760  ASP761  ALA762  ILE779  LEU786  VAL792 
 PHE793  MET794  SER795  GLU796  ALA797  LYS798  CYS799  TRP800  GLU811  SER814 

> <Gold.Protein.RotatedAtoms>
  151.0910  134.9916  159.8402 H   0  0  0  0  0  0  0  0  0  0  0  0  # atno 6907 bound_to 6896
  152.5429  134.2065  159.8743 H   0  0  0  0  0  0  0  0  0  0  0  0  # atno 6908 bound_to 6896
  151.2101  133.4516  159.2631 H   0  0  0  0  0  0  0  0  0  0  0  0  # atno 6909 bound_to 6896
  145.9192  139.3716  143.0488 H   0  0  0  0  0  0  0  0  0  0  0  0  # atno 7974 bound_to 7965
  155.0449  140.3173  155.4712 H   0  0  0  0  0  0  0  0  0  0  0  0  # atno 8008 bound_to 7997
  156.2847  140.2156  156.5517 H   0  0  0  0  0  0  0  0  0  0  0  0  # atno 8009 bound_to 7997
  154.7259  140.0485  157.0670 H   0  0  0  0  0  0  0  0  0  0  0  0  # atno 8010 bound_to 7997
  140.6796  143.2807  151.3856 H   0  0  0  0  0  0  0  0  0  0  0  0  # atno 10167 bound_to 10162
  156.3451  130.4299  149.7753 H   0  0  0  0  0  0  0  0  0  0  0  0  # atno 10718 bound_to 10713
  154.5327  135.2801  155.1166 H   0  0  0  0  0  0  0  0  0  0  0  0  # atno 10763 bound_to 10752
  154.2679  135.6309  153.5303 H   0  0  0  0  0  0  0  0  0  0  0  0  # atno 10764 bound_to 10752
  152.9960  135.5621  154.5845 H   0  0  0  0  0  0  0  0  0  0  0  0  # atno 10765 bound_to 10752
  141.1433  133.8047  157.0476 H   0  0  0  0  0  0  0  0  0  0  0  0  # atno 11005 bound_to 11000
  145.8571  140.9496  143.0719 LP  0  0  0  0  0  0  0  0  0  0  0  0  # atno 17320 bound_to 7965
  144.6751  140.0483  143.7479 LP  0  0  0  0  0  0  0  0  0  0  0  0  # atno 17321 bound_to 7965
  139.6109  144.1099  152.2298 LP  0  0  0  0  0  0  0  0  0  0  0  0  # atno 17342 bound_to 10162
  140.0513  144.5930  150.7333 LP  0  0  0  0  0  0  0  0  0  0  0  0  # atno 17343 bound_to 10162
  156.4975  130.8113  151.3119 LP  0  0  0  0  0  0  0  0  0  0  0  0  # atno 17370 bound_to 10713
  157.7453  130.9955  150.2748 LP  0  0  0  0  0  0  0  0  0  0  0  0  # atno 17371 bound_to 10713
  140.0652  134.9733  157.1374 LP  0  0  0  0  0  0  0  0  0  0  0  0  # atno 17394 bound_to 11000
  140.3790  134.2308  155.7172 LP  0  0  0  0  0  0  0  0  0  0  0  0  # atno 17395 bound_to 11000

$$$$
