AV-unprocessed.smi:73|AV-procd|sdf|762|dock10
  -GOLD-   2262017103D 1   1.00000     0.00000
 Structure written by MMmdl.
 35 36  0  0  0  0  0  0  0  0  2 V2000
  151.7736  139.1969  155.8371 C   0  0  0  0  0  0  0  0  0  0  0  0
  151.9148  140.6986  156.1326 C   0  0  0  0  0  0  0  0  0  0  0  0
  150.6942  141.3958  156.5870 N   0  0  0  0  0  0  0  0  0  0  0  0
  150.5395  141.1786  158.0368 C   0  0  0  0  0  0  0  0  0  0  0  0
  151.4237  142.0468  158.8757 C   0  0  0  0  0  0  0  0  0  0  0  0
  152.1921  143.0591  158.4656 N   0  0  0  0  0  0  0  0  0  0  0  0
  152.8134  143.5393  159.5970 N   0  0  0  0  0  0  0  0  0  0  0  0
  152.3711  142.7818  160.6036 C   0  0  0  0  0  0  0  0  0  0  0  0
  152.7324  142.8913  162.0453 C   0  0  0  0  0  0  0  0  0  0  0  0
  151.4902  141.8243  160.2138 O   0  0  0  0  0  0  0  0  0  0  0  0
  149.4737  140.9490  155.8764 C   0  0  1  0  0  0  0  0  0  0  0  0
  148.1716  141.6227  156.3974 C   0  0  0  0  0  0  0  0  0  0  0  0
  147.5073  142.2802  155.2616 N   0  3  0  0  0  0  0  0  0  0  0  0
  147.9665  141.5947  154.0552 C   0  0  0  0  0  0  0  0  0  0  0  0
  149.4211  141.2516  154.3593 C   0  0  2  0  0  0  0  0  0  0  0  0
  149.8068  140.1333  153.5861 O   0  0  0  0  0  0  0  0  0  0  0  0
  150.0224  142.1268  154.1147 H   0  0  0  0  0  0  0  0  0  0  0  0
  152.6186  138.8533  155.2400 H   0  0  0  0  0  0  0  0  0  0  0  0
  150.8680  138.9911  155.2657 H   0  0  0  0  0  0  0  0  0  0  0  0
  151.7640  138.5797  156.7318 H   0  0  0  0  0  0  0  0  0  0  0  0
  152.7331  140.8717  156.8327 H   0  0  0  0  0  0  0  0  0  0  0  0
  152.2594  141.1327  155.1941 H   0  0  0  0  0  0  0  0  0  0  0  0
  149.5227  141.3767  158.3688 H   0  0  0  0  0  0  0  0  0  0  0  0
  150.7328  140.1328  158.2810 H   0  0  0  0  0  0  0  0  0  0  0  0
  153.7703  143.2083  162.1505 H   0  0  0  0  0  0  0  0  0  0  0  0
  152.6096  141.9280  162.5413 H   0  0  0  0  0  0  0  0  0  0  0  0
  152.0899  143.6232  162.5350 H   0  0  0  0  0  0  0  0  0  0  0  0
  149.3586  139.8723  156.0161 H   0  0  0  0  0  0  0  0  0  0  0  0
  147.5028  140.8721  156.8198 H   0  0  0  0  0  0  0  0  0  0  0  0
  148.3434  142.3836  157.1587 H   0  0  0  0  0  0  0  0  0  0  0  0
  146.5014  142.2545  155.3488 H   0  0  0  0  0  0  0  0  0  0  0  0
  147.3684  140.6908  153.9267 H   0  0  0  0  0  0  0  0  0  0  0  0
  147.8501  142.2120  153.1638 H   0  0  0  0  0  0  0  0  0  0  0  0
  149.5838  140.3005  152.6825 H   0  0  0  0  0  0  0  0  0  0  0  0
  147.8256  143.2380  155.2208 H   0  0  0  0  0  0  0  0  0  0  0  0
  1  2  1  0  0  0  0
  1 18  1  0  0  0  0
  1 19  1  0  0  0  0
  1 20  1  0  0  0  0
  2  3  1  0  0  0  0
  2 21  1  0  0  0  0
  2 22  1  0  0  0  0
  3  4  1  0  0  0  0
  3 11  1  0  0  0  0
  4  5  1  0  0  0  0
  4 23  1  0  0  0  0
  4 24  1  0  0  0  0
  5 10  1  0  0  0  0
  5  6  2  0  0  0  0
  6  7  1  0  0  0  0
  7  8  2  0  0  0  0
  8  9  1  0  0  0  0
  8 10  1  0  0  0  0
  9 25  1  0  0  0  0
  9 26  1  0  0  0  0
  9 27  1  0  0  0  0
 11 15  1  0  0  0  0
 11 12  1  0  0  0  0
 11 28  1  0  0  0  0
 12 13  1  0  0  0  0
 12 29  1  0  0  0  0
 12 30  1  0  0  0  0
 13 14  1  0  0  0  0
 13 31  1  0  0  0  0
 13 35  1  0  0  0  0
 14 15  1  0  0  0  0
 14 32  1  0  0  0  0
 14 33  1  0  0  0  0
 15 17  1  0  0  0  0
 15 16  1  0  0  0  0
 16 34  1  0  0  0  0
M  CHG  1  13   1
M  END
> <s_m_source_file>
AV-unprocessed.smi

> <i_m_source_file_index>
73

> <i_lp_mmshare_version>
43012

> <i_f3d_flags>
0

> <s_epik_input>
W09IXVtDQEBIXTFbQ0gyXVtOSF1bQ0gyXVtDQEhdMU4oW0NIMl1bQ0gzXSlbQ0gyXWMybm5jKG8yKVtDSDNd

> <s_epik_cmdline>
J2VwaWtfcHl0aG9uJywgJy1waCcsICc3LjAnLCAnLXRuJywgJzgnLCAnLW1hJywgJzIwMCcsICctbWV0YWxfYmluZGluZycsICctaW1hZScsICc8aW5maWxlLm1hZT4nLCAnLW9tYWUnLCAnPG91dGZpbGUubWFlPic=

> <r_lp_tautomer_probability>
1

> <r_epik_Ionization_Penalty>
0.00160433

> <r_epik_Ionization_Penalty_Charging>
0.000122314

> <r_epik_Ionization_Penalty_Neutral>
0.00148202

> <r_epik_State_Penalty>
-0

> <r_epik_Charging_Adjusted_Penalty>
0.000122314

> <i_epik_Tot_Q>
1

> <i_epik_Tot_abs_Q>
1

> <r_epik_Metal_State_Penalty>
-0

> <b_epik_Metal_Only>
0

> <s_lp_Force_Field>
OPLS_2005

> <r_lp_Energy>
41.961

> <b_lp_Chiralities_Consistent>
1

> <s_lp_Variant>
AV-unprocessed.smi:73-4

> <Gold.Version>
5.8.1

> <Gold.Id.Protein>
6NUR|6NUR_protein|mol2

> <Gold.PLP.Fitness>
39.6849

> <Gold.PLP.PLP>
-31.0023

> <Gold.PLP.part.hbond>
-3.6665

> <Gold.PLP.part.metal>
0.0000

> <Gold.PLP.part.buried>
-4.7200

> <Gold.PLP.part.nonpolar>
-21.6708

> <Gold.PLP.part.repulsive>
0.1630

> <Gold.PLP.ligand.clash>
0.0000

> <Gold.PLP.ligand.torsion>
0.5011

> <Gold.PLP.Chemscore.Hbond>
3.2228

> <Gold.PLP.Chemscore.CHOScore>
0.0000

> <Gold.PLP.Chemscore.Metal>
0.0000

> <Gold.Chemscore.Hbonds>
donor molecule, donor type, donor heavy atom, donor atom, acceptor molecule, acceptor atom, score
      L1  H    13    35       P1  8028  2.00
      L1  H    16    34       P1  7957  1.00
      P1  H  7989  7998       L1    16  0.22

> <Gold.PLP.Chemscore.Internal.Correction>
0.0164

> <Gold.Rescore>
     Score         DG    S(hbond)    S(metal)    S(lipo)     H(rot)  DE(clash)    DE(int)     intcor
     11.20     -11.57       1.90        0.00      52.60       2.51       0.12       0.25       ----

> <Gold.Chemscore.Fitness>
11.1977

> <Gold.Chemscore.DG>
-11.5709

> <Gold.Chemscore.ZeroCoef>
-5.4800

> <Gold.Chemscore.Hbond>
1.9011

> <Gold.Chemscore.Metal>
0.0000

> <Gold.Chemscore.Lipo>
52.6010

> <Gold.Chemscore.Internal_Hbond>
0.0000

> <Gold.Chemscore.DEClash>
0.1230

> <Gold.Chemscore.DEInternal>
0.2501

> <Gold.Chemscore.Rot>
2.5051

> <Gold.Chemscore.Internal.Correction>
   9.000000E+99

> <Gold.Chemscore.Hbonds>
donor molecule, donor type, donor heavy atom, donor atom, acceptor molecule, acceptor atom, score
      L1  H    13    35       P1  8028  0.60
      L1  H    16    34       P1  7957  0.93

> <Gold.Chemscore.Hbond.Weighted>
-6.3497

> <Gold.Chemscore.Metal.Weighted>
-0.0000

> <Gold.Chemscore.Lipo.Weighted>
-6.1543

> <Gold.Chemscore.Internal_Hbond.Weighted>
0.0000

> <Gold.Chemscore.DEClash.Weighted>
0.1230

> <Gold.Chemscore.DEInternal.Weighted>
0.2501

> <Gold.Chemscore.Rot.Weighted>
6.4131

> <Gold.Chemscore.Internal.Correction.Weighted>
   9.000000E+99

> <Gold.Protein.RotatedTorsions>
[ 6907 6896 6895 6894 ] final  128.63 input  -60.11 | X-H torsion
[ 7974 7965 7964 7962 ] final -168.95 input  175.53 | X-H torsion
[ 8008 7997 7996 7995 ] final   97.05 input   59.86 | X-H torsion
[ 10167 10162 10161 10158 ] final -126.90 input  -65.29 | X-H torsion
[ 10718 10713 10712 10709 ] final -117.58 input   66.30 | X-H torsion
[ 10763 10752 10751 10750 ] final  113.28 input  -60.55 | X-H torsion
[ 11005 11000 10999 10996 ] final   48.85 input  -57.11 | X-H torsion

> <Gold.Protein.ActiveResidues>
 VAL166  LYS551  ARG553  GLY616  TRP617  ASP618  TYR619  PRO620  LYS621  CYS622 
 ASP623  PHE694  ASN695  SER759  ASP760  ASP761  ALA762  ILE779  LEU786  VAL792 
 PHE793  MET794  SER795  GLU796  ALA797  LYS798  CYS799  TRP800  GLU811  SER814 

> <Gold.Protein.RotatedAtoms>
  152.3701  133.6408  159.6080 H   0  0  0  0  0  0  0  0  0  0  0  0  # atno 6907 bound_to 6896
  150.7663  133.9283  159.3428 H   0  0  0  0  0  0  0  0  0  0  0  0  # atno 6908 bound_to 6896
  151.7107  135.0914  160.0318 H   0  0  0  0  0  0  0  0  0  0  0  0  # atno 6909 bound_to 6896
  144.7194  140.2294  143.6306 H   0  0  0  0  0  0  0  0  0  0  0  0  # atno 7974 bound_to 7965
  156.0861  140.3264  155.7755 H   0  0  0  0  0  0  0  0  0  0  0  0  # atno 8008 bound_to 7997
  155.5074  140.0574  157.2946 H   0  0  0  0  0  0  0  0  0  0  0  0  # atno 8009 bound_to 7997
  154.4610  140.1966  156.0262 H   0  0  0  0  0  0  0  0  0  0  0  0  # atno 8010 bound_to 7997
  139.9666  143.5891  152.2427 H   0  0  0  0  0  0  0  0  0  0  0  0  # atno 10167 bound_to 10162
  156.1044  130.6198  150.9182 H   0  0  0  0  0  0  0  0  0  0  0  0  # atno 10718 bound_to 10713
  153.4902  135.3660  155.2487 H   0  0  0  0  0  0  0  0  0  0  0  0  # atno 10763 bound_to 10752
  154.8752  135.3975  154.3598 H   0  0  0  0  0  0  0  0  0  0  0  0  # atno 10764 bound_to 10752
  153.4216  135.7080  153.6356 H   0  0  0  0  0  0  0  0  0  0  0  0  # atno 10765 bound_to 10752
  140.1154  134.4899  155.8641 H   0  0  0  0  0  0  0  0  0  0  0  0  # atno 11005 bound_to 11000
  145.8425  139.2136  143.1819 LP  0  0  0  0  0  0  0  0  0  0  0  0  # atno 17320 bound_to 7965
  146.0334  140.8236  142.9865 LP  0  0  0  0  0  0  0  0  0  0  0  0  # atno 17321 bound_to 7965
  139.6513  144.7661  151.2142 LP  0  0  0  0  0  0  0  0  0  0  0  0  # atno 17342 bound_to 10162
  140.7536  143.6156  150.8562 LP  0  0  0  0  0  0  0  0  0  0  0  0  # atno 17343 bound_to 10162
  157.6218  131.0929  150.8607 LP  0  0  0  0  0  0  0  0  0  0  0  0  # atno 17370 bound_to 10713
  156.8729  130.5152  149.5295 LP  0  0  0  0  0  0  0  0  0  0  0  0  # atno 17371 bound_to 10713
  141.2140  133.6742  156.6787 LP  0  0  0  0  0  0  0  0  0  0  0  0  # atno 17394 bound_to 11000
  140.3035  134.8144  157.4117 LP  0  0  0  0  0  0  0  0  0  0  0  0  # atno 17395 bound_to 11000

$$$$
