AV-unprocessed.smi:287|AV-procd|sdf|2195|dock2
  -GOLD-   2262021593D 1   1.00000     0.00000
 Structure written by MMmdl.
 55 58  0  0  0  0  0  0  0  0  1 V2000
  132.6920  140.7448  152.4278 C   0  0  0  0  0  0  0  0  0  0  0  0
  133.5270  139.7783  153.1955 C   0  0  0  0  0  0  0  0  0  0  0  0
  134.7811  139.8316  153.7304 C   0  0  0  0  0  0  0  0  0  0  0  0
  135.0353  138.5699  154.3478 C   0  0  0  0  0  0  0  0  0  0  0  0
  136.3044  138.1592  155.0830 C   0  0  1  0  0  0  0  0  0  0  0  0
  136.5255  139.0874  156.2883 C   0  0  0  0  0  0  0  0  0  0  0  0
  136.2221  136.8528  155.6199 O   0  0  0  0  0  0  0  0  0  0  0  0
  137.5544  138.1652  154.1727 C   0  0  0  0  0  0  0  0  0  0  0  0
  138.4860  137.0878  154.4811 N   0  0  0  0  0  0  0  0  0  0  0  0
  139.7887  137.1758  154.1403 C   0  0  0  0  0  0  0  0  0  0  0  0
  140.3031  138.4275  154.1387 N   0  0  0  0  0  0  0  0  0  0  0  0
  141.5836  138.6240  153.8198 C   0  0  0  0  0  0  0  0  0  0  0  0
  142.5032  137.7214  153.4796 N   0  0  0  0  0  0  0  0  0  0  0  0
  142.0008  136.4523  153.4720 C   0  0  0  0  0  0  0  0  0  0  0  0
  140.6550  136.0979  153.7874 C   0  0  0  0  0  0  0  0  0  0  0  0
  140.5016  134.7231  153.6634 N   0  0  0  0  0  0  0  0  0  0  0  0
  141.6788  134.2984  153.2988 C   0  0  0  0  0  0  0  0  0  0  0  0
  142.6510  135.2646  153.1718 N   0  0  0  0  0  0  0  0  0  0  0  0
  144.0716  135.0235  152.7345 C   0  0  1  0  0  0  0  0  0  0  0  0
  144.2497  133.6554  152.5554 O   0  0  0  0  0  0  0  0  0  0  0  0
  144.0533  133.3208  151.1893 C   0  0  2  0  0  0  0  0  0  0  0  0
  144.7718  132.0006  150.8718 C   0  0  0  0  0  0  0  0  0  0  0  0
  144.4295  131.5631  149.5740 O   0  0  0  0  0  0  0  0  0  0  0  0
  144.6452  134.5316  150.4500 C   0  0  1  0  0  0  0  0  0  0  0  0
  143.9565  134.7503  149.2352 O   0  0  0  0  0  0  0  0  0  0  0  0
  144.4456  135.7101  151.4091 C   0  0  2  0  0  0  0  0  0  0  0  0
  145.6488  136.4411  151.5358 O   0  0  0  0  0  0  0  0  0  0  0  0
  133.8832  137.8474  154.1534 C   0  0  0  0  0  0  0  0  0  0  0  0
  133.4435  136.4771  154.5512 C   0  0  0  0  0  0  0  0  0  0  0  0
  132.9667  138.5689  153.4498 O   0  0  0  0  0  0  0  0  0  0  0  0
  144.6648  135.3713  153.5815 H   0  0  0  0  0  0  0  0  0  0  0  0
  142.9859  133.2302  150.9877 H   0  0  0  0  0  0  0  0  0  0  0  0
  145.7056  134.3684  150.2496 H   0  0  0  0  0  0  0  0  0  0  0  0
  143.6639  136.4012  151.0957 H   0  0  0  0  0  0  0  0  0  0  0  0
  133.2770  141.6168  152.1349 H   0  0  0  0  0  0  0  0  0  0  0  0
  131.8495  141.0886  153.0279 H   0  0  0  0  0  0  0  0  0  0  0  0
  132.2982  140.2834  151.5220 H   0  0  0  0  0  0  0  0  0  0  0  0
  135.4472  140.6801  153.6780 H   0  0  0  0  0  0  0  0  0  0  0  0
  136.6341  140.1253  155.9716 H   0  0  0  0  0  0  0  0  0  0  0  0
  137.4258  138.8180  156.8416 H   0  0  0  0  0  0  0  0  0  0  0  0
  135.6851  139.0434  156.9827 H   0  0  0  0  0  0  0  0  0  0  0  0
  136.1830  136.9177  156.5619 H   0  0  0  0  0  0  0  0  0  0  0  0
  137.2284  138.0310  153.1405 H   0  0  0  0  0  0  0  0  0  0  0  0
  138.0643  139.1284  154.2218 H   0  0  0  0  0  0  0  0  0  0  0  0
  138.0690  136.2458  154.8515 H   0  0  0  0  0  0  0  0  0  0  0  0
  141.9203  139.6499  153.8419 H   0  0  0  0  0  0  0  0  0  0  0  0
  141.8719  133.2526  153.1085 H   0  0  0  0  0  0  0  0  0  0  0  0
  145.8520  132.1483  150.8924 H   0  0  0  0  0  0  0  0  0  0  0  0
  144.5347  131.2316  151.6076 H   0  0  0  0  0  0  0  0  0  0  0  0
  144.5503  132.2812  148.9720 H   0  0  0  0  0  0  0  0  0  0  0  0
  144.5693  134.6549  148.5220 H   0  0  0  0  0  0  0  0  0  0  0  0
  145.4540  137.2700  151.9458 H   0  0  0  0  0  0  0  0  0  0  0  0
  133.6239  136.3063  155.6126 H   0  0  0  0  0  0  0  0  0  0  0  0
  133.9881  135.7191  153.9883 H   0  0  0  0  0  0  0  0  0  0  0  0
  132.3786  136.3339  154.3657 H   0  0  0  0  0  0  0  0  0  0  0  0
  1  2  1  0  0  0  0
  1 35  1  0  0  0  0
  1 36  1  0  0  0  0
  1 37  1  0  0  0  0
  2 30  1  0  0  0  0
  2  3  2  0  0  0  0
  3  4  1  0  0  0  0
  3 38  1  0  0  0  0
  4  5  1  0  0  0  0
  4 28  2  0  0  0  0
  5  6  1  0  0  0  0
  5  7  1  0  0  0  0
  5  8  1  0  0  0  0
  6 39  1  0  0  0  0
  6 40  1  0  0  0  0
  6 41  1  0  0  0  0
  7 42  1  0  0  0  0
  8  9  1  0  0  0  0
  8 43  1  0  0  0  0
  8 44  1  0  0  0  0
  9 10  1  0  0  0  0
  9 45  1  0  0  0  0
 10 15  1  0  0  0  0
 10 11  2  0  0  0  0
 11 12  1  0  0  0  0
 12 13  2  0  0  0  0
 12 46  1  0  0  0  0
 13 14  1  0  0  0  0
 14 18  1  0  0  0  0
 14 15  2  0  0  0  0
 15 16  1  0  0  0  0
 16 17  2  0  0  0  0
 17 18  1  0  0  0  0
 17 47  1  0  0  0  0
 18 19  1  0  0  0  0
 19 31  1  0  0  0  0
 19 26  1  0  0  0  0
 19 20  1  0  0  0  0
 20 21  1  0  0  0  0
 21 32  1  0  0  0  0
 21 22  1  0  0  0  0
 21 24  1  0  0  0  0
 22 23  1  0  0  0  0
 22 48  1  0  0  0  0
 22 49  1  0  0  0  0
 23 50  1  0  0  0  0
 24 33  1  0  0  0  0
 24 25  1  0  0  0  0
 24 26  1  0  0  0  0
 25 51  1  0  0  0  0
 26 34  1  0  0  0  0
 26 27  1  0  0  0  0
 27 52  1  0  0  0  0
 28 29  1  0  0  0  0
 28 30  1  0  0  0  0
 29 53  1  0  0  0  0
 29 54  1  0  0  0  0
 29 55  1  0  0  0  0
M  END
> <s_m_source_file>
AV-unprocessed.smi

> <i_m_source_file_index>
287

> <i_lp_mmshare_version>
43012

> <i_f3d_flags>
0

> <s_epik_input>
W0NIM11jMVtjSF1jKGMobzEpW0NIM10pW0NAQF0oW0NIM10pKFtPSF0pW0NIMl1bTkhdYyhuW2NIXW4yKWMoYzIzKW5bY0hdbjNbQ0BASF00T1tDQEhdKFtDSDJdW09IXSlbQ0BASF0oW09IXSlbQ0BIXTRbT0hd

> <s_epik_cmdline>
J2VwaWtfcHl0aG9uJywgJy1waCcsICc3LjAnLCAnLXRuJywgJzgnLCAnLW1hJywgJzIwMCcsICctbWV0YWxfYmluZGluZycsICctaW1hZScsICc8aW5maWxlLm1hZT4nLCAnLW9tYWUnLCAnPG91dGZpbGUubWFlPic=

> <r_lp_tautomer_probability>
1

> <r_epik_Ionization_Penalty>
0.000992612

> <r_epik_Ionization_Penalty_Charging>
0

> <r_epik_Ionization_Penalty_Neutral>
0.000992612

> <r_epik_State_Penalty>
-0

> <r_epik_Charging_Adjusted_Penalty>
0

> <i_epik_Tot_Q>
0

> <i_epik_Tot_abs_Q>
0

> <r_epik_Metal_State_Penalty>
-0

> <b_epik_Metal_Only>
0

> <s_epik_Chemistry_Notes>
This compound contains an acetal/aminal-like group ( X-CH(R)-Y where X, Y are N, S, or O) that may be acid/base labile, releasing an aldehyde.

> <s_lp_Force_Field>
OPLS_2005

> <r_lp_Energy>
36.8397

> <b_lp_Chiralities_Consistent>
1

> <s_lp_Variant>
AV-unprocessed.smi:287-19

> <Gold.Version>
5.8.1

> <Gold.Id.Protein>
6NUR|6NUR_protein|mol2

> <Gold.PLP.Fitness>
56.7156

> <Gold.PLP.PLP>
-47.1347

> <Gold.PLP.part.hbond>
-5.5032

> <Gold.PLP.part.metal>
0.0000

> <Gold.PLP.part.buried>
-6.2289

> <Gold.PLP.part.nonpolar>
-36.0722

> <Gold.PLP.part.repulsive>
0.8989

> <Gold.PLP.ligand.clash>
0.0000

> <Gold.PLP.ligand.torsion>
1.2077

> <Gold.PLP.Chemscore.Hbond>
2.2215

> <Gold.PLP.Chemscore.CHOScore>
1.7135

> <Gold.PLP.Chemscore.Metal>
0.0000

> <Gold.Chemscore.Hbonds>
donor molecule, donor type, donor heavy atom, donor atom, acceptor molecule, acceptor atom, score
      L1  H    25    51       P1  7921  1.00
      P1  H 10785 10796       L1    23  0.47
      P1  H 10995 11001       L1    16  0.05
      P1  H 11000 11005       L1    16  0.78
      L1  C    12    46       P1 10175  0.87
      L1  C    17    47       P1 10957  0.87

> <Gold.PLP.Chemscore.Internal.Correction>
0.1912

> <Gold.Rescore>
     Score         DG    S(hbond)    S(metal)    S(lipo)     H(rot)  DE(clash)    DE(int)     intcor
      4.40      -6.78       1.53        0.00      82.69       5.27       0.13       2.25       ----

> <Gold.Chemscore.Fitness>
4.4030

> <Gold.Chemscore.DG>
-6.7778

> <Gold.Chemscore.ZeroCoef>
-5.4800

> <Gold.Chemscore.Hbond>
1.5291

> <Gold.Chemscore.Metal>
0.0000

> <Gold.Chemscore.Lipo>
82.6884

> <Gold.Chemscore.Internal_Hbond>
0.0000

> <Gold.Chemscore.DEClash>
0.1270

> <Gold.Chemscore.DEInternal>
2.2479

> <Gold.Chemscore.Rot>
5.2672

> <Gold.Chemscore.Internal.Correction>
   9.000000E+99

> <Gold.Chemscore.Hbonds>
donor molecule, donor type, donor heavy atom, donor atom, acceptor molecule, acceptor atom, score
      L1  H    25    51       P1  7921  0.99
      P1  H 10785 10796       L1    23  0.33
      P1  H 10995 11001       L1    16  0.04
      P1  H 11000 11005       L1    16  0.08

> <Gold.Chemscore.Hbond.Weighted>
-5.1072

> <Gold.Chemscore.Metal.Weighted>
-0.0000

> <Gold.Chemscore.Lipo.Weighted>
-9.6745

> <Gold.Chemscore.Internal_Hbond.Weighted>
0.0000

> <Gold.Chemscore.DEClash.Weighted>
0.1270

> <Gold.Chemscore.DEInternal.Weighted>
2.2479

> <Gold.Chemscore.Rot.Weighted>
13.4839

> <Gold.Chemscore.Internal.Correction.Weighted>
   9.000000E+99

> <Gold.Protein.RotatedTorsions>
[ 6907 6896 6895 6894 ] final -129.59 input  -60.11 | X-H torsion
[ 7974 7965 7964 7962 ] final    5.93 input  175.53 | X-H torsion
[ 8008 7997 7996 7995 ] final -164.09 input   59.86 | X-H torsion
[ 10167 10162 10161 10158 ] final  -42.48 input  -65.29 | X-H torsion
[ 10718 10713 10712 10709 ] final    0.02 input   66.30 | X-H torsion
[ 10763 10752 10751 10750 ] final   86.84 input  -60.55 | X-H torsion
[ 11005 11000 10999 10996 ] final   16.67 input  -57.11 | X-H torsion

> <Gold.Protein.ActiveResidues>
 VAL166  LYS551  ARG553  GLY616  TRP617  ASP618  TYR619  PRO620  LYS621  CYS622 
 ASP623  PHE694  ASN695  SER759  ASP760  ASP761  ALA762  ILE779  LEU786  VAL792 
 PHE793  MET794  SER795  GLU796  ALA797  LYS798  CYS799  TRP800  GLU811  SER814 

> <Gold.Protein.RotatedAtoms>
  150.9303  133.6774  159.2811 H   0  0  0  0  0  0  0  0  0  0  0  0  # atno 6907 bound_to 6896
  151.4198  135.0995  159.9620 H   0  0  0  0  0  0  0  0  0  0  0  0  # atno 6908 bound_to 6896
  152.5023  133.8758  159.7376 H   0  0  0  0  0  0  0  0  0  0  0  0  # atno 6909 bound_to 6896
  146.2438  140.0309  142.8390 H   0  0  0  0  0  0  0  0  0  0  0  0  # atno 7974 bound_to 7965
  155.8307  140.0933  157.1794 H   0  0  0  0  0  0  0  0  0  0  0  0  # atno 8008 bound_to 7997
  154.3980  140.1419  156.3671 H   0  0  0  0  0  0  0  0  0  0  0  0  # atno 8009 bound_to 7997
  155.8169  140.3447  155.5493 H   0  0  0  0  0  0  0  0  0  0  0  0  # atno 8010 bound_to 7997
  140.6968  143.3035  151.3215 H   0  0  0  0  0  0  0  0  0  0  0  0  # atno 10167 bound_to 10162
  156.8273  130.5476  149.5690 H   0  0  0  0  0  0  0  0  0  0  0  0  # atno 10718 bound_to 10713
  153.1609  135.4565  154.9771 H   0  0  0  0  0  0  0  0  0  0  0  0  # atno 10763 bound_to 10752
  154.7897  135.3216  154.7808 H   0  0  0  0  0  0  0  0  0  0  0  0  # atno 10764 bound_to 10752
  153.8298  135.6939  153.4870 H   0  0  0  0  0  0  0  0  0  0  0  0  # atno 10765 bound_to 10752
  140.4445  134.1287  155.7694 H   0  0  0  0  0  0  0  0  0  0  0  0  # atno 11005 bound_to 11000
  145.1155  140.9431  143.4631 LP  0  0  0  0  0  0  0  0  0  0  0  0  # atno 17320 bound_to 7965
  145.0533  139.3164  143.5917 LP  0  0  0  0  0  0  0  0  0  0  0  0  # atno 17321 bound_to 7965
  139.6433  144.0499  152.2571 LP  0  0  0  0  0  0  0  0  0  0  0  0  # atno 17342 bound_to 10162
  140.0011  144.6292  150.7729 LP  0  0  0  0  0  0  0  0  0  0  0  0  # atno 17343 bound_to 10162
  156.0954  130.5928  150.9805 LP  0  0  0  0  0  0  0  0  0  0  0  0  # atno 17370 bound_to 10713
  157.6425  131.0908  150.8221 LP  0  0  0  0  0  0  0  0  0  0  0  0  # atno 17371 bound_to 10713
  141.1691  133.8645  157.1626 LP  0  0  0  0  0  0  0  0  0  0  0  0  # atno 17394 bound_to 11000
  140.0047  135.0013  157.0267 LP  0  0  0  0  0  0  0  0  0  0  0  0  # atno 17395 bound_to 11000

$$$$
