AV-unprocessed.smi:2424|AV-procd|sdf|9568|dock8
  -GOLD-   2272013203D 1   1.00000     0.00000
 Structure written by MMmdl.
 49 50  0  0  0  0  0  0  0  0  2 V2000
  148.1381  140.2124  157.3007 C   0  0  0  0  0  0  0  0  0  0  0  0
  149.4989  139.9937  156.6210 C   0  0  0  0  0  0  0  0  0  0  0  0
  149.4416  139.6780  155.1085 C   0  0  0  0  0  0  0  0  0  0  0  0
  150.8608  139.2824  154.6213 C   0  0  0  0  0  0  0  0  0  0  0  0
  151.5050  138.1007  155.3650 C   0  0  0  0  0  0  0  0  0  0  0  0
  148.2762  138.7431  154.6846 C   0  0  2  0  0  0  0  0  0  0  0  0
  148.6804  137.3748  154.3716 N   0  0  0  0  0  0  0  0  0  0  0  0
  148.9987  136.4366  155.2730 C   0  0  0  0  0  0  0  0  0  0  0  0
  148.9592  136.6248  156.4884 O   0  0  0  0  0  0  0  0  0  0  0  0
  149.3574  135.2932  154.6631 N   0  0  0  0  0  0  0  0  0  0  0  0
  149.7984  134.0953  155.2394 C   0  0  0  0  0  0  0  0  0  0  0  0
  150.2958  134.0837  156.5267 C   0  0  0  0  0  0  0  0  0  0  0  0
  150.7623  133.0401  157.2460 N   0  5  0  0  0  0  0  0  0  0  0  0
  150.7595  131.8066  156.6641 C   0  0  0  0  0  0  0  0  0  0  0  0
  151.1726  130.8104  157.2566 O   0  0  0  0  0  0  0  0  0  0  0  0
  150.2443  131.6700  155.2867 C   0  0  0  0  0  0  0  0  0  0  0  0
  150.2340  130.2930  154.6450 C   0  0  0  0  0  0  0  0  0  0  0  0
  149.7925  132.7666  154.6279 C   0  0  0  0  0  0  0  0  0  0  0  0
  148.0713  139.5891  153.4249 C   0  0  1  0  0  0  0  0  0  0  0  0
  146.6736  139.7609  152.8437 C   0  0  0  0  0  0  0  0  0  0  0  0
  148.7312  140.7342  154.2094 C   0  0  1  0  0  0  0  0  0  0  0  0
  147.7463  141.5082  154.8849 O   0  0  0  0  0  0  0  0  0  0  0  0
  147.1285  142.4709  154.0474 C   0  0  0  0  0  0  0  0  0  0  0  0
  148.2770  140.5223  158.3366 H   0  0  0  0  0  0  0  0  0  0  0  0
  147.5363  139.3045  157.3165 H   0  0  0  0  0  0  0  0  0  0  0  0
  147.5637  140.9926  156.8036 H   0  0  0  0  0  0  0  0  0  0  0  0
  150.0764  140.9044  156.7807 H   0  0  0  0  0  0  0  0  0  0  0  0
  150.0469  139.2223  157.1603 H   0  0  0  0  0  0  0  0  0  0  0  0
  150.8596  139.0703  153.5526 H   0  0  0  0  0  0  0  0  0  0  0  0
  151.5382  140.1297  154.7267 H   0  0  0  0  0  0  0  0  0  0  0  0
  152.5390  137.9689  155.0459 H   0  0  0  0  0  0  0  0  0  0  0  0
  150.9883  137.1629  155.1632 H   0  0  0  0  0  0  0  0  0  0  0  0
  151.5129  138.2576  156.4434 H   0  0  0  0  0  0  0  0  0  0  0  0
  147.4171  138.8207  155.3556 H   0  0  0  0  0  0  0  0  0  0  0  0
  148.7363  137.1296  153.3942 H   0  0  0  0  0  0  0  0  0  0  0  0
  149.3120  135.2864  153.6547 H   0  0  0  0  0  0  0  0  0  0  0  0
  150.3277  135.0603  157.0567 H   0  0  0  0  0  0  0  0  0  0  0  0
  149.8241  130.3267  153.6352 H   0  0  0  0  0  0  0  0  0  0  0  0
  149.6269  129.6032  155.2320 H   0  0  0  0  0  0  0  0  0  0  0  0
  151.2471  129.8943  154.5840 H   0  0  0  0  0  0  0  0  0  0  0  0
  149.4163  132.6271  153.6276 H   0  0  0  0  0  0  0  0  0  0  0  0
  148.7593  139.2661  152.6411 H   0  0  0  0  0  0  0  0  0  0  0  0
  145.9488  140.0316  153.6119 H   0  0  0  0  0  0  0  0  0  0  0  0
  146.3267  138.8374  152.3797 H   0  0  0  0  0  0  0  0  0  0  0  0
  146.6565  140.5406  152.0822 H   0  0  0  0  0  0  0  0  0  0  0  0
  149.3921  141.3308  153.5783 H   0  0  0  0  0  0  0  0  0  0  0  0
  146.4212  143.0617  154.6291 H   0  0  0  0  0  0  0  0  0  0  0  0
  146.5777  141.9876  153.2396 H   0  0  0  0  0  0  0  0  0  0  0  0
  147.8576  143.1527  153.6099 H   0  0  0  0  0  0  0  0  0  0  0  0
  1  2  1  0  0  0  0
  1 24  1  0  0  0  0
  1 25  1  0  0  0  0
  1 26  1  0  0  0  0
  2  3  1  0  0  0  0
  2 27  1  0  0  0  0
  2 28  1  0  0  0  0
  3 21  1  0  0  0  0
  3  4  1  0  0  0  0
  3  6  1  0  0  0  0
  4  5  1  0  0  0  0
  4 29  1  0  0  0  0
  4 30  1  0  0  0  0
  5 31  1  0  0  0  0
  5 32  1  0  0  0  0
  5 33  1  0  0  0  0
  6  7  1  0  0  0  0
  6 19  1  0  0  0  0
  6 34  1  0  0  0  0
  7  8  1  0  0  0  0
  7 35  1  0  0  0  0
  8  9  2  0  0  0  0
  8 10  1  0  0  0  0
 10 11  1  0  0  0  0
 10 36  1  0  0  0  0
 11 18  1  0  0  0  0
 11 12  2  0  0  0  0
 12 13  1  0  0  0  0
 12 37  1  0  0  0  0
 13 14  1  0  0  0  0
 14 15  2  0  0  0  0
 14 16  1  0  0  0  0
 16 17  1  0  0  0  0
 16 18  2  0  0  0  0
 17 38  1  0  0  0  0
 17 39  1  0  0  0  0
 17 40  1  0  0  0  0
 18 41  1  0  0  0  0
 19 20  1  0  0  0  0
 19 21  1  0  0  0  0
 19 42  1  0  0  0  0
 20 43  1  0  0  0  0
 20 44  1  0  0  0  0
 20 45  1  0  0  0  0
 21 22  1  0  0  0  0
 21 46  1  0  0  0  0
 22 23  1  0  0  0  0
 23 47  1  0  0  0  0
 23 48  1  0  0  0  0
 23 49  1  0  0  0  0
M  CHG  1  13  -1
M  END
> <s_m_source_file>
AV-unprocessed.smi

> <i_m_source_file_index>
2424

> <i_lp_mmshare_version>
43012

> <i_f3d_flags>
0

> <s_epik_input>
W0NIM11PW0NAQEhdMVtDQEhdKFtDSDNdKVtDQEBIXShDMShbQ0gyXVtDSDNdKVtDSDJdW0NIM10pW05IXUMoPU8pW05IXWMyW2NIXVtuSF1jKD1PKWMoW0NIM10pW2NIXTI=

> <s_epik_cmdline>
J2VwaWtfcHl0aG9uJywgJy1waCcsICc3LjAnLCAnLXRuJywgJzgnLCAnLW1hJywgJzIwMCcsICctbWV0YWxfYmluZGluZycsICctaW1hZScsICc8aW5maWxlLm1hZT4nLCAnLW9tYWUnLCAnPG91dGZpbGUubWFlPic=

> <r_lp_tautomer_probability>
1

> <r_epik_Ionization_Penalty>
7.6122

> <r_epik_Ionization_Penalty_Charging>
1.53843

> <r_epik_Ionization_Penalty_Neutral>
6.07377

> <r_epik_State_Penalty>
6.07371

> <r_epik_Charging_Adjusted_Penalty>
7.61214

> <i_epik_Tot_Q>
-1

> <i_epik_Tot_abs_Q>
1

> <r_epik_Metal_State_Penalty>
2.02136

> <b_epik_Metal_Only>
1

> <s_lp_Force_Field>
OPLS_2005

> <r_lp_Energy>
41.6495

> <b_lp_Chiralities_Consistent>
1

> <s_lp_Variant>
AV-unprocessed.smi:2424-10

> <Gold.Version>
5.8.1

> <Gold.Id.Protein>
6NUR|6NUR_protein|mol2

> <Gold.PLP.Fitness>
43.3974

> <Gold.PLP.PLP>
-31.7042

> <Gold.PLP.part.hbond>
-3.0000

> <Gold.PLP.part.metal>
0.0000

> <Gold.PLP.part.buried>
-0.0216

> <Gold.PLP.part.nonpolar>
-29.8891

> <Gold.PLP.part.repulsive>
0.1597

> <Gold.PLP.ligand.clash>
0.0005

> <Gold.PLP.ligand.torsion>
0.5083

> <Gold.PLP.Chemscore.Hbond>
4.0000

> <Gold.PLP.Chemscore.CHOScore>
0.0000

> <Gold.PLP.Chemscore.Metal>
0.0000

> <Gold.Chemscore.Hbonds>
donor molecule, donor type, donor heavy atom, donor atom, acceptor molecule, acceptor atom, score
      L1  H     7    35       P1  7948  1.00
      L1  H    10    36       P1  7948  1.00
      P1  H  6896  6907       L1    13  2.00

> <Gold.PLP.Chemscore.Internal.Correction>
0.7103

> <Gold.Rescore>
     Score         DG    S(hbond)    S(metal)    S(lipo)     H(rot)  DE(clash)    DE(int)     intcor
     13.42     -19.53       2.48        0.00      82.60       1.52       1.92       4.19       ----

> <Gold.Chemscore.Fitness>
13.4241

> <Gold.Chemscore.DG>
-19.5328

> <Gold.Chemscore.ZeroCoef>
-5.4800

> <Gold.Chemscore.Hbond>
2.4792

> <Gold.Chemscore.Metal>
0.0000

> <Gold.Chemscore.Lipo>
82.6034

> <Gold.Chemscore.Internal_Hbond>
0.0000

> <Gold.Chemscore.DEClash>
1.9234

> <Gold.Chemscore.DEInternal>
4.1852

> <Gold.Chemscore.Rot>
1.5204

> <Gold.Chemscore.Internal.Correction>
   9.000000E+99

> <Gold.Chemscore.Hbonds>
donor molecule, donor type, donor heavy atom, donor atom, acceptor molecule, acceptor atom, score
      L1  H     7    35       P1  7948  1.00
      L1  H    10    36       P1  7948  0.23
      P1  H  6896  6907       L1    13  0.76

> <Gold.Chemscore.Hbond.Weighted>
-8.2804

> <Gold.Chemscore.Metal.Weighted>
-0.0000

> <Gold.Chemscore.Lipo.Weighted>
-9.6646

> <Gold.Chemscore.Internal_Hbond.Weighted>
0.0000

> <Gold.Chemscore.DEClash.Weighted>
1.9234

> <Gold.Chemscore.DEInternal.Weighted>
4.1852

> <Gold.Chemscore.Rot.Weighted>
3.8922

> <Gold.Chemscore.Internal.Correction.Weighted>
   9.000000E+99

> <Gold.Protein.RotatedTorsions>
[ 6907 6896 6895 6894 ] final -144.89 input  -60.11 | X-H torsion
[ 7974 7965 7964 7962 ] final  -21.87 input  175.53 | X-H torsion
[ 8008 7997 7996 7995 ] final  -44.60 input   59.86 | X-H torsion
[ 10167 10162 10161 10158 ] final  -44.21 input  -65.29 | X-H torsion
[ 10718 10713 10712 10709 ] final  -74.89 input   66.30 | X-H torsion
[ 10763 10752 10751 10750 ] final   94.35 input  -60.55 | X-H torsion
[ 11005 11000 10999 10996 ] final  147.22 input  -57.11 | X-H torsion

> <Gold.Protein.ActiveResidues>
 VAL166  LYS551  ARG553  GLY616  TRP617  ASP618  TYR619  PRO620  LYS621  CYS622 
 ASP623  PHE694  ASN695  SER759  ASP760  ASP761  ALA762  ILE779  LEU786  VAL792 
 PHE793  MET794  SER795  GLU796  ALA797  LYS798  CYS799  TRP800  GLU811  SER814 

> <Gold.Protein.RotatedAtoms>
  151.1202  133.5110  159.2602 H   0  0  0  0  0  0  0  0  0  0  0  0  # atno 6907 bound_to 6896
  151.1870  135.0385  159.8826 H   0  0  0  0  0  0  0  0  0  0  0  0  # atno 6908 bound_to 6896
  152.5455  134.1047  159.8386 H   0  0  0  0  0  0  0  0  0  0  0  0  # atno 6909 bound_to 6896
  146.1708  140.4401  142.8533 H   0  0  0  0  0  0  0  0  0  0  0  0  # atno 7974 bound_to 7965
  154.3998  140.1418  156.3709 H   0  0  0  0  0  0  0  0  0  0  0  0  # atno 8008 bound_to 7997
  155.8094  140.3473  155.5428 H   0  0  0  0  0  0  0  0  0  0  0  0  # atno 8009 bound_to 7997
  155.8402  140.0925  157.1729 H   0  0  0  0  0  0  0  0  0  0  0  0  # atno 8010 bound_to 7997
  140.6905  143.2942  151.3462 H   0  0  0  0  0  0  0  0  0  0  0  0  # atno 10167 bound_to 10162
  156.0226  130.4428  150.2961 H   0  0  0  0  0  0  0  0  0  0  0  0  # atno 10718 bound_to 10713
  153.2407  135.4293  155.0694 H   0  0  0  0  0  0  0  0  0  0  0  0  # atno 10763 bound_to 10752
  154.8339  135.3402  154.6654 H   0  0  0  0  0  0  0  0  0  0  0  0  # atno 10764 bound_to 10752
  153.7078  135.7024  153.5102 H   0  0  0  0  0  0  0  0  0  0  0  0  # atno 10765 bound_to 10752
  140.0857  134.9071  157.1572 H   0  0  0  0  0  0  0  0  0  0  0  0  # atno 11005 bound_to 11000
  144.8160  140.6469  143.6384 LP  0  0  0  0  0  0  0  0  0  0  0  0  # atno 17320 bound_to 7965
  145.4345  139.1544  143.4004 LP  0  0  0  0  0  0  0  0  0  0  0  0  # atno 17321 bound_to 7965
  139.6304  144.0732  152.2471 LP  0  0  0  0  0  0  0  0  0  0  0  0  # atno 17342 bound_to 10162
  140.0205  144.6157  150.7571 LP  0  0  0  0  0  0  0  0  0  0  0  0  # atno 17343 bound_to 10162
  157.1064  131.0209  151.3065 LP  0  0  0  0  0  0  0  0  0  0  0  0  # atno 17370 bound_to 10713
  157.4739  130.7725  149.7350 LP  0  0  0  0  0  0  0  0  0  0  0  0  # atno 17371 bound_to 10713
  140.3423  134.2690  155.7210 LP  0  0  0  0  0  0  0  0  0  0  0  0  # atno 17394 bound_to 11000
  141.2062  133.7840  157.0192 LP  0  0  0  0  0  0  0  0  0  0  0  0  # atno 17395 bound_to 11000

$$$$
