AV-unprocessed.smi:35|AV-procd|sdf|255|dock10
  -GOLD-   2262016 13D 1   1.00000     0.00000
 Structure written by MMmdl.
 29 30  0  0  0  0  0  0  0  0  1 V2000
  152.2836  142.2366  160.5146 O   0  0  0  0  0  0  0  0  0  0  0  0
  151.9191  141.8984  159.3906 C   0  0  0  0  0  0  0  0  0  0  0  0
  152.5139  140.8048  158.7553 N   0  0  0  0  0  0  0  0  0  0  0  0
  152.1841  140.3278  157.4853 C   0  0  0  0  0  0  0  0  0  0  0  0
  152.7659  139.3463  157.0248 O   0  0  0  0  0  0  0  0  0  0  0  0
  151.1656  141.0083  156.7812 N   0  0  0  0  0  0  0  0  0  0  0  0
  150.7912  140.5086  155.3973 C   0  0  2  0  0  0  0  0  0  0  0  0
  149.8640  141.3781  154.8153 O   0  0  0  0  0  0  0  0  0  0  0  0
  148.5761  140.7706  154.7791 C   0  0  1  0  0  0  0  0  0  0  0  0
  147.6834  141.4184  153.7067 C   0  0  0  0  0  0  0  0  0  0  0  0
  147.3946  142.7537  154.0618 O   0  0  0  0  0  0  0  0  0  0  0  0
  148.9046  139.2887  154.5627 C   0  0  1  0  0  0  0  0  0  0  0  0
  149.1818  139.0185  153.2003 O   0  0  0  0  0  0  0  0  0  0  0  0
  150.1556  139.0959  155.4093 C   0  0  2  0  0  0  0  0  0  0  0  0
  149.7872  138.6422  156.7008 O   0  0  0  0  0  0  0  0  0  0  0  0
  150.5449  142.1018  157.3737 C   0  0  0  0  0  0  0  0  0  0  0  0
  150.8754  142.5509  158.6075 C   0  0  0  0  0  0  0  0  0  0  0  0
  149.8726  144.1236  159.2745 Br  0  0  0  0  0  0  0  0  0  0  0  0
  153.2417  140.3181  159.2580 H   0  0  0  0  0  0  0  0  0  0  0  0
  151.7055  140.5659  154.8034 H   0  0  0  0  0  0  0  0  0  0  0  0
  148.1071  140.8677  155.7599 H   0  0  0  0  0  0  0  0  0  0  0  0
  148.1518  141.3823  152.7225 H   0  0  0  0  0  0  0  0  0  0  0  0
  146.7337  140.8874  153.6371 H   0  0  0  0  0  0  0  0  0  0  0  0
  148.0757  143.0659  154.6380 H   0  0  0  0  0  0  0  0  0  0  0  0
  148.0835  138.6406  154.8725 H   0  0  0  0  0  0  0  0  0  0  0  0
  149.0599  138.0941  153.0459 H   0  0  0  0  0  0  0  0  0  0  0  0
  150.8489  138.3739  154.9756 H   0  0  0  0  0  0  0  0  0  0  0  0
  149.2772  139.3196  157.1186 H   0  0  0  0  0  0  0  0  0  0  0  0
  149.7652  142.6315  156.8488 H   0  0  0  0  0  0  0  0  0  0  0  0
  1  2  2  0  0  0  0
  2 17  1  0  0  0  0
  2  3  1  0  0  0  0
  3 19  1  0  0  0  0
  3  4  1  0  0  0  0
  4  5  2  0  0  0  0
  4  6  1  0  0  0  0
  6  7  1  0  0  0  0
  6 16  1  0  0  0  0
  7 14  1  0  0  0  0
  7  8  1  0  0  0  0
  7 20  1  0  0  0  0
  8  9  1  0  0  0  0
  9 10  1  0  0  0  0
  9 12  1  0  0  0  0
  9 21  1  0  0  0  0
 10 11  1  0  0  0  0
 10 22  1  0  0  0  0
 10 23  1  0  0  0  0
 11 24  1  0  0  0  0
 12 13  1  0  0  0  0
 12 14  1  0  0  0  0
 12 25  1  0  0  0  0
 13 26  1  0  0  0  0
 14 15  1  0  0  0  0
 14 27  1  0  0  0  0
 15 28  1  0  0  0  0
 16 17  2  0  0  0  0
 16 29  1  0  0  0  0
 17 18  1  0  0  0  0
M  END
> <s_m_source_file>
AV-unprocessed.smi

> <i_m_source_file_index>
35

> <i_lp_mmshare_version>
43012

> <i_f3d_flags>
0

> <s_epik_input>
Tz1jMVtuSF1jKD1PKW4oW2NIXWMxQnIpW0NAQEhdMk9bQ0BASF0oW0NIMl1bT0hdKVtDQEBIXShbT0hdKVtDQEhdMltPSF0=

> <s_epik_cmdline>
J2VwaWtfcHl0aG9uJywgJy1waCcsICc3LjAnLCAnLXRuJywgJzgnLCAnLW1hJywgJzIwMCcsICctbWV0YWxfYmluZGluZycsICctaW1hZScsICc8aW5maWxlLm1hZT4nLCAnLW9tYWUnLCAnPG91dGZpbGUubWFlPic=

> <r_lp_tautomer_probability>
0.999537

> <r_epik_Ionization_Penalty>
0.10812

> <r_epik_Ionization_Penalty_Charging>
0.108119

> <r_epik_Ionization_Penalty_Neutral>
4.93006e-07

> <r_epik_State_Penalty>
0.0979238

> <r_epik_Charging_Adjusted_Penalty>
0.206043

> <i_epik_Tot_Q>
0

> <i_epik_Tot_abs_Q>
0

> <r_epik_Metal_State_Penalty>
3.07911

> <b_epik_Metal_Only>
0

> <s_epik_Chemistry_Notes>
This compound contains an acetal/aminal-like group ( X-CH(R)-Y where X, Y are N, S, or O) that may be acid/base labile, releasing an aldehyde.

> <s_lp_Force_Field>
OPLS_2005

> <r_lp_Energy>
34.1394

> <b_lp_Chiralities_Consistent>
1

> <s_lp_Variant>
AV-unprocessed.smi:35-9

> <Gold.Version>
5.8.1

> <Gold.Id.Protein>
6NUR|6NUR_protein|mol2

> <Gold.PLP.Fitness>
38.9167

> <Gold.PLP.PLP>
-28.8077

> <Gold.PLP.part.hbond>
-4.9799

> <Gold.PLP.part.metal>
0.0000

> <Gold.PLP.part.buried>
-2.7998

> <Gold.PLP.part.nonpolar>
-19.9312

> <Gold.PLP.part.repulsive>
0.2713

> <Gold.PLP.ligand.clash>
0.0000

> <Gold.PLP.ligand.torsion>
0.0788

> <Gold.PLP.Chemscore.Hbond>
2.4491

> <Gold.PLP.Chemscore.CHOScore>
0.9536

> <Gold.PLP.Chemscore.Metal>
0.0000

> <Gold.Chemscore.Hbonds>
donor molecule, donor type, donor heavy atom, donor atom, acceptor molecule, acceptor atom, score
      L1  H    11    24       P1  8028  0.80
      L1  H    13    26       P1  7948  0.62
      P1  H  7997  8010       L1     5  1.00
      L1  C    16    29       P1  8028  0.93

> <Gold.PLP.Chemscore.Internal.Correction>
0.0583

> <Gold.Rescore>
     Score         DG    S(hbond)    S(metal)    S(lipo)     H(rot)  DE(clash)    DE(int)     intcor
      7.32      -7.73       2.08        0.00      40.11       3.67       0.17       0.24       ----

> <Gold.Chemscore.Fitness>
7.3181

> <Gold.Chemscore.DG>
-7.7271

> <Gold.Chemscore.ZeroCoef>
-5.4800

> <Gold.Chemscore.Hbond>
2.0808

> <Gold.Chemscore.Metal>
0.0000

> <Gold.Chemscore.Lipo>
40.1069

> <Gold.Chemscore.Internal_Hbond>
0.0000

> <Gold.Chemscore.DEClash>
0.1691

> <Gold.Chemscore.DEInternal>
0.2399

> <Gold.Chemscore.Rot>
3.6701

> <Gold.Chemscore.Internal.Correction>
   9.000000E+99

> <Gold.Chemscore.Hbonds>
donor molecule, donor type, donor heavy atom, donor atom, acceptor molecule, acceptor atom, score
      L1  H    11    24       P1  8028  0.73
      L1  H    13    26       P1  7948  0.61
      P1  H  7997  8010       L1     5  0.26

> <Gold.Chemscore.Hbond.Weighted>
-6.9500

> <Gold.Chemscore.Metal.Weighted>
-0.0000

> <Gold.Chemscore.Lipo.Weighted>
-4.6925

> <Gold.Chemscore.Internal_Hbond.Weighted>
0.0000

> <Gold.Chemscore.DEClash.Weighted>
0.1691

> <Gold.Chemscore.DEInternal.Weighted>
0.2399

> <Gold.Chemscore.Rot.Weighted>
9.3955

> <Gold.Chemscore.Internal.Correction.Weighted>
   9.000000E+99

> <Gold.Protein.RotatedTorsions>
[ 6907 6896 6895 6894 ] final  -12.36 input  -60.11 | X-H torsion
[ 7974 7965 7964 7962 ] final  -50.29 input  175.53 | X-H torsion
[ 8008 7997 7996 7995 ] final   59.53 input   59.86 | X-H torsion
[ 10167 10162 10161 10158 ] final   50.55 input  -65.29 | X-H torsion
[ 10718 10713 10712 10709 ] final -149.60 input   66.30 | X-H torsion
[ 10763 10752 10751 10750 ] final   13.20 input  -60.55 | X-H torsion
[ 11005 11000 10999 10996 ] final   59.38 input  -57.11 | X-H torsion

> <Gold.Protein.ActiveResidues>
 VAL166  LYS551  ARG553  GLY616  TRP617  ASP618  TYR619  PRO620  LYS621  CYS622 
 ASP623  PHE694  ASN695  SER759  ASP760  ASP761  ALA762  ILE779  LEU786  VAL792 
 PHE793  MET794  SER795  GLU796  ALA797  LYS798  CYS799  TRP800  GLU811  SER814 

> <Gold.Protein.RotatedAtoms>
  151.3717  135.0923  159.9467 H   0  0  0  0  0  0  0  0  0  0  0  0  # atno 6907 bound_to 6896
  152.5133  133.9158  159.7521 H   0  0  0  0  0  0  0  0  0  0  0  0  # atno 6908 bound_to 6896
  150.9573  133.6428  159.2790 H   0  0  0  0  0  0  0  0  0  0  0  0  # atno 6909 bound_to 6896
  145.9314  140.7746  142.9597 H   0  0  0  0  0  0  0  0  0  0  0  0  # atno 7974 bound_to 7965
  155.5677  140.3489  155.4507 H   0  0  0  0  0  0  0  0  0  0  0  0  # atno 8008 bound_to 7997
  156.0467  140.1308  157.0121 H   0  0  0  0  0  0  0  0  0  0  0  0  # atno 8009 bound_to 7997
  154.4416  140.1013  156.6302 H   0  0  0  0  0  0  0  0  0  0  0  0  # atno 8010 bound_to 7997
  140.2713  144.3262  150.6289 H   0  0  0  0  0  0  0  0  0  0  0  0  # atno 10167 bound_to 10162
  156.4352  130.8095  151.2323 H   0  0  0  0  0  0  0  0  0  0  0  0  # atno 10718 bound_to 10713
  153.1745  135.6818  153.8562 H   0  0  0  0  0  0  0  0  0  0  0  0  # atno 10763 bound_to 10752
  153.7915  135.3168  155.3380 H   0  0  0  0  0  0  0  0  0  0  0  0  # atno 10764 bound_to 10752
  154.8020  135.4772  154.0391 H   0  0  0  0  0  0  0  0  0  0  0  0  # atno 10765 bound_to 10752
  140.0308  134.6015  155.9510 H   0  0  0  0  0  0  0  0  0  0  0  0  # atno 11005 bound_to 11000
  144.6765  140.2133  143.7374 LP  0  0  0  0  0  0  0  0  0  0  0  0  # atno 17320 bound_to 7965
  145.8421  139.2134  143.1821 LP  0  0  0  0  0  0  0  0  0  0  0  0  # atno 17321 bound_to 7965
  140.5887  143.2169  151.7293 LP  0  0  0  0  0  0  0  0  0  0  0  0  # atno 17342 bound_to 10162
  139.4988  144.3971  152.0220 LP  0  0  0  0  0  0  0  0  0  0  0  0  # atno 17343 bound_to 10162
  157.7507  131.0186  150.3631 LP  0  0  0  0  0  0  0  0  0  0  0  0  # atno 17370 bound_to 10713
  156.3977  130.3910  149.6983 LP  0  0  0  0  0  0  0  0  0  0  0  0  # atno 17371 bound_to 10713
  141.1830  133.6550  156.5098 LP  0  0  0  0  0  0  0  0  0  0  0  0  # atno 17394 bound_to 11000
  140.4229  134.7171  157.4900 LP  0  0  0  0  0  0  0  0  0  0  0  0  # atno 17395 bound_to 11000

$$$$
