AV-unprocessed.smi:93|AV-procd|sdf|850|dock1
  -GOLD-   2262017293D 1   1.00000     0.00000
 Structure written by MMmdl.
 50 52  0  0  0  0  0  0  0  0  1 V2000
  146.7521  139.4673  152.0390 C   0  0  0  0  0  0  0  0  0  0  0  0
  146.4370  138.9473  153.3651 N   0  0  0  0  0  0  0  0  0  0  0  0
  146.4946  139.8433  154.5271 C   0  0  0  0  0  0  0  0  0  0  0  0
  147.7086  140.8215  154.5522 C   0  0  0  0  0  0  0  0  0  0  0  0
  147.5007  141.9908  153.5618 C   0  0  0  0  0  0  0  0  0  0  0  0
  147.8463  141.3820  155.9933 C   0  0  0  0  0  0  0  0  0  0  0  0
  148.8134  142.4099  156.0891 O   0  0  0  0  0  0  0  0  0  0  0  0
  149.0082  140.0556  154.1865 C   0  0  0  0  0  0  0  0  0  0  0  0
  150.1787  140.8033  154.4526 O   0  0  0  0  0  0  0  0  0  0  0  0
  146.1265  137.6289  153.5058 C   0  0  0  0  0  0  0  0  0  0  0  0
  146.0094  137.1165  154.7595 N   0  0  0  0  0  0  0  0  0  0  0  0
  145.6948  135.8324  154.9463 C   0  0  0  0  0  0  0  0  0  0  0  0
  145.4508  134.8932  154.0324 N   0  0  0  0  0  0  0  0  0  0  0  0
  145.5571  135.3948  152.7694 C   0  0  0  0  0  0  0  0  0  0  0  0
  145.8961  136.7338  152.4172 C   0  0  0  0  0  0  0  0  0  0  0  0
  145.9028  136.8596  151.0317 N   0  0  0  0  0  0  0  0  0  0  0  0
  145.5916  135.6711  150.5945 C   0  0  0  0  0  0  0  0  0  0  0  0
  145.3503  134.7329  151.5709 N   0  0  0  0  0  0  0  0  0  0  0  0
  144.9669  133.3434  151.3698 C   0  0  0  0  0  0  0  0  0  0  0  0
  146.0372  132.3314  151.8453 C   0  0  2  0  0  0  0  0  0  0  0  0
  147.2726  132.6372  151.2222 O   0  0  0  0  0  0  0  0  0  0  0  0
  145.6789  130.8883  151.5150 C   0  0  0  0  0  0  0  0  0  0  0  0
  146.3964  130.1077  152.6077 C   0  0  0  0  0  0  0  0  0  0  0  0
  146.2048  130.9174  153.7554 O   0  0  0  0  0  0  0  0  0  0  0  0
  146.2601  132.2886  153.3716 C   0  0  0  0  0  0  0  0  0  0  0  0
  147.3818  138.7677  151.4882 H   0  0  0  0  0  0  0  0  0  0  0  0
  147.2911  140.4127  152.1049 H   0  0  0  0  0  0  0  0  0  0  0  0
  145.8426  139.6419  151.4648 H   0  0  0  0  0  0  0  0  0  0  0  0
  145.5603  140.3970  154.6207 H   0  0  0  0  0  0  0  0  0  0  0  0
  146.5309  139.2219  155.4224 H   0  0  0  0  0  0  0  0  0  0  0  0
  148.2810  142.7452  153.6644 H   0  0  0  0  0  0  0  0  0  0  0  0
  146.5454  142.4905  153.7244 H   0  0  0  0  0  0  0  0  0  0  0  0
  147.5205  141.6504  152.5267 H   0  0  0  0  0  0  0  0  0  0  0  0
  146.8914  141.7776  156.3413 H   0  0  0  0  0  0  0  0  0  0  0  0
  148.1324  140.5966  156.6934 H   0  0  0  0  0  0  0  0  0  0  0  0
  148.5439  143.1277  155.5368 H   0  0  0  0  0  0  0  0  0  0  0  0
  149.0673  139.1159  154.7369 H   0  0  0  0  0  0  0  0  0  0  0  0
  149.0239  139.8044  153.1262 H   0  0  0  0  0  0  0  0  0  0  0  0
  149.9260  141.6844  154.6827 H   0  0  0  0  0  0  0  0  0  0  0  0
  145.6240  135.5137  155.9757 H   0  0  0  0  0  0  0  0  0  0  0  0
  145.5205  135.4496  149.5395 H   0  0  0  0  0  0  0  0  0  0  0  0
  144.0282  133.1727  151.8986 H   0  0  0  0  0  0  0  0  0  0  0  0
  144.7516  133.1949  150.3108 H   0  0  0  0  0  0  0  0  0  0  0  0
  147.7096  131.8271  151.0080 H   0  0  0  0  0  0  0  0  0  0  0  0
  144.6039  130.7324  151.6148 H   0  0  0  0  0  0  0  0  0  0  0  0
  145.9668  130.5829  150.5081 H   0  0  0  0  0  0  0  0  0  0  0  0
  145.9899  129.1061  152.7497 H   0  0  0  0  0  0  0  0  0  0  0  0
  147.4628  130.0216  152.3936 H   0  0  0  0  0  0  0  0  0  0  0  0
  147.2155  132.7269  153.6643 H   0  0  0  0  0  0  0  0  0  0  0  0
  145.4784  132.8159  153.9174 H   0  0  0  0  0  0  0  0  0  0  0  0
  1  2  1  0  0  0  0
  1 26  1  0  0  0  0
  1 27  1  0  0  0  0
  1 28  1  0  0  0  0
  2  3  1  0  0  0  0
  2 10  1  0  0  0  0
  3  4  1  0  0  0  0
  3 29  1  0  0  0  0
  3 30  1  0  0  0  0
  4  5  1  0  0  0  0
  4  6  1  0  0  0  0
  4  8  1  0  0  0  0
  5 31  1  0  0  0  0
  5 32  1  0  0  0  0
  5 33  1  0  0  0  0
  6  7  1  0  0  0  0
  6 34  1  0  0  0  0
  6 35  1  0  0  0  0
  7 36  1  0  0  0  0
  8  9  1  0  0  0  0
  8 37  1  0  0  0  0
  8 38  1  0  0  0  0
  9 39  1  0  0  0  0
 10 15  1  0  0  0  0
 10 11  2  0  0  0  0
 11 12  1  0  0  0  0
 12 13  2  0  0  0  0
 12 40  1  0  0  0  0
 13 14  1  0  0  0  0
 14 18  1  0  0  0  0
 14 15  2  0  0  0  0
 15 16  1  0  0  0  0
 16 17  2  0  0  0  0
 17 18  1  0  0  0  0
 17 41  1  0  0  0  0
 18 19  1  0  0  0  0
 19 20  1  0  0  0  0
 19 42  1  0  0  0  0
 19 43  1  0  0  0  0
 20 25  1  0  0  0  0
 20 21  1  0  0  0  0
 20 22  1  0  0  0  0
 21 44  1  0  0  0  0
 22 23  1  0  0  0  0
 22 45  1  0  0  0  0
 22 46  1  0  0  0  0
 23 24  1  0  0  0  0
 23 47  1  0  0  0  0
 23 48  1  0  0  0  0
 24 25  1  0  0  0  0
 25 49  1  0  0  0  0
 25 50  1  0  0  0  0
M  END
> <s_m_source_file>
AV-unprocessed.smi

> <i_m_source_file_index>
93

> <i_lp_mmshare_version>
43012

> <i_f3d_flags>
0

> <s_epik_input>
W09IXVtDSDJdQyhbQ0gzXSkoW0NIMl1bT0hdKVtDSDJdTihbQ0gzXSljKG5bY0hdbjEpYyhjMTIpbltjSF1uMltDSDJdW0NAQF0zKFtPSF0pW0NIMl1bQ0gyXU9bQ0gyXTM=

> <s_epik_cmdline>
J2VwaWtfcHl0aG9uJywgJy1waCcsICc3LjAnLCAnLXRuJywgJzgnLCAnLW1hJywgJzIwMCcsICctbWV0YWxfYmluZGluZycsICctaW1hZScsICc8aW5maWxlLm1hZT4nLCAnLW9tYWUnLCAnPG91dGZpbGUubWFlPic=

> <r_lp_tautomer_probability>
1

> <r_epik_Ionization_Penalty>
0.00325397

> <r_epik_Ionization_Penalty_Charging>
0

> <r_epik_Ionization_Penalty_Neutral>
0.00325397

> <r_epik_State_Penalty>
0.00225047

> <r_epik_Charging_Adjusted_Penalty>
0.00225047

> <i_epik_Tot_Q>
0

> <i_epik_Tot_abs_Q>
0

> <r_epik_Metal_State_Penalty>
-0

> <b_epik_Metal_Only>
0

> <s_lp_Force_Field>
OPLS_2005

> <r_lp_Energy>
41.2901

> <b_lp_Chiralities_Consistent>
1

> <s_lp_Variant>
AV-unprocessed.smi:93-2

> <Gold.Version>
5.8.1

> <Gold.Id.Protein>
6NUR|6NUR_protein|mol2

> <Gold.PLP.Fitness>
44.9171

> <Gold.PLP.PLP>
-33.6972

> <Gold.PLP.part.hbond>
-3.0000

> <Gold.PLP.part.metal>
0.0000

> <Gold.PLP.part.buried>
-5.9748

> <Gold.PLP.part.nonpolar>
-26.2629

> <Gold.PLP.part.repulsive>
1.3803

> <Gold.PLP.ligand.clash>
0.0000

> <Gold.PLP.ligand.torsion>
0.6375

> <Gold.PLP.Chemscore.Hbond>
2.9920

> <Gold.PLP.Chemscore.CHOScore>
1.0000

> <Gold.PLP.Chemscore.Metal>
0.0000

> <Gold.Chemscore.Hbonds>
donor molecule, donor type, donor heavy atom, donor atom, acceptor molecule, acceptor atom, score
      L1  H     7    36       P1  8028  0.62
      L1  H    21    44       P1 10747  1.00
      P1  H  7989  7998       L1     9  0.74
      L1  C    17    41       P1  7921  1.00

> <Gold.PLP.Chemscore.Internal.Correction>
0.5188

> <Gold.Rescore>
     Score         DG    S(hbond)    S(metal)    S(lipo)     H(rot)  DE(clash)    DE(int)     intcor
      5.12     -10.97       2.55        0.00      74.68       4.60       1.63       4.22       ----

> <Gold.Chemscore.Fitness>
5.1208

> <Gold.Chemscore.DG>
-10.9713

> <Gold.Chemscore.ZeroCoef>
-5.4800

> <Gold.Chemscore.Hbond>
2.5546

> <Gold.Chemscore.Metal>
0.0000

> <Gold.Chemscore.Lipo>
74.6811

> <Gold.Chemscore.Internal_Hbond>
0.0000

> <Gold.Chemscore.DEClash>
1.6341

> <Gold.Chemscore.DEInternal>
4.2164

> <Gold.Chemscore.Rot>
4.6010

> <Gold.Chemscore.Internal.Correction>
   9.000000E+99

> <Gold.Chemscore.Hbonds>
donor molecule, donor type, donor heavy atom, donor atom, acceptor molecule, acceptor atom, score
      L1  H     7    36       P1  8028  0.61
      L1  H    21    44       P1 10747  0.98
      P1  H  7989  7998       L1     9  0.48

> <Gold.Chemscore.Hbond.Weighted>
-8.5323

> <Gold.Chemscore.Metal.Weighted>
-0.0000

> <Gold.Chemscore.Lipo.Weighted>
-8.7377

> <Gold.Chemscore.Internal_Hbond.Weighted>
0.0000

> <Gold.Chemscore.DEClash.Weighted>
1.6341

> <Gold.Chemscore.DEInternal.Weighted>
4.2164

> <Gold.Chemscore.Rot.Weighted>
11.7787

> <Gold.Chemscore.Internal.Correction.Weighted>
   9.000000E+99

> <Gold.Protein.RotatedTorsions>
[ 6907 6896 6895 6894 ] final   36.31 input  -60.11 | X-H torsion
[ 7974 7965 7964 7962 ] final  162.21 input  175.53 | X-H torsion
[ 8008 7997 7996 7995 ] final  -18.03 input   59.86 | X-H torsion
[ 10167 10162 10161 10158 ] final   35.96 input  -65.29 | X-H torsion
[ 10718 10713 10712 10709 ] final  -76.38 input   66.30 | X-H torsion
[ 10763 10752 10751 10750 ] final  -11.59 input  -60.55 | X-H torsion
[ 11005 11000 10999 10996 ] final -175.36 input  -57.11 | X-H torsion

> <Gold.Protein.ActiveResidues>
 VAL166  LYS551  ARG553  GLY616  TRP617  ASP618  TYR619  PRO620  LYS621  CYS622 
 ASP623  PHE694  ASN695  SER759  ASP760  ASP761  ALA762  ILE779  LEU786  VAL792 
 PHE793  MET794  SER795  GLU796  ALA797  LYS798  CYS799  TRP800  GLU811  SER814 

> <Gold.Protein.RotatedAtoms>
  152.1281  134.9156  160.0559 H   0  0  0  0  0  0  0  0  0  0  0  0  # atno 6907 bound_to 6896
  152.0271  133.3917  159.4290 H   0  0  0  0  0  0  0  0  0  0  0  0  # atno 6908 bound_to 6896
  150.6854  134.3483  159.4942 H   0  0  0  0  0  0  0  0  0  0  0  0  # atno 6909 bound_to 6896
  144.7647  139.8008  143.6319 H   0  0  0  0  0  0  0  0  0  0  0  0  # atno 7974 bound_to 7965
  154.4935  140.2127  155.9497 H   0  0  0  0  0  0  0  0  0  0  0  0  # atno 8008 bound_to 7997
  156.1338  140.3192  155.8358 H   0  0  0  0  0  0  0  0  0  0  0  0  # atno 8009 bound_to 7997
  155.4247  140.0499  157.3014 H   0  0  0  0  0  0  0  0  0  0  0  0  # atno 8010 bound_to 7997
  140.4173  144.1509  150.6144 H   0  0  0  0  0  0  0  0  0  0  0  0  # atno 10167 bound_to 10162
  156.0177  130.4464  150.3185 H   0  0  0  0  0  0  0  0  0  0  0  0  # atno 10718 bound_to 10713
  153.4861  135.7017  153.5911 H   0  0  0  0  0  0  0  0  0  0  0  0  # atno 10763 bound_to 10752
  153.4103  135.3850  155.2046 H   0  0  0  0  0  0  0  0  0  0  0  0  # atno 10764 bound_to 10752
  154.8719  135.3903  154.4316 H   0  0  0  0  0  0  0  0  0  0  0  0  # atno 10765 bound_to 10752
  140.4642  134.6226  157.4855 H   0  0  0  0  0  0  0  0  0  0  0  0  # atno 11005 bound_to 11000
  146.1744  139.4909  142.9906 LP  0  0  0  0  0  0  0  0  0  0  0  0  # atno 17320 bound_to 7965
  145.6506  141.0264  143.1762 LP  0  0  0  0  0  0  0  0  0  0  0  0  # atno 17321 bound_to 7965
  140.4573  143.2463  151.9268 LP  0  0  0  0  0  0  0  0  0  0  0  0  # atno 17342 bound_to 10162
  139.4782  144.5503  151.8396 LP  0  0  0  0  0  0  0  0  0  0  0  0  # atno 17343 bound_to 10162
  157.1285  131.0265  151.2979 LP  0  0  0  0  0  0  0  0  0  0  0  0  # atno 17370 bound_to 10713
  157.4570  130.7631  149.7201 LP  0  0  0  0  0  0  0  0  0  0  0  0  # atno 17371 bound_to 10713
  139.9926  134.6961  155.9663 LP  0  0  0  0  0  0  0  0  0  0  0  0  # atno 17394 bound_to 11000
  141.1607  133.6539  156.4310 LP  0  0  0  0  0  0  0  0  0  0  0  0  # atno 17395 bound_to 11000

$$$$
