AV-unprocessed.smi:1918|AV-procd|sdf|7769|dock2
  -GOLD-   22720 9513D 1   1.00000     0.00000
 Structure written by MMmdl.
 35 37  0  0  0  0  0  0  0  0  1 V2000
  151.7083  139.2026  155.1995 C   0  0  0  0  0  0  0  0  0  0  0  0
  151.8794  140.0589  156.4140 C   0  0  0  0  0  0  0  0  0  0  0  0
  152.6332  139.6829  157.4475 N   0  0  0  0  0  0  0  0  0  0  0  0
  152.5060  140.7476  158.3187 C   0  0  0  0  0  0  0  0  0  0  0  0
  153.0650  140.9597  159.5994 C   0  0  0  0  0  0  0  0  0  0  0  0
  152.7867  142.1443  160.3126 C   0  0  0  0  0  0  0  0  0  0  0  0
  151.9479  143.1322  159.7569 C   0  0  0  0  0  0  0  0  0  0  0  0
  151.3816  142.9415  158.4818 C   0  0  0  0  0  0  0  0  0  0  0  0
  151.6624  141.7573  157.7746 C   0  0  0  0  0  0  0  0  0  0  0  0
  151.2763  141.2677  156.5312 N   0  0  0  0  0  0  0  0  0  0  0  0
  150.4063  141.9420  155.5775 C   0  0  0  0  0  0  0  0  0  0  0  0
  149.2644  141.0373  155.0737 C   0  0  2  0  0  0  0  0  0  0  0  0
  149.5168  140.6395  153.7391 O   0  0  0  0  0  0  0  0  0  0  0  0
  147.9125  141.7201  155.2332 C   0  0  0  0  0  0  0  0  0  0  0  0
  147.1618  142.0954  154.0962 C   0  0  0  0  0  0  0  0  0  0  0  0
  145.9161  142.7352  154.2444 C   0  0  0  0  0  0  0  0  0  0  0  0
  145.4136  143.0087  155.5303 C   0  0  0  0  0  0  0  0  0  0  0  0
  144.2160  143.6242  155.6731 F   0  0  0  0  0  0  0  0  0  0  0  0
  146.1590  142.6448  156.6676 C   0  0  0  0  0  0  0  0  0  0  0  0
  147.4055  142.0049  156.5218 C   0  0  0  0  0  0  0  0  0  0  0  0
  148.1133  141.6702  157.6276 F   0  0  0  0  0  0  0  0  0  0  0  0
  152.2040  138.2410  155.3360 H   0  0  0  0  0  0  0  0  0  0  0  0
  152.1439  139.6929  154.3287 H   0  0  0  0  0  0  0  0  0  0  0  0
  150.6509  139.0183  155.0102 H   0  0  0  0  0  0  0  0  0  0  0  0
  153.7090  140.2092  160.0335 H   0  0  0  0  0  0  0  0  0  0  0  0
  153.2186  142.2955  161.2911 H   0  0  0  0  0  0  0  0  0  0  0  0
  151.7389  144.0362  160.3101 H   0  0  0  0  0  0  0  0  0  0  0  0
  150.7380  143.6953  158.0528 H   0  0  0  0  0  0  0  0  0  0  0  0
  149.9905  142.8210  156.0716 H   0  0  0  0  0  0  0  0  0  0  0  0
  150.9971  142.3170  154.7419 H   0  0  0  0  0  0  0  0  0  0  0  0
  149.2575  140.1200  155.6631 H   0  0  0  0  0  0  0  0  0  0  0  0
  150.3750  140.9480  153.4916 H   0  0  0  0  0  0  0  0  0  0  0  0
  147.5399  141.8972  153.1039 H   0  0  0  0  0  0  0  0  0  0  0  0
  145.3469  143.0179  153.3710 H   0  0  0  0  0  0  0  0  0  0  0  0
  145.7755  142.8587  157.6544 H   0  0  0  0  0  0  0  0  0  0  0  0
  1  2  1  0  0  0  0
  1 22  1  0  0  0  0
  1 23  1  0  0  0  0
  1 24  1  0  0  0  0
  2 10  1  0  0  0  0
  2  3  2  0  0  0  0
  3  4  1  0  0  0  0
  4  9  2  0  0  0  0
  4  5  1  0  0  0  0
  5  6  2  0  0  0  0
  5 25  1  0  0  0  0
  6  7  1  0  0  0  0
  6 26  1  0  0  0  0
  7  8  2  0  0  0  0
  7 27  1  0  0  0  0
  8  9  1  0  0  0  0
  8 28  1  0  0  0  0
  9 10  1  0  0  0  0
 10 11  1  0  0  0  0
 11 12  1  0  0  0  0
 11 29  1  0  0  0  0
 11 30  1  0  0  0  0
 12 13  1  0  0  0  0
 12 14  1  0  0  0  0
 12 31  1  0  0  0  0
 13 32  1  0  0  0  0
 14 20  1  0  0  0  0
 14 15  2  0  0  0  0
 15 16  1  0  0  0  0
 15 33  1  0  0  0  0
 16 17  2  0  0  0  0
 16 34  1  0  0  0  0
 17 18  1  0  0  0  0
 17 19  1  0  0  0  0
 19 20  2  0  0  0  0
 19 35  1  0  0  0  0
 20 21  1  0  0  0  0
M  END
> <s_m_source_file>
AV-unprocessed.smi

> <i_m_source_file_index>
1918

> <i_lp_mmshare_version>
43012

> <i_f3d_flags>
0

> <s_epik_input>
W2NIXTFbY0hdW2NIXVtjSF1jKGMxMiluKGMobjIpW0NIM10pW0NIMl1bQ0BIXShbT0hdKWMzW2NIXVtjSF1jKEYpW2NIXWMzRg==

> <s_epik_cmdline>
J2VwaWtfcHl0aG9uJywgJy1waCcsICc3LjAnLCAnLXRuJywgJzgnLCAnLW1hJywgJzIwMCcsICctbWV0YWxfYmluZGluZycsICctaW1hZScsICc8aW5maWxlLm1hZT4nLCAnLW9tYWUnLCAnPG91dGZpbGUubWFlPic=

> <r_epik_Ionization_Penalty>
0.129663

> <r_epik_Ionization_Penalty_Charging>
0

> <r_epik_Ionization_Penalty_Neutral>
0.129663

> <r_epik_State_Penalty>
0.119073

> <r_epik_Charging_Adjusted_Penalty>
0.119073

> <i_epik_Tot_Q>
0

> <i_epik_Tot_abs_Q>
0

> <r_epik_Metal_State_Penalty>
0.000131867

> <b_epik_Metal_Only>
0

> <s_lp_Force_Field>
OPLS_2005

> <r_lp_Energy>
11.5863

> <b_lp_Chiralities_Consistent>
1

> <s_lp_Variant>
AV-unprocessed.smi:1918-1

> <Gold.Version>
5.8.1

> <Gold.Id.Protein>
6NUR|6NUR_protein|mol2

> <Gold.PLP.Fitness>
46.9766

> <Gold.PLP.PLP>
-45.7717

> <Gold.PLP.part.hbond>
-3.3778

> <Gold.PLP.part.metal>
0.0000

> <Gold.PLP.part.buried>
-4.4625

> <Gold.PLP.part.nonpolar>
-36.9780

> <Gold.PLP.part.repulsive>
0.0000

> <Gold.PLP.ligand.clash>
0.0000

> <Gold.PLP.ligand.torsion>
0.9108

> <Gold.PLP.Chemscore.Hbond>
1.0000

> <Gold.PLP.Chemscore.CHOScore>
0.0000

> <Gold.PLP.Chemscore.Metal>
0.0000

> <Gold.Chemscore.Hbonds>
donor molecule, donor type, donor heavy atom, donor atom, acceptor molecule, acceptor atom, score
      P1  H  7997  8009       L1     3  0.90

> <Gold.PLP.Chemscore.Internal.Correction>
0.0265

> <Gold.Rescore>
     Score         DG    S(hbond)    S(metal)    S(lipo)     H(rot)  DE(clash)    DE(int)     intcor
     11.18     -13.62       0.07        0.00     108.83       1.88       0.36       2.08       ----

> <Gold.Chemscore.Fitness>
11.1794

> <Gold.Chemscore.DG>
-13.6186

> <Gold.Chemscore.ZeroCoef>
-5.4800

> <Gold.Chemscore.Hbond>
0.0685

> <Gold.Chemscore.Metal>
0.0000

> <Gold.Chemscore.Lipo>
108.8256

> <Gold.Chemscore.Internal_Hbond>
0.0000

> <Gold.Chemscore.DEClash>
0.3558

> <Gold.Chemscore.DEInternal>
2.0834

> <Gold.Chemscore.Rot>
1.8839

> <Gold.Chemscore.Internal.Correction>
   9.000000E+99

> <Gold.Chemscore.Hbonds>
donor molecule, donor type, donor heavy atom, donor atom, acceptor molecule, acceptor atom, score
      P1  H  7997  8009       L1     3  0.05

> <Gold.Chemscore.Hbond.Weighted>
-0.2287

> <Gold.Chemscore.Metal.Weighted>
-0.0000

> <Gold.Chemscore.Lipo.Weighted>
-12.7326

> <Gold.Chemscore.Internal_Hbond.Weighted>
0.0000

> <Gold.Chemscore.DEClash.Weighted>
0.3558

> <Gold.Chemscore.DEInternal.Weighted>
2.0834

> <Gold.Chemscore.Rot.Weighted>
4.8227

> <Gold.Chemscore.Internal.Correction.Weighted>
   9.000000E+99

> <Gold.Protein.RotatedTorsions>
[ 6907 6896 6895 6894 ] final    9.54 input  -60.11 | X-H torsion
[ 7974 7965 7964 7962 ] final -121.39 input  175.53 | X-H torsion
[ 8008 7997 7996 7995 ] final  175.67 input   59.86 | X-H torsion
[ 10167 10162 10161 10158 ] final  169.60 input  -65.29 | X-H torsion
[ 10718 10713 10712 10709 ] final  -54.09 input   66.30 | X-H torsion
[ 10763 10752 10751 10750 ] final   19.08 input  -60.55 | X-H torsion
[ 11005 11000 10999 10996 ] final  -27.63 input  -57.11 | X-H torsion

> <Gold.Protein.ActiveResidues>
 VAL166  LYS551  ARG553  GLY616  TRP617  ASP618  TYR619  PRO620  LYS621  CYS622 
 ASP623  PHE694  ASN695  SER759  ASP760  ASP761  ALA762  ILE779  LEU786  VAL792 
 PHE793  MET794  SER795  GLU796  ALA797  LYS798  CYS799  TRP800  GLU811  SER814 

> <Gold.Protein.RotatedAtoms>
  151.7238  135.0889  160.0288 H   0  0  0  0  0  0  0  0  0  0  0  0  # atno 6907 bound_to 6896
  152.3585  133.6263  159.6006 H   0  0  0  0  0  0  0  0  0  0  0  0  # atno 6908 bound_to 6896
  150.7588  133.9378  159.3488 H   0  0  0  0  0  0  0  0  0  0  0  0  # atno 6909 bound_to 6896
  145.0409  140.8144  143.4267 H   0  0  0  0  0  0  0  0  0  0  0  0  # atno 7974 bound_to 7965
  156.0846  140.1403  156.9669 H   0  0  0  0  0  0  0  0  0  0  0  0  # atno 8008 bound_to 7997
  154.4605  140.0945  156.6928 H   0  0  0  0  0  0  0  0  0  0  0  0  # atno 8009 bound_to 7997
  155.5020  140.3451  155.4375 H   0  0  0  0  0  0  0  0  0  0  0  0  # atno 8010 bound_to 7997
  139.4996  144.3689  151.9746 H   0  0  0  0  0  0  0  0  0  0  0  0  # atno 10167 bound_to 10162
  156.1480  130.4152  149.9992 H   0  0  0  0  0  0  0  0  0  0  0  0  # atno 10718 bound_to 10713
  153.1193  135.6715  153.9363 H   0  0  0  0  0  0  0  0  0  0  0  0  # atno 10763 bound_to 10752
  153.8883  135.3050  155.3448 H   0  0  0  0  0  0  0  0  0  0  0  0  # atno 10764 bound_to 10752
  154.7607  135.4989  153.9537 H   0  0  0  0  0  0  0  0  0  0  0  0  # atno 10765 bound_to 10752
  140.9136  133.7444  156.0704 H   0  0  0  0  0  0  0  0  0  0  0  0  # atno 11005 bound_to 11000
  145.1649  139.2437  143.5372 LP  0  0  0  0  0  0  0  0  0  0  0  0  # atno 17320 bound_to 7965
  146.3509  140.1385  142.8595 LP  0  0  0  0  0  0  0  0  0  0  0  0  # atno 17321 bound_to 7965
  140.3125  144.3522  150.6030 LP  0  0  0  0  0  0  0  0  0  0  0  0  # atno 17342 bound_to 10162
  140.5788  143.2174  151.7467 LP  0  0  0  0  0  0  0  0  0  0  0  0  # atno 17343 bound_to 10162
  156.7859  130.9238  151.3646 LP  0  0  0  0  0  0  0  0  0  0  0  0  # atno 17370 bound_to 10713
  157.6633  130.8985  149.9876 LP  0  0  0  0  0  0  0  0  0  0  0  0  # atno 17371 bound_to 10713
  140.8078  134.3434  157.5421 LP  0  0  0  0  0  0  0  0  0  0  0  0  # atno 17394 bound_to 11000
  139.8762  134.9236  156.3329 LP  0  0  0  0  0  0  0  0  0  0  0  0  # atno 17395 bound_to 11000

$$$$
