AV-unprocessed.smi:123|AV-procd|sdf|1146|dock6
  -GOLD-   2262018283D 1   1.00000     0.00000
 Structure written by MMmdl.
 43 45  0  0  0  0  0  0  0  0  1 V2000
  150.9108  134.0824  156.6809 C   0  0  0  0  0  0  0  0  0  0  0  0
  149.8617  134.8718  155.8872 C   0  0  1  0  0  0  0  0  0  0  0  0
  150.4911  136.0518  155.3015 N   0  0  0  0  0  0  0  0  0  0  0  0
  151.1312  137.0100  155.9887 C   0  0  0  0  0  0  0  0  0  0  0  0
  151.2683  136.9834  157.2128 O   0  0  0  0  0  0  0  0  0  0  0  0
  151.6965  138.1669  155.1505 C   0  0  0  0  0  0  0  0  0  0  0  0
  151.0699  139.4740  155.4481 N   0  0  0  0  0  0  0  0  0  0  0  0
  150.0191  139.9283  154.6135 C   0  0  0  0  0  0  0  0  0  0  0  0
  149.6128  139.2489  153.6696 O   0  0  0  0  0  0  0  0  0  0  0  0
  149.4768  141.2406  154.9436 C   0  0  0  0  0  0  0  0  0  0  0  0
  148.4866  141.7588  154.1975 F   0  0  0  0  0  0  0  0  0  0  0  0
  149.9575  141.9479  155.9865 C   0  0  0  0  0  0  0  0  0  0  0  0
  150.9692  141.4869  156.8063 N   0  0  0  0  0  0  0  0  0  0  0  0
  151.4717  142.3813  157.9192 C   0  0  1  0  0  0  0  0  0  0  0  0
  151.8976  143.7794  157.4465 C   0  0  0  0  0  0  0  0  0  0  0  0
  151.4760  144.6299  158.6254 C   0  0  0  0  0  0  0  0  0  0  0  0
  150.2099  143.9205  159.0931 C   0  0  0  0  0  0  0  0  0  0  0  0
  150.4636  142.5349  158.8762 O   0  0  0  0  0  0  0  0  0  0  0  0
  151.5723  140.2371  156.5299 C   0  0  0  0  0  0  0  0  0  0  0  0
  152.5163  139.8217  157.2035 O   0  0  0  0  0  0  0  0  0  0  0  0
  149.1957  134.0309  154.8428 C   0  0  0  0  0  0  0  0  0  0  0  0
  149.4044  132.7568  154.3919 C   0  0  0  0  0  0  0  0  0  0  0  0
  148.4412  132.5292  153.3706 C   0  0  0  0  0  0  0  0  0  0  0  0
  147.7189  133.6839  153.2701 C   0  0  0  0  0  0  0  0  0  0  0  0
  148.1684  134.6115  154.1580 O   0  0  0  0  0  0  0  0  0  0  0  0
  150.4607  133.2190  157.1715 H   0  0  0  0  0  0  0  0  0  0  0  0
  151.3656  134.7007  157.4554 H   0  0  0  0  0  0  0  0  0  0  0  0
  151.7092  133.7177  156.0335 H   0  0  0  0  0  0  0  0  0  0  0  0
  149.1029  135.2077  156.5963 H   0  0  0  0  0  0  0  0  0  0  0  0
  150.4217  136.1538  154.2995 H   0  0  0  0  0  0  0  0  0  0  0  0
  152.7765  138.2054  155.3006 H   0  0  0  0  0  0  0  0  0  0  0  0
  151.5871  137.9160  154.0941 H   0  0  0  0  0  0  0  0  0  0  0  0
  149.5233  142.9172  156.1833 H   0  0  0  0  0  0  0  0  0  0  0  0
  152.2985  141.8450  158.3868 H   0  0  0  0  0  0  0  0  0  0  0  0
  152.9683  143.8139  157.2450 H   0  0  0  0  0  0  0  0  0  0  0  0
  151.3632  144.0797  156.5464 H   0  0  0  0  0  0  0  0  0  0  0  0
  152.2364  144.5903  159.4066 H   0  0  0  0  0  0  0  0  0  0  0  0
  151.3079  145.6744  158.3622 H   0  0  0  0  0  0  0  0  0  0  0  0
  149.9793  144.1228  160.1390 H   0  0  0  0  0  0  0  0  0  0  0  0
  149.3531  144.2317  158.4953 H   0  0  0  0  0  0  0  0  0  0  0  0
  150.1561  132.0721  154.7556 H   0  0  0  0  0  0  0  0  0  0  0  0
  148.2954  131.6346  152.7836 H   0  0  0  0  0  0  0  0  0  0  0  0
  146.8929  134.0002  152.6505 H   0  0  0  0  0  0  0  0  0  0  0  0
  1  2  1  0  0  0  0
  1 26  1  0  0  0  0
  1 27  1  0  0  0  0
  1 28  1  0  0  0  0
  2  3  1  0  0  0  0
  2 21  1  0  0  0  0
  2 29  1  0  0  0  0
  3  4  1  0  0  0  0
  3 30  1  0  0  0  0
  4  5  2  0  0  0  0
  4  6  1  0  0  0  0
  6  7  1  0  0  0  0
  6 31  1  0  0  0  0
  6 32  1  0  0  0  0
  7 19  1  0  0  0  0
  7  8  1  0  0  0  0
  8  9  2  0  0  0  0
  8 10  1  0  0  0  0
 10 11  1  0  0  0  0
 10 12  2  0  0  0  0
 12 13  1  0  0  0  0
 12 33  1  0  0  0  0
 13 14  1  0  0  0  0
 13 19  1  0  0  0  0
 14 18  1  0  0  0  0
 14 15  1  0  0  0  0
 14 34  1  0  0  0  0
 15 16  1  0  0  0  0
 15 35  1  0  0  0  0
 15 36  1  0  0  0  0
 16 17  1  0  0  0  0
 16 37  1  0  0  0  0
 16 38  1  0  0  0  0
 17 18  1  0  0  0  0
 17 39  1  0  0  0  0
 17 40  1  0  0  0  0
 19 20  2  0  0  0  0
 21 25  1  0  0  0  0
 21 22  2  0  0  0  0
 22 23  1  0  0  0  0
 22 41  1  0  0  0  0
 23 24  2  0  0  0  0
 23 42  1  0  0  0  0
 24 25  1  0  0  0  0
 24 43  1  0  0  0  0
M  END
> <s_m_source_file>
AV-unprocessed.smi

> <i_m_source_file_index>
123

> <i_lp_mmshare_version>
43012

> <i_f3d_flags>
0

> <s_epik_input>
bzFbY0hdW2NIXVtjSF1jMVtDQEhdKFtDSDNdKVtOSF1DKD1PKVtDSDJdbjJjKD1PKWMoRilbY0hdbihjMj1PKVtDQEBIXTNbQ0gyXVtDSDJdW0NIMl1PMw==

> <s_epik_cmdline>
J2VwaWtfcHl0aG9uJywgJy1waCcsICc3LjAnLCAnLXRuJywgJzgnLCAnLW1hJywgJzIwMCcsICctbWV0YWxfYmluZGluZycsICctaW1hZScsICc8aW5maWxlLm1hZT4nLCAnLW9tYWUnLCAnPG91dGZpbGUubWFlPic=

> <r_lp_tautomer_probability>
1

> <r_epik_Ionization_Penalty>
2.31906e-08

> <r_epik_Ionization_Penalty_Charging>
3.85846e-09

> <r_epik_Ionization_Penalty_Neutral>
1.93321e-08

> <r_epik_State_Penalty>
-0

> <r_epik_Charging_Adjusted_Penalty>
3.85846e-09

> <i_epik_Tot_Q>
0

> <i_epik_Tot_abs_Q>
0

> <r_epik_Metal_State_Penalty>
-0

> <b_epik_Metal_Only>
0

> <s_epik_Chemistry_Notes>
This compound contains an acetal/aminal-like group ( X-CH(R)-Y where X, Y are N, S, or O) that may be acid/base labile, releasing an aldehyde.

> <s_lp_Force_Field>
OPLS_2005

> <r_lp_Energy>
16.2808

> <b_lp_Chiralities_Consistent>
1

> <s_lp_Variant>
AV-unprocessed.smi:123-4

> <Gold.Version>
5.8.1

> <Gold.Id.Protein>
6NUR|6NUR_protein|mol2

> <Gold.PLP.Fitness>
50.6165

> <Gold.PLP.PLP>
-45.4835

> <Gold.PLP.part.hbond>
-1.1192

> <Gold.PLP.part.metal>
0.0000

> <Gold.PLP.part.buried>
-5.5349

> <Gold.PLP.part.nonpolar>
-42.3333

> <Gold.PLP.part.repulsive>
4.1567

> <Gold.PLP.ligand.clash>
0.0000

> <Gold.PLP.ligand.torsion>
0.4594

> <Gold.PLP.Chemscore.Hbond>
1.0000

> <Gold.PLP.Chemscore.CHOScore>
1.0000

> <Gold.PLP.Chemscore.Metal>
0.0000

> <Gold.Chemscore.Hbonds>
donor molecule, donor type, donor heavy atom, donor atom, acceptor molecule, acceptor atom, score
      P1  H  7997  8009       L1    20  1.00
      L1  C    12    33       P1  8028  0.88

> <Gold.PLP.Chemscore.Internal.Correction>
0.0518

> <Gold.Rescore>
     Score         DG    S(hbond)    S(metal)    S(lipo)     H(rot)  DE(clash)    DE(int)     intcor
     10.75     -13.54       0.99        0.00      89.54       2.23       2.30       0.50       ----

> <Gold.Chemscore.Fitness>
10.7476

> <Gold.Chemscore.DG>
-13.5442

> <Gold.Chemscore.ZeroCoef>
-5.4800

> <Gold.Chemscore.Hbond>
0.9905

> <Gold.Chemscore.Metal>
0.0000

> <Gold.Chemscore.Lipo>
89.5437

> <Gold.Chemscore.Internal_Hbond>
0.0000

> <Gold.Chemscore.DEClash>
2.2980

> <Gold.Chemscore.DEInternal>
0.4986

> <Gold.Chemscore.Rot>
2.2347

> <Gold.Chemscore.Internal.Correction>
   9.000000E+99

> <Gold.Chemscore.Hbonds>
donor molecule, donor type, donor heavy atom, donor atom, acceptor molecule, acceptor atom, score
      P1  H  7997  8009       L1    20  0.83

> <Gold.Chemscore.Hbond.Weighted>
-3.3084

> <Gold.Chemscore.Metal.Weighted>
-0.0000

> <Gold.Chemscore.Lipo.Weighted>
-10.4766

> <Gold.Chemscore.Internal_Hbond.Weighted>
0.0000

> <Gold.Chemscore.DEClash.Weighted>
2.2980

> <Gold.Chemscore.DEInternal.Weighted>
0.4986

> <Gold.Chemscore.Rot.Weighted>
5.7208

> <Gold.Chemscore.Internal.Correction.Weighted>
   9.000000E+99

> <Gold.Protein.RotatedTorsions>
[ 6907 6896 6895 6894 ] final   80.17 input  -60.11 | X-H torsion
[ 7974 7965 7964 7962 ] final   17.84 input  175.53 | X-H torsion
[ 8008 7997 7996 7995 ] final -164.87 input   59.86 | X-H torsion
[ 10167 10162 10161 10158 ] final -149.39 input  -65.29 | X-H torsion
[ 10718 10713 10712 10709 ] final  152.48 input   66.30 | X-H torsion
[ 10763 10752 10751 10750 ] final  -23.83 input  -60.55 | X-H torsion
[ 11005 11000 10999 10996 ] final  -89.84 input  -57.11 | X-H torsion

> <Gold.Protein.ActiveResidues>
 VAL166  LYS551  ARG553  GLY616  TRP617  ASP618  TYR619  PRO620  LYS621  CYS622 
 ASP623  PHE694  ASN695  SER759  ASP760  ASP761  ALA762  ILE779  LEU786  VAL792 
 PHE793  MET794  SER795  GLU796  ALA797  LYS798  CYS799  TRP800  GLU811  SER814 

> <Gold.Protein.RotatedAtoms>
  152.5225  134.3399  159.9213 H   0  0  0  0  0  0  0  0  0  0  0  0  # atno 6907 bound_to 6896
  151.3348  133.3979  159.2673 H   0  0  0  0  0  0  0  0  0  0  0  0  # atno 6908 bound_to 6896
  150.9851  134.9216  159.7924 H   0  0  0  0  0  0  0  0  0  0  0  0  # atno 6909 bound_to 6896
  146.2205  139.8544  142.8616 H   0  0  0  0  0  0  0  0  0  0  0  0  # atno 7974 bound_to 7965
  155.8417  140.0949  157.1730 H   0  0  0  0  0  0  0  0  0  0  0  0  # atno 8008 bound_to 7997
  154.3982  140.1400  156.3798 H   0  0  0  0  0  0  0  0  0  0  0  0  # atno 8009 bound_to 7997
  155.8057  140.3451  155.5431 H   0  0  0  0  0  0  0  0  0  0  0  0  # atno 8010 bound_to 7997
  139.7446  143.8610  152.2571 H   0  0  0  0  0  0  0  0  0  0  0  0  # atno 10167 bound_to 10162
  157.2573  131.0791  151.1690 H   0  0  0  0  0  0  0  0  0  0  0  0  # atno 10718 bound_to 10713
  153.6741  135.6970  153.5138 H   0  0  0  0  0  0  0  0  0  0  0  0  # atno 10763 bound_to 10752
  153.2535  135.4267  155.0821 H   0  0  0  0  0  0  0  0  0  0  0  0  # atno 10764 bound_to 10752
  154.8418  135.3537  154.6285 H   0  0  0  0  0  0  0  0  0  0  0  0  # atno 10765 bound_to 10752
  141.1577  133.7655  156.9653 H   0  0  0  0  0  0  0  0  0  0  0  0  # atno 11005 bound_to 11000
  145.2768  141.0126  143.3740 LP  0  0  0  0  0  0  0  0  0  0  0  0  # atno 17320 bound_to 7965
  144.9180  139.4446  143.6555 LP  0  0  0  0  0  0  0  0  0  0  0  0  # atno 17321 bound_to 7965
  139.8570  144.7136  150.9145 LP  0  0  0  0  0  0  0  0  0  0  0  0  # atno 17342 bound_to 10162
  140.7790  143.3850  151.1410 LP  0  0  0  0  0  0  0  0  0  0  0  0  # atno 17343 bound_to 10162
  157.3214  130.6939  149.6271 LP  0  0  0  0  0  0  0  0  0  0  0  0  # atno 17370 bound_to 10713
  155.9664  130.4334  150.5006 LP  0  0  0  0  0  0  0  0  0  0  0  0  # atno 17371 bound_to 10713
  140.1166  134.9443  157.2142 LP  0  0  0  0  0  0  0  0  0  0  0  0  # atno 17394 bound_to 11000
  140.3126  134.3007  155.7263 LP  0  0  0  0  0  0  0  0  0  0  0  0  # atno 17395 bound_to 11000

$$$$
