AV-unprocessed.smi:1247|AV-procd|sdf|5247|dock5
  -GOLD-   22720 4353D 1   1.00000     0.00000
 Structure written by MMmdl.
 47 48  0  0  0  0  0  0  0  0  2 V2000
  143.7554  132.1705  150.0332 C   0  0  0  0  0  0  0  0  0  0  0  0
  144.4680  133.1732  150.8922 C   0  0  0  0  0  0  0  0  0  0  0  0
  145.8396  133.1813  151.2796 C   0  0  0  0  0  0  0  0  0  0  0  0
  145.9294  134.3093  152.0488 C   0  0  0  0  0  0  0  0  0  0  0  0
  147.0190  134.8249  152.6781 N   0  0  0  0  0  0  0  0  0  0  0  0
  147.2749  134.8907  153.9963 C   0  0  0  0  0  0  0  0  0  0  0  0
  146.5182  134.5160  154.8924 O   0  0  0  0  0  0  0  0  0  0  0  0
  148.4768  135.4371  154.2304 N   0  0  0  0  0  0  0  0  0  0  0  0
  149.0500  135.6524  155.5538 C   0  0  0  0  0  0  0  0  0  0  0  0
  148.7777  137.0819  156.0591 C   0  0  0  0  0  0  0  0  0  0  0  0
  149.9810  137.9460  155.9751 N   0  3  1  0  0  0  0  0  0  0  0  0
  150.7762  137.6947  154.7497 C   0  0  0  0  0  0  0  0  0  0  0  0
  152.0522  138.5593  154.7260 C   0  0  2  0  0  0  0  0  0  0  0  0
  153.1369  138.0817  155.7080 C   0  0  0  0  0  0  0  0  0  0  0  0
  151.7190  139.9345  154.9155 O   0  0  0  0  0  0  0  0  0  0  0  0
  150.9800  140.2145  156.1017 C   0  0  1  0  0  0  0  0  0  0  0  0
  150.7066  141.7221  156.1415 C   0  0  0  0  0  0  0  0  0  0  0  0
  149.6790  139.3920  156.1024 C   0  0  0  0  0  0  0  0  0  0  0  0
  144.6920  134.9155  152.0955 N   0  0  0  0  0  0  0  0  0  0  0  0
  144.2667  136.1266  152.7711 C   0  0  0  0  0  0  0  0  0  0  0  0
  143.7917  134.2057  151.3824 N   0  0  0  0  0  0  0  0  0  0  0  0
  144.4527  131.4472  149.6102 H   0  0  0  0  0  0  0  0  0  0  0  0
  143.2401  132.6570  149.2044 H   0  0  0  0  0  0  0  0  0  0  0  0
  143.0136  131.6180  150.6103 H   0  0  0  0  0  0  0  0  0  0  0  0
  146.6105  132.4711  151.0217 H   0  0  0  0  0  0  0  0  0  0  0  0
  147.7236  135.2111  152.0673 H   0  0  0  0  0  0  0  0  0  0  0  0
  149.0360  135.7187  153.4381 H   0  0  0  0  0  0  0  0  0  0  0  0
  148.6584  134.9028  156.2422 H   0  0  0  0  0  0  0  0  0  0  0  0
  150.1247  135.4810  155.4891 H   0  0  0  0  0  0  0  0  0  0  0  0
  147.9845  137.5102  155.4444 H   0  0  0  0  0  0  0  0  0  0  0  0
  148.4024  137.0749  157.0839 H   0  0  0  0  0  0  0  0  0  0  0  0
  151.0429  136.6391  154.6821 H   0  0  0  0  0  0  0  0  0  0  0  0
  150.1626  137.9216  153.8763 H   0  0  0  0  0  0  0  0  0  0  0  0
  152.4814  138.4888  153.7262 H   0  0  0  0  0  0  0  0  0  0  0  0
  153.4674  137.0735  155.4574 H   0  0  0  0  0  0  0  0  0  0  0  0
  152.7838  138.0583  156.7386 H   0  0  0  0  0  0  0  0  0  0  0  0
  154.0106  138.7326  155.6685 H   0  0  0  0  0  0  0  0  0  0  0  0
  151.5766  139.9574  156.9772 H   0  0  0  0  0  0  0  0  0  0  0  0
  150.1458  141.9969  157.0352 H   0  0  0  0  0  0  0  0  0  0  0  0
  150.1302  142.0421  155.2730 H   0  0  0  0  0  0  0  0  0  0  0  0
  151.6390  142.2871  156.1484 H   0  0  0  0  0  0  0  0  0  0  0  0
  149.0344  139.7037  155.2787 H   0  0  0  0  0  0  0  0  0  0  0  0
  149.1313  139.5858  157.0241 H   0  0  0  0  0  0  0  0  0  0  0  0
  145.1230  136.6577  153.1864 H   0  0  0  0  0  0  0  0  0  0  0  0
  143.5817  135.8726  153.5807 H   0  0  0  0  0  0  0  0  0  0  0  0
  143.7564  136.7830  152.0657 H   0  0  0  0  0  0  0  0  0  0  0  0
  150.5732  137.6940  156.7534 H   0  0  0  0  0  0  0  0  0  0  0  0
  1  2  1  0  0  0  0
  1 22  1  0  0  0  0
  1 23  1  0  0  0  0
  1 24  1  0  0  0  0
  2 21  2  0  0  0  0
  2  3  1  0  0  0  0
  3  4  2  0  0  0  0
  3 25  1  0  0  0  0
  4  5  1  0  0  0  0
  4 19  1  0  0  0  0
  5  6  1  0  0  0  0
  5 26  1  0  0  0  0
  6  7  2  0  0  0  0
  6  8  1  0  0  0  0
  8  9  1  0  0  0  0
  8 27  1  0  0  0  0
  9 10  1  0  0  0  0
  9 28  1  0  0  0  0
  9 29  1  0  0  0  0
 10 11  1  0  0  0  0
 10 30  1  0  0  0  0
 10 31  1  0  0  0  0
 11 18  1  0  0  0  0
 11 12  1  0  0  0  0
 11 47  1  0  0  0  0
 12 13  1  0  0  0  0
 12 32  1  0  0  0  0
 12 33  1  0  0  0  0
 13 14  1  0  0  0  0
 13 15  1  0  0  0  0
 13 34  1  0  0  0  0
 14 35  1  0  0  0  0
 14 36  1  0  0  0  0
 14 37  1  0  0  0  0
 15 16  1  0  0  0  0
 16 17  1  0  0  0  0
 16 18  1  0  0  0  0
 16 38  1  0  0  0  0
 17 39  1  0  0  0  0
 17 40  1  0  0  0  0
 17 41  1  0  0  0  0
 18 42  1  0  0  0  0
 18 43  1  0  0  0  0
 19 20  1  0  0  0  0
 19 21  1  0  0  0  0
 20 44  1  0  0  0  0
 20 45  1  0  0  0  0
 20 46  1  0  0  0  0
M  CHG  1  11   1
M  END
> <s_m_source_file>
AV-unprocessed.smi

> <i_m_source_file_index>
1247

> <i_lp_mmshare_version>
43012

> <i_f3d_flags>
0

> <s_epik_input>
W0NIM11jMVtjSF1jKG4objEpW0NIM10pW05IXUMoPU8pW05IXVtDSDJdW0NIMl1OMltDSDJdW0NAQEhdKFtDSDNdKU9bQ0BASF0oW0NIM10pW0NIMl0y

> <s_epik_cmdline>
J2VwaWtfcHl0aG9uJywgJy1waCcsICc3LjAnLCAnLXRuJywgJzgnLCAnLW1hJywgJzIwMCcsICctbWV0YWxfYmluZGluZycsICctaW1hZScsICc8aW5maWxlLm1hZT4nLCAnLW9tYWUnLCAnPG91dGZpbGUubWFlPic=

> <r_lp_tautomer_probability>
1

> <r_epik_Ionization_Penalty>
0.663902

> <r_epik_Ionization_Penalty_Charging>
0.663826

> <r_epik_Ionization_Penalty_Neutral>
7.65444e-05

> <r_epik_State_Penalty>
0.683414

> <r_epik_Charging_Adjusted_Penalty>
1.34724

> <i_epik_Tot_Q>
1

> <i_epik_Tot_abs_Q>
1

> <r_epik_Metal_State_Penalty>
0.683419

> <b_epik_Metal_Only>
0

> <s_lp_Force_Field>
OPLS_2005

> <r_lp_Energy>
19.2404

> <b_lp_Chiralities_Consistent>
1

> <s_lp_Variant>
AV-unprocessed.smi:1247-5

> <Gold.Version>
5.8.1

> <Gold.Id.Protein>
6NUR|6NUR_protein|mol2

> <Gold.PLP.Fitness>
37.0717

> <Gold.PLP.PLP>
-30.9549

> <Gold.PLP.part.hbond>
-2.8668

> <Gold.PLP.part.metal>
0.0000

> <Gold.PLP.part.buried>
-4.2724

> <Gold.PLP.part.nonpolar>
-24.8449

> <Gold.PLP.part.repulsive>
0.2741

> <Gold.PLP.ligand.clash>
0.0000

> <Gold.PLP.ligand.torsion>
1.3180

> <Gold.PLP.Chemscore.Hbond>
2.9120

> <Gold.PLP.Chemscore.CHOScore>
0.0000

> <Gold.PLP.Chemscore.Metal>
0.0000

> <Gold.Chemscore.Hbonds>
donor molecule, donor type, donor heavy atom, donor atom, acceptor molecule, acceptor atom, score
      L1  H     5    26       P1  7948  1.00
      L1  H     8    27       P1  7948  0.90
      P1  H  7989  7998       L1    15  1.00

> <Gold.PLP.Chemscore.Internal.Correction>
0.0167

> <Gold.Rescore>
     Score         DG    S(hbond)    S(metal)    S(lipo)     H(rot)  DE(clash)    DE(int)     intcor
     17.84     -19.08       2.68        0.00      72.91       1.52       0.09       1.15       ----

> <Gold.Chemscore.Fitness>
17.8370

> <Gold.Chemscore.DG>
-19.0780

> <Gold.Chemscore.ZeroCoef>
-5.4800

> <Gold.Chemscore.Hbond>
2.6840

> <Gold.Chemscore.Metal>
0.0000

> <Gold.Chemscore.Lipo>
72.9082

> <Gold.Chemscore.Internal_Hbond>
0.0000

> <Gold.Chemscore.DEClash>
0.0948

> <Gold.Chemscore.DEInternal>
1.1463

> <Gold.Chemscore.Rot>
1.5221

> <Gold.Chemscore.Internal.Correction>
   9.000000E+99

> <Gold.Chemscore.Hbonds>
donor molecule, donor type, donor heavy atom, donor atom, acceptor molecule, acceptor atom, score
      L1  H     5    26       P1  7948  0.88
      L1  H     8    27       P1  7948  0.72
      P1  H  7989  7998       L1    15  0.86

> <Gold.Chemscore.Hbond.Weighted>
-8.9644

> <Gold.Chemscore.Metal.Weighted>
-0.0000

> <Gold.Chemscore.Lipo.Weighted>
-8.5303

> <Gold.Chemscore.Internal_Hbond.Weighted>
0.0000

> <Gold.Chemscore.DEClash.Weighted>
0.0948

> <Gold.Chemscore.DEInternal.Weighted>
1.1463

> <Gold.Chemscore.Rot.Weighted>
3.8967

> <Gold.Chemscore.Internal.Correction.Weighted>
   9.000000E+99

> <Gold.Protein.RotatedTorsions>
[ 6907 6896 6895 6894 ] final   39.36 input  -60.11 | X-H torsion
[ 7974 7965 7964 7962 ] final  125.82 input  175.53 | X-H torsion
[ 8008 7997 7996 7995 ] final  138.20 input   59.86 | X-H torsion
[ 10167 10162 10161 10158 ] final   27.02 input  -65.29 | X-H torsion
[ 10718 10713 10712 10709 ] final  -17.15 input   66.30 | X-H torsion
[ 10763 10752 10751 10750 ] final    5.59 input  -60.55 | X-H torsion
[ 11005 11000 10999 10996 ] final   26.98 input  -57.11 | X-H torsion

> <Gold.Protein.ActiveResidues>
 VAL166  LYS551  ARG553  GLY616  TRP617  ASP618  TYR619  PRO620  LYS621  CYS622 
 ASP623  PHE694  ASN695  SER759  ASP760  ASP761  ALA762  ILE779  LEU786  VAL792 
 PHE793  MET794  SER795  GLU796  ALA797  LYS798  CYS799  TRP800  GLU811  SER814 

> <Gold.Protein.RotatedAtoms>
  152.1685  134.8854  160.0536 H   0  0  0  0  0  0  0  0  0  0  0  0  # atno 6907 bound_to 6896
  151.9823  133.3757  159.4120 H   0  0  0  0  0  0  0  0  0  0  0  0  # atno 6908 bound_to 6896
  150.6898  134.3948  159.5136 H   0  0  0  0  0  0  0  0  0  0  0  0  # atno 6909 bound_to 6896
  145.0687  139.3747  143.4969 H   0  0  0  0  0  0  0  0  0  0  0  0  # atno 7974 bound_to 7965
  156.2998  140.2399  156.4035 H   0  0  0  0  0  0  0  0  0  0  0  0  # atno 8008 bound_to 7997
  154.8505  140.0424  157.1621 H   0  0  0  0  0  0  0  0  0  0  0  0  # atno 8009 bound_to 7997
  154.9004  140.2976  155.5325 H   0  0  0  0  0  0  0  0  0  0  0  0  # atno 8010 bound_to 7997
  140.4974  144.0370  150.6319 H   0  0  0  0  0  0  0  0  0  0  0  0  # atno 10167 bound_to 10162
  156.5776  130.4765  149.6335 H   0  0  0  0  0  0  0  0  0  0  0  0  # atno 10718 bound_to 10713
  153.2576  135.6920  153.7612 H   0  0  0  0  0  0  0  0  0  0  0  0  # atno 10763 bound_to 10752
  153.6683  135.3348  155.3147 H   0  0  0  0  0  0  0  0  0  0  0  0  # atno 10764 bound_to 10752
  154.8418  135.4493  154.1556 H   0  0  0  0  0  0  0  0  0  0  0  0  # atno 10765 bound_to 10752
  140.3312  134.2435  155.7702 H   0  0  0  0  0  0  0  0  0  0  0  0  # atno 11005 bound_to 11000
  146.3528  140.0420  142.8642 LP  0  0  0  0  0  0  0  0  0  0  0  0  # atno 17320 bound_to 7965
  145.1320  140.9523  143.4539 LP  0  0  0  0  0  0  0  0  0  0  0  0  # atno 17321 bound_to 7965
  140.3657  143.2883  152.0335 LP  0  0  0  0  0  0  0  0  0  0  0  0  # atno 17342 bound_to 10162
  139.4864  144.6269  151.7147 LP  0  0  0  0  0  0  0  0  0  0  0  0  # atno 17343 bound_to 10162
  156.2660  130.6989  151.1773 LP  0  0  0  0  0  0  0  0  0  0  0  0  # atno 17370 bound_to 10713
  157.7334  131.0591  150.5579 LP  0  0  0  0  0  0  0  0  0  0  0  0  # atno 17371 bound_to 10713
  141.2063  133.7838  157.0186 LP  0  0  0  0  0  0  0  0  0  0  0  0  # atno 17394 bound_to 11000
  140.0859  134.9621  157.1699 LP  0  0  0  0  0  0  0  0  0  0  0  0  # atno 17395 bound_to 11000

$$$$
