AV-unprocessed.smi:2096|AV-procd|sdf|8562|dock9
  -GOLD-   2272011293D 1   1.00000     0.00000
 Structure written by MMmdl.
 35 36  0  0  0  0  0  0  0  0  1 V2000
  153.7473  141.9007  159.9483 C   0  0  0  0  0  0  0  0  0  0  0  0
  152.6687  142.2160  159.0351 N   0  0  0  0  0  0  0  0  0  0  0  0
  151.9540  143.4276  159.1992 C   0  0  0  0  0  0  0  0  0  0  0  0
  152.2138  144.2383  160.0888 O   0  0  0  0  0  0  0  0  0  0  0  0
  150.8875  143.6340  158.2264 C   0  0  0  0  0  0  0  0  0  0  0  0
  150.6392  142.7201  157.2629 C   0  0  0  0  0  0  0  0  0  0  0  0
  151.3556  141.5455  157.1233 N   0  0  0  0  0  0  0  0  0  0  0  0
  151.0086  140.6026  156.0525 C   0  0  0  0  0  0  0  0  0  0  0  0
  149.5486  140.7279  155.5973 C   0  0  0  0  0  0  0  0  0  0  0  0
  149.2755  140.9861  154.4242 O   0  0  0  0  0  0  0  0  0  0  0  0
  148.6169  140.5188  156.5375 N   0  0  0  0  0  0  0  0  0  0  0  0
  147.1816  140.5904  156.3037 C   0  0  0  0  0  0  0  0  0  0  0  0
  146.7989  141.9580  155.7515 C   0  0  0  0  0  0  0  0  0  0  0  0
  145.3274  142.3973  155.7693 C   0  0  0  0  0  0  0  0  0  0  0  0
  145.5743  143.1225  154.4436 C   0  0  0  0  0  0  0  0  0  0  0  0
  146.7690  142.1889  154.2325 C   0  0  0  0  0  0  0  0  0  0  0  0
  152.4036  141.2647  158.0259 C   0  0  0  0  0  0  0  0  0  0  0  0
  153.0577  140.2231  157.9280 O   0  0  0  0  0  0  0  0  0  0  0  0
  153.8747  142.6800  160.6988 H   0  0  0  0  0  0  0  0  0  0  0  0
  154.6575  141.8077  159.3528 H   0  0  0  0  0  0  0  0  0  0  0  0
  153.4926  140.9579  160.4358 H   0  0  0  0  0  0  0  0  0  0  0  0
  150.2879  144.5309  158.2786 H   0  0  0  0  0  0  0  0  0  0  0  0
  149.8355  142.9183  156.5686 H   0  0  0  0  0  0  0  0  0  0  0  0
  151.6499  140.7716  155.1866 H   0  0  0  0  0  0  0  0  0  0  0  0
  151.2121  139.5790  156.3734 H   0  0  0  0  0  0  0  0  0  0  0  0
  148.9209  140.3077  157.4769 H   0  0  0  0  0  0  0  0  0  0  0  0
  146.8875  139.8030  155.6076 H   0  0  0  0  0  0  0  0  0  0  0  0
  146.6565  140.3983  157.2403 H   0  0  0  0  0  0  0  0  0  0  0  0
  147.3997  142.7443  156.2139 H   0  0  0  0  0  0  0  0  0  0  0  0
  144.6335  141.5610  155.6678 H   0  0  0  0  0  0  0  0  0  0  0  0
  145.0554  143.0463  156.6023 H   0  0  0  0  0  0  0  0  0  0  0  0
  144.7759  143.0171  153.7085 H   0  0  0  0  0  0  0  0  0  0  0  0
  145.8688  144.1643  154.5788 H   0  0  0  0  0  0  0  0  0  0  0  0
  147.6592  142.6703  153.8266 H   0  0  0  0  0  0  0  0  0  0  0  0
  146.5070  141.2901  153.6717 H   0  0  0  0  0  0  0  0  0  0  0  0
  1  2  1  0  0  0  0
  1 19  1  0  0  0  0
  1 20  1  0  0  0  0
  1 21  1  0  0  0  0
  2 17  1  0  0  0  0
  2  3  1  0  0  0  0
  3  4  2  0  0  0  0
  3  5  1  0  0  0  0
  5  6  2  0  0  0  0
  5 22  1  0  0  0  0
  6  7  1  0  0  0  0
  6 23  1  0  0  0  0
  7  8  1  0  0  0  0
  7 17  1  0  0  0  0
  8  9  1  0  0  0  0
  8 24  1  0  0  0  0
  8 25  1  0  0  0  0
  9 10  2  0  0  0  0
  9 11  1  0  0  0  0
 11 12  1  0  0  0  0
 11 26  1  0  0  0  0
 12 13  1  0  0  0  0
 12 27  1  0  0  0  0
 12 28  1  0  0  0  0
 13 16  1  0  0  0  0
 13 14  1  0  0  0  0
 13 29  1  0  0  0  0
 14 15  1  0  0  0  0
 14 30  1  0  0  0  0
 14 31  1  0  0  0  0
 15 16  1  0  0  0  0
 15 32  1  0  0  0  0
 15 33  1  0  0  0  0
 16 34  1  0  0  0  0
 16 35  1  0  0  0  0
 17 18  2  0  0  0  0
M  END
> <s_m_source_file>
AV-unprocessed.smi

> <i_m_source_file_index>
2096

> <i_lp_mmshare_version>
43012

> <i_f3d_flags>
0

> <s_epik_input>
W0NIM11uMWMoPU8pW2NIXVtjSF1uKGMxPU8pW0NIMl1DKD1PKVtOSF1bQ0gyXVtDSF0yW0NIMl1bQ0gyXVtDSDJdMg==

> <s_epik_cmdline>
J2VwaWtfcHl0aG9uJywgJy1waCcsICc3LjAnLCAnLXRuJywgJzgnLCAnLW1hJywgJzIwMCcsICctbWV0YWxfYmluZGluZycsICctaW1hZScsICc8aW5maWxlLm1hZT4nLCAnLW9tYWUnLCAnPG91dGZpbGUubWFlPic=

> <r_lp_tautomer_probability>
1

> <r_epik_Ionization_Penalty>
3.11585e-08

> <r_epik_Ionization_Penalty_Charging>
1.18568e-08

> <r_epik_Ionization_Penalty_Neutral>
1.93017e-08

> <r_epik_State_Penalty>
-0

> <r_epik_Charging_Adjusted_Penalty>
1.18568e-08

> <i_epik_Tot_Q>
0

> <i_epik_Tot_abs_Q>
0

> <r_epik_Metal_State_Penalty>
-0

> <b_epik_Metal_Only>
0

> <s_lp_Force_Field>
OPLS_2005

> <r_lp_Energy>
20.363

> <b_lp_Chiralities_Consistent>
1

> <s_lp_Variant>
AV-unprocessed.smi:2096-1

> <Gold.Version>
5.8.1

> <Gold.Id.Protein>
6NUR|6NUR_protein|mol2

> <Gold.PLP.Fitness>
44.3983

> <Gold.PLP.PLP>
-37.4419

> <Gold.PLP.part.hbond>
-2.0000

> <Gold.PLP.part.metal>
0.0000

> <Gold.PLP.part.buried>
-5.9150

> <Gold.PLP.part.nonpolar>
-28.8165

> <Gold.PLP.part.repulsive>
0.1849

> <Gold.PLP.ligand.clash>
0.0000

> <Gold.PLP.ligand.torsion>
0.6113

> <Gold.PLP.Chemscore.Hbond>
1.7040

> <Gold.PLP.Chemscore.CHOScore>
1.0000

> <Gold.PLP.Chemscore.Metal>
0.0000

> <Gold.Chemscore.Hbonds>
donor molecule, donor type, donor heavy atom, donor atom, acceptor molecule, acceptor atom, score
      P1  H  7997  8009       L1    18  0.96
      L1  C     6    23       P1  8028  1.00

> <Gold.PLP.Chemscore.Internal.Correction>
0.0670

> <Gold.Rescore>
     Score         DG    S(hbond)    S(metal)    S(lipo)     H(rot)  DE(clash)    DE(int)     intcor
     12.15     -12.84       1.61        0.00      56.04       1.78       0.03       0.66       ----

> <Gold.Chemscore.Fitness>
12.1486

> <Gold.Chemscore.DG>
-12.8404

> <Gold.Chemscore.ZeroCoef>
-5.4800

> <Gold.Chemscore.Hbond>
1.6071

> <Gold.Chemscore.Metal>
0.0000

> <Gold.Chemscore.Lipo>
56.0368

> <Gold.Chemscore.Internal_Hbond>
0.0000

> <Gold.Chemscore.DEClash>
0.0272

> <Gold.Chemscore.DEInternal>
0.6646

> <Gold.Chemscore.Rot>
1.7827

> <Gold.Chemscore.Internal.Correction>
   9.000000E+99

> <Gold.Chemscore.Hbonds>
donor molecule, donor type, donor heavy atom, donor atom, acceptor molecule, acceptor atom, score
      P1  H  7997  8009       L1    18  0.92

> <Gold.Chemscore.Hbond.Weighted>
-5.3677

> <Gold.Chemscore.Metal.Weighted>
-0.0000

> <Gold.Chemscore.Lipo.Weighted>
-6.5563

> <Gold.Chemscore.Internal_Hbond.Weighted>
0.0000

> <Gold.Chemscore.DEClash.Weighted>
0.0272

> <Gold.Chemscore.DEInternal.Weighted>
0.6646

> <Gold.Chemscore.Rot.Weighted>
4.5636

> <Gold.Chemscore.Internal.Correction.Weighted>
   9.000000E+99

> <Gold.Protein.RotatedTorsions>
[ 6907 6896 6895 6894 ] final  109.65 input  -60.11 | X-H torsion
[ 7974 7965 7964 7962 ] final  119.98 input  175.53 | X-H torsion
[ 8008 7997 7996 7995 ] final  161.16 input   59.86 | X-H torsion
[ 10167 10162 10161 10158 ] final  -19.64 input  -65.29 | X-H torsion
[ 10718 10713 10712 10709 ] final  -66.74 input   66.30 | X-H torsion
[ 10763 10752 10751 10750 ] final  120.50 input  -60.55 | X-H torsion
[ 11005 11000 10999 10996 ] final -160.19 input  -57.11 | X-H torsion

> <Gold.Protein.ActiveResidues>
 VAL166  LYS551  ARG553  GLY616  TRP617  ASP618  TYR619  PRO620  LYS621  CYS622 
 ASP623  PHE694  ASN695  SER759  ASP760  ASP761  ALA762  ILE779  LEU786  VAL792 
 PHE793  MET794  SER795  GLU796  ALA797  LYS798  CYS799  TRP800  GLU811  SER814 

> <Gold.Protein.RotatedAtoms>
  152.5057  133.8913  159.7395 H   0  0  0  0  0  0  0  0  0  0  0  0  # atno 6907 bound_to 6896
  150.9351  133.6712  159.2809 H   0  0  0  0  0  0  0  0  0  0  0  0  # atno 6908 bound_to 6896
  151.4043  135.0980  159.9618 H   0  0  0  0  0  0  0  0  0  0  0  0  # atno 6909 bound_to 6896
  145.1367  139.3293  143.4637 H   0  0  0  0  0  0  0  0  0  0  0  0  # atno 7974 bound_to 7965
  156.2122  140.1785  156.7669 H   0  0  0  0  0  0  0  0  0  0  0  0  # atno 8008 bound_to 7997
  154.5739  140.0677  156.9035 H   0  0  0  0  0  0  0  0  0  0  0  0  # atno 8009 bound_to 7997
  155.2623  140.3336  155.4274 H   0  0  0  0  0  0  0  0  0  0  0  0  # atno 8010 bound_to 7997
  140.7270  143.4799  151.0132 H   0  0  0  0  0  0  0  0  0  0  0  0  # atno 10167 bound_to 10162
  156.0595  130.4267  150.1753 H   0  0  0  0  0  0  0  0  0  0  0  0  # atno 10718 bound_to 10713
  153.5995  135.3450  155.2940 H   0  0  0  0  0  0  0  0  0  0  0  0  # atno 10763 bound_to 10752
  154.8638  135.4224  154.2428 H   0  0  0  0  0  0  0  0  0  0  0  0  # atno 10764 bound_to 10752
  153.3253  135.7041  153.7066 H   0  0  0  0  0  0  0  0  0  0  0  0  # atno 10765 bound_to 10752
  140.6343  134.4618  157.5231 H   0  0  0  0  0  0  0  0  0  0  0  0  # atno 11005 bound_to 11000
  146.3509  140.1387  142.8595 LP  0  0  0  0  0  0  0  0  0  0  0  0  # atno 17320 bound_to 7965
  145.0577  140.9064  143.4957 LP  0  0  0  0  0  0  0  0  0  0  0  0  # atno 17321 bound_to 7965
  139.8497  143.7455  152.3178 LP  0  0  0  0  0  0  0  0  0  0  0  0  # atno 17342 bound_to 10162
  139.7633  144.7500  151.0332 LP  0  0  0  0  0  0  0  0  0  0  0  0  # atno 17343 bound_to 10162
  156.9824  130.9868  151.3434 LP  0  0  0  0  0  0  0  0  0  0  0  0  # atno 17370 bound_to 10713
  157.5593  130.8235  149.8245 LP  0  0  0  0  0  0  0  0  0  0  0  0  # atno 17371 bound_to 10713
  139.9104  134.8357  156.1549 LP  0  0  0  0  0  0  0  0  0  0  0  0  # atno 17394 bound_to 11000
  141.0653  133.6822  156.2032 LP  0  0  0  0  0  0  0  0  0  0  0  0  # atno 17395 bound_to 11000

$$$$
