AV-unprocessed.smi:8|AV-procd|sdf|45|dock10
  -GOLD-   2262015163D 1   1.00000     0.00000
 Structure written by MMmdl.
 34 35  0  0  0  0  0  0  0  0  1 V2000
  146.6357  143.4367  153.3980 C   0  0  0  0  0  0  0  0  0  0  0  0
  146.3811  142.1022  154.1150 C   0  0  0  0  0  0  0  0  0  0  0  0
  147.5673  141.2894  154.2273 N   0  0  0  0  0  0  0  0  0  0  0  0
  148.6739  141.6854  154.9625 C   0  0  0  0  0  0  0  0  0  0  0  0
  149.8111  140.9516  155.0657 C   0  0  0  0  0  0  0  0  0  0  0  0
  150.9916  141.4165  155.9044 C   0  0  0  0  0  0  0  0  0  0  0  0
  150.6537  142.5145  156.8009 N   0  0  0  0  0  0  0  0  0  0  0  0
  151.0954  142.5076  158.1328 C   0  0  0  0  0  0  0  0  0  0  0  0
  151.2286  141.3216  158.7734 N   0  0  0  0  0  0  0  0  0  0  0  0
  151.6520  141.3517  160.0394 C   0  0  0  0  0  0  0  0  0  0  0  0
  151.9616  142.4367  160.7518 N   0  0  0  0  0  0  0  0  0  0  0  0
  151.8360  143.6268  160.1273 C   0  0  0  0  0  0  0  0  0  0  0  0
  151.3975  143.7251  158.7891 C   0  0  0  0  0  0  0  0  0  0  0  0
  151.2624  145.0744  158.1072 C   0  0  0  0  0  0  0  0  0  0  0  0
  149.8912  139.6540  154.3849 C   0  0  0  0  0  0  0  0  0  0  0  0
  150.8552  138.8910  154.4153 O   0  0  0  0  0  0  0  0  0  0  0  0
  148.7552  139.2984  153.6516 N   0  0  0  0  0  0  0  0  0  0  0  0
  147.5934  140.0594  153.5328 C   0  0  0  0  0  0  0  0  0  0  0  0
  146.6568  139.6486  152.8472 O   0  0  0  0  0  0  0  0  0  0  0  0
  148.7782  138.4144  153.1642 H   0  0  0  0  0  0  0  0  0  0  0  0
  145.7267  144.0377  153.3677 H   0  0  0  0  0  0  0  0  0  0  0  0
  146.9644  143.2849  152.3697 H   0  0  0  0  0  0  0  0  0  0  0  0
  147.4013  144.0188  153.9117 H   0  0  0  0  0  0  0  0  0  0  0  0
  146.0302  142.2750  155.1335 H   0  0  0  0  0  0  0  0  0  0  0  0
  145.6106  141.5035  153.6246 H   0  0  0  0  0  0  0  0  0  0  0  0
  148.6315  142.6343  155.4784 H   0  0  0  0  0  0  0  0  0  0  0  0
  151.3732  140.5834  156.4958 H   0  0  0  0  0  0  0  0  0  0  0  0
  151.7958  141.7235  155.2341 H   0  0  0  0  0  0  0  0  0  0  0  0
  149.9132  143.1468  156.5344 H   0  0  0  0  0  0  0  0  0  0  0  0
  151.7522  140.3995  160.5388 H   0  0  0  0  0  0  0  0  0  0  0  0
  152.0876  144.5058  160.7024 H   0  0  0  0  0  0  0  0  0  0  0  0
  151.5395  145.8859  158.7805 H   0  0  0  0  0  0  0  0  0  0  0  0
  150.2333  145.2368  157.7859 H   0  0  0  0  0  0  0  0  0  0  0  0
  151.9105  145.1243  157.2318 H   0  0  0  0  0  0  0  0  0  0  0  0
  1  2  1  0  0  0  0
  1 21  1  0  0  0  0
  1 22  1  0  0  0  0
  1 23  1  0  0  0  0
  2  3  1  0  0  0  0
  2 24  1  0  0  0  0
  2 25  1  0  0  0  0
  3 18  1  0  0  0  0
  3  4  1  0  0  0  0
  4  5  2  0  0  0  0
  4 26  1  0  0  0  0
  5  6  1  0  0  0  0
  5 15  1  0  0  0  0
  6  7  1  0  0  0  0
  6 27  1  0  0  0  0
  6 28  1  0  0  0  0
  7  8  1  0  0  0  0
  7 29  1  0  0  0  0
  8 13  1  0  0  0  0
  8  9  2  0  0  0  0
  9 10  1  0  0  0  0
 10 11  2  0  0  0  0
 10 30  1  0  0  0  0
 11 12  1  0  0  0  0
 12 13  2  0  0  0  0
 12 31  1  0  0  0  0
 13 14  1  0  0  0  0
 14 32  1  0  0  0  0
 14 33  1  0  0  0  0
 14 34  1  0  0  0  0
 15 16  2  0  0  0  0
 15 17  1  0  0  0  0
 17 20  1  0  0  0  0
 17 18  1  0  0  0  0
 18 19  2  0  0  0  0
M  END
> <s_m_source_file>
AV-unprocessed.smi

> <i_m_source_file_index>
8

> <i_lp_mmshare_version>
43012

> <i_f3d_flags>
0

> <s_epik_input>
W0NIM11bQ0gyXW4xW2NIXWMoYyg9TylbbkhdYzE9TylbQ0gyXVtOSF1jMm5bY0hdbltjSF1jMltDSDNd

> <s_epik_cmdline>
J2VwaWtfcHl0aG9uJywgJy1waCcsICc3LjAnLCAnLXRuJywgJzgnLCAnLW1hJywgJzIwMCcsICctbWV0YWxfYmluZGluZycsICctaW1hZScsICc8aW5maWxlLm1hZT4nLCAnLW9tYWUnLCAnPG91dGZpbGUubWFlPic=

> <r_lp_tautomer_probability>
0.999537

> <r_epik_Ionization_Penalty>
0.0165471

> <r_epik_Ionization_Penalty_Charging>
0.000694205

> <r_epik_Ionization_Penalty_Neutral>
0.0158529

> <r_epik_State_Penalty>
0.0119799

> <r_epik_Charging_Adjusted_Penalty>
0.0126741

> <i_epik_Tot_Q>
0

> <i_epik_Tot_abs_Q>
0

> <r_epik_Metal_State_Penalty>
0.262409

> <b_epik_Metal_Only>
0

> <s_lp_Force_Field>
OPLS_2005

> <r_lp_Energy>
9.23324

> <b_lp_Chiralities_Consistent>
1

> <s_lp_Variant>
AV-unprocessed.smi:8-1

> <Gold.Version>
5.8.1

> <Gold.Id.Protein>
6NUR|6NUR_protein|mol2

> <Gold.PLP.Fitness>
39.5471

> <Gold.PLP.PLP>
-35.3382

> <Gold.PLP.part.hbond>
-2.4002

> <Gold.PLP.part.metal>
0.0000

> <Gold.PLP.part.buried>
-4.7091

> <Gold.PLP.part.nonpolar>
-28.0033

> <Gold.PLP.part.repulsive>
0.5910

> <Gold.PLP.ligand.clash>
0.0000

> <Gold.PLP.ligand.torsion>
0.5193

> <Gold.PLP.Chemscore.Hbond>
0.7475

> <Gold.PLP.Chemscore.CHOScore>
1.0000

> <Gold.PLP.Chemscore.Metal>
0.0000

> <Gold.Chemscore.Hbonds>
donor molecule, donor type, donor heavy atom, donor atom, acceptor molecule, acceptor atom, score
      L1  H     7    29       P1  8028  0.89
      L1  C     4    26       P1  8028  1.00

> <Gold.PLP.Chemscore.Internal.Correction>
0.0049

> <Gold.Rescore>
     Score         DG    S(hbond)    S(metal)    S(lipo)     H(rot)  DE(clash)    DE(int)     intcor
     11.34     -12.04       0.97        0.00      66.19       1.73       0.45       0.25       ----

> <Gold.Chemscore.Fitness>
11.3386

> <Gold.Chemscore.DG>
-12.0416

> <Gold.Chemscore.ZeroCoef>
-5.4800

> <Gold.Chemscore.Hbond>
0.9726

> <Gold.Chemscore.Metal>
0.0000

> <Gold.Chemscore.Lipo>
66.1859

> <Gold.Chemscore.Internal_Hbond>
0.0000

> <Gold.Chemscore.DEClash>
0.4496

> <Gold.Chemscore.DEInternal>
0.2534

> <Gold.Chemscore.Rot>
1.7307

> <Gold.Chemscore.Internal.Correction>
   9.000000E+99

> <Gold.Chemscore.Hbonds>
donor molecule, donor type, donor heavy atom, donor atom, acceptor molecule, acceptor atom, score
      L1  H     7    29       P1  8028  0.87
      L1  H    17    20       P1  7948  0.01

> <Gold.Chemscore.Hbond.Weighted>
-3.2484

> <Gold.Chemscore.Metal.Weighted>
-0.0000

> <Gold.Chemscore.Lipo.Weighted>
-7.7438

> <Gold.Chemscore.Internal_Hbond.Weighted>
0.0000

> <Gold.Chemscore.DEClash.Weighted>
0.4496

> <Gold.Chemscore.DEInternal.Weighted>
0.2534

> <Gold.Chemscore.Rot.Weighted>
4.4305

> <Gold.Chemscore.Internal.Correction.Weighted>
   9.000000E+99

> <Gold.Protein.RotatedTorsions>
[ 6907 6896 6895 6894 ] final -117.90 input  -60.11 | X-H torsion
[ 7974 7965 7964 7962 ] final  158.15 input  175.53 | X-H torsion
[ 8008 7997 7996 7995 ] final   -2.28 input   59.86 | X-H torsion
[ 10167 10162 10161 10158 ] final -137.00 input  -65.29 | X-H torsion
[ 10718 10713 10712 10709 ] final  -84.30 input   66.30 | X-H torsion
[ 10763 10752 10751 10750 ] final -148.68 input  -60.55 | X-H torsion
[ 11005 11000 10999 10996 ] final   57.17 input  -57.11 | X-H torsion

> <Gold.Protein.ActiveResidues>
 VAL166  LYS551  ARG553  GLY616  TRP617  ASP618  TYR619  PRO620  LYS621  CYS622 
 ASP623  PHE694  ASN695  SER759  ASP760  ASP761  ALA762  ILE779  LEU786  VAL792 
 PHE793  MET794  SER795  GLU796  ALA797  LYS798  CYS799  TRP800  GLU811  SER814 

> <Gold.Protein.RotatedAtoms>
  150.8175  133.8312  159.3153 H   0  0  0  0  0  0  0  0  0  0  0  0  # atno 6907 bound_to 6896
  151.6079  135.1041  160.0084 H   0  0  0  0  0  0  0  0  0  0  0  0  # atno 6908 bound_to 6896
  152.4265  133.7164  159.6565 H   0  0  0  0  0  0  0  0  0  0  0  0  # atno 6909 bound_to 6896
  144.7862  139.7438  143.6240 H   0  0  0  0  0  0  0  0  0  0  0  0  # atno 7974 bound_to 7965
  154.6374  140.2538  155.7361 H   0  0  0  0  0  0  0  0  0  0  0  0  # atno 8008 bound_to 7997
  156.2511  140.2894  156.0673 H   0  0  0  0  0  0  0  0  0  0  0  0  # atno 8009 bound_to 7997
  155.1649  140.0385  157.2841 H   0  0  0  0  0  0  0  0  0  0  0  0  # atno 8010 bound_to 7997
  139.8621  143.7063  152.2649 H   0  0  0  0  0  0  0  0  0  0  0  0  # atno 10167 bound_to 10162
  156.0008  130.4693  150.4389 H   0  0  0  0  0  0  0  0  0  0  0  0  # atno 10718 bound_to 10713
  154.8220  135.3328  154.7011 H   0  0  0  0  0  0  0  0  0  0  0  0  # atno 10763 bound_to 10752
  153.7643  135.6930  153.4923 H   0  0  0  0  0  0  0  0  0  0  0  0  # atno 10764 bound_to 10752
  153.2089  135.4489  155.0305 H   0  0  0  0  0  0  0  0  0  0  0  0  # atno 10765 bound_to 10752
  140.0473  134.5787  155.9307 H   0  0  0  0  0  0  0  0  0  0  0  0  # atno 11005 bound_to 11000
  146.2095  139.5442  142.9690 LP  0  0  0  0  0  0  0  0  0  0  0  0  # atno 17320 bound_to 7965
  145.5915  141.0369  143.2067 LP  0  0  0  0  0  0  0  0  0  0  0  0  # atno 17321 bound_to 7965
  139.7363  144.7570  151.0722 LP  0  0  0  0  0  0  0  0  0  0  0  0  # atno 17342 bound_to 10162
  140.7773  143.5026  150.9752 LP  0  0  0  0  0  0  0  0  0  0  0  0  # atno 17343 bound_to 10162
  157.2432  131.0530  151.2424 LP  0  0  0  0  0  0  0  0  0  0  0  0  # atno 17370 bound_to 10713
  157.3600  130.7126  149.6495 LP  0  0  0  0  0  0  0  0  0  0  0  0  # atno 17371 bound_to 10713
  141.1913  133.6571  156.5450 LP  0  0  0  0  0  0  0  0  0  0  0  0  # atno 17394 bound_to 11000
  140.3973  134.7387  157.4758 LP  0  0  0  0  0  0  0  0  0  0  0  0  # atno 17395 bound_to 11000

$$$$
