AV-unprocessed.smi:54|AV-procd|sdf|539|dock7
  -GOLD-   2262016423D 1   1.00000     0.00000
 Structure written by MMmdl.
 44 46  0  0  0  0  0  0  0  0  1 V2000
  152.0148  143.3699  161.7023 C   0  0  0  0  0  0  0  0  0  0  0  0
  152.7493  143.1252  160.3740 C   0  0  0  0  0  0  0  0  0  0  0  0
  152.0829  143.8893  159.2187 C   0  0  0  0  0  0  0  0  0  0  0  0
  152.8156  141.6260  160.0606 C   0  0  0  0  0  0  0  0  0  0  0  0
  153.4381  140.8376  160.7732 O   0  0  0  0  0  0  0  0  0  0  0  0
  152.0916  141.2064  158.8737 N   0  0  0  0  0  0  0  0  0  0  0  0
  151.9842  139.9532  158.3740 C   0  0  0  0  0  0  0  0  0  0  0  0
  151.4516  139.6860  157.1902 N   0  0  0  0  0  0  0  0  0  0  0  0
  151.4323  138.3593  156.8620 C   0  0  0  0  0  0  0  0  0  0  0  0
  151.8966  137.3137  157.6312 C   0  0  0  0  0  0  0  0  0  0  0  0
  151.7062  136.1081  156.9652 N   0  0  0  0  0  0  0  0  0  0  0  0
  151.1493  136.4534  155.8377 C   0  0  0  0  0  0  0  0  0  0  0  0
  150.9579  137.8082  155.6919 N   0  0  0  0  0  0  0  0  0  0  0  0
  150.3608  138.5766  154.5511 C   0  0  2  0  0  0  0  0  0  0  0  0
  150.5494  139.9391  154.7923 O   0  0  0  0  0  0  0  0  0  0  0  0
  149.3331  140.5158  155.2482 C   0  0  1  0  0  0  0  0  0  0  0  0
  149.3549  142.0464  155.0974 C   0  0  0  0  0  0  0  0  0  0  0  0
  149.9947  142.6369  156.2083 O   0  0  0  0  0  0  0  0  0  0  0  0
  148.2672  139.7501  154.4538 C   0  0  1  0  0  0  0  0  0  0  0  0
  148.1296  140.2723  153.1453 O   0  0  0  0  0  0  0  0  0  0  0  0
  148.8358  138.3368  154.4066 C   0  0  2  0  0  0  0  0  0  0  0  0
  148.2694  137.5575  155.4475 O   0  0  0  0  0  0  0  0  0  0  0  0
  152.4701  137.5852  158.9175 C   0  0  0  0  0  0  0  0  0  0  0  0
  152.9290  136.7864  159.7311 O   0  0  0  0  0  0  0  0  0  0  0  0
  152.4748  138.9544  159.2155 N   0  0  0  0  0  0  0  0  0  0  0  0
  150.9376  138.2665  153.6788 H   0  0  0  0  0  0  0  0  0  0  0  0
  149.2260  140.2658  156.3052 H   0  0  0  0  0  0  0  0  0  0  0  0
  147.2900  139.7953  154.9370 H   0  0  0  0  0  0  0  0  0  0  0  0
  148.6303  137.8408  153.4569 H   0  0  0  0  0  0  0  0  0  0  0  0
  152.4821  142.8219  162.5216 H   0  0  0  0  0  0  0  0  0  0  0  0
  150.9703  143.0604  161.6470 H   0  0  0  0  0  0  0  0  0  0  0  0
  152.0313  144.4276  161.9660 H   0  0  0  0  0  0  0  0  0  0  0  0
  153.7697  143.4966  160.4803 H   0  0  0  0  0  0  0  0  0  0  0  0
  152.6043  143.7171  158.2762 H   0  0  0  0  0  0  0  0  0  0  0  0
  152.0923  144.9635  159.4054 H   0  0  0  0  0  0  0  0  0  0  0  0
  151.0434  143.5873  159.0845 H   0  0  0  0  0  0  0  0  0  0  0  0
  151.6029  141.9354  158.3755 H   0  0  0  0  0  0  0  0  0  0  0  0
  150.8686  135.7270  155.0893 H   0  0  0  0  0  0  0  0  0  0  0  0
  149.9065  142.3209  154.1981 H   0  0  0  0  0  0  0  0  0  0  0  0
  148.3504  142.4562  154.9893 H   0  0  0  0  0  0  0  0  0  0  0  0
  149.6570  143.5129  156.3185 H   0  0  0  0  0  0  0  0  0  0  0  0
  148.9147  140.0696  152.6596 H   0  0  0  0  0  0  0  0  0  0  0  0
  147.3445  137.4610  155.2793 H   0  0  0  0  0  0  0  0  0  0  0  0
  152.8673  139.2199  160.1066 H   0  0  0  0  0  0  0  0  0  0  0  0
  1  2  1  0  0  0  0
  1 30  1  0  0  0  0
  1 31  1  0  0  0  0
  1 32  1  0  0  0  0
  2  3  1  0  0  0  0
  2  4  1  0  0  0  0
  2 33  1  0  0  0  0
  3 34  1  0  0  0  0
  3 35  1  0  0  0  0
  3 36  1  0  0  0  0
  4  5  2  0  0  0  0
  4  6  1  0  0  0  0
  6 37  1  0  0  0  0
  6  7  1  0  0  0  0
  7 25  1  0  0  0  0
  7  8  2  0  0  0  0
  8  9  1  0  0  0  0
  9 13  1  0  0  0  0
  9 10  2  0  0  0  0
 10 11  1  0  0  0  0
 10 23  1  0  0  0  0
 11 12  2  0  0  0  0
 12 13  1  0  0  0  0
 12 38  1  0  0  0  0
 13 14  1  0  0  0  0
 14 26  1  0  0  0  0
 14 21  1  0  0  0  0
 14 15  1  0  0  0  0
 15 16  1  0  0  0  0
 16 27  1  0  0  0  0
 16 17  1  0  0  0  0
 16 19  1  0  0  0  0
 17 18  1  0  0  0  0
 17 39  1  0  0  0  0
 17 40  1  0  0  0  0
 18 41  1  0  0  0  0
 19 28  1  0  0  0  0
 19 20  1  0  0  0  0
 19 21  1  0  0  0  0
 20 42  1  0  0  0  0
 21 29  1  0  0  0  0
 21 22  1  0  0  0  0
 22 43  1  0  0  0  0
 23 24  2  0  0  0  0
 23 25  1  0  0  0  0
 25 44  1  0  0  0  0
M  END
> <s_m_source_file>
AV-unprocessed.smi

> <i_m_source_file_index>
54

> <i_lp_mmshare_version>
43012

> <i_f3d_flags>
0

> <s_epik_input>
W0NIM11bQ0hdKFtDSDNdKUMoPU8pW05IXWMobjEpW25IXWMoPU8pYyhjMTIpbltjSF1uMltDQEBIXTNPW0NASF0oW0NIMl1bT0hdKVtDQEBIXShbT0hdKVtDQEhdM1tPSF0=

> <s_epik_cmdline>
J2VwaWtfcHl0aG9uJywgJy1waCcsICc3LjAnLCAnLXRuJywgJzgnLCAnLW1hJywgJzIwMCcsICctbWV0YWxfYmluZGluZycsICctaW1hZScsICc8aW5maWxlLm1hZT4nLCAnLW9tYWUnLCAnPG91dGZpbGUubWFlPic=

> <r_lp_tautomer_probability>
0.85571

> <r_epik_Ionization_Penalty>
0.0316551

> <r_epik_Ionization_Penalty_Charging>
0.0316043

> <r_epik_Ionization_Penalty_Neutral>
5.07097e-05

> <r_epik_State_Penalty>
3.15494e-07

> <r_epik_Charging_Adjusted_Penalty>
0.0316047

> <i_epik_Tot_Q>
0

> <i_epik_Tot_abs_Q>
0

> <r_epik_Metal_State_Penalty>
0.421206

> <b_epik_Metal_Only>
0

> <s_epik_Chemistry_Notes>
This compound contains an acetal/aminal-like group ( X-CH(R)-Y where X, Y are N, S, or O) that may be acid/base labile, releasing an aldehyde.

> <s_lp_Force_Field>
OPLS_2005

> <r_lp_Energy>
38.2372

> <b_lp_Chiralities_Consistent>
1

> <s_lp_Variant>
AV-unprocessed.smi:54-11

> <Gold.Version>
5.8.1

> <Gold.Id.Protein>
6NUR|6NUR_protein|mol2

> <Gold.PLP.Fitness>
46.4791

> <Gold.PLP.PLP>
-37.5097

> <Gold.PLP.part.hbond>
-3.5074

> <Gold.PLP.part.metal>
0.0000

> <Gold.PLP.part.buried>
-5.8044

> <Gold.PLP.part.nonpolar>
-28.9633

> <Gold.PLP.part.repulsive>
0.2660

> <Gold.PLP.ligand.clash>
1.6225

> <Gold.PLP.ligand.torsion>
0.5025

> <Gold.PLP.Chemscore.Hbond>
3.8480

> <Gold.PLP.Chemscore.CHOScore>
0.0000

> <Gold.PLP.Chemscore.Metal>
0.0000

> <Gold.Chemscore.Hbonds>
donor molecule, donor type, donor heavy atom, donor atom, acceptor molecule, acceptor atom, score
      L1  H    18    41       P1  8028  0.94
      L1  H    20    42       P1  7957  0.90
      P1  H  6896  6908       L1    24  1.00
      P1  H  7989  7998       L1    15  1.00

> <Gold.PLP.Chemscore.Internal.Correction>
0.0529

> <Gold.Rescore>
     Score         DG    S(hbond)    S(metal)    S(lipo)     H(rot)  DE(clash)    DE(int)     intcor
     11.45     -15.27       3.81        0.00      63.58       4.05       0.52       3.29       ----

> <Gold.Chemscore.Fitness>
11.4503

> <Gold.Chemscore.DG>
-15.2668

> <Gold.Chemscore.ZeroCoef>
-5.4800

> <Gold.Chemscore.Hbond>
3.8068

> <Gold.Chemscore.Metal>
0.0000

> <Gold.Chemscore.Lipo>
63.5759

> <Gold.Chemscore.Internal_Hbond>
0.0000

> <Gold.Chemscore.DEClash>
0.5225

> <Gold.Chemscore.DEInternal>
3.2940

> <Gold.Chemscore.Rot>
4.0493

> <Gold.Chemscore.Internal.Correction>
   9.000000E+99

> <Gold.Chemscore.Hbonds>
donor molecule, donor type, donor heavy atom, donor atom, acceptor molecule, acceptor atom, score
      L1  H    18    41       P1  8028  0.89
      L1  H    20    42       P1  7957  0.86
      P1  H  6896  6908       L1    24  0.96
      P1  H  7989  7998       L1    15  0.90

> <Gold.Chemscore.Hbond.Weighted>
-12.7146

> <Gold.Chemscore.Metal.Weighted>
-0.0000

> <Gold.Chemscore.Lipo.Weighted>
-7.4384

> <Gold.Chemscore.Internal_Hbond.Weighted>
0.0000

> <Gold.Chemscore.DEClash.Weighted>
0.5225

> <Gold.Chemscore.DEInternal.Weighted>
3.2940

> <Gold.Chemscore.Rot.Weighted>
10.3662

> <Gold.Chemscore.Internal.Correction.Weighted>
   9.000000E+99

> <Gold.Protein.RotatedTorsions>
[ 6907 6896 6895 6894 ] final  -82.47 input  -60.11 | X-H torsion
[ 7974 7965 7964 7962 ] final -115.52 input  175.53 | X-H torsion
[ 8008 7997 7996 7995 ] final -133.37 input   59.86 | X-H torsion
[ 10167 10162 10161 10158 ] final -146.90 input  -65.29 | X-H torsion
[ 10718 10713 10712 10709 ] final  -92.22 input   66.30 | X-H torsion
[ 10763 10752 10751 10750 ] final  146.13 input  -60.55 | X-H torsion
[ 11005 11000 10999 10996 ] final  152.10 input  -57.11 | X-H torsion

> <Gold.Protein.ActiveResidues>
 VAL166  LYS551  ARG553  GLY616  TRP617  ASP618  TYR619  PRO620  LYS621  CYS622 
 ASP623  PHE694  ASN695  SER759  ASP760  ASP761  ALA762  ILE779  LEU786  VAL792 
 PHE793  MET794  SER795  GLU796  ALA797  LYS798  CYS799  TRP800  GLU811  SER814 

> <Gold.Protein.RotatedAtoms>
  150.6897  134.3660  159.4971 H   0  0  0  0  0  0  0  0  0  0  0  0  # atno 6907 bound_to 6896
  152.1483  134.9006  160.0559 H   0  0  0  0  0  0  0  0  0  0  0  0  # atno 6908 bound_to 6896
  152.0113  133.3828  159.4258 H   0  0  0  0  0  0  0  0  0  0  0  0  # atno 6909 bound_to 6896
  145.1075  140.8591  143.3890 H   0  0  0  0  0  0  0  0  0  0  0  0  # atno 7974 bound_to 7965
  155.3444  140.0474  157.3045 H   0  0  0  0  0  0  0  0  0  0  0  0  # atno 8008 bound_to 7997
  154.5260  140.2241  155.8854 H   0  0  0  0  0  0  0  0  0  0  0  0  # atno 8009 bound_to 7997
  156.1740  140.3089  155.9031 H   0  0  0  0  0  0  0  0  0  0  0  0  # atno 8010 bound_to 7997
  139.7671  143.8292  152.2618 H   0  0  0  0  0  0  0  0  0  0  0  0  # atno 10167 bound_to 10162
  156.0000  130.4979  150.5593 H   0  0  0  0  0  0  0  0  0  0  0  0  # atno 10718 bound_to 10713
  154.0169  135.2909  155.3386 H   0  0  0  0  0  0  0  0  0  0  0  0  # atno 10763 bound_to 10752
  154.7070  135.5165  153.8613 H   0  0  0  0  0  0  0  0  0  0  0  0  # atno 10764 bound_to 10752
  153.0698  135.6644  154.0394 H   0  0  0  0  0  0  0  0  0  0  0  0  # atno 10765 bound_to 10752
  140.1278  134.8822  157.2161 H   0  0  0  0  0  0  0  0  0  0  0  0  # atno 11005 bound_to 11000
  145.0885  139.2907  143.5747 LP  0  0  0  0  0  0  0  0  0  0  0  0  # atno 17320 bound_to 7965
  146.3527  140.0414  142.8642 LP  0  0  0  0  0  0  0  0  0  0  0  0  # atno 17321 bound_to 7965
  139.8316  144.7251  150.9444 LP  0  0  0  0  0  0  0  0  0  0  0  0  # atno 17342 bound_to 10162
  140.7811  143.4065  151.1062 LP  0  0  0  0  0  0  0  0  0  0  0  0  # atno 17343 bound_to 10162
  157.3505  131.0732  151.1717 LP  0  0  0  0  0  0  0  0  0  0  0  0  # atno 17370 bound_to 10713
  157.2535  130.6625  149.5942 LP  0  0  0  0  0  0  0  0  0  0  0  0  # atno 17371 bound_to 10713
  140.2882  134.3271  155.7323 LP  0  0  0  0  0  0  0  0  0  0  0  0  # atno 17394 bound_to 11000
  141.2164  133.7518  156.9464 LP  0  0  0  0  0  0  0  0  0  0  0  0  # atno 17395 bound_to 11000

$$$$
