AV-unprocessed.smi:1745|AV-procd|sdf|7030|dock5
  -GOLD-   22720 8243D 1   1.00000     0.00000
 Structure written by MMmdl.
 47 49  0  0  0  0  0  0  0  0  1 V2000
  144.6886  137.1088  153.3229 C   0  0  0  0  0  0  0  0  0  0  0  0
  145.5658  137.2697  152.0731 C   0  0  1  0  0  0  0  0  0  0  0  0
  146.9252  137.6130  152.4880 N   0  0  0  0  0  0  0  0  0  0  0  0
  147.2643  138.5669  153.3676 C   0  0  0  0  0  0  0  0  0  0  0  0
  146.4484  139.2865  153.9424 O   0  0  0  0  0  0  0  0  0  0  0  0
  148.5970  138.6121  153.5363 N   0  0  0  0  0  0  0  0  0  0  0  0
  149.3564  139.4505  154.3970 C   0  0  0  0  0  0  0  0  0  0  0  0
  150.6474  139.0199  154.7624 C   0  0  0  0  0  0  0  0  0  0  0  0
  151.4301  139.8300  155.6059 C   0  0  0  0  0  0  0  0  0  0  0  0
  150.8944  141.0590  156.0534 C   0  0  0  0  0  0  0  0  0  0  0  0
  151.6168  141.9097  156.9009 N   0  0  0  0  0  0  0  0  0  0  0  0
  151.0120  143.2271  157.0498 C   0  0  0  0  0  0  0  0  0  0  0  0
  151.9262  144.1339  157.8921 C   0  0  0  0  0  0  0  0  0  0  0  0
  152.1924  143.5113  159.1461 O   0  0  0  0  0  0  0  0  0  0  0  0
  152.8545  142.2591  158.9911 C   0  0  0  0  0  0  0  0  0  0  0  0
  151.9641  141.3025  158.1795 C   0  0  0  0  0  0  0  0  0  0  0  0
  149.6647  141.4876  155.6956 N   0  0  0  0  0  0  0  0  0  0  0  0
  148.9184  140.7054  154.8864 C   0  0  0  0  0  0  0  0  0  0  0  0
  145.5811  135.9906  151.2133 C   0  0  2  0  0  0  0  0  0  0  0  0
  144.2012  135.4696  150.8086 C   0  0  0  0  0  0  0  0  0  0  0  0
  144.4392  133.9885  150.5608 C   0  0  0  0  0  0  0  0  0  0  0  0
  145.7864  133.7083  151.2334 C   0  0  0  0  0  0  0  0  0  0  0  0
  146.1029  134.8948  151.9483 O   0  0  0  0  0  0  0  0  0  0  0  0
  143.6574  136.8805  153.0523 H   0  0  0  0  0  0  0  0  0  0  0  0
  144.6759  138.0251  153.9140 H   0  0  0  0  0  0  0  0  0  0  0  0
  145.0503  136.3034  153.9627 H   0  0  0  0  0  0  0  0  0  0  0  0
  145.1405  138.0775  151.4749 H   0  0  0  0  0  0  0  0  0  0  0  0
  147.6696  137.0761  152.0680 H   0  0  0  0  0  0  0  0  0  0  0  0
  149.1277  137.9130  153.0379 H   0  0  0  0  0  0  0  0  0  0  0  0
  151.0346  138.0763  154.4068 H   0  0  0  0  0  0  0  0  0  0  0  0
  152.4184  139.5095  155.9017 H   0  0  0  0  0  0  0  0  0  0  0  0
  150.8467  143.6712  156.0672 H   0  0  0  0  0  0  0  0  0  0  0  0
  150.0378  143.1358  157.5319 H   0  0  0  0  0  0  0  0  0  0  0  0
  152.8622  144.3370  157.3692 H   0  0  0  0  0  0  0  0  0  0  0  0
  151.4442  145.0956  158.0678 H   0  0  0  0  0  0  0  0  0  0  0  0
  153.8188  142.4038  158.5010 H   0  0  0  0  0  0  0  0  0  0  0  0
  153.0572  141.8393  159.9764 H   0  0  0  0  0  0  0  0  0  0  0  0
  151.0575  141.0769  158.7425 H   0  0  0  0  0  0  0  0  0  0  0  0
  152.4838  140.3587  158.0106 H   0  0  0  0  0  0  0  0  0  0  0  0
  147.9587  141.1214  154.6230 H   0  0  0  0  0  0  0  0  0  0  0  0
  146.1938  136.1397  150.3218 H   0  0  0  0  0  0  0  0  0  0  0  0
  143.4966  135.5933  151.6323 H   0  0  0  0  0  0  0  0  0  0  0  0
  143.7941  135.9849  149.9380 H   0  0  0  0  0  0  0  0  0  0  0  0
  143.6378  133.3863  150.9901 H   0  0  0  0  0  0  0  0  0  0  0  0
  144.4914  133.7670  149.4942 H   0  0  0  0  0  0  0  0  0  0  0  0
  145.7500  132.8482  151.9023 H   0  0  0  0  0  0  0  0  0  0  0  0
  146.5577  133.5244  150.4840 H   0  0  0  0  0  0  0  0  0  0  0  0
  1  2  1  0  0  0  0
  1 24  1  0  0  0  0
  1 25  1  0  0  0  0
  1 26  1  0  0  0  0
  2  3  1  0  0  0  0
  2 19  1  0  0  0  0
  2 27  1  0  0  0  0
  3  4  1  0  0  0  0
  3 28  1  0  0  0  0
  4  5  2  0  0  0  0
  4  6  1  0  0  0  0
  6  7  1  0  0  0  0
  6 29  1  0  0  0  0
  7 18  1  0  0  0  0
  7  8  2  0  0  0  0
  8  9  1  0  0  0  0
  8 30  1  0  0  0  0
  9 10  2  0  0  0  0
  9 31  1  0  0  0  0
 10 11  1  0  0  0  0
 10 17  1  0  0  0  0
 11 16  1  0  0  0  0
 11 12  1  0  0  0  0
 12 13  1  0  0  0  0
 12 32  1  0  0  0  0
 12 33  1  0  0  0  0
 13 14  1  0  0  0  0
 13 34  1  0  0  0  0
 13 35  1  0  0  0  0
 14 15  1  0  0  0  0
 15 16  1  0  0  0  0
 15 36  1  0  0  0  0
 15 37  1  0  0  0  0
 16 38  1  0  0  0  0
 16 39  1  0  0  0  0
 17 18  2  0  0  0  0
 18 40  1  0  0  0  0
 19 23  1  0  0  0  0
 19 20  1  0  0  0  0
 19 41  1  0  0  0  0
 20 21  1  0  0  0  0
 20 42  1  0  0  0  0
 20 43  1  0  0  0  0
 21 22  1  0  0  0  0
 21 44  1  0  0  0  0
 21 45  1  0  0  0  0
 22 23  1  0  0  0  0
 22 46  1  0  0  0  0
 22 47  1  0  0  0  0
M  END
> <s_m_source_file>
AV-unprocessed.smi

> <i_m_source_file_index>
1745

> <i_lp_mmshare_version>
43012

> <i_f3d_flags>
0

> <s_epik_input>
TzFbQ0gyXVtDSDJdW0NIMl1bQ0BIXTFbQ0BIXShbQ0gzXSlbTkhdQyg9TylbTkhdYzJbY0hdW2NIXWMobltjSF0yKU4zW0NIMl1bQ0gyXU9bQ0gyXVtDSDJdMw==

> <s_epik_cmdline>
J2VwaWtfcHl0aG9uJywgJy1waCcsICc3LjAnLCAnLXRuJywgJzgnLCAnLW1hJywgJzIwMCcsICctbWV0YWxfYmluZGluZycsICctaW1hZScsICc8aW5maWxlLm1hZT4nLCAnLW9tYWUnLCAnPG91dGZpbGUubWFlPic=

> <r_lp_tautomer_probability>
1

> <r_epik_Ionization_Penalty>
0.00206005

> <r_epik_Ionization_Penalty_Charging>
0

> <r_epik_Ionization_Penalty_Neutral>
0.00206005

> <r_epik_State_Penalty>
0.00138459

> <r_epik_Charging_Adjusted_Penalty>
0.00138459

> <i_epik_Tot_Q>
0

> <i_epik_Tot_abs_Q>
0

> <r_epik_Metal_State_Penalty>
-0

> <b_epik_Metal_Only>
0

> <s_lp_Force_Field>
OPLS_2005

> <r_lp_Energy>
36.4473

> <b_lp_Chiralities_Consistent>
1

> <s_lp_Variant>
AV-unprocessed.smi:1745-2

> <Gold.Version>
5.8.1

> <Gold.Id.Protein>
6NUR|6NUR_protein|mol2

> <Gold.PLP.Fitness>
45.9547

> <Gold.PLP.PLP>
-40.8210

> <Gold.PLP.part.hbond>
-2.9362

> <Gold.PLP.part.metal>
0.0000

> <Gold.PLP.part.buried>
-0.6076

> <Gold.PLP.part.nonpolar>
-38.8060

> <Gold.PLP.part.repulsive>
0.7265

> <Gold.PLP.ligand.clash>
0.0000

> <Gold.PLP.ligand.torsion>
0.3314

> <Gold.PLP.Chemscore.Hbond>
1.8873

> <Gold.PLP.Chemscore.CHOScore>
0.0000

> <Gold.PLP.Chemscore.Metal>
0.0000

> <Gold.Chemscore.Hbonds>
donor molecule, donor type, donor heavy atom, donor atom, acceptor molecule, acceptor atom, score
      L1  H     3    28       P1  7948  1.00
      L1  H     6    29       P1  7948  0.90

> <Gold.PLP.Chemscore.Internal.Correction>
0.1348

> <Gold.Rescore>
     Score         DG    S(hbond)    S(metal)    S(lipo)     H(rot)  DE(clash)    DE(int)     intcor
     17.02     -19.65       1.93        0.00      96.49       1.40       0.07       2.57       ----

> <Gold.Chemscore.Fitness>
17.0191

> <Gold.Chemscore.DG>
-19.6542

> <Gold.Chemscore.ZeroCoef>
-5.4800

> <Gold.Chemscore.Hbond>
1.9329

> <Gold.Chemscore.Metal>
0.0000

> <Gold.Chemscore.Lipo>
96.4931

> <Gold.Chemscore.Internal_Hbond>
0.0000

> <Gold.Chemscore.DEClash>
0.0653

> <Gold.Chemscore.DEInternal>
2.5698

> <Gold.Chemscore.Rot>
1.3950

> <Gold.Chemscore.Internal.Correction>
   9.000000E+99

> <Gold.Chemscore.Hbonds>
donor molecule, donor type, donor heavy atom, donor atom, acceptor molecule, acceptor atom, score
      L1  H     3    28       P1  7948  0.93
      L1  H     6    29       P1  7948  0.82

> <Gold.Chemscore.Hbond.Weighted>
-6.4557

> <Gold.Chemscore.Metal.Weighted>
-0.0000

> <Gold.Chemscore.Lipo.Weighted>
-11.2897

> <Gold.Chemscore.Internal_Hbond.Weighted>
0.0000

> <Gold.Chemscore.DEClash.Weighted>
0.0653

> <Gold.Chemscore.DEInternal.Weighted>
2.5698

> <Gold.Chemscore.Rot.Weighted>
3.5712

> <Gold.Chemscore.Internal.Correction.Weighted>
   9.000000E+99

> <Gold.Protein.RotatedTorsions>
[ 6907 6896 6895 6894 ] final -170.32 input  -60.11 | X-H torsion
[ 7974 7965 7964 7962 ] final -103.32 input  175.53 | X-H torsion
[ 8008 7997 7996 7995 ] final  -53.82 input   59.86 | X-H torsion
[ 10167 10162 10161 10158 ] final   -7.25 input  -65.29 | X-H torsion
[ 10718 10713 10712 10709 ] final -123.87 input   66.30 | X-H torsion
[ 10763 10752 10751 10750 ] final -106.03 input  -60.55 | X-H torsion
[ 11005 11000 10999 10996 ] final    5.34 input  -57.11 | X-H torsion

> <Gold.Protein.ActiveResidues>
 VAL166  LYS551  ARG553  GLY616  TRP617  ASP618  TYR619  PRO620  LYS621  CYS622 
 ASP623  PHE694  ASN695  SER759  ASP760  ASP761  ALA762  ILE779  LEU786  VAL792 
 PHE793  MET794  SER795  GLU796  ALA797  LYS798  CYS799  TRP800  GLU811  SER814 

> <Gold.Protein.RotatedAtoms>
  151.5058  133.3495  159.2876 H   0  0  0  0  0  0  0  0  0  0  0  0  # atno 6907 bound_to 6896
  150.8743  134.8125  159.7189 H   0  0  0  0  0  0  0  0  0  0  0  0  # atno 6908 bound_to 6896
  152.4720  134.4947  159.9758 H   0  0  0  0  0  0  0  0  0  0  0  0  # atno 6909 bound_to 6896
  145.2574  140.9258  143.3060 H   0  0  0  0  0  0  0  0  0  0  0  0  # atno 7974 bound_to 7965
  154.4144  140.1191  156.5216 H   0  0  0  0  0  0  0  0  0  0  0  0  # atno 8008 bound_to 7997
  155.6697  140.3496  155.4794 H   0  0  0  0  0  0  0  0  0  0  0  0  # atno 8009 bound_to 7997
  155.9643  140.1129  157.0858 H   0  0  0  0  0  0  0  0  0  0  0  0  # atno 8010 bound_to 7997
  140.7023  143.6102  150.8711 H   0  0  0  0  0  0  0  0  0  0  0  0  # atno 10167 bound_to 10162
  156.1538  130.6554  150.9953 H   0  0  0  0  0  0  0  0  0  0  0  0  # atno 10718 bound_to 10713
  154.7985  135.4727  154.0219 H   0  0  0  0  0  0  0  0  0  0  0  0  # atno 10763 bound_to 10752
  153.1743  135.6830  153.8572 H   0  0  0  0  0  0  0  0  0  0  0  0  # atno 10764 bound_to 10752
  153.8143  135.3212  155.3381 H   0  0  0  0  0  0  0  0  0  0  0  0  # atno 10765 bound_to 10752
  140.5718  134.0095  155.8011 H   0  0  0  0  0  0  0  0  0  0  0  0  # atno 11005 bound_to 11000
  144.9448  139.4148  143.6431 LP  0  0  0  0  0  0  0  0  0  0  0  0  # atno 17320 bound_to 7965
  146.3285  139.8426  142.8887 LP  0  0  0  0  0  0  0  0  0  0  0  0  # atno 17321 bound_to 7965
  139.9825  143.5936  152.2938 LP  0  0  0  0  0  0  0  0  0  0  0  0  # atno 17342 bound_to 10162
  139.6562  144.7662  151.2052 LP  0  0  0  0  0  0  0  0  0  0  0  0  # atno 17343 bound_to 10162
  157.6679  131.0868  150.7684 LP  0  0  0  0  0  0  0  0  0  0  0  0  # atno 17370 bound_to 10713
  156.7751  130.4841  149.5411 LP  0  0  0  0  0  0  0  0  0  0  0  0  # atno 17371 bound_to 10713
  141.1051  133.9706  157.3010 LP  0  0  0  0  0  0  0  0  0  0  0  0  # atno 17394 bound_to 11000
  139.9358  135.0196  156.8552 LP  0  0  0  0  0  0  0  0  0  0  0  0  # atno 17395 bound_to 11000

$$$$
