AV-unprocessed.smi:249|AV-procd|sdf|1919|dock9
  -GOLD-   2262021 23D 1   1.00000     0.00000
 Structure written by MMmdl.
 64 67  0  0  0  0  0  0  0  0  2 V2000
  147.6424  128.1600  151.6155 C   0  0  0  0  0  0  0  0  0  0  0  0
  146.5777  129.1478  152.1201 C   0  0  0  0  0  0  0  0  0  0  0  0
  146.9663  130.5776  151.9479 N   0  3  1  0  0  0  0  0  0  0  0  0
  145.8177  131.4057  151.4782 C   0  0  0  0  0  0  0  0  0  0  0  0
  146.2154  132.8690  151.2258 C   0  0  0  0  0  0  0  0  0  0  0  0
  146.8002  133.5191  152.4902 C   0  0  1  0  0  0  0  0  0  0  0  0
  145.7926  133.6792  153.5521 N   0  0  0  0  0  0  0  0  0  0  0  0
  144.5133  134.2800  153.1890 C   0  0  0  0  0  0  0  0  0  0  0  0
  146.2295  134.1720  154.7330 C   0  0  0  0  0  0  0  0  0  0  0  0
  145.9573  135.4736  154.9974 N   0  0  0  0  0  0  0  0  0  0  0  0
  146.3459  136.0138  156.1564 C   0  0  0  0  0  0  0  0  0  0  0  0
  147.0002  135.4386  157.1675 N   0  0  0  0  0  0  0  0  0  0  0  0
  147.2830  134.1317  156.8982 C   0  0  0  0  0  0  0  0  0  0  0  0
  146.9462  133.4253  155.7101 C   0  0  0  0  0  0  0  0  0  0  0  0
  147.4063  132.1164  155.7886 N   0  0  0  0  0  0  0  0  0  0  0  0
  147.9682  132.0472  156.9646 C   0  0  0  0  0  0  0  0  0  0  0  0
  147.9238  133.2074  157.7040 N   0  0  0  0  0  0  0  0  0  0  0  0
  148.4432  133.3973  159.0470 C   0  0  0  0  0  0  0  0  0  0  0  0
  147.3336  133.6661  160.0954 C   0  0  1  0  0  0  0  0  0  0  0  0
  146.8060  132.3339  160.6798 C   0  0  0  0  0  0  0  0  0  0  0  0
  147.8082  131.6877  161.4370 O   0  0  0  0  0  0  0  0  0  0  0  0
  147.7731  134.6967  161.1757 C   0  0  2  0  0  0  0  0  0  0  0  0
  146.8220  134.9016  162.3545 C   0  0  0  0  0  0  0  0  0  0  0  0
  146.8576  136.4114  162.6060 C   0  0  0  0  0  0  0  0  0  0  0  0
  147.9838  136.8782  161.8782 O   0  0  0  0  0  0  0  0  0  0  0  0
  148.0419  136.1209  160.6816 C   0  0  0  0  0  0  0  0  0  0  0  0
  148.0088  132.6505  152.9025 C   0  0  0  0  0  0  0  0  0  0  0  0
  147.6298  131.1725  153.1543 C   0  0  2  0  0  0  0  0  0  0  0  0
  148.9001  130.4094  153.5846 C   0  0  0  0  0  0  0  0  0  0  0  0
  147.3851  127.1420  151.9095 H   0  0  0  0  0  0  0  0  0  0  0  0
  148.6223  128.3854  152.0373 H   0  0  0  0  0  0  0  0  0  0  0  0
  147.7286  128.1607  150.5294 H   0  0  0  0  0  0  0  0  0  0  0  0
  145.6215  128.9608  151.6292 H   0  0  0  0  0  0  0  0  0  0  0  0
  146.4343  128.9155  153.1725 H   0  0  0  0  0  0  0  0  0  0  0  0
  145.4211  131.0093  150.5452 H   0  0  0  0  0  0  0  0  0  0  0  0
  145.0086  131.3552  152.2084 H   0  0  0  0  0  0  0  0  0  0  0  0
  146.9573  132.9029  150.4268 H   0  0  0  0  0  0  0  0  0  0  0  0
  145.3614  133.4335  150.8515 H   0  0  0  0  0  0  0  0  0  0  0  0
  147.1583  134.5132  152.2212 H   0  0  0  0  0  0  0  0  0  0  0  0
  143.9431  134.5959  154.0646 H   0  0  0  0  0  0  0  0  0  0  0  0
  143.8995  133.5610  152.6467 H   0  0  0  0  0  0  0  0  0  0  0  0
  144.6651  135.1518  152.5516 H   0  0  0  0  0  0  0  0  0  0  0  0
  146.0919  137.0543  156.2962 H   0  0  0  0  0  0  0  0  0  0  0  0
  148.4217  131.1386  157.3337 H   0  0  0  0  0  0  0  0  0  0  0  0
  149.0112  132.5041  159.3083 H   0  0  0  0  0  0  0  0  0  0  0  0
  149.1573  134.2212  159.0343 H   0  0  0  0  0  0  0  0  0  0  0  0
  146.5001  134.1308  159.5656 H   0  0  0  0  0  0  0  0  0  0  0  0
  145.9371  132.4956  161.3175 H   0  0  0  0  0  0  0  0  0  0  0  0
  146.5018  131.6415  159.8978 H   0  0  0  0  0  0  0  0  0  0  0  0
  147.4048  131.0033  161.9488 H   0  0  0  0  0  0  0  0  0  0  0  0
  148.7252  134.3725  161.5970 H   0  0  0  0  0  0  0  0  0  0  0  0
  145.8031  134.5717  162.1553 H   0  0  0  0  0  0  0  0  0  0  0  0
  147.1765  134.3529  163.2272 H   0  0  0  0  0  0  0  0  0  0  0  0
  145.9569  136.8847  162.2124 H   0  0  0  0  0  0  0  0  0  0  0  0
  146.9374  136.6590  163.6647 H   0  0  0  0  0  0  0  0  0  0  0  0
  149.0127  136.2181  160.1950 H   0  0  0  0  0  0  0  0  0  0  0  0
  147.2793  136.4879  159.9961 H   0  0  0  0  0  0  0  0  0  0  0  0
  148.7560  132.6935  152.1086 H   0  0  0  0  0  0  0  0  0  0  0  0
  148.5073  133.0668  153.7781 H   0  0  0  0  0  0  0  0  0  0  0  0
  146.9199  131.1330  153.9819 H   0  0  0  0  0  0  0  0  0  0  0  0
  149.4421  130.9589  154.3550 H   0  0  0  0  0  0  0  0  0  0  0  0
  149.5819  130.2648  152.7456 H   0  0  0  0  0  0  0  0  0  0  0  0
  148.6762  129.4350  154.0166 H   0  0  0  0  0  0  0  0  0  0  0  0
  147.6570  130.5998  151.2115 H   0  0  0  0  0  0  0  0  0  0  0  0
  1  2  1  0  0  0  0
  1 30  1  0  0  0  0
  1 31  1  0  0  0  0
  1 32  1  0  0  0  0
  2  3  1  0  0  0  0
  2 33  1  0  0  0  0
  2 34  1  0  0  0  0
  3 28  1  0  0  0  0
  3  4  1  0  0  0  0
  3 64  1  0  0  0  0
  4  5  1  0  0  0  0
  4 35  1  0  0  0  0
  4 36  1  0  0  0  0
  5  6  1  0  0  0  0
  5 37  1  0  0  0  0
  5 38  1  0  0  0  0
  6  7  1  0  0  0  0
  6 27  1  0  0  0  0
  6 39  1  0  0  0  0
  7  8  1  0  0  0  0
  7  9  1  0  0  0  0
  8 40  1  0  0  0  0
  8 41  1  0  0  0  0
  8 42  1  0  0  0  0
  9 14  1  0  0  0  0
  9 10  2  0  0  0  0
 10 11  1  0  0  0  0
 11 12  2  0  0  0  0
 11 43  1  0  0  0  0
 12 13  1  0  0  0  0
 13 17  1  0  0  0  0
 13 14  2  0  0  0  0
 14 15  1  0  0  0  0
 15 16  2  0  0  0  0
 16 17  1  0  0  0  0
 16 44  1  0  0  0  0
 17 18  1  0  0  0  0
 18 19  1  0  0  0  0
 18 45  1  0  0  0  0
 18 46  1  0  0  0  0
 19 20  1  0  0  0  0
 19 22  1  0  0  0  0
 19 47  1  0  0  0  0
 20 21  1  0  0  0  0
 20 48  1  0  0  0  0
 20 49  1  0  0  0  0
 21 50  1  0  0  0  0
 22 26  1  0  0  0  0
 22 23  1  0  0  0  0
 22 51  1  0  0  0  0
 23 24  1  0  0  0  0
 23 52  1  0  0  0  0
 23 53  1  0  0  0  0
 24 25  1  0  0  0  0
 24 54  1  0  0  0  0
 24 55  1  0  0  0  0
 25 26  1  0  0  0  0
 26 56  1  0  0  0  0
 26 57  1  0  0  0  0
 27 28  1  0  0  0  0
 27 58  1  0  0  0  0
 27 59  1  0  0  0  0
 28 29  1  0  0  0  0
 28 60  1  0  0  0  0
 29 61  1  0  0  0  0
 29 62  1  0  0  0  0
 29 63  1  0  0  0  0
M  CHG  1   3   1
M  END
> <s_m_source_file>
AV-unprocessed.smi

> <i_m_source_file_index>
249

> <i_lp_mmshare_version>
43012

> <i_f3d_flags>
0

> <s_epik_input>
W0NIM11bQ0gyXU4xW0NIMl1bQ0gyXVtDQEhdKFtDSDJdW0NASF0xW0NIM10pTihbQ0gzXSljKG5bY0hdbjIpYyhjMjMpbltjSF1uM1tDSDJdW0NASF0oW0NIMl1bT0hdKVtDQEBIXTRbQ0gyXVtDSDJdT1tDSDJdNA==

> <s_epik_cmdline>
J2VwaWtfcHl0aG9uJywgJy1waCcsICc3LjAnLCAnLXRuJywgJzgnLCAnLW1hJywgJzIwMCcsICctbWV0YWxfYmluZGluZycsICctaW1hZScsICc8aW5maWxlLm1hZT4nLCAnLW9tYWUnLCAnPG91dGZpbGUubWFlPic=

> <r_lp_tautomer_probability>
1

> <r_epik_Ionization_Penalty>
0.00294688

> <r_epik_Ionization_Penalty_Charging>
0.00169971

> <r_epik_Ionization_Penalty_Neutral>
0.00124717

> <r_epik_State_Penalty>
-0

> <r_epik_Charging_Adjusted_Penalty>
0.00169971

> <i_epik_Tot_Q>
1

> <i_epik_Tot_abs_Q>
1

> <r_epik_Metal_State_Penalty>
-0

> <b_epik_Metal_Only>
0

> <s_lp_Force_Field>
OPLS_2005

> <r_lp_Energy>
56.7339

> <b_lp_Chiralities_Consistent>
1

> <s_lp_Variant>
AV-unprocessed.smi:249-22

> <Gold.Version>
5.8.1

> <Gold.Id.Protein>
6NUR|6NUR_protein|mol2

> <Gold.PLP.Fitness>
44.0336

> <Gold.PLP.PLP>
-38.8945

> <Gold.PLP.part.hbond>
-3.0000

> <Gold.PLP.part.metal>
0.0000

> <Gold.PLP.part.buried>
-4.7519

> <Gold.PLP.part.nonpolar>
-30.8732

> <Gold.PLP.part.repulsive>
0.1431

> <Gold.PLP.ligand.clash>
0.0000

> <Gold.PLP.ligand.torsion>
1.7340

> <Gold.PLP.Chemscore.Hbond>
2.6484

> <Gold.PLP.Chemscore.CHOScore>
0.0000

> <Gold.PLP.Chemscore.Metal>
0.0000

> <Gold.Chemscore.Hbonds>
donor molecule, donor type, donor heavy atom, donor atom, acceptor molecule, acceptor atom, score
      L1  H     3    64       P1 10747  1.00
      P1  H  6931  6943       L1    25  1.00

> <Gold.PLP.Chemscore.Internal.Correction>
0.6618

> <Gold.Rescore>
     Score         DG    S(hbond)    S(metal)    S(lipo)     H(rot)  DE(clash)    DE(int)     intcor
     14.93     -16.81       1.94        0.00     105.08       2.90       0.07       1.82       ----

> <Gold.Chemscore.Fitness>
14.9319

> <Gold.Chemscore.DG>
-16.8145

> <Gold.Chemscore.ZeroCoef>
-5.4800

> <Gold.Chemscore.Hbond>
1.9359

> <Gold.Chemscore.Metal>
0.0000

> <Gold.Chemscore.Lipo>
105.0771

> <Gold.Chemscore.Internal_Hbond>
0.0000

> <Gold.Chemscore.DEClash>
0.0674

> <Gold.Chemscore.DEInternal>
1.8151

> <Gold.Chemscore.Rot>
2.9006

> <Gold.Chemscore.Internal.Correction>
   9.000000E+99

> <Gold.Chemscore.Hbonds>
donor molecule, donor type, donor heavy atom, donor atom, acceptor molecule, acceptor atom, score
      L1  H     3    64       P1 10747  0.99
      P1  H  6931  6943       L1    25  0.91

> <Gold.Chemscore.Hbond.Weighted>
-6.4661

> <Gold.Chemscore.Metal.Weighted>
-0.0000

> <Gold.Chemscore.Lipo.Weighted>
-12.2940

> <Gold.Chemscore.Internal_Hbond.Weighted>
0.0000

> <Gold.Chemscore.DEClash.Weighted>
0.0674

> <Gold.Chemscore.DEInternal.Weighted>
1.8151

> <Gold.Chemscore.Rot.Weighted>
7.4256

> <Gold.Chemscore.Internal.Correction.Weighted>
   9.000000E+99

> <Gold.Protein.RotatedTorsions>
[ 6907 6896 6895 6894 ] final  123.45 input  -60.11 | X-H torsion
[ 7974 7965 7964 7962 ] final -169.65 input  175.53 | X-H torsion
[ 8008 7997 7996 7995 ] final  144.80 input   59.86 | X-H torsion
[ 10167 10162 10161 10158 ] final   85.18 input  -65.29 | X-H torsion
[ 10718 10713 10712 10709 ] final  -91.17 input   66.30 | X-H torsion
[ 10763 10752 10751 10750 ] final  172.82 input  -60.55 | X-H torsion
[ 11005 11000 10999 10996 ] final  -89.39 input  -57.11 | X-H torsion

> <Gold.Protein.ActiveResidues>
 VAL166  LYS551  ARG553  GLY616  TRP617  ASP618  TYR619  PRO620  LYS621  CYS622 
 ASP623  PHE694  ASN695  SER759  ASP760  ASP761  ALA762  ILE779  LEU786  VAL792 
 PHE793  MET794  SER795  GLU796  ALA797  LYS798  CYS799  TRP800  GLU811  SER814 

> <Gold.Protein.RotatedAtoms>
  152.4160  133.7040  159.6439 H   0  0  0  0  0  0  0  0  0  0  0  0  # atno 6907 bound_to 6896
  150.8038  133.8538  159.3221 H   0  0  0  0  0  0  0  0  0  0  0  0  # atno 6908 bound_to 6896
  151.6268  135.1029  160.0165 H   0  0  0  0  0  0  0  0  0  0  0  0  # atno 6909 bound_to 6896
  144.7182  140.2189  143.6318 H   0  0  0  0  0  0  0  0  0  0  0  0  # atno 7974 bound_to 7965
  156.2899  140.2226  156.5112 H   0  0  0  0  0  0  0  0  0  0  0  0  # atno 8008 bound_to 7997
  154.7607  140.0473  157.0992 H   0  0  0  0  0  0  0  0  0  0  0  0  # atno 8009 bound_to 7997
  154.9995  140.3100  155.4876 H   0  0  0  0  0  0  0  0  0  0  0  0  # atno 8010 bound_to 7997
  139.9004  144.6333  150.8643 H   0  0  0  0  0  0  0  0  0  0  0  0  # atno 10167 bound_to 10162
  155.9992  130.4937  150.5433 H   0  0  0  0  0  0  0  0  0  0  0  0  # atno 10718 bound_to 10713
  154.4314  135.2760  155.1909 H   0  0  0  0  0  0  0  0  0  0  0  0  # atno 10763 bound_to 10752
  154.3814  135.6087  153.5796 H   0  0  0  0  0  0  0  0  0  0  0  0  # atno 10764 bound_to 10752
  152.9836  135.5881  154.4627 H   0  0  0  0  0  0  0  0  0  0  0  0  # atno 10765 bound_to 10752
  141.1585  133.7627  156.9589 H   0  0  0  0  0  0  0  0  0  0  0  0  # atno 11005 bound_to 11000
  145.8520  139.2180  143.1766 LP  0  0  0  0  0  0  0  0  0  0  0  0  # atno 17320 bound_to 7965
  146.0252  140.8310  142.9903 LP  0  0  0  0  0  0  0  0  0  0  0  0  # atno 17321 bound_to 7965
  140.7708  143.3441  151.2147 LP  0  0  0  0  0  0  0  0  0  0  0  0  # atno 17342 bound_to 10162
  139.7030  143.9501  152.2914 LP  0  0  0  0  0  0  0  0  0  0  0  0  # atno 17343 bound_to 10162
  157.3367  131.0709  151.1820 LP  0  0  0  0  0  0  0  0  0  0  0  0  # atno 17370 bound_to 10713
  157.2682  130.6691  149.6007 LP  0  0  0  0  0  0  0  0  0  0  0  0  # atno 17371 bound_to 10713
  140.1207  134.9419  157.2199 LP  0  0  0  0  0  0  0  0  0  0  0  0  # atno 17394 bound_to 11000
  140.3076  134.3060  155.7274 LP  0  0  0  0  0  0  0  0  0  0  0  0  # atno 17395 bound_to 11000

$$$$
