AV-unprocessed.smi:692|AV-procd|sdf|3368|dock9
  -GOLD-   22720 0343D 1   1.00000     0.00000
 Structure written by MMmdl.
 37 38  0  0  0  0  0  0  0  0  1 V2000
  144.9172  132.0347  150.1682 C   0  0  0  0  0  0  0  0  0  0  0  0
  143.6234  132.5251  150.8280 C   0  0  0  0  0  0  0  0  0  0  0  0
  143.8238  133.7917  151.6032 C   0  0  0  0  0  0  0  0  0  0  0  0
  142.8728  134.4800  152.3167 C   0  0  0  0  0  0  0  0  0  0  0  0
  143.5304  135.9018  153.0817 S   0  0  0  0  0  0  0  0  0  0  0  0
  145.0949  135.5027  152.3898 C   0  0  0  0  0  0  0  0  0  0  0  0
  146.2427  136.3071  152.6147 N   0  0  0  0  0  0  0  0  0  0  0  0
  146.4325  137.2365  153.5677 C   0  0  0  0  0  0  0  0  0  0  0  0
  145.6161  137.5422  154.4375 O   0  0  0  0  0  0  0  0  0  0  0  0
  147.6446  137.8000  153.4609 N   0  0  0  0  0  0  0  0  0  0  0  0
  148.1712  138.8354  154.3452 C   0  0  2  0  0  0  0  0  0  0  0  0
  147.8700  140.2180  153.7644 C   0  0  0  0  0  0  0  0  0  0  0  0
  148.3839  141.3161  154.7034 C   0  0  0  0  0  0  0  0  0  0  0  0
  149.8229  141.0877  155.1908 C   0  0  0  0  0  0  0  0  0  0  0  0
  150.4410  142.0514  155.6444 O   0  0  0  0  0  0  0  0  0  0  0  0
  150.3529  139.8417  155.1382 N   0  0  0  0  0  0  0  0  0  0  0  0
  151.7097  139.5956  155.6300 C   0  0  0  0  0  0  0  0  0  0  0  0
  149.6916  138.6723  154.5378 C   0  0  0  0  0  0  0  0  0  0  0  0
  145.0887  134.3862  151.6528 N   0  0  0  0  0  0  0  0  0  0  0  0
  144.7451  131.1108  149.6156 H   0  0  0  0  0  0  0  0  0  0  0  0
  145.6893  131.8391  150.9129 H   0  0  0  0  0  0  0  0  0  0  0  0
  145.3067  132.7736  149.4671 H   0  0  0  0  0  0  0  0  0  0  0  0
  142.8636  132.6744  150.0601 H   0  0  0  0  0  0  0  0  0  0  0  0
  143.2369  131.7434  151.4829 H   0  0  0  0  0  0  0  0  0  0  0  0
  141.8283  134.2351  152.4403 H   0  0  0  0  0  0  0  0  0  0  0  0
  147.0094  136.1557  151.9759 H   0  0  0  0  0  0  0  0  0  0  0  0
  148.2502  137.4880  152.7160 H   0  0  0  0  0  0  0  0  0  0  0  0
  147.6773  138.7617  155.3164 H   0  0  0  0  0  0  0  0  0  0  0  0
  148.3347  140.3242  152.7827 H   0  0  0  0  0  0  0  0  0  0  0  0
  146.7964  140.3390  153.6153 H   0  0  0  0  0  0  0  0  0  0  0  0
  148.3176  142.2866  154.2105 H   0  0  0  0  0  0  0  0  0  0  0  0
  147.7432  141.3704  155.5841 H   0  0  0  0  0  0  0  0  0  0  0  0
  151.7631  139.7694  156.7056 H   0  0  0  0  0  0  0  0  0  0  0  0
  152.4258  140.2576  155.1405 H   0  0  0  0  0  0  0  0  0  0  0  0
  152.0359  138.5714  155.4437 H   0  0  0  0  0  0  0  0  0  0  0  0
  149.8827  137.7877  155.1472 H   0  0  0  0  0  0  0  0  0  0  0  0
  150.1669  138.4928  153.5721 H   0  0  0  0  0  0  0  0  0  0  0  0
  1  2  1  0  0  0  0
  1 20  1  0  0  0  0
  1 21  1  0  0  0  0
  1 22  1  0  0  0  0
  2  3  1  0  0  0  0
  2 23  1  0  0  0  0
  2 24  1  0  0  0  0
  3 19  1  0  0  0  0
  3  4  2  0  0  0  0
  4  5  1  0  0  0  0
  4 25  1  0  0  0  0
  5  6  1  0  0  0  0
  6  7  1  0  0  0  0
  6 19  2  0  0  0  0
  7  8  1  0  0  0  0
  7 26  1  0  0  0  0
  8  9  2  0  0  0  0
  8 10  1  0  0  0  0
 10 11  1  0  0  0  0
 10 27  1  0  0  0  0
 11 18  1  0  0  0  0
 11 12  1  0  0  0  0
 11 28  1  0  0  0  0
 12 13  1  0  0  0  0
 12 29  1  0  0  0  0
 12 30  1  0  0  0  0
 13 14  1  0  0  0  0
 13 31  1  0  0  0  0
 13 32  1  0  0  0  0
 14 15  2  0  0  0  0
 14 16  1  0  0  0  0
 16 17  1  0  0  0  0
 16 18  1  0  0  0  0
 17 33  1  0  0  0  0
 17 34  1  0  0  0  0
 17 35  1  0  0  0  0
 18 36  1  0  0  0  0
 18 37  1  0  0  0  0
M  END
> <s_m_source_file>
AV-unprocessed.smi

> <i_m_source_file_index>
692

> <i_lp_mmshare_version>
43012

> <i_f3d_flags>
0

> <s_epik_input>
W0NIM11bQ0gyXWMxW2NIXXNjKG4xKVtOSF1DKD1PKVtOSF1bQ0BASF0yW0NIMl1bQ0gyXUMoPU8pTihbQ0gzXSlbQ0gyXTI=

> <s_epik_cmdline>
J2VwaWtfcHl0aG9uJywgJy1waCcsICc3LjAnLCAnLXRuJywgJzgnLCAnLW1hJywgJzIwMCcsICctbWV0YWxfYmluZGluZycsICctaW1hZScsICc8aW5maWxlLm1hZT4nLCAnLW9tYWUnLCAnPG91dGZpbGUubWFlPic=

> <r_lp_tautomer_probability>
1

> <r_epik_Ionization_Penalty>
0.000165573

> <r_epik_Ionization_Penalty_Charging>
0

> <r_epik_Ionization_Penalty_Neutral>
0.000165573

> <r_epik_State_Penalty>
-0

> <r_epik_Charging_Adjusted_Penalty>
0

> <i_epik_Tot_Q>
0

> <i_epik_Tot_abs_Q>
0

> <r_epik_Metal_State_Penalty>
0.031163

> <b_epik_Metal_Only>
0

> <s_lp_Force_Field>
OPLS_2005

> <r_lp_Energy>
8.08929

> <b_lp_Chiralities_Consistent>
1

> <s_lp_Variant>
AV-unprocessed.smi:692-1

> <Gold.Version>
5.8.1

> <Gold.Id.Protein>
6NUR|6NUR_protein|mol2

> <Gold.PLP.Fitness>
36.5040

> <Gold.PLP.PLP>
-31.9834

> <Gold.PLP.part.hbond>
-2.2461

> <Gold.PLP.part.metal>
0.0000

> <Gold.PLP.part.buried>
-2.9177

> <Gold.PLP.part.nonpolar>
-27.5458

> <Gold.PLP.part.repulsive>
0.3629

> <Gold.PLP.ligand.clash>
0.0000

> <Gold.PLP.ligand.torsion>
0.4284

> <Gold.PLP.Chemscore.Hbond>
1.7920

> <Gold.PLP.Chemscore.CHOScore>
0.0000

> <Gold.PLP.Chemscore.Metal>
0.0000

> <Gold.Chemscore.Hbonds>
donor molecule, donor type, donor heavy atom, donor atom, acceptor molecule, acceptor atom, score
      L1  H     7    26       P1  7948  0.88
      L1  H    10    27       P1  7948  1.00

> <Gold.PLP.Chemscore.Internal.Correction>
0.0014

> <Gold.Rescore>
     Score         DG    S(hbond)    S(metal)    S(lipo)     H(rot)  DE(clash)    DE(int)     intcor
     14.39     -16.00       1.84        0.00      64.40       1.24       0.09       1.52       ----

> <Gold.Chemscore.Fitness>
14.3894

> <Gold.Chemscore.DG>
-15.9971

> <Gold.Chemscore.ZeroCoef>
-5.4800

> <Gold.Chemscore.Hbond>
1.8423

> <Gold.Chemscore.Metal>
0.0000

> <Gold.Chemscore.Lipo>
64.3988

> <Gold.Chemscore.Internal_Hbond>
0.0000

> <Gold.Chemscore.DEClash>
0.0897

> <Gold.Chemscore.DEInternal>
1.5180

> <Gold.Chemscore.Rot>
1.2386

> <Gold.Chemscore.Internal.Correction>
   9.000000E+99

> <Gold.Chemscore.Hbonds>
donor molecule, donor type, donor heavy atom, donor atom, acceptor molecule, acceptor atom, score
      L1  H     7    26       P1  7948  0.86
      L1  H    10    27       P1  7948  0.95

> <Gold.Chemscore.Hbond.Weighted>
-6.1532

> <Gold.Chemscore.Metal.Weighted>
-0.0000

> <Gold.Chemscore.Lipo.Weighted>
-7.5347

> <Gold.Chemscore.Internal_Hbond.Weighted>
0.0000

> <Gold.Chemscore.DEClash.Weighted>
0.0897

> <Gold.Chemscore.DEInternal.Weighted>
1.5180

> <Gold.Chemscore.Rot.Weighted>
3.1708

> <Gold.Chemscore.Internal.Correction.Weighted>
   9.000000E+99

> <Gold.Protein.RotatedTorsions>
[ 6907 6896 6895 6894 ] final  161.02 input  -60.11 | X-H torsion
[ 7974 7965 7964 7962 ] final  124.60 input  175.53 | X-H torsion
[ 8008 7997 7996 7995 ] final  -90.39 input   59.86 | X-H torsion
[ 10167 10162 10161 10158 ] final   76.85 input  -65.29 | X-H torsion
[ 10718 10713 10712 10709 ] final   98.93 input   66.30 | X-H torsion
[ 10763 10752 10751 10750 ] final  113.88 input  -60.55 | X-H torsion
[ 11005 11000 10999 10996 ] final   90.39 input  -57.11 | X-H torsion

> <Gold.Protein.ActiveResidues>
 VAL166  LYS551  ARG553  GLY616  TRP617  ASP618  TYR619  PRO620  LYS621  CYS622 
 ASP623  PHE694  ASN695  SER759  ASP760  ASP761  ALA762  ILE779  LEU786  VAL792 
 PHE793  MET794  SER795  GLU796  ALA797  LYS798  CYS799  TRP800  GLU811  SER814 

> <Gold.Protein.RotatedAtoms>
  151.9619  133.3698  159.4038 H   0  0  0  0  0  0  0  0  0  0  0  0  # atno 6907 bound_to 6896
  150.6963  134.4231  159.5223 H   0  0  0  0  0  0  0  0  0  0  0  0  # atno 6908 bound_to 6896
  152.1921  134.8662  160.0567 H   0  0  0  0  0  0  0  0  0  0  0  0  # atno 6909 bound_to 6896
  145.0825  139.3646  143.4902 H   0  0  0  0  0  0  0  0  0  0  0  0  # atno 7974 bound_to 7965
  154.6980  140.0531  157.0429 H   0  0  0  0  0  0  0  0  0  0  0  0  # atno 8008 bound_to 7997
  155.0725  140.3201  155.4607 H   0  0  0  0  0  0  0  0  0  0  0  0  # atno 8009 bound_to 7997
  156.2750  140.2079  156.5852 H   0  0  0  0  0  0  0  0  0  0  0  0  # atno 8010 bound_to 7997
  139.9878  144.5779  150.7844 H   0  0  0  0  0  0  0  0  0  0  0  0  # atno 10167 bound_to 10162
  157.6886  131.0654  150.4870 H   0  0  0  0  0  0  0  0  0  0  0  0  # atno 10718 bound_to 10713
  153.4990  135.3642  155.2530 H   0  0  0  0  0  0  0  0  0  0  0  0  # atno 10763 bound_to 10752
  154.8748  135.3995  154.3501 H   0  0  0  0  0  0  0  0  0  0  0  0  # atno 10764 bound_to 10752
  153.4133  135.7078  153.6410 H   0  0  0  0  0  0  0  0  0  0  0  0  # atno 10765 bound_to 10752
  139.8857  134.8610  156.3278 H   0  0  0  0  0  0  0  0  0  0  0  0  # atno 11005 bound_to 11000
  146.3531  140.0622  142.8628 LP  0  0  0  0  0  0  0  0  0  0  0  0  # atno 17320 bound_to 7965
  145.1161  140.9434  143.4628 LP  0  0  0  0  0  0  0  0  0  0  0  0  # atno 17321 bound_to 7965
  140.7466  143.2893  151.3375 LP  0  0  0  0  0  0  0  0  0  0  0  0  # atno 17342 bound_to 10162
  139.6362  144.0626  152.2518 LP  0  0  0  0  0  0  0  0  0  0  0  0  # atno 17343 bound_to 10162
  156.5199  130.4159  149.6256 LP  0  0  0  0  0  0  0  0  0  0  0  0  # atno 17370 bound_to 10713
  156.3164  130.7256  151.2160 LP  0  0  0  0  0  0  0  0  0  0  0  0  # atno 17371 bound_to 10713
  140.9743  133.7307  156.0580 LP  0  0  0  0  0  0  0  0  0  0  0  0  # atno 17394 bound_to 11000
  140.7830  134.3703  157.5483 LP  0  0  0  0  0  0  0  0  0  0  0  0  # atno 17395 bound_to 11000

$$$$
