AV-unprocessed.smi:1281|AV-procd|sdf|5359|dock1
  -GOLD-   22720 4493D 1   1.00000     0.00000
 Structure written by MMmdl.
 45 46  0  0  0  0  0  0  0  0  1 V2000
  157.5693  142.1331  168.0290 C   0  0  0  0  0  0  0  0  0  0  0  0
  158.9766  142.1083  168.1869 O   0  0  0  0  0  0  0  0  0  0  0  0
  159.6647  142.1535  166.9472 C   0  0  0  0  0  0  0  0  0  0  0  0
  159.6972  143.6021  166.4340 C   0  0  0  0  0  0  0  0  0  0  0  0
  158.3504  144.1123  166.1544 N   0  0  0  0  0  0  0  0  0  0  0  0
  157.6882  143.4293  165.1480 N   0  0  0  0  0  0  0  0  0  0  0  0
  156.4938  143.7829  164.7984 C   0  0  0  0  0  0  0  0  0  0  0  0
  155.7516  143.0791  163.7162 C   0  0  0  0  0  0  0  0  0  0  0  0
  156.2568  142.1556  163.0756 O   0  0  0  0  0  0  0  0  0  0  0  0
  154.5002  143.5210  163.4938 N   0  0  0  0  0  0  0  0  0  0  0  0
  153.5865  142.9891  162.4899 C   0  0  0  0  0  0  0  0  0  0  0  0
  152.6658  144.0840  161.9225 C   0  0  0  0  0  0  0  0  0  0  0  0
  152.0415  143.6922  160.5938 C   0  0  0  0  0  0  0  0  0  0  0  0
  151.2801  144.5482  159.8845 C   0  0  0  0  0  0  0  0  0  0  0  0
  150.6142  144.2054  158.5633 C   0  0  0  0  0  0  0  0  0  0  0  0
  150.6097  142.6930  158.2843 C   0  0  0  0  0  0  0  0  0  0  0  0
  151.9646  142.0626  158.6289 C   0  0  0  0  0  0  0  0  0  0  0  0
  152.3199  142.2727  160.1119 C   0  0  0  0  0  0  0  0  0  0  0  0
  155.8245  144.8932  165.4554 C   0  0  0  0  0  0  0  0  0  0  0  0
  156.4858  145.5545  166.4306 C   0  0  0  0  0  0  0  0  0  0  0  0
  157.8417  145.1818  166.8374 C   0  0  0  0  0  0  0  0  0  0  0  0
  158.4695  145.7772  167.7127 O   0  0  0  0  0  0  0  0  0  0  0  0
  157.0909  142.0973  169.0078 H   0  0  0  0  0  0  0  0  0  0  0  0
  157.2215  141.2748  167.4524 H   0  0  0  0  0  0  0  0  0  0  0  0
  157.2452  143.0467  167.5288 H   0  0  0  0  0  0  0  0  0  0  0  0
  160.6854  141.7942  167.0857 H   0  0  0  0  0  0  0  0  0  0  0  0
  159.1864  141.4969  166.2187 H   0  0  0  0  0  0  0  0  0  0  0  0
  160.1997  144.2384  167.1648 H   0  0  0  0  0  0  0  0  0  0  0  0
  160.3121  143.6586  165.5342 H   0  0  0  0  0  0  0  0  0  0  0  0
  154.1599  144.2819  164.0643 H   0  0  0  0  0  0  0  0  0  0  0  0
  154.1879  142.5506  161.6934 H   0  0  0  0  0  0  0  0  0  0  0  0
  152.9962  142.1770  162.9177 H   0  0  0  0  0  0  0  0  0  0  0  0
  151.8713  144.3032  162.6372 H   0  0  0  0  0  0  0  0  0  0  0  0
  153.2211  145.0133  161.7899 H   0  0  0  0  0  0  0  0  0  0  0  0
  151.1183  145.5520  160.2496 H   0  0  0  0  0  0  0  0  0  0  0  0
  149.5919  144.5845  158.5669 H   0  0  0  0  0  0  0  0  0  0  0  0
  151.1457  144.7333  157.7712 H   0  0  0  0  0  0  0  0  0  0  0  0
  149.8314  142.2147  158.8801 H   0  0  0  0  0  0  0  0  0  0  0  0
  150.3577  142.5074  157.2399 H   0  0  0  0  0  0  0  0  0  0  0  0
  151.9581  140.9977  158.3952 H   0  0  0  0  0  0  0  0  0  0  0  0
  152.7369  142.5110  158.0024 H   0  0  0  0  0  0  0  0  0  0  0  0
  153.3714  142.0318  160.2715 H   0  0  0  0  0  0  0  0  0  0  0  0
  151.7409  141.5844  160.7283 H   0  0  0  0  0  0  0  0  0  0  0  0
  154.8243  145.1905  165.1753 H   0  0  0  0  0  0  0  0  0  0  0  0
  156.0011  146.3828  166.9261 H   0  0  0  0  0  0  0  0  0  0  0  0
  1  2  1  0  0  0  0
  1 23  1  0  0  0  0
  1 24  1  0  0  0  0
  1 25  1  0  0  0  0
  2  3  1  0  0  0  0
  3  4  1  0  0  0  0
  3 26  1  0  0  0  0
  3 27  1  0  0  0  0
  4  5  1  0  0  0  0
  4 28  1  0  0  0  0
  4 29  1  0  0  0  0
  5 21  1  0  0  0  0
  5  6  1  0  0  0  0
  6  7  2  0  0  0  0
  7  8  1  0  0  0  0
  7 19  1  0  0  0  0
  8  9  2  0  0  0  0
  8 10  1  0  0  0  0
 10 11  1  0  0  0  0
 10 30  1  0  0  0  0
 11 12  1  0  0  0  0
 11 31  1  0  0  0  0
 11 32  1  0  0  0  0
 12 13  1  0  0  0  0
 12 33  1  0  0  0  0
 12 34  1  0  0  0  0
 13 18  1  0  0  0  0
 13 14  2  0  0  0  0
 14 15  1  0  0  0  0
 14 35  1  0  0  0  0
 15 16  1  0  0  0  0
 15 36  1  0  0  0  0
 15 37  1  0  0  0  0
 16 17  1  0  0  0  0
 16 38  1  0  0  0  0
 16 39  1  0  0  0  0
 17 18  1  0  0  0  0
 17 40  1  0  0  0  0
 17 41  1  0  0  0  0
 18 42  1  0  0  0  0
 18 43  1  0  0  0  0
 19 20  2  0  0  0  0
 19 44  1  0  0  0  0
 20 21  1  0  0  0  0
 20 45  1  0  0  0  0
 21 22  2  0  0  0  0
M  END
> <s_m_source_file>
AV-unprocessed.smi

> <i_m_source_file_index>
1281

> <i_lp_mmshare_version>
43012

> <i_f3d_flags>
0

> <s_epik_input>
W0NIM11PW0NIMl1bQ0gyXW4xbmMoW2NIXVtjSF1jMT1PKUMoPU8pW05IXVtDSDJdW0NIMl1DMj1bQ0hdW0NIMl1bQ0gyXVtDSDJdW0NIMl0y

> <s_epik_cmdline>
J2VwaWtfcHl0aG9uJywgJy1waCcsICc3LjAnLCAnLXRuJywgJzgnLCAnLW1hJywgJzIwMCcsICctbWV0YWxfYmluZGluZycsICctaW1hZScsICc8aW5maWxlLm1hZT4nLCAnLW9tYWUnLCAnPG91dGZpbGUubWFlPic=

> <r_lp_tautomer_probability>
1

> <r_epik_Ionization_Penalty>
8.17845e-07

> <r_epik_Ionization_Penalty_Charging>
5.79962e-09

> <r_epik_Ionization_Penalty_Neutral>
8.12046e-07

> <r_epik_State_Penalty>
-0

> <r_epik_Charging_Adjusted_Penalty>
5.79962e-09

> <i_epik_Tot_Q>
0

> <i_epik_Tot_abs_Q>
0

> <r_epik_Metal_State_Penalty>
-0

> <b_epik_Metal_Only>
0

> <s_lp_Force_Field>
OPLS_2005

> <r_lp_Energy>
28.483

> <b_lp_Chiralities_Consistent>
1

> <s_lp_Variant>
AV-unprocessed.smi:1281-1

> <Gold.Version>
5.8.1

> <Gold.Id.Protein>
6NUR|6NUR_protein|mol2

> <Gold.PLP.Fitness>
45.7344

> <Gold.PLP.PLP>
-46.8842

> <Gold.PLP.part.hbond>
-1.0000

> <Gold.PLP.part.metal>
0.0000

> <Gold.PLP.part.buried>
-5.3986

> <Gold.PLP.part.nonpolar>
-38.7147

> <Gold.PLP.part.repulsive>
0.3186

> <Gold.PLP.ligand.clash>
0.5166

> <Gold.PLP.ligand.torsion>
0.3951

> <Gold.PLP.Chemscore.Hbond>
0.0000

> <Gold.PLP.Chemscore.CHOScore>
0.0000

> <Gold.PLP.Chemscore.Metal>
0.0000

> <Gold.PLP.Chemscore.Internal.Correction>
0.1570

> <Gold.Rescore>
     Score         DG    S(hbond)    S(metal)    S(lipo)     H(rot)  DE(clash)    DE(int)     intcor
     12.49     -13.64       0.00        0.00     110.53       1.86       0.57       0.58       ----

> <Gold.Chemscore.Fitness>
12.4860

> <Gold.Chemscore.DG>
-13.6377

> <Gold.Chemscore.ZeroCoef>
-5.4800

> <Gold.Chemscore.Hbond>
0.0000

> <Gold.Chemscore.Metal>
0.0000

> <Gold.Chemscore.Lipo>
110.5285

> <Gold.Chemscore.Internal_Hbond>
0.0000

> <Gold.Chemscore.DEClash>
0.5684

> <Gold.Chemscore.DEInternal>
0.5833

> <Gold.Chemscore.Rot>
1.8649

> <Gold.Chemscore.Internal.Correction>
   9.000000E+99

> <Gold.Chemscore.Hbond.Weighted>
-0.0000

> <Gold.Chemscore.Metal.Weighted>
-0.0000

> <Gold.Chemscore.Lipo.Weighted>
-12.9318

> <Gold.Chemscore.Internal_Hbond.Weighted>
0.0000

> <Gold.Chemscore.DEClash.Weighted>
0.5684

> <Gold.Chemscore.DEInternal.Weighted>
0.5833

> <Gold.Chemscore.Rot.Weighted>
4.7741

> <Gold.Chemscore.Internal.Correction.Weighted>
   9.000000E+99

> <Gold.Protein.RotatedTorsions>
[ 6907 6896 6895 6894 ] final   34.15 input  -60.11 | X-H torsion
[ 7974 7965 7964 7962 ] final  169.68 input  175.53 | X-H torsion
[ 8008 7997 7996 7995 ] final   19.02 input   59.86 | X-H torsion
[ 10167 10162 10161 10158 ] final  138.71 input  -65.29 | X-H torsion
[ 10718 10713 10712 10709 ] final   99.44 input   66.30 | X-H torsion
[ 10763 10752 10751 10750 ] final   55.31 input  -60.55 | X-H torsion
[ 11005 11000 10999 10996 ] final -107.96 input  -57.11 | X-H torsion

> <Gold.Protein.ActiveResidues>
 VAL166  LYS551  ARG553  GLY616  TRP617  ASP618  TYR619  PRO620  LYS621  CYS622 
 ASP623  PHE694  ASN695  SER759  ASP760  ASP761  ALA762  ILE779  LEU786  VAL792 
 PHE793  MET794  SER795  GLU796  ALA797  LYS798  CYS799  TRP800  GLU811  SER814 

> <Gold.Protein.RotatedAtoms>
  152.0985  134.9358  160.0569 H   0  0  0  0  0  0  0  0  0  0  0  0  # atno 6907 bound_to 6896
  152.0582  133.4045  159.4414 H   0  0  0  0  0  0  0  0  0  0  0  0  # atno 6908 bound_to 6896
  150.6838  134.3151  159.4806 H   0  0  0  0  0  0  0  0  0  0  0  0  # atno 6909 bound_to 6896
  144.7347  139.9091  143.6414 H   0  0  0  0  0  0  0  0  0  0  0  0  # atno 7974 bound_to 7965
  154.9146  140.3019  155.5248 H   0  0  0  0  0  0  0  0  0  0  0  0  # atno 8008 bound_to 7997
  156.3013  140.2383  156.4124 H   0  0  0  0  0  0  0  0  0  0  0  0  # atno 8009 bound_to 7997
  154.8392  140.0414  157.1518 H   0  0  0  0  0  0  0  0  0  0  0  0  # atno 8010 bound_to 7997
  139.5102  144.6337  151.5751 H   0  0  0  0  0  0  0  0  0  0  0  0  # atno 10167 bound_to 10162
  157.6876  131.0669  150.4948 H   0  0  0  0  0  0  0  0  0  0  0  0  # atno 10718 bound_to 10713
  152.9815  135.5715  154.5047 H   0  0  0  0  0  0  0  0  0  0  0  0  # atno 10763 bound_to 10752
  154.4560  135.2780  155.1749 H   0  0  0  0  0  0  0  0  0  0  0  0  # atno 10764 bound_to 10752
  154.3356  135.6240  153.5625 H   0  0  0  0  0  0  0  0  0  0  0  0  # atno 10765 bound_to 10752
  141.0927  133.9027  157.2038 H   0  0  0  0  0  0  0  0  0  0  0  0  # atno 11005 bound_to 11000
  146.1015  139.4010  143.0344 LP  0  0  0  0  0  0  0  0  0  0  0  0  # atno 17320 bound_to 7965
  145.7572  140.9949  143.1219 LP  0  0  0  0  0  0  0  0  0  0  0  0  # atno 17321 bound_to 7965
  140.6079  143.9490  150.6432 LP  0  0  0  0  0  0  0  0  0  0  0  0  # atno 17342 bound_to 10162
  140.2723  143.3447  152.1227 LP  0  0  0  0  0  0  0  0  0  0  0  0  # atno 17343 bound_to 10162
  156.5273  130.4176  149.6220 LP  0  0  0  0  0  0  0  0  0  0  0  0  # atno 17370 bound_to 10713
  156.3101  130.7224  151.2115 LP  0  0  0  0  0  0  0  0  0  0  0  0  # atno 17371 bound_to 10713
  139.9756  135.0115  156.9623 LP  0  0  0  0  0  0  0  0  0  0  0  0  # atno 17394 bound_to 11000
  140.5214  134.0903  155.7293 LP  0  0  0  0  0  0  0  0  0  0  0  0  # atno 17395 bound_to 11000

$$$$
