AV-unprocessed.smi:1384|AV-procd|sdf|5627|dock6
  -GOLD-   22720 5243D 1   1.00000     0.00000
 Structure written by MMmdl.
 41 42  0  0  0  0  0  0  0  0  1 V2000
  146.6239  141.4745  154.7901 C   0  0  0  0  0  0  0  0  0  0  0  0
  147.8221  140.5834  154.4325 C   0  0  2  0  0  0  0  0  0  0  0  0
  147.7432  139.2225  155.1506 C   0  0  0  0  0  0  0  0  0  0  0  0
  148.9437  138.3243  154.8020 C   0  0  0  0  0  0  0  0  0  0  0  0
  150.2912  139.0122  155.0929 C   0  0  2  0  0  0  0  0  0  0  0  0
  150.4977  139.1272  156.5358 N   0  0  0  0  0  0  0  0  0  0  0  0
  151.6481  139.4704  157.1348 C   0  0  0  0  0  0  0  0  0  0  0  0
  152.6769  139.7420  156.5140 O   0  0  0  0  0  0  0  0  0  0  0  0
  151.6100  139.5271  158.6689 C   0  0  0  0  0  0  0  0  0  0  0  0
  151.8962  140.8645  159.2166 N   0  0  0  0  0  0  0  0  0  0  0  0
  152.9862  140.9690  160.0988 C   0  0  0  0  0  0  0  0  0  0  0  0
  153.3339  142.1370  160.6556 C   0  0  0  0  0  0  0  0  0  0  0  0
  152.5568  143.3071  160.3272 C   0  0  0  0  0  0  0  0  0  0  0  0
  151.4983  143.2366  159.4870 C   0  0  0  0  0  0  0  0  0  0  0  0
  150.6683  144.4665  159.1254 C   0  0  0  0  0  0  0  0  0  0  0  0
  150.8340  144.7852  157.8410 F   0  0  0  0  0  0  0  0  0  0  0  0
  149.3720  144.2322  159.3327 F   0  0  0  0  0  0  0  0  0  0  0  0
  151.0128  145.5285  159.8554 F   0  0  0  0  0  0  0  0  0  0  0  0
  151.1212  141.9425  158.8822 C   0  0  0  0  0  0  0  0  0  0  0  0
  150.1622  141.8268  158.1170 O   0  0  0  0  0  0  0  0  0  0  0  0
  150.3626  140.3889  154.3981 C   0  0  0  0  0  0  0  0  0  0  0  0
  149.1588  141.2818  154.7475 C   0  0  0  0  0  0  0  0  0  0  0  0
  146.5990  141.6957  155.8577 H   0  0  0  0  0  0  0  0  0  0  0  0
  145.6829  140.9902  154.5285 H   0  0  0  0  0  0  0  0  0  0  0  0
  146.6658  142.4233  154.2542 H   0  0  0  0  0  0  0  0  0  0  0  0
  147.7850  140.3990  153.3577 H   0  0  0  0  0  0  0  0  0  0  0  0
  147.7016  139.3769  156.2295 H   0  0  0  0  0  0  0  0  0  0  0  0
  146.8181  138.7127  154.8797 H   0  0  0  0  0  0  0  0  0  0  0  0
  148.8752  137.3814  155.3457 H   0  0  0  0  0  0  0  0  0  0  0  0
  148.8970  138.0662  153.7432 H   0  0  0  0  0  0  0  0  0  0  0  0
  151.0827  138.3775  154.6899 H   0  0  0  0  0  0  0  0  0  0  0  0
  149.7009  138.9281  157.1232 H   0  0  0  0  0  0  0  0  0  0  0  0
  150.6279  139.1830  158.9969 H   0  0  0  0  0  0  0  0  0  0  0  0
  152.3141  138.7964  159.0714 H   0  0  0  0  0  0  0  0  0  0  0  0
  153.5103  140.0451  160.2974 H   0  0  0  0  0  0  0  0  0  0  0  0
  154.1710  142.1999  161.3351 H   0  0  0  0  0  0  0  0  0  0  0  0
  152.8391  144.2502  160.7706 H   0  0  0  0  0  0  0  0  0  0  0  0
  151.2920  140.8994  154.6525 H   0  0  0  0  0  0  0  0  0  0  0  0
  150.3904  140.2395  153.3180 H   0  0  0  0  0  0  0  0  0  0  0  0
  149.2291  142.2178  154.1921 H   0  0  0  0  0  0  0  0  0  0  0  0
  149.1965  141.5502  155.8041 H   0  0  0  0  0  0  0  0  0  0  0  0
  1  2  1  0  0  0  0
  1 23  1  0  0  0  0
  1 24  1  0  0  0  0
  1 25  1  0  0  0  0
  2 22  1  0  0  0  0
  2  3  1  0  0  0  0
  2 26  1  0  0  0  0
  3  4  1  0  0  0  0
  3 27  1  0  0  0  0
  3 28  1  0  0  0  0
  4  5  1  0  0  0  0
  4 29  1  0  0  0  0
  4 30  1  0  0  0  0
  5  6  1  0  0  0  0
  5 21  1  0  0  0  0
  5 31  1  0  0  0  0
  6  7  1  0  0  0  0
  6 32  1  0  0  0  0
  7  8  2  0  0  0  0
  7  9  1  0  0  0  0
  9 10  1  0  0  0  0
  9 33  1  0  0  0  0
  9 34  1  0  0  0  0
 10 19  1  0  0  0  0
 10 11  1  0  0  0  0
 11 12  2  0  0  0  0
 11 35  1  0  0  0  0
 12 13  1  0  0  0  0
 12 36  1  0  0  0  0
 13 14  2  0  0  0  0
 13 37  1  0  0  0  0
 14 15  1  0  0  0  0
 14 19  1  0  0  0  0
 15 16  1  0  0  0  0
 15 17  1  0  0  0  0
 15 18  1  0  0  0  0
 19 20  2  0  0  0  0
 21 22  1  0  0  0  0
 21 38  1  0  0  0  0
 21 39  1  0  0  0  0
 22 40  1  0  0  0  0
 22 41  1  0  0  0  0
M  END
> <s_m_source_file>
AV-unprocessed.smi

> <i_m_source_file_index>
1384

> <i_lp_mmshare_version>
43012

> <i_f3d_flags>
0

> <s_epik_input>
W0NIM11bQ0BASF0xW0NIMl1bQ0gyXVtDQEhdKFtDSDJdW0NIMl0xKVtOSF1DKD1PKVtDSDJdbjJbY0hdW2NIXVtjSF1jKEMoRikoRilGKWMyPU8=

> <s_epik_cmdline>
J2VwaWtfcHl0aG9uJywgJy1waCcsICc3LjAnLCAnLXRuJywgJzgnLCAnLW1hJywgJzIwMCcsICctbWV0YWxfYmluZGluZycsICctaW1hZScsICc8aW5maWxlLm1hZT4nLCAnLW9tYWUnLCAnPG91dGZpbGUubWFlPic=

> <r_lp_tautomer_probability>
1

> <r_epik_Ionization_Penalty>
2.11165e-08

> <r_epik_Ionization_Penalty_Charging>
2.06965e-09

> <r_epik_Ionization_Penalty_Neutral>
1.90469e-08

> <r_epik_State_Penalty>
-0

> <r_epik_Charging_Adjusted_Penalty>
2.06965e-09

> <i_epik_Tot_Q>
0

> <i_epik_Tot_abs_Q>
0

> <r_epik_Metal_State_Penalty>
-0

> <b_epik_Metal_Only>
0

> <s_lp_Force_Field>
OPLS_2005

> <r_lp_Energy>
18.4349

> <b_lp_Chiralities_Consistent>
1

> <s_lp_Variant>
AV-unprocessed.smi:1384-2

> <Gold.Version>
5.8.1

> <Gold.Id.Protein>
6NUR|6NUR_protein|mol2

> <Gold.PLP.Fitness>
49.2968

> <Gold.PLP.PLP>
-46.6496

> <Gold.PLP.part.hbond>
-1.0000

> <Gold.PLP.part.metal>
0.0000

> <Gold.PLP.part.buried>
-1.8592

> <Gold.PLP.part.nonpolar>
-43.2461

> <Gold.PLP.part.repulsive>
0.0607

> <Gold.PLP.ligand.clash>
0.1416

> <Gold.PLP.ligand.torsion>
0.2679

> <Gold.PLP.Chemscore.Hbond>
1.0000

> <Gold.PLP.Chemscore.CHOScore>
0.0000

> <Gold.PLP.Chemscore.Metal>
0.0000

> <Gold.Chemscore.Hbonds>
donor molecule, donor type, donor heavy atom, donor atom, acceptor molecule, acceptor atom, score
      P1  H  7997  8008       L1     8  1.00

> <Gold.PLP.Chemscore.Internal.Correction>
0.3246

> <Gold.Rescore>
     Score         DG    S(hbond)    S(metal)    S(lipo)     H(rot)  DE(clash)    DE(int)     intcor
     12.19     -16.74       1.00        0.00     101.12       1.52       1.80       2.75       ----

> <Gold.Chemscore.Fitness>
12.1897

> <Gold.Chemscore.DG>
-16.7386

> <Gold.Chemscore.ZeroCoef>
-5.4800

> <Gold.Chemscore.Hbond>
0.9968

> <Gold.Chemscore.Metal>
0.0000

> <Gold.Chemscore.Lipo>
101.1209

> <Gold.Chemscore.Internal_Hbond>
0.0000

> <Gold.Chemscore.DEClash>
1.7955

> <Gold.Chemscore.DEInternal>
2.7534

> <Gold.Chemscore.Rot>
1.5242

> <Gold.Chemscore.Internal.Correction>
   9.000000E+99

> <Gold.Chemscore.Hbonds>
donor molecule, donor type, donor heavy atom, donor atom, acceptor molecule, acceptor atom, score
      P1  H  7997  8008       L1     8  1.00

> <Gold.Chemscore.Hbond.Weighted>
-3.3294

> <Gold.Chemscore.Metal.Weighted>
-0.0000

> <Gold.Chemscore.Lipo.Weighted>
-11.8311

> <Gold.Chemscore.Internal_Hbond.Weighted>
0.0000

> <Gold.Chemscore.DEClash.Weighted>
1.7955

> <Gold.Chemscore.DEInternal.Weighted>
2.7534

> <Gold.Chemscore.Rot.Weighted>
3.9019

> <Gold.Chemscore.Internal.Correction.Weighted>
   9.000000E+99

> <Gold.Protein.RotatedTorsions>
[ 6907 6896 6895 6894 ] final  174.06 input  -60.11 | X-H torsion
[ 7974 7965 7964 7962 ] final   70.00 input  175.53 | X-H torsion
[ 8008 7997 7996 7995 ] final  -54.53 input   59.86 | X-H torsion
[ 10167 10162 10161 10158 ] final -124.39 input  -65.29 | X-H torsion
[ 10718 10713 10712 10709 ] final    4.24 input   66.30 | X-H torsion
[ 10763 10752 10751 10750 ] final   45.57 input  -60.55 | X-H torsion
[ 11005 11000 10999 10996 ] final -124.96 input  -57.11 | X-H torsion

> <Gold.Protein.ActiveResidues>
 VAL166  LYS551  ARG553  GLY616  TRP617  ASP618  TYR619  PRO620  LYS621  CYS622 
 ASP623  PHE694  ASN695  SER759  ASP760  ASP761  ALA762  ILE779  LEU786  VAL792 
 PHE793  MET794  SER795  GLU796  ALA797  LYS798  CYS799  TRP800  GLU811  SER814 

> <Gold.Protein.RotatedAtoms>
  151.7584  133.3332  159.3410 H   0  0  0  0  0  0  0  0  0  0  0  0  # atno 6907 bound_to 6896
  150.7507  134.6128  159.6104 H   0  0  0  0  0  0  0  0  0  0  0  0  # atno 6908 bound_to 6896
  152.3422  134.7122  160.0312 H   0  0  0  0  0  0  0  0  0  0  0  0  # atno 6909 bound_to 6896
  145.7835  139.2899  143.1251 H   0  0  0  0  0  0  0  0  0  0  0  0  # atno 7974 bound_to 7965
  154.4165  140.1174  156.5330 H   0  0  0  0  0  0  0  0  0  0  0  0  # atno 8008 bound_to 7997
  155.6586  140.3496  155.4755 H   0  0  0  0  0  0  0  0  0  0  0  0  # atno 8009 bound_to 7997
  155.9732  140.1145  157.0783 H   0  0  0  0  0  0  0  0  0  0  0  0  # atno 8010 bound_to 7997
  139.9933  143.5617  152.2333 H   0  0  0  0  0  0  0  0  0  0  0  0  # atno 10167 bound_to 10162
  156.8896  130.5683  149.5650 H   0  0  0  0  0  0  0  0  0  0  0  0  # atno 10718 bound_to 10713
  152.9822  135.6035  154.3458 H   0  0  0  0  0  0  0  0  0  0  0  0  # atno 10763 bound_to 10752
  154.3151  135.2770  155.2549 H   0  0  0  0  0  0  0  0  0  0  0  0  # atno 10764 bound_to 10752
  154.4740  135.5934  153.6398 H   0  0  0  0  0  0  0  0  0  0  0  0  # atno 10765 bound_to 10752
  140.9800  134.0687  157.3776 H   0  0  0  0  0  0  0  0  0  0  0  0  # atno 11005 bound_to 11000
  146.0049  140.8487  143.0000 LP  0  0  0  0  0  0  0  0  0  0  0  0  # atno 17320 bound_to 7965
  144.6792  140.2406  143.7344 LP  0  0  0  0  0  0  0  0  0  0  0  0  # atno 17321 bound_to 7965
  139.6324  144.7646  151.2508 LP  0  0  0  0  0  0  0  0  0  0  0  0  # atno 17342 bound_to 10162
  140.7446  143.6456  150.8294 LP  0  0  0  0  0  0  0  0  0  0  0  0  # atno 17343 bound_to 10162
  156.0635  130.5683  150.9242 LP  0  0  0  0  0  0  0  0  0  0  0  0  # atno 17370 bound_to 10713
  157.6091  131.0937  150.8826 LP  0  0  0  0  0  0  0  0  0  0  0  0  # atno 17371 bound_to 10713
  139.8946  135.0137  156.6960 LP  0  0  0  0  0  0  0  0  0  0  0  0  # atno 17394 bound_to 11000
  140.7201  133.9148  155.8141 LP  0  0  0  0  0  0  0  0  0  0  0  0  # atno 17395 bound_to 11000

$$$$
