AV-unprocessed.smi:2375|AV-procd|sdf|9443|dock2
  -GOLD-   2272013 73D 1   1.00000     0.00000
 Structure written by MMmdl.
 37 38  0  0  0  0  0  0  0  0  1 V2000
  150.5603  139.8495  154.2069 C   0  0  0  0  0  0  0  0  0  0  0  0
  150.5065  138.3803  154.4542 C   0  0  0  0  0  0  0  0  0  0  0  0
  151.4775  137.4474  154.1876 C   0  0  0  0  0  0  0  0  0  0  0  0
  151.1259  136.1466  154.5540 N   0  0  0  0  0  0  0  0  0  0  0  0
  149.9071  136.0803  155.0973 C   0  0  0  0  0  0  0  0  0  0  0  0
  149.2946  134.8156  155.6197 C   0  0  1  0  0  0  0  0  0  0  0  0
  148.0050  135.0780  156.4097 C   0  0  0  0  0  0  0  0  0  0  0  0
  149.1246  133.7316  154.5327 C   0  0  0  0  0  0  0  0  0  0  0  0
  148.3891  134.2184  153.3700 N   0  0  0  0  0  0  0  0  0  0  0  0
  147.2834  133.6546  152.8575 C   0  0  0  0  0  0  0  0  0  0  0  0
  146.7094  132.6970  153.3728 O   0  0  0  0  0  0  0  0  0  0  0  0
  146.8433  134.2225  151.7205 N   0  0  0  0  0  0  0  0  0  0  0  0
  145.6747  133.8436  150.9233 C   0  0  0  0  0  0  0  0  0  0  0  0
  144.3492  134.2057  151.6357 C   0  0  0  0  0  0  0  0  0  0  0  0
  143.4919  132.9851  151.4341 C   0  0  0  0  0  0  0  0  0  0  0  0
  144.1684  131.9723  150.8962 C   0  0  0  0  0  0  0  0  0  0  0  0
  145.6076  132.3211  150.6364 C   0  0  0  0  0  0  0  0  0  0  0  0
  149.0983  137.6419  155.1701 S   0  0  0  0  0  0  0  0  0  0  0  0
  151.4598  140.1220  153.6543 H   0  0  0  0  0  0  0  0  0  0  0  0
  150.5646  140.3981  155.1488 H   0  0  0  0  0  0  0  0  0  0  0  0
  149.6972  140.1769  153.6274 H   0  0  0  0  0  0  0  0  0  0  0  0
  152.4482  137.6213  153.7474 H   0  0  0  0  0  0  0  0  0  0  0  0
  150.0094  134.4150  156.3396 H   0  0  0  0  0  0  0  0  0  0  0  0
  148.1835  135.7706  157.2326 H   0  0  0  0  0  0  0  0  0  0  0  0
  147.6115  134.1541  156.8343 H   0  0  0  0  0  0  0  0  0  0  0  0
  147.2310  135.5076  155.7732 H   0  0  0  0  0  0  0  0  0  0  0  0
  150.0938  133.3295  154.2330 H   0  0  0  0  0  0  0  0  0  0  0  0
  148.5577  132.8939  154.9403 H   0  0  0  0  0  0  0  0  0  0  0  0
  148.7835  135.0102  152.8834 H   0  0  0  0  0  0  0  0  0  0  0  0
  147.3423  135.0415  151.4044 H   0  0  0  0  0  0  0  0  0  0  0  0
  145.6920  134.3792  149.9723 H   0  0  0  0  0  0  0  0  0  0  0  0
  144.4820  134.3761  152.7050 H   0  0  0  0  0  0  0  0  0  0  0  0
  143.8820  135.0891  151.1990 H   0  0  0  0  0  0  0  0  0  0  0  0
  142.4524  132.9556  151.7254 H   0  0  0  0  0  0  0  0  0  0  0  0
  143.7652  130.9930  150.6835 H   0  0  0  0  0  0  0  0  0  0  0  0
  145.8916  132.0870  149.6101 H   0  0  0  0  0  0  0  0  0  0  0  0
  146.2371  131.7426  151.3130 H   0  0  0  0  0  0  0  0  0  0  0  0
  1  2  1  0  0  0  0
  1 19  1  0  0  0  0
  1 20  1  0  0  0  0
  1 21  1  0  0  0  0
  2 18  1  0  0  0  0
  2  3  2  0  0  0  0
  3  4  1  0  0  0  0
  3 22  1  0  0  0  0
  4  5  2  0  0  0  0
  5  6  1  0  0  0  0
  5 18  1  0  0  0  0
  6  7  1  0  0  0  0
  6  8  1  0  0  0  0
  6 23  1  0  0  0  0
  7 24  1  0  0  0  0
  7 25  1  0  0  0  0
  7 26  1  0  0  0  0
  8  9  1  0  0  0  0
  8 27  1  0  0  0  0
  8 28  1  0  0  0  0
  9 10  1  0  0  0  0
  9 29  1  0  0  0  0
 10 11  2  0  0  0  0
 10 12  1  0  0  0  0
 12 13  1  0  0  0  0
 12 30  1  0  0  0  0
 13 17  1  0  0  0  0
 13 14  1  0  0  0  0
 13 31  1  0  0  0  0
 14 15  1  0  0  0  0
 14 32  1  0  0  0  0
 14 33  1  0  0  0  0
 15 16  2  0  0  0  0
 15 34  1  0  0  0  0
 16 17  1  0  0  0  0
 16 35  1  0  0  0  0
 17 36  1  0  0  0  0
 17 37  1  0  0  0  0
M  END
> <s_m_source_file>
AV-unprocessed.smi

> <i_m_source_file_index>
2375

> <i_lp_mmshare_version>
43012

> <i_f3d_flags>
0

> <s_epik_input>
W0NIM11jMVtjSF1uYyhzMSlbQ0BIXShbQ0gzXSlbQ0gyXVtOSF1DKD1PKVtOSF1bQ0hdMltDSDJdW0NIXT1bQ0hdW0NIMl0y

> <s_epik_cmdline>
J2VwaWtfcHl0aG9uJywgJy1waCcsICc3LjAnLCAnLXRuJywgJzgnLCAnLW1hJywgJzIwMCcsICctbWV0YWxfYmluZGluZycsICctaW1hZScsICc8aW5maWxlLm1hZT4nLCAnLW9tYWUnLCAnPG91dGZpbGUubWFlPic=

> <r_epik_Ionization_Penalty>
0.000644205

> <r_epik_Ionization_Penalty_Charging>
0

> <r_epik_Ionization_Penalty_Neutral>
0.000644205

> <r_epik_State_Penalty>
0.000370883

> <r_epik_Charging_Adjusted_Penalty>
0.000370883

> <i_epik_Tot_Q>
0

> <i_epik_Tot_abs_Q>
0

> <r_epik_Metal_State_Penalty>
-0

> <b_epik_Metal_Only>
0

> <s_lp_Force_Field>
OPLS_2005

> <r_lp_Energy>
15.8173

> <b_lp_Chiralities_Consistent>
1

> <s_lp_Variant>
AV-unprocessed.smi:2375-2

> <Gold.Version>
5.8.1

> <Gold.Id.Protein>
6NUR|6NUR_protein|mol2

> <Gold.PLP.Fitness>
39.3940

> <Gold.PLP.PLP>
-31.5674

> <Gold.PLP.part.hbond>
-3.0000

> <Gold.PLP.part.metal>
0.0000

> <Gold.PLP.part.buried>
-1.8665

> <Gold.PLP.part.nonpolar>
-26.2526

> <Gold.PLP.part.repulsive>
0.3404

> <Gold.PLP.ligand.clash>
0.0000

> <Gold.PLP.ligand.torsion>
0.2803

> <Gold.PLP.Chemscore.Hbond>
2.7480

> <Gold.PLP.Chemscore.CHOScore>
0.0000

> <Gold.PLP.Chemscore.Metal>
0.0000

> <Gold.Chemscore.Hbonds>
donor molecule, donor type, donor heavy atom, donor atom, acceptor molecule, acceptor atom, score
      L1  H     9    29       P1  7948  1.00
      L1  H    12    30       P1  7948  0.85
      P1  H 10752 10765       L1     4  0.70

> <Gold.PLP.Chemscore.Internal.Correction>
0.1432

> <Gold.Rescore>
     Score         DG    S(hbond)    S(metal)    S(lipo)     H(rot)  DE(clash)    DE(int)     intcor
     13.18     -14.68       1.62        0.00      65.30       1.50       0.00       1.50       ----

> <Gold.Chemscore.Fitness>
13.1835

> <Gold.Chemscore.DG>
-14.6842

> <Gold.Chemscore.ZeroCoef>
-5.4800

> <Gold.Chemscore.Hbond>
1.6187

> <Gold.Chemscore.Metal>
0.0000

> <Gold.Chemscore.Lipo>
65.3047

> <Gold.Chemscore.Internal_Hbond>
0.0000

> <Gold.Chemscore.DEClash>
0.0000

> <Gold.Chemscore.DEInternal>
1.5006

> <Gold.Chemscore.Rot>
1.5012

> <Gold.Chemscore.Internal.Correction>
   9.000000E+99

> <Gold.Chemscore.Hbonds>
donor molecule, donor type, donor heavy atom, donor atom, acceptor molecule, acceptor atom, score
      L1  H     9    29       P1  7948  0.25
      L1  H    12    30       P1  7948  0.53
      P1  H 10752 10765       L1     4  0.07

> <Gold.Chemscore.Hbond.Weighted>
-5.4065

> <Gold.Chemscore.Metal.Weighted>
-0.0000

> <Gold.Chemscore.Lipo.Weighted>
-7.6407

> <Gold.Chemscore.Internal_Hbond.Weighted>
0.0000

> <Gold.Chemscore.DEClash.Weighted>
0.0000

> <Gold.Chemscore.DEInternal.Weighted>
1.5006

> <Gold.Chemscore.Rot.Weighted>
3.8429

> <Gold.Chemscore.Internal.Correction.Weighted>
   9.000000E+99

> <Gold.Protein.RotatedTorsions>
[ 6907 6896 6895 6894 ] final   81.31 input  -60.11 | X-H torsion
[ 7974 7965 7964 7962 ] final  126.57 input  175.53 | X-H torsion
[ 8008 7997 7996 7995 ] final   72.24 input   59.86 | X-H torsion
[ 10167 10162 10161 10158 ] final -106.17 input  -65.29 | X-H torsion
[ 10718 10713 10712 10709 ] final  -29.36 input   66.30 | X-H torsion
[ 10763 10752 10751 10750 ] final -173.54 input  -60.55 | X-H torsion
[ 11005 11000 10999 10996 ] final    5.99 input  -57.11 | X-H torsion

> <Gold.Protein.ActiveResidues>
 VAL166  LYS551  ARG553  GLY616  TRP617  ASP618  TYR619  PRO620  LYS621  CYS622 
 ASP623  PHE694  ASN695  SER759  ASP760  ASP761  ALA762  ILE779  LEU786  VAL792 
 PHE793  MET794  SER795  GLU796  ALA797  LYS798  CYS799  TRP800  GLU811  SER814 

> <Gold.Protein.RotatedAtoms>
  152.5264  134.3223  159.9152 H   0  0  0  0  0  0  0  0  0  0  0  0  # atno 6907 bound_to 6896
  151.3173  133.4048  159.2659 H   0  0  0  0  0  0  0  0  0  0  0  0  # atno 6908 bound_to 6896
  150.9989  134.9323  159.7999 H   0  0  0  0  0  0  0  0  0  0  0  0  # atno 6909 bound_to 6896
  145.0602  139.3811  143.5009 H   0  0  0  0  0  0  0  0  0  0  0  0  # atno 7974 bound_to 7965
  155.7658  140.3485  155.5221 H   0  0  0  0  0  0  0  0  0  0  0  0  # atno 8008 bound_to 7997
  155.8869  140.1011  157.1467 H   0  0  0  0  0  0  0  0  0  0  0  0  # atno 8009 bound_to 7997
  154.4030  140.1311  156.4254 H   0  0  0  0  0  0  0  0  0  0  0  0  # atno 8010 bound_to 7997
  140.1907  143.3894  152.1209 H   0  0  0  0  0  0  0  0  0  0  0  0  # atno 10167 bound_to 10162
  156.4135  130.4412  149.7235 H   0  0  0  0  0  0  0  0  0  0  0  0  # atno 10718 bound_to 10713
  154.6067  135.2860  155.0477 H   0  0  0  0  0  0  0  0  0  0  0  0  # atno 10763 bound_to 10752
  154.1722  135.6470  153.5016 H   0  0  0  0  0  0  0  0  0  0  0  0  # atno 10764 bound_to 10752
  153.0178  135.5403  154.6805 H   0  0  0  0  0  0  0  0  0  0  0  0  # atno 10765 bound_to 10752
  140.5645  134.0161  155.7984 H   0  0  0  0  0  0  0  0  0  0  0  0  # atno 11005 bound_to 11000
  146.3524  140.0297  142.8651 LP  0  0  0  0  0  0  0  0  0  0  0  0  # atno 17320 bound_to 7965
  145.1418  140.9575  143.4484 LP  0  0  0  0  0  0  0  0  0  0  0  0  # atno 17321 bound_to 7965
  139.5257  144.7099  151.5238 LP  0  0  0  0  0  0  0  0  0  0  0  0  # atno 17342 bound_to 10162
  140.6458  143.8798  150.6736 LP  0  0  0  0  0  0  0  0  0  0  0  0  # atno 17343 bound_to 10162
  156.4204  130.7766  151.2783 LP  0  0  0  0  0  0  0  0  0  0  0  0  # atno 17370 bound_to 10713
  157.7507  131.0184  150.3626 LP  0  0  0  0  0  0  0  0  0  0  0  0  # atno 17371 bound_to 10713
  141.1094  133.9640  157.2937 LP  0  0  0  0  0  0  0  0  0  0  0  0  # atno 17394 bound_to 11000
  139.9392  135.0193  156.8653 LP  0  0  0  0  0  0  0  0  0  0  0  0  # atno 17395 bound_to 11000

$$$$
