AV-unprocessed.smi:1809|AV-procd|sdf|7326|dock6
  -GOLD-   22720 8583D 1   1.00000     0.00000
 Structure written by MMmdl.
 39 41  0  0  0  0  0  0  0  0  3 V2000
  150.5785  142.3740  157.3729 C   0  0  0  0  0  0  0  0  0  0  0  0
  150.3933  141.3582  156.2982 C   0  0  0  0  0  0  0  0  0  0  0  0
  151.4177  140.7720  155.6742 N   0  0  0  0  0  0  0  0  0  0  0  0
  150.9945  139.8662  154.7123 N   0  0  0  0  0  0  0  0  0  0  0  0
  149.6600  139.7862  154.6155 C   0  0  0  0  0  0  0  0  0  0  0  0
  149.0508  138.9627  153.7464 N   0  5  0  0  0  0  0  0  0  0  0  0
  147.7107  139.0226  153.5817 C   0  0  0  0  0  0  0  0  0  0  0  0
  146.9858  139.9903  153.8252 O   0  0  0  0  0  0  0  0  0  0  0  0
  147.1742  137.8876  153.1120 N   0  0  0  0  0  0  0  0  0  0  0  0
  145.7555  137.6561  152.8639 C   0  0  0  0  0  0  0  0  0  0  0  0
  145.4951  136.2177  152.3856 C   0  0  1  0  0  0  0  0  0  0  0  0
  145.8052  136.0431  150.8871 C   0  0  0  0  0  0  0  0  0  0  0  0
  145.6770  134.6304  150.4590 N   0  3  2  0  0  0  0  0  0  0  0  0
  144.3053  134.1468  150.1858 C   0  0  0  0  0  0  0  0  0  0  0  0
  144.2926  132.6538  150.5507 C   0  0  0  0  0  0  0  0  0  0  0  0
  145.7372  132.3151  150.9311 C   0  0  0  0  0  0  0  0  0  0  0  0
  146.3339  133.6574  151.3568 C   0  0  2  0  0  0  0  0  0  0  0  0
  146.0510  133.9772  152.8426 C   0  0  0  0  0  0  0  0  0  0  0  0
  146.3432  135.3392  153.1169 O   0  0  0  0  0  0  0  0  0  0  0  0
  148.8094  140.8369  155.7487 S   0  0  0  0  0  0  0  0  0  0  0  0
  150.7528  143.3550  156.9311 H   0  0  0  0  0  0  0  0  0  0  0  0
  151.4330  142.1126  157.9977 H   0  0  0  0  0  0  0  0  0  0  0  0
  149.6898  142.4249  158.0022 H   0  0  0  0  0  0  0  0  0  0  0  0
  147.8034  137.1209  152.9236 H   0  0  0  0  0  0  0  0  0  0  0  0
  145.1866  137.8652  153.7713 H   0  0  0  0  0  0  0  0  0  0  0  0
  145.4145  138.3708  152.1145 H   0  0  0  0  0  0  0  0  0  0  0  0
  144.4507  135.9639  152.5745 H   0  0  0  0  0  0  0  0  0  0  0  0
  145.1601  136.6759  150.2761 H   0  0  0  0  0  0  0  0  0  0  0  0
  146.8306  136.3596  150.6913 H   0  0  0  0  0  0  0  0  0  0  0  0
  143.5681  134.6849  150.7830 H   0  0  0  0  0  0  0  0  0  0  0  0
  144.0624  134.3097  149.1353 H   0  0  0  0  0  0  0  0  0  0  0  0
  143.6338  132.4894  151.4043 H   0  0  0  0  0  0  0  0  0  0  0  0
  143.9303  132.0300  149.7329 H   0  0  0  0  0  0  0  0  0  0  0  0
  145.8053  131.5487  151.7040 H   0  0  0  0  0  0  0  0  0  0  0  0
  146.2667  131.9445  150.0521 H   0  0  0  0  0  0  0  0  0  0  0  0
  147.4109  133.6798  151.1858 H   0  0  0  0  0  0  0  0  0  0  0  0
  145.0144  133.7657  153.1099 H   0  0  0  0  0  0  0  0  0  0  0  0
  146.6701  133.3486  153.4828 H   0  0  0  0  0  0  0  0  0  0  0  0
  146.1577  134.5531  149.5741 H   0  0  0  0  0  0  0  0  0  0  0  0
  1  2  1  0  0  0  0
  1 21  1  0  0  0  0
  1 22  1  0  0  0  0
  1 23  1  0  0  0  0
  2 20  1  0  0  0  0
  2  3  2  0  0  0  0
  3  4  1  0  0  0  0
  4  5  2  0  0  0  0
  5  6  1  0  0  0  0
  5 20  1  0  0  0  0
  6  7  1  0  0  0  0
  7  8  2  0  0  0  0
  7  9  1  0  0  0  0
  9 10  1  0  0  0  0
  9 24  1  0  0  0  0
 10 11  1  0  0  0  0
 10 25  1  0  0  0  0
 10 26  1  0  0  0  0
 11 19  1  0  0  0  0
 11 12  1  0  0  0  0
 11 27  1  0  0  0  0
 12 13  1  0  0  0  0
 12 28  1  0  0  0  0
 12 29  1  0  0  0  0
 13 17  1  0  0  0  0
 13 14  1  0  0  0  0
 13 39  1  0  0  0  0
 14 15  1  0  0  0  0
 14 30  1  0  0  0  0
 14 31  1  0  0  0  0
 15 16  1  0  0  0  0
 15 32  1  0  0  0  0
 15 33  1  0  0  0  0
 16 17  1  0  0  0  0
 16 34  1  0  0  0  0
 16 35  1  0  0  0  0
 17 18  1  0  0  0  0
 17 36  1  0  0  0  0
 18 19  1  0  0  0  0
 18 37  1  0  0  0  0
 18 38  1  0  0  0  0
M  CHG  1   6  -1
M  CHG  1  13   1
M  END
> <s_m_source_file>
AV-unprocessed.smi

> <i_m_source_file_index>
1809

> <i_lp_mmshare_version>
43012

> <i_f3d_flags>
0

> <s_epik_input>
W0NIM11jMW5uYyhzMSlbTkhdQyg9TylbTkhdW0NIMl1bQ0BIXShbQ0gyXTIpT1tDSDJdW0NAQEhdKE4yMylbQ0gyXVtDSDJdW0NIMl0z

> <s_epik_cmdline>
J2VwaWtfcHl0aG9uJywgJy1waCcsICc3LjAnLCAnLXRuJywgJzgnLCAnLW1hJywgJzIwMCcsICctbWV0YWxfYmluZGluZycsICctaW1hZScsICc8aW5maWxlLm1hZT4nLCAnLW9tYWUnLCAnPG91dGZpbGUubWFlPic=

> <r_lp_tautomer_probability>
1

> <r_epik_Ionization_Penalty>
3.2601

> <r_epik_Ionization_Penalty_Charging>
3.1406

> <r_epik_Ionization_Penalty_Neutral>
0.119497

> <r_epik_State_Penalty>
3.08894

> <r_epik_Charging_Adjusted_Penalty>
6.22954

> <i_epik_Tot_Q>
0

> <i_epik_Tot_abs_Q>
2

> <r_epik_Metal_State_Penalty>
0.510807

> <b_epik_Metal_Only>
1

> <s_lp_Force_Field>
OPLS_2005

> <r_lp_Energy>
28.762

> <b_lp_Chiralities_Consistent>
1

> <s_lp_Variant>
AV-unprocessed.smi:1809-18

> <Gold.Version>
5.8.1

> <Gold.Id.Protein>
6NUR|6NUR_protein|mol2

> <Gold.PLP.Fitness>
37.9960

> <Gold.PLP.PLP>
-31.1486

> <Gold.PLP.part.hbond>
-4.0000

> <Gold.PLP.part.metal>
0.0000

> <Gold.PLP.part.buried>
-6.1650

> <Gold.PLP.part.nonpolar>
-23.9095

> <Gold.PLP.part.repulsive>
3.3458

> <Gold.PLP.ligand.clash>
0.0000

> <Gold.PLP.ligand.torsion>
0.3316

> <Gold.PLP.Chemscore.Hbond>
2.5000

> <Gold.PLP.Chemscore.CHOScore>
0.0000

> <Gold.PLP.Chemscore.Metal>
0.0000

> <Gold.Chemscore.Hbonds>
donor molecule, donor type, donor heavy atom, donor atom, acceptor molecule, acceptor atom, score
      L1  H     9    24       P1  7948  1.00
      L1  H    13    39       P1  7921  0.99
      P1  H  7989  7998       L1     4  0.50

> <Gold.PLP.Chemscore.Internal.Correction>
0.0105

> <Gold.Rescore>
     Score         DG    S(hbond)    S(metal)    S(lipo)     H(rot)  DE(clash)    DE(int)     intcor
     13.94     -15.97       2.00        0.00      61.63       1.32       0.22       1.82       ----

> <Gold.Chemscore.Fitness>
13.9386

> <Gold.Chemscore.DG>
-15.9728

> <Gold.Chemscore.ZeroCoef>
-5.4800

> <Gold.Chemscore.Hbond>
1.9978

> <Gold.Chemscore.Metal>
0.0000

> <Gold.Chemscore.Lipo>
61.6330

> <Gold.Chemscore.Internal_Hbond>
0.0000

> <Gold.Chemscore.DEClash>
0.2171

> <Gold.Chemscore.DEInternal>
1.8171

> <Gold.Chemscore.Rot>
1.3246

> <Gold.Chemscore.Internal.Correction>
   9.000000E+99

> <Gold.Chemscore.Hbonds>
donor molecule, donor type, donor heavy atom, donor atom, acceptor molecule, acceptor atom, score
      L1  H     9    24       P1  7948  0.95
      L1  H    13    39       P1  7921  0.32
      P1  H  7989  7998       L1     4  0.02

> <Gold.Chemscore.Hbond.Weighted>
-6.6727

> <Gold.Chemscore.Metal.Weighted>
-0.0000

> <Gold.Chemscore.Lipo.Weighted>
-7.2111

> <Gold.Chemscore.Internal_Hbond.Weighted>
0.0000

> <Gold.Chemscore.DEClash.Weighted>
0.2171

> <Gold.Chemscore.DEInternal.Weighted>
1.8171

> <Gold.Chemscore.Rot.Weighted>
3.3910

> <Gold.Chemscore.Internal.Correction.Weighted>
   9.000000E+99

> <Gold.Protein.RotatedTorsions>
[ 6907 6896 6895 6894 ] final -168.62 input  -60.11 | X-H torsion
[ 7974 7965 7964 7962 ] final  -18.05 input  175.53 | X-H torsion
[ 8008 7997 7996 7995 ] final  175.05 input   59.86 | X-H torsion
[ 10167 10162 10161 10158 ] final -105.16 input  -65.29 | X-H torsion
[ 10718 10713 10712 10709 ] final  107.62 input   66.30 | X-H torsion
[ 10763 10752 10751 10750 ] final   90.46 input  -60.55 | X-H torsion
[ 11005 11000 10999 10996 ] final -101.56 input  -57.11 | X-H torsion

> <Gold.Protein.ActiveResidues>
 VAL166  LYS551  ARG553  GLY616  TRP617  ASP618  TYR619  PRO620  LYS621  CYS622 
 ASP623  PHE694  ASN695  SER759  ASP760  ASP761  ALA762  ILE779  LEU786  VAL792 
 PHE793  MET794  SER795  GLU796  ALA797  LYS798  CYS799  TRP800  GLU811  SER814 

> <Gold.Protein.RotatedAtoms>
  151.4785  133.3552  159.2834 H   0  0  0  0  0  0  0  0  0  0  0  0  # atno 6907 bound_to 6896
  150.8913  134.8319  159.7306 H   0  0  0  0  0  0  0  0  0  0  0  0  # atno 6908 bound_to 6896
  152.4824  134.4695  159.9683 H   0  0  0  0  0  0  0  0  0  0  0  0  # atno 6909 bound_to 6896
  146.1911  140.3867  142.8458 H   0  0  0  0  0  0  0  0  0  0  0  0  # atno 7974 bound_to 7965
  156.0910  140.1419  156.9591 H   0  0  0  0  0  0  0  0  0  0  0  0  # atno 8008 bound_to 7997
  154.4642  140.0932  156.7023 H   0  0  0  0  0  0  0  0  0  0  0  0  # atno 8009 bound_to 7997
  155.4919  140.3448  155.4358 H   0  0  0  0  0  0  0  0  0  0  0  0  # atno 8010 bound_to 7997
  140.2016  143.3814  152.1125 H   0  0  0  0  0  0  0  0  0  0  0  0  # atno 10167 bound_to 10162
  157.6621  131.0876  150.6184 H   0  0  0  0  0  0  0  0  0  0  0  0  # atno 10718 bound_to 10713
  153.1978  135.4433  155.0229 H   0  0  0  0  0  0  0  0  0  0  0  0  # atno 10763 bound_to 10752
  154.8129  135.3302  154.7258 H   0  0  0  0  0  0  0  0  0  0  0  0  # atno 10764 bound_to 10752
  153.7706  135.6985  153.4962 H   0  0  0  0  0  0  0  0  0  0  0  0  # atno 10765 bound_to 10752
  141.1226  133.8488  157.1247 H   0  0  0  0  0  0  0  0  0  0  0  0  # atno 11005 bound_to 11000
  144.8489  140.6971  143.6181 LP  0  0  0  0  0  0  0  0  0  0  0  0  # atno 17320 bound_to 7965
  145.3789  139.1641  143.4291 LP  0  0  0  0  0  0  0  0  0  0  0  0  # atno 17321 bound_to 7965
  139.5215  144.7047  151.5390 LP  0  0  0  0  0  0  0  0  0  0  0  0  # atno 17342 bound_to 10162
  140.6387  143.8933  150.6671 LP  0  0  0  0  0  0  0  0  0  0  0  0  # atno 17343 bound_to 10162
  156.6486  130.4479  149.5727 LP  0  0  0  0  0  0  0  0  0  0  0  0  # atno 17370 bound_to 10713
  156.2154  130.6705  151.1314 LP  0  0  0  0  0  0  0  0  0  0  0  0  # atno 17371 bound_to 10713
  140.0195  134.9952  157.0563 LP  0  0  0  0  0  0  0  0  0  0  0  0  # atno 17394 bound_to 11000
  140.4463  134.1629  155.7177 LP  0  0  0  0  0  0  0  0  0  0  0  0  # atno 17395 bound_to 11000

$$$$
