AV-unprocessed.smi:1745|AV-procd|sdf|7030|dock2
  -GOLD-   22720 8243D 1   1.00000     0.00000
 Structure written by MMmdl.
 47 49  0  0  0  0  0  0  0  0  1 V2000
  149.4297  132.4087  154.9513 C   0  0  0  0  0  0  0  0  0  0  0  0
  148.2755  133.2656  154.4116 C   0  0  1  0  0  0  0  0  0  0  0  0
  148.7652  134.6212  154.1659 N   0  0  0  0  0  0  0  0  0  0  0  0
  149.1720  135.4943  155.0990 C   0  0  0  0  0  0  0  0  0  0  0  0
  149.1785  135.2507  156.3051 O   0  0  0  0  0  0  0  0  0  0  0  0
  149.5760  136.6456  154.5353 N   0  0  0  0  0  0  0  0  0  0  0  0
  150.1058  137.8054  155.1634 C   0  0  0  0  0  0  0  0  0  0  0  0
  150.2618  137.7810  156.5637 C   0  0  0  0  0  0  0  0  0  0  0  0
  150.7920  138.9090  157.2169 C   0  0  0  0  0  0  0  0  0  0  0  0
  151.1600  140.0313  156.4404 C   0  0  0  0  0  0  0  0  0  0  0  0
  151.6867  141.1896  157.0275 N   0  0  0  0  0  0  0  0  0  0  0  0
  150.8683  142.3744  156.8039 C   0  0  0  0  0  0  0  0  0  0  0  0
  151.5751  143.6173  157.3722 C   0  0  0  0  0  0  0  0  0  0  0  0
  151.8699  143.4106  158.7511 O   0  0  0  0  0  0  0  0  0  0  0  0
  152.7344  142.2958  158.9514 C   0  0  0  0  0  0  0  0  0  0  0  0
  152.0575  141.0179  158.4265 C   0  0  0  0  0  0  0  0  0  0  0  0
  151.0294  140.0579  155.0965 N   0  0  0  0  0  0  0  0  0  0  0  0
  150.5194  138.9725  154.4757 C   0  0  0  0  0  0  0  0  0  0  0  0
  147.6774  132.6756  153.1195 C   0  0  2  0  0  0  0  0  0  0  0  0
  146.6973  133.5924  152.3858 C   0  0  0  0  0  0  0  0  0  0  0  0
  145.8306  132.6256  151.5946 C   0  0  0  0  0  0  0  0  0  0  0  0
  146.0953  131.2657  152.2474 C   0  0  0  0  0  0  0  0  0  0  0  0
  146.8635  131.5498  153.4085 O   0  0  0  0  0  0  0  0  0  0  0  0
  149.0953  131.3953  155.1749 H   0  0  0  0  0  0  0  0  0  0  0  0
  149.8338  132.8299  155.8724 H   0  0  0  0  0  0  0  0  0  0  0  0
  150.2447  132.3382  154.2303 H   0  0  0  0  0  0  0  0  0  0  0  0
  147.4938  133.2810  155.1732 H   0  0  0  0  0  0  0  0  0  0  0  0
  148.7964  134.9170  153.2013 H   0  0  0  0  0  0  0  0  0  0  0  0
  149.5673  136.6684  153.5262 H   0  0  0  0  0  0  0  0  0  0  0  0
  149.9733  136.9109  157.1350 H   0  0  0  0  0  0  0  0  0  0  0  0
  150.9096  138.9086  158.2907 H   0  0  0  0  0  0  0  0  0  0  0  0
  150.6872  142.5023  155.7358 H   0  0  0  0  0  0  0  0  0  0  0  0
  149.8970  142.2505  157.2845 H   0  0  0  0  0  0  0  0  0  0  0  0
  152.4928  143.8295  156.8213 H   0  0  0  0  0  0  0  0  0  0  0  0
  150.9341  144.4933  157.2730 H   0  0  0  0  0  0  0  0  0  0  0  0
  153.6878  142.4664  158.4484 H   0  0  0  0  0  0  0  0  0  0  0  0
  152.9484  142.1980  160.0158 H   0  0  0  0  0  0  0  0  0  0  0  0
  151.1702  140.8002  159.0223 H   0  0  0  0  0  0  0  0  0  0  0  0
  152.7324  140.1672  158.5275 H   0  0  0  0  0  0  0  0  0  0  0  0
  150.4667  139.0552  153.4015 H   0  0  0  0  0  0  0  0  0  0  0  0
  148.4736  132.3682  152.4383 H   0  0  0  0  0  0  0  0  0  0  0  0
  146.0791  134.1329  153.1041 H   0  0  0  0  0  0  0  0  0  0  0  0
  147.1984  134.3267  151.7542 H   0  0  0  0  0  0  0  0  0  0  0  0
  144.7785  132.9062  151.6526 H   0  0  0  0  0  0  0  0  0  0  0  0
  146.1155  132.6061  150.5421 H   0  0  0  0  0  0  0  0  0  0  0  0
  145.1764  130.7396  152.5071 H   0  0  0  0  0  0  0  0  0  0  0  0
  146.6762  130.6271  151.5802 H   0  0  0  0  0  0  0  0  0  0  0  0
  1  2  1  0  0  0  0
  1 24  1  0  0  0  0
  1 25  1  0  0  0  0
  1 26  1  0  0  0  0
  2  3  1  0  0  0  0
  2 19  1  0  0  0  0
  2 27  1  0  0  0  0
  3  4  1  0  0  0  0
  3 28  1  0  0  0  0
  4  5  2  0  0  0  0
  4  6  1  0  0  0  0
  6  7  1  0  0  0  0
  6 29  1  0  0  0  0
  7 18  1  0  0  0  0
  7  8  2  0  0  0  0
  8  9  1  0  0  0  0
  8 30  1  0  0  0  0
  9 10  2  0  0  0  0
  9 31  1  0  0  0  0
 10 11  1  0  0  0  0
 10 17  1  0  0  0  0
 11 16  1  0  0  0  0
 11 12  1  0  0  0  0
 12 13  1  0  0  0  0
 12 32  1  0  0  0  0
 12 33  1  0  0  0  0
 13 14  1  0  0  0  0
 13 34  1  0  0  0  0
 13 35  1  0  0  0  0
 14 15  1  0  0  0  0
 15 16  1  0  0  0  0
 15 36  1  0  0  0  0
 15 37  1  0  0  0  0
 16 38  1  0  0  0  0
 16 39  1  0  0  0  0
 17 18  2  0  0  0  0
 18 40  1  0  0  0  0
 19 23  1  0  0  0  0
 19 20  1  0  0  0  0
 19 41  1  0  0  0  0
 20 21  1  0  0  0  0
 20 42  1  0  0  0  0
 20 43  1  0  0  0  0
 21 22  1  0  0  0  0
 21 44  1  0  0  0  0
 21 45  1  0  0  0  0
 22 23  1  0  0  0  0
 22 46  1  0  0  0  0
 22 47  1  0  0  0  0
M  END
> <s_m_source_file>
AV-unprocessed.smi

> <i_m_source_file_index>
1745

> <i_lp_mmshare_version>
43012

> <i_f3d_flags>
0

> <s_epik_input>
TzFbQ0gyXVtDSDJdW0NIMl1bQ0BIXTFbQ0BIXShbQ0gzXSlbTkhdQyg9TylbTkhdYzJbY0hdW2NIXWMobltjSF0yKU4zW0NIMl1bQ0gyXU9bQ0gyXVtDSDJdMw==

> <s_epik_cmdline>
J2VwaWtfcHl0aG9uJywgJy1waCcsICc3LjAnLCAnLXRuJywgJzgnLCAnLW1hJywgJzIwMCcsICctbWV0YWxfYmluZGluZycsICctaW1hZScsICc8aW5maWxlLm1hZT4nLCAnLW9tYWUnLCAnPG91dGZpbGUubWFlPic=

> <r_lp_tautomer_probability>
1

> <r_epik_Ionization_Penalty>
0.00206005

> <r_epik_Ionization_Penalty_Charging>
0

> <r_epik_Ionization_Penalty_Neutral>
0.00206005

> <r_epik_State_Penalty>
0.00138459

> <r_epik_Charging_Adjusted_Penalty>
0.00138459

> <i_epik_Tot_Q>
0

> <i_epik_Tot_abs_Q>
0

> <r_epik_Metal_State_Penalty>
-0

> <b_epik_Metal_Only>
0

> <s_lp_Force_Field>
OPLS_2005

> <r_lp_Energy>
36.4473

> <b_lp_Chiralities_Consistent>
1

> <s_lp_Variant>
AV-unprocessed.smi:1745-2

> <Gold.Version>
5.8.1

> <Gold.Id.Protein>
6NUR|6NUR_protein|mol2

> <Gold.PLP.Fitness>
46.2271

> <Gold.PLP.PLP>
-36.2384

> <Gold.PLP.part.hbond>
-3.0000

> <Gold.PLP.part.metal>
0.0000

> <Gold.PLP.part.buried>
-4.3425

> <Gold.PLP.part.nonpolar>
-29.0823

> <Gold.PLP.part.repulsive>
0.2447

> <Gold.PLP.ligand.clash>
0.3337

> <Gold.PLP.ligand.torsion>
0.3812

> <Gold.PLP.Chemscore.Hbond>
2.6500

> <Gold.PLP.Chemscore.CHOScore>
1.0000

> <Gold.PLP.Chemscore.Metal>
0.0000

> <Gold.Chemscore.Hbonds>
donor molecule, donor type, donor heavy atom, donor atom, acceptor molecule, acceptor atom, score
      L1  H     3    28       P1  7948  1.00
      L1  H     6    29       P1  7948  1.00
      P1  H  7989  7998       L1    17  0.75
      L1  C    18    40       P1  7957  0.88

> <Gold.PLP.Chemscore.Internal.Correction>
0.1348

> <Gold.Rescore>
     Score         DG    S(hbond)    S(metal)    S(lipo)     H(rot)  DE(clash)    DE(int)     intcor
     16.54     -18.21       1.81        0.00      87.63       1.40       0.01       1.65       ----

> <Gold.Chemscore.Fitness>
16.5387

> <Gold.Chemscore.DG>
-18.2082

> <Gold.Chemscore.ZeroCoef>
-5.4800

> <Gold.Chemscore.Hbond>
1.8104

> <Gold.Chemscore.Metal>
0.0000

> <Gold.Chemscore.Lipo>
87.6286

> <Gold.Chemscore.Internal_Hbond>
0.0000

> <Gold.Chemscore.DEClash>
0.0149

> <Gold.Chemscore.DEInternal>
1.6546

> <Gold.Chemscore.Rot>
1.3950

> <Gold.Chemscore.Internal.Correction>
   9.000000E+99

> <Gold.Chemscore.Hbonds>
donor molecule, donor type, donor heavy atom, donor atom, acceptor molecule, acceptor atom, score
      L1  H     3    28       P1  7948  0.34
      L1  H     6    29       P1  7948  0.69
      P1  H  7989  7998       L1    17  0.09

> <Gold.Chemscore.Hbond.Weighted>
-6.0468

> <Gold.Chemscore.Metal.Weighted>
-0.0000

> <Gold.Chemscore.Lipo.Weighted>
-10.2525

> <Gold.Chemscore.Internal_Hbond.Weighted>
0.0000

> <Gold.Chemscore.DEClash.Weighted>
0.0149

> <Gold.Chemscore.DEInternal.Weighted>
1.6546

> <Gold.Chemscore.Rot.Weighted>
3.5712

> <Gold.Chemscore.Internal.Correction.Weighted>
   9.000000E+99

> <Gold.Protein.RotatedTorsions>
[ 6907 6896 6895 6894 ] final -123.73 input  -60.11 | X-H torsion
[ 7974 7965 7964 7962 ] final  156.77 input  175.53 | X-H torsion
[ 8008 7997 7996 7995 ] final   13.19 input   59.86 | X-H torsion
[ 10167 10162 10161 10158 ] final -130.93 input  -65.29 | X-H torsion
[ 10718 10713 10712 10709 ] final  125.37 input   66.30 | X-H torsion
[ 10763 10752 10751 10750 ] final -177.05 input  -60.55 | X-H torsion
[ 11005 11000 10999 10996 ] final   32.66 input  -57.11 | X-H torsion

> <Gold.Protein.ActiveResidues>
 VAL166  LYS551  ARG553  GLY616  TRP617  ASP618  TYR619  PRO620  LYS621  CYS622 
 ASP623  PHE694  ASN695  SER759  ASP760  ASP761  ALA762  ILE779  LEU786  VAL792 
 PHE793  MET794  SER795  GLU796  ALA797  LYS798  CYS799  TRP800  GLU811  SER814 

> <Gold.Protein.RotatedAtoms>
  150.8699  133.7520  159.2964 H   0  0  0  0  0  0  0  0  0  0  0  0  # atno 6907 bound_to 6896
  151.5136  135.1064  159.9870 H   0  0  0  0  0  0  0  0  0  0  0  0  # atno 6908 bound_to 6896
  152.4688  133.7937  159.6971 H   0  0  0  0  0  0  0  0  0  0  0  0  # atno 6909 bound_to 6896
  144.7943  139.7249  143.6208 H   0  0  0  0  0  0  0  0  0  0  0  0  # atno 7974 bound_to 7965
  154.8311  140.2899  155.5722 H   0  0  0  0  0  0  0  0  0  0  0  0  # atno 8008 bound_to 7997
  156.3005  140.2532  156.3167 H   0  0  0  0  0  0  0  0  0  0  0  0  # atno 8009 bound_to 7997
  154.9231  140.0385  157.1997 H   0  0  0  0  0  0  0  0  0  0  0  0  # atno 8010 bound_to 7997
  139.9241  143.6347  152.2546 H   0  0  0  0  0  0  0  0  0  0  0  0  # atno 10167 bound_to 10162
  157.5508  131.1094  150.8704 H   0  0  0  0  0  0  0  0  0  0  0  0  # atno 10718 bound_to 10713
  154.5649  135.2823  155.0884 H   0  0  0  0  0  0  0  0  0  0  0  0  # atno 10763 bound_to 10752
  154.2279  135.6379  153.5169 H   0  0  0  0  0  0  0  0  0  0  0  0  # atno 10764 bound_to 10752
  153.0040  135.5530  154.6254 H   0  0  0  0  0  0  0  0  0  0  0  0  # atno 10765 bound_to 10752
  140.2712  134.3080  155.7827 H   0  0  0  0  0  0  0  0  0  0  0  0  # atno 11005 bound_to 11000
  146.2206  139.5629  142.9621 LP  0  0  0  0  0  0  0  0  0  0  0  0  # atno 17320 bound_to 7965
  145.5713  141.0394  143.2172 LP  0  0  0  0  0  0  0  0  0  0  0  0  # atno 17321 bound_to 7965
  139.6836  144.7653  151.1563 LP  0  0  0  0  0  0  0  0  0  0  0  0  # atno 17342 bound_to 10162
  140.7654  143.5689  150.9018 LP  0  0  0  0  0  0  0  0  0  0  0  0  # atno 17343 bound_to 10162
  156.9230  130.5322  149.5279 LP  0  0  0  0  0  0  0  0  0  0  0  0  # atno 17370 bound_to 10713
  156.0575  130.5634  150.9123 LP  0  0  0  0  0  0  0  0  0  0  0  0  # atno 17371 bound_to 10713
  141.2177  133.7468  156.9337 LP  0  0  0  0  0  0  0  0  0  0  0  0  # atno 17394 bound_to 11000
  140.1371  134.9318  157.2417 LP  0  0  0  0  0  0  0  0  0  0  0  0  # atno 17395 bound_to 11000

$$$$
