AV-unprocessed.smi:3274|AV-procd|sdf|12522|dock10
  -GOLD-   2272018433D 1   1.00000     0.00000
 Structure written by MMmdl.
 43 44  0  0  0  0  0  0  0  0  2 V2000
  147.7613  140.4737  153.4386 C   0  0  0  0  0  0  0  0  0  0  0  0
  148.9919  140.4027  154.3276 C   0  0  0  0  0  0  0  0  0  0  0  0
  149.3101  141.4255  155.1457 C   0  0  0  0  0  0  0  0  0  0  0  0
  150.5404  141.4744  156.0344 C   0  0  0  0  0  0  0  0  0  0  0  0
  151.3146  140.1465  156.0670 C   0  0  0  0  0  0  0  0  0  0  0  0
  151.3175  139.4642  154.6884 C   0  0  1  0  0  0  0  0  0  0  0  0
  152.2816  138.2664  154.6383 C   0  0  0  0  0  0  0  0  0  0  0  0
  149.8684  139.1468  154.2207 C   0  0  1  0  0  0  0  0  0  0  0  0
  149.2428  137.9368  154.9619 C   0  0  0  0  0  0  0  0  0  0  0  0
  149.7651  136.6396  154.4818 N   0  3  0  0  0  0  0  0  0  0  0  0
  149.3189  135.4540  155.2460 C   0  0  2  0  0  0  0  0  0  0  0  0
  149.3884  135.7641  156.7508 C   0  0  0  0  0  0  0  0  0  0  0  0
  150.1502  134.2066  154.8645 C   0  0  0  0  0  0  0  0  0  0  0  0
  149.3683  133.1864  154.1901 N   0  0  0  0  0  0  0  0  0  0  0  0
  148.5066  133.2793  153.1757 C   0  0  0  0  0  0  0  0  0  0  0  0
  147.9597  132.1219  152.8316 N   0  0  0  0  0  0  0  0  0  0  0  0
  148.5624  131.3029  153.7442 C   0  0  0  0  0  0  0  0  0  0  0  0
  149.4118  131.8925  154.5859 N   0  0  0  0  0  0  0  0  0  0  0  0
  148.0111  140.1964  152.4142 H   0  0  0  0  0  0  0  0  0  0  0  0
  147.3527  141.4846  153.4168 H   0  0  0  0  0  0  0  0  0  0  0  0
  146.9717  139.8155  153.7974 H   0  0  0  0  0  0  0  0  0  0  0  0
  148.6799  142.3026  155.1742 H   0  0  0  0  0  0  0  0  0  0  0  0
  151.1863  142.2659  155.6531 H   0  0  0  0  0  0  0  0  0  0  0  0
  150.2496  141.7648  157.0444 H   0  0  0  0  0  0  0  0  0  0  0  0
  152.3350  140.3329  156.4038 H   0  0  0  0  0  0  0  0  0  0  0  0
  150.8706  139.4803  156.8071 H   0  0  0  0  0  0  0  0  0  0  0  0
  151.7198  140.1913  153.9803 H   0  0  0  0  0  0  0  0  0  0  0  0
  152.0657  137.5338  155.4160 H   0  0  0  0  0  0  0  0  0  0  0  0
  153.3108  138.5944  154.7868 H   0  0  0  0  0  0  0  0  0  0  0  0
  152.2359  137.7623  153.6726 H   0  0  0  0  0  0  0  0  0  0  0  0
  149.9353  138.8913  153.1620 H   0  0  0  0  0  0  0  0  0  0  0  0
  149.4574  137.9831  156.0285 H   0  0  0  0  0  0  0  0  0  0  0  0
  148.1590  137.9625  154.8560 H   0  0  0  0  0  0  0  0  0  0  0  0
  149.5089  136.5165  153.5126 H   0  0  0  0  0  0  0  0  0  0  0  0
  148.2711  135.2736  155.0003 H   0  0  0  0  0  0  0  0  0  0  0  0
  148.9849  134.9466  157.3489 H   0  0  0  0  0  0  0  0  0  0  0  0
  148.8086  136.6551  156.9942 H   0  0  0  0  0  0  0  0  0  0  0  0
  150.4158  135.9372  157.0734 H   0  0  0  0  0  0  0  0  0  0  0  0
  150.9791  134.4717  154.2083 H   0  0  0  0  0  0  0  0  0  0  0  0
  150.5918  133.7638  155.7585 H   0  0  0  0  0  0  0  0  0  0  0  0
  148.2746  134.2096  152.6782 H   0  0  0  0  0  0  0  0  0  0  0  0
  148.3681  130.2414  153.7913 H   0  0  0  0  0  0  0  0  0  0  0  0
  150.7724  136.6847  154.5418 H   0  0  0  0  0  0  0  0  0  0  0  0
  1  2  1  0  0  0  0
  1 19  1  0  0  0  0
  1 20  1  0  0  0  0
  1 21  1  0  0  0  0
  2  8  1  0  0  0  0
  2  3  2  0  0  0  0
  3  4  1  0  0  0  0
  3 22  1  0  0  0  0
  4  5  1  0  0  0  0
  4 23  1  0  0  0  0
  4 24  1  0  0  0  0
  5  6  1  0  0  0  0
  5 25  1  0  0  0  0
  5 26  1  0  0  0  0
  6  7  1  0  0  0  0
  6  8  1  0  0  0  0
  6 27  1  0  0  0  0
  7 28  1  0  0  0  0
  7 29  1  0  0  0  0
  7 30  1  0  0  0  0
  8  9  1  0  0  0  0
  8 31  1  0  0  0  0
  9 10  1  0  0  0  0
  9 32  1  0  0  0  0
  9 33  1  0  0  0  0
 10 11  1  0  0  0  0
 10 34  1  0  0  0  0
 10 43  1  0  0  0  0
 11 12  1  0  0  0  0
 11 13  1  0  0  0  0
 11 35  1  0  0  0  0
 12 36  1  0  0  0  0
 12 37  1  0  0  0  0
 12 38  1  0  0  0  0
 13 14  1  0  0  0  0
 13 39  1  0  0  0  0
 13 40  1  0  0  0  0
 14 18  1  0  0  0  0
 14 15  1  0  0  0  0
 15 16  2  0  0  0  0
 15 41  1  0  0  0  0
 16 17  1  0  0  0  0
 17 18  2  0  0  0  0
 17 42  1  0  0  0  0
M  CHG  1  10   1
M  END
> <s_m_source_file>
AV-unprocessed.smi

> <i_m_source_file_index>
3274

> <i_lp_mmshare_version>
43012

> <i_f3d_flags>
0

> <s_epik_input>
W0NIM11DMT1bQ0hdW0NIMl1bQ0gyXVtDQEBIXShbQ0gzXSlbQ0BIXTFbQ0gyXVtOSF1bQ0BIXShbQ0gzXSlbQ0gyXW4yW2NIXW5bY0hdbjI=

> <s_epik_cmdline>
J2VwaWtfcHl0aG9uJywgJy1waCcsICc3LjAnLCAnLXRuJywgJzgnLCAnLW1hJywgJzIwMCcsICctbWV0YWxfYmluZGluZycsICctaW1hZScsICc8aW5maWxlLm1hZT4nLCAnLW9tYWUnLCAnPG91dGZpbGUubWFlPic=

> <r_lp_tautomer_probability>
1

> <r_epik_Ionization_Penalty>
0.0017527

> <r_epik_Ionization_Penalty_Charging>
0.00175191

> <r_epik_Ionization_Penalty_Neutral>
7.94565e-07

> <r_epik_State_Penalty>
0.00118605

> <r_epik_Charging_Adjusted_Penalty>
0.00293796

> <i_epik_Tot_Q>
1

> <i_epik_Tot_abs_Q>
1

> <r_epik_Metal_State_Penalty>
-0

> <b_epik_Metal_Only>
0

> <s_lp_Force_Field>
OPLS_2005

> <r_lp_Energy>
17.2811

> <b_lp_Chiralities_Consistent>
1

> <s_lp_Variant>
AV-unprocessed.smi:3274-1

> <Gold.Version>
5.8.1

> <Gold.Id.Protein>
6NUR|6NUR_protein|mol2

> <Gold.PLP.Fitness>
42.0178

> <Gold.PLP.PLP>
-35.2646

> <Gold.PLP.part.hbond>
-1.0000

> <Gold.PLP.part.metal>
0.0000

> <Gold.PLP.part.buried>
-0.9140

> <Gold.PLP.part.nonpolar>
-34.2272

> <Gold.PLP.part.repulsive>
0.1959

> <Gold.PLP.ligand.clash>
0.0000

> <Gold.PLP.ligand.torsion>
1.1405

> <Gold.PLP.Chemscore.Hbond>
2.0000

> <Gold.PLP.Chemscore.CHOScore>
1.0000

> <Gold.PLP.Chemscore.Metal>
0.0000

> <Gold.Chemscore.Hbonds>
donor molecule, donor type, donor heavy atom, donor atom, acceptor molecule, acceptor atom, score
      L1  H    10    34       P1  7948  2.00
      L1  C    15    41       P1  7948  0.85

> <Gold.PLP.Chemscore.Internal.Correction>
0.0341

> <Gold.Rescore>
     Score         DG    S(hbond)    S(metal)    S(lipo)     H(rot)  DE(clash)    DE(int)     intcor
      9.83     -11.30       0.97        0.00      73.72       2.36       0.21       1.26       ----

> <Gold.Chemscore.Fitness>
9.8330

> <Gold.Chemscore.DG>
-11.2974

> <Gold.Chemscore.ZeroCoef>
-5.4800

> <Gold.Chemscore.Hbond>
0.9694

> <Gold.Chemscore.Metal>
0.0000

> <Gold.Chemscore.Lipo>
73.7181

> <Gold.Chemscore.Internal_Hbond>
0.0000

> <Gold.Chemscore.DEClash>
0.2062

> <Gold.Chemscore.DEInternal>
1.2582

> <Gold.Chemscore.Rot>
2.3615

> <Gold.Chemscore.Internal.Correction>
   9.000000E+99

> <Gold.Chemscore.Hbonds>
donor molecule, donor type, donor heavy atom, donor atom, acceptor molecule, acceptor atom, score
      L1  H    10    34       P1  7948  0.70

> <Gold.Chemscore.Hbond.Weighted>
-3.2378

> <Gold.Chemscore.Metal.Weighted>
-0.0000

> <Gold.Chemscore.Lipo.Weighted>
-8.6250

> <Gold.Chemscore.Internal_Hbond.Weighted>
0.0000

> <Gold.Chemscore.DEClash.Weighted>
0.2062

> <Gold.Chemscore.DEInternal.Weighted>
1.2582

> <Gold.Chemscore.Rot.Weighted>
6.0454

> <Gold.Chemscore.Internal.Correction.Weighted>
   9.000000E+99

> <Gold.Protein.RotatedTorsions>
[ 6907 6896 6895 6894 ] final  172.44 input  -60.11 | X-H torsion
[ 7974 7965 7964 7962 ] final -152.81 input  175.53 | X-H torsion
[ 8008 7997 7996 7995 ] final  -50.24 input   59.86 | X-H torsion
[ 10167 10162 10161 10158 ] final    6.41 input  -65.29 | X-H torsion
[ 10718 10713 10712 10709 ] final  -23.96 input   66.30 | X-H torsion
[ 10763 10752 10751 10750 ] final -147.46 input  -60.55 | X-H torsion
[ 11005 11000 10999 10996 ] final  -27.10 input  -57.11 | X-H torsion

> <Gold.Protein.ActiveResidues>
 VAL166  LYS551  ARG553  GLY616  TRP617  ASP618  TYR619  PRO620  LYS621  CYS622 
 ASP623  PHE694  ASN695  SER759  ASP760  ASP761  ALA762  ILE779  LEU786  VAL792 
 PHE793  MET794  SER795  GLU796  ALA797  LYS798  CYS799  TRP800  GLU811  SER814 

> <Gold.Protein.RotatedAtoms>
  151.7843  133.3353  159.3480 H   0  0  0  0  0  0  0  0  0  0  0  0  # atno 6907 bound_to 6896
  150.7415  134.5902  159.5993 H   0  0  0  0  0  0  0  0  0  0  0  0  # atno 6908 bound_to 6896
  152.3254  134.7329  160.0354 H   0  0  0  0  0  0  0  0  0  0  0  0  # atno 6909 bound_to 6896
  144.7774  140.4612  143.5863 H   0  0  0  0  0  0  0  0  0  0  0  0  # atno 7974 bound_to 7965
  154.4058  140.1277  156.4633 H   0  0  0  0  0  0  0  0  0  0  0  0  # atno 8008 bound_to 7997
  155.7251  140.3492  155.5014 H   0  0  0  0  0  0  0  0  0  0  0  0  # atno 8009 bound_to 7997
  155.9179  140.1047  157.1220 H   0  0  0  0  0  0  0  0  0  0  0  0  # atno 8010 bound_to 7997
  140.6429  143.7731  150.7455 H   0  0  0  0  0  0  0  0  0  0  0  0  # atno 10167 bound_to 10162
  156.4841  130.4551  149.6794 H   0  0  0  0  0  0  0  0  0  0  0  0  # atno 10718 bound_to 10713
  154.8284  135.3359  154.6822 H   0  0  0  0  0  0  0  0  0  0  0  0  # atno 10763 bound_to 10752
  153.7445  135.6943  153.4964 H   0  0  0  0  0  0  0  0  0  0  0  0  # atno 10764 bound_to 10752
  153.2220  135.4445  155.0451 H   0  0  0  0  0  0  0  0  0  0  0  0  # atno 10765 bound_to 10752
  140.9089  133.7474  156.0643 H   0  0  0  0  0  0  0  0  0  0  0  0  # atno 11005 bound_to 11000
  145.6146  139.1517  143.3056 LP  0  0  0  0  0  0  0  0  0  0  0  0  # atno 17320 bound_to 7965
  146.1962  140.6260  142.9123 LP  0  0  0  0  0  0  0  0  0  0  0  0  # atno 17321 bound_to 7965
  140.1366  143.4478  152.2220 LP  0  0  0  0  0  0  0  0  0  0  0  0  # atno 17342 bound_to 10162
  139.5639  144.7423  151.4078 LP  0  0  0  0  0  0  0  0  0  0  0  0  # atno 17343 bound_to 10162
  156.3492  130.7423  151.2380 LP  0  0  0  0  0  0  0  0  0  0  0  0  # atno 17370 bound_to 10713
  157.7480  131.0382  150.4491 LP  0  0  0  0  0  0  0  0  0  0  0  0  # atno 17371 bound_to 10713
  140.8136  134.3371  157.5404 LP  0  0  0  0  0  0  0  0  0  0  0  0  # atno 17394 bound_to 11000
  139.8754  134.9268  156.3409 LP  0  0  0  0  0  0  0  0  0  0  0  0  # atno 17395 bound_to 11000

$$$$
