AV-unprocessed.smi:1239|AV-procd|sdf|5194|dock8
  -GOLD-   22720 4283D 1   1.00000     0.00000
 Structure written by MMmdl.
 48 49  0  0  0  0  0  0  0  0  4 V2000
  150.7624  136.3799  155.3755 C   0  0  0  0  0  0  0  0  0  0  0  0
  149.2238  136.2101  155.3097 C   0  0  1  0  0  0  0  0  0  0  0  0
  148.4452  137.5221  155.0165 C   0  0  0  0  0  0  0  0  0  0  0  0
  149.2030  138.4299  154.1481 N   0  5  0  0  0  0  0  0  0  0  0  0
  149.6647  139.6572  154.5107 C   0  0  0  0  0  0  0  0  0  0  0  0
  149.7743  140.6585  153.7940 O   0  0  0  0  0  0  0  0  0  0  0  0
  150.0678  139.6881  155.7931 N   0  0  0  0  0  0  0  0  0  0  0  0
  150.5701  140.7778  156.5549 C   0  0  0  0  0  0  0  0  0  0  0  0
  151.4264  140.4833  157.6355 C   0  0  0  0  0  0  0  0  0  0  0  0
  151.9342  141.5284  158.4341 C   0  0  0  0  0  0  0  0  0  0  0  0
  151.5721  142.8690  158.1540 C   0  0  0  0  0  0  0  0  0  0  0  0
  152.0369  143.9690  158.9071 N   0  0  0  0  0  0  0  0  0  0  0  0
  151.4325  145.2830  158.7169 C   0  0  0  0  0  0  0  0  0  0  0  0
  153.0174  143.7586  159.9641 C   0  0  0  0  0  0  0  0  0  0  0  0
  150.7350  143.1007  157.1134 N   0  3  0  0  0  0  0  0  0  0  0  0
  150.2262  142.1305  156.3238 C   0  0  0  0  0  0  0  0  0  0  0  0
  148.7587  135.0952  154.4242 N   0  3  0  0  0  0  0  0  0  0  0  0
  149.5191  133.8185  154.4946 C   0  0  0  0  0  0  0  0  0  0  0  0
  149.0456  132.8682  153.3846 C   0  0  0  0  0  0  0  0  0  0  0  0
  147.6502  132.6329  153.5296 O   0  0  0  0  0  0  0  0  0  0  0  0
  146.8909  133.8296  153.4037 C   0  0  0  0  0  0  0  0  0  0  0  0
  147.3016  134.8296  154.4982 C   0  0  0  0  0  0  0  0  0  0  0  0
  151.0544  137.1169  156.1259 H   0  0  0  0  0  0  0  0  0  0  0  0
  151.1960  136.6975  154.4258 H   0  0  0  0  0  0  0  0  0  0  0  0
  151.2426  135.4432  155.6600 H   0  0  0  0  0  0  0  0  0  0  0  0
  148.9310  135.9484  156.3274 H   0  0  0  0  0  0  0  0  0  0  0  0
  147.4761  137.2624  154.5871 H   0  0  0  0  0  0  0  0  0  0  0  0
  148.2096  138.0040  155.9653 H   0  0  0  0  0  0  0  0  0  0  0  0
  150.0373  138.8005  156.2737 H   0  0  0  0  0  0  0  0  0  0  0  0
  151.6992  139.4605  157.8519 H   0  0  0  0  0  0  0  0  0  0  0  0
  152.5943  141.2811  159.2516 H   0  0  0  0  0  0  0  0  0  0  0  0
  150.3698  145.2536  158.9601 H   0  0  0  0  0  0  0  0  0  0  0  0
  151.5431  145.6107  157.6826 H   0  0  0  0  0  0  0  0  0  0  0  0
  151.9016  146.0324  159.3547 H   0  0  0  0  0  0  0  0  0  0  0  0
  153.9437  143.3554  159.5539 H   0  0  0  0  0  0  0  0  0  0  0  0
  152.6326  143.0621  160.7099 H   0  0  0  0  0  0  0  0  0  0  0  0
  153.2581  144.6921  160.4726 H   0  0  0  0  0  0  0  0  0  0  0  0
  149.5557  142.4789  155.5527 H   0  0  0  0  0  0  0  0  0  0  0  0
  150.5872  134.0025  154.3800 H   0  0  0  0  0  0  0  0  0  0  0  0
  149.3737  133.3435  155.4656 H   0  0  0  0  0  0  0  0  0  0  0  0
  149.2602  133.2832  152.3982 H   0  0  0  0  0  0  0  0  0  0  0  0
  149.5737  131.9170  153.4530 H   0  0  0  0  0  0  0  0  0  0  0  0
  147.0354  134.2606  152.4117 H   0  0  0  0  0  0  0  0  0  0  0  0
  145.8321  133.5875  153.4945 H   0  0  0  0  0  0  0  0  0  0  0  0
  147.0494  134.4405  155.4858 H   0  0  0  0  0  0  0  0  0  0  0  0
  146.7447  135.7577  154.3625 H   0  0  0  0  0  0  0  0  0  0  0  0
  150.4671  144.0651  156.9173 H   0  0  0  0  0  0  0  0  0  0  0  0
  148.9162  135.4483  153.4901 H   0  0  0  0  0  0  0  0  0  0  0  0
  1  2  1  0  0  0  0
  1 23  1  0  0  0  0
  1 24  1  0  0  0  0
  1 25  1  0  0  0  0
  2  3  1  0  0  0  0
  2 17  1  0  0  0  0
  2 26  1  0  0  0  0
  3  4  1  0  0  0  0
  3 27  1  0  0  0  0
  3 28  1  0  0  0  0
  4  5  1  0  0  0  0
  5  6  2  0  0  0  0
  5  7  1  0  0  0  0
  7  8  1  0  0  0  0
  7 29  1  0  0  0  0
  8 16  1  0  0  0  0
  8  9  2  0  0  0  0
  9 10  1  0  0  0  0
  9 30  1  0  0  0  0
 10 11  2  0  0  0  0
 10 31  1  0  0  0  0
 11 12  1  0  0  0  0
 11 15  1  0  0  0  0
 12 13  1  0  0  0  0
 12 14  1  0  0  0  0
 13 32  1  0  0  0  0
 13 33  1  0  0  0  0
 13 34  1  0  0  0  0
 14 35  1  0  0  0  0
 14 36  1  0  0  0  0
 14 37  1  0  0  0  0
 15 16  2  0  0  0  0
 15 47  1  0  0  0  0
 16 38  1  0  0  0  0
 17 22  1  0  0  0  0
 17 18  1  0  0  0  0
 17 48  1  0  0  0  0
 18 19  1  0  0  0  0
 18 39  1  0  0  0  0
 18 40  1  0  0  0  0
 19 20  1  0  0  0  0
 19 41  1  0  0  0  0
 19 42  1  0  0  0  0
 20 21  1  0  0  0  0
 21 22  1  0  0  0  0
 21 43  1  0  0  0  0
 21 44  1  0  0  0  0
 22 45  1  0  0  0  0
 22 46  1  0  0  0  0
M  CHG  1   4  -1
M  CHG  1  15   1
M  CHG  1  17   1
M  END
> <s_m_source_file>
AV-unprocessed.smi

> <i_m_source_file_index>
1239

> <i_lp_mmshare_version>
43012

> <i_f3d_flags>
0

> <s_epik_input>
W0NIMl0xW0NIMl1PW0NIMl1bQ0gyXU4xW0NASF0oW0NIM10pW0NIMl1bTkhdQyg9TylbTkhdYzJbY0hdW2NIXWMoTihbQ0gzXSlbQ0gzXSluW2NIXTI=

> <s_epik_cmdline>
J2VwaWtfcHl0aG9uJywgJy1waCcsICc3LjAnLCAnLXRuJywgJzgnLCAnLW1hJywgJzIwMCcsICctbWV0YWxfYmluZGluZycsICctaW1hZScsICc8aW5maWxlLm1hZT4nLCAnLW9tYWUnLCAnPG91dGZpbGUubWFlPic=

> <r_lp_tautomer_probability>
0.999994

> <r_epik_Ionization_Penalty>
7.43905

> <r_epik_Ionization_Penalty_Charging>
7.43905

> <r_epik_Ionization_Penalty_Neutral>
3.43851e-06

> <r_epik_State_Penalty>
7.63789

> <r_epik_Charging_Adjusted_Penalty>
15.0769

> <i_epik_Tot_Q>
1

> <i_epik_Tot_abs_Q>
3

> <r_epik_Metal_State_Penalty>
3.83826

> <b_epik_Metal_Only>
1

> <s_lp_Force_Field>
OPLS_2005

> <r_lp_Energy>
25.3923

> <b_lp_Chiralities_Consistent>
1

> <s_lp_Variant>
AV-unprocessed.smi:1239-10

> <Gold.Version>
5.8.1

> <Gold.Id.Protein>
6NUR|6NUR_protein|mol2

> <Gold.PLP.Fitness>
45.9774

> <Gold.PLP.PLP>
-35.4599

> <Gold.PLP.part.hbond>
-3.4790

> <Gold.PLP.part.metal>
0.0000

> <Gold.PLP.part.buried>
-4.5577

> <Gold.PLP.part.nonpolar>
-29.9624

> <Gold.PLP.part.repulsive>
3.1793

> <Gold.PLP.ligand.clash>
0.0000

> <Gold.PLP.ligand.torsion>
0.9898

> <Gold.PLP.Chemscore.Hbond>
4.0924

> <Gold.PLP.Chemscore.CHOScore>
0.0000

> <Gold.PLP.Chemscore.Metal>
0.0000

> <Gold.Chemscore.Hbonds>
donor molecule, donor type, donor heavy atom, donor atom, acceptor molecule, acceptor atom, score
      L1  H    15    47       P1  8028  0.93
      L1  H    17    48       P1  7948  2.00
      P1  H  7989  7998       L1     6  0.53
      P1  H  8011  8017       L1     6  0.37

> <Gold.PLP.Chemscore.Internal.Correction>
0.2197

> <Gold.Rescore>
     Score         DG    S(hbond)    S(metal)    S(lipo)     H(rot)  DE(clash)    DE(int)     intcor
     14.24     -18.99       2.39        0.00      79.57       1.48       2.56       2.18       ----

> <Gold.Chemscore.Fitness>
14.2373

> <Gold.Chemscore.DG>
-18.9852

> <Gold.Chemscore.ZeroCoef>
-5.4800

> <Gold.Chemscore.Hbond>
2.3927

> <Gold.Chemscore.Metal>
0.0000

> <Gold.Chemscore.Lipo>
79.5735

> <Gold.Chemscore.Internal_Hbond>
0.0000

> <Gold.Chemscore.DEClash>
2.5639

> <Gold.Chemscore.DEInternal>
2.1839

> <Gold.Chemscore.Rot>
1.4830

> <Gold.Chemscore.Internal.Correction>
   9.000000E+99

> <Gold.Chemscore.Hbonds>
donor molecule, donor type, donor heavy atom, donor atom, acceptor molecule, acceptor atom, score
      L1  H    15    47       P1  8028  0.45
      L1  H    17    48       P1  7948  0.78
      P1  H  7989  7998       L1     6  0.31
      P1  H  8011  8017       L1     6  0.36

> <Gold.Chemscore.Hbond.Weighted>
-7.9915

> <Gold.Chemscore.Metal.Weighted>
-0.0000

> <Gold.Chemscore.Lipo.Weighted>
-9.3101

> <Gold.Chemscore.Internal_Hbond.Weighted>
0.0000

> <Gold.Chemscore.DEClash.Weighted>
2.5639

> <Gold.Chemscore.DEInternal.Weighted>
2.1839

> <Gold.Chemscore.Rot.Weighted>
3.7964

> <Gold.Chemscore.Internal.Correction.Weighted>
   9.000000E+99

> <Gold.Protein.RotatedTorsions>
[ 6907 6896 6895 6894 ] final   17.18 input  -60.11 | X-H torsion
[ 7974 7965 7964 7962 ] final -158.32 input  175.53 | X-H torsion
[ 8008 7997 7996 7995 ] final   64.55 input   59.86 | X-H torsion
[ 10167 10162 10161 10158 ] final -108.38 input  -65.29 | X-H torsion
[ 10718 10713 10712 10709 ] final   28.42 input   66.30 | X-H torsion
[ 10763 10752 10751 10750 ] final  133.48 input  -60.55 | X-H torsion
[ 11005 11000 10999 10996 ] final  170.63 input  -57.11 | X-H torsion

> <Gold.Protein.ActiveResidues>
 VAL166  LYS551  ARG553  GLY616  TRP617  ASP618  TYR619  PRO620  LYS621  CYS622 
 ASP623  PHE694  ASN695  SER759  ASP760  ASP761  ALA762  ILE779  LEU786  VAL792 
 PHE793  MET794  SER795  GLU796  ALA797  LYS798  CYS799  TRP800  GLU811  SER814 

> <Gold.Protein.RotatedAtoms>
  151.8455  135.0575  160.0452 H   0  0  0  0  0  0  0  0  0  0  0  0  # atno 6907 bound_to 6896
  152.2776  133.5436  159.5486 H   0  0  0  0  0  0  0  0  0  0  0  0  # atno 6908 bound_to 6896
  150.7176  134.0526  159.3845 H   0  0  0  0  0  0  0  0  0  0  0  0  # atno 6909 bound_to 6896
  144.7510  140.3844  143.6048 H   0  0  0  0  0  0  0  0  0  0  0  0  # atno 7974 bound_to 7965
  155.6478  140.3497  155.4737 H   0  0  0  0  0  0  0  0  0  0  0  0  # atno 8008 bound_to 7997
  155.9873  140.1186  157.0695 H   0  0  0  0  0  0  0  0  0  0  0  0  # atno 8009 bound_to 7997
  154.4208  140.1126  156.5503 H   0  0  0  0  0  0  0  0  0  0  0  0  # atno 8010 bound_to 7997
  140.1668  143.4075  152.1384 H   0  0  0  0  0  0  0  0  0  0  0  0  # atno 10167 bound_to 10162
  157.2332  130.7033  149.6323 H   0  0  0  0  0  0  0  0  0  0  0  0  # atno 10718 bound_to 10713
  153.8078  135.3133  155.3397 H   0  0  0  0  0  0  0  0  0  0  0  0  # atno 10763 bound_to 10752
  154.8063  135.4695  154.0405 H   0  0  0  0  0  0  0  0  0  0  0  0  # atno 10764 bound_to 10752
  153.1773  135.6888  153.8613 H   0  0  0  0  0  0  0  0  0  0  0  0  # atno 10765 bound_to 10752
  140.3104  134.7521  157.3986 H   0  0  0  0  0  0  0  0  0  0  0  0  # atno 11005 bound_to 11000
  145.6943  139.1646  143.2629 LP  0  0  0  0  0  0  0  0  0  0  0  0  # atno 17320 bound_to 7965
  146.1461  140.6991  142.9344 LP  0  0  0  0  0  0  0  0  0  0  0  0  # atno 17321 bound_to 7965
  139.5356  144.7206  151.4905 LP  0  0  0  0  0  0  0  0  0  0  0  0  # atno 17342 bound_to 10162
  140.6608  143.8503  150.6885 LP  0  0  0  0  0  0  0  0  0  0  0  0  # atno 17343 bound_to 10162
  155.9674  130.4482  150.5610 LP  0  0  0  0  0  0  0  0  0  0  0  0  # atno 17370 bound_to 10713
  157.3457  131.0724  151.1753 LP  0  0  0  0  0  0  0  0  0  0  0  0  # atno 17371 bound_to 10713
  140.1030  134.5447  155.8335 LP  0  0  0  0  0  0  0  0  0  0  0  0  # atno 17394 bound_to 11000
  141.2109  133.6700  156.6545 LP  0  0  0  0  0  0  0  0  0  0  0  0  # atno 17395 bound_to 11000

$$$$
