AV-unprocessed.smi:2439|AV-procd|sdf|9611|dock8
  -GOLD-   2272013243D 1   1.00000     0.00000
 Structure written by MMmdl.
 40 42  0  0  0  0  0  0  0  0  1 V2000
  153.8045  140.7421  160.6505 N   0  0  0  0  0  0  0  0  0  0  0  0
  153.0817  141.5385  160.2237 C   0  0  0  0  0  0  0  0  0  0  0  0
  152.1716  142.5425  159.6860 C   0  0  0  0  0  0  0  0  0  0  0  0
  152.2153  143.8525  160.2077 C   0  0  0  0  0  0  0  0  0  0  0  0
  151.3401  144.8259  159.6923 C   0  0  0  0  0  0  0  0  0  0  0  0
  150.4496  144.4465  158.6719 C   0  0  0  0  0  0  0  0  0  0  0  0
  150.3958  143.1970  158.1657 N   0  0  0  0  0  0  0  0  0  0  0  0
  151.2390  142.2537  158.6534 C   0  0  0  0  0  0  0  0  0  0  0  0
  151.1610  140.9589  158.1068 N   0  0  0  0  0  0  0  0  0  0  0  0
  152.0129  140.5362  157.0015 C   0  0  0  0  0  0  0  0  0  0  0  0
  151.2108  140.2207  155.7284 C   0  0  2  0  0  0  0  0  0  0  0  0
  149.9101  141.0414  155.6598 C   0  0  0  0  0  0  0  0  0  0  0  0
  149.1090  140.6937  154.4932 N   0  0  0  0  0  0  0  0  0  0  0  0
  147.8750  141.4759  154.4431 C   0  0  0  0  0  0  0  0  0  0  0  0
  147.0273  141.1533  153.2027 C   0  0  0  0  0  0  0  0  0  0  0  0
  146.7087  139.6521  153.1503 C   0  0  0  0  0  0  0  0  0  0  0  0
  148.0047  138.8338  153.2583 C   0  0  0  0  0  0  0  0  0  0  0  0
  148.8225  139.2559  154.4965 C   0  0  1  0  0  0  0  0  0  0  0  0
  150.1249  138.4357  154.5954 C   0  0  0  0  0  0  0  0  0  0  0  0
  150.8657  138.8376  155.7432 O   0  0  0  0  0  0  0  0  0  0  0  0
  152.9096  144.1138  160.9936 H   0  0  0  0  0  0  0  0  0  0  0  0
  151.3511  145.8375  160.0699 H   0  0  0  0  0  0  0  0  0  0  0  0
  149.7614  145.1646  158.2511 H   0  0  0  0  0  0  0  0  0  0  0  0
  150.6496  140.2468  158.6083 H   0  0  0  0  0  0  0  0  0  0  0  0
  152.7322  141.3295  156.7969 H   0  0  0  0  0  0  0  0  0  0  0  0
  152.6000  139.6691  157.3061 H   0  0  0  0  0  0  0  0  0  0  0  0
  151.8147  140.4351  154.8448 H   0  0  0  0  0  0  0  0  0  0  0  0
  149.3293  140.8775  156.5691 H   0  0  0  0  0  0  0  0  0  0  0  0
  150.1537  142.1043  155.6336 H   0  0  0  0  0  0  0  0  0  0  0  0
  147.2849  141.2937  155.3426 H   0  0  0  0  0  0  0  0  0  0  0  0
  148.1157  142.5395  154.4425 H   0  0  0  0  0  0  0  0  0  0  0  0
  146.1045  141.7336  153.2154 H   0  0  0  0  0  0  0  0  0  0  0  0
  147.5690  141.4469  152.3025 H   0  0  0  0  0  0  0  0  0  0  0  0
  146.0421  139.3911  153.9731 H   0  0  0  0  0  0  0  0  0  0  0  0
  146.1807  139.4076  152.2284 H   0  0  0  0  0  0  0  0  0  0  0  0
  147.7665  137.7707  153.3071 H   0  0  0  0  0  0  0  0  0  0  0  0
  148.6013  138.9776  152.3564 H   0  0  0  0  0  0  0  0  0  0  0  0
  148.2257  139.0260  155.3810 H   0  0  0  0  0  0  0  0  0  0  0  0
  149.8999  137.3723  154.6795 H   0  0  0  0  0  0  0  0  0  0  0  0
  150.7364  138.5631  153.7004 H   0  0  0  0  0  0  0  0  0  0  0  0
  1  2  3  0  0  0  0
  2  3  1  0  0  0  0
  3  8  1  0  0  0  0
  3  4  2  0  0  0  0
  4  5  1  0  0  0  0
  4 21  1  0  0  0  0
  5  6  2  0  0  0  0
  5 22  1  0  0  0  0
  6  7  1  0  0  0  0
  6 23  1  0  0  0  0
  7  8  2  0  0  0  0
  8  9  1  0  0  0  0
  9 10  1  0  0  0  0
  9 24  1  0  0  0  0
 10 11  1  0  0  0  0
 10 25  1  0  0  0  0
 10 26  1  0  0  0  0
 11 20  1  0  0  0  0
 11 12  1  0  0  0  0
 11 27  1  0  0  0  0
 12 13  1  0  0  0  0
 12 28  1  0  0  0  0
 12 29  1  0  0  0  0
 13 18  1  0  0  0  0
 13 14  1  0  0  0  0
 14 15  1  0  0  0  0
 14 30  1  0  0  0  0
 14 31  1  0  0  0  0
 15 16  1  0  0  0  0
 15 32  1  0  0  0  0
 15 33  1  0  0  0  0
 16 17  1  0  0  0  0
 16 34  1  0  0  0  0
 16 35  1  0  0  0  0
 17 18  1  0  0  0  0
 17 36  1  0  0  0  0
 17 37  1  0  0  0  0
 18 19  1  0  0  0  0
 18 38  1  0  0  0  0
 19 20  1  0  0  0  0
 19 39  1  0  0  0  0
 19 40  1  0  0  0  0
M  END
> <s_m_source_file>
AV-unprocessed.smi

> <i_m_source_file_index>
2439

> <i_lp_mmshare_version>
43012

> <i_f3d_flags>
0

> <s_epik_input>
TiNDYzFbY0hdW2NIXVtjSF1uYzFbTkhdW0NIMl1bQ0BIXShbQ0gyXTIpT1tDSDJdW0NAQEhdKE4yMylbQ0gyXVtDSDJdW0NIMl1bQ0gyXTM=

> <s_epik_cmdline>
J2VwaWtfcHl0aG9uJywgJy1waCcsICc3LjAnLCAnLXRuJywgJzgnLCAnLW1hJywgJzIwMCcsICctbWV0YWxfYmluZGluZycsICctaW1hZScsICc8aW5maWxlLm1hZT4nLCAnLW9tYWUnLCAnPG91dGZpbGUubWFlPic=

> <r_epik_Ionization_Penalty>
1.22355

> <r_epik_Ionization_Penalty_Charging>
0

> <r_epik_Ionization_Penalty_Neutral>
1.22355

> <r_epik_State_Penalty>
1.29103

> <r_epik_Charging_Adjusted_Penalty>
1.29103

> <i_epik_Tot_Q>
0

> <i_epik_Tot_abs_Q>
0

> <r_epik_Metal_State_Penalty>
1.29103

> <b_epik_Metal_Only>
0

> <s_lp_Force_Field>
OPLS_2005

> <r_lp_Energy>
37.4104

> <b_lp_Chiralities_Consistent>
1

> <s_lp_Variant>
AV-unprocessed.smi:2439-9

> <Gold.Version>
5.8.1

> <Gold.Id.Protein>
6NUR|6NUR_protein|mol2

> <Gold.PLP.Fitness>
39.8459

> <Gold.PLP.PLP>
-39.1739

> <Gold.PLP.part.hbond>
0.0000

> <Gold.PLP.part.metal>
0.0000

> <Gold.PLP.part.buried>
-5.4609

> <Gold.PLP.part.nonpolar>
-33.3036

> <Gold.PLP.part.repulsive>
0.3733

> <Gold.PLP.ligand.clash>
0.0230

> <Gold.PLP.ligand.torsion>
1.1535

> <Gold.PLP.Chemscore.Hbond>
0.0000

> <Gold.PLP.Chemscore.CHOScore>
1.0000

> <Gold.PLP.Chemscore.Metal>
0.0000

> <Gold.Chemscore.Hbonds>
donor molecule, donor type, donor heavy atom, donor atom, acceptor molecule, acceptor atom, score
      L1  C     6    23       P1  8029  1.00

> <Gold.PLP.Chemscore.Internal.Correction>
0.0019

> <Gold.Rescore>
     Score         DG    S(hbond)    S(metal)    S(lipo)     H(rot)  DE(clash)    DE(int)     intcor
     12.89     -14.04       0.00        0.00     100.44       1.25       0.07       1.08       ----

> <Gold.Chemscore.Fitness>
12.8897

> <Gold.Chemscore.DG>
-14.0356

> <Gold.Chemscore.ZeroCoef>
-5.4800

> <Gold.Chemscore.Hbond>
0.0000

> <Gold.Chemscore.Metal>
0.0000

> <Gold.Chemscore.Lipo>
100.4419

> <Gold.Chemscore.Internal_Hbond>
0.0000

> <Gold.Chemscore.DEClash>
0.0683

> <Gold.Chemscore.DEInternal>
1.0776

> <Gold.Chemscore.Rot>
1.2485

> <Gold.Chemscore.Internal.Correction>
   9.000000E+99

> <Gold.Chemscore.Hbond.Weighted>
-0.0000

> <Gold.Chemscore.Metal.Weighted>
-0.0000

> <Gold.Chemscore.Lipo.Weighted>
-11.7517

> <Gold.Chemscore.Internal_Hbond.Weighted>
0.0000

> <Gold.Chemscore.DEClash.Weighted>
0.0683

> <Gold.Chemscore.DEInternal.Weighted>
1.0776

> <Gold.Chemscore.Rot.Weighted>
3.1961

> <Gold.Chemscore.Internal.Correction.Weighted>
   9.000000E+99

> <Gold.Protein.RotatedTorsions>
[ 6907 6896 6895 6894 ] final  -91.16 input  -60.11 | X-H torsion
[ 7974 7965 7964 7962 ] final   33.42 input  175.53 | X-H torsion
[ 8008 7997 7996 7995 ] final  138.57 input   59.86 | X-H torsion
[ 10167 10162 10161 10158 ] final -107.40 input  -65.29 | X-H torsion
[ 10718 10713 10712 10709 ] final   90.85 input   66.30 | X-H torsion
[ 10763 10752 10751 10750 ] final  114.23 input  -60.55 | X-H torsion
[ 11005 11000 10999 10996 ] final   73.79 input  -57.11 | X-H torsion

> <Gold.Protein.ActiveResidues>
 VAL166  LYS551  ARG553  GLY616  TRP617  ASP618  TYR619  PRO620  LYS621  CYS622 
 ASP623  PHE694  ASN695  SER759  ASP760  ASP761  ALA762  ILE779  LEU786  VAL792 
 PHE793  MET794  SER795  GLU796  ALA797  LYS798  CYS799  TRP800  GLU811  SER814 

> <Gold.Protein.RotatedAtoms>
  150.6889  134.2320  159.4437 H   0  0  0  0  0  0  0  0  0  0  0  0  # atno 6907 bound_to 6896
  152.0270  134.9787  160.0581 H   0  0  0  0  0  0  0  0  0  0  0  0  # atno 6908 bound_to 6896
  152.1342  133.4390  159.4772 H   0  0  0  0  0  0  0  0  0  0  0  0  # atno 6909 bound_to 6896
  146.1422  139.6399  142.9155 H   0  0  0  0  0  0  0  0  0  0  0  0  # atno 7974 bound_to 7965
  156.2996  140.2390  156.4095 H   0  0  0  0  0  0  0  0  0  0  0  0  # atno 8008 bound_to 7997
  154.8454  140.0426  157.1589 H   0  0  0  0  0  0  0  0  0  0  0  0  # atno 8009 bound_to 7997
  154.9057  140.2983  155.5297 H   0  0  0  0  0  0  0  0  0  0  0  0  # atno 8010 bound_to 7997
  140.1774  143.3994  152.1308 H   0  0  0  0  0  0  0  0  0  0  0  0  # atno 10167 bound_to 10162
  157.6959  131.0386  150.3640 H   0  0  0  0  0  0  0  0  0  0  0  0  # atno 10718 bound_to 10713
  153.5042  135.3631  155.2555 H   0  0  0  0  0  0  0  0  0  0  0  0  # atno 10763 bound_to 10752
  154.8746  135.4007  154.3443 H   0  0  0  0  0  0  0  0  0  0  0  0  # atno 10764 bound_to 10752
  153.4084  135.7077  153.6442 H   0  0  0  0  0  0  0  0  0  0  0  0  # atno 10765 bound_to 10752
  139.9422  134.7377  156.1069 H   0  0  0  0  0  0  0  0  0  0  0  0  # atno 11005 bound_to 11000
  145.5021  141.0437  143.2535 LP  0  0  0  0  0  0  0  0  0  0  0  0  # atno 17320 bound_to 7965
  144.7805  139.6536  143.7156 LP  0  0  0  0  0  0  0  0  0  0  0  0  # atno 17321 bound_to 7965
  139.5311  144.7160  151.5053 LP  0  0  0  0  0  0  0  0  0  0  0  0  # atno 17342 bound_to 10162
  140.6542  143.8633  150.6817 LP  0  0  0  0  0  0  0  0  0  0  0  0  # atno 17343 bound_to 10162
  156.4073  130.3927  149.6917 LP  0  0  0  0  0  0  0  0  0  0  0  0  # atno 17370 bound_to 10713
  156.4213  130.7770  151.2787 LP  0  0  0  0  0  0  0  0  0  0  0  0  # atno 17371 bound_to 10713
  141.1061  133.6659  156.2867 LP  0  0  0  0  0  0  0  0  0  0  0  0  # atno 17394 bound_to 11000
  140.5922  134.5639  157.5502 LP  0  0  0  0  0  0  0  0  0  0  0  0  # atno 17395 bound_to 11000

$$$$
