AV-unprocessed.smi:81|AV-procd|sdf|791|dock6
  -GOLD-   2262017163D 1   1.00000     0.00000
 Structure written by MMmdl.
 64 67  0  0  0  0  0  0  0  0  2 V2000
  150.6097  141.7284  155.9164 C   0  0  0  0  0  0  0  0  0  0  0  0
  150.7761  140.2000  155.9168 C   0  0  0  0  0  0  0  0  0  0  0  0
  152.2194  139.8406  155.5324 C   0  0  0  0  0  0  0  0  0  0  0  0
  149.7842  139.4759  154.9716 C   0  0  0  0  0  0  0  0  0  0  0  0
  148.6863  138.7533  155.6301 N   0  0  0  0  0  0  0  0  0  0  0  0
  149.1219  138.0513  156.7053 C   0  0  0  0  0  0  0  0  0  0  0  0
  150.4055  137.6062  156.7522 N   0  0  0  0  0  0  0  0  0  0  0  0
  150.8286  136.8968  157.8029 C   0  0  0  0  0  0  0  0  0  0  0  0
  150.1466  136.5262  158.8889 N   0  0  0  0  0  0  0  0  0  0  0  0
  148.8579  136.9711  158.8425 C   0  0  0  0  0  0  0  0  0  0  0  0
  148.2707  137.7366  157.7977 C   0  0  0  0  0  0  0  0  0  0  0  0
  146.9450  138.0203  158.0988 N   0  0  0  0  0  0  0  0  0  0  0  0
  146.7543  137.4422  159.2534 C   0  0  0  0  0  0  0  0  0  0  0  0
  147.8463  136.7785  159.7671 N   0  0  0  0  0  0  0  0  0  0  0  0
  147.9061  136.0398  161.0191 C   0  0  0  0  0  0  0  0  0  0  0  0
  146.9631  134.8117  161.0542 C   0  0  2  0  0  0  0  0  0  0  0  0
  147.1335  134.0864  159.8476 O   0  0  0  0  0  0  0  0  0  0  0  0
  145.4898  135.2184  161.1624 C   0  0  0  0  0  0  0  0  0  0  0  0
  145.0814  134.7632  162.5583 C   0  0  0  0  0  0  0  0  0  0  0  0
  145.8681  133.6019  162.7540 O   0  0  0  0  0  0  0  0  0  0  0  0
  147.1770  133.9075  162.2965 C   0  0  1  0  0  0  0  0  0  0  0  0
  147.9968  132.6217  162.0984 C   0  0  0  0  0  0  0  0  0  0  0  0
  147.3044  139.2697  155.6660 C   0  0  2  0  0  0  0  0  0  0  0  0
  146.2721  138.2829  155.0614 C   0  0  0  0  0  0  0  0  0  0  0  0
  146.4776  138.0995  153.5467 C   0  0  0  0  0  0  0  0  0  0  0  0
  146.3911  139.3991  152.8360 N   0  3  2  0  0  0  0  0  0  0  0  0
  146.5052  139.2463  151.3700 C   0  0  0  0  0  0  0  0  0  0  0  0
  147.3432  140.4013  153.3755 C   0  0  0  0  0  0  0  0  0  0  0  0
  147.1421  140.5966  154.8900 C   0  0  0  0  0  0  0  0  0  0  0  0
  150.7209  142.1381  154.9124 H   0  0  0  0  0  0  0  0  0  0  0  0
  151.3608  142.2019  156.5491 H   0  0  0  0  0  0  0  0  0  0  0  0
  149.6396  142.0366  156.2988 H   0  0  0  0  0  0  0  0  0  0  0  0
  150.6307  139.8439  156.9363 H   0  0  0  0  0  0  0  0  0  0  0  0
  152.4533  140.1661  154.5183 H   0  0  0  0  0  0  0  0  0  0  0  0
  152.3832  138.7637  155.5824 H   0  0  0  0  0  0  0  0  0  0  0  0
  152.9365  140.3093  156.2071 H   0  0  0  0  0  0  0  0  0  0  0  0
  149.3896  140.1755  154.2365 H   0  0  0  0  0  0  0  0  0  0  0  0
  150.3408  138.7522  154.3748 H   0  0  0  0  0  0  0  0  0  0  0  0
  151.8602  136.5787  157.7676 H   0  0  0  0  0  0  0  0  0  0  0  0
  145.8015  137.4753  159.7622 H   0  0  0  0  0  0  0  0  0  0  0  0
  148.9375  135.7238  161.1815 H   0  0  0  0  0  0  0  0  0  0  0  0
  147.6673  136.7262  161.8326 H   0  0  0  0  0  0  0  0  0  0  0  0
  147.1372  134.7005  159.1294 H   0  0  0  0  0  0  0  0  0  0  0  0
  145.3213  136.2856  161.0141 H   0  0  0  0  0  0  0  0  0  0  0  0
  144.8803  134.6903  160.4272 H   0  0  0  0  0  0  0  0  0  0  0  0
  145.3394  135.5141  163.3070 H   0  0  0  0  0  0  0  0  0  0  0  0
  144.0158  134.5480  162.6369 H   0  0  0  0  0  0  0  0  0  0  0  0
  147.6413  134.4927  163.0912 H   0  0  0  0  0  0  0  0  0  0  0  0
  148.9963  132.8440  161.7242 H   0  0  0  0  0  0  0  0  0  0  0  0
  147.5159  131.9413  161.3954 H   0  0  0  0  0  0  0  0  0  0  0  0
  148.1102  132.0896  163.0427 H   0  0  0  0  0  0  0  0  0  0  0  0
  147.0369  139.4342  156.7093 H   0  0  0  0  0  0  0  0  0  0  0  0
  146.2917  137.3130  155.5571 H   0  0  0  0  0  0  0  0  0  0  0  0
  145.2669  138.6688  155.2368 H   0  0  0  0  0  0  0  0  0  0  0  0
  147.4442  137.6342  153.3470 H   0  0  0  0  0  0  0  0  0  0  0  0
  145.7164  137.4229  153.1566 H   0  0  0  0  0  0  0  0  0  0  0  0
  147.4843  138.8536  151.0925 H   0  0  0  0  0  0  0  0  0  0  0  0
  146.3667  140.2059  150.8710 H   0  0  0  0  0  0  0  0  0  0  0  0
  145.7430  138.5632  150.9937 H   0  0  0  0  0  0  0  0  0  0  0  0
  148.3664  140.0868  153.1637 H   0  0  0  0  0  0  0  0  0  0  0  0
  147.1944  141.3530  152.8642 H   0  0  0  0  0  0  0  0  0  0  0  0
  146.1395  140.9895  155.0645 H   0  0  0  0  0  0  0  0  0  0  0  0
  147.8154  141.3662  155.2643 H   0  0  0  0  0  0  0  0  0  0  0  0
  145.4650  139.7605  153.0153 H   0  0  0  0  0  0  0  0  0  0  0  0
  1  2  1  0  0  0  0
  1 30  1  0  0  0  0
  1 31  1  0  0  0  0
  1 32  1  0  0  0  0
  2  3  1  0  0  0  0
  2  4  1  0  0  0  0
  2 33  1  0  0  0  0
  3 34  1  0  0  0  0
  3 35  1  0  0  0  0
  3 36  1  0  0  0  0
  4  5  1  0  0  0  0
  4 37  1  0  0  0  0
  4 38  1  0  0  0  0
  5  6  1  0  0  0  0
  5 23  1  0  0  0  0
  6 11  1  0  0  0  0
  6  7  2  0  0  0  0
  7  8  1  0  0  0  0
  8  9  2  0  0  0  0
  8 39  1  0  0  0  0
  9 10  1  0  0  0  0
 10 14  1  0  0  0  0
 10 11  2  0  0  0  0
 11 12  1  0  0  0  0
 12 13  2  0  0  0  0
 13 14  1  0  0  0  0
 13 40  1  0  0  0  0
 14 15  1  0  0  0  0
 15 16  1  0  0  0  0
 15 41  1  0  0  0  0
 15 42  1  0  0  0  0
 16 21  1  0  0  0  0
 16 17  1  0  0  0  0
 16 18  1  0  0  0  0
 17 43  1  0  0  0  0
 18 19  1  0  0  0  0
 18 44  1  0  0  0  0
 18 45  1  0  0  0  0
 19 20  1  0  0  0  0
 19 46  1  0  0  0  0
 19 47  1  0  0  0  0
 20 21  1  0  0  0  0
 21 22  1  0  0  0  0
 21 48  1  0  0  0  0
 22 49  1  0  0  0  0
 22 50  1  0  0  0  0
 22 51  1  0  0  0  0
 23 29  1  0  0  0  0
 23 24  1  0  0  0  0
 23 52  1  0  0  0  0
 24 25  1  0  0  0  0
 24 53  1  0  0  0  0
 24 54  1  0  0  0  0
 25 26  1  0  0  0  0
 25 55  1  0  0  0  0
 25 56  1  0  0  0  0
 26 27  1  0  0  0  0
 26 28  1  0  0  0  0
 26 64  1  0  0  0  0
 27 57  1  0  0  0  0
 27 58  1  0  0  0  0
 27 59  1  0  0  0  0
 28 29  1  0  0  0  0
 28 60  1  0  0  0  0
 28 61  1  0  0  0  0
 29 62  1  0  0  0  0
 29 63  1  0  0  0  0
M  CHG  1  26   1
M  END
> <s_m_source_file>
AV-unprocessed.smi

> <i_m_source_file_index>
81

> <i_lp_mmshare_version>
43012

> <i_f3d_flags>
0

> <s_epik_input>
W0NIMl0xW0NIMl1OKFtDSDNdKVtDSDJdW0NIMl1bQ0hdMU4oW0NIMl1bQ0hdKFtDSDNdKVtDSDNdKWMobltjSF1uMiljKGMyMyluW2NIXW4zW0NIMl1bQ0BAXTQoW09IXSlbQ0gyXVtDSDJdT1tDQEhdNFtDSDNd

> <s_epik_cmdline>
J2VwaWtfcHl0aG9uJywgJy1waCcsICc3LjAnLCAnLXRuJywgJzgnLCAnLW1hJywgJzIwMCcsICctbWV0YWxfYmluZGluZycsICctaW1hZScsICc8aW5maWxlLm1hZT4nLCAnLW9tYWUnLCAnPG91dGZpbGUubWFlPic=

> <r_lp_tautomer_probability>
1

> <r_epik_Ionization_Penalty>
0.00272708

> <r_epik_Ionization_Penalty_Charging>
0.00158983

> <r_epik_Ionization_Penalty_Neutral>
0.00113725

> <r_epik_State_Penalty>
-0

> <r_epik_Charging_Adjusted_Penalty>
0.00158983

> <i_epik_Tot_Q>
1

> <i_epik_Tot_abs_Q>
1

> <r_epik_Metal_State_Penalty>
-0

> <b_epik_Metal_Only>
0

> <s_lp_Force_Field>
OPLS_2005

> <r_lp_Energy>
49.6566

> <b_lp_Chiralities_Consistent>
1

> <s_lp_Variant>
AV-unprocessed.smi:81-6

> <Gold.Version>
5.8.1

> <Gold.Id.Protein>
6NUR|6NUR_protein|mol2

> <Gold.PLP.Fitness>
45.4084

> <Gold.PLP.PLP>
-38.1653

> <Gold.PLP.part.hbond>
-2.7012

> <Gold.PLP.part.metal>
0.0000

> <Gold.PLP.part.buried>
-2.0714

> <Gold.PLP.part.nonpolar>
-33.2136

> <Gold.PLP.part.repulsive>
0.0646

> <Gold.PLP.ligand.clash>
0.0000

> <Gold.PLP.ligand.torsion>
1.5315

> <Gold.PLP.Chemscore.Hbond>
2.9920

> <Gold.PLP.Chemscore.CHOScore>
0.0000

> <Gold.PLP.Chemscore.Metal>
0.0000

> <Gold.Chemscore.Hbonds>
donor molecule, donor type, donor heavy atom, donor atom, acceptor molecule, acceptor atom, score
      L1  H    26    64       P1 10175  2.00
      P1  H  6896  6909       L1     9  0.98

> <Gold.PLP.Chemscore.Internal.Correction>
1.3302

> <Gold.Rescore>
     Score         DG    S(hbond)    S(metal)    S(lipo)     H(rot)  DE(clash)    DE(int)     intcor
     11.65     -17.20       1.92        0.00      95.99       2.32       0.55       5.00       ----

> <Gold.Chemscore.Fitness>
11.6461

> <Gold.Chemscore.DG>
-17.1957

> <Gold.Chemscore.ZeroCoef>
-5.4800

> <Gold.Chemscore.Hbond>
1.9205

> <Gold.Chemscore.Metal>
0.0000

> <Gold.Chemscore.Lipo>
95.9907

> <Gold.Chemscore.Internal_Hbond>
0.0000

> <Gold.Chemscore.DEClash>
0.5491

> <Gold.Chemscore.DEInternal>
5.0005

> <Gold.Chemscore.Rot>
2.3163

> <Gold.Chemscore.Internal.Correction>
   9.000000E+99

> <Gold.Chemscore.Hbonds>
donor molecule, donor type, donor heavy atom, donor atom, acceptor molecule, acceptor atom, score
      L1  H    26    64       P1 10175  0.94
      P1  H  6896  6909       L1     9  0.75

> <Gold.Chemscore.Hbond.Weighted>
-6.4145

> <Gold.Chemscore.Metal.Weighted>
-0.0000

> <Gold.Chemscore.Lipo.Weighted>
-11.2309

> <Gold.Chemscore.Internal_Hbond.Weighted>
0.0000

> <Gold.Chemscore.DEClash.Weighted>
0.5491

> <Gold.Chemscore.DEInternal.Weighted>
5.0005

> <Gold.Chemscore.Rot.Weighted>
5.9297

> <Gold.Chemscore.Internal.Correction.Weighted>
   9.000000E+99

> <Gold.Protein.RotatedTorsions>
[ 6907 6896 6895 6894 ] final   59.91 input  -60.11 | X-H torsion
[ 7974 7965 7964 7962 ] final  163.18 input  175.53 | X-H torsion
[ 8008 7997 7996 7995 ] final   80.38 input   59.86 | X-H torsion
[ 10167 10162 10161 10158 ] final -132.84 input  -65.29 | X-H torsion
[ 10718 10713 10712 10709 ] final -112.51 input   66.30 | X-H torsion
[ 10763 10752 10751 10750 ] final  169.48 input  -60.55 | X-H torsion
[ 11005 11000 10999 10996 ] final -126.65 input  -57.11 | X-H torsion

> <Gold.Protein.ActiveResidues>
 VAL166  LYS551  ARG553  GLY616  TRP617  ASP618  TYR619  PRO620  LYS621  CYS622 
 ASP623  PHE694  ASN695  SER759  ASP760  ASP761  ALA762  ILE779  LEU786  VAL792 
 PHE793  MET794  SER795  GLU796  ALA797  LYS798  CYS799  TRP800  GLU811  SER814 

> <Gold.Protein.RotatedAtoms>
  152.3956  134.6370  160.0089 H   0  0  0  0  0  0  0  0  0  0  0  0  # atno 6907 bound_to 6896
  151.6590  133.3312  159.3177 H   0  0  0  0  0  0  0  0  0  0  0  0  # atno 6908 bound_to 6896
  150.7865  134.6897  159.6534 H   0  0  0  0  0  0  0  0  0  0  0  0  # atno 6909 bound_to 6896
  144.7601  139.8146  143.6335 H   0  0  0  0  0  0  0  0  0  0  0  0  # atno 7974 bound_to 7965
  155.8827  140.3443  155.5899 H   0  0  0  0  0  0  0  0  0  0  0  0  # atno 8008 bound_to 7997
  155.7701  140.0844  157.2131 H   0  0  0  0  0  0  0  0  0  0  0  0  # atno 8009 bound_to 7997
  154.4026  140.1520  156.2920 H   0  0  0  0  0  0  0  0  0  0  0  0  # atno 8010 bound_to 7997
  139.9044  143.6569  152.2588 H   0  0  0  0  0  0  0  0  0  0  0  0  # atno 10167 bound_to 10162
  156.0710  130.5924  150.8518 H   0  0  0  0  0  0  0  0  0  0  0  0  # atno 10718 bound_to 10713
  154.3838  135.2753  155.2195 H   0  0  0  0  0  0  0  0  0  0  0  0  # atno 10763 bound_to 10752
  154.4291  135.5982  153.6061 H   0  0  0  0  0  0  0  0  0  0  0  0  # atno 10764 bound_to 10752
  152.9834  135.5991  154.4084 H   0  0  0  0  0  0  0  0  0  0  0  0  # atno 10765 bound_to 10752
  140.9664  134.0866  157.3915 H   0  0  0  0  0  0  0  0  0  0  0  0  # atno 11005 bound_to 11000
  146.1655  139.4786  142.9961 LP  0  0  0  0  0  0  0  0  0  0  0  0  # atno 17320 bound_to 7965
  145.6647  141.0232  143.1690 LP  0  0  0  0  0  0  0  0  0  0  0  0  # atno 17321 bound_to 7965
  139.6997  144.7636  151.1294 LP  0  0  0  0  0  0  0  0  0  0  0  0  # atno 17342 bound_to 10162
  140.7700  143.5474  150.9243 LP  0  0  0  0  0  0  0  0  0  0  0  0  # atno 17343 bound_to 10162
  157.5781  131.0946  150.9314 LP  0  0  0  0  0  0  0  0  0  0  0  0  # atno 17370 bound_to 10713
  156.9516  130.5422  149.5282 LP  0  0  0  0  0  0  0  0  0  0  0  0  # atno 17371 bound_to 10713
  139.8896  135.0106  156.6688 LP  0  0  0  0  0  0  0  0  0  0  0  0  # atno 17394 bound_to 11000
  140.7393  133.8991  155.8266 LP  0  0  0  0  0  0  0  0  0  0  0  0  # atno 17395 bound_to 11000

$$$$
