AV-unprocessed.smi:196|AV-procd|sdf|1529|dock8
  -GOLD-   2262019383D 1   1.00000     0.00000
 Structure written by MMmdl.
 47 50  0  0  0  0  0  0  0  0  1 V2000
  147.6526  134.1556  161.4228 C   0  0  0  0  0  0  0  0  0  0  0  0
  147.1596  134.8908  160.1658 C   0  0  1  0  0  0  0  0  0  0  0  0
  145.7663  135.1506  160.2517 O   0  0  0  0  0  0  0  0  0  0  0  0
  145.4697  136.1375  159.2805 C   0  0  0  0  0  0  0  0  0  0  0  0
  146.6086  137.1351  159.4547 C   0  0  0  0  0  0  0  0  0  0  0  0
  147.8068  136.2656  159.8493 C   0  0  1  0  0  0  0  0  0  0  0  0
  148.4083  136.8386  160.9990 O   0  0  0  0  0  0  0  0  0  0  0  0
  148.8732  136.1970  158.7278 C   0  0  0  0  0  0  0  0  0  0  0  0
  149.4578  137.4900  158.4048 N   0  0  0  0  0  0  0  0  0  0  0  0
  148.9499  138.4303  157.5373 C   0  0  0  0  0  0  0  0  0  0  0  0
  149.6518  139.5245  157.4296 N   0  0  0  0  0  0  0  0  0  0  0  0
  150.7376  139.3197  158.2733 C   0  0  0  0  0  0  0  0  0  0  0  0
  151.8729  140.0993  158.6399 C   0  0  0  0  0  0  0  0  0  0  0  0
  152.1134  141.3455  158.1491 N   0  0  0  0  0  0  0  0  0  0  0  0
  153.0436  142.2135  158.8636 C   0  0  0  0  0  0  0  0  0  0  0  0
  152.4648  143.6233  158.7507 C   0  0  2  0  0  0  0  0  0  0  0  0
  151.6557  143.8548  159.7858 F   0  0  0  0  0  0  0  0  0  0  0  0
  151.6450  143.5614  157.4665 C   0  0  0  0  0  0  0  0  0  0  0  0
  151.0824  142.1307  157.4560 C   0  0  1  0  0  0  0  0  0  0  0  0
  150.7725  141.6712  156.0176 C   0  0  0  0  0  0  0  0  0  0  0  0
  149.8662  142.3484  155.3045 N   0  0  0  0  0  0  0  0  0  0  0  0
  151.3615  140.6992  155.5503 O   0  0  0  0  0  0  0  0  0  0  0  0
  152.7335  139.5559  159.5411 N   0  0  0  0  0  0  0  0  0  0  0  0
  152.5154  138.3358  160.0387 C   0  0  0  0  0  0  0  0  0  0  0  0
  151.5087  137.4994  159.7830 N   0  0  0  0  0  0  0  0  0  0  0  0
  150.6310  138.0408  158.8911 C   0  0  0  0  0  0  0  0  0  0  0  0
  153.2252  144.4048  158.7458 H   0  0  0  0  0  0  0  0  0  0  0  0
  150.1611  142.1144  158.0409 H   0  0  0  0  0  0  0  0  0  0  0  0
  148.7255  133.9687  161.3745 H   0  0  0  0  0  0  0  0  0  0  0  0
  147.1544  133.1917  161.5249 H   0  0  0  0  0  0  0  0  0  0  0  0
  147.4488  134.7272  162.3286 H   0  0  0  0  0  0  0  0  0  0  0  0
  147.2842  134.2283  159.3087 H   0  0  0  0  0  0  0  0  0  0  0  0
  145.4867  135.6922  158.2844 H   0  0  0  0  0  0  0  0  0  0  0  0
  144.4887  136.5840  159.4439 H   0  0  0  0  0  0  0  0  0  0  0  0
  146.7775  137.7279  158.5551 H   0  0  0  0  0  0  0  0  0  0  0  0
  146.3463  137.8289  160.2554 H   0  0  0  0  0  0  0  0  0  0  0  0
  148.6049  136.1465  161.6114 H   0  0  0  0  0  0  0  0  0  0  0  0
  149.6779  135.5201  159.0180 H   0  0  0  0  0  0  0  0  0  0  0  0
  148.4414  135.7809  157.8165 H   0  0  0  0  0  0  0  0  0  0  0  0
  148.0290  138.2836  156.9920 H   0  0  0  0  0  0  0  0  0  0  0  0
  153.1827  141.9292  159.9080 H   0  0  0  0  0  0  0  0  0  0  0  0
  154.0131  142.1596  158.3672 H   0  0  0  0  0  0  0  0  0  0  0  0
  150.8640  144.3218  157.4305 H   0  0  0  0  0  0  0  0  0  0  0  0
  152.3057  143.7247  156.6127 H   0  0  0  0  0  0  0  0  0  0  0  0
  149.6486  142.0575  154.3624 H   0  0  0  0  0  0  0  0  0  0  0  0
  149.4001  143.1452  155.7131 H   0  0  0  0  0  0  0  0  0  0  0  0
  153.2523  137.9802  160.7438 H   0  0  0  0  0  0  0  0  0  0  0  0
  1  2  1  0  0  0  0
  1 29  1  0  0  0  0
  1 30  1  0  0  0  0
  1 31  1  0  0  0  0
  2  6  1  0  0  0  0
  2  3  1  0  0  0  0
  2 32  1  0  0  0  0
  3  4  1  0  0  0  0
  4  5  1  0  0  0  0
  4 33  1  0  0  0  0
  4 34  1  0  0  0  0
  5  6  1  0  0  0  0
  5 35  1  0  0  0  0
  5 36  1  0  0  0  0
  6  7  1  0  0  0  0
  6  8  1  0  0  0  0
  7 37  1  0  0  0  0
  8  9  1  0  0  0  0
  8 38  1  0  0  0  0
  8 39  1  0  0  0  0
  9 26  1  0  0  0  0
  9 10  1  0  0  0  0
 10 11  2  0  0  0  0
 10 40  1  0  0  0  0
 11 12  1  0  0  0  0
 12 26  2  0  0  0  0
 12 13  1  0  0  0  0
 13 14  1  0  0  0  0
 13 23  2  0  0  0  0
 14 19  1  0  0  0  0
 14 15  1  0  0  0  0
 15 16  1  0  0  0  0
 15 41  1  0  0  0  0
 15 42  1  0  0  0  0
 16 27  1  0  0  0  0
 16 17  1  0  0  0  0
 16 18  1  0  0  0  0
 18 19  1  0  0  0  0
 18 43  1  0  0  0  0
 18 44  1  0  0  0  0
 19 28  1  0  0  0  0
 19 20  1  0  0  0  0
 20 21  1  0  0  0  0
 20 22  2  0  0  0  0
 21 45  1  0  0  0  0
 21 46  1  0  0  0  0
 23 24  1  0  0  0  0
 24 25  2  0  0  0  0
 24 47  1  0  0  0  0
 25 26  1  0  0  0  0
M  END
> <s_m_source_file>
AV-unprocessed.smi

> <i_m_source_file_index>
196

> <i_lp_mmshare_version>
43012

> <i_f3d_flags>
0

> <s_epik_input>
W0NIMl0xW0NIMl1PW0NAQEhdKFtDSDNdKVtDQEBdMShbT0hdKVtDSDJdbihbY0hdbjIpYyhjMjMpbltjSF1uYzNONFtDSDJdW0NASF0oRilbQ0gyXVtDQEhdNEMoPU8pW05IMl0=

> <s_epik_cmdline>
J2VwaWtfcHl0aG9uJywgJy1waCcsICc3LjAnLCAnLXRuJywgJzgnLCAnLW1hJywgJzIwMCcsICctbWV0YWxfYmluZGluZycsICctaW1hZScsICc8aW5maWxlLm1hZT4nLCAnLW9tYWUnLCAnPG91dGZpbGUubWFlPic=

> <r_lp_tautomer_probability>
1

> <r_epik_Ionization_Penalty>
0.000857933

> <r_epik_Ionization_Penalty_Charging>
0

> <r_epik_Ionization_Penalty_Neutral>
0.000857933

> <r_epik_State_Penalty>
0.000462053

> <r_epik_Charging_Adjusted_Penalty>
0.000462053

> <i_epik_Tot_Q>
0

> <i_epik_Tot_abs_Q>
0

> <r_epik_Metal_State_Penalty>
-0

> <b_epik_Metal_Only>
0

> <s_lp_Force_Field>
OPLS_2005

> <r_lp_Energy>
42.3272

> <b_lp_Chiralities_Consistent>
1

> <s_lp_Variant>
AV-unprocessed.smi:196-2

> <Gold.Version>
5.8.1

> <Gold.Id.Protein>
6NUR|6NUR_protein|mol2

> <Gold.PLP.Fitness>
45.9272

> <Gold.PLP.PLP>
-38.6246

> <Gold.PLP.part.hbond>
-3.1221

> <Gold.PLP.part.metal>
0.0000

> <Gold.PLP.part.buried>
-6.5872

> <Gold.PLP.part.nonpolar>
-27.6895

> <Gold.PLP.part.repulsive>
0.2352

> <Gold.PLP.ligand.clash>
0.0000

> <Gold.PLP.ligand.torsion>
0.4798

> <Gold.PLP.Chemscore.Hbond>
2.6640

> <Gold.PLP.Chemscore.CHOScore>
0.0000

> <Gold.PLP.Chemscore.Metal>
0.0000

> <Gold.Chemscore.Hbonds>
donor molecule, donor type, donor heavy atom, donor atom, acceptor molecule, acceptor atom, score
      L1  H    21    46       P1  8028  1.00
      P1  H  6931  6943       L1     7  1.00
      P1  H  7989  7998       L1    22  0.70

> <Gold.PLP.Chemscore.Internal.Correction>
0.2704

> <Gold.Rescore>
     Score         DG    S(hbond)    S(metal)    S(lipo)     H(rot)  DE(clash)    DE(int)     intcor
     10.53     -15.68       2.55        0.00      71.23       2.60       0.69       4.46       ----

> <Gold.Chemscore.Fitness>
10.5283

> <Gold.Chemscore.DG>
-15.6770

> <Gold.Chemscore.ZeroCoef>
-5.4800

> <Gold.Chemscore.Hbond>
2.5482

> <Gold.Chemscore.Metal>
0.0000

> <Gold.Chemscore.Lipo>
71.2297

> <Gold.Chemscore.Internal_Hbond>
0.0000

> <Gold.Chemscore.DEClash>
0.6882

> <Gold.Chemscore.DEInternal>
4.4606

> <Gold.Chemscore.Rot>
2.5968

> <Gold.Chemscore.Internal.Correction>
   9.000000E+99

> <Gold.Chemscore.Hbonds>
donor molecule, donor type, donor heavy atom, donor atom, acceptor molecule, acceptor atom, score
      L1  H    21    46       P1  8028  0.95
      P1  H  6931  6943       L1     7  0.25
      P1  H  7989  7998       L1    22  0.54

> <Gold.Chemscore.Hbond.Weighted>
-8.5109

> <Gold.Chemscore.Metal.Weighted>
-0.0000

> <Gold.Chemscore.Lipo.Weighted>
-8.3339

> <Gold.Chemscore.Internal_Hbond.Weighted>
0.0000

> <Gold.Chemscore.DEClash.Weighted>
0.6882

> <Gold.Chemscore.DEInternal.Weighted>
4.4606

> <Gold.Chemscore.Rot.Weighted>
6.6477

> <Gold.Chemscore.Internal.Correction.Weighted>
   9.000000E+99

> <Gold.Protein.RotatedTorsions>
[ 6907 6896 6895 6894 ] final  -60.18 input  -60.11 | X-H torsion
[ 7974 7965 7964 7962 ] final  107.73 input  175.53 | X-H torsion
[ 8008 7997 7996 7995 ] final   -7.40 input   59.86 | X-H torsion
[ 10167 10162 10161 10158 ] final -111.66 input  -65.29 | X-H torsion
[ 10718 10713 10712 10709 ] final -168.67 input   66.30 | X-H torsion
[ 10763 10752 10751 10750 ] final -149.14 input  -60.55 | X-H torsion
[ 11005 11000 10999 10996 ] final  -47.30 input  -57.11 | X-H torsion

> <Gold.Protein.ActiveResidues>
 VAL166  LYS551  ARG553  GLY616  TRP617  ASP618  TYR619  PRO620  LYS621  CYS622 
 ASP623  PHE694  ASN695  SER759  ASP760  ASP761  ALA762  ILE779  LEU786  VAL792 
 PHE793  MET794  SER795  GLU796  ALA797  LYS798  CYS799  TRP800  GLU811  SER814 

> <Gold.Protein.RotatedAtoms>
  150.7875  134.6872  159.6476 H   0  0  0  0  0  0  0  0  0  0  0  0  # atno 6907 bound_to 6896
  152.3974  134.6339  160.0092 H   0  0  0  0  0  0  0  0  0  0  0  0  # atno 6908 bound_to 6896
  151.6620  133.3280  159.3212 H   0  0  0  0  0  0  0  0  0  0  0  0  # atno 6909 bound_to 6896
  145.2898  139.2604  143.3871 H   0  0  0  0  0  0  0  0  0  0  0  0  # atno 7974 bound_to 7965
  154.5842  140.2408  155.8010 H   0  0  0  0  0  0  0  0  0  0  0  0  # atno 8008 bound_to 7997
  156.2201  140.3000  155.9888 H   0  0  0  0  0  0  0  0  0  0  0  0  # atno 8009 bound_to 7997
  155.2487  140.0410  157.2974 H   0  0  0  0  0  0  0  0  0  0  0  0  # atno 8010 bound_to 7997
  140.1312  143.4359  152.1626 H   0  0  0  0  0  0  0  0  0  0  0  0  # atno 10167 bound_to 10162
  156.7003  130.9194  151.3079 H   0  0  0  0  0  0  0  0  0  0  0  0  # atno 10718 bound_to 10713
  154.8194  135.3317  154.7082 H   0  0  0  0  0  0  0  0  0  0  0  0  # atno 10763 bound_to 10752
  153.7717  135.6925  153.4909 H   0  0  0  0  0  0  0  0  0  0  0  0  # atno 10764 bound_to 10752
  153.2040  135.4506  155.0249 H   0  0  0  0  0  0  0  0  0  0  0  0  # atno 10765 bound_to 10752
  141.0632  133.6702  156.3278 H   0  0  0  0  0  0  0  0  0  0  0  0  # atno 11005 bound_to 11000
  146.3188  140.3386  142.8646 LP  0  0  0  0  0  0  0  0  0  0  0  0  # atno 17320 bound_to 7965
  144.9182  140.7837  143.5765 LP  0  0  0  0  0  0  0  0  0  0  0  0  # atno 17321 bound_to 7965
  139.5519  144.7344  151.4410 LP  0  0  0  0  0  0  0  0  0  0  0  0  # atno 17342 bound_to 10162
  140.6816  143.8069  150.7129 LP  0  0  0  0  0  0  0  0  0  0  0  0  # atno 17343 bound_to 10162
  157.6976  130.9298  150.0689 LP  0  0  0  0  0  0  0  0  0  0  0  0  # atno 17370 bound_to 10713
  156.1734  130.3647  149.9134 LP  0  0  0  0  0  0  0  0  0  0  0  0  # atno 17371 bound_to 10713
  140.5826  134.5730  157.5483 LP  0  0  0  0  0  0  0  0  0  0  0  0  # atno 17394 bound_to 11000
  139.9452  134.7715  156.0580 LP  0  0  0  0  0  0  0  0  0  0  0  0  # atno 17395 bound_to 11000

$$$$
