AV-unprocessed.smi:2901|AV-procd|sdf|11150|dock5
  -GOLD-   2272016 33D 1   1.00000     0.00000
 Structure written by MMmdl.
 40 41  0  0  0  0  0  0  0  0  1 V2000
  148.6093  140.5787  154.4442 C   0  0  0  0  0  0  0  0  0  0  0  0
  149.6270  139.5153  154.6741 C   0  0  0  0  0  0  0  0  0  0  0  0
  149.4075  138.2363  154.9726 N   0  0  0  0  0  0  0  0  0  0  0  0
  150.6730  137.6770  155.0841 C   0  0  0  0  0  0  0  0  0  0  0  0
  150.8816  136.2285  155.4034 C   0  0  0  0  0  0  0  0  0  0  0  0
  149.5512  135.4942  155.6349 C   0  0  0  0  0  0  0  0  0  0  0  0
  148.9695  135.0224  154.3835 N   0  0  0  0  0  0  0  0  0  0  0  0
  148.3019  133.8694  154.2373 C   0  0  0  0  0  0  0  0  0  0  0  0
  148.0944  133.0730  155.1532 O   0  0  0  0  0  0  0  0  0  0  0  0
  147.8884  133.6898  152.9753 N   0  0  0  0  0  0  0  0  0  0  0  0
  147.1212  132.5434  152.5020 C   0  0  0  0  0  0  0  0  0  0  0  0
  146.3016  132.8921  151.2489 C   0  0  1  0  0  0  0  0  0  0  0  0
  145.5608  131.6981  150.6516 C   0  0  0  0  0  0  0  0  0  0  0  0
  144.4722  132.3836  149.8583 C   0  0  0  0  0  0  0  0  0  0  0  0
  144.1121  133.5609  150.7616 C   0  0  0  0  0  0  0  0  0  0  0  0
  145.2704  133.8288  151.5489 O   0  0  0  0  0  0  0  0  0  0  0  0
  151.5978  138.6589  154.8345 C   0  0  0  0  0  0  0  0  0  0  0  0
  153.0884  138.6672  154.7935 C   0  0  0  0  0  0  0  0  0  0  0  0
  150.9457  139.8343  154.5756 O   0  0  0  0  0  0  0  0  0  0  0  0
  147.6128  140.2110  154.6906 H   0  0  0  0  0  0  0  0  0  0  0  0
  148.6220  140.8863  153.3985 H   0  0  0  0  0  0  0  0  0  0  0  0
  148.8273  141.4450  155.0688 H   0  0  0  0  0  0  0  0  0  0  0  0
  151.4329  135.7498  154.5932 H   0  0  0  0  0  0  0  0  0  0  0  0
  151.5102  136.1308  156.2896 H   0  0  0  0  0  0  0  0  0  0  0  0
  149.7098  134.6317  156.2830 H   0  0  0  0  0  0  0  0  0  0  0  0
  148.8427  136.1443  156.1515 H   0  0  0  0  0  0  0  0  0  0  0  0
  149.0877  135.6132  153.5734 H   0  0  0  0  0  0  0  0  0  0  0  0
  148.1102  134.4017  152.2949 H   0  0  0  0  0  0  0  0  0  0  0  0
  147.8302  131.7500  152.2643 H   0  0  0  0  0  0  0  0  0  0  0  0
  146.4752  132.1525  153.2901 H   0  0  0  0  0  0  0  0  0  0  0  0
  146.9460  133.3302  150.4847 H   0  0  0  0  0  0  0  0  0  0  0  0
  146.2007  131.0619  150.0395 H   0  0  0  0  0  0  0  0  0  0  0  0
  145.1186  131.0855  151.4387 H   0  0  0  0  0  0  0  0  0  0  0  0
  144.8742  132.7457  148.9111 H   0  0  0  0  0  0  0  0  0  0  0  0
  143.6227  131.7346  149.6434 H   0  0  0  0  0  0  0  0  0  0  0  0
  143.8106  134.4389  150.1897 H   0  0  0  0  0  0  0  0  0  0  0  0
  143.2932  133.2960  151.4311 H   0  0  0  0  0  0  0  0  0  0  0  0
  153.4789  137.6668  154.6062 H   0  0  0  0  0  0  0  0  0  0  0  0
  153.4978  139.0186  155.7406 H   0  0  0  0  0  0  0  0  0  0  0  0
  153.4518  139.3229  154.0020 H   0  0  0  0  0  0  0  0  0  0  0  0
  1  2  1  0  0  0  0
  1 20  1  0  0  0  0
  1 21  1  0  0  0  0
  1 22  1  0  0  0  0
  2 19  1  0  0  0  0
  2  3  2  0  0  0  0
  3  4  1  0  0  0  0
  4  5  1  0  0  0  0
  4 17  2  0  0  0  0
  5  6  1  0  0  0  0
  5 23  1  0  0  0  0
  5 24  1  0  0  0  0
  6  7  1  0  0  0  0
  6 25  1  0  0  0  0
  6 26  1  0  0  0  0
  7  8  1  0  0  0  0
  7 27  1  0  0  0  0
  8  9  2  0  0  0  0
  8 10  1  0  0  0  0
 10 11  1  0  0  0  0
 10 28  1  0  0  0  0
 11 12  1  0  0  0  0
 11 29  1  0  0  0  0
 11 30  1  0  0  0  0
 12 16  1  0  0  0  0
 12 13  1  0  0  0  0
 12 31  1  0  0  0  0
 13 14  1  0  0  0  0
 13 32  1  0  0  0  0
 13 33  1  0  0  0  0
 14 15  1  0  0  0  0
 14 34  1  0  0  0  0
 14 35  1  0  0  0  0
 15 16  1  0  0  0  0
 15 36  1  0  0  0  0
 15 37  1  0  0  0  0
 17 18  1  0  0  0  0
 17 19  1  0  0  0  0
 18 38  1  0  0  0  0
 18 39  1  0  0  0  0
 18 40  1  0  0  0  0
M  END
> <s_m_source_file>
AV-unprocessed.smi

> <i_m_source_file_index>
2901

> <i_lp_mmshare_version>
43012

> <i_f3d_flags>
0

> <s_epik_input>
W0NIM11jMW5jKGMobzEpW0NIM10pW0NIMl1bQ0gyXVtOSF1DKD1PKVtOSF1bQ0gyXVtDQEBIXTJbQ0gyXVtDSDJdW0NIMl1PMg==

> <s_epik_cmdline>
J2VwaWtfcHl0aG9uJywgJy1waCcsICc3LjAnLCAnLXRuJywgJzgnLCAnLW1hJywgJzIwMCcsICctbWV0YWxfYmluZGluZycsICctaW1hZScsICc8aW5maWxlLm1hZT4nLCAnLW9tYWUnLCAnPG91dGZpbGUubWFlPic=

> <r_lp_tautomer_probability>
1

> <r_epik_Ionization_Penalty>
9.58254e-05

> <r_epik_Ionization_Penalty_Charging>
0

> <r_epik_Ionization_Penalty_Neutral>
9.58254e-05

> <r_epik_State_Penalty>
-0

> <r_epik_Charging_Adjusted_Penalty>
0

> <i_epik_Tot_Q>
0

> <i_epik_Tot_abs_Q>
0

> <r_epik_Metal_State_Penalty>
-0

> <b_epik_Metal_Only>
0

> <s_lp_Force_Field>
OPLS_2005

> <r_lp_Energy>
8.56878

> <b_lp_Chiralities_Consistent>
1

> <s_lp_Variant>
AV-unprocessed.smi:2901-2

> <Gold.Version>
5.8.1

> <Gold.Id.Protein>
6NUR|6NUR_protein|mol2

> <Gold.PLP.Fitness>
44.0239

> <Gold.PLP.PLP>
-36.3961

> <Gold.PLP.part.hbond>
-3.0000

> <Gold.PLP.part.metal>
0.0000

> <Gold.PLP.part.buried>
-6.8134

> <Gold.PLP.part.nonpolar>
-28.4686

> <Gold.PLP.part.repulsive>
0.3815

> <Gold.PLP.ligand.clash>
0.0000

> <Gold.PLP.ligand.torsion>
0.5091

> <Gold.PLP.Chemscore.Hbond>
2.8697

> <Gold.PLP.Chemscore.CHOScore>
0.0000

> <Gold.PLP.Chemscore.Metal>
0.0000

> <Gold.Chemscore.Hbonds>
donor molecule, donor type, donor heavy atom, donor atom, acceptor molecule, acceptor atom, score
      L1  H     7    27       P1  7948  1.00
      L1  H    10    28       P1  7948  0.90
      P1  H  7989  7998       L1    19  1.00

> <Gold.PLP.Chemscore.Internal.Correction>
0.0370

> <Gold.Rescore>
     Score         DG    S(hbond)    S(metal)    S(lipo)     H(rot)  DE(clash)    DE(int)     intcor
     17.41     -17.82       2.45        0.00      77.35       1.92       0.00       0.41       ----

> <Gold.Chemscore.Fitness>
17.4075

> <Gold.Chemscore.DG>
-17.8203

> <Gold.Chemscore.ZeroCoef>
-5.4800

> <Gold.Chemscore.Hbond>
2.4544

> <Gold.Chemscore.Metal>
0.0000

> <Gold.Chemscore.Lipo>
77.3462

> <Gold.Chemscore.Internal_Hbond>
0.0000

> <Gold.Chemscore.DEClash>
0.0004

> <Gold.Chemscore.DEInternal>
0.4124

> <Gold.Chemscore.Rot>
1.9167

> <Gold.Chemscore.Internal.Correction>
   9.000000E+99

> <Gold.Chemscore.Hbonds>
donor molecule, donor type, donor heavy atom, donor atom, acceptor molecule, acceptor atom, score
      L1  H     7    27       P1  7948  0.74
      L1  H    10    28       P1  7948  0.16
      P1  H  7989  7998       L1    19  0.94

> <Gold.Chemscore.Hbond.Weighted>
-8.1976

> <Gold.Chemscore.Metal.Weighted>
-0.0000

> <Gold.Chemscore.Lipo.Weighted>
-9.0495

> <Gold.Chemscore.Internal_Hbond.Weighted>
0.0000

> <Gold.Chemscore.DEClash.Weighted>
0.0004

> <Gold.Chemscore.DEInternal.Weighted>
0.4124

> <Gold.Chemscore.Rot.Weighted>
4.9069

> <Gold.Chemscore.Internal.Correction.Weighted>
   9.000000E+99

> <Gold.Protein.RotatedTorsions>
[ 6907 6896 6895 6894 ] final -146.56 input  -60.11 | X-H torsion
[ 7974 7965 7964 7962 ] final  170.36 input  175.53 | X-H torsion
[ 8008 7997 7996 7995 ] final  -33.80 input   59.86 | X-H torsion
[ 10167 10162 10161 10158 ] final   87.25 input  -65.29 | X-H torsion
[ 10718 10713 10712 10709 ] final  -95.71 input   66.30 | X-H torsion
[ 10763 10752 10751 10750 ] final -149.43 input  -60.55 | X-H torsion
[ 11005 11000 10999 10996 ] final -105.41 input  -57.11 | X-H torsion

> <Gold.Protein.ActiveResidues>
 VAL166  LYS551  ARG553  GLY616  TRP617  ASP618  TYR619  PRO620  LYS621  CYS622 
 ASP623  PHE694  ASN695  SER759  ASP760  ASP761  ALA762  ILE779  LEU786  VAL792 
 PHE793  MET794  SER795  GLU796  ALA797  LYS798  CYS799  TRP800  GLU811  SER814 

> <Gold.Protein.RotatedAtoms>
  151.1433  133.4956  159.2596 H   0  0  0  0  0  0  0  0  0  0  0  0  # atno 6907 bound_to 6896
  151.1631  135.0282  159.8729 H   0  0  0  0  0  0  0  0  0  0  0  0  # atno 6908 bound_to 6896
  152.5462  134.1305  159.8490 H   0  0  0  0  0  0  0  0  0  0  0  0  # atno 6909 bound_to 6896
  144.7326  139.9191  143.6419 H   0  0  0  0  0  0  0  0  0  0  0  0  # atno 7974 bound_to 7965
  154.4138  140.1701  156.1946 H   0  0  0  0  0  0  0  0  0  0  0  0  # atno 8008 bound_to 7997
  155.9575  140.3396  155.6437 H   0  0  0  0  0  0  0  0  0  0  0  0  # atno 8009 bound_to 7997
  155.6791  140.0720  157.2482 H   0  0  0  0  0  0  0  0  0  0  0  0  # atno 8010 bound_to 7997
  139.8792  144.6449  150.8862 H   0  0  0  0  0  0  0  0  0  0  0  0  # atno 10167 bound_to 10162
  156.0048  130.5121  150.6117 H   0  0  0  0  0  0  0  0  0  0  0  0  # atno 10718 bound_to 10713
  154.8178  135.3309  154.7127 H   0  0  0  0  0  0  0  0  0  0  0  0  # atno 10763 bound_to 10752
  153.7765  135.6921  153.4901 H   0  0  0  0  0  0  0  0  0  0  0  0  # atno 10764 bound_to 10752
  153.2009  135.4516  155.0213 H   0  0  0  0  0  0  0  0  0  0  0  0  # atno 10765 bound_to 10752
  141.1054  133.8806  157.1731 H   0  0  0  0  0  0  0  0  0  0  0  0  # atno 11005 bound_to 11000
  146.0943  139.3934  143.0386 LP  0  0  0  0  0  0  0  0  0  0  0  0  # atno 17320 bound_to 7965
  145.7667  140.9913  143.1171 LP  0  0  0  0  0  0  0  0  0  0  0  0  # atno 17321 bound_to 7965
  140.7747  143.3599  151.1848 LP  0  0  0  0  0  0  0  0  0  0  0  0  # atno 17342 bound_to 10162
  139.7211  143.9221  152.2986 LP  0  0  0  0  0  0  0  0  0  0  0  0  # atno 17343 bound_to 10162
  157.3948  131.0801  151.1361 LP  0  0  0  0  0  0  0  0  0  0  0  0  # atno 17370 bound_to 10713
  157.2041  130.6408  149.5749 LP  0  0  0  0  0  0  0  0  0  0  0  0  # atno 17371 bound_to 10713
  139.9922  135.0060  157.0002 LP  0  0  0  0  0  0  0  0  0  0  0  0  # atno 17394 bound_to 11000
  140.4915  134.1189  155.7233 LP  0  0  0  0  0  0  0  0  0  0  0  0  # atno 17395 bound_to 11000

$$$$
