AV-unprocessed.smi:3073|AV-procd|sdf|11719|dock9
  -GOLD-   2272017123D 1   1.00000     0.00000
 Structure written by MMmdl.
 24 25  0  0  0  0  0  0  0  0  2 V2000
  152.7692  138.5104  154.7262 C   0  0  0  0  0  0  0  0  0  0  0  0
  151.6228  137.9054  154.2784 C   0  0  0  0  0  0  0  0  0  0  0  0
  150.2048  138.8396  154.6683 S   0  0  0  0  0  0  0  0  0  0  0  0
  151.2412  140.0367  155.4391 C   0  0  0  0  0  0  0  0  0  0  0  0
  150.7158  141.2774  156.0898 C   0  0  2  0  0  0  0  0  0  0  0  0
  151.6304  141.7824  157.2215 C   0  0  0  0  0  0  0  0  0  0  0  0
  151.0485  143.0554  157.8551 C   0  0  0  0  0  0  0  0  0  0  0  0
  149.5965  142.8297  158.3091 C   0  0  0  0  0  0  0  0  0  0  0  0
  148.7604  142.3704  157.1786 N   0  3  0  0  0  0  0  0  0  0  0  0
  149.2560  141.1203  156.5612 C   0  0  0  0  0  0  0  0  0  0  0  0
  152.5390  139.7208  155.3844 N   0  0  0  0  0  0  0  0  0  0  0  0
  153.7831  138.1527  154.6214 H   0  0  0  0  0  0  0  0  0  0  0  0
  151.5270  136.9712  153.7448 H   0  0  0  0  0  0  0  0  0  0  0  0
  150.7163  142.0486  155.3176 H   0  0  0  0  0  0  0  0  0  0  0  0
  151.7346  141.0122  157.9871 H   0  0  0  0  0  0  0  0  0  0  0  0
  152.6327  141.9802  156.8394 H   0  0  0  0  0  0  0  0  0  0  0  0
  151.6614  143.3633  158.7029 H   0  0  0  0  0  0  0  0  0  0  0  0
  151.0846  143.8734  157.1342 H   0  0  0  0  0  0  0  0  0  0  0  0
  149.5588  142.0893  159.1093 H   0  0  0  0  0  0  0  0  0  0  0  0
  149.1771  143.7532  158.7087 H   0  0  0  0  0  0  0  0  0  0  0  0
  147.8170  142.2213  157.5073 H   0  0  0  0  0  0  0  0  0  0  0  0
  148.6101  140.8624  155.7215 H   0  0  0  0  0  0  0  0  0  0  0  0
  149.1730  140.3108  157.2878 H   0  0  0  0  0  0  0  0  0  0  0  0
  148.7488  143.0942  156.4741 H   0  0  0  0  0  0  0  0  0  0  0  0
  1 11  1  0  0  0  0
  1  2  2  0  0  0  0
  1 12  1  0  0  0  0
  2  3  1  0  0  0  0
  2 13  1  0  0  0  0
  3  4  1  0  0  0  0
  4  5  1  0  0  0  0
  4 11  2  0  0  0  0
  5 10  1  0  0  0  0
  5  6  1  0  0  0  0
  5 14  1  0  0  0  0
  6  7  1  0  0  0  0
  6 15  1  0  0  0  0
  6 16  1  0  0  0  0
  7  8  1  0  0  0  0
  7 17  1  0  0  0  0
  7 18  1  0  0  0  0
  8  9  1  0  0  0  0
  8 19  1  0  0  0  0
  8 20  1  0  0  0  0
  9 10  1  0  0  0  0
  9 21  1  0  0  0  0
  9 24  1  0  0  0  0
 10 22  1  0  0  0  0
 10 23  1  0  0  0  0
M  CHG  1   9   1
M  END
> <s_m_source_file>
AV-unprocessed.smi

> <i_m_source_file_index>
3073

> <i_lp_mmshare_version>
43012

> <i_f3d_flags>
0

> <s_epik_input>
bjFbY0hdW2NIXXNjMVtDQEBIXTJbQ0gyXVtDSDJdW0NIMl1bTkhdW0NIMl0y

> <s_epik_cmdline>
J2VwaWtfcHl0aG9uJywgJy1waCcsICc3LjAnLCAnLXRuJywgJzgnLCAnLW1hJywgJzIwMCcsICctbWV0YWxfYmluZGluZycsICctaW1hZScsICc8aW5maWxlLm1hZT4nLCAnLW9tYWUnLCAnPG91dGZpbGUubWFlPic=

> <r_lp_tautomer_probability>
1

> <r_epik_Ionization_Penalty>
0.00043192

> <r_epik_Ionization_Penalty_Charging>
0.000426856

> <r_epik_Ionization_Penalty_Neutral>
5.06388e-06

> <r_epik_State_Penalty>
-0

> <r_epik_Charging_Adjusted_Penalty>
0.000426856

> <i_epik_Tot_Q>
1

> <i_epik_Tot_abs_Q>
1

> <r_epik_Metal_State_Penalty>
-0

> <b_epik_Metal_Only>
0

> <s_lp_Force_Field>
OPLS_2005

> <r_lp_Energy>
4.76757

> <b_lp_Chiralities_Consistent>
1

> <s_lp_Variant>
AV-unprocessed.smi:3073-1

> <Gold.Version>
5.8.1

> <Gold.Id.Protein>
6NUR|6NUR_protein|mol2

> <Gold.PLP.Fitness>
33.8172

> <Gold.PLP.PLP>
-23.2054

> <Gold.PLP.part.hbond>
-2.7089

> <Gold.PLP.part.metal>
0.0000

> <Gold.PLP.part.buried>
-2.5182

> <Gold.PLP.part.nonpolar>
-18.6258

> <Gold.PLP.part.repulsive>
0.0323

> <Gold.PLP.ligand.clash>
0.0000

> <Gold.PLP.ligand.torsion>
0.7206

> <Gold.PLP.Chemscore.Hbond>
3.0000

> <Gold.PLP.Chemscore.CHOScore>
1.0000

> <Gold.PLP.Chemscore.Metal>
0.0000

> <Gold.Chemscore.Hbonds>
donor molecule, donor type, donor heavy atom, donor atom, acceptor molecule, acceptor atom, score
      L1  H     9    24       P1  8028  2.00
      P1  H  7997  8009       L1    11  0.93
      L1  C     2    13       P1  7949  1.00

> <Gold.PLP.Chemscore.Internal.Correction>
0.0531

> <Gold.Rescore>
     Score         DG    S(hbond)    S(metal)    S(lipo)     H(rot)  DE(clash)    DE(int)     intcor
     13.57     -16.52       1.58        0.00      71.15       1.00       2.29       0.67       ----

> <Gold.Chemscore.Fitness>
13.5653

> <Gold.Chemscore.DG>
-16.5166

> <Gold.Chemscore.ZeroCoef>
-5.4800

> <Gold.Chemscore.Hbond>
1.5786

> <Gold.Chemscore.Metal>
0.0000

> <Gold.Chemscore.Lipo>
71.1467

> <Gold.Chemscore.Internal_Hbond>
0.0000

> <Gold.Chemscore.DEClash>
2.2862

> <Gold.Chemscore.DEInternal>
0.6650

> <Gold.Chemscore.Rot>
1.0000

> <Gold.Chemscore.Internal.Correction>
   9.000000E+99

> <Gold.Chemscore.Hbonds>
donor molecule, donor type, donor heavy atom, donor atom, acceptor molecule, acceptor atom, score
      L1  H     9    24       P1  8028  0.94
      P1  H  7997  8009       L1    11  0.20

> <Gold.Chemscore.Hbond.Weighted>
-5.2724

> <Gold.Chemscore.Metal.Weighted>
-0.0000

> <Gold.Chemscore.Lipo.Weighted>
-8.3242

> <Gold.Chemscore.Internal_Hbond.Weighted>
0.0000

> <Gold.Chemscore.DEClash.Weighted>
2.2862

> <Gold.Chemscore.DEInternal.Weighted>
0.6650

> <Gold.Chemscore.Rot.Weighted>
2.5600

> <Gold.Chemscore.Internal.Correction.Weighted>
   9.000000E+99

> <Gold.Protein.RotatedTorsions>
[ 6907 6896 6895 6894 ] final  169.07 input  -60.11 | X-H torsion
[ 7974 7965 7964 7962 ] final   78.29 input  175.53 | X-H torsion
[ 8008 7997 7996 7995 ] final -133.51 input   59.86 | X-H torsion
[ 10167 10162 10161 10158 ] final  115.66 input  -65.29 | X-H torsion
[ 10718 10713 10712 10709 ] final  -54.73 input   66.30 | X-H torsion
[ 10763 10752 10751 10750 ] final  -17.45 input  -60.55 | X-H torsion
[ 11005 11000 10999 10996 ] final  -94.96 input  -57.11 | X-H torsion

> <Gold.Protein.ActiveResidues>
 VAL166  LYS551  ARG553  GLY616  TRP617  ASP618  TYR619  PRO620  LYS621  CYS622 
 ASP623  PHE694  ASN695  SER759  ASP760  ASP761  ALA762  ILE779  LEU786  VAL792 
 PHE793  MET794  SER795  GLU796  ALA797  LYS798  CYS799  TRP800  GLU811  SER814 

> <Gold.Protein.RotatedAtoms>
  151.8377  133.3418  159.3632 H   0  0  0  0  0  0  0  0  0  0  0  0  # atno 6907 bound_to 6896
  150.7244  134.5421  159.5762 H   0  0  0  0  0  0  0  0  0  0  0  0  # atno 6908 bound_to 6896
  152.2888  134.7746  160.0433 H   0  0  0  0  0  0  0  0  0  0  0  0  # atno 6909 bound_to 6896
  145.6790  139.2518  143.1825 H   0  0  0  0  0  0  0  0  0  0  0  0  # atno 7974 bound_to 7965
  155.3466  140.0475  157.3045 H   0  0  0  0  0  0  0  0  0  0  0  0  # atno 8008 bound_to 7997
  154.5249  140.2237  155.8873 H   0  0  0  0  0  0  0  0  0  0  0  0  # atno 8009 bound_to 7997
  156.1728  140.3092  155.9011 H   0  0  0  0  0  0  0  0  0  0  0  0  # atno 8010 bound_to 7997
  139.6301  144.7114  151.2450 H   0  0  0  0  0  0  0  0  0  0  0  0  # atno 10167 bound_to 10162
  156.1427  130.4154  150.0076 H   0  0  0  0  0  0  0  0  0  0  0  0  # atno 10718 bound_to 10713
  153.5740  135.7007  153.5492 H   0  0  0  0  0  0  0  0  0  0  0  0  # atno 10763 bound_to 10752
  153.3319  135.4045  155.1502 H   0  0  0  0  0  0  0  0  0  0  0  0  # atno 10764 bound_to 10752
  154.8628  135.3721  154.5264 H   0  0  0  0  0  0  0  0  0  0  0  0  # atno 10765 bound_to 10752
  141.1455  133.7993  157.0370 H   0  0  0  0  0  0  0  0  0  0  0  0  # atno 11005 bound_to 11000
  146.0981  140.7577  142.9563 LP  0  0  0  0  0  0  0  0  0  0  0  0  # atno 17320 bound_to 7965
  144.7032  140.3743  143.7139 LP  0  0  0  0  0  0  0  0  0  0  0  0  # atno 17321 bound_to 7965
  140.7434  143.6495  150.8261 LP  0  0  0  0  0  0  0  0  0  0  0  0  # atno 17342 bound_to 10162
  140.0119  143.5633  152.2835 LP  0  0  0  0  0  0  0  0  0  0  0  0  # atno 17343 bound_to 10162
  156.7957  130.9272  151.3646 LP  0  0  0  0  0  0  0  0  0  0  0  0  # atno 17370 bound_to 10713
  157.6590  130.8949  149.9789 LP  0  0  0  0  0  0  0  0  0  0  0  0  # atno 17371 bound_to 10713
  140.0717  134.9698  157.1478 LP  0  0  0  0  0  0  0  0  0  0  0  0  # atno 17394 bound_to 11000
  140.3701  134.2399  155.7179 LP  0  0  0  0  0  0  0  0  0  0  0  0  # atno 17395 bound_to 11000

$$$$
