AV-unprocessed.smi:1377|AV-procd|sdf|5594|dock1
  -GOLD-   22720 5193D 1   1.00000     0.00000
 Structure written by MMmdl.
 29 30  0  0  0  0  0  0  0  0  1 V2000
  149.8329  138.5309  153.3193 N   0  0  0  0  0  0  0  0  0  0  0  0
  150.4736  138.7757  154.4656 C   0  0  0  0  0  0  0  0  0  0  0  0
  150.8817  139.8966  154.7624 O   0  0  0  0  0  0  0  0  0  0  0  0
  150.6875  137.5941  155.4141 C   0  0  0  0  0  0  0  0  0  0  0  0
  149.3670  137.0800  155.9099 C   0  0  0  0  0  0  0  0  0  0  0  0
  148.2931  136.6879  155.1465 C   0  0  0  0  0  0  0  0  0  0  0  0
  146.9546  136.1508  156.1257 S   0  0  0  0  0  0  0  0  0  0  0  0
  147.9135  136.4943  157.5568 C   0  0  0  0  0  0  0  0  0  0  0  0
  147.4154  136.2716  158.8672 N   0  0  0  0  0  0  0  0  0  0  0  0
  147.9820  136.6035  160.0422 C   0  0  0  0  0  0  0  0  0  0  0  0
  149.0607  137.1873  160.1564 O   0  0  0  0  0  0  0  0  0  0  0  0
  147.1844  136.2053  161.2919 C   0  0  0  0  0  0  0  0  0  0  0  0
  147.9648  136.3262  162.6127 C   0  0  0  0  0  0  0  0  0  0  0  0
  147.4028  134.9624  163.0247 C   0  0  0  0  0  0  0  0  0  0  0  0
  147.1050  134.6893  161.5476 C   0  0  0  0  0  0  0  0  0  0  0  0
  149.1335  136.9706  157.2848 N   0  0  0  0  0  0  0  0  0  0  0  0
  149.6715  139.2843  152.6665 H   0  0  0  0  0  0  0  0  0  0  0  0
  149.5121  137.5971  153.1086 H   0  0  0  0  0  0  0  0  0  0  0  0
  151.2354  136.8125  154.8856 H   0  0  0  0  0  0  0  0  0  0  0  0
  151.3193  137.8981  156.2498 H   0  0  0  0  0  0  0  0  0  0  0  0
  148.2114  136.6777  154.0698 H   0  0  0  0  0  0  0  0  0  0  0  0
  146.5218  135.8049  158.9186 H   0  0  0  0  0  0  0  0  0  0  0  0
  146.2030  136.6800  161.3533 H   0  0  0  0  0  0  0  0  0  0  0  0
  149.0502  136.3171  162.4969 H   0  0  0  0  0  0  0  0  0  0  0  0
  147.6416  137.1488  163.2510 H   0  0  0  0  0  0  0  0  0  0  0  0
  148.1314  134.2867  163.4735 H   0  0  0  0  0  0  0  0  0  0  0  0
  146.4983  135.0441  163.6292 H   0  0  0  0  0  0  0  0  0  0  0  0
  146.1214  134.2547  161.3674 H   0  0  0  0  0  0  0  0  0  0  0  0
  147.8901  134.1071  161.0617 H   0  0  0  0  0  0  0  0  0  0  0  0
  1  2  1  0  0  0  0
  1 17  1  0  0  0  0
  1 18  1  0  0  0  0
  2  3  2  0  0  0  0
  2  4  1  0  0  0  0
  4  5  1  0  0  0  0
  4 19  1  0  0  0  0
  4 20  1  0  0  0  0
  5 16  1  0  0  0  0
  5  6  2  0  0  0  0
  6  7  1  0  0  0  0
  6 21  1  0  0  0  0
  7  8  1  0  0  0  0
  8  9  1  0  0  0  0
  8 16  2  0  0  0  0
  9 10  1  0  0  0  0
  9 22  1  0  0  0  0
 10 11  2  0  0  0  0
 10 12  1  0  0  0  0
 12 15  1  0  0  0  0
 12 13  1  0  0  0  0
 12 23  1  0  0  0  0
 13 14  1  0  0  0  0
 13 24  1  0  0  0  0
 13 25  1  0  0  0  0
 14 15  1  0  0  0  0
 14 26  1  0  0  0  0
 14 27  1  0  0  0  0
 15 28  1  0  0  0  0
 15 29  1  0  0  0  0
M  END
> <s_m_source_file>
AV-unprocessed.smi

> <i_m_source_file_index>
1377

> <i_lp_mmshare_version>
43012

> <i_f3d_flags>
0

> <s_epik_input>
W05IMl1DKD1PKVtDSDJdYzFbY0hdc2MobjEpW05IXUMoPU8pW0NIXTJbQ0gyXVtDSDJdW0NIMl0y

> <s_epik_cmdline>
J2VwaWtfcHl0aG9uJywgJy1waCcsICc3LjAnLCAnLXRuJywgJzgnLCAnLW1hJywgJzIwMCcsICctbWV0YWxfYmluZGluZycsICctaW1hZScsICc8aW5maWxlLm1hZT4nLCAnLW9tYWUnLCAnPG91dGZpbGUubWFlPic=

> <r_lp_tautomer_probability>
1

> <r_epik_Ionization_Penalty>
0.000217978

> <r_epik_Ionization_Penalty_Charging>
0

> <r_epik_Ionization_Penalty_Neutral>
0.000217978

> <r_epik_State_Penalty>
-0

> <r_epik_Charging_Adjusted_Penalty>
0

> <i_epik_Tot_Q>
0

> <i_epik_Tot_abs_Q>
0

> <r_epik_Metal_State_Penalty>
0.13268

> <b_epik_Metal_Only>
0

> <s_lp_Force_Field>
OPLS_2005

> <r_lp_Energy>
11.3529

> <b_lp_Chiralities_Consistent>
1

> <s_lp_Variant>
AV-unprocessed.smi:1377-1

> <Gold.Version>
5.8.1

> <Gold.Id.Protein>
6NUR|6NUR_protein|mol2

> <Gold.PLP.Fitness>
39.5935

> <Gold.PLP.PLP>
-26.1775

> <Gold.PLP.part.hbond>
-4.0571

> <Gold.PLP.part.metal>
0.0000

> <Gold.PLP.part.buried>
-4.3082

> <Gold.PLP.part.nonpolar>
-17.8341

> <Gold.PLP.part.repulsive>
0.2214

> <Gold.PLP.ligand.clash>
0.0000

> <Gold.PLP.ligand.torsion>
0.2659

> <Gold.PLP.Chemscore.Hbond>
3.5120

> <Gold.PLP.Chemscore.CHOScore>
1.0000

> <Gold.PLP.Chemscore.Metal>
0.0000

> <Gold.Chemscore.Hbonds>
donor molecule, donor type, donor heavy atom, donor atom, acceptor molecule, acceptor atom, score
      L1  H     1    17       P1  7957  1.00
      L1  H     1    18       P1  7948  1.00
      P1  H  6931  6943       L1    11  0.50
      P1  H  7989  7998       L1     3  1.00
      L1  C     6    21       P1  7948  1.00

> <Gold.PLP.Chemscore.Internal.Correction>
0.4118

> <Gold.Rescore>
     Score         DG    S(hbond)    S(metal)    S(lipo)     H(rot)  DE(clash)    DE(int)     intcor
     14.90     -16.55       3.26        0.00      43.71       1.92       0.00       1.64       ----

> <Gold.Chemscore.Fitness>
14.9029

> <Gold.Chemscore.DG>
-16.5478

> <Gold.Chemscore.ZeroCoef>
-5.4800

> <Gold.Chemscore.Hbond>
3.2571

> <Gold.Chemscore.Metal>
0.0000

> <Gold.Chemscore.Lipo>
43.7113

> <Gold.Chemscore.Internal_Hbond>
0.0000

> <Gold.Chemscore.DEClash>
0.0000

> <Gold.Chemscore.DEInternal>
1.6449

> <Gold.Chemscore.Rot>
1.9239

> <Gold.Chemscore.Internal.Correction>
   9.000000E+99

> <Gold.Chemscore.Hbonds>
donor molecule, donor type, donor heavy atom, donor atom, acceptor molecule, acceptor atom, score
      L1  H     1    17       P1  7957  0.96
      L1  H     1    18       P1  7948  0.81
      P1  H  6931  6943       L1    11  0.35
      P1  H  7989  7998       L1     3  0.96

> <Gold.Chemscore.Hbond.Weighted>
-10.8789

> <Gold.Chemscore.Metal.Weighted>
-0.0000

> <Gold.Chemscore.Lipo.Weighted>
-5.1142

> <Gold.Chemscore.Internal_Hbond.Weighted>
0.0000

> <Gold.Chemscore.DEClash.Weighted>
0.0000

> <Gold.Chemscore.DEInternal.Weighted>
1.6449

> <Gold.Chemscore.Rot.Weighted>
4.9253

> <Gold.Chemscore.Internal.Correction.Weighted>
   9.000000E+99

> <Gold.Protein.RotatedTorsions>
[ 6907 6896 6895 6894 ] final  -51.64 input  -60.11 | X-H torsion
[ 7974 7965 7964 7962 ] final   57.88 input  175.53 | X-H torsion
[ 8008 7997 7996 7995 ] final -143.87 input   59.86 | X-H torsion
[ 10167 10162 10161 10158 ] final   29.36 input  -65.29 | X-H torsion
[ 10718 10713 10712 10709 ] final   91.99 input   66.30 | X-H torsion
[ 10763 10752 10751 10750 ] final   20.10 input  -60.55 | X-H torsion
[ 11005 11000 10999 10996 ] final  -79.15 input  -57.11 | X-H torsion

> <Gold.Protein.ActiveResidues>
 VAL166  LYS551  ARG553  GLY616  TRP617  ASP618  TYR619  PRO620  LYS621  CYS622 
 ASP623  PHE694  ASN695  SER759  ASP760  ASP761  ALA762  ILE779  LEU786  VAL792 
 PHE793  MET794  SER795  GLU796  ALA797  LYS798  CYS799  TRP800  GLU811  SER814 

> <Gold.Protein.RotatedAtoms>
  150.8592  134.7940  159.7069 H   0  0  0  0  0  0  0  0  0  0  0  0  # atno 6907 bound_to 6896
  152.4635  134.5127  159.9768 H   0  0  0  0  0  0  0  0  0  0  0  0  # atno 6908 bound_to 6896
  151.5234  133.3424  159.2941 H   0  0  0  0  0  0  0  0  0  0  0  0  # atno 6909 bound_to 6896
  145.9243  139.3755  143.0459 H   0  0  0  0  0  0  0  0  0  0  0  0  # atno 7974 bound_to 7965
  155.5177  140.0589  157.2912 H   0  0  0  0  0  0  0  0  0  0  0  0  # atno 8008 bound_to 7997
  154.4529  140.1958  156.0412 H   0  0  0  0  0  0  0  0  0  0  0  0  # atno 8009 bound_to 7997
  156.0740  140.3256  155.7615 H   0  0  0  0  0  0  0  0  0  0  0  0  # atno 8010 bound_to 7997
  140.4773  144.0671  150.6254 H   0  0  0  0  0  0  0  0  0  0  0  0  # atno 10167 bound_to 10162
  157.6959  131.0427  150.3813 H   0  0  0  0  0  0  0  0  0  0  0  0  # atno 10718 bound_to 10713
  153.1106  135.6695  153.9507 H   0  0  0  0  0  0  0  0  0  0  0  0  # atno 10763 bound_to 10752
  153.9052  135.3031  155.3450 H   0  0  0  0  0  0  0  0  0  0  0  0  # atno 10764 bound_to 10752
  154.7526  135.5027  153.9393 H   0  0  0  0  0  0  0  0  0  0  0  0  # atno 10765 bound_to 10752
  141.1667  133.7093  156.8079 H   0  0  0  0  0  0  0  0  0  0  0  0  # atno 11005 bound_to 11000
  145.8509  140.9529  143.0750 LP  0  0  0  0  0  0  0  0  0  0  0  0  # atno 17320 bound_to 7965
  144.6756  140.0406  143.7481 LP  0  0  0  0  0  0  0  0  0  0  0  0  # atno 17321 bound_to 7965
  140.3902  143.2756  152.0068 LP  0  0  0  0  0  0  0  0  0  0  0  0  # atno 17342 bound_to 10162
  139.4827  144.6083  151.7480 LP  0  0  0  0  0  0  0  0  0  0  0  0  # atno 17343 bound_to 10162
  156.4226  130.3956  149.6814 LP  0  0  0  0  0  0  0  0  0  0  0  0  # atno 17370 bound_to 10713
  156.4060  130.7698  151.2709 LP  0  0  0  0  0  0  0  0  0  0  0  0  # atno 17371 bound_to 10713
  140.2209  134.8758  157.3376 LP  0  0  0  0  0  0  0  0  0  0  0  0  # atno 17394 bound_to 11000
  140.1989  134.4279  155.7674 LP  0  0  0  0  0  0  0  0  0  0  0  0  # atno 17395 bound_to 11000

$$$$
