AV-unprocessed.smi:3322|AV-procd|sdf|12775|dock7
  -GOLD-   2272019123D 1   1.00000     0.00000
 Structure written by MMmdl.
 38 39  0  0  0  0  0  0  0  0  1 V2000
  152.0715  139.3624  155.3581 C   0  0  0  0  0  0  0  0  0  0  0  0
  150.8615  140.3021  155.2024 C   0  0  2  0  0  0  0  0  0  0  0  0
  150.4069  140.7803  156.5217 N   0  0  0  0  0  0  0  0  0  0  0  0
  151.3381  141.7076  157.1566 C   0  0  0  0  0  0  0  0  0  0  0  0
  150.7720  142.2692  158.4778 C   0  0  0  0  0  0  0  0  0  0  0  0
  151.7644  142.3612  159.5344 N   0  0  0  0  0  0  0  0  0  0  0  0
  153.0904  141.9844  159.4995 C   0  0  0  0  0  0  0  0  0  0  0  0
  153.6319  142.2907  160.7153 C   0  0  0  0  0  0  0  0  0  0  0  0
  152.5434  142.8536  161.4383 C   0  0  0  0  0  0  0  0  0  0  0  0
  151.4261  142.8906  160.7308 N   0  0  0  0  0  0  0  0  0  0  0  0
  149.7196  139.5848  154.4516 C   0  0  0  0  0  0  0  0  0  0  0  0
  149.8488  138.3840  154.2036 O   0  0  0  0  0  0  0  0  0  0  0  0
  148.6032  140.2695  154.0935 N   0  0  0  0  0  0  0  0  0  0  0  0
  148.4444  141.7078  154.3366 C   0  0  0  0  0  0  0  0  0  0  0  0
  147.2708  141.9191  155.3078 C   0  0  0  0  0  0  0  0  0  0  0  0
  146.0869  141.3567  154.7497 O   0  0  0  0  0  0  0  0  0  0  0  0
  146.2098  139.9633  154.4809 C   0  0  0  0  0  0  0  0  0  0  0  0
  147.3757  139.7168  153.5058 C   0  0  0  0  0  0  0  0  0  0  0  0
  152.4188  138.9924  154.3933 H   0  0  0  0  0  0  0  0  0  0  0  0
  151.8243  138.4958  155.9731 H   0  0  0  0  0  0  0  0  0  0  0  0
  152.9140  139.8692  155.8284 H   0  0  0  0  0  0  0  0  0  0  0  0
  151.1553  141.1714  154.6215 H   0  0  0  0  0  0  0  0  0  0  0  0
  149.5022  141.2265  156.4606 H   0  0  0  0  0  0  0  0  0  0  0  0
  152.2388  141.1398  157.3905 H   0  0  0  0  0  0  0  0  0  0  0  0
  151.6510  142.5057  156.4825 H   0  0  0  0  0  0  0  0  0  0  0  0
  150.3278  143.2527  158.3159 H   0  0  0  0  0  0  0  0  0  0  0  0
  149.9672  141.6242  158.8326 H   0  0  0  0  0  0  0  0  0  0  0  0
  153.5345  141.5433  158.6192 H   0  0  0  0  0  0  0  0  0  0  0  0
  154.6508  142.1380  161.0385 H   0  0  0  0  0  0  0  0  0  0  0  0
  152.5322  143.2347  162.4487 H   0  0  0  0  0  0  0  0  0  0  0  0
  149.3423  142.1779  154.7398 H   0  0  0  0  0  0  0  0  0  0  0  0
  148.2434  142.2120  153.3903 H   0  0  0  0  0  0  0  0  0  0  0  0
  147.4810  141.4657  156.2779 H   0  0  0  0  0  0  0  0  0  0  0  0
  147.1089  142.9831  155.4795 H   0  0  0  0  0  0  0  0  0  0  0  0
  146.3617  139.4168  155.4131 H   0  0  0  0  0  0  0  0  0  0  0  0
  145.2754  139.6043  154.0498 H   0  0  0  0  0  0  0  0  0  0  0  0
  147.1810  140.2103  152.5526 H   0  0  0  0  0  0  0  0  0  0  0  0
  147.4166  138.6528  153.2881 H   0  0  0  0  0  0  0  0  0  0  0  0
  1  2  1  0  0  0  0
  1 19  1  0  0  0  0
  1 20  1  0  0  0  0
  1 21  1  0  0  0  0
  2  3  1  0  0  0  0
  2 11  1  0  0  0  0
  2 22  1  0  0  0  0
  3  4  1  0  0  0  0
  3 23  1  0  0  0  0
  4  5  1  0  0  0  0
  4 24  1  0  0  0  0
  4 25  1  0  0  0  0
  5  6  1  0  0  0  0
  5 26  1  0  0  0  0
  5 27  1  0  0  0  0
  6 10  1  0  0  0  0
  6  7  1  0  0  0  0
  7  8  2  0  0  0  0
  7 28  1  0  0  0  0
  8  9  1  0  0  0  0
  8 29  1  0  0  0  0
  9 10  2  0  0  0  0
  9 30  1  0  0  0  0
 11 12  2  0  0  0  0
 11 13  1  0  0  0  0
 13 18  1  0  0  0  0
 13 14  1  0  0  0  0
 14 15  1  0  0  0  0
 14 31  1  0  0  0  0
 14 32  1  0  0  0  0
 15 16  1  0  0  0  0
 15 33  1  0  0  0  0
 15 34  1  0  0  0  0
 16 17  1  0  0  0  0
 17 18  1  0  0  0  0
 17 35  1  0  0  0  0
 17 36  1  0  0  0  0
 18 37  1  0  0  0  0
 18 38  1  0  0  0  0
M  END
> <s_m_source_file>
AV-unprocessed.smi

> <i_m_source_file_index>
3322

> <i_lp_mmshare_version>
43012

> <i_f3d_flags>
0

> <s_epik_input>
W0NIMl0xW0NIMl1PW0NIMl1bQ0gyXU4xQyg9TylbQ0BIXShbQ0gzXSlbTkhdW0NIMl1bQ0gyXW4yW2NIXVtjSF1bY0hdbjI=

> <s_epik_cmdline>
J2VwaWtfcHl0aG9uJywgJy1waCcsICc3LjAnLCAnLXRuJywgJzgnLCAnLW1hJywgJzIwMCcsICctbWV0YWxfYmluZGluZycsICctaW1hZScsICc8aW5maWxlLm1hZT4nLCAnLW9tYWUnLCAnPG91dGZpbGUubWFlPic=

> <r_lp_tautomer_probability>
1

> <r_epik_Ionization_Penalty>
0.511228

> <r_epik_Ionization_Penalty_Charging>
0

> <r_epik_Ionization_Penalty_Neutral>
0.511228

> <r_epik_State_Penalty>
0.51753

> <r_epik_Charging_Adjusted_Penalty>
0.51753

> <i_epik_Tot_Q>
0

> <i_epik_Tot_abs_Q>
0

> <r_epik_Metal_State_Penalty>
0.517012

> <b_epik_Metal_Only>
0

> <s_lp_Force_Field>
OPLS_2005

> <r_lp_Energy>
29.3693

> <b_lp_Chiralities_Consistent>
1

> <s_lp_Variant>
AV-unprocessed.smi:3322-3

> <Gold.Version>
5.8.1

> <Gold.Id.Protein>
6NUR|6NUR_protein|mol2

> <Gold.PLP.Fitness>
35.6653

> <Gold.PLP.PLP>
-36.2918

> <Gold.PLP.part.hbond>
-1.0000

> <Gold.PLP.part.metal>
0.0000

> <Gold.PLP.part.buried>
-0.7061

> <Gold.PLP.part.nonpolar>
-33.6879

> <Gold.PLP.part.repulsive>
0.4510

> <Gold.PLP.ligand.clash>
0.0000

> <Gold.PLP.ligand.torsion>
0.4298

> <Gold.PLP.Chemscore.Hbond>
0.0562

> <Gold.PLP.Chemscore.CHOScore>
0.0000

> <Gold.PLP.Chemscore.Metal>
0.0000

> <Gold.Chemscore.Hbonds>
donor molecule, donor type, donor heavy atom, donor atom, acceptor molecule, acceptor atom, score
      P1  H  6933  6945       L1    10  0.05

> <Gold.PLP.Chemscore.Internal.Correction>
0.0646

> <Gold.Rescore>
     Score         DG    S(hbond)    S(metal)    S(lipo)     H(rot)  DE(clash)    DE(int)     intcor
     10.25     -10.81       0.02        0.00      85.21       1.84       0.12       0.44       ----

> <Gold.Chemscore.Fitness>
10.2476

> <Gold.Chemscore.DG>
-10.8100

> <Gold.Chemscore.ZeroCoef>
-5.4800

> <Gold.Chemscore.Hbond>
0.0244

> <Gold.Chemscore.Metal>
0.0000

> <Gold.Chemscore.Lipo>
85.2108

> <Gold.Chemscore.Internal_Hbond>
0.0000

> <Gold.Chemscore.DEClash>
0.1187

> <Gold.Chemscore.DEInternal>
0.4437

> <Gold.Chemscore.Rot>
1.8442

> <Gold.Chemscore.Internal.Correction>
   9.000000E+99

> <Gold.Chemscore.Hbonds>
donor molecule, donor type, donor heavy atom, donor atom, acceptor molecule, acceptor atom, score
      P1  H  6933  6945       L1    10  0.01

> <Gold.Chemscore.Hbond.Weighted>
-0.0815

> <Gold.Chemscore.Metal.Weighted>
-0.0000

> <Gold.Chemscore.Lipo.Weighted>
-9.9697

> <Gold.Chemscore.Internal_Hbond.Weighted>
0.0000

> <Gold.Chemscore.DEClash.Weighted>
0.1187

> <Gold.Chemscore.DEInternal.Weighted>
0.4437

> <Gold.Chemscore.Rot.Weighted>
4.7212

> <Gold.Chemscore.Internal.Correction.Weighted>
   9.000000E+99

> <Gold.Protein.RotatedTorsions>
[ 6907 6896 6895 6894 ] final  155.22 input  -60.11 | X-H torsion
[ 7974 7965 7964 7962 ] final   15.20 input  175.53 | X-H torsion
[ 8008 7997 7996 7995 ] final -114.85 input   59.86 | X-H torsion
[ 10167 10162 10161 10158 ] final  112.45 input  -65.29 | X-H torsion
[ 10718 10713 10712 10709 ] final -157.32 input   66.30 | X-H torsion
[ 10763 10752 10751 10750 ] final  -18.48 input  -60.55 | X-H torsion
[ 11005 11000 10999 10996 ] final   39.73 input  -57.11 | X-H torsion

> <Gold.Protein.ActiveResidues>
 VAL166  LYS551  ARG553  GLY616  TRP617  ASP618  TYR619  PRO620  LYS621  CYS622 
 ASP623  PHE694  ASN695  SER759  ASP760  ASP761  ALA762  ILE779  LEU786  VAL792 
 PHE793  MET794  SER795  GLU796  ALA797  LYS798  CYS799  TRP800  GLU811  SER814 

> <Gold.Protein.RotatedAtoms>
  152.0473  133.4003  159.4361 H   0  0  0  0  0  0  0  0  0  0  0  0  # atno 6907 bound_to 6896
  150.6872  134.3348  159.4852 H   0  0  0  0  0  0  0  0  0  0  0  0  # atno 6908 bound_to 6896
  152.1154  134.9244  160.0616 H   0  0  0  0  0  0  0  0  0  0  0  0  # atno 6909 bound_to 6896
  146.2285  139.8929  142.8552 H   0  0  0  0  0  0  0  0  0  0  0  0  # atno 7974 bound_to 7965
  155.0429  140.0392  157.2516 H   0  0  0  0  0  0  0  0  0  0  0  0  # atno 8008 bound_to 7997
  154.7202  140.2710  155.6525 H   0  0  0  0  0  0  0  0  0  0  0  0  # atno 8009 bound_to 7997
  156.2814  140.2704  156.1871 H   0  0  0  0  0  0  0  0  0  0  0  0  # atno 8010 bound_to 7997
  139.6535  144.7129  151.2002 H   0  0  0  0  0  0  0  0  0  0  0  0  # atno 10167 bound_to 10162
  156.5387  130.8553  151.2741 H   0  0  0  0  0  0  0  0  0  0  0  0  # atno 10718 bound_to 10713
  153.5899  135.7002  153.5427 H   0  0  0  0  0  0  0  0  0  0  0  0  # atno 10763 bound_to 10752
  153.3187  135.4080  155.1398 H   0  0  0  0  0  0  0  0  0  0  0  0  # atno 10764 bound_to 10752
  154.8602  135.3690  154.5431 H   0  0  0  0  0  0  0  0  0  0  0  0  # atno 10765 bound_to 10752
  140.1999  134.3883  155.8101 H   0  0  0  0  0  0  0  0  0  0  0  0  # atno 11005 bound_to 11000
  145.2399  141.0005  143.3941 LP  0  0  0  0  0  0  0  0  0  0  0  0  # atno 17320 bound_to 7965
  144.9460  139.4135  143.6425 LP  0  0  0  0  0  0  0  0  0  0  0  0  # atno 17321 bound_to 7965
  140.7548  143.6111  150.8605 LP  0  0  0  0  0  0  0  0  0  0  0  0  # atno 17342 bound_to 10162
  139.9761  143.6002  152.2958 LP  0  0  0  0  0  0  0  0  0  0  0  0  # atno 17343 bound_to 10162
  157.7409  130.9859  150.2409 LP  0  0  0  0  0  0  0  0  0  0  0  0  # atno 17370 bound_to 10713
  156.2991  130.3756  149.7767 LP  0  0  0  0  0  0  0  0  0  0  0  0  # atno 17371 bound_to 10713
  141.2227  133.7089  156.8240 LP  0  0  0  0  0  0  0  0  0  0  0  0  # atno 17394 bound_to 11000
  140.2066  134.8858  157.3228 LP  0  0  0  0  0  0  0  0  0  0  0  0  # atno 17395 bound_to 11000

$$$$
