AV-unprocessed.smi:50|AV-procd|sdf|492|dock4
  -GOLD-   2262016353D 1   1.00000     0.00000
 Structure written by MMmdl.
 44 45  0  0  0  0  0  0  0  0  2 V2000
  144.3891  132.5086  149.4503 C   0  0  0  0  0  0  0  0  0  0  0  0
  145.0930  133.3738  150.5142 C   0  0  0  0  0  0  0  0  0  0  0  0
  145.7053  132.4583  151.5912 C   0  0  0  0  0  0  0  0  0  0  0  0
  144.1453  134.4398  151.1296 C   0  0  1  0  0  0  0  0  0  0  0  0
  142.9436  133.8250  151.7239 N   0  3  0  0  0  0  0  0  0  0  0  0
  144.7837  135.2733  152.2523 C   0  0  0  0  0  0  0  0  0  0  0  0
  144.8706  134.9127  153.4271 O   0  0  0  0  0  0  0  0  0  0  0  0
  145.1933  136.4611  151.7750 O   0  0  0  0  0  0  0  0  0  0  0  0
  145.3253  137.5649  152.6569 C   0  0  0  0  0  0  0  0  0  0  0  0
  146.5457  138.3985  152.2568 C   0  0  0  0  0  0  0  0  0  0  0  0
  147.1155  138.9618  153.4274 O   0  0  0  0  0  0  0  0  0  0  0  0
  147.5065  140.2860  153.2665 C   0  0  0  0  0  0  0  0  0  0  0  0
  148.5179  140.5871  154.2646 N   0  0  0  0  0  0  0  0  0  0  0  0
  148.6000  141.6583  155.1215 C   0  0  0  0  0  0  0  0  0  0  0  0
  149.6470  141.6372  155.8983 N   0  0  0  0  0  0  0  0  0  0  0  0
  150.3217  140.4772  155.5299 C   0  0  0  0  0  0  0  0  0  0  0  0
  151.5478  139.9218  156.0290 C   0  0  0  0  0  0  0  0  0  0  0  0
  152.2781  140.3605  156.9151 O   0  0  0  0  0  0  0  0  0  0  0  0
  151.8922  138.7312  155.3762 N   0  0  0  0  0  0  0  0  0  0  0  0
  151.1366  138.1490  154.3612 C   0  0  0  0  0  0  0  0  0  0  0  0
  151.6076  137.0098  153.8371 N   0  0  0  0  0  0  0  0  0  0  0  0
  150.0059  138.6592  153.9053 N   0  0  0  0  0  0  0  0  0  0  0  0
  149.6377  139.8252  154.5221 C   0  0  0  0  0  0  0  0  0  0  0  0
  143.8128  135.1099  150.3358 H   0  0  0  0  0  0  0  0  0  0  0  0
  152.7455  138.2799  155.6711 H   0  0  0  0  0  0  0  0  0  0  0  0
  143.5293  131.9868  149.8718 H   0  0  0  0  0  0  0  0  0  0  0  0
  145.0667  131.7555  149.0469 H   0  0  0  0  0  0  0  0  0  0  0  0
  144.0363  133.1002  148.6059 H   0  0  0  0  0  0  0  0  0  0  0  0
  145.9213  133.8877  150.0230 H   0  0  0  0  0  0  0  0  0  0  0  0
  144.9304  131.9358  152.1534 H   0  0  0  0  0  0  0  0  0  0  0  0
  146.3157  133.0159  152.3014 H   0  0  0  0  0  0  0  0  0  0  0  0
  146.3519  131.7035  151.1420 H   0  0  0  0  0  0  0  0  0  0  0  0
  142.6741  134.3452  152.5465 H   0  0  0  0  0  0  0  0  0  0  0  0
  143.1491  132.8702  151.9817 H   0  0  0  0  0  0  0  0  0  0  0  0
  144.4242  138.1763  152.5949 H   0  0  0  0  0  0  0  0  0  0  0  0
  145.4216  137.2261  153.6897 H   0  0  0  0  0  0  0  0  0  0  0  0
  147.2729  137.7876  151.7193 H   0  0  0  0  0  0  0  0  0  0  0  0
  146.2290  139.1988  151.5865 H   0  0  0  0  0  0  0  0  0  0  0  0
  147.9315  140.4358  152.2720 H   0  0  0  0  0  0  0  0  0  0  0  0
  146.6639  140.9630  153.4154 H   0  0  0  0  0  0  0  0  0  0  0  0
  147.8656  142.4500  155.1558 H   0  0  0  0  0  0  0  0  0  0  0  0
  152.4718  136.6190  154.1842 H   0  0  0  0  0  0  0  0  0  0  0  0
  151.1023  136.5404  153.0997 H   0  0  0  0  0  0  0  0  0  0  0  0
  142.1894  133.8388  151.0522 H   0  0  0  0  0  0  0  0  0  0  0  0
  1  2  1  0  0  0  0
  1 26  1  0  0  0  0
  1 27  1  0  0  0  0
  1 28  1  0  0  0  0
  2  3  1  0  0  0  0
  2  4  1  0  0  0  0
  2 29  1  0  0  0  0
  3 30  1  0  0  0  0
  3 31  1  0  0  0  0
  3 32  1  0  0  0  0
  4 24  1  0  0  0  0
  4  5  1  0  0  0  0
  4  6  1  0  0  0  0
  5 33  1  0  0  0  0
  5 34  1  0  0  0  0
  5 44  1  0  0  0  0
  6  7  2  0  0  0  0
  6  8  1  0  0  0  0
  8  9  1  0  0  0  0
  9 10  1  0  0  0  0
  9 35  1  0  0  0  0
  9 36  1  0  0  0  0
 10 11  1  0  0  0  0
 10 37  1  0  0  0  0
 10 38  1  0  0  0  0
 11 12  1  0  0  0  0
 12 13  1  0  0  0  0
 12 39  1  0  0  0  0
 12 40  1  0  0  0  0
 13 23  1  0  0  0  0
 13 14  1  0  0  0  0
 14 15  2  0  0  0  0
 14 41  1  0  0  0  0
 15 16  1  0  0  0  0
 16 23  2  0  0  0  0
 16 17  1  0  0  0  0
 17 18  2  0  0  0  0
 17 19  1  0  0  0  0
 19 25  1  0  0  0  0
 19 20  1  0  0  0  0
 20 21  1  0  0  0  0
 20 22  2  0  0  0  0
 21 42  1  0  0  0  0
 21 43  1  0  0  0  0
 22 23  1  0  0  0  0
M  CHG  1   5   1
M  END
> <s_m_source_file>
AV-unprocessed.smi

> <i_m_source_file_index>
50

> <i_lp_mmshare_version>
43012

> <i_f3d_flags>
0

> <s_epik_input>
W0NIM11bQ0hdKFtDSDNdKVtDQEhdKFtOSDJdKUMoPU8pT1tDSDJdW0NIMl1PW0NIMl1uKFtjSF1uMSljKGMxMiluYyhbTkgyXSlbbkhdYzI9Tw==

> <s_epik_cmdline>
J2VwaWtfcHl0aG9uJywgJy1waCcsICc3LjAnLCAnLXRuJywgJzgnLCAnLW1hJywgJzIwMCcsICctbWV0YWxfYmluZGluZycsICctaW1hZScsICc8aW5maWxlLm1hZT4nLCAnLW9tYWUnLCAnPG91dGZpbGUubWFlPic=

> <r_lp_tautomer_probability>
0.99994

> <r_epik_Ionization_Penalty>
0.217551

> <r_epik_Ionization_Penalty_Charging>
0.217477

> <r_epik_Ionization_Penalty_Neutral>
7.42487e-05

> <r_epik_State_Penalty>
0.206211

> <r_epik_Charging_Adjusted_Penalty>
0.423688

> <i_epik_Tot_Q>
1

> <i_epik_Tot_abs_Q>
1

> <r_epik_Metal_State_Penalty>
0.526339

> <b_epik_Metal_Only>
0

> <s_epik_Chemistry_Notes>
This compound has an ester and may undergo hydrolysis at high or low pH. This compound contains an acetal/aminal-like group ( X-CH(R)-Y where X, Y are N, S, or O) that may be acid/base labile, releasing an aldehyde.

> <s_lp_Force_Field>
OPLS_2005

> <r_lp_Energy>
7.49642

> <b_lp_Chiralities_Consistent>
1

> <s_lp_Variant>
AV-unprocessed.smi:50-2

> <Gold.Version>
5.8.1

> <Gold.Id.Protein>
6NUR|6NUR_protein|mol2

> <Gold.PLP.Fitness>
46.1709

> <Gold.PLP.PLP>
-35.9024

> <Gold.PLP.part.hbond>
-3.0550

> <Gold.PLP.part.metal>
0.0000

> <Gold.PLP.part.buried>
-3.5491

> <Gold.PLP.part.nonpolar>
-33.0737

> <Gold.PLP.part.repulsive>
3.1658

> <Gold.PLP.ligand.clash>
0.0000

> <Gold.PLP.ligand.torsion>
1.9102

> <Gold.PLP.Chemscore.Hbond>
3.8960

> <Gold.PLP.Chemscore.CHOScore>
0.7275

> <Gold.PLP.Chemscore.Metal>
0.0000

> <Gold.Chemscore.Hbonds>
donor molecule, donor type, donor heavy atom, donor atom, acceptor molecule, acceptor atom, score
      L1  H     5    44       P1 10186  2.00
      L1  H    21    43       P1  7949  0.91
      P1  H  7997  8008       L1    18  0.76
      L1  C    14    41       P1  8028  0.68

> <Gold.PLP.Chemscore.Internal.Correction>
0.2183

> <Gold.Rescore>
     Score         DG    S(hbond)    S(metal)    S(lipo)     H(rot)  DE(clash)    DE(int)     intcor
      2.14      -5.83       2.04        0.00      51.00       4.86       0.55       3.13       ----

> <Gold.Chemscore.Fitness>
2.1407

> <Gold.Chemscore.DG>
-5.8270

> <Gold.Chemscore.ZeroCoef>
-5.4800

> <Gold.Chemscore.Hbond>
2.0401

> <Gold.Chemscore.Metal>
0.0000

> <Gold.Chemscore.Lipo>
51.0030

> <Gold.Chemscore.Internal_Hbond>
0.0000

> <Gold.Chemscore.DEClash>
0.5526

> <Gold.Chemscore.DEInternal>
3.1337

> <Gold.Chemscore.Rot>
4.8571

> <Gold.Chemscore.Internal.Correction>
   9.000000E+99

> <Gold.Chemscore.Hbonds>
donor molecule, donor type, donor heavy atom, donor atom, acceptor molecule, acceptor atom, score
      L1  H     5    44       P1 10186  0.38
      L1  H    21    43       P1  7949  0.35
      P1  H  7997  8008       L1    18  0.66

> <Gold.Chemscore.Hbond.Weighted>
-6.8140

> <Gold.Chemscore.Metal.Weighted>
-0.0000

> <Gold.Chemscore.Lipo.Weighted>
-5.9673

> <Gold.Chemscore.Internal_Hbond.Weighted>
0.0000

> <Gold.Chemscore.DEClash.Weighted>
0.5526

> <Gold.Chemscore.DEInternal.Weighted>
3.1337

> <Gold.Chemscore.Rot.Weighted>
12.4343

> <Gold.Chemscore.Internal.Correction.Weighted>
   9.000000E+99

> <Gold.Protein.RotatedTorsions>
[ 6907 6896 6895 6894 ] final  122.10 input  -60.11 | X-H torsion
[ 7974 7965 7964 7962 ] final  -44.08 input  175.53 | X-H torsion
[ 8008 7997 7996 7995 ] final  -58.03 input   59.86 | X-H torsion
[ 10167 10162 10161 10158 ] final  -28.88 input  -65.29 | X-H torsion
[ 10718 10713 10712 10709 ] final    2.48 input   66.30 | X-H torsion
[ 10763 10752 10751 10750 ] final  170.24 input  -60.55 | X-H torsion
[ 11005 11000 10999 10996 ] final -119.76 input  -57.11 | X-H torsion

> <Gold.Protein.ActiveResidues>
 VAL166  LYS551  ARG553  GLY616  TRP617  ASP618  TYR619  PRO620  LYS621  CYS622 
 ASP623  PHE694  ASN695  SER759  ASP760  ASP761  ALA762  ILE779  LEU786  VAL792 
 PHE793  MET794  SER795  GLU796  ALA797  LYS798  CYS799  TRP800  GLU811  SER814 

> <Gold.Protein.RotatedAtoms>
  152.4270  133.7211  159.6533 H   0  0  0  0  0  0  0  0  0  0  0  0  # atno 6907 bound_to 6896
  150.8146  133.8348  159.3172 H   0  0  0  0  0  0  0  0  0  0  0  0  # atno 6908 bound_to 6896
  151.6048  135.1047  160.0120 H   0  0  0  0  0  0  0  0  0  0  0  0  # atno 6909 bound_to 6896
  145.9955  140.7133  142.9296 H   0  0  0  0  0  0  0  0  0  0  0  0  # atno 7974 bound_to 7965
  154.4292  140.1093  156.5892 H   0  0  0  0  0  0  0  0  0  0  0  0  # atno 8008 bound_to 7997
  155.6030  140.3493  155.4580 H   0  0  0  0  0  0  0  0  0  0  0  0  # atno 8009 bound_to 7997
  156.0158  140.1229  157.0397 H   0  0  0  0  0  0  0  0  0  0  0  0  # atno 8010 bound_to 7997
  140.7266  143.3974  151.1324 H   0  0  0  0  0  0  0  0  0  0  0  0  # atno 10167 bound_to 10162
  156.8636  130.5595  149.5661 H   0  0  0  0  0  0  0  0  0  0  0  0  # atno 10718 bound_to 10713
  154.3947  135.2754  155.2133 H   0  0  0  0  0  0  0  0  0  0  0  0  # atno 10763 bound_to 10752
  154.4184  135.6006  153.5998 H   0  0  0  0  0  0  0  0  0  0  0  0  # atno 10764 bound_to 10752
  152.9831  135.5966  154.4207 H   0  0  0  0  0  0  0  0  0  0  0  0  # atno 10765 bound_to 10752
  141.0192  134.0149  157.3306 H   0  0  0  0  0  0  0  0  0  0  0  0  # atno 11005 bound_to 11000
  144.6902  140.3144  143.7243 LP  0  0  0  0  0  0  0  0  0  0  0  0  # atno 17320 bound_to 7965
  145.7566  139.1811  143.2291 LP  0  0  0  0  0  0  0  0  0  0  0  0  # atno 17321 bound_to 7965
  139.7588  143.8666  152.3095 LP  0  0  0  0  0  0  0  0  0  0  0  0  # atno 17342 bound_to 10162
  139.8545  144.7148  150.9174 LP  0  0  0  0  0  0  0  0  0  0  0  0  # atno 17343 bound_to 10162
  156.0764  130.5785  150.9481 LP  0  0  0  0  0  0  0  0  0  0  0  0  # atno 17370 bound_to 10713
  157.6236  131.0927  150.8576 LP  0  0  0  0  0  0  0  0  0  0  0  0  # atno 17371 bound_to 10713
  139.9135  135.0194  156.7790 LP  0  0  0  0  0  0  0  0  0  0  0  0  # atno 17394 bound_to 11000
  140.6602  133.9652  155.7801 LP  0  0  0  0  0  0  0  0  0  0  0  0  # atno 17395 bound_to 11000

$$$$
