AV-unprocessed.smi:3034|AV-procd|sdf|11579|dock7
  -GOLD-   2272016543D 1   1.00000     0.00000
 Structure written by MMmdl.
 31 31  0  0  0  0  0  0  0  0  2 V2000
  150.4323  134.7466  155.8640 C   0  0  0  0  0  0  0  0  0  0  0  0
  150.6194  136.1200  155.2108 C   0  0  0  0  0  0  0  0  0  0  0  0
  151.2051  137.1499  156.1841 C   0  0  0  0  0  0  0  0  0  0  0  0
  151.8892  138.6151  155.2859 S   0  0  0  0  0  0  0  0  0  0  0  0
  152.9872  138.1075  154.4459 O   0  0  0  0  0  0  0  0  0  0  0  0
  150.7407  139.1989  154.5764 O   0  0  0  0  0  0  0  0  0  0  0  0
  152.3805  139.5820  156.4988 N   0  5  0  0  0  0  0  0  0  0  0  0
  151.7438  140.8702  156.7523 C   0  0  0  0  0  0  0  0  0  0  0  0
  151.3829  141.0187  158.2541 C   0  0  2  0  0  0  0  0  0  0  0  0
  150.0820  140.4962  158.4480 O   0  0  0  0  0  0  0  0  0  0  0  0
  151.5158  142.4417  158.8080 C   0  0  0  0  0  0  0  0  0  0  0  0
  152.4421  142.7194  159.8401 C   0  0  0  0  0  0  0  0  0  0  0  0
  152.5490  144.0388  160.3189 C   0  0  0  0  0  0  0  0  0  0  0  0
  151.7233  145.0325  159.7604 C   0  0  0  0  0  0  0  0  0  0  0  0
  150.8199  144.6592  158.7465 C   0  0  0  0  0  0  0  0  0  0  0  0
  150.7085  143.3973  158.2807 N   0  0  0  0  0  0  0  0  0  0  0  0
  150.0144  134.0319  155.1549 H   0  0  0  0  0  0  0  0  0  0  0  0
  149.7548  134.8062  156.7165 H   0  0  0  0  0  0  0  0  0  0  0  0
  151.3830  134.3477  156.2187 H   0  0  0  0  0  0  0  0  0  0  0  0
  151.2744  136.0229  154.3443 H   0  0  0  0  0  0  0  0  0  0  0  0
  149.6592  136.4744  154.8346 H   0  0  0  0  0  0  0  0  0  0  0  0
  150.4378  137.5037  156.8719 H   0  0  0  0  0  0  0  0  0  0  0  0
  152.0039  136.6991  156.7723 H   0  0  0  0  0  0  0  0  0  0  0  0
  152.3732  141.7102  156.4554 H   0  0  0  0  0  0  0  0  0  0  0  0
  150.8347  140.9648  156.1571 H   0  0  0  0  0  0  0  0  0  0  0  0
  152.0476  140.3744  158.8316 H   0  0  0  0  0  0  0  0  0  0  0  0
  150.1386  139.7862  159.0682 H   0  0  0  0  0  0  0  0  0  0  0  0
  153.0707  141.9394  160.2438 H   0  0  0  0  0  0  0  0  0  0  0  0
  153.2546  144.2847  161.0985 H   0  0  0  0  0  0  0  0  0  0  0  0
  151.7805  146.0556  160.1009 H   0  0  0  0  0  0  0  0  0  0  0  0
  150.1688  145.3944  158.2972 H   0  0  0  0  0  0  0  0  0  0  0  0
  1  2  1  0  0  0  0
  1 17  1  0  0  0  0
  1 18  1  0  0  0  0
  1 19  1  0  0  0  0
  2  3  1  0  0  0  0
  2 20  1  0  0  0  0
  2 21  1  0  0  0  0
  3  4  1  0  0  0  0
  3 22  1  0  0  0  0
  3 23  1  0  0  0  0
  4  5  2  0  0  0  0
  4  6  2  0  0  0  0
  4  7  1  0  0  0  0
  7  8  1  0  0  0  0
  8  9  1  0  0  0  0
  8 24  1  0  0  0  0
  8 25  1  0  0  0  0
  9 10  1  0  0  0  0
  9 11  1  0  0  0  0
  9 26  1  0  0  0  0
 10 27  1  0  0  0  0
 11 16  1  0  0  0  0
 11 12  2  0  0  0  0
 12 13  1  0  0  0  0
 12 28  1  0  0  0  0
 13 14  2  0  0  0  0
 13 29  1  0  0  0  0
 14 15  1  0  0  0  0
 14 30  1  0  0  0  0
 15 16  2  0  0  0  0
 15 31  1  0  0  0  0
M  CHG  1   7  -1
M  END
> <s_m_source_file>
AV-unprocessed.smi

> <i_m_source_file_index>
3034

> <i_lp_mmshare_version>
43012

> <i_f3d_flags>
0

> <s_epik_input>
W0NIM11bQ0gyXVtDSDJdUyg9TykoPU8pW05IXVtDSDJdW0NASF0oW09IXSljMVtjSF1bY0hdW2NIXVtjSF1uMQ==

> <s_epik_cmdline>
J2VwaWtfcHl0aG9uJywgJy1waCcsICc3LjAnLCAnLXRuJywgJzgnLCAnLW1hJywgJzIwMCcsICctbWV0YWxfYmluZGluZycsICctaW1hZScsICc8aW5maWxlLm1hZT4nLCAnLW9tYWUnLCAnPG91dGZpbGUubWFlPic=

> <r_epik_Ionization_Penalty>
6.18156

> <r_epik_Ionization_Penalty_Charging>
6.17474

> <r_epik_Ionization_Penalty_Neutral>
0.0068235

> <r_epik_State_Penalty>
6.17598

> <r_epik_Charging_Adjusted_Penalty>
12.3507

> <i_epik_Tot_Q>
-1

> <i_epik_Tot_abs_Q>
1

> <r_epik_Metal_State_Penalty>
2.11803

> <b_epik_Metal_Only>
1

> <s_lp_Force_Field>
OPLS_2005

> <r_lp_Energy>
-0.388479

> <b_lp_Chiralities_Consistent>
1

> <s_lp_Variant>
AV-unprocessed.smi:3034-3

> <Gold.Version>
5.8.1

> <Gold.Id.Protein>
6NUR|6NUR_protein|mol2

> <Gold.PLP.Fitness>
42.4042

> <Gold.PLP.PLP>
-31.5033

> <Gold.PLP.part.hbond>
-2.8798

> <Gold.PLP.part.metal>
0.0000

> <Gold.PLP.part.buried>
-5.9416

> <Gold.PLP.part.nonpolar>
-22.9094

> <Gold.PLP.part.repulsive>
0.3310

> <Gold.PLP.ligand.clash>
0.0000

> <Gold.PLP.ligand.torsion>
1.0817

> <Gold.PLP.Chemscore.Hbond>
3.0000

> <Gold.PLP.Chemscore.CHOScore>
1.0033

> <Gold.PLP.Chemscore.Metal>
0.0000

> <Gold.Chemscore.Hbonds>
donor molecule, donor type, donor heavy atom, donor atom, acceptor molecule, acceptor atom, score
      P1  H  7989  7998       L1     6  0.63
      P1  H  7997  8009       L1     7  2.00
      L1  C    15    31       P1  8029  0.99

> <Gold.PLP.Chemscore.Internal.Correction>
1.0543

> <Gold.Rescore>
     Score         DG    S(hbond)    S(metal)    S(lipo)     H(rot)  DE(clash)    DE(int)     intcor
     12.47     -14.25       1.71        0.00      76.21       2.29       0.63       1.15       ----

> <Gold.Chemscore.Fitness>
12.4653

> <Gold.Chemscore.DG>
-14.2477

> <Gold.Chemscore.ZeroCoef>
-5.4800

> <Gold.Chemscore.Hbond>
1.7103

> <Gold.Chemscore.Metal>
0.0000

> <Gold.Chemscore.Lipo>
76.2096

> <Gold.Chemscore.Internal_Hbond>
0.0000

> <Gold.Chemscore.DEClash>
0.6317

> <Gold.Chemscore.DEInternal>
1.1507

> <Gold.Chemscore.Rot>
2.2895

> <Gold.Chemscore.Internal.Correction>
   9.000000E+99

> <Gold.Chemscore.Hbonds>
donor molecule, donor type, donor heavy atom, donor atom, acceptor molecule, acceptor atom, score
      P1  H  7989  7998       L1     6  0.26
      P1  H  7997  8009       L1     7  0.25

> <Gold.Chemscore.Hbond.Weighted>
-5.7124

> <Gold.Chemscore.Metal.Weighted>
-0.0000

> <Gold.Chemscore.Lipo.Weighted>
-8.9165

> <Gold.Chemscore.Internal_Hbond.Weighted>
0.0000

> <Gold.Chemscore.DEClash.Weighted>
0.6317

> <Gold.Chemscore.DEInternal.Weighted>
1.1507

> <Gold.Chemscore.Rot.Weighted>
5.8612

> <Gold.Chemscore.Internal.Correction.Weighted>
   9.000000E+99

> <Gold.Protein.RotatedTorsions>
[ 6907 6896 6895 6894 ] final   31.86 input  -60.11 | X-H torsion
[ 7974 7965 7964 7962 ] final   38.37 input  175.53 | X-H torsion
[ 8008 7997 7996 7995 ] final -165.70 input   59.86 | X-H torsion
[ 10167 10162 10161 10158 ] final  109.12 input  -65.29 | X-H torsion
[ 10718 10713 10712 10709 ] final  118.12 input   66.30 | X-H torsion
[ 10763 10752 10751 10750 ] final  -43.88 input  -60.55 | X-H torsion
[ 11005 11000 10999 10996 ] final -104.46 input  -57.11 | X-H torsion

> <Gold.Protein.ActiveResidues>
 VAL166  LYS551  ARG553  GLY616  TRP617  ASP618  TYR619  PRO620  LYS621  CYS622 
 ASP623  PHE694  ASN695  SER759  ASP760  ASP761  ALA762  ILE779  LEU786  VAL792 
 PHE793  MET794  SER795  GLU796  ALA797  LYS798  CYS799  TRP800  GLU811  SER814 

> <Gold.Protein.RotatedAtoms>
  152.0663  134.9562  160.0574 H   0  0  0  0  0  0  0  0  0  0  0  0  # atno 6907 bound_to 6896
  152.0906  133.4193  159.4550 H   0  0  0  0  0  0  0  0  0  0  0  0  # atno 6908 bound_to 6896
  150.6837  134.2796  159.4665 H   0  0  0  0  0  0  0  0  0  0  0  0  # atno 6909 bound_to 6896
  146.1067  139.5781  142.9379 H   0  0  0  0  0  0  0  0  0  0  0  0  # atno 7974 bound_to 7965
  155.8535  140.0967  157.1659 H   0  0  0  0  0  0  0  0  0  0  0  0  # atno 8008 bound_to 7997
  154.3986  140.1378  156.3936 H   0  0  0  0  0  0  0  0  0  0  0  0  # atno 8009 bound_to 7997
  155.7935  140.3455  155.5365 H   0  0  0  0  0  0  0  0  0  0  0  0  # atno 8010 bound_to 7997
  139.6791  144.7120  151.1548 H   0  0  0  0  0  0  0  0  0  0  0  0  # atno 10167 bound_to 10162
  157.6051  131.1044  150.7712 H   0  0  0  0  0  0  0  0  0  0  0  0  # atno 10718 bound_to 10713
  154.0028  135.6691  153.4760 H   0  0  0  0  0  0  0  0  0  0  0  0  # atno 10763 bound_to 10752
  153.0655  135.5003  154.8186 H   0  0  0  0  0  0  0  0  0  0  0  0  # atno 10764 bound_to 10752
  154.7042  135.3084  154.9258 H   0  0  0  0  0  0  0  0  0  0  0  0  # atno 10765 bound_to 10752
  141.1099  133.8725  157.1614 H   0  0  0  0  0  0  0  0  0  0  0  0  # atno 11005 bound_to 11000
  145.5746  141.0390  143.2155 LP  0  0  0  0  0  0  0  0  0  0  0  0  # atno 17320 bound_to 7965
  144.7477  139.7276  143.7285 LP  0  0  0  0  0  0  0  0  0  0  0  0  # atno 17321 bound_to 7965
  140.7646  143.5726  150.8979 LP  0  0  0  0  0  0  0  0  0  0  0  0  # atno 17342 bound_to 10162
  139.9397  143.6397  152.3057 LP  0  0  0  0  0  0  0  0  0  0  0  0  # atno 17343 bound_to 10162
  156.8102  130.4950  149.5357 LP  0  0  0  0  0  0  0  0  0  0  0  0  # atno 17370 bound_to 10713
  156.1135  130.6058  151.0084 LP  0  0  0  0  0  0  0  0  0  0  0  0  # atno 17371 bound_to 10713
  139.9988  135.0036  157.0142 LP  0  0  0  0  0  0  0  0  0  0  0  0  # atno 17394 bound_to 11000
  140.4803  134.1297  155.7216 LP  0  0  0  0  0  0  0  0  0  0  0  0  # atno 17395 bound_to 11000

$$$$
