AV-unprocessed.smi:191|AV-procd|sdf|1494|dock3
  -GOLD-   2262019313D 1   1.00000     0.00000
 Structure written by MMmdl.
 46 48  0  0  0  0  0  0  0  0  1 V2000
  153.3342  142.5858  162.4779 C   0  0  0  0  0  0  0  0  0  0  0  0
  153.1082  142.4602  160.9634 C   0  0  0  0  0  0  0  0  0  0  0  0
  153.4932  141.1473  160.4369 N   0  0  0  0  0  0  0  0  0  0  0  0
  154.1204  140.1943  161.3539 C   0  0  0  0  0  0  0  0  0  0  0  0
  155.6588  140.2010  161.2642 C   0  0  1  0  0  0  0  0  0  0  0  0
  156.2795  139.2694  162.3119 C   0  0  0  0  0  0  0  0  0  0  0  0
  156.1554  139.8744  159.9168 C   0  0  0  0  0  0  0  0  0  0  0  0
  156.5469  139.6148  158.8592 N   0  0  0  0  0  0  0  0  0  0  0  0
  153.0564  140.7497  159.2044 C   0  0  0  0  0  0  0  0  0  0  0  0
  153.5865  139.6168  158.6675 N   0  0  0  0  0  0  0  0  0  0  0  0
  153.2011  139.1741  157.4688 C   0  0  0  0  0  0  0  0  0  0  0  0
  152.3021  139.6993  156.6382 N   0  0  0  0  0  0  0  0  0  0  0  0
  151.7522  140.8310  157.1614 C   0  0  0  0  0  0  0  0  0  0  0  0
  152.0654  141.4227  158.4215 C   0  0  0  0  0  0  0  0  0  0  0  0
  151.2799  142.5581  158.5967 N   0  0  0  0  0  0  0  0  0  0  0  0
  150.5585  142.6349  157.5137 C   0  0  0  0  0  0  0  0  0  0  0  0
  150.7845  141.6410  156.5915 N   0  0  0  0  0  0  0  0  0  0  0  0
  150.1206  141.4762  155.3069 C   0  0  0  0  0  0  0  0  0  0  0  0
  149.3486  140.1508  155.1676 C   0  0  0  0  0  0  0  0  0  0  0  0
  148.1445  140.3802  154.2320 C   0  0  0  0  0  0  0  0  0  0  0  0
  148.5158  140.9912  153.0121 O   0  0  0  0  0  0  0  0  0  0  0  0
  150.2212  138.9234  154.8667 C   0  0  0  0  0  0  0  0  0  0  0  0
  149.6738  138.1866  155.9825 O   0  0  0  0  0  0  0  0  0  0  0  0
  149.0522  139.3958  156.4716 C   0  0  0  0  0  0  0  0  0  0  0  0
  153.0378  143.5743  162.8290 H   0  0  0  0  0  0  0  0  0  0  0  0
  154.3827  142.4458  162.7404 H   0  0  0  0  0  0  0  0  0  0  0  0
  152.7503  141.8510  163.0320 H   0  0  0  0  0  0  0  0  0  0  0  0
  152.0696  142.6825  160.7163 H   0  0  0  0  0  0  0  0  0  0  0  0
  153.6922  143.2273  160.4560 H   0  0  0  0  0  0  0  0  0  0  0  0
  153.8342  140.4720  162.3681 H   0  0  0  0  0  0  0  0  0  0  0  0
  153.7289  139.1872  161.2308 H   0  0  0  0  0  0  0  0  0  0  0  0
  156.0162  141.2100  161.4678 H   0  0  0  0  0  0  0  0  0  0  0  0
  157.3685  139.3109  162.2739 H   0  0  0  0  0  0  0  0  0  0  0  0
  155.9798  138.2341  162.1462 H   0  0  0  0  0  0  0  0  0  0  0  0
  155.9726  139.5505  163.3196 H   0  0  0  0  0  0  0  0  0  0  0  0
  153.6820  138.2691  157.1277 H   0  0  0  0  0  0  0  0  0  0  0  0
  149.8351  143.4227  157.3616 H   0  0  0  0  0  0  0  0  0  0  0  0
  149.4541  142.3250  155.1501 H   0  0  0  0  0  0  0  0  0  0  0  0
  150.8839  141.5566  154.5318 H   0  0  0  0  0  0  0  0  0  0  0  0
  147.6548  139.4388  153.9835 H   0  0  0  0  0  0  0  0  0  0  0  0
  147.3949  141.0107  154.7112 H   0  0  0  0  0  0  0  0  0  0  0  0
  148.7119  140.3132  152.3836 H   0  0  0  0  0  0  0  0  0  0  0  0
  150.0177  138.4466  153.9072 H   0  0  0  0  0  0  0  0  0  0  0  0
  151.2912  139.0996  154.9874 H   0  0  0  0  0  0  0  0  0  0  0  0
  149.5755  139.7875  157.3443 H   0  0  0  0  0  0  0  0  0  0  0  0
  147.9899  139.2669  156.6818 H   0  0  0  0  0  0  0  0  0  0  0  0
  1  2  1  0  0  0  0
  1 25  1  0  0  0  0
  1 26  1  0  0  0  0
  1 27  1  0  0  0  0
  2  3  1  0  0  0  0
  2 28  1  0  0  0  0
  2 29  1  0  0  0  0
  3  4  1  0  0  0  0
  3  9  1  0  0  0  0
  4  5  1  0  0  0  0
  4 30  1  0  0  0  0
  4 31  1  0  0  0  0
  5  6  1  0  0  0  0
  5  7  1  0  0  0  0
  5 32  1  0  0  0  0
  6 33  1  0  0  0  0
  6 34  1  0  0  0  0
  6 35  1  0  0  0  0
  7  8  3  0  0  0  0
  9 14  1  0  0  0  0
  9 10  2  0  0  0  0
 10 11  1  0  0  0  0
 11 12  2  0  0  0  0
 11 36  1  0  0  0  0
 12 13  1  0  0  0  0
 13 17  1  0  0  0  0
 13 14  2  0  0  0  0
 14 15  1  0  0  0  0
 15 16  2  0  0  0  0
 16 17  1  0  0  0  0
 16 37  1  0  0  0  0
 17 18  1  0  0  0  0
 18 19  1  0  0  0  0
 18 38  1  0  0  0  0
 18 39  1  0  0  0  0
 19 24  1  0  0  0  0
 19 20  1  0  0  0  0
 19 22  1  0  0  0  0
 20 21  1  0  0  0  0
 20 40  1  0  0  0  0
 20 41  1  0  0  0  0
 21 42  1  0  0  0  0
 22 23  1  0  0  0  0
 22 43  1  0  0  0  0
 22 44  1  0  0  0  0
 23 24  1  0  0  0  0
 24 45  1  0  0  0  0
 24 46  1  0  0  0  0
M  END
> <s_m_source_file>
AV-unprocessed.smi

> <i_m_source_file_index>
191

> <i_lp_mmshare_version>
43012

> <i_f3d_flags>
0

> <s_epik_input>
TiNDW0NAQEhdKFtDSDNdKVtDSDJdTihbQ0gyXVtDSDNdKWMobltjSF1uMSljKGMxMiluW2NIXW4yW0NIMl1DMyhbQ0gyXVtPSF0pW0NIMl1PW0NIMl0z

> <s_epik_cmdline>
J2VwaWtfcHl0aG9uJywgJy1waCcsICc3LjAnLCAnLXRuJywgJzgnLCAnLW1hJywgJzIwMCcsICctbWV0YWxfYmluZGluZycsICctaW1hZScsICc8aW5maWxlLm1hZT4nLCAnLW9tYWUnLCAnPG91dGZpbGUubWFlPic=

> <r_lp_tautomer_probability>
1

> <r_epik_Ionization_Penalty>
0.000569684

> <r_epik_Ionization_Penalty_Charging>
0

> <r_epik_Ionization_Penalty_Neutral>
0.000569684

> <r_epik_State_Penalty>
0.000286009

> <r_epik_Charging_Adjusted_Penalty>
0.000286009

> <i_epik_Tot_Q>
0

> <i_epik_Tot_abs_Q>
0

> <r_epik_Metal_State_Penalty>
-0

> <b_epik_Metal_Only>
0

> <s_lp_Force_Field>
OPLS_2005

> <r_lp_Energy>
30.7711

> <b_lp_Chiralities_Consistent>
1

> <s_lp_Variant>
AV-unprocessed.smi:191-2

> <Gold.Version>
5.8.1

> <Gold.Id.Protein>
6NUR|6NUR_protein|mol2

> <Gold.PLP.Fitness>
48.0883

> <Gold.PLP.PLP>
-38.5504

> <Gold.PLP.part.hbond>
-4.1706

> <Gold.PLP.part.metal>
0.0000

> <Gold.PLP.part.buried>
0.8685

> <Gold.PLP.part.nonpolar>
-33.5906

> <Gold.PLP.part.repulsive>
0.1059

> <Gold.PLP.ligand.clash>
0.0000

> <Gold.PLP.ligand.torsion>
1.2900

> <Gold.PLP.Chemscore.Hbond>
2.7660

> <Gold.PLP.Chemscore.CHOScore>
1.0000

> <Gold.PLP.Chemscore.Metal>
0.0000

> <Gold.Chemscore.Hbonds>
donor molecule, donor type, donor heavy atom, donor atom, acceptor molecule, acceptor atom, score
      L1  H    21    42       P1  7957  0.82
      P1  H  7997  8008       L1     8  1.00
      P1  H  8011  8017       L1    21  0.90
      L1  C    16    37       P1  8028  1.00

> <Gold.PLP.Chemscore.Internal.Correction>
0.8199

> <Gold.Rescore>
     Score         DG    S(hbond)    S(metal)    S(lipo)     H(rot)  DE(clash)    DE(int)     intcor
      9.30     -13.88       2.19        0.00      77.11       3.11       1.05       3.52       ----

> <Gold.Chemscore.Fitness>
9.3047

> <Gold.Chemscore.DG>
-13.8781

> <Gold.Chemscore.ZeroCoef>
-5.4800

> <Gold.Chemscore.Hbond>
2.1945

> <Gold.Chemscore.Metal>
0.0000

> <Gold.Chemscore.Lipo>
77.1092

> <Gold.Chemscore.Internal_Hbond>
0.0000

> <Gold.Chemscore.DEClash>
1.0544

> <Gold.Chemscore.DEInternal>
3.5190

> <Gold.Chemscore.Rot>
3.1067

> <Gold.Chemscore.Internal.Correction>
   9.000000E+99

> <Gold.Chemscore.Hbonds>
donor molecule, donor type, donor heavy atom, donor atom, acceptor molecule, acceptor atom, score
      L1  H    21    42       P1  7957  0.76
      P1  H  7997  8008       L1     8  1.00
      P1  H  8011  8017       L1    21  0.16

> <Gold.Chemscore.Hbond.Weighted>
-7.3295

> <Gold.Chemscore.Metal.Weighted>
-0.0000

> <Gold.Chemscore.Lipo.Weighted>
-9.0218

> <Gold.Chemscore.Internal_Hbond.Weighted>
0.0000

> <Gold.Chemscore.DEClash.Weighted>
1.0544

> <Gold.Chemscore.DEInternal.Weighted>
3.5190

> <Gold.Chemscore.Rot.Weighted>
7.9532

> <Gold.Chemscore.Internal.Correction.Weighted>
   9.000000E+99

> <Gold.Protein.RotatedTorsions>
[ 6907 6896 6895 6894 ] final  -89.81 input  -60.11 | X-H torsion
[ 7974 7965 7964 7962 ] final -110.84 input  175.53 | X-H torsion
[ 8008 7997 7996 7995 ] final -166.33 input   59.86 | X-H torsion
[ 10167 10162 10161 10158 ] final  -14.60 input  -65.29 | X-H torsion
[ 10718 10713 10712 10709 ] final  -53.13 input   66.30 | X-H torsion
[ 10763 10752 10751 10750 ] final   29.42 input  -60.55 | X-H torsion
[ 11005 11000 10999 10996 ] final  120.87 input  -57.11 | X-H torsion

> <Gold.Protein.ActiveResidues>
 VAL166  LYS551  ARG553  GLY616  TRP617  ASP618  TYR619  PRO620  LYS621  CYS622 
 ASP623  PHE694  ASN695  SER759  ASP760  ASP761  ALA762  ILE779  LEU786  VAL792 
 PHE793  MET794  SER795  GLU796  ALA797  LYS798  CYS799  TRP800  GLU811  SER814 

> <Gold.Protein.RotatedAtoms>
  150.6876  134.2529  159.4517 H   0  0  0  0  0  0  0  0  0  0  0  0  # atno 6907 bound_to 6896
  152.0465  134.9677  160.0583 H   0  0  0  0  0  0  0  0  0  0  0  0  # atno 6908 bound_to 6896
  152.1159  133.4291  159.4689 H   0  0  0  0  0  0  0  0  0  0  0  0  # atno 6909 bound_to 6896
  145.1633  140.8889  143.3578 H   0  0  0  0  0  0  0  0  0  0  0  0  # atno 7974 bound_to 7965
  155.8622  140.0980  157.1605 H   0  0  0  0  0  0  0  0  0  0  0  0  # atno 8008 bound_to 7997
  154.3991  140.1363  156.4038 H   0  0  0  0  0  0  0  0  0  0  0  0  # atno 8009 bound_to 7997
  155.7843  140.3457  155.5317 H   0  0  0  0  0  0  0  0  0  0  0  0  # atno 8010 bound_to 7997
  140.7204  143.5305  150.9526 H   0  0  0  0  0  0  0  0  0  0  0  0  # atno 10167 bound_to 10162
  156.1562  130.4150  149.9866 H   0  0  0  0  0  0  0  0  0  0  0  0  # atno 10718 bound_to 10713
  153.0431  135.6489  154.0889 H   0  0  0  0  0  0  0  0  0  0  0  0  # atno 10763 bound_to 10752
  154.0591  135.2889  155.3329 H   0  0  0  0  0  0  0  0  0  0  0  0  # atno 10764 bound_to 10752
  154.6669  135.5370  153.8154 H   0  0  0  0  0  0  0  0  0  0  0  0  # atno 10765 bound_to 10752
  139.9203  134.9636  156.7873 H   0  0  0  0  0  0  0  0  0  0  0  0  # atno 11005 bound_to 11000
  145.0308  139.3342  143.6025 LP  0  0  0  0  0  0  0  0  0  0  0  0  # atno 17320 bound_to 7965
  146.3479  139.9645  142.8713 LP  0  0  0  0  0  0  0  0  0  0  0  0  # atno 17321 bound_to 7965
  139.9025  143.6819  152.3129 LP  0  0  0  0  0  0  0  0  0  0  0  0  # atno 17342 bound_to 10162
  139.7173  144.7609  151.1013 LP  0  0  0  0  0  0  0  0  0  0  0  0  # atno 17343 bound_to 10162
  156.7709  130.9186  151.3644 LP  0  0  0  0  0  0  0  0  0  0  0  0  # atno 17370 bound_to 10713
  157.6696  130.9039  150.0011 LP  0  0  0  0  0  0  0  0  0  0  0  0  # atno 17371 bound_to 10713
  140.6496  133.9744  155.7748 LP  0  0  0  0  0  0  0  0  0  0  0  0  # atno 17394 bound_to 11000
  141.0717  134.0196  157.3516 LP  0  0  0  0  0  0  0  0  0  0  0  0  # atno 17395 bound_to 11000

$$$$
