AV-unprocessed.smi:72|AV-procd|sdf|704|dock1
  -GOLD-   2262017 23D 1   1.00000     0.00000
 Structure written by MMmdl.
 30 31  0  0  0  0  0  0  0  0  2 V2000
  145.9076  143.4729  154.6539 N   0  0  0  0  0  0  0  0  0  0  0  0
  146.6304  142.3153  154.4542 C   0  0  0  0  0  0  0  0  0  0  0  0
  148.0056  142.3867  154.5790 N   0  3  0  0  0  0  0  0  0  0  0  0
  148.8481  141.3549  154.4350 C   0  0  0  0  0  0  0  0  0  0  0  0
  148.3580  140.1555  154.1835 N   0  0  0  0  0  0  0  0  0  0  0  0
  149.2514  138.9471  154.0063 C   0  0  1  0  0  0  0  0  0  0  0  0
  150.5765  139.3497  154.1411 O   0  0  0  0  0  0  0  0  0  0  0  0
  150.9496  139.2640  155.5102 C   0  0  2  0  0  0  0  0  0  0  0  0
  152.4796  139.2778  155.6394 C   0  0  0  0  0  0  0  0  0  0  0  0
  152.8419  139.5916  156.9671 O   0  0  0  0  0  0  0  0  0  0  0  0
  150.3029  137.9426  155.9325 C   0  0  1  0  0  0  0  0  0  0  0  0
  150.0114  137.9668  157.3151 O   0  0  0  0  0  0  0  0  0  0  0  0
  149.0125  137.8955  155.1133 C   0  0  2  0  0  0  0  0  0  0  0  0
  148.8199  136.6058  154.5696 O   0  0  0  0  0  0  0  0  0  0  0  0
  146.9629  140.0001  153.9689 C   0  0  0  0  0  0  0  0  0  0  0  0
  146.5009  138.9065  153.6464 O   0  0  0  0  0  0  0  0  0  0  0  0
  146.1626  141.1381  154.1448 N   0  0  0  0  0  0  0  0  0  0  0  0
  149.0527  138.5994  152.9907 H   0  0  0  0  0  0  0  0  0  0  0  0
  150.5032  140.0871  156.0725 H   0  0  0  0  0  0  0  0  0  0  0  0
  150.9579  137.1031  155.6918 H   0  0  0  0  0  0  0  0  0  0  0  0
  148.1446  138.1658  155.7168 H   0  0  0  0  0  0  0  0  0  0  0  0
  144.9012  143.5165  154.5748 H   0  0  0  0  0  0  0  0  0  0  0  0
  146.3210  144.3633  154.8916 H   0  0  0  0  0  0  0  0  0  0  0  0
  149.9109  141.5410  154.5161 H   0  0  0  0  0  0  0  0  0  0  0  0
  152.8845  138.2909  155.4127 H   0  0  0  0  0  0  0  0  0  0  0  0
  152.9330  139.9833  154.9424 H   0  0  0  0  0  0  0  0  0  0  0  0
  152.1857  139.2387  157.5490 H   0  0  0  0  0  0  0  0  0  0  0  0
  150.2400  138.8191  157.6547 H   0  0  0  0  0  0  0  0  0  0  0  0
  148.7746  136.6768  153.6282 H   0  0  0  0  0  0  0  0  0  0  0  0
  148.4040  143.2905  154.7903 H   0  0  0  0  0  0  0  0  0  0  0  0
  1  2  1  0  0  0  0
  1 22  1  0  0  0  0
  1 23  1  0  0  0  0
  2 17  2  0  0  0  0
  2  3  1  0  0  0  0
  3  4  2  0  0  0  0
  3 30  1  0  0  0  0
  4  5  1  0  0  0  0
  4 24  1  0  0  0  0
  5  6  1  0  0  0  0
  5 15  1  0  0  0  0
  6 18  1  0  0  0  0
  6 13  1  0  0  0  0
  6  7  1  0  0  0  0
  7  8  1  0  0  0  0
  8 19  1  0  0  0  0
  8  9  1  0  0  0  0
  8 11  1  0  0  0  0
  9 10  1  0  0  0  0
  9 25  1  0  0  0  0
  9 26  1  0  0  0  0
 10 27  1  0  0  0  0
 11 20  1  0  0  0  0
 11 12  1  0  0  0  0
 11 13  1  0  0  0  0
 12 28  1  0  0  0  0
 13 21  1  0  0  0  0
 13 14  1  0  0  0  0
 14 29  1  0  0  0  0
 15 16  2  0  0  0  0
 15 17  1  0  0  0  0
M  CHG  1   3   1
M  END
> <s_m_source_file>
AV-unprocessed.smi

> <i_m_source_file_index>
72

> <i_lp_mmshare_version>
43012

> <i_f3d_flags>
0

> <s_epik_input>
W05IMl1jMW5bY0hdbihjKD1PKW4xKVtDQEBIXTJPW0NASF0oW0NIMl1bT0hdKVtDQEBIXShbT0hdKVtDQEhdMltPSF0=

> <s_epik_cmdline>
J2VwaWtfcHl0aG9uJywgJy1waCcsICc3LjAnLCAnLXRuJywgJzgnLCAnLW1hJywgJzIwMCcsICctbWV0YWxfYmluZGluZycsICctaW1hZScsICc8aW5maWxlLm1hZT4nLCAnLW9tYWUnLCAnPG91dGZpbGUubWFlPic=

> <r_lp_tautomer_probability>
4.77166e-05

> <r_epik_Ionization_Penalty>
0.104979

> <r_epik_Ionization_Penalty_Charging>
0.0999619

> <r_epik_Ionization_Penalty_Neutral>
0.00501745

> <r_epik_State_Penalty>
2.51541

> <r_epik_Charging_Adjusted_Penalty>
2.61537

> <i_epik_Tot_Q>
1

> <i_epik_Tot_abs_Q>
1

> <r_epik_Metal_State_Penalty>
3.53763

> <b_epik_Metal_Only>
0

> <s_epik_Chemistry_Notes>
This compound contains an acetal/aminal-like group ( X-CH(R)-Y where X, Y are N, S, or O) that may be acid/base labile, releasing an aldehyde.

> <s_lp_Force_Field>
OPLS_2005

> <r_lp_Energy>
25.3677

> <b_lp_Chiralities_Consistent>
1

> <s_lp_Variant>
AV-unprocessed.smi:72-42

> <Gold.Version>
5.8.1

> <Gold.Id.Protein>
6NUR|6NUR_protein|mol2

> <Gold.PLP.Fitness>
35.6901

> <Gold.PLP.PLP>
-21.1654

> <Gold.PLP.part.hbond>
-4.1307

> <Gold.PLP.part.metal>
0.0000

> <Gold.PLP.part.buried>
-1.2989

> <Gold.PLP.part.nonpolar>
-16.9865

> <Gold.PLP.part.repulsive>
1.0196

> <Gold.PLP.ligand.clash>
0.0000

> <Gold.PLP.ligand.torsion>
0.2613

> <Gold.PLP.Chemscore.Hbond>
5.0000

> <Gold.PLP.Chemscore.CHOScore>
0.0000

> <Gold.PLP.Chemscore.Metal>
0.0000

> <Gold.Chemscore.Hbonds>
donor molecule, donor type, donor heavy atom, donor atom, acceptor molecule, acceptor atom, score
      L1  H     3    30       P1  8028  2.00
      L1  H    14    29       P1  7948  1.00
      P1  H  7989  7998       L1     7  1.00
      P1  H  7997  8009       L1    10  0.60

> <Gold.PLP.Chemscore.Internal.Correction>
0.0472

> <Gold.Rescore>
     Score         DG    S(hbond)    S(metal)    S(lipo)     H(rot)  DE(clash)    DE(int)     intcor
      6.71      -7.06       2.89        0.00      20.34       4.08       0.10       0.24       ----

> <Gold.Chemscore.Fitness>
6.7137

> <Gold.Chemscore.DG>
-7.0552

> <Gold.Chemscore.ZeroCoef>
-5.4800

> <Gold.Chemscore.Hbond>
2.8850

> <Gold.Chemscore.Metal>
0.0000

> <Gold.Chemscore.Lipo>
20.3381

> <Gold.Chemscore.Internal_Hbond>
0.0000

> <Gold.Chemscore.DEClash>
0.0998

> <Gold.Chemscore.DEInternal>
0.2416

> <Gold.Chemscore.Rot>
4.0783

> <Gold.Chemscore.Internal.Correction>
   9.000000E+99

> <Gold.Chemscore.Hbonds>
donor molecule, donor type, donor heavy atom, donor atom, acceptor molecule, acceptor atom, score
      L1  H     3    30       P1  8028  1.00
      L1  H    14    29       P1  7948  0.99
      P1  H  7989  7998       L1     7  0.44
      P1  H  7997  8009       L1    10  0.04

> <Gold.Chemscore.Hbond.Weighted>
-9.6360

> <Gold.Chemscore.Metal.Weighted>
-0.0000

> <Gold.Chemscore.Lipo.Weighted>
-2.3796

> <Gold.Chemscore.Internal_Hbond.Weighted>
0.0000

> <Gold.Chemscore.DEClash.Weighted>
0.0998

> <Gold.Chemscore.DEInternal.Weighted>
0.2416

> <Gold.Chemscore.Rot.Weighted>
10.4404

> <Gold.Chemscore.Internal.Correction.Weighted>
   9.000000E+99

> <Gold.Protein.RotatedTorsions>
[ 6907 6896 6895 6894 ] final -165.74 input  -60.11 | X-H torsion
[ 7974 7965 7964 7962 ] final -159.72 input  175.53 | X-H torsion
[ 8008 7997 7996 7995 ] final -170.88 input   59.86 | X-H torsion
[ 10167 10162 10161 10158 ] final   21.47 input  -65.29 | X-H torsion
[ 10718 10713 10712 10709 ] final   76.90 input   66.30 | X-H torsion
[ 10763 10752 10751 10750 ] final  -83.78 input  -60.55 | X-H torsion
[ 11005 11000 10999 10996 ] final -165.30 input  -57.11 | X-H torsion

> <Gold.Protein.ActiveResidues>
 VAL166  LYS551  ARG553  GLY616  TRP617  ASP618  TYR619  PRO620  LYS621  CYS622 
 ASP623  PHE694  ASN695  SER759  ASP760  ASP761  ALA762  ILE779  LEU786  VAL792 
 PHE793  MET794  SER795  GLU796  ALA797  LYS798  CYS799  TRP800  GLU811  SER814 

> <Gold.Protein.RotatedAtoms>
  151.4325  133.3666  159.2770 H   0  0  0  0  0  0  0  0  0  0  0  0  # atno 6907 bound_to 6896
  150.9215  134.8634  159.7502 H   0  0  0  0  0  0  0  0  0  0  0  0  # atno 6908 bound_to 6896
  152.4984  134.4263  159.9549 H   0  0  0  0  0  0  0  0  0  0  0  0  # atno 6909 bound_to 6896
  144.7454  140.3644  143.6089 H   0  0  0  0  0  0  0  0  0  0  0  0  # atno 7974 bound_to 7965
  155.9243  140.1079  157.1183 H   0  0  0  0  0  0  0  0  0  0  0  0  # atno 8008 bound_to 7997
  154.4059  140.1250  156.4785 H   0  0  0  0  0  0  0  0  0  0  0  0  # atno 8009 bound_to 7997
  155.7158  140.3470  155.4996 H   0  0  0  0  0  0  0  0  0  0  0  0  # atno 8010 bound_to 7997
  140.5424  143.9654  150.6527 H   0  0  0  0  0  0  0  0  0  0  0  0  # atno 10167 bound_to 10162
  157.6691  130.9796  150.1563 H   0  0  0  0  0  0  0  0  0  0  0  0  # atno 10718 bound_to 10713
  154.5918  135.5544  153.7286 H   0  0  0  0  0  0  0  0  0  0  0  0  # atno 10763 bound_to 10752
  153.0120  135.6345  154.1838 H   0  0  0  0  0  0  0  0  0  0  0  0  # atno 10764 bound_to 10752
  154.1779  135.2888  155.3041 H   0  0  0  0  0  0  0  0  0  0  0  0  # atno 10765 bound_to 10752
  140.5772  134.5178  157.5172 H   0  0  0  0  0  0  0  0  0  0  0  0  # atno 11005 bound_to 11000
  145.7143  139.1693  143.2521 LP  0  0  0  0  0  0  0  0  0  0  0  0  # atno 17320 bound_to 7965
  146.1324  140.7168  142.9406 LP  0  0  0  0  0  0  0  0  0  0  0  0  # atno 17321 bound_to 7965
  140.3058  143.3230  152.0927 LP  0  0  0  0  0  0  0  0  0  0  0  0  # atno 17342 bound_to 10162
  139.4994  144.6668  151.6338 LP  0  0  0  0  0  0  0  0  0  0  0  0  # atno 17343 bound_to 10162
  156.2350  130.3685  149.8401 LP  0  0  0  0  0  0  0  0  0  0  0  0  # atno 17370 bound_to 10713
  156.6217  130.8629  151.3477 LP  0  0  0  0  0  0  0  0  0  0  0  0  # atno 17371 bound_to 10713
  139.9334  134.7921  156.0869 LP  0  0  0  0  0  0  0  0  0  0  0  0  # atno 17394 bound_to 11000
  141.1019  133.6674  156.2774 LP  0  0  0  0  0  0  0  0  0  0  0  0  # atno 17395 bound_to 11000

$$$$
