AV-unprocessed.smi:923|AV-procd|sdf|4177|dock3
  -GOLD-   22720 2 83D 1   1.00000     0.00000
 Structure written by MMmdl.
 35 36  0  0  0  0  0  0  0  0  1 V2000
  149.9297  134.1459  154.9673 C   0  0  0  0  0  0  0  0  0  0  0  0
  150.4162  135.3796  155.6479 C   0  0  0  0  0  0  0  0  0  0  0  0
  151.7072  135.5920  155.9307 N   0  0  0  0  0  0  0  0  0  0  0  0
  151.9134  136.8088  156.5655 N   0  0  0  0  0  0  0  0  0  0  0  0
  150.7674  137.4803  156.7434 C   0  0  0  0  0  0  0  0  0  0  0  0
  150.6868  138.7529  157.3683 N   0  0  0  0  0  0  0  0  0  0  0  0
  151.6632  139.6620  157.5368 C   0  0  0  0  0  0  0  0  0  0  0  0
  152.8285  139.5337  157.1603 O   0  0  0  0  0  0  0  0  0  0  0  0
  151.2075  140.7483  158.1787 N   0  0  0  0  0  0  0  0  0  0  0  0
  151.9992  141.9289  158.5186 C   0  0  0  0  0  0  0  0  0  0  0  0
  152.2009  141.9839  160.0472 C   0  0  0  0  0  0  0  0  0  0  0  0
  152.9859  143.2027  160.5625 C   0  0  0  0  0  0  0  0  0  0  0  0
  152.1595  144.4986  160.5353 C   0  0  0  0  0  0  0  0  0  0  0  0
  152.1836  145.2692  159.2039 C   0  0  0  0  0  0  0  0  0  0  0  0
  152.2076  144.4224  157.9193 C   0  0  0  0  0  0  0  0  0  0  0  0
  151.3074  143.1752  157.9278 C   0  0  0  0  0  0  0  0  0  0  0  0
  149.3295  136.6713  156.1435 S   0  0  0  0  0  0  0  0  0  0  0  0
  150.7650  133.4973  154.7013 H   0  0  0  0  0  0  0  0  0  0  0  0
  149.3899  134.4104  154.0579 H   0  0  0  0  0  0  0  0  0  0  0  0
  149.2580  133.5972  155.6274 H   0  0  0  0  0  0  0  0  0  0  0  0
  149.7776  138.9996  157.7303 H   0  0  0  0  0  0  0  0  0  0  0  0
  150.2357  140.7641  158.4510 H   0  0  0  0  0  0  0  0  0  0  0  0
  152.9767  141.8321  158.0421 H   0  0  0  0  0  0  0  0  0  0  0  0
  151.2348  141.9343  160.5518 H   0  0  0  0  0  0  0  0  0  0  0  0
  152.7374  141.0857  160.3565 H   0  0  0  0  0  0  0  0  0  0  0  0
  153.2581  143.0025  161.5994 H   0  0  0  0  0  0  0  0  0  0  0  0
  153.9280  143.3224  160.0262 H   0  0  0  0  0  0  0  0  0  0  0  0
  151.1277  144.2749  160.8087 H   0  0  0  0  0  0  0  0  0  0  0  0
  152.5226  145.1678  161.3162 H   0  0  0  0  0  0  0  0  0  0  0  0
  151.3183  145.9324  159.1796 H   0  0  0  0  0  0  0  0  0  0  0  0
  153.0538  145.9265  159.1891 H   0  0  0  0  0  0  0  0  0  0  0  0
  151.9086  145.0668  157.0917 H   0  0  0  0  0  0  0  0  0  0  0  0
  153.2334  144.1290  157.6929 H   0  0  0  0  0  0  0  0  0  0  0  0
  151.0464  142.9571  156.8910 H   0  0  0  0  0  0  0  0  0  0  0  0
  150.3636  143.3805  158.4346 H   0  0  0  0  0  0  0  0  0  0  0  0
  1  2  1  0  0  0  0
  1 18  1  0  0  0  0
  1 19  1  0  0  0  0
  1 20  1  0  0  0  0
  2 17  1  0  0  0  0
  2  3  2  0  0  0  0
  3  4  1  0  0  0  0
  4  5  2  0  0  0  0
  5  6  1  0  0  0  0
  5 17  1  0  0  0  0
  6  7  1  0  0  0  0
  6 21  1  0  0  0  0
  7  8  2  0  0  0  0
  7  9  1  0  0  0  0
  9 10  1  0  0  0  0
  9 22  1  0  0  0  0
 10 16  1  0  0  0  0
 10 11  1  0  0  0  0
 10 23  1  0  0  0  0
 11 12  1  0  0  0  0
 11 24  1  0  0  0  0
 11 25  1  0  0  0  0
 12 13  1  0  0  0  0
 12 26  1  0  0  0  0
 12 27  1  0  0  0  0
 13 14  1  0  0  0  0
 13 28  1  0  0  0  0
 13 29  1  0  0  0  0
 14 15  1  0  0  0  0
 14 30  1  0  0  0  0
 14 31  1  0  0  0  0
 15 16  1  0  0  0  0
 15 32  1  0  0  0  0
 15 33  1  0  0  0  0
 16 34  1  0  0  0  0
 16 35  1  0  0  0  0
M  END
> <s_m_source_file>
AV-unprocessed.smi

> <i_m_source_file_index>
923

> <i_lp_mmshare_version>
43012

> <i_f3d_flags>
0

> <s_epik_input>
W0NIM11jMW5uYyhzMSlbTkhdQyg9TylbTkhdW0NIXTJbQ0gyXVtDSDJdW0NIMl1bQ0gyXVtDSDJdW0NIMl0y

> <s_epik_cmdline>
J2VwaWtfcHl0aG9uJywgJy1waCcsICc3LjAnLCAnLXRuJywgJzgnLCAnLW1hJywgJzIwMCcsICctbWV0YWxfYmluZGluZycsICctaW1hZScsICc8aW5maWxlLm1hZT4nLCAnLW9tYWUnLCAnPG91dGZpbGUubWFlPic=

> <r_lp_tautomer_probability>
1

> <r_epik_Ionization_Penalty>
0.000365925

> <r_epik_Ionization_Penalty_Charging>
0

> <r_epik_Ionization_Penalty_Neutral>
0.000365925

> <r_epik_State_Penalty>
-0

> <r_epik_Charging_Adjusted_Penalty>
0

> <i_epik_Tot_Q>
0

> <i_epik_Tot_abs_Q>
0

> <r_epik_Metal_State_Penalty>
0.183951

> <b_epik_Metal_Only>
0

> <s_lp_Force_Field>
OPLS_2005

> <r_lp_Energy>
13.7889

> <b_lp_Chiralities_Consistent>
1

> <s_lp_Variant>
AV-unprocessed.smi:923-1

> <Gold.Version>
5.8.1

> <Gold.Id.Protein>
6NUR|6NUR_protein|mol2

> <Gold.PLP.Fitness>
38.7756

> <Gold.PLP.PLP>
-33.0609

> <Gold.PLP.part.hbond>
-2.0659

> <Gold.PLP.part.metal>
0.0000

> <Gold.PLP.part.buried>
-4.6388

> <Gold.PLP.part.nonpolar>
-25.9729

> <Gold.PLP.part.repulsive>
0.1479

> <Gold.PLP.ligand.clash>
0.0000

> <Gold.PLP.ligand.torsion>
0.1495

> <Gold.PLP.Chemscore.Hbond>
2.0000

> <Gold.PLP.Chemscore.CHOScore>
0.0000

> <Gold.PLP.Chemscore.Metal>
0.0000

> <Gold.Chemscore.Hbonds>
donor molecule, donor type, donor heavy atom, donor atom, acceptor molecule, acceptor atom, score
      P1  H  7997  8010       L1     8  1.00
      P1  H 10752 10765       L1     3  0.95

> <Gold.PLP.Chemscore.Internal.Correction>
0.0137

> <Gold.Rescore>
     Score         DG    S(hbond)    S(metal)    S(lipo)     H(rot)  DE(clash)    DE(int)     intcor
     19.08     -20.50       1.92        0.00      95.37       1.00       0.06       1.36       ----

> <Gold.Chemscore.Fitness>
19.0848

> <Gold.Chemscore.DG>
-20.4966

> <Gold.Chemscore.ZeroCoef>
-5.4800

> <Gold.Chemscore.Hbond>
1.9218

> <Gold.Chemscore.Metal>
0.0000

> <Gold.Chemscore.Lipo>
95.3658

> <Gold.Chemscore.Internal_Hbond>
0.0000

> <Gold.Chemscore.DEClash>
0.0561

> <Gold.Chemscore.DEInternal>
1.3556

> <Gold.Chemscore.Rot>
1.0000

> <Gold.Chemscore.Internal.Correction>
   9.000000E+99

> <Gold.Chemscore.Hbonds>
donor molecule, donor type, donor heavy atom, donor atom, acceptor molecule, acceptor atom, score
      P1  H  7997  8010       L1     8  1.00
      P1  H 10752 10765       L1     3  0.21

> <Gold.Chemscore.Hbond.Weighted>
-6.4188

> <Gold.Chemscore.Metal.Weighted>
-0.0000

> <Gold.Chemscore.Lipo.Weighted>
-11.1578

> <Gold.Chemscore.Internal_Hbond.Weighted>
0.0000

> <Gold.Chemscore.DEClash.Weighted>
0.0561

> <Gold.Chemscore.DEInternal.Weighted>
1.3556

> <Gold.Chemscore.Rot.Weighted>
2.5600

> <Gold.Chemscore.Internal.Correction.Weighted>
   9.000000E+99

> <Gold.Protein.RotatedTorsions>
[ 6907 6896 6895 6894 ] final -135.08 input  -60.11 | X-H torsion
[ 7974 7965 7964 7962 ] final  161.91 input  175.53 | X-H torsion
[ 8008 7997 7996 7995 ] final   46.25 input   59.86 | X-H torsion
[ 10167 10162 10161 10158 ] final   87.86 input  -65.29 | X-H torsion
[ 10718 10713 10712 10709 ] final  171.61 input   66.30 | X-H torsion
[ 10763 10752 10751 10750 ] final -142.52 input  -60.55 | X-H torsion
[ 11005 11000 10999 10996 ] final  -61.34 input  -57.11 | X-H torsion

> <Gold.Protein.ActiveResidues>
 VAL166  LYS551  ARG553  GLY616  TRP617  ASP618  TYR619  PRO620  LYS621  CYS622 
 ASP623  PHE694  ASN695  SER759  ASP760  ASP761  ALA762  ILE779  LEU786  VAL792 
 PHE793  MET794  SER795  GLU796  ALA797  LYS798  CYS799  TRP800  GLU811  SER814 

> <Gold.Protein.RotatedAtoms>
  150.9936  133.6125  159.2704 H   0  0  0  0  0  0  0  0  0  0  0  0  # atno 6907 bound_to 6896
  151.3337  135.0846  159.9357 H   0  0  0  0  0  0  0  0  0  0  0  0  # atno 6908 bound_to 6896
  152.5253  133.9561  159.7749 H   0  0  0  0  0  0  0  0  0  0  0  0  # atno 6909 bound_to 6896
  144.7662  139.7965  143.6314 H   0  0  0  0  0  0  0  0  0  0  0  0  # atno 7974 bound_to 7965
  155.3494  140.3412  155.4239 H   0  0  0  0  0  0  0  0  0  0  0  0  # atno 8008 bound_to 7997
  156.1772  140.1651  156.8377 H   0  0  0  0  0  0  0  0  0  0  0  0  # atno 8009 bound_to 7997
  154.5294  140.0748  156.8301 H   0  0  0  0  0  0  0  0  0  0  0  0  # atno 8010 bound_to 7997
  139.8731  144.6482  150.8927 H   0  0  0  0  0  0  0  0  0  0  0  0  # atno 10167 bound_to 10162
  156.9910  131.0147  151.2857 H   0  0  0  0  0  0  0  0  0  0  0  0  # atno 10718 bound_to 10713
  154.8506  135.3493  154.6041 H   0  0  0  0  0  0  0  0  0  0  0  0  # atno 10763 bound_to 10752
  153.6649  135.6988  153.5170 H   0  0  0  0  0  0  0  0  0  0  0  0  # atno 10764 bound_to 10752
  153.2788  135.4270  155.1016 H   0  0  0  0  0  0  0  0  0  0  0  0  # atno 10765 bound_to 10752
  141.1320  133.6629  156.5360 H   0  0  0  0  0  0  0  0  0  0  0  0  # atno 11005 bound_to 11000
  146.1771  139.4947  142.9890 LP  0  0  0  0  0  0  0  0  0  0  0  0  # atno 17320 bound_to 7965
  145.6463  141.0273  143.1784 LP  0  0  0  0  0  0  0  0  0  0  0  0  # atno 17321 bound_to 7965
  140.7757  143.3647  151.1761 LP  0  0  0  0  0  0  0  0  0  0  0  0  # atno 17342 bound_to 10162
  139.7265  143.9139  152.3004 LP  0  0  0  0  0  0  0  0  0  0  0  0  # atno 17343 bound_to 10162
  157.5459  130.8150  149.8085 LP  0  0  0  0  0  0  0  0  0  0  0  0  # atno 17370 bound_to 10713
  156.0207  130.3796  150.1970 LP  0  0  0  0  0  0  0  0  0  0  0  0  # atno 17371 bound_to 10713
  140.4178  134.7215  157.4872 LP  0  0  0  0  0  0  0  0  0  0  0  0  # atno 17394 bound_to 11000
  140.0381  134.6307  155.9016 LP  0  0  0  0  0  0  0  0  0  0  0  0  # atno 17395 bound_to 11000

$$$$
