AV-unprocessed.smi:3148|AV-procd|sdf|11998|dock2
  -GOLD-   2272017403D 1   1.00000     0.00000
 Structure written by MMmdl.
 35 37  0  0  0  0  0  0  0  0  2 V2000
  151.3505  137.5529  154.3591 C   0  0  0  0  0  0  0  0  0  0  0  0
  151.6930  138.6495  155.1998 O   0  0  0  0  0  0  0  0  0  0  0  0
  150.8799  139.7641  155.1844 C   0  0  0  0  0  0  0  0  0  0  0  0
  149.7737  139.8032  154.3199 C   0  0  0  0  0  0  0  0  0  0  0  0
  148.9815  140.9672  154.3462 C   0  0  0  0  0  0  0  0  0  0  0  0
  147.7670  141.1342  153.4581 C   0  0  0  0  0  0  0  0  0  0  0  0
  149.2989  141.9872  155.1820 N   0  3  0  0  0  0  0  0  0  0  0  0
  150.3704  141.8882  155.9826 C   0  0  0  0  0  0  0  0  0  0  0  0
  150.6541  142.9606  156.8087 N   0  0  0  0  0  0  0  0  0  0  0  0
  151.7805  143.0038  157.7326 C   0  0  1  0  0  0  0  0  0  0  0  0
  151.8798  144.3320  158.4940 C   0  0  0  0  0  0  0  0  0  0  0  0
  151.8481  143.8623  159.9536 C   0  0  2  0  0  0  0  0  0  0  0  0
  153.1269  143.1122  160.3504 C   0  0  0  0  0  0  0  0  0  0  0  0
  152.9492  141.7825  159.6182 C   0  0  0  0  0  0  0  0  0  0  0  0
  151.6181  141.9998  158.8855 C   0  0  1  0  0  0  0  0  0  0  0  0
  150.9335  142.7858  159.8476 O   0  0  0  0  0  0  0  0  0  0  0  0
  151.1608  140.8057  156.0016 N   0  0  0  0  0  0  0  0  0  0  0  0
  152.0806  136.7546  154.4919 H   0  0  0  0  0  0  0  0  0  0  0  0
  151.3606  137.8383  153.3061 H   0  0  0  0  0  0  0  0  0  0  0  0
  150.3688  137.1480  154.6104 H   0  0  0  0  0  0  0  0  0  0  0  0
  149.5463  138.9751  153.6645 H   0  0  0  0  0  0  0  0  0  0  0  0
  147.5474  140.2151  152.9142 H   0  0  0  0  0  0  0  0  0  0  0  0
  147.9372  141.9288  152.7312 H   0  0  0  0  0  0  0  0  0  0  0  0
  146.8914  141.3937  154.0541 H   0  0  0  0  0  0  0  0  0  0  0  0
  150.1354  143.8137  156.6581 H   0  0  0  0  0  0  0  0  0  0  0  0
  152.6974  142.7921  157.1805 H   0  0  0  0  0  0  0  0  0  0  0  0
  152.7876  144.8865  158.2543 H   0  0  0  0  0  0  0  0  0  0  0  0
  151.0258  144.9803  158.2903 H   0  0  0  0  0  0  0  0  0  0  0  0
  151.5504  144.6368  160.6610 H   0  0  0  0  0  0  0  0  0  0  0  0
  154.0292  143.6455  160.0496 H   0  0  0  0  0  0  0  0  0  0  0  0
  153.1669  142.9524  161.4285 H   0  0  0  0  0  0  0  0  0  0  0  0
  153.7707  141.5601  158.9364 H   0  0  0  0  0  0  0  0  0  0  0  0
  152.8675  140.9619  160.3321 H   0  0  0  0  0  0  0  0  0  0  0  0
  151.1145  141.0714  158.6132 H   0  0  0  0  0  0  0  0  0  0  0  0
  148.7185  142.8263  155.1896 H   0  0  0  0  0  0  0  0  0  0  0  0
  1  2  1  0  0  0  0
  1 18  1  0  0  0  0
  1 19  1  0  0  0  0
  1 20  1  0  0  0  0
  2  3  1  0  0  0  0
  3 17  1  0  0  0  0
  3  4  2  0  0  0  0
  4  5  1  0  0  0  0
  4 21  1  0  0  0  0
  5  6  1  0  0  0  0
  5  7  2  0  0  0  0
  6 22  1  0  0  0  0
  6 23  1  0  0  0  0
  6 24  1  0  0  0  0
  7  8  1  0  0  0  0
  7 35  1  0  0  0  0
  8  9  1  0  0  0  0
  8 17  2  0  0  0  0
  9 10  1  0  0  0  0
  9 25  1  0  0  0  0
 10 15  1  0  0  0  0
 10 11  1  0  0  0  0
 10 26  1  0  0  0  0
 11 12  1  0  0  0  0
 11 27  1  0  0  0  0
 11 28  1  0  0  0  0
 12 16  1  0  0  0  0
 12 13  1  0  0  0  0
 12 29  1  0  0  0  0
 13 14  1  0  0  0  0
 13 30  1  0  0  0  0
 13 31  1  0  0  0  0
 14 15  1  0  0  0  0
 14 32  1  0  0  0  0
 14 33  1  0  0  0  0
 15 16  1  0  0  0  0
 15 34  1  0  0  0  0
M  CHG  1   7   1
M  END
> <s_m_source_file>
AV-unprocessed.smi

> <i_m_source_file_index>
3148

> <i_lp_mmshare_version>
43012

> <i_f3d_flags>
0

> <s_epik_input>
W0NIM11PYzFbY0hdYyhbQ0gzXSluYyhuMSlbTkhdW0NASF0oW0NIMl1bQ0BASF0yMylbQ0BASF0oTzMpW0NIMl1bQ0gyXTI=

> <s_epik_cmdline>
J2VwaWtfcHl0aG9uJywgJy1waCcsICc3LjAnLCAnLXRuJywgJzgnLCAnLW1hJywgJzIwMCcsICctbWV0YWxfYmluZGluZycsICctaW1hZScsICc8aW5maWxlLm1hZT4nLCAnLW9tYWUnLCAnPG91dGZpbGUubWFlPic=

> <r_lp_tautomer_probability>
0.999985

> <r_epik_Ionization_Penalty>
1.09461

> <r_epik_Ionization_Penalty_Charging>
1.0946

> <r_epik_Ionization_Penalty_Neutral>
6.69406e-06

> <r_epik_State_Penalty>
1.15119

> <r_epik_Charging_Adjusted_Penalty>
2.24579

> <i_epik_Tot_Q>
1

> <i_epik_Tot_abs_Q>
1

> <r_epik_Metal_State_Penalty>
1.2392

> <b_epik_Metal_Only>
0

> <s_lp_Force_Field>
OPLS_2005

> <r_lp_Energy>
35.8621

> <b_lp_Chiralities_Consistent>
1

> <s_lp_Variant>
AV-unprocessed.smi:3148-8

> <Gold.Version>
5.8.1

> <Gold.Id.Protein>
6NUR|6NUR_protein|mol2

> <Gold.PLP.Fitness>
51.5706

> <Gold.PLP.PLP>
-40.9402

> <Gold.PLP.part.hbond>
-3.0000

> <Gold.PLP.part.metal>
0.0000

> <Gold.PLP.part.buried>
-4.3006

> <Gold.PLP.part.nonpolar>
-32.9444

> <Gold.PLP.part.repulsive>
0.2874

> <Gold.PLP.ligand.clash>
0.0701

> <Gold.PLP.ligand.torsion>
0.0352

> <Gold.PLP.Chemscore.Hbond>
3.5840

> <Gold.PLP.Chemscore.CHOScore>
0.0000

> <Gold.PLP.Chemscore.Metal>
0.0000

> <Gold.Chemscore.Hbonds>
donor molecule, donor type, donor heavy atom, donor atom, acceptor molecule, acceptor atom, score
      L1  H     7    35       P1  8028  1.57
      L1  H     9    25       P1  8028  1.95

> <Gold.PLP.Chemscore.Internal.Correction>
0.0189

> <Gold.Rescore>
     Score         DG    S(hbond)    S(metal)    S(lipo)     H(rot)  DE(clash)    DE(int)     intcor
     19.70     -19.87       1.74        0.00     100.54       1.24       0.15       0.02       ----

> <Gold.Chemscore.Fitness>
19.6985

> <Gold.Chemscore.DG>
-19.8704

> <Gold.Chemscore.ZeroCoef>
-5.4800

> <Gold.Chemscore.Hbond>
1.7351

> <Gold.Chemscore.Metal>
0.0000

> <Gold.Chemscore.Lipo>
100.5417

> <Gold.Chemscore.Internal_Hbond>
0.0000

> <Gold.Chemscore.DEClash>
0.1493

> <Gold.Chemscore.DEInternal>
0.0227

> <Gold.Chemscore.Rot>
1.2376

> <Gold.Chemscore.Internal.Correction>
   9.000000E+99

> <Gold.Chemscore.Hbonds>
donor molecule, donor type, donor heavy atom, donor atom, acceptor molecule, acceptor atom, score
      L1  H     7    35       P1  8028  0.77
      L1  H     9    25       P1  8028  0.93

> <Gold.Chemscore.Hbond.Weighted>
-5.7952

> <Gold.Chemscore.Metal.Weighted>
-0.0000

> <Gold.Chemscore.Lipo.Weighted>
-11.7634

> <Gold.Chemscore.Internal_Hbond.Weighted>
0.0000

> <Gold.Chemscore.DEClash.Weighted>
0.1493

> <Gold.Chemscore.DEInternal.Weighted>
0.0227

> <Gold.Chemscore.Rot.Weighted>
3.1681

> <Gold.Chemscore.Internal.Correction.Weighted>
   9.000000E+99

> <Gold.Protein.RotatedTorsions>
[ 6907 6896 6895 6894 ] final  115.19 input  -60.11 | X-H torsion
[ 7974 7965 7964 7962 ] final   21.69 input  175.53 | X-H torsion
[ 8008 7997 7996 7995 ] final  124.46 input   59.86 | X-H torsion
[ 10167 10162 10161 10158 ] final -127.43 input  -65.29 | X-H torsion
[ 10718 10713 10712 10709 ] final  -21.65 input   66.30 | X-H torsion
[ 10763 10752 10751 10750 ] final  100.46 input  -60.55 | X-H torsion
[ 11005 11000 10999 10996 ] final   54.45 input  -57.11 | X-H torsion

> <Gold.Protein.ActiveResidues>
 VAL166  LYS551  ARG553  GLY616  TRP617  ASP618  TYR619  PRO620  LYS621  CYS622 
 ASP623  PHE694  ASN695  SER759  ASP760  ASP761  ALA762  ILE779  LEU786  VAL792 
 PHE793  MET794  SER795  GLU796  ALA797  LYS798  CYS799  TRP800  GLU811  SER814 

> <Gold.Protein.RotatedAtoms>
  152.4757  133.8132  159.7014 H   0  0  0  0  0  0  0  0  0  0  0  0  # atno 6907 bound_to 6896
  150.8772  133.7412  159.2949 H   0  0  0  0  0  0  0  0  0  0  0  0  # atno 6908 bound_to 6896
  151.4928  135.1062  159.9860 H   0  0  0  0  0  0  0  0  0  0  0  0  # atno 6909 bound_to 6896
  146.2060  139.7991  142.8725 H   0  0  0  0  0  0  0  0  0  0  0  0  # atno 7974 bound_to 7965
  156.2802  140.2739  156.1791 H   0  0  0  0  0  0  0  0  0  0  0  0  # atno 8008 bound_to 7997
  155.0575  140.0386  157.2583 H   0  0  0  0  0  0  0  0  0  0  0  0  # atno 8009 bound_to 7997
  154.7144  140.2675  155.6604 H   0  0  0  0  0  0  0  0  0  0  0  0  # atno 8010 bound_to 7997
  139.9610  143.5950  152.2445 H   0  0  0  0  0  0  0  0  0  0  0  0  # atno 10167 bound_to 10162
  156.5153  130.4619  149.6626 H   0  0  0  0  0  0  0  0  0  0  0  0  # atno 10718 bound_to 10713
  153.3142  135.4078  155.1362 H   0  0  0  0  0  0  0  0  0  0  0  0  # atno 10763 bound_to 10752
  154.8584  135.3572  154.5683 H   0  0  0  0  0  0  0  0  0  0  0  0  # atno 10764 bound_to 10752
  153.6113  135.7068  153.5404 H   0  0  0  0  0  0  0  0  0  0  0  0  # atno 10765 bound_to 10752
  140.0686  134.5502  155.9072 H   0  0  0  0  0  0  0  0  0  0  0  0  # atno 11005 bound_to 11000
  145.3316  141.0268  143.3443 LP  0  0  0  0  0  0  0  0  0  0  0  0  # atno 17320 bound_to 7965
  144.8795  139.4924  143.6730 LP  0  0  0  0  0  0  0  0  0  0  0  0  # atno 17321 bound_to 7965
  139.6554  144.7662  151.2065 LP  0  0  0  0  0  0  0  0  0  0  0  0  # atno 17342 bound_to 10162
  140.7553  143.6094  150.8621 LP  0  0  0  0  0  0  0  0  0  0  0  0  # atno 17343 bound_to 10162
  156.3201  130.7276  151.2186 LP  0  0  0  0  0  0  0  0  0  0  0  0  # atno 17370 bound_to 10713
  157.7445  131.0458  150.4860 LP  0  0  0  0  0  0  0  0  0  0  0  0  # atno 17371 bound_to 10713
  141.2003  133.6611  156.5887 LP  0  0  0  0  0  0  0  0  0  0  0  0  # atno 17394 bound_to 11000
  140.3661  134.7645  157.4567 LP  0  0  0  0  0  0  0  0  0  0  0  0  # atno 17395 bound_to 11000

$$$$
