AV-unprocessed.smi:26|AV-procd|sdf|183|dock1
  -GOLD-   2262015443D 1   1.00000     0.00000
 Structure written by MMmdl.
 58 61  0  0  0  0  0  0  0  0  1 V2000
  151.9219  138.8559  154.9093 C   0  0  0  0  0  0  0  0  0  0  0  0
  151.0396  137.9127  155.6635 C   0  0  0  0  0  0  0  0  0  0  0  0
  151.2106  136.5788  155.8812 C   0  0  0  0  0  0  0  0  0  0  0  0
  150.1197  136.1021  156.6560 C   0  0  0  0  0  0  0  0  0  0  0  0
  149.8683  134.7151  157.1268 C   0  0  0  0  0  0  0  0  0  0  0  0
  149.0288  134.4324  157.9830 O   0  0  0  0  0  0  0  0  0  0  0  0
  150.7260  133.6201  156.4648 C   0  0  0  0  0  0  0  0  0  0  0  0
  149.9802  132.7992  155.5181 N   0  0  0  0  0  0  0  0  0  0  0  0
  150.0404  131.3918  155.6733 C   0  0  0  0  0  0  0  0  0  0  0  0
  150.6915  130.8583  156.5733 O   0  0  0  0  0  0  0  0  0  0  0  0
  149.2607  130.6418  154.6957 C   0  0  0  0  0  0  0  0  0  0  0  0
  149.2377  129.2994  154.7520 F   0  0  0  0  0  0  0  0  0  0  0  0
  148.5557  131.2740  153.7332 C   0  0  0  0  0  0  0  0  0  0  0  0
  148.5223  132.6500  153.5951 N   0  0  0  0  0  0  0  0  0  0  0  0
  147.6521  133.2539  152.5140 C   0  0  2  0  0  0  0  0  0  0  0  0
  146.6103  134.2531  153.0397 C   0  0  0  0  0  0  0  0  0  0  0  0
  145.4543  133.9937  152.0980 C   0  0  0  0  0  0  0  0  0  0  0  0
  145.5722  132.4926  151.8565 C   0  0  0  0  0  0  0  0  0  0  0  0
  146.9729  132.2297  151.8466 O   0  0  0  0  0  0  0  0  0  0  0  0
  149.2217  133.4602  154.5210 C   0  0  0  0  0  0  0  0  0  0  0  0
  149.1625  134.6898  154.4686 O   0  0  0  0  0  0  0  0  0  0  0  0
  149.2960  137.1754  156.9110 C   0  0  0  0  0  0  0  0  0  0  0  0
  148.0148  137.2297  157.6979 C   0  0  0  0  0  0  0  0  0  0  0  0
  149.8486  138.2975  156.2757 N   0  0  0  0  0  0  0  0  0  0  0  0
  149.3112  139.6671  156.2503 C   0  0  2  0  0  0  0  0  0  0  0  0
  149.0158  140.1267  154.8084 C   0  0  0  0  0  0  0  0  0  0  0  0
  150.1275  140.6300  157.1180 C   0  0  0  0  0  0  0  0  0  0  0  0
  151.2643  140.1391  157.7993 C   0  0  0  0  0  0  0  0  0  0  0  0
  152.0361  140.9891  158.6145 C   0  0  0  0  0  0  0  0  0  0  0  0
  151.6749  142.3409  158.7620 C   0  0  0  0  0  0  0  0  0  0  0  0
  150.5408  142.8397  158.0943 C   0  0  0  0  0  0  0  0  0  0  0  0
  149.7685  141.9895  157.2790 C   0  0  0  0  0  0  0  0  0  0  0  0
  152.8381  138.3583  154.5907 H   0  0  0  0  0  0  0  0  0  0  0  0
  152.2067  139.7070  155.5277 H   0  0  0  0  0  0  0  0  0  0  0  0
  151.4205  139.2286  154.0160 H   0  0  0  0  0  0  0  0  0  0  0  0
  152.0455  136.0010  155.5130 H   0  0  0  0  0  0  0  0  0  0  0  0
  151.5748  134.0570  155.9366 H   0  0  0  0  0  0  0  0  0  0  0  0
  151.1633  132.9589  157.2143 H   0  0  0  0  0  0  0  0  0  0  0  0
  147.9934  130.6657  153.0398 H   0  0  0  0  0  0  0  0  0  0  0  0
  148.3349  133.7215  151.8034 H   0  0  0  0  0  0  0  0  0  0  0  0
  146.3237  134.0343  154.0673 H   0  0  0  0  0  0  0  0  0  0  0  0
  146.9896  135.2739  152.9931 H   0  0  0  0  0  0  0  0  0  0  0  0
  144.4892  134.2853  152.5128 H   0  0  0  0  0  0  0  0  0  0  0  0
  145.6042  134.5358  151.1635 H   0  0  0  0  0  0  0  0  0  0  0  0
  145.1042  131.9362  152.6689 H   0  0  0  0  0  0  0  0  0  0  0  0
  145.1035  132.1810  150.9230 H   0  0  0  0  0  0  0  0  0  0  0  0
  147.2079  136.7456  157.1481 H   0  0  0  0  0  0  0  0  0  0  0  0
  147.6930  138.2387  157.9338 H   0  0  0  0  0  0  0  0  0  0  0  0
  148.1256  136.7174  158.6533 H   0  0  0  0  0  0  0  0  0  0  0  0
  148.3435  139.6577  156.7484 H   0  0  0  0  0  0  0  0  0  0  0  0
  148.4845  141.0787  154.8009 H   0  0  0  0  0  0  0  0  0  0  0  0
  148.3804  139.4022  154.2981 H   0  0  0  0  0  0  0  0  0  0  0  0
  149.9170  140.2432  154.2083 H   0  0  0  0  0  0  0  0  0  0  0  0
  151.5497  139.1022  157.6960 H   0  0  0  0  0  0  0  0  0  0  0  0
  152.9047  140.6027  159.1272 H   0  0  0  0  0  0  0  0  0  0  0  0
  152.2658  142.9940  159.3872 H   0  0  0  0  0  0  0  0  0  0  0  0
  150.2611  143.8766  158.2083 H   0  0  0  0  0  0  0  0  0  0  0  0
  148.9050  142.4017  156.7800 H   0  0  0  0  0  0  0  0  0  0  0  0
  1  2  1  0  0  0  0
  1 33  1  0  0  0  0
  1 34  1  0  0  0  0
  1 35  1  0  0  0  0
  2 24  1  0  0  0  0
  2  3  2  0  0  0  0
  3  4  1  0  0  0  0
  3 36  1  0  0  0  0
  4  5  1  0  0  0  0
  4 22  2  0  0  0  0
  5  6  2  0  0  0  0
  5  7  1  0  0  0  0
  7  8  1  0  0  0  0
  7 37  1  0  0  0  0
  7 38  1  0  0  0  0
  8 20  1  0  0  0  0
  8  9  1  0  0  0  0
  9 10  2  0  0  0  0
  9 11  1  0  0  0  0
 11 12  1  0  0  0  0
 11 13  2  0  0  0  0
 13 14  1  0  0  0  0
 13 39  1  0  0  0  0
 14 15  1  0  0  0  0
 14 20  1  0  0  0  0
 15 19  1  0  0  0  0
 15 16  1  0  0  0  0
 15 40  1  0  0  0  0
 16 17  1  0  0  0  0
 16 41  1  0  0  0  0
 16 42  1  0  0  0  0
 17 18  1  0  0  0  0
 17 43  1  0  0  0  0
 17 44  1  0  0  0  0
 18 19  1  0  0  0  0
 18 45  1  0  0  0  0
 18 46  1  0  0  0  0
 20 21  2  0  0  0  0
 22 23  1  0  0  0  0
 22 24  1  0  0  0  0
 23 47  1  0  0  0  0
 23 48  1  0  0  0  0
 23 49  1  0  0  0  0
 24 25  1  0  0  0  0
 25 26  1  0  0  0  0
 25 27  1  0  0  0  0
 25 50  1  0  0  0  0
 26 51  1  0  0  0  0
 26 52  1  0  0  0  0
 26 53  1  0  0  0  0
 27 32  1  0  0  0  0
 27 28  2  0  0  0  0
 28 29  1  0  0  0  0
 28 54  1  0  0  0  0
 29 30  2  0  0  0  0
 29 55  1  0  0  0  0
 30 31  1  0  0  0  0
 30 56  1  0  0  0  0
 31 32  2  0  0  0  0
 31 57  1  0  0  0  0
 32 58  1  0  0  0  0
M  END
> <s_m_source_file>
AV-unprocessed.smi

> <i_m_source_file_index>
26

> <i_lp_mmshare_version>
43012

> <i_f3d_flags>
0

> <s_epik_input>
W2NIXTFbY0hdW2NIXVtjSF1bY0hdYzFbQ0BASF0oW0NIM10pbjJjKFtDSDNdKWMoW2NIXWMyW0NIM10pQyg9TylbQ0gyXW4zYyg9TyljKEYpW2NIXW4oYzM9TylbQ0BASF00W0NIMl1bQ0gyXVtDSDJdTzQ=

> <s_epik_cmdline>
J2VwaWtfcHl0aG9uJywgJy1waCcsICc3LjAnLCAnLXRuJywgJzgnLCAnLW1hJywgJzIwMCcsICctbWV0YWxfYmluZGluZycsICctaW1hZScsICc8aW5maWxlLm1hZT4nLCAnLW9tYWUnLCAnPG91dGZpbGUubWFlPic=

> <r_lp_tautomer_probability>
1

> <r_epik_Ionization_Penalty>
5.02402e-09

> <r_epik_Ionization_Penalty_Charging>
5.01743e-09

> <r_epik_Ionization_Penalty_Neutral>
6.58831e-12

> <r_epik_State_Penalty>
-0

> <r_epik_Charging_Adjusted_Penalty>
5.01743e-09

> <i_epik_Tot_Q>
0

> <i_epik_Tot_abs_Q>
0

> <r_epik_Metal_State_Penalty>
-0

> <b_epik_Metal_Only>
0

> <s_epik_Chemistry_Notes>
This compound contains an acetal/aminal-like group ( X-CH(R)-Y where X, Y are N, S, or O) that may be acid/base labile, releasing an aldehyde.

> <s_lp_Force_Field>
OPLS_2005

> <r_lp_Energy>
45.9461

> <b_lp_Chiralities_Consistent>
1

> <s_lp_Variant>
AV-unprocessed.smi:26-1

> <Gold.Version>
5.8.1

> <Gold.Id.Protein>
6NUR|6NUR_protein|mol2

> <Gold.PLP.Fitness>
47.4256

> <Gold.PLP.PLP>
-43.7851

> <Gold.PLP.part.hbond>
-1.0000

> <Gold.PLP.part.metal>
0.0000

> <Gold.PLP.part.buried>
-5.0164

> <Gold.PLP.part.nonpolar>
-40.4614

> <Gold.PLP.part.repulsive>
3.6719

> <Gold.PLP.ligand.clash>
0.0000

> <Gold.PLP.ligand.torsion>
0.5521

> <Gold.PLP.Chemscore.Hbond>
1.0000

> <Gold.PLP.Chemscore.CHOScore>
0.4261

> <Gold.PLP.Chemscore.Metal>
0.0000

> <Gold.Chemscore.Hbonds>
donor molecule, donor type, donor heavy atom, donor atom, acceptor molecule, acceptor atom, score
      P1  H  6896  6907       L1     6  0.28
      L1  C    13    39       P1 10747  0.02

> <Gold.PLP.Chemscore.Internal.Correction>
0.4663

> <Gold.Rescore>
     Score         DG    S(hbond)    S(metal)    S(lipo)     H(rot)  DE(clash)    DE(int)     intcor
      9.48     -15.87       0.91        0.00     103.03       1.84       0.62       5.77       ----

> <Gold.Chemscore.Fitness>
9.4754

> <Gold.Chemscore.DG>
-15.8681

> <Gold.Chemscore.ZeroCoef>
-5.4800

> <Gold.Chemscore.Hbond>
0.9082

> <Gold.Chemscore.Metal>
0.0000

> <Gold.Chemscore.Lipo>
103.0323

> <Gold.Chemscore.Internal_Hbond>
0.0000

> <Gold.Chemscore.DEClash>
0.6228

> <Gold.Chemscore.DEInternal>
5.7700

> <Gold.Chemscore.Rot>
1.8359

> <Gold.Chemscore.Internal.Correction>
   9.000000E+99

> <Gold.Chemscore.Hbonds>
donor molecule, donor type, donor heavy atom, donor atom, acceptor molecule, acceptor atom, score
      P1  H  6896  6907       L1     6  0.01

> <Gold.Chemscore.Hbond.Weighted>
-3.0334

> <Gold.Chemscore.Metal.Weighted>
-0.0000

> <Gold.Chemscore.Lipo.Weighted>
-12.0548

> <Gold.Chemscore.Internal_Hbond.Weighted>
0.0000

> <Gold.Chemscore.DEClash.Weighted>
0.6228

> <Gold.Chemscore.DEInternal.Weighted>
5.7700

> <Gold.Chemscore.Rot.Weighted>
4.7000

> <Gold.Chemscore.Internal.Correction.Weighted>
   9.000000E+99

> <Gold.Protein.RotatedTorsions>
[ 6907 6896 6895 6894 ] final  -99.16 input  -60.11 | X-H torsion
[ 7974 7965 7964 7962 ] final   25.25 input  175.53 | X-H torsion
[ 8008 7997 7996 7995 ] final  -86.79 input   59.86 | X-H torsion
[ 10167 10162 10161 10158 ] final  -24.61 input  -65.29 | X-H torsion
[ 10718 10713 10712 10709 ] final  -15.72 input   66.30 | X-H torsion
[ 10763 10752 10751 10750 ] final  147.90 input  -60.55 | X-H torsion
[ 11005 11000 10999 10996 ] final  100.29 input  -57.11 | X-H torsion

> <Gold.Protein.ActiveResidues>
 VAL166  LYS551  ARG553  GLY616  TRP617  ASP618  TYR619  PRO620  LYS621  CYS622 
 ASP623  PHE694  ASN695  SER759  ASP760  ASP761  ALA762  ILE779  LEU786  VAL792 
 PHE793  MET794  SER795  GLU796  ALA797  LYS798  CYS799  TRP800  GLU811  SER814 

> <Gold.Protein.RotatedAtoms>
  150.7070  134.1083  159.3990 H   0  0  0  0  0  0  0  0  0  0  0  0  # atno 6907 bound_to 6896
  151.9069  135.0353  160.0520 H   0  0  0  0  0  0  0  0  0  0  0  0  # atno 6908 bound_to 6896
  152.2368  133.5067  159.5283 H   0  0  0  0  0  0  0  0  0  0  0  0  # atno 6909 bound_to 6896
  146.1898  139.7492  142.8840 H   0  0  0  0  0  0  0  0  0  0  0  0  # atno 7974 bound_to 7965
  154.6558  140.0574  157.0007 H   0  0  0  0  0  0  0  0  0  0  0  0  # atno 8008 bound_to 7997
  155.1302  140.3256  155.4457 H   0  0  0  0  0  0  0  0  0  0  0  0  # atno 8009 bound_to 7997
  156.2596  140.1982  156.6421 H   0  0  0  0  0  0  0  0  0  0  0  0  # atno 8010 bound_to 7997
  140.7288  143.4338  151.0761 H   0  0  0  0  0  0  0  0  0  0  0  0  # atno 10167 bound_to 10162
  156.5977  130.4816  149.6252 H   0  0  0  0  0  0  0  0  0  0  0  0  # atno 10718 bound_to 10713
  154.0460  135.2885  155.3348 H   0  0  0  0  0  0  0  0  0  0  0  0  # atno 10763 bound_to 10752
  154.6899  135.5230  153.8381 H   0  0  0  0  0  0  0  0  0  0  0  0  # atno 10764 bound_to 10752
  153.0580  135.6603  154.0660 H   0  0  0  0  0  0  0  0  0  0  0  0  # atno 10765 bound_to 10752
  139.8771  134.9134  156.4734 H   0  0  0  0  0  0  0  0  0  0  0  0  # atno 11005 bound_to 11000
  145.3829  141.0361  143.3167 LP  0  0  0  0  0  0  0  0  0  0  0  0  # atno 17320 bound_to 7965
  144.8464  139.5390  143.6876 LP  0  0  0  0  0  0  0  0  0  0  0  0  # atno 17321 bound_to 7965
  139.7998  143.8100  152.3161 LP  0  0  0  0  0  0  0  0  0  0  0  0  # atno 17342 bound_to 10162
  139.8113  144.7334  150.9694 LP  0  0  0  0  0  0  0  0  0  0  0  0  # atno 17343 bound_to 10162
  156.2495  130.6899  151.1632 LP  0  0  0  0  0  0  0  0  0  0  0  0  # atno 17370 bound_to 10713
  157.7287  131.0629  150.5806 LP  0  0  0  0  0  0  0  0  0  0  0  0  # atno 17371 bound_to 10713
  140.8779  133.7940  155.9434 LP  0  0  0  0  0  0  0  0  0  0  0  0  # atno 17394 bound_to 11000
  140.8885  134.2525  157.5107 LP  0  0  0  0  0  0  0  0  0  0  0  0  # atno 17395 bound_to 11000

$$$$
