AV-unprocessed.smi:1760|AV-procd|sdf|7090|dock10
  -GOLD-   22720 8303D 1   1.00000     0.00000
 Structure written by MMmdl.
 44 46  0  0  0  0  0  0  0  0  2 V2000
  144.9936  136.0854  156.4440 O   0  0  0  0  0  0  0  0  0  0  0  0
  144.3436  135.0429  156.3703 C   0  0  0  0  0  0  0  0  0  0  0  0
  143.7461  134.4130  157.3986 N   0  0  0  0  0  0  0  0  0  0  0  0
  143.7292  134.7528  158.7620 C   0  0  0  0  0  0  0  0  0  0  0  0
  144.7793  135.2772  159.4464 C   0  0  0  0  0  0  0  0  0  0  0  0
  144.6946  135.5990  160.8614 C   0  0  0  0  0  0  0  0  0  0  0  0
  145.8468  136.2664  161.5963 C   0  0  0  0  0  0  0  0  0  0  0  0
  145.4744  137.4344  162.1213 F   0  0  0  0  0  0  0  0  0  0  0  0
  146.2665  135.4812  162.5873 F   0  0  0  0  0  0  0  0  0  0  0  0
  146.8748  136.4851  160.7762 F   0  0  0  0  0  0  0  0  0  0  0  0
  143.5157  135.3549  161.4628 C   0  0  0  0  0  0  0  0  0  0  0  0
  142.4396  134.7929  160.7725 N   0  0  0  0  0  0  0  0  0  0  0  0
  142.4631  134.4726  159.4593 C   0  0  0  0  0  0  0  0  0  0  0  0
  141.4709  133.9817  158.9217 O   0  0  0  0  0  0  0  0  0  0  0  0
  144.1191  134.3926  155.2191 N   0  0  0  0  0  0  0  0  0  0  0  0
  144.5824  134.8074  153.8972 C   0  0  2  0  0  0  0  0  0  0  0  0
  143.4388  134.6796  152.8773 C   0  0  0  0  0  0  0  0  0  0  0  0
  143.9248  135.0062  151.4524 C   0  0  0  0  0  0  0  0  0  0  0  0
  145.0886  134.1728  151.0542 N   0  3  2  0  0  0  0  0  0  0  0  0
  144.7251  132.7724  150.7335 C   0  0  0  0  0  0  0  0  0  0  0  0
  145.7328  132.0709  149.8531 C   0  0  0  0  0  0  0  0  0  0  0  0
  144.4200  132.5457  149.2712 C   0  0  0  0  0  0  0  0  0  0  0  0
  146.2116  134.2830  152.0210 C   0  0  0  0  0  0  0  0  0  0  0  0
  145.7755  133.9418  153.4588 C   0  0  0  0  0  0  0  0  0  0  0  0
  141.5947  134.6229  161.2990 H   0  0  0  0  0  0  0  0  0  0  0  0
  143.1910  133.6025  157.1654 H   0  0  0  0  0  0  0  0  0  0  0  0
  145.7255  135.4548  158.9622 H   0  0  0  0  0  0  0  0  0  0  0  0
  143.3049  135.5728  162.4995 H   0  0  0  0  0  0  0  0  0  0  0  0
  143.5710  133.5456  155.2597 H   0  0  0  0  0  0  0  0  0  0  0  0
  144.9058  135.8500  153.9143 H   0  0  0  0  0  0  0  0  0  0  0  0
  143.0247  133.6709  152.9041 H   0  0  0  0  0  0  0  0  0  0  0  0
  142.6228  135.3510  153.1478 H   0  0  0  0  0  0  0  0  0  0  0  0
  143.1133  134.8807  150.7349 H   0  0  0  0  0  0  0  0  0  0  0  0
  144.2198  136.0550  151.4014 H   0  0  0  0  0  0  0  0  0  0  0  0
  144.1855  132.2166  151.4976 H   0  0  0  0  0  0  0  0  0  0  0  0
  146.6335  132.6113  149.5672 H   0  0  0  0  0  0  0  0  0  0  0  0
  145.8582  130.9988  149.9899 H   0  0  0  0  0  0  0  0  0  0  0  0
  143.6804  131.7865  149.0248 H   0  0  0  0  0  0  0  0  0  0  0  0
  144.4491  133.4013  148.5987 H   0  0  0  0  0  0  0  0  0  0  0  0
  147.0356  133.6400  151.7100 H   0  0  0  0  0  0  0  0  0  0  0  0
  146.5920  135.3049  151.9902 H   0  0  0  0  0  0  0  0  0  0  0  0
  146.6138  134.0921  154.1402 H   0  0  0  0  0  0  0  0  0  0  0  0
  145.5151  132.8847  153.5246 H   0  0  0  0  0  0  0  0  0  0  0  0
  145.4277  134.5630  150.1864 H   0  0  0  0  0  0  0  0  0  0  0  0
  1  2  2  0  0  0  0
  2  3  1  0  0  0  0
  2 15  1  0  0  0  0
  3  4  1  0  0  0  0
  3 26  1  0  0  0  0
  4 13  1  0  0  0  0
  4  5  2  0  0  0  0
  5  6  1  0  0  0  0
  5 27  1  0  0  0  0
  6  7  1  0  0  0  0
  6 11  2  0  0  0  0
  7  8  1  0  0  0  0
  7  9  1  0  0  0  0
  7 10  1  0  0  0  0
 11 12  1  0  0  0  0
 11 28  1  0  0  0  0
 12 25  1  0  0  0  0
 12 13  1  0  0  0  0
 13 14  2  0  0  0  0
 15 16  1  0  0  0  0
 15 29  1  0  0  0  0
 16 24  1  0  0  0  0
 16 17  1  0  0  0  0
 16 30  1  0  0  0  0
 17 18  1  0  0  0  0
 17 31  1  0  0  0  0
 17 32  1  0  0  0  0
 18 19  1  0  0  0  0
 18 33  1  0  0  0  0
 18 34  1  0  0  0  0
 19 20  1  0  0  0  0
 19 23  1  0  0  0  0
 19 44  1  0  0  0  0
 20 22  1  0  0  0  0
 20 21  1  0  0  0  0
 20 35  1  0  0  0  0
 21 22  1  0  0  0  0
 21 36  1  0  0  0  0
 21 37  1  0  0  0  0
 22 38  1  0  0  0  0
 22 39  1  0  0  0  0
 23 24  1  0  0  0  0
 23 40  1  0  0  0  0
 23 41  1  0  0  0  0
 24 42  1  0  0  0  0
 24 43  1  0  0  0  0
M  CHG  1  19   1
M  END
> <s_m_source_file>
AV-unprocessed.smi

> <i_m_source_file_index>
1760

> <i_lp_mmshare_version>
43012

> <i_f3d_flags>
0

> <s_epik_input>
W0NIMl0xW0NIMl1bQ0hdMU4oW0NIMl1bQ0gyXTIpW0NIMl1bQ0gyXVtDSF0yW05IXUMoPU8pW05IXWMzW2NIXWMoQyhGKShGKUYpW2NIXVtuSF1jMz1P

> <s_epik_cmdline>
J2VwaWtfcHl0aG9uJywgJy1waCcsICc3LjAnLCAnLXRuJywgJzgnLCAnLW1hJywgJzIwMCcsICctbWV0YWxfYmluZGluZycsICctaW1hZScsICc8aW5maWxlLm1hZT4nLCAnLW9tYWUnLCAnPG91dGZpbGUubWFlPic=

> <r_lp_tautomer_probability>
0.999

> <r_epik_Ionization_Penalty>
0.131122

> <r_epik_Ionization_Penalty_Charging>
0.131104

> <r_epik_Ionization_Penalty_Neutral>
1.84439e-05

> <r_epik_State_Penalty>
0.116042

> <r_epik_Charging_Adjusted_Penalty>
0.247146

> <i_epik_Tot_Q>
1

> <i_epik_Tot_abs_Q>
1

> <r_epik_Metal_State_Penalty>
0.492282

> <b_epik_Metal_Only>
0

> <s_lp_Force_Field>
OPLS_2005

> <r_lp_Energy>
39.2626

> <b_lp_Chiralities_Consistent>
1

> <s_lp_Variant>
AV-unprocessed.smi:1760-2

> <Gold.Version>
5.8.1

> <Gold.Id.Protein>
6NUR|6NUR_protein|mol2

> <Gold.PLP.Fitness>
38.9785

> <Gold.PLP.PLP>
-33.9593

> <Gold.PLP.part.hbond>
-2.0000

> <Gold.PLP.part.metal>
0.0000

> <Gold.PLP.part.buried>
-6.3565

> <Gold.PLP.part.nonpolar>
-25.6539

> <Gold.PLP.part.repulsive>
0.0250

> <Gold.PLP.ligand.clash>
0.0000

> <Gold.PLP.ligand.torsion>
1.1434

> <Gold.PLP.Chemscore.Hbond>
2.0000

> <Gold.PLP.Chemscore.CHOScore>
0.0000

> <Gold.PLP.Chemscore.Metal>
0.0000

> <Gold.Chemscore.Hbonds>
donor molecule, donor type, donor heavy atom, donor atom, acceptor molecule, acceptor atom, score
      L1  H    15    29       P1 10957  0.96
      P1  H 11000 11005       L1    14  1.00

> <Gold.PLP.Chemscore.Internal.Correction>
1.3061

> <Gold.Rescore>
     Score         DG    S(hbond)    S(metal)    S(lipo)     H(rot)  DE(clash)    DE(int)     intcor
     20.33     -21.95       3.26        0.00      75.93       1.29       0.28       1.35       ----

> <Gold.Chemscore.Fitness>
20.3296

> <Gold.Chemscore.DG>
-21.9540

> <Gold.Chemscore.ZeroCoef>
-5.4800

> <Gold.Chemscore.Hbond>
3.2595

> <Gold.Chemscore.Metal>
0.0000

> <Gold.Chemscore.Lipo>
75.9257

> <Gold.Chemscore.Internal_Hbond>
0.0000

> <Gold.Chemscore.DEClash>
0.2763

> <Gold.Chemscore.DEInternal>
1.3481

> <Gold.Chemscore.Rot>
1.2875

> <Gold.Chemscore.Internal.Correction>
   9.000000E+99

> <Gold.Chemscore.Hbonds>
donor molecule, donor type, donor heavy atom, donor atom, acceptor molecule, acceptor atom, score
      L1  H    15    29       P1 10957  0.91
      P1  H 11000 11005       L1    14  0.92

> <Gold.Chemscore.Hbond.Weighted>
-10.8867

> <Gold.Chemscore.Metal.Weighted>
-0.0000

> <Gold.Chemscore.Lipo.Weighted>
-8.8833

> <Gold.Chemscore.Internal_Hbond.Weighted>
0.0000

> <Gold.Chemscore.DEClash.Weighted>
0.2763

> <Gold.Chemscore.DEInternal.Weighted>
1.3481

> <Gold.Chemscore.Rot.Weighted>
3.2960

> <Gold.Chemscore.Internal.Correction.Weighted>
   9.000000E+99

> <Gold.Protein.RotatedTorsions>
[ 6907 6896 6895 6894 ] final -127.91 input  -60.11 | X-H torsion
[ 7974 7965 7964 7962 ] final  -12.98 input  175.53 | X-H torsion
[ 8008 7997 7996 7995 ] final  169.47 input   59.86 | X-H torsion
[ 10167 10162 10161 10158 ] final -149.53 input  -65.29 | X-H torsion
[ 10718 10713 10712 10709 ] final    5.28 input   66.30 | X-H torsion
[ 10763 10752 10751 10750 ] final  -81.97 input  -60.55 | X-H torsion
[ 11005 11000 10999 10996 ] final -144.45 input  -57.11 | X-H torsion

> <Gold.Protein.ActiveResidues>
 VAL166  LYS551  ARG553  GLY616  TRP617  ASP618  TYR619  PRO620  LYS621  CYS622 
 ASP623  PHE694  ASN695  SER759  ASP760  ASP761  ALA762  ILE779  LEU786  VAL792 
 PHE793  MET794  SER795  GLU796  ALA797  LYS798  CYS799  TRP800  GLU811  SER814 

> <Gold.Protein.RotatedAtoms>
  150.9122  133.6983  159.2851 H   0  0  0  0  0  0  0  0  0  0  0  0  # atno 6907 bound_to 6896
  151.4466  135.1024  159.9695 H   0  0  0  0  0  0  0  0  0  0  0  0  # atno 6908 bound_to 6896
  152.4936  133.8518  159.7260 H   0  0  0  0  0  0  0  0  0  0  0  0  # atno 6909 bound_to 6896
  146.2131  140.3137  142.8384 H   0  0  0  0  0  0  0  0  0  0  0  0  # atno 7974 bound_to 7965
  156.1454  140.1563  156.8854 H   0  0  0  0  0  0  0  0  0  0  0  0  # atno 8008 bound_to 7997
  154.5024  140.0822  156.7862 H   0  0  0  0  0  0  0  0  0  0  0  0  # atno 8009 bound_to 7997
  155.3998  140.3414  155.4258 H   0  0  0  0  0  0  0  0  0  0  0  0  # atno 8010 bound_to 7997
  139.7434  143.8627  152.2568 H   0  0  0  0  0  0  0  0  0  0  0  0  # atno 10167 bound_to 10162
  156.9050  130.5735  149.5647 H   0  0  0  0  0  0  0  0  0  0  0  0  # atno 10718 bound_to 10713
  154.5700  135.5608  153.7086 H   0  0  0  0  0  0  0  0  0  0  0  0  # atno 10763 bound_to 10752
  153.0045  135.6294  154.2127 H   0  0  0  0  0  0  0  0  0  0  0  0  # atno 10764 bound_to 10752
  154.2067  135.2875  155.2952 H   0  0  0  0  0  0  0  0  0  0  0  0  # atno 10765 bound_to 10752
  140.8023  134.2842  157.4973 H   0  0  0  0  0  0  0  0  0  0  0  0  # atno 11005 bound_to 11000
  144.8969  140.7595  143.5891 LP  0  0  0  0  0  0  0  0  0  0  0  0  # atno 17320 bound_to 7965
  145.3062  139.1834  143.4663 LP  0  0  0  0  0  0  0  0  0  0  0  0  # atno 17321 bound_to 7965
  139.8584  144.7129  150.9129 LP  0  0  0  0  0  0  0  0  0  0  0  0  # atno 17342 bound_to 10162
  140.7789  143.3838  151.1429 LP  0  0  0  0  0  0  0  0  0  0  0  0  # atno 17343 bound_to 10162
  156.0563  130.5624  150.9099 LP  0  0  0  0  0  0  0  0  0  0  0  0  # atno 17370 bound_to 10713
  157.6003  131.0941  150.8972 LP  0  0  0  0  0  0  0  0  0  0  0  0  # atno 17371 bound_to 10713
  139.8720  134.9436  156.3859 LP  0  0  0  0  0  0  0  0  0  0  0  0  # atno 17394 bound_to 11000
  140.9282  133.7598  155.9991 LP  0  0  0  0  0  0  0  0  0  0  0  0  # atno 17395 bound_to 11000

$$$$
