AV-unprocessed.smi:2409|AV-procd|sdf|9525|dock8
  -GOLD-   2272013153D 1   1.00000     0.00000
 Structure written by MMmdl.
 35 36  0  0  0  0  0  0  0  0  1 V2000
  146.9342  142.5381  153.7438 C   0  0  0  0  0  0  0  0  0  0  0  0
  146.7906  141.3316  154.4734 O   0  0  0  0  0  0  0  0  0  0  0  0
  147.9146  140.5842  154.5044 C   0  0  0  0  0  0  0  0  0  0  0  0
  149.1542  140.8183  155.0317 C   0  0  0  0  0  0  0  0  0  0  0  0
  149.6534  141.9523  155.7209 N   0  0  0  0  0  0  0  0  0  0  0  0
  150.5371  141.9743  156.7357 C   0  0  0  0  0  0  0  0  0  0  0  0
  151.0898  140.9775  157.1955 O   0  0  0  0  0  0  0  0  0  0  0  0
  150.8309  143.2063  157.1877 N   0  0  0  0  0  0  0  0  0  0  0  0
  151.7267  143.5603  158.2474 C   0  0  1  0  0  0  0  0  0  0  0  0
  152.3365  144.9431  158.1838 C   0  0  0  0  0  0  0  0  0  0  0  0
  151.2948  144.6330  159.2257 C   0  0  2  0  0  0  0  0  0  0  0  0
  151.6845  144.5518  160.6855 C   0  0  0  0  0  0  0  0  0  0  0  0
  149.9235  139.6722  154.6893 C   0  0  0  0  0  0  0  0  0  0  0  0
  151.3676  139.3757  154.9766 C   0  0  0  0  0  0  0  0  0  0  0  0
  149.1880  138.7784  154.0379 N   0  0  0  0  0  0  0  0  0  0  0  0
  147.9551  139.3309  153.9299 N   0  0  0  0  0  0  0  0  0  0  0  0
  146.9047  138.6042  153.2469 C   0  0  0  0  0  0  0  0  0  0  0  0
  145.9918  143.0853  153.7540 H   0  0  0  0  0  0  0  0  0  0  0  0
  147.1957  142.3368  152.7040 H   0  0  0  0  0  0  0  0  0  0  0  0
  147.7005  143.1817  154.1772 H   0  0  0  0  0  0  0  0  0  0  0  0
  149.3641  142.8490  155.3590 H   0  0  0  0  0  0  0  0  0  0  0  0
  150.4301  143.9794  156.6765 H   0  0  0  0  0  0  0  0  0  0  0  0
  152.3934  142.7863  158.6252 H   0  0  0  0  0  0  0  0  0  0  0  0
  153.3684  145.0488  158.5131 H   0  0  0  0  0  0  0  0  0  0  0  0
  152.0437  145.5940  157.3620 H   0  0  0  0  0  0  0  0  0  0  0  0
  150.3105  145.0680  159.0605 H   0  0  0  0  0  0  0  0  0  0  0  0
  152.6788  144.1184  160.7986 H   0  0  0  0  0  0  0  0  0  0  0  0
  150.9718  143.9306  161.2280 H   0  0  0  0  0  0  0  0  0  0  0  0
  151.6867  145.5478  161.1283 H   0  0  0  0  0  0  0  0  0  0  0  0
  151.8419  140.1901  155.5247 H   0  0  0  0  0  0  0  0  0  0  0  0
  151.9281  139.2287  154.0532 H   0  0  0  0  0  0  0  0  0  0  0  0
  151.4694  138.4713  155.5765 H   0  0  0  0  0  0  0  0  0  0  0  0
  145.9285  138.9927  153.5384 H   0  0  0  0  0  0  0  0  0  0  0  0
  146.9527  137.5461  153.5063 H   0  0  0  0  0  0  0  0  0  0  0  0
  147.0245  138.7151  152.1691 H   0  0  0  0  0  0  0  0  0  0  0  0
  1  2  1  0  0  0  0
  1 18  1  0  0  0  0
  1 19  1  0  0  0  0
  1 20  1  0  0  0  0
  2  3  1  0  0  0  0
  3 16  1  0  0  0  0
  3  4  2  0  0  0  0
  4  5  1  0  0  0  0
  4 13  1  0  0  0  0
  5  6  1  0  0  0  0
  5 21  1  0  0  0  0
  6  7  2  0  0  0  0
  6  8  1  0  0  0  0
  8  9  1  0  0  0  0
  8 22  1  0  0  0  0
  9 11  1  0  0  0  0
  9 10  1  0  0  0  0
  9 23  1  0  0  0  0
 10 11  1  0  0  0  0
 10 24  1  0  0  0  0
 10 25  1  0  0  0  0
 11 12  1  0  0  0  0
 11 26  1  0  0  0  0
 12 27  1  0  0  0  0
 12 28  1  0  0  0  0
 12 29  1  0  0  0  0
 13 14  1  0  0  0  0
 13 15  2  0  0  0  0
 14 30  1  0  0  0  0
 14 31  1  0  0  0  0
 14 32  1  0  0  0  0
 15 16  1  0  0  0  0
 16 17  1  0  0  0  0
 17 33  1  0  0  0  0
 17 34  1  0  0  0  0
 17 35  1  0  0  0  0
M  END
> <s_m_source_file>
AV-unprocessed.smi

> <i_m_source_file_index>
2409

> <i_lp_mmshare_version>
43012

> <i_f3d_flags>
0

> <s_epik_input>
W0NIM11uMW5jKFtDSDNdKWMoYzFPW0NIM10pW05IXUMoPU8pW05IXVtDQEBIXTJbQ0gyXVtDQEhdMltDSDNd

> <s_epik_cmdline>
J2VwaWtfcHl0aG9uJywgJy1waCcsICc3LjAnLCAnLXRuJywgJzgnLCAnLW1hJywgJzIwMCcsICctbWV0YWxfYmluZGluZycsICctaW1hZScsICc8aW5maWxlLm1hZT4nLCAnLW9tYWUnLCAnPG91dGZpbGUubWFlPic=

> <r_lp_tautomer_probability>
1

> <r_epik_Ionization_Penalty>
0.000417804

> <r_epik_Ionization_Penalty_Charging>
0

> <r_epik_Ionization_Penalty_Neutral>
0.000417804

> <r_epik_State_Penalty>
-0

> <r_epik_Charging_Adjusted_Penalty>
0

> <i_epik_Tot_Q>
0

> <i_epik_Tot_abs_Q>
0

> <r_epik_Metal_State_Penalty>
-0

> <b_epik_Metal_Only>
0

> <s_lp_Force_Field>
OPLS_2005

> <r_lp_Energy>
34.5155

> <b_lp_Chiralities_Consistent>
1

> <s_lp_Variant>
AV-unprocessed.smi:2409-4

> <Gold.Version>
5.8.1

> <Gold.Id.Protein>
6NUR|6NUR_protein|mol2

> <Gold.PLP.Fitness>
42.0217

> <Gold.PLP.PLP>
-37.3090

> <Gold.PLP.part.hbond>
-2.0000

> <Gold.PLP.part.metal>
0.0000

> <Gold.PLP.part.buried>
-6.4689

> <Gold.PLP.part.nonpolar>
-30.1421

> <Gold.PLP.part.repulsive>
0.5253

> <Gold.PLP.ligand.clash>
0.0000

> <Gold.PLP.ligand.torsion>
0.5776

> <Gold.PLP.Chemscore.Hbond>
1.9440

> <Gold.PLP.Chemscore.CHOScore>
0.0000

> <Gold.PLP.Chemscore.Metal>
0.0000

> <Gold.Chemscore.Hbonds>
donor molecule, donor type, donor heavy atom, donor atom, acceptor molecule, acceptor atom, score
      L1  H     5    21       P1  8028  1.00
      L1  H     8    22       P1  8028  0.99

> <Gold.PLP.Chemscore.Internal.Correction>
0.0359

> <Gold.Rescore>
     Score         DG    S(hbond)    S(metal)    S(lipo)     H(rot)  DE(clash)    DE(int)     intcor
     15.70     -17.98       1.81        0.00      82.11       1.23       0.22       2.06       ----

> <Gold.Chemscore.Fitness>
15.7047

> <Gold.Chemscore.DG>
-17.9790

> <Gold.Chemscore.ZeroCoef>
-5.4800

> <Gold.Chemscore.Hbond>
1.8082

> <Gold.Chemscore.Metal>
0.0000

> <Gold.Chemscore.Lipo>
82.1060

> <Gold.Chemscore.Internal_Hbond>
0.0000

> <Gold.Chemscore.DEClash>
0.2158

> <Gold.Chemscore.DEInternal>
2.0586

> <Gold.Chemscore.Rot>
1.2292

> <Gold.Chemscore.Internal.Correction>
   9.000000E+99

> <Gold.Chemscore.Hbonds>
donor molecule, donor type, donor heavy atom, donor atom, acceptor molecule, acceptor atom, score
      L1  H     5    21       P1  8028  0.94
      L1  H     8    22       P1  8028  0.92

> <Gold.Chemscore.Hbond.Weighted>
-6.0393

> <Gold.Chemscore.Metal.Weighted>
-0.0000

> <Gold.Chemscore.Lipo.Weighted>
-9.6064

> <Gold.Chemscore.Internal_Hbond.Weighted>
0.0000

> <Gold.Chemscore.DEClash.Weighted>
0.2158

> <Gold.Chemscore.DEInternal.Weighted>
2.0586

> <Gold.Chemscore.Rot.Weighted>
3.1467

> <Gold.Chemscore.Internal.Correction.Weighted>
   9.000000E+99

> <Gold.Protein.RotatedTorsions>
[ 6907 6896 6895 6894 ] final  167.51 input  -60.11 | X-H torsion
[ 7974 7965 7964 7962 ] final   18.87 input  175.53 | X-H torsion
[ 8008 7997 7996 7995 ] final    5.61 input   59.86 | X-H torsion
[ 10167 10162 10161 10158 ] final -169.32 input  -65.29 | X-H torsion
[ 10718 10713 10712 10709 ] final  151.84 input   66.30 | X-H torsion
[ 10763 10752 10751 10750 ] final  138.97 input  -60.55 | X-H torsion
[ 11005 11000 10999 10996 ] final  122.68 input  -57.11 | X-H torsion

> <Gold.Protein.ActiveResidues>
 VAL166  LYS551  ARG553  GLY616  TRP617  ASP618  TYR619  PRO620  LYS621  CYS622 
 ASP623  PHE694  ASN695  SER759  ASP760  ASP761  ALA762  ILE779  LEU786  VAL792 
 PHE793  MET794  SER795  GLU796  ALA797  LYS798  CYS799  TRP800  GLU811  SER814 

> <Gold.Protein.RotatedAtoms>
  151.8621  133.3459  159.3707 H   0  0  0  0  0  0  0  0  0  0  0  0  # atno 6907 bound_to 6896
  150.7176  134.5196  159.5656 H   0  0  0  0  0  0  0  0  0  0  0  0  # atno 6908 bound_to 6896
  152.2711  134.7932  160.0465 H   0  0  0  0  0  0  0  0  0  0  0  0  # atno 6909 bound_to 6896
  146.2170  139.8395  142.8644 H   0  0  0  0  0  0  0  0  0  0  0  0  # atno 7974 bound_to 7965
  154.7305  140.2729  155.6460 H   0  0  0  0  0  0  0  0  0  0  0  0  # atno 8008 bound_to 7997
  156.2848  140.2716  156.1929 H   0  0  0  0  0  0  0  0  0  0  0  0  # atno 8009 bound_to 7997
  155.0388  140.0371  157.2491 H   0  0  0  0  0  0  0  0  0  0  0  0  # atno 8010 bound_to 7997
  139.5930  144.1173  152.1656 H   0  0  0  0  0  0  0  0  0  0  0  0  # atno 10167 bound_to 10162
  157.2655  131.0806  151.1636 H   0  0  0  0  0  0  0  0  0  0  0  0  # atno 10718 bound_to 10713
  153.8984  135.3025  155.3448 H   0  0  0  0  0  0  0  0  0  0  0  0  # atno 10763 bound_to 10752
  154.7682  135.4899  153.9600 H   0  0  0  0  0  0  0  0  0  0  0  0  # atno 10764 bound_to 10752
  153.1259  135.6793  153.9358 H   0  0  0  0  0  0  0  0  0  0  0  0  # atno 10765 bound_to 10752
  139.9279  134.9641  156.8145 H   0  0  0  0  0  0  0  0  0  0  0  0  # atno 11005 bound_to 11000
  145.2914  141.0168  143.3661 LP  0  0  0  0  0  0  0  0  0  0  0  0  # atno 17320 bound_to 7965
  144.9074  139.4571  143.6603 LP  0  0  0  0  0  0  0  0  0  0  0  0  # atno 17321 bound_to 7965
  140.0751  144.5747  150.7163 LP  0  0  0  0  0  0  0  0  0  0  0  0  # atno 17342 bound_to 10162
  140.7189  143.2569  151.4345 LP  0  0  0  0  0  0  0  0  0  0  0  0  # atno 17343 bound_to 10162
  157.3129  130.6898  149.6225 LP  0  0  0  0  0  0  0  0  0  0  0  0  # atno 17370 bound_to 10713
  155.9663  130.4358  150.5108 LP  0  0  0  0  0  0  0  0  0  0  0  0  # atno 17371 bound_to 10713
  140.6285  133.9928  155.7651 LP  0  0  0  0  0  0  0  0  0  0  0  0  # atno 17394 bound_to 11000
  141.0848  134.0007  157.3330 LP  0  0  0  0  0  0  0  0  0  0  0  0  # atno 17395 bound_to 11000

$$$$
