AV-unprocessed.smi:2787|AV-procd|sdf|10758|dock6
  -GOLD-   2272015193D 1   1.00000     0.00000
 Structure written by MMmdl.
 36 37  0  0  0  0  0  0  0  0  2 V2000
  147.6524  140.5019  152.7066 O   0  0  0  0  0  0  0  0  0  0  0  0
  148.0343  139.9252  153.9372 C   0  0  0  0  0  0  0  0  0  0  0  0
  148.9231  140.8937  154.7311 C   0  0  0  0  0  0  0  0  0  0  0  0
  149.2521  140.3860  156.1470 C   0  0  0  0  0  0  0  0  0  0  0  0
  150.1191  141.3237  156.9305 C   0  0  0  0  0  0  0  0  0  0  0  0
  150.1804  142.6816  156.8090 N   0  3  0  0  0  0  0  0  0  0  0  0
  151.1132  143.1976  157.7087 C   0  0  0  0  0  0  0  0  0  0  0  0
  151.5162  144.5072  157.9517 C   0  0  0  0  0  0  0  0  0  0  0  0
  152.4964  144.6928  158.9485 C   0  0  0  0  0  0  0  0  0  0  0  0
  153.0362  143.6013  159.6594 C   0  0  0  0  0  0  0  0  0  0  0  0
  152.6204  142.2781  159.4028 C   0  0  0  0  0  0  0  0  0  0  0  0
  151.6517  142.1024  158.4144 C   0  0  0  0  0  0  0  0  0  0  0  0
  151.0116  140.9683  157.8993 N   0  0  0  0  0  0  0  0  0  0  0  0
  151.3575  139.6345  158.4187 C   0  0  0  0  0  0  0  0  0  0  0  0
  152.8237  139.2428  158.1425 C   0  0  2  0  0  0  0  0  0  0  0  0
  153.0795  139.2968  156.7522 O   0  0  0  0  0  0  0  0  0  0  0  0
  153.1783  137.8398  158.6721 C   0  0  0  0  0  0  0  0  0  0  0  0
  152.8705  137.7462  159.9659 F   0  0  0  0  0  0  0  0  0  0  0  0
  152.4676  136.9245  158.0132 F   0  0  0  0  0  0  0  0  0  0  0  0
  154.4746  137.5780  158.5000 F   0  0  0  0  0  0  0  0  0  0  0  0
  148.3575  140.3866  152.0874 H   0  0  0  0  0  0  0  0  0  0  0  0
  147.1438  139.6578  154.5068 H   0  0  0  0  0  0  0  0  0  0  0  0
  148.5760  139.0013  153.7324 H   0  0  0  0  0  0  0  0  0  0  0  0
  149.8527  141.0387  154.1792 H   0  0  0  0  0  0  0  0  0  0  0  0
  148.4399  141.8704  154.7845 H   0  0  0  0  0  0  0  0  0  0  0  0
  148.3303  140.2233  156.7061 H   0  0  0  0  0  0  0  0  0  0  0  0
  149.7555  139.4206  156.0854 H   0  0  0  0  0  0  0  0  0  0  0  0
  151.1042  145.3452  157.4086 H   0  0  0  0  0  0  0  0  0  0  0  0
  152.8410  145.6921  159.1724 H   0  0  0  0  0  0  0  0  0  0  0  0
  153.7843  143.7819  160.4176 H   0  0  0  0  0  0  0  0  0  0  0  0
  153.0386  141.4512  159.9576 H   0  0  0  0  0  0  0  0  0  0  0  0
  151.1730  139.6504  159.4930 H   0  0  0  0  0  0  0  0  0  0  0  0
  150.6667  138.8982  158.0080 H   0  0  0  0  0  0  0  0  0  0  0  0
  153.4811  139.9706  158.6202 H   0  0  0  0  0  0  0  0  0  0  0  0
  152.2983  139.0275  156.2943 H   0  0  0  0  0  0  0  0  0  0  0  0
  149.6210  143.2144  156.1554 H   0  0  0  0  0  0  0  0  0  0  0  0
  1  2  1  0  0  0  0
  1 21  1  0  0  0  0
  2  3  1  0  0  0  0
  2 22  1  0  0  0  0
  2 23  1  0  0  0  0
  3  4  1  0  0  0  0
  3 24  1  0  0  0  0
  3 25  1  0  0  0  0
  4  5  1  0  0  0  0
  4 26  1  0  0  0  0
  4 27  1  0  0  0  0
  5 13  1  0  0  0  0
  5  6  2  0  0  0  0
  6  7  1  0  0  0  0
  6 36  1  0  0  0  0
  7 12  2  0  0  0  0
  7  8  1  0  0  0  0
  8  9  2  0  0  0  0
  8 28  1  0  0  0  0
  9 10  1  0  0  0  0
  9 29  1  0  0  0  0
 10 11  2  0  0  0  0
 10 30  1  0  0  0  0
 11 12  1  0  0  0  0
 11 31  1  0  0  0  0
 12 13  1  0  0  0  0
 13 14  1  0  0  0  0
 14 15  1  0  0  0  0
 14 32  1  0  0  0  0
 14 33  1  0  0  0  0
 15 16  1  0  0  0  0
 15 17  1  0  0  0  0
 15 34  1  0  0  0  0
 16 35  1  0  0  0  0
 17 18  1  0  0  0  0
 17 19  1  0  0  0  0
 17 20  1  0  0  0  0
M  CHG  1   6   1
M  END
> <s_m_source_file>
AV-unprocessed.smi

> <i_m_source_file_index>
2787

> <i_lp_mmshare_version>
43012

> <i_f3d_flags>
0

> <s_epik_input>
W09IXVtDSDJdW0NIMl1bQ0gyXWMobjEpbihbQ0gyXVtDQEhdKFtPSF0pQyhGKShGKUYpYyhjMTIpW2NIXVtjSF1bY0hdW2NIXTI=

> <s_epik_cmdline>
J2VwaWtfcHl0aG9uJywgJy1waCcsICc3LjAnLCAnLXRuJywgJzgnLCAnLW1hJywgJzIwMCcsICctbWV0YWxfYmluZGluZycsICctaW1hZScsICc8aW5maWxlLm1hZT4nLCAnLW9tYWUnLCAnPG91dGZpbGUubWFlPic=

> <r_epik_Ionization_Penalty>
0.964009

> <r_epik_Ionization_Penalty_Charging>
0.952215

> <r_epik_Ionization_Penalty_Neutral>
0.0117938

> <r_epik_State_Penalty>
1.09527

> <r_epik_Charging_Adjusted_Penalty>
2.04749

> <i_epik_Tot_Q>
1

> <i_epik_Tot_abs_Q>
1

> <r_epik_Metal_State_Penalty>
5.08046

> <b_epik_Metal_Only>
0

> <s_lp_Force_Field>
OPLS_2005

> <r_lp_Energy>
17.2873

> <b_lp_Chiralities_Consistent>
1

> <s_lp_Variant>
AV-unprocessed.smi:2787-3

> <Gold.Version>
5.8.1

> <Gold.Id.Protein>
6NUR|6NUR_protein|mol2

> <Gold.PLP.Fitness>
50.8121

> <Gold.PLP.PLP>
-39.5830

> <Gold.PLP.part.hbond>
-2.8553

> <Gold.PLP.part.metal>
0.0000

> <Gold.PLP.part.buried>
-4.5031

> <Gold.PLP.part.nonpolar>
-32.0629

> <Gold.PLP.part.repulsive>
0.0346

> <Gold.PLP.ligand.clash>
0.0000

> <Gold.PLP.ligand.torsion>
0.4259

> <Gold.PLP.Chemscore.Hbond>
4.0000

> <Gold.PLP.Chemscore.CHOScore>
0.0000

> <Gold.PLP.Chemscore.Metal>
0.0000

> <Gold.Chemscore.Hbonds>
donor molecule, donor type, donor heavy atom, donor atom, acceptor molecule, acceptor atom, score
      L1  H     1    21       P1  7957  1.00
      L1  H     6    36       P1  8028  2.00
      P1  H  7997  8009       L1    16  1.00

> <Gold.PLP.Chemscore.Internal.Correction>
0.0809

> <Gold.Rescore>
     Score         DG    S(hbond)    S(metal)    S(lipo)     H(rot)  DE(clash)    DE(int)     intcor
     17.68     -18.15       2.92        0.00     101.94       3.51       0.08       0.40       ----

> <Gold.Chemscore.Fitness>
17.6772

> <Gold.Chemscore.DG>
-18.1540

> <Gold.Chemscore.ZeroCoef>
-5.4800

> <Gold.Chemscore.Hbond>
2.9172

> <Gold.Chemscore.Metal>
0.0000

> <Gold.Chemscore.Lipo>
101.9417

> <Gold.Chemscore.Internal_Hbond>
0.0000

> <Gold.Chemscore.DEClash>
0.0811

> <Gold.Chemscore.DEInternal>
0.3958

> <Gold.Chemscore.Rot>
3.5143

> <Gold.Chemscore.Internal.Correction>
   9.000000E+99

> <Gold.Chemscore.Hbonds>
donor molecule, donor type, donor heavy atom, donor atom, acceptor molecule, acceptor atom, score
      L1  H     1    21       P1  7957  0.97
      L1  H     6    36       P1  8028  0.94
      P1  H  7997  8009       L1    16  0.88

> <Gold.Chemscore.Hbond.Weighted>
-9.7436

> <Gold.Chemscore.Metal.Weighted>
-0.0000

> <Gold.Chemscore.Lipo.Weighted>
-11.9272

> <Gold.Chemscore.Internal_Hbond.Weighted>
0.0000

> <Gold.Chemscore.DEClash.Weighted>
0.0811

> <Gold.Chemscore.DEInternal.Weighted>
0.3958

> <Gold.Chemscore.Rot.Weighted>
8.9967

> <Gold.Chemscore.Internal.Correction.Weighted>
   9.000000E+99

> <Gold.Protein.RotatedTorsions>
[ 6907 6896 6895 6894 ] final  -22.17 input  -60.11 | X-H torsion
[ 7974 7965 7964 7962 ] final  -27.52 input  175.53 | X-H torsion
[ 8008 7997 7996 7995 ] final -157.47 input   59.86 | X-H torsion
[ 10167 10162 10161 10158 ] final  -51.82 input  -65.29 | X-H torsion
[ 10718 10713 10712 10709 ] final  -78.77 input   66.30 | X-H torsion
[ 10763 10752 10751 10750 ] final   96.97 input  -60.55 | X-H torsion
[ 11005 11000 10999 10996 ] final -170.36 input  -57.11 | X-H torsion

> <Gold.Protein.ActiveResidues>
 VAL166  LYS551  ARG553  GLY616  TRP617  ASP618  TYR619  PRO620  LYS621  CYS622 
 ASP623  PHE694  ASN695  SER759  ASP760  ASP761  ALA762  ILE779  LEU786  VAL792 
 PHE793  MET794  SER795  GLU796  ALA797  LYS798  CYS799  TRP800  GLU811  SER814 

> <Gold.Protein.RotatedAtoms>
  151.2225  135.0524  159.8955 H   0  0  0  0  0  0  0  0  0  0  0  0  # atno 6907 bound_to 6896
  152.5414  134.0624  159.8168 H   0  0  0  0  0  0  0  0  0  0  0  0  # atno 6908 bound_to 6896
  151.0793  133.5355  159.2653 H   0  0  0  0  0  0  0  0  0  0  0  0  # atno 6909 bound_to 6896
  146.1352  140.5163  142.8676 H   0  0  0  0  0  0  0  0  0  0  0  0  # atno 7974 bound_to 7965
  155.7329  140.0804  157.2281 H   0  0  0  0  0  0  0  0  0  0  0  0  # atno 8008 bound_to 7997
  154.4031  140.1592  156.2584 H   0  0  0  0  0  0  0  0  0  0  0  0  # atno 8009 bound_to 7997
  155.9092  140.3405  155.6088 H   0  0  0  0  0  0  0  0  0  0  0  0  # atno 8010 bound_to 7997
  140.6569  143.2606  151.4559 H   0  0  0  0  0  0  0  0  0  0  0  0  # atno 10167 bound_to 10162
  156.0109  130.4527  150.3546 H   0  0  0  0  0  0  0  0  0  0  0  0  # atno 10718 bound_to 10713
  153.2713  135.4200  155.0990 H   0  0  0  0  0  0  0  0  0  0  0  0  # atno 10763 bound_to 10752
  154.8457  135.3473  154.6240 H   0  0  0  0  0  0  0  0  0  0  0  0  # atno 10764 bound_to 10752
  153.6660  135.7046  153.5219 H   0  0  0  0  0  0  0  0  0  0  0  0  # atno 10765 bound_to 10752
  140.5203  134.5715  157.5046 H   0  0  0  0  0  0  0  0  0  0  0  0  # atno 11005 bound_to 11000
  144.7732  140.5682  143.6656 LP  0  0  0  0  0  0  0  0  0  0  0  0  # atno 17320 bound_to 7965
  145.5173  139.1477  143.3572 LP  0  0  0  0  0  0  0  0  0  0  0  0  # atno 17321 bound_to 7965
  139.5793  144.1746  152.1947 LP  0  0  0  0  0  0  0  0  0  0  0  0  # atno 17342 bound_to 10162
  140.1066  144.5493  150.6953 LP  0  0  0  0  0  0  0  0  0  0  0  0  # atno 17343 bound_to 10162
  157.1637  131.0351  151.2828 LP  0  0  0  0  0  0  0  0  0  0  0  0  # atno 17370 bound_to 10713
  157.4289  130.7479  149.6973 LP  0  0  0  0  0  0  0  0  0  0  0  0  # atno 17371 bound_to 10713
  139.9609  134.7454  156.0239 LP  0  0  0  0  0  0  0  0  0  0  0  0  # atno 17394 bound_to 11000
  141.1337  133.6580  156.3536 LP  0  0  0  0  0  0  0  0  0  0  0  0  # atno 17395 bound_to 11000

$$$$
