AV-unprocessed.smi:2862|AV-procd|sdf|11009|dock5
  -GOLD-   2272015473D 1   1.00000     0.00000
 Structure written by MMmdl.
 52 54  0  0  0  0  0  0  0  0  1 V2000
  143.8011  137.0468  154.9916 C   0  0  0  0  0  0  0  0  0  0  0  0
  143.7129  137.4203  153.5018 C   0  0  1  0  0  0  0  0  0  0  0  0
  144.9384  138.0766  153.0490 N   0  0  0  0  0  0  0  0  0  0  0  0
  146.1865  137.5725  153.0538 C   0  0  0  0  0  0  0  0  0  0  0  0
  146.4524  136.4416  153.4582 O   0  0  0  0  0  0  0  0  0  0  0  0
  147.3305  138.4591  152.5298 C   0  0  0  0  0  0  0  0  0  0  0  0
  147.6915  139.5927  153.4020 N   0  0  0  0  0  0  0  0  0  0  0  0
  146.7741  140.6605  153.4644 C   0  0  0  0  0  0  0  0  0  0  0  0
  146.9893  141.7430  154.2269 C   0  0  0  0  0  0  0  0  0  0  0  0
  148.2035  141.8031  155.0023 C   0  0  0  0  0  0  0  0  0  0  0  0
  149.0776  140.7710  154.9768 C   0  0  0  0  0  0  0  0  0  0  0  0
  150.3540  140.8069  155.7034 C   0  0  0  0  0  0  0  0  0  0  0  0
  151.4260  140.5117  155.1711 O   0  0  0  0  0  0  0  0  0  0  0  0
  150.2902  141.2240  157.0013 N   0  0  0  0  0  0  0  0  0  0  0  0
  149.0598  141.1758  157.8099 C   0  0  0  0  0  0  0  0  0  0  0  0
  151.4889  141.6038  157.7812 C   0  0  2  0  0  0  0  0  0  0  0  0
  151.8801  140.5140  158.7996 C   0  0  0  0  0  0  0  0  0  0  0  0
  151.4111  142.9739  158.4426 C   0  0  0  0  0  0  0  0  0  0  0  0
  151.8013  144.2267  157.6959 C   0  0  0  0  0  0  0  0  0  0  0  0
  152.6650  143.7209  158.8295 C   0  0  0  0  0  0  0  0  0  0  0  0
  148.8570  139.5816  154.1224 C   0  0  0  0  0  0  0  0  0  0  0  0
  149.6305  138.6219  154.0575 O   0  0  0  0  0  0  0  0  0  0  0  0
  143.2677  136.2411  152.6502 C   0  0  0  0  0  0  0  0  0  0  0  0
  144.1157  134.9973  152.5390 C   0  0  0  0  0  0  0  0  0  0  0  0
  143.9607  135.9176  151.3485 C   0  0  0  0  0  0  0  0  0  0  0  0
  142.8397  136.6878  155.3599 H   0  0  0  0  0  0  0  0  0  0  0  0
  144.0828  137.9084  155.5977 H   0  0  0  0  0  0  0  0  0  0  0  0
  144.5339  136.2594  155.1692 H   0  0  0  0  0  0  0  0  0  0  0  0
  142.9400  138.1848  153.4151 H   0  0  0  0  0  0  0  0  0  0  0  0
  144.8278  139.0158  152.6954 H   0  0  0  0  0  0  0  0  0  0  0  0
  148.2024  137.8277  152.3495 H   0  0  0  0  0  0  0  0  0  0  0  0
  147.0443  138.8226  151.5420 H   0  0  0  0  0  0  0  0  0  0  0  0
  145.8861  140.5393  152.8609 H   0  0  0  0  0  0  0  0  0  0  0  0
  146.2699  142.5478  154.2621 H   0  0  0  0  0  0  0  0  0  0  0  0
  148.4083  142.6861  155.5906 H   0  0  0  0  0  0  0  0  0  0  0  0
  148.3440  140.4354  157.4505 H   0  0  0  0  0  0  0  0  0  0  0  0
  148.5729  142.1512  157.8192 H   0  0  0  0  0  0  0  0  0  0  0  0
  149.2683  140.9004  158.8441 H   0  0  0  0  0  0  0  0  0  0  0  0
  152.3348  141.6450  157.0928 H   0  0  0  0  0  0  0  0  0  0  0  0
  152.8554  140.7280  159.2376 H   0  0  0  0  0  0  0  0  0  0  0  0
  151.9457  139.5358  158.3221 H   0  0  0  0  0  0  0  0  0  0  0  0
  151.1702  140.4381  159.6227 H   0  0  0  0  0  0  0  0  0  0  0  0
  150.5843  143.0816  159.1416 H   0  0  0  0  0  0  0  0  0  0  0  0
  152.1879  144.1176  156.6848 H   0  0  0  0  0  0  0  0  0  0  0  0
  151.2076  145.1209  157.8739 H   0  0  0  0  0  0  0  0  0  0  0  0
  152.6481  144.2784  159.7637 H   0  0  0  0  0  0  0  0  0  0  0  0
  153.6233  143.2759  158.5693 H   0  0  0  0  0  0  0  0  0  0  0  0
  142.1913  136.0805  152.6499 H   0  0  0  0  0  0  0  0  0  0  0  0
  145.0775  134.9920  153.0481 H   0  0  0  0  0  0  0  0  0  0  0  0
  143.5990  134.0401  152.5077 H   0  0  0  0  0  0  0  0  0  0  0  0
  143.3426  135.5713  150.5226 H   0  0  0  0  0  0  0  0  0  0  0  0
  144.8203  136.5225  151.0664 H   0  0  0  0  0  0  0  0  0  0  0  0
  1  2  1  0  0  0  0
  1 26  1  0  0  0  0
  1 27  1  0  0  0  0
  1 28  1  0  0  0  0
  2  3  1  0  0  0  0
  2 23  1  0  0  0  0
  2 29  1  0  0  0  0
  3  4  1  0  0  0  0
  3 30  1  0  0  0  0
  4  5  2  0  0  0  0
  4  6  1  0  0  0  0
  6  7  1  0  0  0  0
  6 31  1  0  0  0  0
  6 32  1  0  0  0  0
  7 21  1  0  0  0  0
  7  8  1  0  0  0  0
  8  9  2  0  0  0  0
  8 33  1  0  0  0  0
  9 10  1  0  0  0  0
  9 34  1  0  0  0  0
 10 11  2  0  0  0  0
 10 35  1  0  0  0  0
 11 12  1  0  0  0  0
 11 21  1  0  0  0  0
 12 13  2  0  0  0  0
 12 14  1  0  0  0  0
 14 15  1  0  0  0  0
 14 16  1  0  0  0  0
 15 36  1  0  0  0  0
 15 37  1  0  0  0  0
 15 38  1  0  0  0  0
 16 17  1  0  0  0  0
 16 18  1  0  0  0  0
 16 39  1  0  0  0  0
 17 40  1  0  0  0  0
 17 41  1  0  0  0  0
 17 42  1  0  0  0  0
 18 20  1  0  0  0  0
 18 19  1  0  0  0  0
 18 43  1  0  0  0  0
 19 20  1  0  0  0  0
 19 44  1  0  0  0  0
 19 45  1  0  0  0  0
 20 46  1  0  0  0  0
 20 47  1  0  0  0  0
 21 22  2  0  0  0  0
 23 25  1  0  0  0  0
 23 24  1  0  0  0  0
 23 48  1  0  0  0  0
 24 25  1  0  0  0  0
 24 49  1  0  0  0  0
 24 50  1  0  0  0  0
 25 51  1  0  0  0  0
 25 52  1  0  0  0  0
M  END
> <s_m_source_file>
AV-unprocessed.smi

> <i_m_source_file_index>
2862

> <i_lp_mmshare_version>
43012

> <i_f3d_flags>
0

> <s_epik_input>
W0NIMl0xW0NIMl1bQ0hdMVtDQEhdKFtDSDNdKVtOSF1DKD1PKVtDSDJdbjJbY0hdW2NIXVtjSF1jKGMyPU8pQyg9TylOKFtDSDNdKVtDQEhdKFtDSDNdKVtDSF0zW0NIMl1bQ0gyXTM=

> <s_epik_cmdline>
J2VwaWtfcHl0aG9uJywgJy1waCcsICc3LjAnLCAnLXRuJywgJzgnLCAnLW1hJywgJzIwMCcsICctbWV0YWxfYmluZGluZycsICctaW1hZScsICc8aW5maWxlLm1hZT4nLCAnLW9tYWUnLCAnPG91dGZpbGUubWFlPic=

> <r_lp_tautomer_probability>
1

> <r_epik_Ionization_Penalty>
4.00841e-08

> <r_epik_Ionization_Penalty_Charging>
2.07773e-08

> <r_epik_Ionization_Penalty_Neutral>
1.93069e-08

> <r_epik_State_Penalty>
-0

> <r_epik_Charging_Adjusted_Penalty>
2.07773e-08

> <i_epik_Tot_Q>
0

> <i_epik_Tot_abs_Q>
0

> <r_epik_Metal_State_Penalty>
-0

> <b_epik_Metal_Only>
0

> <s_lp_Force_Field>
OPLS_2005

> <r_lp_Energy>
60.0482

> <b_lp_Chiralities_Consistent>
1

> <s_lp_Variant>
AV-unprocessed.smi:2862-2

> <Gold.Version>
5.8.1

> <Gold.Id.Protein>
6NUR|6NUR_protein|mol2

> <Gold.PLP.Fitness>
50.0052

> <Gold.PLP.PLP>
-42.1347

> <Gold.PLP.part.hbond>
-2.0000

> <Gold.PLP.part.metal>
0.0000

> <Gold.PLP.part.buried>
0.2097

> <Gold.PLP.part.nonpolar>
-40.2210

> <Gold.PLP.part.repulsive>
0.3470

> <Gold.PLP.ligand.clash>
0.0000

> <Gold.PLP.ligand.torsion>
2.5604

> <Gold.PLP.Chemscore.Hbond>
1.8560

> <Gold.PLP.Chemscore.CHOScore>
1.0000

> <Gold.PLP.Chemscore.Metal>
0.0000

> <Gold.Chemscore.Hbonds>
donor molecule, donor type, donor heavy atom, donor atom, acceptor molecule, acceptor atom, score
      L1  H     3    30       P1 10175  0.93
      P1  H  7989  7998       L1    13  0.88
      L1  C     8    33       P1 10175  1.00

> <Gold.PLP.Chemscore.Internal.Correction>
4.4233

> <Gold.Rescore>
     Score         DG    S(hbond)    S(metal)    S(lipo)     H(rot)  DE(clash)    DE(int)     intcor
     12.20     -18.63       1.74        0.00     100.59       1.73       1.40       5.03       ----

> <Gold.Chemscore.Fitness>
12.1994

> <Gold.Chemscore.DG>
-18.6251

> <Gold.Chemscore.ZeroCoef>
-5.4800

> <Gold.Chemscore.Hbond>
1.7418

> <Gold.Chemscore.Metal>
0.0000

> <Gold.Chemscore.Lipo>
100.5876

> <Gold.Chemscore.Internal_Hbond>
0.0000

> <Gold.Chemscore.DEClash>
1.3964

> <Gold.Chemscore.DEInternal>
5.0293

> <Gold.Chemscore.Rot>
1.7348

> <Gold.Chemscore.Internal.Correction>
   9.000000E+99

> <Gold.Chemscore.Hbonds>
donor molecule, donor type, donor heavy atom, donor atom, acceptor molecule, acceptor atom, score
      L1  H     3    30       P1 10175  0.90
      P1  H  7989  7998       L1    13  0.84

> <Gold.Chemscore.Hbond.Weighted>
-5.8175

> <Gold.Chemscore.Metal.Weighted>
-0.0000

> <Gold.Chemscore.Lipo.Weighted>
-11.7687

> <Gold.Chemscore.Internal_Hbond.Weighted>
0.0000

> <Gold.Chemscore.DEClash.Weighted>
1.3964

> <Gold.Chemscore.DEInternal.Weighted>
5.0293

> <Gold.Chemscore.Rot.Weighted>
4.4412

> <Gold.Chemscore.Internal.Correction.Weighted>
   9.000000E+99

> <Gold.Protein.RotatedTorsions>
[ 6907 6896 6895 6894 ] final   36.27 input  -60.11 | X-H torsion
[ 7974 7965 7964 7962 ] final  -60.12 input  175.53 | X-H torsion
[ 8008 7997 7996 7995 ] final  -80.27 input   59.86 | X-H torsion
[ 10167 10162 10161 10158 ] final  -69.23 input  -65.29 | X-H torsion
[ 10718 10713 10712 10709 ] final  134.54 input   66.30 | X-H torsion
[ 10763 10752 10751 10750 ] final -106.89 input  -60.55 | X-H torsion
[ 11005 11000 10999 10996 ] final   20.96 input  -57.11 | X-H torsion

> <Gold.Protein.ActiveResidues>
 VAL166  LYS551  ARG553  GLY616  TRP617  ASP618  TYR619  PRO620  LYS621  CYS622 
 ASP623  PHE694  ASN695  SER759  ASP760  ASP761  ALA762  ILE779  LEU786  VAL792 
 PHE793  MET794  SER795  GLU796  ALA797  LYS798  CYS799  TRP800  GLU811  SER814 

> <Gold.Protein.RotatedAtoms>
  152.1275  134.9160  160.0560 H   0  0  0  0  0  0  0  0  0  0  0  0  # atno 6907 bound_to 6896
  152.0277  133.3919  159.4292 H   0  0  0  0  0  0  0  0  0  0  0  0  # atno 6908 bound_to 6896
  150.6853  134.3477  159.4939 H   0  0  0  0  0  0  0  0  0  0  0  0  # atno 6909 bound_to 6896
  145.8193  140.8550  143.0141 H   0  0  0  0  0  0  0  0  0  0  0  0  # atno 7974 bound_to 7965
  154.5866  140.0665  156.9180 H   0  0  0  0  0  0  0  0  0  0  0  0  # atno 8008 bound_to 7997
  155.2368  140.3341  155.4278 H   0  0  0  0  0  0  0  0  0  0  0  0  # atno 8009 bound_to 7997
  156.2227  140.1806  156.7422 H   0  0  0  0  0  0  0  0  0  0  0  0  # atno 8010 bound_to 7997
  140.5446  143.2313  151.7025 H   0  0  0  0  0  0  0  0  0  0  0  0  # atno 10167 bound_to 10162
  157.4662  131.1077  150.9859 H   0  0  0  0  0  0  0  0  0  0  0  0  # atno 10718 bound_to 10713
  154.8041  135.4695  154.0348 H   0  0  0  0  0  0  0  0  0  0  0  0  # atno 10763 bound_to 10752
  153.1831  135.6843  153.8459 H   0  0  0  0  0  0  0  0  0  0  0  0  # atno 10764 bound_to 10752
  153.8002  135.3231  155.3367 H   0  0  0  0  0  0  0  0  0  0  0  0  # atno 10765 bound_to 10752
  140.3969  134.1760  155.7663 H   0  0  0  0  0  0  0  0  0  0  0  0  # atno 11005 bound_to 11000
  144.6749  140.0509  143.7479 LP  0  0  0  0  0  0  0  0  0  0  0  0  # atno 17320 bound_to 7965
  145.9693  139.2857  143.1109 LP  0  0  0  0  0  0  0  0  0  0  0  0  # atno 17321 bound_to 7965
  139.5002  144.3914  152.0275 LP  0  0  0  0  0  0  0  0  0  0  0  0  # atno 17342 bound_to 10162
  140.3026  144.3629  150.6056 LP  0  0  0  0  0  0  0  0  0  0  0  0  # atno 17343 bound_to 10162
  157.0639  130.5836  149.5390 LP  0  0  0  0  0  0  0  0  0  0  0  0  # atno 17370 bound_to 10713
  156.0052  130.5137  150.7803 LP  0  0  0  0  0  0  0  0  0  0  0  0  # atno 17371 bound_to 10713
  141.1871  133.8288  157.1045 LP  0  0  0  0  0  0  0  0  0  0  0  0  # atno 17394 bound_to 11000
  140.0365  134.9875  157.0881 LP  0  0  0  0  0  0  0  0  0  0  0  0  # atno 17395 bound_to 11000

$$$$
