AV-unprocessed.smi:232|AV-procd|sdf|1767|dock6
  -GOLD-   2262020303D 1   1.00000     0.00000
 Structure written by MMmdl.
 52 55  0  0  0  0  0  0  0  0  1 V2000
  150.9702  145.0781  159.4143 C   0  0  0  0  0  0  0  0  0  0  0  0
  151.5769  143.8740  158.6808 C   0  0  0  0  0  0  0  0  0  0  0  0
  151.8942  142.6462  159.5650 C   0  0  2  0  0  0  0  0  0  0  0  0
  152.7865  143.0240  160.7505 C   0  0  0  0  0  0  0  0  0  0  0  0
  153.4369  141.6988  161.1273 C   0  0  0  0  0  0  0  0  0  0  0  0
  153.6322  140.9902  159.7803 C   0  0  1  0  0  0  0  0  0  0  0  0
  153.5616  139.4550  159.9281 C   0  0  0  0  0  0  0  0  0  0  0  0
  152.6439  141.5936  158.8784 N   0  0  0  0  0  0  0  0  0  0  0  0
  152.0641  140.8219  157.9287 C   0  0  0  0  0  0  0  0  0  0  0  0
  152.8133  139.9308  157.2284 N   0  0  0  0  0  0  0  0  0  0  0  0
  152.2468  139.1850  156.2751 C   0  0  0  0  0  0  0  0  0  0  0  0
  150.9767  139.1781  155.8645 N   0  0  0  0  0  0  0  0  0  0  0  0
  150.2249  140.0761  156.5641 C   0  0  0  0  0  0  0  0  0  0  0  0
  150.6854  140.9280  157.6056 C   0  0  0  0  0  0  0  0  0  0  0  0
  149.6381  141.7016  158.0891 N   0  0  0  0  0  0  0  0  0  0  0  0
  148.6142  141.3303  157.3701 C   0  0  0  0  0  0  0  0  0  0  0  0
  148.8820  140.3750  156.4147 N   0  0  0  0  0  0  0  0  0  0  0  0
  147.9352  139.7914  155.4804 C   0  0  0  0  0  0  0  0  0  0  0  0
  147.3601  140.8042  154.4632 C   0  0  2  0  0  0  0  0  0  0  0  0
  148.2738  141.8820  154.4407 O   0  0  0  0  0  0  0  0  0  0  0  0
  145.9726  141.3896  154.8171 C   0  0  2  0  0  0  0  0  0  0  0  0
  145.4766  142.5400  153.9345 C   0  0  0  0  0  0  0  0  0  0  0  0
  144.5500  143.3362  154.8397 C   0  0  0  0  0  0  0  0  0  0  0  0
  144.8577  142.8043  156.2389 C   0  0  0  0  0  0  0  0  0  0  0  0
  146.0431  142.0404  156.0782 O   0  0  0  0  0  0  0  0  0  0  0  0
  150.9175  145.9426  158.7526 H   0  0  0  0  0  0  0  0  0  0  0  0
  151.5716  145.3587  160.2791 H   0  0  0  0  0  0  0  0  0  0  0  0
  149.9560  144.8747  159.7554 H   0  0  0  0  0  0  0  0  0  0  0  0
  150.9258  143.5817  157.8560 H   0  0  0  0  0  0  0  0  0  0  0  0
  152.5074  144.2092  158.2214 H   0  0  0  0  0  0  0  0  0  0  0  0
  150.9675  142.2257  159.9584 H   0  0  0  0  0  0  0  0  0  0  0  0
  153.5574  143.7305  160.4387 H   0  0  0  0  0  0  0  0  0  0  0  0
  152.2297  143.4735  161.5730 H   0  0  0  0  0  0  0  0  0  0  0  0
  154.3699  141.8242  161.6773 H   0  0  0  0  0  0  0  0  0  0  0  0
  152.7506  141.1326  161.7590 H   0  0  0  0  0  0  0  0  0  0  0  0
  154.6130  141.2587  159.3865 H   0  0  0  0  0  0  0  0  0  0  0  0
  154.2797  139.1076  160.6711 H   0  0  0  0  0  0  0  0  0  0  0  0
  153.7974  138.9434  158.9951 H   0  0  0  0  0  0  0  0  0  0  0  0
  152.5716  139.1298  160.2499 H   0  0  0  0  0  0  0  0  0  0  0  0
  152.9068  138.4986  155.7658 H   0  0  0  0  0  0  0  0  0  0  0  0
  147.6305  141.7544  157.5105 H   0  0  0  0  0  0  0  0  0  0  0  0
  148.4098  138.9586  154.9596 H   0  0  0  0  0  0  0  0  0  0  0  0
  147.1277  139.3621  156.0756 H   0  0  0  0  0  0  0  0  0  0  0  0
  147.3366  140.3593  153.4678 H   0  0  0  0  0  0  0  0  0  0  0  0
  147.9575  142.5561  155.0226 H   0  0  0  0  0  0  0  0  0  0  0  0
  145.2163  140.6025  154.8528 H   0  0  0  0  0  0  0  0  0  0  0  0
  146.3114  143.1733  153.6325 H   0  0  0  0  0  0  0  0  0  0  0  0
  144.9711  142.1912  153.0344 H   0  0  0  0  0  0  0  0  0  0  0  0
  144.7572  144.4040  154.7610 H   0  0  0  0  0  0  0  0  0  0  0  0
  143.5013  143.1768  154.5866 H   0  0  0  0  0  0  0  0  0  0  0  0
  144.9971  143.6005  156.9707 H   0  0  0  0  0  0  0  0  0  0  0  0
  144.0549  142.1539  156.5892 H   0  0  0  0  0  0  0  0  0  0  0  0
  1  2  1  0  0  0  0
  1 26  1  0  0  0  0
  1 27  1  0  0  0  0
  1 28  1  0  0  0  0
  2  3  1  0  0  0  0
  2 29  1  0  0  0  0
  2 30  1  0  0  0  0
  3  8  1  0  0  0  0
  3  4  1  0  0  0  0
  3 31  1  0  0  0  0
  4  5  1  0  0  0  0
  4 32  1  0  0  0  0
  4 33  1  0  0  0  0
  5  6  1  0  0  0  0
  5 34  1  0  0  0  0
  5 35  1  0  0  0  0
  6  7  1  0  0  0  0
  6  8  1  0  0  0  0
  6 36  1  0  0  0  0
  7 37  1  0  0  0  0
  7 38  1  0  0  0  0
  7 39  1  0  0  0  0
  8  9  1  0  0  0  0
  9 14  1  0  0  0  0
  9 10  2  0  0  0  0
 10 11  1  0  0  0  0
 11 12  2  0  0  0  0
 11 40  1  0  0  0  0
 12 13  1  0  0  0  0
 13 17  1  0  0  0  0
 13 14  2  0  0  0  0
 14 15  1  0  0  0  0
 15 16  2  0  0  0  0
 16 17  1  0  0  0  0
 16 41  1  0  0  0  0
 17 18  1  0  0  0  0
 18 19  1  0  0  0  0
 18 42  1  0  0  0  0
 18 43  1  0  0  0  0
 19 20  1  0  0  0  0
 19 21  1  0  0  0  0
 19 44  1  0  0  0  0
 20 45  1  0  0  0  0
 21 25  1  0  0  0  0
 21 22  1  0  0  0  0
 21 46  1  0  0  0  0
 22 23  1  0  0  0  0
 22 47  1  0  0  0  0
 22 48  1  0  0  0  0
 23 24  1  0  0  0  0
 23 49  1  0  0  0  0
 23 50  1  0  0  0  0
 24 25  1  0  0  0  0
 24 51  1  0  0  0  0
 24 52  1  0  0  0  0
M  END
> <s_m_source_file>
AV-unprocessed.smi

> <i_m_source_file_index>
232

> <i_lp_mmshare_version>
43012

> <i_f3d_flags>
0

> <s_epik_input>
W0NIM11bQ0gyXVtDQEBIXTFbQ0gyXVtDSDJdW0NAQEhdKFtDSDNdKU4xYyhuW2NIXW4yKWMoYzIzKW5bY0hdbjNbQ0gyXVtDQEhdKFtPSF0pW0NAQEhdNFtDSDJdW0NIMl1bQ0gyXU80

> <s_epik_cmdline>
J2VwaWtfcHl0aG9uJywgJy1waCcsICc3LjAnLCAnLXRuJywgJzgnLCAnLW1hJywgJzIwMCcsICctbWV0YWxfYmluZGluZycsICctaW1hZScsICc8aW5maWxlLm1hZT4nLCAnLW9tYWUnLCAnPG91dGZpbGUubWFlPic=

> <r_lp_tautomer_probability>
1

> <r_epik_Ionization_Penalty>
0.00258048

> <r_epik_Ionization_Penalty_Charging>
0

> <r_epik_Ionization_Penalty_Neutral>
0.00258048

> <r_epik_State_Penalty>
0.00168551

> <r_epik_Charging_Adjusted_Penalty>
0.00168551

> <i_epik_Tot_Q>
0

> <i_epik_Tot_abs_Q>
0

> <r_epik_Metal_State_Penalty>
-0

> <b_epik_Metal_Only>
0

> <s_lp_Force_Field>
OPLS_2005

> <r_lp_Energy>
58.3797

> <b_lp_Chiralities_Consistent>
1

> <s_lp_Variant>
AV-unprocessed.smi:232-1

> <Gold.Version>
5.8.1

> <Gold.Id.Protein>
6NUR|6NUR_protein|mol2

> <Gold.PLP.Fitness>
56.3930

> <Gold.PLP.PLP>
-51.4030

> <Gold.PLP.part.hbond>
-3.0000

> <Gold.PLP.part.metal>
0.0000

> <Gold.PLP.part.buried>
-7.9733

> <Gold.PLP.part.nonpolar>
-40.5441

> <Gold.PLP.part.repulsive>
0.2757

> <Gold.PLP.ligand.clash>
0.0000

> <Gold.PLP.ligand.torsion>
0.9377

> <Gold.PLP.Chemscore.Hbond>
2.1027

> <Gold.PLP.Chemscore.CHOScore>
0.0000

> <Gold.PLP.Chemscore.Metal>
0.0000

> <Gold.Chemscore.Hbonds>
donor molecule, donor type, donor heavy atom, donor atom, acceptor molecule, acceptor atom, score
      L1  H    20    45       P1  8028  0.03
      P1  H  7997  8008       L1    10  1.00

> <Gold.PLP.Chemscore.Internal.Correction>
0.5572

> <Gold.Rescore>
     Score         DG    S(hbond)    S(metal)    S(lipo)     H(rot)  DE(clash)    DE(int)     intcor
     13.02     -18.98       1.77        0.00     112.55       2.18       0.35       5.61       ----

> <Gold.Chemscore.Fitness>
13.0179

> <Gold.Chemscore.DG>
-18.9838

> <Gold.Chemscore.ZeroCoef>
-5.4800

> <Gold.Chemscore.Hbond>
1.7693

> <Gold.Chemscore.Metal>
0.0000

> <Gold.Chemscore.Lipo>
112.5517

> <Gold.Chemscore.Internal_Hbond>
0.0000

> <Gold.Chemscore.DEClash>
0.3533

> <Gold.Chemscore.DEInternal>
5.6126

> <Gold.Chemscore.Rot>
2.1775

> <Gold.Chemscore.Internal.Correction>
   9.000000E+99

> <Gold.Chemscore.Hbonds>
donor molecule, donor type, donor heavy atom, donor atom, acceptor molecule, acceptor atom, score
      L1  H    20    45       P1  8028  0.05
      P1  H  7997  8008       L1    10  0.30

> <Gold.Chemscore.Hbond.Weighted>
-5.9096

> <Gold.Chemscore.Metal.Weighted>
-0.0000

> <Gold.Chemscore.Lipo.Weighted>
-13.1686

> <Gold.Chemscore.Internal_Hbond.Weighted>
0.0000

> <Gold.Chemscore.DEClash.Weighted>
0.3533

> <Gold.Chemscore.DEInternal.Weighted>
5.6126

> <Gold.Chemscore.Rot.Weighted>
5.5744

> <Gold.Chemscore.Internal.Correction.Weighted>
   9.000000E+99

> <Gold.Protein.RotatedTorsions>
[ 6907 6896 6895 6894 ] final  -28.80 input  -60.11 | X-H torsion
[ 7974 7965 7964 7962 ] final -146.23 input  175.53 | X-H torsion
[ 8008 7997 7996 7995 ] final  -58.07 input   59.86 | X-H torsion
[ 10167 10162 10161 10158 ] final   20.37 input  -65.29 | X-H torsion
[ 10718 10713 10712 10709 ] final  105.31 input   66.30 | X-H torsion
[ 10763 10752 10751 10750 ] final -107.79 input  -60.55 | X-H torsion
[ 11005 11000 10999 10996 ] final  101.66 input  -57.11 | X-H torsion

> <Gold.Protein.ActiveResidues>
 VAL166  LYS551  ARG553  GLY616  TRP617  ASP618  TYR619  PRO620  LYS621  CYS622 
 ASP623  PHE694  ASN695  SER759  ASP760  ASP761  ALA762  ILE779  LEU786  VAL792 
 PHE793  MET794  SER795  GLU796  ALA797  LYS798  CYS799  TRP800  GLU811  SER814 

> <Gold.Protein.RotatedAtoms>
  151.1279  135.0114  159.8568 H   0  0  0  0  0  0  0  0  0  0  0  0  # atno 6907 bound_to 6896
  152.5450  134.1645  159.8581 H   0  0  0  0  0  0  0  0  0  0  0  0  # atno 6908 bound_to 6896
  151.1709  133.4740  159.2627 H   0  0  0  0  0  0  0  0  0  0  0  0  # atno 6909 bound_to 6896
  144.8173  140.5482  143.5602 H   0  0  0  0  0  0  0  0  0  0  0  0  # atno 7974 bound_to 7965
  154.4293  140.1092  156.5898 H   0  0  0  0  0  0  0  0  0  0  0  0  # atno 8008 bound_to 7997
  155.6024  140.3493  155.4579 H   0  0  0  0  0  0  0  0  0  0  0  0  # atno 8009 bound_to 7997
  156.0163  140.1230  157.0392 H   0  0  0  0  0  0  0  0  0  0  0  0  # atno 8010 bound_to 7997
  140.5509  143.9511  150.6577 H   0  0  0  0  0  0  0  0  0  0  0  0  # atno 10167 bound_to 10162
  157.6710  131.0825  150.5838 H   0  0  0  0  0  0  0  0  0  0  0  0  # atno 10718 bound_to 10713
  154.8096  135.4662  154.0482 H   0  0  0  0  0  0  0  0  0  0  0  0  # atno 10763 bound_to 10752
  153.1923  135.6857  153.8343 H   0  0  0  0  0  0  0  0  0  0  0  0  # atno 10764 bound_to 10752
  153.7856  135.3250  155.3349 H   0  0  0  0  0  0  0  0  0  0  0  0  # atno 10765 bound_to 10752
  139.8774  134.9192  156.4941 H   0  0  0  0  0  0  0  0  0  0  0  0  # atno 11005 bound_to 11000
  145.5185  139.1477  143.3565 LP  0  0  0  0  0  0  0  0  0  0  0  0  # atno 17320 bound_to 7965
  146.2477  140.5326  142.8907 LP  0  0  0  0  0  0  0  0  0  0  0  0  # atno 17321 bound_to 7965
  140.2937  143.3307  152.1038 LP  0  0  0  0  0  0  0  0  0  0  0  0  # atno 17342 bound_to 10162
  139.5027  144.6740  151.6174 LP  0  0  0  0  0  0  0  0  0  0  0  0  # atno 17343 bound_to 10162
  156.6138  130.4387  149.5848 LP  0  0  0  0  0  0  0  0  0  0  0  0  # atno 17370 bound_to 10713
  156.2409  130.6850  151.1555 LP  0  0  0  0  0  0  0  0  0  0  0  0  # atno 17371 bound_to 10713
  140.8637  133.8040  155.9292 LP  0  0  0  0  0  0  0  0  0  0  0  0  # atno 17394 bound_to 11000
  140.9023  134.2363  157.5034 LP  0  0  0  0  0  0  0  0  0  0  0  0  # atno 17395 bound_to 11000

$$$$
