AV-unprocessed.smi:2026|AV-procd|sdf|8202|dock1
  -GOLD-   2272010463D 1   1.00000     0.00000
 Structure written by MMmdl.
 46 48  0  0  0  0  0  0  0  0  1 V2000
  152.3602  144.4655  159.5859 C   0  0  0  0  0  0  0  0  0  0  0  0
  152.9064  143.1424  160.0934 C   0  0  0  0  0  0  0  0  0  0  0  0
  153.1019  142.0826  159.1792 C   0  0  0  0  0  0  0  0  0  0  0  0
  153.6076  140.8368  159.6110 C   0  0  0  0  0  0  0  0  0  0  0  0
  153.8737  139.6797  158.8990 N   0  0  0  0  0  0  0  0  0  0  0  0
  154.3254  138.8745  159.8565 C   0  0  0  0  0  0  0  0  0  0  0  0
  154.3827  139.3735  161.1061 N   0  0  0  0  0  0  0  0  0  0  0  0
  154.8354  138.6825  162.3005 C   0  0  0  0  0  0  0  0  0  0  0  0
  155.4980  137.3270  161.9869 C   0  0  1  0  0  0  0  0  0  0  0  0
  156.4296  137.0299  163.0097 O   0  0  0  0  0  0  0  0  0  0  0  0
  154.4567  136.1908  161.9182 C   0  0  0  0  0  0  0  0  0  0  0  0
  154.3586  135.4591  163.1850 N   0  0  0  0  0  0  0  0  0  0  0  0
  153.9339  135.9978  164.3416 C   0  0  0  0  0  0  0  0  0  0  0  0
  153.5551  137.1550  164.5155 O   0  0  0  0  0  0  0  0  0  0  0  0
  153.9916  135.0542  165.2908 N   0  0  0  0  0  0  0  0  0  0  0  0
  154.4814  133.7823  164.7943 C   0  0  0  0  0  0  0  0  0  0  0  0
  155.7994  133.3939  165.4875 C   0  0  0  0  0  0  0  0  0  0  0  0
  153.4065  132.6886  164.9288 C   0  0  0  0  0  0  0  0  0  0  0  0
  154.7054  134.1747  163.3421 C   0  0  0  0  0  0  0  0  0  0  0  0
  155.1418  133.4112  162.4801 O   0  0  0  0  0  0  0  0  0  0  0  0
  153.9143  140.6784  160.9944 C   0  0  0  0  0  0  0  0  0  0  0  0
  153.7244  141.7257  161.9135 C   0  0  0  0  0  0  0  0  0  0  0  0
  153.2184  142.9637  161.4651 C   0  0  0  0  0  0  0  0  0  0  0  0
  153.0177  144.0881  162.4659 C   0  0  0  0  0  0  0  0  0  0  0  0
  152.2074  144.4465  158.5065 H   0  0  0  0  0  0  0  0  0  0  0  0
  153.0523  145.2770  159.8110 H   0  0  0  0  0  0  0  0  0  0  0  0
  151.4016  144.6870  160.0557 H   0  0  0  0  0  0  0  0  0  0  0  0
  152.8645  142.2181  158.1344 H   0  0  0  0  0  0  0  0  0  0  0  0
  154.6346  137.8626  159.6379 H   0  0  0  0  0  0  0  0  0  0  0  0
  155.5260  139.3307  162.8416 H   0  0  0  0  0  0  0  0  0  0  0  0
  153.9730  138.5360  162.9523 H   0  0  0  0  0  0  0  0  0  0  0  0
  156.0331  137.4078  161.0397 H   0  0  0  0  0  0  0  0  0  0  0  0
  156.0068  136.4832  163.6542 H   0  0  0  0  0  0  0  0  0  0  0  0
  153.4835  136.5733  161.6046 H   0  0  0  0  0  0  0  0  0  0  0  0
  154.7460  135.4798  161.1423 H   0  0  0  0  0  0  0  0  0  0  0  0
  153.7295  135.2008  166.2550 H   0  0  0  0  0  0  0  0  0  0  0  0
  156.1864  132.4504  165.1006 H   0  0  0  0  0  0  0  0  0  0  0  0
  155.6564  133.2739  166.5619 H   0  0  0  0  0  0  0  0  0  0  0  0
  156.5711  134.1516  165.3421 H   0  0  0  0  0  0  0  0  0  0  0  0
  153.7660  131.7321  164.5476 H   0  0  0  0  0  0  0  0  0  0  0  0
  152.4995  132.9428  164.3781 H   0  0  0  0  0  0  0  0  0  0  0  0
  153.1255  132.5416  165.9720 H   0  0  0  0  0  0  0  0  0  0  0  0
  153.9683  141.5780  162.9550 H   0  0  0  0  0  0  0  0  0  0  0  0
  153.2710  143.7702  163.4776 H   0  0  0  0  0  0  0  0  0  0  0  0
  151.9784  144.4173  162.4700 H   0  0  0  0  0  0  0  0  0  0  0  0
  153.6503  144.9394  162.2138 H   0  0  0  0  0  0  0  0  0  0  0  0
  1  2  1  0  0  0  0
  1 25  1  0  0  0  0
  1 26  1  0  0  0  0
  1 27  1  0  0  0  0
  2 23  1  0  0  0  0
  2  3  2  0  0  0  0
  3  4  1  0  0  0  0
  3 28  1  0  0  0  0
  4 21  2  0  0  0  0
  4  5  1  0  0  0  0
  5  6  2  0  0  0  0
  6  7  1  0  0  0  0
  6 29  1  0  0  0  0
  7  8  1  0  0  0  0
  7 21  1  0  0  0  0
  8  9  1  0  0  0  0
  8 30  1  0  0  0  0
  8 31  1  0  0  0  0
  9 10  1  0  0  0  0
  9 11  1  0  0  0  0
  9 32  1  0  0  0  0
 10 33  1  0  0  0  0
 11 12  1  0  0  0  0
 11 34  1  0  0  0  0
 11 35  1  0  0  0  0
 12 19  1  0  0  0  0
 12 13  1  0  0  0  0
 13 14  2  0  0  0  0
 13 15  1  0  0  0  0
 15 16  1  0  0  0  0
 15 36  1  0  0  0  0
 16 17  1  0  0  0  0
 16 18  1  0  0  0  0
 16 19  1  0  0  0  0
 17 37  1  0  0  0  0
 17 38  1  0  0  0  0
 17 39  1  0  0  0  0
 18 40  1  0  0  0  0
 18 41  1  0  0  0  0
 18 42  1  0  0  0  0
 19 20  2  0  0  0  0
 21 22  1  0  0  0  0
 22 23  2  0  0  0  0
 22 43  1  0  0  0  0
 23 24  1  0  0  0  0
 24 44  1  0  0  0  0
 24 45  1  0  0  0  0
 24 46  1  0  0  0  0
M  END
> <s_m_source_file>
AV-unprocessed.smi

> <i_m_source_file_index>
2026

> <i_lp_mmshare_version>
43012

> <i_f3d_flags>
0

> <s_epik_input>
W0NIM11jKFtjSF0xKWMoW0NIM10pW2NIXWMoYzEyKW4oW2NIXW4yKVtDSDJdW0NASF0oW09IXSlbQ0gyXU4oQzM9TylDKD1PKVtOSF1DMyhbQ0gzXSlbQ0gzXQ==

> <s_epik_cmdline>
J2VwaWtfcHl0aG9uJywgJy1waCcsICc3LjAnLCAnLXRuJywgJzgnLCAnLW1hJywgJzIwMCcsICctbWV0YWxfYmluZGluZycsICctaW1hZScsICc8aW5maWxlLm1hZT4nLCAnLW9tYWUnLCAnPG91dGZpbGUubWFlPic=

> <r_lp_tautomer_probability>
1

> <r_epik_Ionization_Penalty>
0.103994

> <r_epik_Ionization_Penalty_Charging>
0

> <r_epik_Ionization_Penalty_Neutral>
0.103994

> <r_epik_State_Penalty>
0.0938482

> <r_epik_Charging_Adjusted_Penalty>
0.0938482

> <i_epik_Tot_Q>
0

> <i_epik_Tot_abs_Q>
0

> <r_epik_Metal_State_Penalty>
0.106997

> <b_epik_Metal_Only>
0

> <s_lp_Force_Field>
OPLS_2005

> <r_lp_Energy>
23.8549

> <b_lp_Chiralities_Consistent>
1

> <s_lp_Variant>
AV-unprocessed.smi:2026-2

> <Gold.Version>
5.8.1

> <Gold.Id.Protein>
6NUR|6NUR_protein|mol2

> <Gold.PLP.Fitness>
51.4575

> <Gold.PLP.PLP>
-50.2983

> <Gold.PLP.part.hbond>
-2.0000

> <Gold.PLP.part.metal>
0.0000

> <Gold.PLP.part.buried>
-4.8196

> <Gold.PLP.part.nonpolar>
-41.9438

> <Gold.PLP.part.repulsive>
0.1789

> <Gold.PLP.ligand.clash>
0.0000

> <Gold.PLP.ligand.torsion>
0.9388

> <Gold.PLP.Chemscore.Hbond>
1.0000

> <Gold.PLP.Chemscore.CHOScore>
0.0000

> <Gold.PLP.Chemscore.Metal>
0.0000

> <Gold.Chemscore.Hbonds>
donor molecule, donor type, donor heavy atom, donor atom, acceptor molecule, acceptor atom, score
      P1  H  7997  8008       L1     5  1.00

> <Gold.PLP.Chemscore.Internal.Correction>
0.0368

> <Gold.Rescore>
     Score         DG    S(hbond)    S(metal)    S(lipo)     H(rot)  DE(clash)    DE(int)     intcor
     15.56     -16.93       0.97        0.00     123.55       2.44       0.26       1.11       ----

> <Gold.Chemscore.Fitness>
15.5623

> <Gold.Chemscore.DG>
-16.9348

> <Gold.Chemscore.ZeroCoef>
-5.4800

> <Gold.Chemscore.Hbond>
0.9684

> <Gold.Chemscore.Metal>
0.0000

> <Gold.Chemscore.Lipo>
123.5546

> <Gold.Chemscore.Internal_Hbond>
0.0000

> <Gold.Chemscore.DEClash>
0.2595

> <Gold.Chemscore.DEInternal>
1.1130

> <Gold.Chemscore.Rot>
2.4358

> <Gold.Chemscore.Internal.Correction>
   9.000000E+99

> <Gold.Chemscore.Hbonds>
donor molecule, donor type, donor heavy atom, donor atom, acceptor molecule, acceptor atom, score
      P1  H  7997  8008       L1     5  0.84

> <Gold.Chemscore.Hbond.Weighted>
-3.2345

> <Gold.Chemscore.Metal.Weighted>
-0.0000

> <Gold.Chemscore.Lipo.Weighted>
-14.4559

> <Gold.Chemscore.Internal_Hbond.Weighted>
0.0000

> <Gold.Chemscore.DEClash.Weighted>
0.2595

> <Gold.Chemscore.DEInternal.Weighted>
1.1130

> <Gold.Chemscore.Rot.Weighted>
6.2357

> <Gold.Chemscore.Internal.Correction.Weighted>
   9.000000E+99

> <Gold.Protein.RotatedTorsions>
[ 6907 6896 6895 6894 ] final  -40.77 input  -60.11 | X-H torsion
[ 7974 7965 7964 7962 ] final -143.76 input  175.53 | X-H torsion
[ 8008 7997 7996 7995 ] final -100.81 input   59.86 | X-H torsion
[ 10167 10162 10161 10158 ] final  155.47 input  -65.29 | X-H torsion
[ 10718 10713 10712 10709 ] final  139.24 input   66.30 | X-H torsion
[ 10763 10752 10751 10750 ] final  177.71 input  -60.55 | X-H torsion
[ 11005 11000 10999 10996 ] final   58.83 input  -57.11 | X-H torsion

> <Gold.Protein.ActiveResidues>
 VAL166  LYS551  ARG553  GLY616  TRP617  ASP618  TYR619  PRO620  LYS621  CYS622 
 ASP623  PHE694  ASN695  SER759  ASP760  ASP761  ALA762  ILE779  LEU786  VAL792 
 PHE793  MET794  SER795  GLU796  ALA797  LYS798  CYS799  TRP800  GLU811  SER814 

> <Gold.Protein.RotatedAtoms>
  150.9745  134.9112  159.7807 H   0  0  0  0  0  0  0  0  0  0  0  0  # atno 6907 bound_to 6896
  152.5201  134.3495  159.9256 H   0  0  0  0  0  0  0  0  0  0  0  0  # atno 6908 bound_to 6896
  151.3504  133.3887  159.2714 H   0  0  0  0  0  0  0  0  0  0  0  0  # atno 6909 bound_to 6896
  144.8346  140.5795  143.5492 H   0  0  0  0  0  0  0  0  0  0  0  0  # atno 7974 bound_to 7965
  154.8338  140.0438  157.1495 H   0  0  0  0  0  0  0  0  0  0  0  0  # atno 8008 bound_to 7997
  154.9123  140.3015  155.5240 H   0  0  0  0  0  0  0  0  0  0  0  0  # atno 8009 bound_to 7997
  156.2988  140.2356  156.4163 H   0  0  0  0  0  0  0  0  0  0  0  0  # atno 8010 bound_to 7997
  139.4821  144.5096  151.8045 H   0  0  0  0  0  0  0  0  0  0  0  0  # atno 10167 bound_to 10162
  157.4165  131.1034  151.0399 H   0  0  0  0  0  0  0  0  0  0  0  0  # atno 10718 bound_to 10713
  154.4981  135.2782  155.1442 H   0  0  0  0  0  0  0  0  0  0  0  0  # atno 10763 bound_to 10752
  154.3087  135.6233  153.5459 H   0  0  0  0  0  0  0  0  0  0  0  0  # atno 10764 bound_to 10752
  152.9898  135.5714  154.5418 H   0  0  0  0  0  0  0  0  0  0  0  0  # atno 10765 bound_to 10752
  140.0349  134.5958  155.9458 H   0  0  0  0  0  0  0  0  0  0  0  0  # atno 11005 bound_to 11000
  145.4822  139.1494  143.3756 LP  0  0  0  0  0  0  0  0  0  0  0  0  # atno 17320 bound_to 7965
  146.2646  140.4958  142.8839 LP  0  0  0  0  0  0  0  0  0  0  0  0  # atno 17321 bound_to 7965
  140.4597  144.1739  150.5905 LP  0  0  0  0  0  0  0  0  0  0  0  0  # atno 17342 bound_to 10162
  140.4497  143.2492  151.9364 LP  0  0  0  0  0  0  0  0  0  0  0  0  # atno 17343 bound_to 10162
  157.1345  130.6116  149.5538 LP  0  0  0  0  0  0  0  0  0  0  0  0  # atno 17370 bound_to 10713
  155.9867  130.4902  150.7090 LP  0  0  0  0  0  0  0  0  0  0  0  0  # atno 17371 bound_to 10713
  141.1851  133.6554  156.5186 LP  0  0  0  0  0  0  0  0  0  0  0  0  # atno 17394 bound_to 11000
  140.4164  134.7226  157.4865 LP  0  0  0  0  0  0  0  0  0  0  0  0  # atno 17395 bound_to 11000

$$$$
