AV-unprocessed.smi:252|AV-procd|sdf|1937|dock2
  -GOLD-   2262021 63D 1   1.00000     0.00000
 Structure written by MMmdl.
 56 59  0  0  0  0  0  0  0  0  1 V2000
  152.5870  144.4156  159.0713 C   0  0  0  0  0  0  0  0  0  0  0  0
  152.0202  144.2109  157.6577 C   0  0  0  0  0  0  0  0  0  0  0  0
  151.1186  142.9783  157.5354 C   0  0  0  0  0  0  0  0  0  0  0  0
  151.0373  142.1620  158.4542 O   0  0  0  0  0  0  0  0  0  0  0  0
  150.4481  142.8534  156.3795 N   0  0  0  0  0  0  0  0  0  0  0  0
  149.5424  141.7593  156.0441 C   0  0  1  0  0  0  0  0  0  0  0  0
  149.2784  141.7476  154.5274 C   0  0  0  0  0  0  0  0  0  0  0  0
  148.3969  140.5493  154.1418 C   0  0  0  0  0  0  0  0  0  0  0  0
  149.0052  139.2297  154.6440 C   0  0  0  0  0  0  0  0  0  0  0  0
  149.2745  139.2978  156.0808 N   0  0  0  0  0  0  0  0  0  0  0  0
  149.4920  138.1340  156.7441 C   0  0  0  0  0  0  0  0  0  0  0  0
  150.5793  137.3738  156.4447 N   0  0  0  0  0  0  0  0  0  0  0  0
  150.8087  136.2349  157.1051 C   0  0  0  0  0  0  0  0  0  0  0  0
  150.0923  135.6782  158.0833 N   0  0  0  0  0  0  0  0  0  0  0  0
  148.9959  136.4315  158.3836 C   0  0  0  0  0  0  0  0  0  0  0  0
  148.6219  137.6582  157.7655 C   0  0  0  0  0  0  0  0  0  0  0  0
  147.4348  138.1235  158.3191 N   0  0  0  0  0  0  0  0  0  0  0  0
  147.1322  137.2308  159.2211 C   0  0  0  0  0  0  0  0  0  0  0  0
  148.0209  136.1855  159.3349 N   0  0  0  0  0  0  0  0  0  0  0  0
  147.9327  135.0636  160.2575 C   0  0  0  0  0  0  0  0  0  0  0  0
  147.2407  135.4225  161.5989 C   0  0  1  0  0  0  0  0  0  0  0  0
  147.8854  136.5677  162.1306 O   0  0  0  0  0  0  0  0  0  0  0  0
  145.7572  135.7501  161.4521 C   0  0  0  0  0  0  0  0  0  0  0  0
  145.1862  135.3646  162.8077 C   0  0  0  0  0  0  0  0  0  0  0  0
  145.8922  134.1738  163.1075 O   0  0  0  0  0  0  0  0  0  0  0  0
  147.2499  134.3232  162.6991 C   0  0  1  0  0  0  0  0  0  0  0  0
  147.7651  132.9353  162.2873 C   0  0  0  0  0  0  0  0  0  0  0  0
  150.1308  140.4076  156.4970 C   0  0  0  0  0  0  0  0  0  0  0  0
  153.1853  145.3257  159.1175 H   0  0  0  0  0  0  0  0  0  0  0  0
  153.2297  143.5859  159.3678 H   0  0  0  0  0  0  0  0  0  0  0  0
  151.7901  144.5072  159.8104 H   0  0  0  0  0  0  0  0  0  0  0  0
  151.4533  145.0964  157.3668 H   0  0  0  0  0  0  0  0  0  0  0  0
  152.8384  144.1138  156.9438 H   0  0  0  0  0  0  0  0  0  0  0  0
  150.5755  143.5691  155.6787 H   0  0  0  0  0  0  0  0  0  0  0  0
  148.5910  141.9199  156.5554 H   0  0  0  0  0  0  0  0  0  0  0  0
  148.7974  142.6769  154.2194 H   0  0  0  0  0  0  0  0  0  0  0  0
  150.2237  141.6899  153.9858 H   0  0  0  0  0  0  0  0  0  0  0  0
  147.4018  140.6760  154.5697 H   0  0  0  0  0  0  0  0  0  0  0  0
  148.2668  140.5121  153.0600 H   0  0  0  0  0  0  0  0  0  0  0  0
  148.3189  138.4098  154.4278 H   0  0  0  0  0  0  0  0  0  0  0  0
  149.9354  139.0218  154.1134 H   0  0  0  0  0  0  0  0  0  0  0  0
  151.6947  135.6929  156.8087 H   0  0  0  0  0  0  0  0  0  0  0  0
  146.2474  137.3140  159.8353 H   0  0  0  0  0  0  0  0  0  0  0  0
  147.3903  134.2661  159.7492 H   0  0  0  0  0  0  0  0  0  0  0  0
  148.9405  134.6868  160.4366 H   0  0  0  0  0  0  0  0  0  0  0  0
  147.4137  136.8474  162.9001 H   0  0  0  0  0  0  0  0  0  0  0  0
  145.5575  136.7876  161.1798 H   0  0  0  0  0  0  0  0  0  0  0  0
  145.3063  135.1137  160.6896 H   0  0  0  0  0  0  0  0  0  0  0  0
  145.4047  136.1248  163.5591 H   0  0  0  0  0  0  0  0  0  0  0  0
  144.1090  135.1997  162.7821 H   0  0  0  0  0  0  0  0  0  0  0  0
  147.8216  134.6573  163.5671 H   0  0  0  0  0  0  0  0  0  0  0  0
  148.8099  132.9732  161.9789 H   0  0  0  0  0  0  0  0  0  0  0  0
  147.1808  132.5174  161.4674 H   0  0  0  0  0  0  0  0  0  0  0  0
  147.6978  132.2382  163.1226 H   0  0  0  0  0  0  0  0  0  0  0  0
  151.1182  140.2645  156.0557 H   0  0  0  0  0  0  0  0  0  0  0  0
  150.2744  140.4142  157.5768 H   0  0  0  0  0  0  0  0  0  0  0  0
  1  2  1  0  0  0  0
  1 29  1  0  0  0  0
  1 30  1  0  0  0  0
  1 31  1  0  0  0  0
  2  3  1  0  0  0  0
  2 32  1  0  0  0  0
  2 33  1  0  0  0  0
  3  4  2  0  0  0  0
  3  5  1  0  0  0  0
  5  6  1  0  0  0  0
  5 34  1  0  0  0  0
  6 28  1  0  0  0  0
  6  7  1  0  0  0  0
  6 35  1  0  0  0  0
  7  8  1  0  0  0  0
  7 36  1  0  0  0  0
  7 37  1  0  0  0  0
  8  9  1  0  0  0  0
  8 38  1  0  0  0  0
  8 39  1  0  0  0  0
  9 10  1  0  0  0  0
  9 40  1  0  0  0  0
  9 41  1  0  0  0  0
 10 11  1  0  0  0  0
 10 28  1  0  0  0  0
 11 16  1  0  0  0  0
 11 12  2  0  0  0  0
 12 13  1  0  0  0  0
 13 14  2  0  0  0  0
 13 42  1  0  0  0  0
 14 15  1  0  0  0  0
 15 19  1  0  0  0  0
 15 16  2  0  0  0  0
 16 17  1  0  0  0  0
 17 18  2  0  0  0  0
 18 19  1  0  0  0  0
 18 43  1  0  0  0  0
 19 20  1  0  0  0  0
 20 21  1  0  0  0  0
 20 44  1  0  0  0  0
 20 45  1  0  0  0  0
 21 26  1  0  0  0  0
 21 22  1  0  0  0  0
 21 23  1  0  0  0  0
 22 46  1  0  0  0  0
 23 24  1  0  0  0  0
 23 47  1  0  0  0  0
 23 48  1  0  0  0  0
 24 25  1  0  0  0  0
 24 49  1  0  0  0  0
 24 50  1  0  0  0  0
 25 26  1  0  0  0  0
 26 27  1  0  0  0  0
 26 51  1  0  0  0  0
 27 52  1  0  0  0  0
 27 53  1  0  0  0  0
 27 54  1  0  0  0  0
 28 55  1  0  0  0  0
 28 56  1  0  0  0  0
M  END
> <s_m_source_file>
AV-unprocessed.smi

> <i_m_source_file_index>
252

> <i_lp_mmshare_version>
43012

> <i_f3d_flags>
0

> <s_epik_input>
W0NIM11bQ0gyXUMoPU8pW05IXVtDQEBIXTFbQ0gyXVtDSDJdW0NIMl1OKFtDSDJdMSljKG5bY0hdbjIpYyhjMjMpbltjSF1uM1tDSDJdW0NAQF00KFtPSF0pW0NIMl1bQ0gyXU9bQ0BIXTRbQ0gzXQ==

> <s_epik_cmdline>
J2VwaWtfcHl0aG9uJywgJy1waCcsICc3LjAnLCAnLXRuJywgJzgnLCAnLW1hJywgJzIwMCcsICctbWV0YWxfYmluZGluZycsICctaW1hZScsICc8aW5maWxlLm1hZT4nLCAnLW9tYWUnLCAnPG91dGZpbGUubWFlPic=

> <r_lp_tautomer_probability>
1

> <r_epik_Ionization_Penalty>
0.00182575

> <r_epik_Ionization_Penalty_Charging>
0

> <r_epik_Ionization_Penalty_Neutral>
0.00182575

> <r_epik_State_Penalty>
0.00104524

> <r_epik_Charging_Adjusted_Penalty>
0.00104524

> <i_epik_Tot_Q>
0

> <i_epik_Tot_abs_Q>
0

> <r_epik_Metal_State_Penalty>
-0

> <b_epik_Metal_Only>
0

> <s_lp_Force_Field>
OPLS_2005

> <r_lp_Energy>
35.3243

> <b_lp_Chiralities_Consistent>
1

> <s_lp_Variant>
AV-unprocessed.smi:252-2

> <Gold.Version>
5.8.1

> <Gold.Id.Protein>
6NUR|6NUR_protein|mol2

> <Gold.PLP.Fitness>
46.5879

> <Gold.PLP.PLP>
-41.9614

> <Gold.PLP.part.hbond>
-3.9656

> <Gold.PLP.part.metal>
0.0000

> <Gold.PLP.part.buried>
-3.3833

> <Gold.PLP.part.nonpolar>
-35.8394

> <Gold.PLP.part.repulsive>
0.1561

> <Gold.PLP.ligand.clash>
0.0000

> <Gold.PLP.ligand.torsion>
0.9438

> <Gold.PLP.Chemscore.Hbond>
2.0150

> <Gold.PLP.Chemscore.CHOScore>
0.0000

> <Gold.PLP.Chemscore.Metal>
0.0000

> <Gold.Chemscore.Hbonds>
donor molecule, donor type, donor heavy atom, donor atom, acceptor molecule, acceptor atom, score
      L1  H     5    34       P1  8028  0.18
      P1  H  6896  6909       L1    14  0.86
      P1  H  6931  6943       L1    22  0.83

> <Gold.PLP.Chemscore.Internal.Correction>
0.4691

> <Gold.Rescore>
     Score         DG    S(hbond)    S(metal)    S(lipo)     H(rot)  DE(clash)    DE(int)     intcor
     10.81     -14.46       1.28        0.00      99.26       2.70       0.07       3.58       ----

> <Gold.Chemscore.Fitness>
10.8058

> <Gold.Chemscore.DG>
-14.4584

> <Gold.Chemscore.ZeroCoef>
-5.4800

> <Gold.Chemscore.Hbond>
1.2835

> <Gold.Chemscore.Metal>
0.0000

> <Gold.Chemscore.Lipo>
99.2650

> <Gold.Chemscore.Internal_Hbond>
0.0000

> <Gold.Chemscore.DEClash>
0.0712

> <Gold.Chemscore.DEInternal>
3.5814

> <Gold.Chemscore.Rot>
2.7041

> <Gold.Chemscore.Internal.Correction>
   9.000000E+99

> <Gold.Chemscore.Hbonds>
donor molecule, donor type, donor heavy atom, donor atom, acceptor molecule, acceptor atom, score
      L1  H     5    34       P1  8028  0.17
      P1  H  6896  6909       L1    14  0.74
      P1  H  6931  6943       L1    22  0.13

> <Gold.Chemscore.Hbond.Weighted>
-4.2869

> <Gold.Chemscore.Metal.Weighted>
-0.0000

> <Gold.Chemscore.Lipo.Weighted>
-11.6140

> <Gold.Chemscore.Internal_Hbond.Weighted>
0.0000

> <Gold.Chemscore.DEClash.Weighted>
0.0712

> <Gold.Chemscore.DEInternal.Weighted>
3.5814

> <Gold.Chemscore.Rot.Weighted>
6.9225

> <Gold.Chemscore.Internal.Correction.Weighted>
   9.000000E+99

> <Gold.Protein.RotatedTorsions>
[ 6907 6896 6895 6894 ] final   52.72 input  -60.11 | X-H torsion
[ 7974 7965 7964 7962 ] final  164.27 input  175.53 | X-H torsion
[ 8008 7997 7996 7995 ] final  143.25 input   59.86 | X-H torsion
[ 10167 10162 10161 10158 ] final  -14.86 input  -65.29 | X-H torsion
[ 10718 10713 10712 10709 ] final  -80.78 input   66.30 | X-H torsion
[ 10763 10752 10751 10750 ] final  -68.88 input  -60.55 | X-H torsion
[ 11005 11000 10999 10996 ] final  -56.96 input  -57.11 | X-H torsion

> <Gold.Protein.ActiveResidues>
 VAL166  LYS551  ARG553  GLY616  TRP617  ASP618  TYR619  PRO620  LYS621  CYS622 
 ASP623  PHE694  ASN695  SER759  ASP760  ASP761  ALA762  ILE779  LEU786  VAL792 
 PHE793  MET794  SER795  GLU796  ALA797  LYS798  CYS799  TRP800  GLU811  SER814 

> <Gold.Protein.RotatedAtoms>
  152.3262  134.7318  160.0301 H   0  0  0  0  0  0  0  0  0  0  0  0  # atno 6907 bound_to 6896
  151.7750  133.3339  159.3463 H   0  0  0  0  0  0  0  0  0  0  0  0  # atno 6908 bound_to 6896
  150.7397  134.5915  159.6034 H   0  0  0  0  0  0  0  0  0  0  0  0  # atno 6909 bound_to 6896
  144.7552  139.8302  143.6352 H   0  0  0  0  0  0  0  0  0  0  0  0  # atno 7974 bound_to 7965
  156.2934  140.2267  156.4861 H   0  0  0  0  0  0  0  0  0  0  0  0  # atno 8008 bound_to 7997
  154.7811  140.0460  157.1149 H   0  0  0  0  0  0  0  0  0  0  0  0  # atno 8009 bound_to 7997
  154.9757  140.3072  155.4971 H   0  0  0  0  0  0  0  0  0  0  0  0  # atno 8010 bound_to 7997
  140.7209  143.5277  150.9557 H   0  0  0  0  0  0  0  0  0  0  0  0  # atno 10167 bound_to 10162
  156.0063  130.4584  150.3852 H   0  0  0  0  0  0  0  0  0  0  0  0  # atno 10718 bound_to 10713
  154.3953  135.6043  153.5866 H   0  0  0  0  0  0  0  0  0  0  0  0  # atno 10763 bound_to 10752
  152.9787  135.5893  154.4248 H   0  0  0  0  0  0  0  0  0  0  0  0  # atno 10764 bound_to 10752
  154.4039  135.2843  155.2057 H   0  0  0  0  0  0  0  0  0  0  0  0  # atno 10765 bound_to 10752
  141.1144  133.6610  156.4698 H   0  0  0  0  0  0  0  0  0  0  0  0  # atno 11005 bound_to 11000
  146.1554  139.4651  143.0022 LP  0  0  0  0  0  0  0  0  0  0  0  0  # atno 17320 bound_to 7965
  145.6803  141.0193  143.1610 LP  0  0  0  0  0  0  0  0  0  0  0  0  # atno 17321 bound_to 7965
  139.8997  143.6851  152.3133 LP  0  0  0  0  0  0  0  0  0  0  0  0  # atno 17342 bound_to 10162
  139.7196  144.7605  151.0976 LP  0  0  0  0  0  0  0  0  0  0  0  0  # atno 17343 bound_to 10162
  157.1929  131.0419  151.2690 LP  0  0  0  0  0  0  0  0  0  0  0  0  # atno 17370 bound_to 10713
  157.4045  130.7351  149.6792 LP  0  0  0  0  0  0  0  0  0  0  0  0  # atno 17371 bound_to 10713
  140.4688  134.6773  157.5119 LP  0  0  0  0  0  0  0  0  0  0  0  0  # atno 17394 bound_to 11000
  140.0056  134.6769  155.9460 LP  0  0  0  0  0  0  0  0  0  0  0  0  # atno 17395 bound_to 11000

$$$$
