AV-unprocessed.smi:1019|AV-procd|sdf|4445|dock1
  -GOLD-   22720 2403D 1   1.00000     0.00000
 Structure written by MMmdl.
 44 46  0  0  0  0  0  0  0  0  2 V2000
  145.6859  135.6807  153.7816 C   0  0  0  0  0  0  0  0  0  0  0  0
  145.9894  136.5079  152.5904 N   0  3  1  0  0  0  0  0  0  0  0  0
  145.1911  136.0817  151.4137 C   0  0  0  0  0  0  0  0  0  0  0  0
  145.0828  134.5698  151.3121 C   0  0  0  0  0  0  0  0  0  0  0  0
  146.2470  133.7912  151.1399 C   0  0  0  0  0  0  0  0  0  0  0  0
  146.1532  132.3891  151.0433 C   0  0  0  0  0  0  0  0  0  0  0  0
  144.8957  131.7600  151.1209 C   0  0  0  0  0  0  0  0  0  0  0  0
  143.7317  132.5331  151.2957 C   0  0  0  0  0  0  0  0  0  0  0  0
  143.8245  133.9352  151.3926 C   0  0  0  0  0  0  0  0  0  0  0  0
  145.8962  137.9666  152.8640 C   0  0  0  0  0  0  0  0  0  0  0  0
  146.9263  138.7919  152.0610 C   0  0  1  0  0  0  0  0  0  0  0  0
  146.7125  138.5643  150.6825 O   0  0  0  0  0  0  0  0  0  0  0  0
  146.8205  140.3101  152.3074 C   0  0  0  0  0  0  0  0  0  0  0  0
  147.0782  140.6681  153.6901 N   0  0  0  0  0  0  0  0  0  0  0  0
  146.2162  141.2416  154.5516 C   0  0  0  0  0  0  0  0  0  0  0  0
  146.6613  141.4999  155.7775 N   0  0  0  0  0  0  0  0  0  0  0  0
  147.9628  141.0338  155.7070 C   0  0  0  0  0  0  0  0  0  0  0  0
  148.9855  141.0166  156.6822 C   0  0  0  0  0  0  0  0  0  0  0  0
  150.2565  140.4878  156.3752 C   0  0  0  0  0  0  0  0  0  0  0  0
  150.5245  139.9691  155.0917 C   0  0  0  0  0  0  0  0  0  0  0  0
  149.5213  139.9745  154.1038 C   0  0  0  0  0  0  0  0  0  0  0  0
  148.2546  140.5034  154.4140 C   0  0  0  0  0  0  0  0  0  0  0  0
  144.6513  135.8182  154.0986 H   0  0  0  0  0  0  0  0  0  0  0  0
  146.3349  135.9304  154.6200 H   0  0  0  0  0  0  0  0  0  0  0  0
  145.8360  134.6227  153.5645 H   0  0  0  0  0  0  0  0  0  0  0  0
  144.1765  136.4753  151.4904 H   0  0  0  0  0  0  0  0  0  0  0  0
  145.6177  136.5011  150.5008 H   0  0  0  0  0  0  0  0  0  0  0  0
  147.2150  134.2670  151.0793 H   0  0  0  0  0  0  0  0  0  0  0  0
  147.0460  131.7959  150.9106 H   0  0  0  0  0  0  0  0  0  0  0  0
  144.8244  130.6846  151.0469 H   0  0  0  0  0  0  0  0  0  0  0  0
  142.7673  132.0502  151.3562 H   0  0  0  0  0  0  0  0  0  0  0  0
  142.9264  134.5206  151.5258 H   0  0  0  0  0  0  0  0  0  0  0  0
  144.9026  138.3398  152.6168 H   0  0  0  0  0  0  0  0  0  0  0  0
  146.0150  138.1229  153.9365 H   0  0  0  0  0  0  0  0  0  0  0  0
  147.9405  138.4749  152.3024 H   0  0  0  0  0  0  0  0  0  0  0  0
  145.7865  138.4394  150.5364 H   0  0  0  0  0  0  0  0  0  0  0  0
  147.5325  140.8465  151.6785 H   0  0  0  0  0  0  0  0  0  0  0  0
  145.8292  140.6747  152.0343 H   0  0  0  0  0  0  0  0  0  0  0  0
  145.2059  141.4891  154.2598 H   0  0  0  0  0  0  0  0  0  0  0  0
  148.7926  141.4118  157.6686 H   0  0  0  0  0  0  0  0  0  0  0  0
  151.0298  140.4802  157.1293 H   0  0  0  0  0  0  0  0  0  0  0  0
  151.5010  139.5661  154.8662 H   0  0  0  0  0  0  0  0  0  0  0  0
  149.7249  139.5784  153.1201 H   0  0  0  0  0  0  0  0  0  0  0  0
  146.9533  136.3256  152.3488 H   0  0  0  0  0  0  0  0  0  0  0  0
  1  2  1  0  0  0  0
  1 23  1  0  0  0  0
  1 24  1  0  0  0  0
  1 25  1  0  0  0  0
  2  3  1  0  0  0  0
  2 10  1  0  0  0  0
  2 44  1  0  0  0  0
  3  4  1  0  0  0  0
  3 26  1  0  0  0  0
  3 27  1  0  0  0  0
  4  9  1  0  0  0  0
  4  5  2  0  0  0  0
  5  6  1  0  0  0  0
  5 28  1  0  0  0  0
  6  7  2  0  0  0  0
  6 29  1  0  0  0  0
  7  8  1  0  0  0  0
  7 30  1  0  0  0  0
  8  9  2  0  0  0  0
  8 31  1  0  0  0  0
  9 32  1  0  0  0  0
 10 11  1  0  0  0  0
 10 33  1  0  0  0  0
 10 34  1  0  0  0  0
 11 12  1  0  0  0  0
 11 13  1  0  0  0  0
 11 35  1  0  0  0  0
 12 36  1  0  0  0  0
 13 14  1  0  0  0  0
 13 37  1  0  0  0  0
 13 38  1  0  0  0  0
 14 22  1  0  0  0  0
 14 15  1  0  0  0  0
 15 16  2  0  0  0  0
 15 39  1  0  0  0  0
 16 17  1  0  0  0  0
 17 22  2  0  0  0  0
 17 18  1  0  0  0  0
 18 19  2  0  0  0  0
 18 40  1  0  0  0  0
 19 20  1  0  0  0  0
 19 41  1  0  0  0  0
 20 21  2  0  0  0  0
 20 42  1  0  0  0  0
 21 22  1  0  0  0  0
 21 43  1  0  0  0  0
M  CHG  1   2   1
M  END
> <s_m_source_file>
AV-unprocessed.smi

> <i_m_source_file_index>
1019

> <i_lp_mmshare_version>
43012

> <i_f3d_flags>
0

> <s_epik_input>
W2NIXTFbY0hdW2NIXVtjSF1bY0hdYzFbQ0gyXU4oW0NIM10pW0NIMl1bQ0BIXShbT0hdKVtDSDJdbihbY0hdbjIpYyhjMjMpW2NIXVtjSF1bY0hdW2NIXTM=

> <s_epik_cmdline>
J2VwaWtfcHl0aG9uJywgJy1waCcsICc3LjAnLCAnLXRuJywgJzgnLCAnLW1hJywgJzIwMCcsICctbWV0YWxfYmluZGluZycsICctaW1hZScsICc8aW5maWxlLm1hZT4nLCAnLW9tYWUnLCAnPG91dGZpbGUubWFlPic=

> <r_epik_Ionization_Penalty>
0.0996557

> <r_epik_Ionization_Penalty_Charging>
0.0475377

> <r_epik_Ionization_Penalty_Neutral>
0.0521179

> <r_epik_State_Penalty>
0.0851777

> <r_epik_Charging_Adjusted_Penalty>
0.132715

> <i_epik_Tot_Q>
1

> <i_epik_Tot_abs_Q>
1

> <r_epik_Metal_State_Penalty>
0.0423478

> <b_epik_Metal_Only>
0

> <s_lp_Force_Field>
OPLS_2005

> <r_lp_Energy>
16.033

> <b_lp_Chiralities_Consistent>
1

> <s_lp_Variant>
AV-unprocessed.smi:1019-3

> <Gold.Version>
5.8.1

> <Gold.Id.Protein>
6NUR|6NUR_protein|mol2

> <Gold.PLP.Fitness>
52.6228

> <Gold.PLP.PLP>
-38.9501

> <Gold.PLP.part.hbond>
-3.3620

> <Gold.PLP.part.metal>
0.0000

> <Gold.PLP.part.buried>
2.2277

> <Gold.PLP.part.nonpolar>
-38.0548

> <Gold.PLP.part.repulsive>
0.0982

> <Gold.PLP.ligand.clash>
0.0000

> <Gold.PLP.ligand.torsion>
0.5174

> <Gold.PLP.Chemscore.Hbond>
3.8640

> <Gold.PLP.Chemscore.CHOScore>
0.9979

> <Gold.PLP.Chemscore.Metal>
0.0000

> <Gold.Chemscore.Hbonds>
donor molecule, donor type, donor heavy atom, donor atom, acceptor molecule, acceptor atom, score
      L1  H     2    44       P1  7948  1.92
      L1  H    12    36       P1 10171  0.99
      P1  H  7954  7966       L1    12  0.88
      L1  C    15    39       P1 10175  0.99

> <Gold.PLP.Chemscore.Internal.Correction>
0.1217

> <Gold.Rescore>
     Score         DG    S(hbond)    S(metal)    S(lipo)     H(rot)  DE(clash)    DE(int)     intcor
     18.97     -20.49       2.60        0.00     105.70       2.36       0.90       0.63       ----

> <Gold.Chemscore.Fitness>
18.9675

> <Gold.Chemscore.DG>
-20.4924

> <Gold.Chemscore.ZeroCoef>
-5.4800

> <Gold.Chemscore.Hbond>
2.6023

> <Gold.Chemscore.Metal>
0.0000

> <Gold.Chemscore.Lipo>
105.6954

> <Gold.Chemscore.Internal_Hbond>
0.0000

> <Gold.Chemscore.DEClash>
0.8969

> <Gold.Chemscore.DEInternal>
0.6280

> <Gold.Chemscore.Rot>
2.3616

> <Gold.Chemscore.Internal.Correction>
   9.000000E+99

> <Gold.Chemscore.Hbonds>
donor molecule, donor type, donor heavy atom, donor atom, acceptor molecule, acceptor atom, score
      L1  H     2    44       P1  7948  0.91
      L1  H    12    36       P1 10171  0.92
      P1  H  7954  7966       L1    12  0.71

> <Gold.Chemscore.Hbond.Weighted>
-8.6918

> <Gold.Chemscore.Metal.Weighted>
-0.0000

> <Gold.Chemscore.Lipo.Weighted>
-12.3664

> <Gold.Chemscore.Internal_Hbond.Weighted>
0.0000

> <Gold.Chemscore.DEClash.Weighted>
0.8969

> <Gold.Chemscore.DEInternal.Weighted>
0.6280

> <Gold.Chemscore.Rot.Weighted>
6.0457

> <Gold.Chemscore.Internal.Correction.Weighted>
   9.000000E+99

> <Gold.Protein.RotatedTorsions>
[ 6907 6896 6895 6894 ] final  168.48 input  -60.11 | X-H torsion
[ 7974 7965 7964 7962 ] final   12.96 input  175.53 | X-H torsion
[ 8008 7997 7996 7995 ] final -176.30 input   59.86 | X-H torsion
[ 10167 10162 10161 10158 ] final  -33.20 input  -65.29 | X-H torsion
[ 10718 10713 10712 10709 ] final -168.10 input   66.30 | X-H torsion
[ 10763 10752 10751 10750 ] final -101.39 input  -60.55 | X-H torsion
[ 11005 11000 10999 10996 ] final  138.74 input  -57.11 | X-H torsion

> <Gold.Protein.ActiveResidues>
 VAL166  LYS551  ARG553  GLY616  TRP617  ASP618  TYR619  PRO620  LYS621  CYS622 
 ASP623  PHE694  ASN695  SER759  ASP760  ASP761  ALA762  ILE779  LEU786  VAL792 
 PHE793  MET794  SER795  GLU796  ALA797  LYS798  CYS799  TRP800  GLU811  SER814 

> <Gold.Protein.RotatedAtoms>
  151.8470  133.3433  159.3660 H   0  0  0  0  0  0  0  0  0  0  0  0  # atno 6907 bound_to 6896
  150.7218  134.5336  159.5722 H   0  0  0  0  0  0  0  0  0  0  0  0  # atno 6908 bound_to 6896
  152.2822  134.7817  160.0445 H   0  0  0  0  0  0  0  0  0  0  0  0  # atno 6909 bound_to 6896
  146.2340  139.9260  142.8503 H   0  0  0  0  0  0  0  0  0  0  0  0  # atno 7974 bound_to 7965
  155.9931  140.1205  157.0619 H   0  0  0  0  0  0  0  0  0  0  0  0  # atno 8008 bound_to 7997
  154.4218  140.1121  156.5662 H   0  0  0  0  0  0  0  0  0  0  0  0  # atno 8009 bound_to 7997
  155.6315  140.3473  155.4686 H   0  0  0  0  0  0  0  0  0  0  0  0  # atno 8010 bound_to 7997
  140.7208  143.3638  151.1911 H   0  0  0  0  0  0  0  0  0  0  0  0  # atno 10167 bound_to 10162
  156.6920  130.9163  151.3070 H   0  0  0  0  0  0  0  0  0  0  0  0  # atno 10718 bound_to 10713
  154.7654  135.4899  153.9544 H   0  0  0  0  0  0  0  0  0  0  0  0  # atno 10763 bound_to 10752
  153.1301  135.6751  153.9200 H   0  0  0  0  0  0  0  0  0  0  0  0  # atno 10764 bound_to 10752
  153.8906  135.3121  155.3426 H   0  0  0  0  0  0  0  0  0  0  0  0  # atno 10765 bound_to 10752
  140.0205  134.9399  157.0464 H   0  0  0  0  0  0  0  0  0  0  0  0  # atno 11005 bound_to 11000
  145.2091  140.9887  143.4111 LP  0  0  0  0  0  0  0  0  0  0  0  0  # atno 17320 bound_to 7965
  144.9707  139.3883  143.6310 LP  0  0  0  0  0  0  0  0  0  0  0  0  # atno 17321 bound_to 7965
  139.7195  143.9246  152.2980 LP  0  0  0  0  0  0  0  0  0  0  0  0  # atno 17342 bound_to 10162
  139.8998  144.6918  150.8678 LP  0  0  0  0  0  0  0  0  0  0  0  0  # atno 17343 bound_to 10162
  157.7005  130.9328  150.0772 LP  0  0  0  0  0  0  0  0  0  0  0  0  # atno 17370 bound_to 10713
  156.1791  130.3649  149.9060 LP  0  0  0  0  0  0  0  0  0  0  0  0  # atno 17371 bound_to 10713
  140.4396  134.1695  155.7173 LP  0  0  0  0  0  0  0  0  0  0  0  0  # atno 17394 bound_to 11000
  141.1770  133.8492  157.1386 LP  0  0  0  0  0  0  0  0  0  0  0  0  # atno 17395 bound_to 11000

$$$$
