AV-unprocessed.smi:2988|AV-procd|sdf|11387|dock1
  -GOLD-   2272016313D 1   1.00000     0.00000
 Structure written by MMmdl.
 37 38  0  0  0  0  0  0  0  0  1 V2000
  151.5054  144.3829  157.6958 C   0  0  0  0  0  0  0  0  0  0  0  0
  151.6689  143.3338  158.8110 C   0  0  2  0  0  0  0  0  0  0  0  0
  152.5681  143.8812  159.9386 C   0  0  0  0  0  0  0  0  0  0  0  0
  152.7413  142.8662  161.0788 C   0  0  0  0  0  0  0  0  0  0  0  0
  153.2932  141.5345  160.5524 C   0  0  0  0  0  0  0  0  0  0  0  0
  152.3985  140.9703  159.4395 C   0  0  0  0  0  0  0  0  0  0  0  0
  152.2166  141.9798  158.2890 C   0  0  1  0  0  0  0  0  0  0  0  0
  151.3182  141.4006  157.2912 N   0  0  0  0  0  0  0  0  0  0  0  0
  151.6327  140.4335  156.4153 C   0  0  0  0  0  0  0  0  0  0  0  0
  152.7382  139.8923  156.3682 O   0  0  0  0  0  0  0  0  0  0  0  0
  150.5158  140.0094  155.4511 C   0  0  0  0  0  0  0  0  0  0  0  0
  149.2374  140.6836  155.7214 N   0  0  0  0  0  0  0  0  0  0  0  0
  148.8211  140.5994  157.0385 N   0  0  0  0  0  0  0  0  0  0  0  0
  147.7039  141.1392  157.3861 C   0  0  0  0  0  0  0  0  0  0  0  0
  146.8613  141.8419  156.4438 C   0  0  0  0  0  0  0  0  0  0  0  0
  145.3728  142.5460  156.9691 Cl  0  0  0  0  0  0  0  0  0  0  0  0
  147.2820  141.9244  155.1566 C   0  0  0  0  0  0  0  0  0  0  0  0
  146.3293  142.7510  153.9719 Cl  0  0  0  0  0  0  0  0  0  0  0  0
  148.5498  141.3207  154.7238 C   0  0  0  0  0  0  0  0  0  0  0  0
  148.9672  141.3753  153.5660 O   0  0  0  0  0  0  0  0  0  0  0  0
  152.4508  144.5669  157.1848 H   0  0  0  0  0  0  0  0  0  0  0  0
  151.1551  145.3330  158.0998 H   0  0  0  0  0  0  0  0  0  0  0  0
  150.7789  144.0662  156.9476 H   0  0  0  0  0  0  0  0  0  0  0  0
  150.6801  143.1570  159.2374 H   0  0  0  0  0  0  0  0  0  0  0  0
  153.5473  144.1413  159.5340 H   0  0  0  0  0  0  0  0  0  0  0  0
  152.1462  144.8043  160.3378 H   0  0  0  0  0  0  0  0  0  0  0  0
  153.4105  143.2711  161.8387 H   0  0  0  0  0  0  0  0  0  0  0  0
  151.7818  142.6977  161.5694 H   0  0  0  0  0  0  0  0  0  0  0  0
  154.3044  141.6816  160.1705 H   0  0  0  0  0  0  0  0  0  0  0  0
  153.3715  140.8150  161.3682 H   0  0  0  0  0  0  0  0  0  0  0  0
  152.8309  140.0440  159.0585 H   0  0  0  0  0  0  0  0  0  0  0  0
  151.4260  140.7069  159.8583 H   0  0  0  0  0  0  0  0  0  0  0  0
  153.1997  142.1559  157.8483 H   0  0  0  0  0  0  0  0  0  0  0  0
  150.3832  141.7797  157.2545 H   0  0  0  0  0  0  0  0  0  0  0  0
  150.8508  140.2213  154.4342 H   0  0  0  0  0  0  0  0  0  0  0  0
  150.3789  138.9270  155.4945 H   0  0  0  0  0  0  0  0  0  0  0  0
  147.3338  141.0953  158.4104 H   0  0  0  0  0  0  0  0  0  0  0  0
  1  2  1  0  0  0  0
  1 21  1  0  0  0  0
  1 22  1  0  0  0  0
  1 23  1  0  0  0  0
  2  7  1  0  0  0  0
  2  3  1  0  0  0  0
  2 24  1  0  0  0  0
  3  4  1  0  0  0  0
  3 25  1  0  0  0  0
  3 26  1  0  0  0  0
  4  5  1  0  0  0  0
  4 27  1  0  0  0  0
  4 28  1  0  0  0  0
  5  6  1  0  0  0  0
  5 29  1  0  0  0  0
  5 30  1  0  0  0  0
  6  7  1  0  0  0  0
  6 31  1  0  0  0  0
  6 32  1  0  0  0  0
  7  8  1  0  0  0  0
  7 33  1  0  0  0  0
  8  9  1  0  0  0  0
  8 34  1  0  0  0  0
  9 10  2  0  0  0  0
  9 11  1  0  0  0  0
 11 12  1  0  0  0  0
 11 35  1  0  0  0  0
 11 36  1  0  0  0  0
 12 19  1  0  0  0  0
 12 13  1  0  0  0  0
 13 14  2  0  0  0  0
 14 15  1  0  0  0  0
 14 37  1  0  0  0  0
 15 16  1  0  0  0  0
 15 17  2  0  0  0  0
 17 18  1  0  0  0  0
 17 19  1  0  0  0  0
 19 20  2  0  0  0  0
M  END
> <s_m_source_file>
AV-unprocessed.smi

> <i_m_source_file_index>
2988

> <i_lp_mmshare_version>
43012

> <i_f3d_flags>
0

> <s_epik_input>
W0NIM11bQ0BASF0xW0NIMl1bQ0gyXVtDSDJdW0NIMl1bQ0BIXTFbTkhdQyg9TylbQ0gyXW4ybltjSF1jKENsKWMoQ2wpYzI9Tw==

> <s_epik_cmdline>
J2VwaWtfcHl0aG9uJywgJy1waCcsICc3LjAnLCAnLXRuJywgJzgnLCAnLW1hJywgJzIwMCcsICctbWV0YWxfYmluZGluZycsICctaW1hZScsICc8aW5maWxlLm1hZT4nLCAnLW9tYWUnLCAnPG91dGZpbGUubWFlPic=

> <r_lp_tautomer_probability>
1

> <r_epik_Ionization_Penalty>
1.90782e-08

> <r_epik_Ionization_Penalty_Charging>
3.13143e-11

> <r_epik_Ionization_Penalty_Neutral>
1.90469e-08

> <r_epik_State_Penalty>
-0

> <r_epik_Charging_Adjusted_Penalty>
3.13143e-11

> <i_epik_Tot_Q>
0

> <i_epik_Tot_abs_Q>
0

> <r_epik_Metal_State_Penalty>
-0

> <b_epik_Metal_Only>
0

> <s_lp_Force_Field>
OPLS_2005

> <r_lp_Energy>
24.1537

> <b_lp_Chiralities_Consistent>
1

> <s_lp_Variant>
AV-unprocessed.smi:2988-1

> <Gold.Version>
5.8.1

> <Gold.Id.Protein>
6NUR|6NUR_protein|mol2

> <Gold.PLP.Fitness>
46.2517

> <Gold.PLP.PLP>
-41.1494

> <Gold.PLP.part.hbond>
-3.0000

> <Gold.PLP.part.metal>
0.0000

> <Gold.PLP.part.buried>
-4.6273

> <Gold.PLP.part.nonpolar>
-35.0007

> <Gold.PLP.part.repulsive>
2.5687

> <Gold.PLP.ligand.clash>
0.0000

> <Gold.PLP.ligand.torsion>
0.2972

> <Gold.PLP.Chemscore.Hbond>
1.8960

> <Gold.PLP.Chemscore.CHOScore>
0.0000

> <Gold.PLP.Chemscore.Metal>
0.0000

> <Gold.Chemscore.Hbonds>
donor molecule, donor type, donor heavy atom, donor atom, acceptor molecule, acceptor atom, score
      P1  H  7997  8008       L1    10  1.00
      P1  H  8011  8017       L1    20  0.86

> <Gold.PLP.Chemscore.Internal.Correction>
0.0087

> <Gold.Rescore>
     Score         DG    S(hbond)    S(metal)    S(lipo)     H(rot)  DE(clash)    DE(int)     intcor
     16.80     -18.86       1.72        0.00      98.12       1.50       0.10       1.97       ----

> <Gold.Chemscore.Fitness>
16.7961

> <Gold.Chemscore.DG>
-18.8628

> <Gold.Chemscore.ZeroCoef>
-5.4800

> <Gold.Chemscore.Hbond>
1.7178

> <Gold.Chemscore.Metal>
0.0000

> <Gold.Chemscore.Lipo>
98.1151

> <Gold.Chemscore.Internal_Hbond>
0.0000

> <Gold.Chemscore.DEClash>
0.0965

> <Gold.Chemscore.DEInternal>
1.9702

> <Gold.Chemscore.Rot>
1.4977

> <Gold.Chemscore.Internal.Correction>
   9.000000E+99

> <Gold.Chemscore.Hbonds>
donor molecule, donor type, donor heavy atom, donor atom, acceptor molecule, acceptor atom, score
      P1  H  7997  8008       L1    10  0.98
      P1  H  8011  8017       L1    20  0.85

> <Gold.Chemscore.Hbond.Weighted>
-5.7374

> <Gold.Chemscore.Metal.Weighted>
-0.0000

> <Gold.Chemscore.Lipo.Weighted>
-11.4795

> <Gold.Chemscore.Internal_Hbond.Weighted>
0.0000

> <Gold.Chemscore.DEClash.Weighted>
0.0965

> <Gold.Chemscore.DEInternal.Weighted>
1.9702

> <Gold.Chemscore.Rot.Weighted>
3.8341

> <Gold.Chemscore.Internal.Correction.Weighted>
   9.000000E+99

> <Gold.Protein.RotatedTorsions>
[ 6907 6896 6895 6894 ] final -143.97 input  -60.11 | X-H torsion
[ 7974 7965 7964 7962 ] final  167.73 input  175.53 | X-H torsion
[ 8008 7997 7996 7995 ] final  -32.41 input   59.86 | X-H torsion
[ 10167 10162 10161 10158 ] final  136.47 input  -65.29 | X-H torsion
[ 10718 10713 10712 10709 ] final  -82.42 input   66.30 | X-H torsion
[ 10763 10752 10751 10750 ] final  112.73 input  -60.55 | X-H torsion
[ 11005 11000 10999 10996 ] final  130.30 input  -57.11 | X-H torsion

> <Gold.Protein.ActiveResidues>
 VAL166  LYS551  ARG553  GLY616  TRP617  ASP618  TYR619  PRO620  LYS621  CYS622 
 ASP623  PHE694  ASN695  SER759  ASP760  ASP761  ALA762  ILE779  LEU786  VAL792 
 PHE793  MET794  SER795  GLU796  ALA797  LYS798  CYS799  TRP800  GLU811  SER814 

> <Gold.Protein.RotatedAtoms>
  151.1076  133.5197  159.2606 H   0  0  0  0  0  0  0  0  0  0  0  0  # atno 6907 bound_to 6896
  151.2003  135.0439  159.8879 H   0  0  0  0  0  0  0  0  0  0  0  0  # atno 6908 bound_to 6896
  152.5448  134.0905  159.8328 H   0  0  0  0  0  0  0  0  0  0  0  0  # atno 6909 bound_to 6896
  144.7414  139.8803  143.6396 H   0  0  0  0  0  0  0  0  0  0  0  0  # atno 7974 bound_to 7965
  154.4181  140.1738  156.1723 H   0  0  0  0  0  0  0  0  0  0  0  0  # atno 8008 bound_to 7997
  155.9750  140.3382  155.6587 H   0  0  0  0  0  0  0  0  0  0  0  0  # atno 8009 bound_to 7997
  155.6575  140.0697  157.2556 H   0  0  0  0  0  0  0  0  0  0  0  0  # atno 8010 bound_to 7997
  139.5179  144.6462  151.5431 H   0  0  0  0  0  0  0  0  0  0  0  0  # atno 10167 bound_to 10162
  156.0033  130.4634  150.4102 H   0  0  0  0  0  0  0  0  0  0  0  0  # atno 10718 bound_to 10713
  153.4821  135.3677  155.2447 H   0  0  0  0  0  0  0  0  0  0  0  0  # atno 10763 bound_to 10752
  154.8755  135.3957  154.3688 H   0  0  0  0  0  0  0  0  0  0  0  0  # atno 10764 bound_to 10752
  153.4293  135.7082  153.6306 H   0  0  0  0  0  0  0  0  0  0  0  0  # atno 10765 bound_to 10752
  139.9664  134.9589  156.9274 H   0  0  0  0  0  0  0  0  0  0  0  0  # atno 11005 bound_to 11000
  146.1216  139.4235  143.0225 LP  0  0  0  0  0  0  0  0  0  0  0  0  # atno 17320 bound_to 7965
  145.7296  141.0047  143.1358 LP  0  0  0  0  0  0  0  0  0  0  0  0  # atno 17321 bound_to 7965
  140.6249  143.9188  150.6556 LP  0  0  0  0  0  0  0  0  0  0  0  0  # atno 17342 bound_to 10162
  140.2474  143.3619  152.1435 LP  0  0  0  0  0  0  0  0  0  0  0  0  # atno 17343 bound_to 10162
  157.2166  131.0472  151.2570 LP  0  0  0  0  0  0  0  0  0  0  0  0  # atno 17370 bound_to 10713
  157.3840  130.7246  149.6650 LP  0  0  0  0  0  0  0  0  0  0  0  0  # atno 17371 bound_to 10713
  140.5387  134.0741  155.7335 LP  0  0  0  0  0  0  0  0  0  0  0  0  # atno 17394 bound_to 11000
  141.1344  133.9247  157.2466 LP  0  0  0  0  0  0  0  0  0  0  0  0  # atno 17395 bound_to 11000

$$$$
