AV-unprocessed.smi:2526|AV-procd|sdf|9939|dock3
  -GOLD-   2272013583D 1   1.00000     0.00000
 Structure written by MMmdl.
 28 29  0  0  0  0  0  0  0  0  1 V2000
  148.8961  133.1857  152.9284 C   0  0  0  0  0  0  0  0  0  0  0  0
  147.4625  133.3821  152.9159 N   0  0  0  0  0  0  0  0  0  0  0  0
  146.6562  133.7691  151.8680 C   0  0  0  0  0  0  0  0  0  0  0  0
  145.3681  133.8134  152.3287 C   0  0  0  0  0  0  0  0  0  0  0  0
  144.0900  134.1731  151.5953 C   0  0  1  0  0  0  0  0  0  0  0  0
  142.9203  133.9259  152.4431 N   0  0  0  0  0  0  0  0  0  0  0  0
  142.2451  134.8393  153.1664 C   0  0  0  0  0  0  0  0  0  0  0  0
  141.3480  134.5080  153.9377 O   0  0  0  0  0  0  0  0  0  0  0  0
  142.5688  136.3326  152.9855 C   0  0  0  0  0  0  0  0  0  0  0  0
  143.8907  136.6100  152.2473 C   0  0  0  0  0  0  0  0  0  0  0  0
  144.0768  135.6333  151.0794 C   0  0  1  0  0  0  0  0  0  0  0  0
  145.2636  135.9639  150.3112 N   0  0  0  0  0  0  0  0  0  0  0  0
  145.5034  133.4347  153.6961 C   0  0  0  0  0  0  0  0  0  0  0  0
  146.7536  133.1777  154.0438 N   0  0  0  0  0  0  0  0  0  0  0  0
  149.3072  133.3673  151.9349 H   0  0  0  0  0  0  0  0  0  0  0  0
  149.1261  132.1619  153.2246 H   0  0  0  0  0  0  0  0  0  0  0  0
  149.3575  133.8765  153.6347 H   0  0  0  0  0  0  0  0  0  0  0  0
  147.0604  133.9746  150.8876 H   0  0  0  0  0  0  0  0  0  0  0  0
  143.9790  133.5169  150.7314 H   0  0  0  0  0  0  0  0  0  0  0  0
  142.6489  132.9596  152.5546 H   0  0  0  0  0  0  0  0  0  0  0  0
  141.7459  136.7717  152.4207 H   0  0  0  0  0  0  0  0  0  0  0  0
  142.5738  136.8255  153.9579 H   0  0  0  0  0  0  0  0  0  0  0  0
  143.8908  137.6379  151.8830 H   0  0  0  0  0  0  0  0  0  0  0  0
  144.7264  136.5337  152.9444 H   0  0  0  0  0  0  0  0  0  0  0  0
  143.2269  135.7514  150.4057 H   0  0  0  0  0  0  0  0  0  0  0  0
  145.3530  135.3292  149.5307 H   0  0  0  0  0  0  0  0  0  0  0  0
  145.1705  136.8912  149.9215 H   0  0  0  0  0  0  0  0  0  0  0  0
  144.7292  133.3376  154.4428 H   0  0  0  0  0  0  0  0  0  0  0  0
  1  2  1  0  0  0  0
  1 15  1  0  0  0  0
  1 16  1  0  0  0  0
  1 17  1  0  0  0  0
  2 14  1  0  0  0  0
  2  3  1  0  0  0  0
  3  4  2  0  0  0  0
  3 18  1  0  0  0  0
  4  5  1  0  0  0  0
  4 13  1  0  0  0  0
  5 11  1  0  0  0  0
  5  6  1  0  0  0  0
  5 19  1  0  0  0  0
  6  7  1  0  0  0  0
  6 20  1  0  0  0  0
  7  8  2  0  0  0  0
  7  9  1  0  0  0  0
  9 10  1  0  0  0  0
  9 21  1  0  0  0  0
  9 22  1  0  0  0  0
 10 11  1  0  0  0  0
 10 23  1  0  0  0  0
 10 24  1  0  0  0  0
 11 12  1  0  0  0  0
 11 25  1  0  0  0  0
 12 26  1  0  0  0  0
 12 27  1  0  0  0  0
 13 14  2  0  0  0  0
 13 28  1  0  0  0  0
M  END
> <s_m_source_file>
AV-unprocessed.smi

> <i_m_source_file_index>
2526

> <i_lp_mmshare_version>
43012

> <i_f3d_flags>
0

> <s_epik_input>
W0NIM11uMVtjSF1jKFtjSF1uMSlbQ0BASF0yW05IXUMoPU8pW0NIMl1bQ0gyXVtDQEhdMltOSDJd

> <s_epik_cmdline>
J2VwaWtfcHl0aG9uJywgJy1waCcsICc3LjAnLCAnLXRuJywgJzgnLCAnLW1hJywgJzIwMCcsICctbWV0YWxfYmluZGluZycsICctaW1hZScsICc8aW5maWxlLm1hZT4nLCAnLW9tYWUnLCAnPG91dGZpbGUubWFlPic=

> <r_lp_tautomer_probability>
1

> <r_epik_Ionization_Penalty>
2.50279

> <r_epik_Ionization_Penalty_Charging>
0

> <r_epik_Ionization_Penalty_Neutral>
2.50279

> <r_epik_State_Penalty>
2.66754

> <r_epik_Charging_Adjusted_Penalty>
2.66754

> <i_epik_Tot_Q>
0

> <i_epik_Tot_abs_Q>
0

> <r_epik_Metal_State_Penalty>
2.66721

> <b_epik_Metal_Only>
0

> <s_lp_Force_Field>
OPLS_2005

> <r_lp_Energy>
9.07018

> <b_lp_Chiralities_Consistent>
1

> <s_lp_Variant>
AV-unprocessed.smi:2526-6

> <Gold.Version>
5.8.1

> <Gold.Id.Protein>
6NUR|6NUR_protein|mol2

> <Gold.PLP.Fitness>
34.5360

> <Gold.PLP.PLP>
-24.3665

> <Gold.PLP.part.hbond>
-3.4581

> <Gold.PLP.part.metal>
0.0000

> <Gold.PLP.part.buried>
-4.2544

> <Gold.PLP.part.nonpolar>
-16.8118

> <Gold.PLP.part.repulsive>
0.2582

> <Gold.PLP.ligand.clash>
0.0000

> <Gold.PLP.ligand.torsion>
0.0563

> <Gold.PLP.Chemscore.Hbond>
2.4214

> <Gold.PLP.Chemscore.CHOScore>
1.0000

> <Gold.PLP.Chemscore.Metal>
0.0000

> <Gold.Chemscore.Hbonds>
donor molecule, donor type, donor heavy atom, donor atom, acceptor molecule, acceptor atom, score
      L1  H    12    26       P1  7921  0.80
      L1  H    12    27       P1 10171  0.69
      P1  H 11000 11005       L1     8  0.98
      L1  C    13    28       P1 10957  0.80

> <Gold.PLP.Chemscore.Internal.Correction>
0.0179

> <Gold.Rescore>
     Score         DG    S(hbond)    S(metal)    S(lipo)     H(rot)  DE(clash)    DE(int)     intcor
     15.38     -15.75       2.51        0.00      37.89       1.00       0.05       0.31       ----

> <Gold.Chemscore.Fitness>
15.3820

> <Gold.Chemscore.DG>
-15.7470

> <Gold.Chemscore.ZeroCoef>
-5.4800

> <Gold.Chemscore.Hbond>
2.5131

> <Gold.Chemscore.Metal>
0.0000

> <Gold.Chemscore.Lipo>
37.8910

> <Gold.Chemscore.Internal_Hbond>
0.0000

> <Gold.Chemscore.DEClash>
0.0504

> <Gold.Chemscore.DEInternal>
0.3146

> <Gold.Chemscore.Rot>
1.0000

> <Gold.Chemscore.Internal.Correction>
   9.000000E+99

> <Gold.Chemscore.Hbonds>
donor molecule, donor type, donor heavy atom, donor atom, acceptor molecule, acceptor atom, score
      L1  H    12    26       P1  7921  0.75
      L1  H    12    27       P1 10171  0.66
      P1  H 11000 11005       L1     8  0.88

> <Gold.Chemscore.Hbond.Weighted>
-8.3938

> <Gold.Chemscore.Metal.Weighted>
-0.0000

> <Gold.Chemscore.Lipo.Weighted>
-4.4333

> <Gold.Chemscore.Internal_Hbond.Weighted>
0.0000

> <Gold.Chemscore.DEClash.Weighted>
0.0504

> <Gold.Chemscore.DEInternal.Weighted>
0.3146

> <Gold.Chemscore.Rot.Weighted>
2.5600

> <Gold.Chemscore.Internal.Correction.Weighted>
   9.000000E+99

> <Gold.Protein.RotatedTorsions>
[ 6907 6896 6895 6894 ] final  -14.79 input  -60.11 | X-H torsion
[ 7974 7965 7964 7962 ] final   48.43 input  175.53 | X-H torsion
[ 8008 7997 7996 7995 ] final   63.84 input   59.86 | X-H torsion
[ 10167 10162 10161 10158 ] final -114.48 input  -65.29 | X-H torsion
[ 10718 10713 10712 10709 ] final -175.44 input   66.30 | X-H torsion
[ 10763 10752 10751 10750 ] final   22.25 input  -60.55 | X-H torsion
[ 11005 11000 10999 10996 ] final   26.63 input  -57.11 | X-H torsion

> <Gold.Protein.ActiveResidues>
 VAL166  LYS551  ARG553  GLY616  TRP617  ASP618  TYR619  PRO620  LYS621  CYS622 
 ASP623  PHE694  ASN695  SER759  ASP760  ASP761  ALA762  ILE779  LEU786  VAL792 
 PHE793  MET794  SER795  GLU796  ALA797  LYS798  CYS799  TRP800  GLU811  SER814 

> <Gold.Protein.RotatedAtoms>
  151.3339  135.0848  159.9347 H   0  0  0  0  0  0  0  0  0  0  0  0  # atno 6907 bound_to 6896
  152.5228  133.9515  159.7684 H   0  0  0  0  0  0  0  0  0  0  0  0  # atno 6908 bound_to 6896
  150.9859  133.6145  159.2745 H   0  0  0  0  0  0  0  0  0  0  0  0  # atno 6909 bound_to 6896
  146.0204  139.4645  142.9900 H   0  0  0  0  0  0  0  0  0  0  0  0  # atno 7974 bound_to 7965
  155.6367  140.3496  155.4701 H   0  0  0  0  0  0  0  0  0  0  0  0  # atno 8008 bound_to 7997
  155.9959  140.1203  157.0617 H   0  0  0  0  0  0  0  0  0  0  0  0  # atno 8009 bound_to 7997
  154.4233  140.1110  156.5616 H   0  0  0  0  0  0  0  0  0  0  0  0  # atno 8010 bound_to 7997
  140.1005  143.4617  152.1815 H   0  0  0  0  0  0  0  0  0  0  0  0  # atno 10167 bound_to 10162
  156.7999  130.9548  151.3119 H   0  0  0  0  0  0  0  0  0  0  0  0  # atno 10718 bound_to 10713
  153.0930  135.6652  153.9816 H   0  0  0  0  0  0  0  0  0  0  0  0  # atno 10763 bound_to 10752
  153.9408  135.2994  155.3444 H   0  0  0  0  0  0  0  0  0  0  0  0  # atno 10764 bound_to 10752
  154.7347  135.5107  153.9095 H   0  0  0  0  0  0  0  0  0  0  0  0  # atno 10765 bound_to 10752
  140.3349  134.2396  155.7697 H   0  0  0  0  0  0  0  0  0  0  0  0  # atno 11005 bound_to 11000
  145.7201  141.0077  143.1407 LP  0  0  0  0  0  0  0  0  0  0  0  0  # atno 17320 bound_to 7965
  144.6988  139.8861  143.7450 LP  0  0  0  0  0  0  0  0  0  0  0  0  # atno 17321 bound_to 7965
  139.5674  144.7443  151.3985 LP  0  0  0  0  0  0  0  0  0  0  0  0  # atno 17342 bound_to 10162
  140.6980  143.7701  150.7358 LP  0  0  0  0  0  0  0  0  0  0  0  0  # atno 17343 bound_to 10162
  157.6559  130.8924  149.9728 LP  0  0  0  0  0  0  0  0  0  0  0  0  # atno 17370 bound_to 10713
  156.1108  130.3650  150.0053 LP  0  0  0  0  0  0  0  0  0  0  0  0  # atno 17371 bound_to 10713
  141.2054  133.7862  157.0237 LP  0  0  0  0  0  0  0  0  0  0  0  0  # atno 17394 bound_to 11000
  140.0829  134.9638  157.1653 LP  0  0  0  0  0  0  0  0  0  0  0  0  # atno 17395 bound_to 11000

$$$$
