AV-unprocessed.smi:1211|AV-procd|sdf|5081|dock3
  -GOLD-   22720 4133D 1   1.00000     0.00000
 Structure written by MMmdl.
 48 50  0  0  0  0  0  0  0  0  2 V2000
  146.8069  131.7329  152.7226 C   0  0  0  0  0  0  0  0  0  0  0  0
  145.8374  132.3643  151.7361 C   0  0  0  0  0  0  0  0  0  0  0  0
  144.9848  131.5336  150.9781 C   0  0  0  0  0  0  0  0  0  0  0  0
  144.0901  132.1188  150.0658 C   0  0  0  0  0  0  0  0  0  0  0  0
  144.0853  133.5193  149.9496 C   0  0  0  0  0  0  0  0  0  0  0  0
  144.8959  134.3207  150.6704 N   0  0  0  0  0  0  0  0  0  0  0  0
  145.7671  133.7717  151.5539 C   0  0  0  0  0  0  0  0  0  0  0  0
  146.6513  134.5554  152.3480 N   0  0  0  0  0  0  0  0  0  0  0  0
  146.6897  134.6728  153.6869 C   0  0  0  0  0  0  0  0  0  0  0  0
  145.9231  134.1187  154.4745 O   0  0  0  0  0  0  0  0  0  0  0  0
  147.6861  135.4824  154.0735 N   0  0  0  0  0  0  0  0  0  0  0  0
  147.9987  135.8402  155.4570 C   0  0  0  0  0  0  0  0  0  0  0  0
  149.5196  136.0989  155.7071 C   0  0  2  0  0  0  0  0  0  0  0  0
  149.7930  137.5751  155.5442 N   0  3  0  0  0  0  0  0  0  0  0  0
  151.2367  137.9413  155.5962 C   0  0  0  0  0  0  0  0  0  0  0  0
  151.4158  139.4664  155.6148 C   0  0  0  0  0  0  0  0  0  0  0  0
  150.8173  140.0187  154.4522 O   0  0  0  0  0  0  0  0  0  0  0  0
  149.4184  139.7777  154.4242 C   0  0  0  0  0  0  0  0  0  0  0  0
  149.1354  138.2648  154.3986 C   0  0  0  0  0  0  0  0  0  0  0  0
  150.3746  135.2052  154.7644 C   0  0  0  0  0  0  0  0  0  0  0  0
  150.2396  133.7487  155.2178 C   0  0  0  0  0  0  0  0  0  0  0  0
  150.0970  133.7719  157.0215 S   0  0  0  0  0  0  0  0  0  0  0  0
  149.9102  135.5749  157.1092 C   0  0  0  0  0  0  0  0  0  0  0  0
  146.7150  130.6463  152.7299 H   0  0  0  0  0  0  0  0  0  0  0  0
  146.6116  132.0921  153.7333 H   0  0  0  0  0  0  0  0  0  0  0  0
  147.8354  131.9802  152.4578 H   0  0  0  0  0  0  0  0  0  0  0  0
  145.0139  130.4598  151.0915 H   0  0  0  0  0  0  0  0  0  0  0  0
  143.4254  131.5106  149.4705 H   0  0  0  0  0  0  0  0  0  0  0  0
  143.4136  134.0098  149.2604 H   0  0  0  0  0  0  0  0  0  0  0  0
  147.3360  135.0863  151.8310 H   0  0  0  0  0  0  0  0  0  0  0  0
  148.2528  135.9085  153.3550 H   0  0  0  0  0  0  0  0  0  0  0  0
  147.4216  136.7358  155.6832 H   0  0  0  0  0  0  0  0  0  0  0  0
  147.5938  135.0923  156.1386 H   0  0  0  0  0  0  0  0  0  0  0  0
  151.7154  137.5258  156.4810 H   0  0  0  0  0  0  0  0  0  0  0  0
  151.7597  137.5344  154.7299 H   0  0  0  0  0  0  0  0  0  0  0  0
  150.9798  139.9030  156.5149 H   0  0  0  0  0  0  0  0  0  0  0  0
  152.4762  139.7200  155.6188 H   0  0  0  0  0  0  0  0  0  0  0  0
  148.9421  140.2456  155.2875 H   0  0  0  0  0  0  0  0  0  0  0  0
  148.9974  140.2514  153.5372 H   0  0  0  0  0  0  0  0  0  0  0  0
  149.4767  137.8337  153.4567 H   0  0  0  0  0  0  0  0  0  0  0  0
  148.0532  138.1525  154.4442 H   0  0  0  0  0  0  0  0  0  0  0  0
  150.1283  135.3315  153.7108 H   0  0  0  0  0  0  0  0  0  0  0  0
  151.4348  135.4328  154.8664 H   0  0  0  0  0  0  0  0  0  0  0  0
  149.3458  133.2887  154.7962 H   0  0  0  0  0  0  0  0  0  0  0  0
  151.0926  133.1459  154.9056 H   0  0  0  0  0  0  0  0  0  0  0  0
  150.8751  135.9804  157.4150 H   0  0  0  0  0  0  0  0  0  0  0  0
  149.1871  135.8426  157.8802 H   0  0  0  0  0  0  0  0  0  0  0  0
  149.3761  137.9977  156.3611 H   0  0  0  0  0  0  0  0  0  0  0  0
  1  2  1  0  0  0  0
  1 24  1  0  0  0  0
  1 25  1  0  0  0  0
  1 26  1  0  0  0  0
  2  7  1  0  0  0  0
  2  3  2  0  0  0  0
  3  4  1  0  0  0  0
  3 27  1  0  0  0  0
  4  5  2  0  0  0  0
  4 28  1  0  0  0  0
  5  6  1  0  0  0  0
  5 29  1  0  0  0  0
  6  7  2  0  0  0  0
  7  8  1  0  0  0  0
  8  9  1  0  0  0  0
  8 30  1  0  0  0  0
  9 10  2  0  0  0  0
  9 11  1  0  0  0  0
 11 12  1  0  0  0  0
 11 31  1  0  0  0  0
 12 13  1  0  0  0  0
 12 32  1  0  0  0  0
 12 33  1  0  0  0  0
 13 23  1  0  0  0  0
 13 14  1  0  0  0  0
 13 20  1  0  0  0  0
 14 19  1  0  0  0  0
 14 15  1  0  0  0  0
 14 48  1  0  0  0  0
 15 16  1  0  0  0  0
 15 34  1  0  0  0  0
 15 35  1  0  0  0  0
 16 17  1  0  0  0  0
 16 36  1  0  0  0  0
 16 37  1  0  0  0  0
 17 18  1  0  0  0  0
 18 19  1  0  0  0  0
 18 38  1  0  0  0  0
 18 39  1  0  0  0  0
 19 40  1  0  0  0  0
 19 41  1  0  0  0  0
 20 21  1  0  0  0  0
 20 42  1  0  0  0  0
 20 43  1  0  0  0  0
 21 22  1  0  0  0  0
 21 44  1  0  0  0  0
 21 45  1  0  0  0  0
 22 23  1  0  0  0  0
 23 46  1  0  0  0  0
 23 47  1  0  0  0  0
M  CHG  1  14   1
M  END
> <s_m_source_file>
AV-unprocessed.smi

> <i_m_source_file_index>
1211

> <i_lp_mmshare_version>
43012

> <i_f3d_flags>
0

> <s_epik_input>
W0NIM11jMVtjSF1bY0hdW2NIXW5jMVtOSF1DKD1PKVtOSF1bQ0gyXVtDQF0yKFtDSDJdW0NIMl1TW0NIMl0yKU4zW0NIMl1bQ0gyXU9bQ0gyXVtDSDJdMw==

> <s_epik_cmdline>
J2VwaWtfcHl0aG9uJywgJy1waCcsICc3LjAnLCAnLXRuJywgJzgnLCAnLW1hJywgJzIwMCcsICctbWV0YWxfYmluZGluZycsICctaW1hZScsICc8aW5maWxlLm1hZT4nLCAnLW9tYWUnLCAnPG91dGZpbGUubWFlPic=

> <r_epik_Ionization_Penalty>
2.03223

> <r_epik_Ionization_Penalty_Charging>
2.03219

> <r_epik_Ionization_Penalty_Neutral>
4.05816e-05

> <r_epik_State_Penalty>
2.16328

> <r_epik_Charging_Adjusted_Penalty>
4.19546

> <i_epik_Tot_Q>
1

> <i_epik_Tot_abs_Q>
1

> <r_epik_Metal_State_Penalty>
2.16328

> <b_epik_Metal_Only>
0

> <s_lp_Force_Field>
OPLS_2005

> <r_lp_Energy>
45.9337

> <b_lp_Chiralities_Consistent>
1

> <s_lp_Variant>
AV-unprocessed.smi:1211-4

> <Gold.Version>
5.8.1

> <Gold.Id.Protein>
6NUR|6NUR_protein|mol2

> <Gold.PLP.Fitness>
41.7565

> <Gold.PLP.PLP>
-33.0767

> <Gold.PLP.part.hbond>
-2.9927

> <Gold.PLP.part.metal>
0.0000

> <Gold.PLP.part.buried>
-4.8749

> <Gold.PLP.part.nonpolar>
-27.0798

> <Gold.PLP.part.repulsive>
0.3748

> <Gold.PLP.ligand.clash>
0.0000

> <Gold.PLP.ligand.torsion>
1.6982

> <Gold.PLP.Chemscore.Hbond>
2.9760

> <Gold.PLP.Chemscore.CHOScore>
1.0000

> <Gold.PLP.Chemscore.Metal>
0.0000

> <Gold.Chemscore.Hbonds>
donor molecule, donor type, donor heavy atom, donor atom, acceptor molecule, acceptor atom, score
      L1  H     8    30       P1  7948  0.99
      L1  H    11    31       P1  7948  1.00
      P1  H  7989  7998       L1    17  0.96
      L1  C     5    29       P1 10186  0.96

> <Gold.PLP.Chemscore.Internal.Correction>
0.1482

> <Gold.Rescore>
     Score         DG    S(hbond)    S(metal)    S(lipo)     H(rot)  DE(clash)    DE(int)     intcor
     20.00     -21.72       2.88        0.00      89.05       1.48       0.09       1.64       ----

> <Gold.Chemscore.Fitness>
19.9978

> <Gold.Chemscore.DG>
-21.7209

> <Gold.Chemscore.ZeroCoef>
-5.4800

> <Gold.Chemscore.Hbond>
2.8791

> <Gold.Chemscore.Metal>
0.0000

> <Gold.Chemscore.Lipo>
89.0469

> <Gold.Chemscore.Internal_Hbond>
0.0000

> <Gold.Chemscore.DEClash>
0.0858

> <Gold.Chemscore.DEInternal>
1.6374

> <Gold.Chemscore.Rot>
1.4820

> <Gold.Chemscore.Internal.Correction>
   9.000000E+99

> <Gold.Chemscore.Hbonds>
donor molecule, donor type, donor heavy atom, donor atom, acceptor molecule, acceptor atom, score
      L1  H     8    30       P1  7948  0.87
      L1  H    11    31       P1  7948  1.00
      P1  H  7989  7998       L1    17  0.90

> <Gold.Chemscore.Hbond.Weighted>
-9.6163

> <Gold.Chemscore.Metal.Weighted>
-0.0000

> <Gold.Chemscore.Lipo.Weighted>
-10.4185

> <Gold.Chemscore.Internal_Hbond.Weighted>
0.0000

> <Gold.Chemscore.DEClash.Weighted>
0.0858

> <Gold.Chemscore.DEInternal.Weighted>
1.6374

> <Gold.Chemscore.Rot.Weighted>
3.7939

> <Gold.Chemscore.Internal.Correction.Weighted>
   9.000000E+99

> <Gold.Protein.RotatedTorsions>
[ 6907 6896 6895 6894 ] final   15.84 input  -60.11 | X-H torsion
[ 7974 7965 7964 7962 ] final   96.04 input  175.53 | X-H torsion
[ 8008 7997 7996 7995 ] final  -97.44 input   59.86 | X-H torsion
[ 10167 10162 10161 10158 ] final -115.93 input  -65.29 | X-H torsion
[ 10718 10713 10712 10709 ] final -144.02 input   66.30 | X-H torsion
[ 10763 10752 10751 10750 ] final   12.16 input  -60.55 | X-H torsion
[ 11005 11000 10999 10996 ] final  -61.35 input  -57.11 | X-H torsion

> <Gold.Protein.ActiveResidues>
 VAL166  LYS551  ARG553  GLY616  TRP617  ASP618  TYR619  PRO620  LYS621  CYS622 
 ASP623  PHE694  ASN695  SER759  ASP760  ASP761  ALA762  ILE779  LEU786  VAL792 
 PHE793  MET794  SER795  GLU796  ALA797  LYS798  CYS799  TRP800  GLU811  SER814 

> <Gold.Protein.RotatedAtoms>
  151.8244  135.0641  160.0428 H   0  0  0  0  0  0  0  0  0  0  0  0  # atno 6907 bound_to 6896
  152.2927  133.5572  159.5576 H   0  0  0  0  0  0  0  0  0  0  0  0  # atno 6908 bound_to 6896
  150.7237  134.0322  159.3779 H   0  0  0  0  0  0  0  0  0  0  0  0  # atno 6909 bound_to 6896
  145.4441  139.2298  143.3075 H   0  0  0  0  0  0  0  0  0  0  0  0  # atno 7974 bound_to 7965
  154.7878  140.0463  157.1177 H   0  0  0  0  0  0  0  0  0  0  0  0  # atno 8008 bound_to 7997
  154.9627  140.3079  155.5004 H   0  0  0  0  0  0  0  0  0  0  0  0  # atno 8009 bound_to 7997
  156.2946  140.2267  156.4714 H   0  0  0  0  0  0  0  0  0  0  0  0  # atno 8010 bound_to 7997
  140.0847  143.4755  152.1905 H   0  0  0  0  0  0  0  0  0  0  0  0  # atno 10167 bound_to 10162
  156.3650  130.7758  151.1931 H   0  0  0  0  0  0  0  0  0  0  0  0  # atno 10718 bound_to 10713
  153.1851  135.6834  153.8427 H   0  0  0  0  0  0  0  0  0  0  0  0  # atno 10763 bound_to 10752
  153.7745  135.3191  155.3358 H   0  0  0  0  0  0  0  0  0  0  0  0  # atno 10764 bound_to 10752
  154.8083  135.4734  154.0546 H   0  0  0  0  0  0  0  0  0  0  0  0  # atno 10765 bound_to 10752
  141.1321  133.6629  156.5362 H   0  0  0  0  0  0  0  0  0  0  0  0  # atno 11005 bound_to 11000
  146.2540  140.5193  142.8881 LP  0  0  0  0  0  0  0  0  0  0  0  0  # atno 17320 bound_to 7965
  144.8102  140.6373  143.6420 LP  0  0  0  0  0  0  0  0  0  0  0  0  # atno 17321 bound_to 7965
  139.5759  144.7487  151.3767 LP  0  0  0  0  0  0  0  0  0  0  0  0  # atno 17342 bound_to 10162
  140.7059  143.7514  150.7482 LP  0  0  0  0  0  0  0  0  0  0  0  0  # atno 17343 bound_to 10162
  157.7478  131.0389  150.4524 LP  0  0  0  0  0  0  0  0  0  0  0  0  # atno 17370 bound_to 10713
  156.4741  130.4059  149.6500 LP  0  0  0  0  0  0  0  0  0  0  0  0  # atno 17371 bound_to 10713
  140.4176  134.7216  157.4872 LP  0  0  0  0  0  0  0  0  0  0  0  0  # atno 17394 bound_to 11000
  140.0382  134.6305  155.9015 LP  0  0  0  0  0  0  0  0  0  0  0  0  # atno 17395 bound_to 11000

$$$$
