AV-unprocessed.smi:3132|AV-procd|sdf|11934|dock5
  -GOLD-   2272017323D 1   1.00000     0.00000
 Structure written by MMmdl.
 33 34  0  0  0  0  0  0  0  0  1 V2000
  148.9321  141.5042  157.0363 C   0  0  0  0  0  0  0  0  0  0  0  0
  150.3797  141.0322  157.2277 C   0  0  1  0  0  0  0  0  0  0  0  0
  151.1393  140.9924  155.8844 C   0  0  0  0  0  0  0  0  0  0  0  0
  151.4017  139.6396  155.4277 N   0  0  0  0  0  0  0  0  0  0  0  0
  151.0625  139.0888  154.1987 C   0  0  0  0  0  0  0  0  0  0  0  0
  151.5181  137.7900  154.2110 C   0  0  0  0  0  0  0  0  0  0  0  0
  152.1312  137.5197  155.4320 N   0  0  0  0  0  0  0  0  0  0  0  0
  152.0223  138.6607  156.1001 C   0  0  0  0  0  0  0  0  0  0  0  0
  151.0471  141.9223  158.1771 N   0  0  0  0  0  0  0  0  0  0  0  0
  151.5968  141.5534  159.3452 C   0  0  0  0  0  0  0  0  0  0  0  0
  151.5709  140.3972  159.7689 O   0  0  0  0  0  0  0  0  0  0  0  0
  152.2866  142.6644  160.1510 C   0  0  2  0  0  0  0  0  0  0  0  0
  151.4042  143.2430  161.2752 C   0  0  0  0  0  0  0  0  0  0  0  0
  151.2843  144.7195  160.9383 C   0  0  0  0  0  0  0  0  0  0  0  0
  151.5591  144.7513  159.4420 C   0  0  0  0  0  0  0  0  0  0  0  0
  152.5664  143.7627  159.2842 O   0  0  0  0  0  0  0  0  0  0  0  0
  148.3916  140.8453  156.3565 H   0  0  0  0  0  0  0  0  0  0  0  0
  148.8934  142.5127  156.6231 H   0  0  0  0  0  0  0  0  0  0  0  0
  148.3927  141.5107  157.9841 H   0  0  0  0  0  0  0  0  0  0  0  0
  150.3353  140.0206  157.6354 H   0  0  0  0  0  0  0  0  0  0  0  0
  150.5597  141.4978  155.1107 H   0  0  0  0  0  0  0  0  0  0  0  0
  152.0871  141.5271  155.9626 H   0  0  0  0  0  0  0  0  0  0  0  0
  150.5461  139.6528  153.4360 H   0  0  0  0  0  0  0  0  0  0  0  0
  151.4519  137.0352  153.4417 H   0  0  0  0  0  0  0  0  0  0  0  0
  152.4095  138.7899  157.1003 H   0  0  0  0  0  0  0  0  0  0  0  0
  151.1110  142.8956  157.9163 H   0  0  0  0  0  0  0  0  0  0  0  0
  153.2312  142.2995  160.5568 H   0  0  0  0  0  0  0  0  0  0  0  0
  150.4153  142.7819  161.3020 H   0  0  0  0  0  0  0  0  0  0  0  0
  151.8529  143.0969  162.2580 H   0  0  0  0  0  0  0  0  0  0  0  0
  150.3139  145.1416  161.2012 H   0  0  0  0  0  0  0  0  0  0  0  0
  152.0546  145.2835  161.4659 H   0  0  0  0  0  0  0  0  0  0  0  0
  150.6700  144.4728  158.8748 H   0  0  0  0  0  0  0  0  0  0  0  0
  151.8960  145.7282  159.0952 H   0  0  0  0  0  0  0  0  0  0  0  0
  1  2  1  0  0  0  0
  1 17  1  0  0  0  0
  1 18  1  0  0  0  0
  1 19  1  0  0  0  0
  2  3  1  0  0  0  0
  2  9  1  0  0  0  0
  2 20  1  0  0  0  0
  3  4  1  0  0  0  0
  3 21  1  0  0  0  0
  3 22  1  0  0  0  0
  4  8  1  0  0  0  0
  4  5  1  0  0  0  0
  5  6  2  0  0  0  0
  5 23  1  0  0  0  0
  6  7  1  0  0  0  0
  6 24  1  0  0  0  0
  7  8  2  0  0  0  0
  8 25  1  0  0  0  0
  9 10  1  0  0  0  0
  9 26  1  0  0  0  0
 10 11  2  0  0  0  0
 10 12  1  0  0  0  0
 12 16  1  0  0  0  0
 12 13  1  0  0  0  0
 12 27  1  0  0  0  0
 13 14  1  0  0  0  0
 13 28  1  0  0  0  0
 13 29  1  0  0  0  0
 14 15  1  0  0  0  0
 14 30  1  0  0  0  0
 14 31  1  0  0  0  0
 15 16  1  0  0  0  0
 15 32  1  0  0  0  0
 15 33  1  0  0  0  0
M  END
> <s_m_source_file>
AV-unprocessed.smi

> <i_m_source_file_index>
3132

> <i_lp_mmshare_version>
43012

> <i_f3d_flags>
0

> <s_epik_input>
W2NIXTFuW2NIXVtjSF1uMVtDSDJdW0NAQEhdKFtDSDNdKVtOSF1DKD1PKVtDQEBIXTJbQ0gyXVtDSDJdW0NIMl1PMg==

> <s_epik_cmdline>
J2VwaWtfcHl0aG9uJywgJy1waCcsICc3LjAnLCAnLXRuJywgJzgnLCAnLW1hJywgJzIwMCcsICctbWV0YWxfYmluZGluZycsICctaW1hZScsICc8aW5maWxlLm1hZT4nLCAnLW9tYWUnLCAnPG91dGZpbGUubWFlPic=

> <r_lp_tautomer_probability>
1

> <r_epik_Ionization_Penalty>
0.630322

> <r_epik_Ionization_Penalty_Charging>
0.630322

> <r_epik_Ionization_Penalty_Neutral>
3.82652e-08

> <r_epik_State_Penalty>
0.647117

> <r_epik_Charging_Adjusted_Penalty>
1.27744

> <i_epik_Tot_Q>
0

> <i_epik_Tot_abs_Q>
0

> <r_epik_Metal_State_Penalty>
0.309095

> <b_epik_Metal_Only>
0

> <s_lp_Force_Field>
OPLS_2005

> <r_lp_Energy>
20.2845

> <b_lp_Chiralities_Consistent>
1

> <s_lp_Variant>
AV-unprocessed.smi:3132-6

> <Gold.Version>
5.8.1

> <Gold.Id.Protein>
6NUR|6NUR_protein|mol2

> <Gold.PLP.Fitness>
42.4623

> <Gold.PLP.PLP>
-37.5919

> <Gold.PLP.part.hbond>
-1.0000

> <Gold.PLP.part.metal>
0.0000

> <Gold.PLP.part.buried>
-4.4345

> <Gold.PLP.part.nonpolar>
-32.3939

> <Gold.PLP.part.repulsive>
0.1052

> <Gold.PLP.ligand.clash>
0.0000

> <Gold.PLP.ligand.torsion>
1.2994

> <Gold.PLP.Chemscore.Hbond>
0.4841

> <Gold.PLP.Chemscore.CHOScore>
2.0000

> <Gold.PLP.Chemscore.Metal>
0.0000

> <Gold.Chemscore.Hbonds>
donor molecule, donor type, donor heavy atom, donor atom, acceptor molecule, acceptor atom, score
      P1  H 10752 10765       L1     7  0.28
      L1  C     5    23       P1  7957  1.00
      L1  C     6    24       P1  7949  1.00

> <Gold.PLP.Chemscore.Internal.Correction>
0.0168

> <Gold.Rescore>
     Score         DG    S(hbond)    S(metal)    S(lipo)     H(rot)  DE(clash)    DE(int)     intcor
     11.53     -12.19       0.66        0.00      79.34       1.86       0.02       0.63       ----

> <Gold.Chemscore.Fitness>
11.5292

> <Gold.Chemscore.DG>
-12.1852

> <Gold.Chemscore.ZeroCoef>
-5.4800

> <Gold.Chemscore.Hbond>
0.6568

> <Gold.Chemscore.Metal>
0.0000

> <Gold.Chemscore.Lipo>
79.3366

> <Gold.Chemscore.Internal_Hbond>
0.0000

> <Gold.Chemscore.DEClash>
0.0222

> <Gold.Chemscore.DEInternal>
0.6337

> <Gold.Chemscore.Rot>
1.8636

> <Gold.Chemscore.Internal.Correction>
   9.000000E+99

> <Gold.Chemscore.Hbonds>
donor molecule, donor type, donor heavy atom, donor atom, acceptor molecule, acceptor atom, score
      P1  H 10752 10765       L1     7  0.03

> <Gold.Chemscore.Hbond.Weighted>
-2.1937

> <Gold.Chemscore.Metal.Weighted>
-0.0000

> <Gold.Chemscore.Lipo.Weighted>
-9.2824

> <Gold.Chemscore.Internal_Hbond.Weighted>
0.0000

> <Gold.Chemscore.DEClash.Weighted>
0.0222

> <Gold.Chemscore.DEInternal.Weighted>
0.6337

> <Gold.Chemscore.Rot.Weighted>
4.7709

> <Gold.Chemscore.Internal.Correction.Weighted>
   9.000000E+99

> <Gold.Protein.RotatedTorsions>
[ 6907 6896 6895 6894 ] final  114.75 input  -60.11 | X-H torsion
[ 7974 7965 7964 7962 ] final   -1.32 input  175.53 | X-H torsion
[ 8008 7997 7996 7995 ] final   43.91 input   59.86 | X-H torsion
[ 10167 10162 10161 10158 ] final   60.92 input  -65.29 | X-H torsion
[ 10718 10713 10712 10709 ] final    8.76 input   66.30 | X-H torsion
[ 10763 10752 10751 10750 ] final -169.81 input  -60.55 | X-H torsion
[ 11005 11000 10999 10996 ] final   94.56 input  -57.11 | X-H torsion

> <Gold.Protein.ActiveResidues>
 VAL166  LYS551  ARG553  GLY616  TRP617  ASP618  TYR619  PRO620  LYS621  CYS622 
 ASP623  PHE694  ASN695  SER759  ASP760  ASP761  ALA762  ILE779  LEU786  VAL792 
 PHE793  MET794  SER795  GLU796  ALA797  LYS798  CYS799  TRP800  GLU811  SER814 

> <Gold.Protein.RotatedAtoms>
  152.4784  133.8193  159.7044 H   0  0  0  0  0  0  0  0  0  0  0  0  # atno 6907 bound_to 6896
  150.8816  133.7355  159.2937 H   0  0  0  0  0  0  0  0  0  0  0  0  # atno 6908 bound_to 6896
  151.4857  135.1058  159.9842 H   0  0  0  0  0  0  0  0  0  0  0  0  # atno 6909 bound_to 6896
  146.2418  140.1403  142.8335 H   0  0  0  0  0  0  0  0  0  0  0  0  # atno 7974 bound_to 7965
  155.3105  140.3390  155.4244 H   0  0  0  0  0  0  0  0  0  0  0  0  # atno 8008 bound_to 7997
  156.1958  140.1714  156.8039 H   0  0  0  0  0  0  0  0  0  0  0  0  # atno 8009 bound_to 7997
  154.5497  140.0708  156.8631 H   0  0  0  0  0  0  0  0  0  0  0  0  # atno 8010 bound_to 7997
  140.1604  144.4376  150.6712 H   0  0  0  0  0  0  0  0  0  0  0  0  # atno 10167 bound_to 10162
  156.9563  130.5916  149.5659 H   0  0  0  0  0  0  0  0  0  0  0  0  # atno 10718 bound_to 10713
  154.6483  135.2908  155.0019 H   0  0  0  0  0  0  0  0  0  0  0  0  # atno 10763 bound_to 10752
  154.1121  135.6561  153.4891 H   0  0  0  0  0  0  0  0  0  0  0  0  # atno 10764 bound_to 10752
  153.0362  135.5267  154.7379 H   0  0  0  0  0  0  0  0  0  0  0  0  # atno 10765 bound_to 10752
  139.8797  134.8851  156.3881 H   0  0  0  0  0  0  0  0  0  0  0  0  # atno 11005 bound_to 11000
  145.0252  140.8826  143.5143 LP  0  0  0  0  0  0  0  0  0  0  0  0  # atno 17320 bound_to 7965
  145.1458  139.2544  143.5466 LP  0  0  0  0  0  0  0  0  0  0  0  0  # atno 17321 bound_to 7965
  140.6647  143.2264  151.5772 LP  0  0  0  0  0  0  0  0  0  0  0  0  # atno 17342 bound_to 10162
  139.5384  144.2716  152.1300 LP  0  0  0  0  0  0  0  0  0  0  0  0  # atno 17343 bound_to 10162
  156.0341  130.5430  150.8609 LP  0  0  0  0  0  0  0  0  0  0  0  0  # atno 17370 bound_to 10713
  157.5688  131.0946  150.9449 LP  0  0  0  0  0  0  0  0  0  0  0  0  # atno 17371 bound_to 10713
  140.9352  133.7552  156.0075 LP  0  0  0  0  0  0  0  0  0  0  0  0  # atno 17394 bound_to 11000
  140.8284  134.3207  157.5357 LP  0  0  0  0  0  0  0  0  0  0  0  0  # atno 17395 bound_to 11000

$$$$
