AV-unprocessed.smi:3270|AV-procd|sdf|12515|dock1
  -GOLD-   2272018423D 1   1.00000     0.00000
 Structure written by MMmdl.
 39 40  0  0  0  0  0  0  0  0  2 V2000
  151.0187  138.6362  154.4951 C   0  0  0  0  0  0  0  0  0  0  0  0
  150.4884  140.0665  154.7230 C   0  0  1  0  0  0  0  0  0  0  0  0
  148.9560  140.1569  154.6315 C   0  0  0  0  0  0  0  0  0  0  0  0
  148.2942  140.6212  155.5608 O   0  0  0  0  0  0  0  0  0  0  0  0
  148.3993  139.7025  153.4971 N   0  0  0  0  0  0  0  0  0  0  0  0
  146.9711  139.7179  153.2045 C   0  0  0  0  0  0  0  0  0  0  0  0
  146.6668  139.0851  151.8327 C   0  0  0  0  0  0  0  0  0  0  0  0
  146.4285  137.6229  151.9229 N   0  3  0  0  0  0  0  0  0  0  0  0
  145.7371  137.2411  153.1776 C   0  0  0  0  0  0  0  0  0  0  0  0
  145.5513  135.7159  153.2504 C   0  0  0  0  0  0  0  0  0  0  0  0
  144.8303  135.2686  152.1096 O   0  0  0  0  0  0  0  0  0  0  0  0
  145.5247  135.5467  150.9002 C   0  0  0  0  0  0  0  0  0  0  0  0
  145.7114  137.0661  150.7481 C   0  0  0  0  0  0  0  0  0  0  0  0
  150.9587  140.6298  155.9834 N   0  0  0  0  0  0  0  0  0  0  0  0
  150.6569  141.8622  156.5274 C   0  0  0  0  0  0  0  0  0  0  0  0
  151.2949  141.9475  157.7315 C   0  0  0  0  0  0  0  0  0  0  0  0
  151.9652  140.6983  157.8477 C   0  0  0  0  0  0  0  0  0  0  0  0
  151.7571  139.9101  156.8060 N   0  0  0  0  0  0  0  0  0  0  0  0
  150.7059  138.2512  153.5238 H   0  0  0  0  0  0  0  0  0  0  0  0
  150.6633  137.9400  155.2561 H   0  0  0  0  0  0  0  0  0  0  0  0
  152.1086  138.6189  154.5167 H   0  0  0  0  0  0  0  0  0  0  0  0
  150.8939  140.6882  153.9229 H   0  0  0  0  0  0  0  0  0  0  0  0
  149.0109  139.3388  152.7806 H   0  0  0  0  0  0  0  0  0  0  0  0
  146.4387  139.2081  154.0082 H   0  0  0  0  0  0  0  0  0  0  0  0
  146.6341  140.7547  153.2181 H   0  0  0  0  0  0  0  0  0  0  0  0
  145.7755  139.5677  151.4286 H   0  0  0  0  0  0  0  0  0  0  0  0
  147.4708  139.2792  151.1209 H   0  0  0  0  0  0  0  0  0  0  0  0
  146.3160  137.5791  154.0381 H   0  0  0  0  0  0  0  0  0  0  0  0
  144.7669  137.7384  153.2275 H   0  0  0  0  0  0  0  0  0  0  0  0
  146.5152  135.2076  153.3102 H   0  0  0  0  0  0  0  0  0  0  0  0
  144.9939  135.4479  154.1481 H   0  0  0  0  0  0  0  0  0  0  0  0
  146.4871  135.0323  150.8919 H   0  0  0  0  0  0  0  0  0  0  0  0
  144.9469  135.1537  150.0632 H   0  0  0  0  0  0  0  0  0  0  0  0
  144.7388  137.5509  150.6485 H   0  0  0  0  0  0  0  0  0  0  0  0
  146.2631  137.2680  149.8306 H   0  0  0  0  0  0  0  0  0  0  0  0
  150.0198  142.5696  156.0172 H   0  0  0  0  0  0  0  0  0  0  0  0
  151.2823  142.7747  158.4255 H   0  0  0  0  0  0  0  0  0  0  0  0
  152.5890  140.3416  158.6541 H   0  0  0  0  0  0  0  0  0  0  0  0
  147.3365  137.1814  151.9543 H   0  0  0  0  0  0  0  0  0  0  0  0
  1  2  1  0  0  0  0
  1 19  1  0  0  0  0
  1 20  1  0  0  0  0
  1 21  1  0  0  0  0
  2  3  1  0  0  0  0
  2 14  1  0  0  0  0
  2 22  1  0  0  0  0
  3  4  2  0  0  0  0
  3  5  1  0  0  0  0
  5  6  1  0  0  0  0
  5 23  1  0  0  0  0
  6  7  1  0  0  0  0
  6 24  1  0  0  0  0
  6 25  1  0  0  0  0
  7  8  1  0  0  0  0
  7 26  1  0  0  0  0
  7 27  1  0  0  0  0
  8 13  1  0  0  0  0
  8  9  1  0  0  0  0
  8 39  1  0  0  0  0
  9 10  1  0  0  0  0
  9 28  1  0  0  0  0
  9 29  1  0  0  0  0
 10 11  1  0  0  0  0
 10 30  1  0  0  0  0
 10 31  1  0  0  0  0
 11 12  1  0  0  0  0
 12 13  1  0  0  0  0
 12 32  1  0  0  0  0
 12 33  1  0  0  0  0
 13 34  1  0  0  0  0
 13 35  1  0  0  0  0
 14 18  1  0  0  0  0
 14 15  1  0  0  0  0
 15 16  2  0  0  0  0
 15 36  1  0  0  0  0
 16 17  1  0  0  0  0
 16 37  1  0  0  0  0
 17 18  2  0  0  0  0
 17 38  1  0  0  0  0
M  CHG  1   8   1
M  END
> <s_m_source_file>
AV-unprocessed.smi

> <i_m_source_file_index>
3270

> <i_lp_mmshare_version>
43012

> <i_f3d_flags>
0

> <s_epik_input>
bjFbY0hdW2NIXVtjSF1uMVtDQEhdKFtDSDNdKUMoPU8pW05IXVtDSDJdW0NIMl1OMltDSDJdW0NIMl1PW0NIMl1bQ0gyXTI=

> <s_epik_cmdline>
J2VwaWtfcHl0aG9uJywgJy1waCcsICc3LjAnLCAnLXRuJywgJzgnLCAnLW1hJywgJzIwMCcsICctbWV0YWxfYmluZGluZycsICctaW1hZScsICc8aW5maWxlLm1hZT4nLCAnLW9tYWUnLCAnPG91dGZpbGUubWFlPic=

> <r_lp_tautomer_probability>
1

> <r_epik_Ionization_Penalty>
0.73255

> <r_epik_Ionization_Penalty_Charging>
0.732531

> <r_epik_Ionization_Penalty_Neutral>
1.96965e-05

> <r_epik_State_Penalty>
0.757939

> <r_epik_Charging_Adjusted_Penalty>
1.49047

> <i_epik_Tot_Q>
1

> <i_epik_Tot_abs_Q>
1

> <r_epik_Metal_State_Penalty>
0.757952

> <b_epik_Metal_Only>
0

> <s_lp_Force_Field>
OPLS_2005

> <r_lp_Energy>
19.4088

> <b_lp_Chiralities_Consistent>
1

> <s_lp_Variant>
AV-unprocessed.smi:3270-4

> <Gold.Version>
5.8.1

> <Gold.Id.Protein>
6NUR|6NUR_protein|mol2

> <Gold.PLP.Fitness>
42.2577

> <Gold.PLP.PLP>
-32.1648

> <Gold.PLP.part.hbond>
-1.9402

> <Gold.PLP.part.metal>
0.0000

> <Gold.PLP.part.buried>
3.6731

> <Gold.PLP.part.nonpolar>
-34.1027

> <Gold.PLP.part.repulsive>
0.3977

> <Gold.PLP.ligand.clash>
0.0000

> <Gold.PLP.ligand.torsion>
0.4916

> <Gold.PLP.Chemscore.Hbond>
2.6240

> <Gold.PLP.Chemscore.CHOScore>
1.0000

> <Gold.PLP.Chemscore.Metal>
0.0000

> <Gold.Chemscore.Hbonds>
donor molecule, donor type, donor heavy atom, donor atom, acceptor molecule, acceptor atom, score
      L1  H     5    23       P1  7957  0.66
      L1  H     8    39       P1  7948  2.00
      L1  C    15    36       P1  8028  1.00

> <Gold.PLP.Chemscore.Internal.Correction>
0.2041

> <Gold.Rescore>
     Score         DG    S(hbond)    S(metal)    S(lipo)     H(rot)  DE(clash)    DE(int)     intcor
     11.47     -15.33       1.71        0.00      77.30       1.91       1.99       1.87       ----

> <Gold.Chemscore.Fitness>
11.4671

> <Gold.Chemscore.DG>
-15.3273

> <Gold.Chemscore.ZeroCoef>
-5.4800

> <Gold.Chemscore.Hbond>
1.7052

> <Gold.Chemscore.Metal>
0.0000

> <Gold.Chemscore.Lipo>
77.2988

> <Gold.Chemscore.Internal_Hbond>
0.0000

> <Gold.Chemscore.DEClash>
1.9919

> <Gold.Chemscore.DEInternal>
1.8683

> <Gold.Chemscore.Rot>
1.9109

> <Gold.Chemscore.Internal.Correction>
   9.000000E+99

> <Gold.Chemscore.Hbonds>
donor molecule, donor type, donor heavy atom, donor atom, acceptor molecule, acceptor atom, score
      L1  H     5    23       P1  7957  0.66
      L1  H     8    39       P1  7948  1.00

> <Gold.Chemscore.Hbond.Weighted>
-5.6952

> <Gold.Chemscore.Metal.Weighted>
-0.0000

> <Gold.Chemscore.Lipo.Weighted>
-9.0440

> <Gold.Chemscore.Internal_Hbond.Weighted>
0.0000

> <Gold.Chemscore.DEClash.Weighted>
1.9919

> <Gold.Chemscore.DEInternal.Weighted>
1.8683

> <Gold.Chemscore.Rot.Weighted>
4.8919

> <Gold.Chemscore.Internal.Correction.Weighted>
   9.000000E+99

> <Gold.Protein.RotatedTorsions>
[ 6907 6896 6895 6894 ] final -148.70 input  -60.11 | X-H torsion
[ 7974 7965 7964 7962 ] final  176.23 input  175.53 | X-H torsion
[ 8008 7997 7996 7995 ] final   17.63 input   59.86 | X-H torsion
[ 10167 10162 10161 10158 ] final   99.04 input  -65.29 | X-H torsion
[ 10718 10713 10712 10709 ] final  -45.49 input   66.30 | X-H torsion
[ 10763 10752 10751 10750 ] final -147.94 input  -60.55 | X-H torsion
[ 11005 11000 10999 10996 ] final   53.08 input  -57.11 | X-H torsion

> <Gold.Protein.ActiveResidues>
 VAL166  LYS551  ARG553  GLY616  TRP617  ASP618  TYR619  PRO620  LYS621  CYS622 
 ASP623  PHE694  ASN695  SER759  ASP760  ASP761  ALA762  ILE779  LEU786  VAL792 
 PHE793  MET794  SER795  GLU796  ALA797  LYS798  CYS799  TRP800  GLU811  SER814 

> <Gold.Protein.RotatedAtoms>
  151.1736  133.4769  159.2593 H   0  0  0  0  0  0  0  0  0  0  0  0  # atno 6907 bound_to 6896
  151.1331  135.0140  159.8601 H   0  0  0  0  0  0  0  0  0  0  0  0  # atno 6908 bound_to 6896
  152.5460  134.1637  159.8621 H   0  0  0  0  0  0  0  0  0  0  0  0  # atno 6909 bound_to 6896
  144.7188  140.0066  143.6440 H   0  0  0  0  0  0  0  0  0  0  0  0  # atno 7974 bound_to 7965
  154.8942  140.2991  155.5354 H   0  0  0  0  0  0  0  0  0  0  0  0  # atno 8008 bound_to 7997
  156.3020  140.2419  156.3896 H   0  0  0  0  0  0  0  0  0  0  0  0  # atno 8009 bound_to 7997
  154.8588  140.0406  157.1640 H   0  0  0  0  0  0  0  0  0  0  0  0  # atno 8010 bound_to 7997
  139.7654  144.6940  151.0232 H   0  0  0  0  0  0  0  0  0  0  0  0  # atno 10167 bound_to 10162
  156.2278  130.4170  149.8913 H   0  0  0  0  0  0  0  0  0  0  0  0  # atno 10718 bound_to 10713
  154.8260  135.3347  154.6896 H   0  0  0  0  0  0  0  0  0  0  0  0  # atno 10763 bound_to 10752
  153.7522  135.6938  153.4948 H   0  0  0  0  0  0  0  0  0  0  0  0  # atno 10764 bound_to 10752
  153.2169  135.4462  155.0394 H   0  0  0  0  0  0  0  0  0  0  0  0  # atno 10765 bound_to 10752
  140.0797  134.5356  155.8960 H   0  0  0  0  0  0  0  0  0  0  0  0  # atno 11005 bound_to 11000
  146.0292  139.3320  143.0765 LP  0  0  0  0  0  0  0  0  0  0  0  0  # atno 17320 bound_to 7965
  145.8473  140.9548  143.0768 LP  0  0  0  0  0  0  0  0  0  0  0  0  # atno 17321 bound_to 7965
  140.7810  143.4649  151.0226 LP  0  0  0  0  0  0  0  0  0  0  0  0  # atno 17342 bound_to 10162
  139.8334  143.7660  152.3180 LP  0  0  0  0  0  0  0  0  0  0  0  0  # atno 17343 bound_to 10162
  156.6537  130.8754  151.3536 LP  0  0  0  0  0  0  0  0  0  0  0  0  # atno 17370 bound_to 10713
  157.7118  130.9450  150.1117 LP  0  0  0  0  0  0  0  0  0  0  0  0  # atno 17371 bound_to 10713
  141.2042  133.6637  156.6107 LP  0  0  0  0  0  0  0  0  0  0  0  0  # atno 17394 bound_to 11000
  140.3506  134.7771  157.4464 LP  0  0  0  0  0  0  0  0  0  0  0  0  # atno 17395 bound_to 11000

$$$$
