AV-unprocessed.smi:2424|AV-procd|sdf|9568|dock2
  -GOLD-   2272013203D 1   1.00000     0.00000
 Structure written by MMmdl.
 49 50  0  0  0  0  0  0  0  0  2 V2000
  146.9611  137.7345  158.2253 C   0  0  0  0  0  0  0  0  0  0  0  0
  146.3318  137.8870  156.8316 C   0  0  0  0  0  0  0  0  0  0  0  0
  147.3169  138.2436  155.6946 C   0  0  0  0  0  0  0  0  0  0  0  0
  148.5194  137.2638  155.7429 C   0  0  0  0  0  0  0  0  0  0  0  0
  149.7357  137.6742  154.8962 C   0  0  0  0  0  0  0  0  0  0  0  0
  146.6546  138.4620  154.3070 C   0  0  2  0  0  0  0  0  0  0  0  0
  146.8545  137.3669  153.3611 N   0  0  0  0  0  0  0  0  0  0  0  0
  145.8918  136.5590  152.8980 C   0  0  0  0  0  0  0  0  0  0  0  0
  144.7063  136.6721  153.2079 O   0  0  0  0  0  0  0  0  0  0  0  0
  146.4055  135.6338  152.0684 N   0  0  0  0  0  0  0  0  0  0  0  0
  145.7481  134.5855  151.4125 C   0  0  0  0  0  0  0  0  0  0  0  0
  144.3910  134.4003  151.5820 C   0  0  0  0  0  0  0  0  0  0  0  0
  143.5897  133.4582  151.0395 N   0  5  0  0  0  0  0  0  0  0  0  0
  144.1522  132.5425  150.1995 C   0  0  0  0  0  0  0  0  0  0  0  0
  143.4857  131.6532  149.6714 O   0  0  0  0  0  0  0  0  0  0  0  0
  145.5999  132.6276  149.9198 C   0  0  0  0  0  0  0  0  0  0  0  0
  146.2214  131.6118  148.9765 C   0  0  0  0  0  0  0  0  0  0  0  0
  146.3396  133.6035  150.5039 C   0  0  0  0  0  0  0  0  0  0  0  0
  147.6082  139.6318  154.0489 C   0  0  1  0  0  0  0  0  0  0  0  0
  147.1423  140.8243  153.2233 C   0  0  0  0  0  0  0  0  0  0  0  0
  147.7223  139.7438  155.5774 C   0  0  1  0  0  0  0  0  0  0  0  0
  146.7512  140.6522  156.0847 O   0  0  0  0  0  0  0  0  0  0  0  0
  147.1578  142.0070  155.9900 C   0  0  0  0  0  0  0  0  0  0  0  0
  146.2156  137.3907  158.9425 H   0  0  0  0  0  0  0  0  0  0  0  0
  147.3571  138.6767  158.6025 H   0  0  0  0  0  0  0  0  0  0  0  0
  147.7682  137.0035  158.2218 H   0  0  0  0  0  0  0  0  0  0  0  0
  145.8432  136.9391  156.6055 H   0  0  0  0  0  0  0  0  0  0  0  0
  145.5188  138.6098  156.8848 H   0  0  0  0  0  0  0  0  0  0  0  0
  148.8428  137.0960  156.7698 H   0  0  0  0  0  0  0  0  0  0  0  0
  148.2089  136.2790  155.3942 H   0  0  0  0  0  0  0  0  0  0  0  0
  150.4803  136.8782  154.8897 H   0  0  0  0  0  0  0  0  0  0  0  0
  150.2249  138.5637  155.2918 H   0  0  0  0  0  0  0  0  0  0  0  0
  149.4592  137.8721  153.8608 H   0  0  0  0  0  0  0  0  0  0  0  0
  145.6210  138.8070  154.3904 H   0  0  0  0  0  0  0  0  0  0  0  0
  147.8000  137.2035  153.0482 H   0  0  0  0  0  0  0  0  0  0  0  0
  147.3977  135.6885  151.8908 H   0  0  0  0  0  0  0  0  0  0  0  0
  143.8721  135.1134  152.2585 H   0  0  0  0  0  0  0  0  0  0  0  0
  147.2897  131.7880  148.8484 H   0  0  0  0  0  0  0  0  0  0  0  0
  145.7511  131.6658  147.9942 H   0  0  0  0  0  0  0  0  0  0  0  0
  146.0910  130.6016  149.3659 H   0  0  0  0  0  0  0  0  0  0  0  0
  147.3909  133.6394  150.2698 H   0  0  0  0  0  0  0  0  0  0  0  0
  148.5579  139.2613  153.6580 H   0  0  0  0  0  0  0  0  0  0  0  0
  146.1685  141.1866  153.5535 H   0  0  0  0  0  0  0  0  0  0  0  0
  147.0509  140.5590  152.1699 H   0  0  0  0  0  0  0  0  0  0  0  0
  147.8466  141.6532  153.2960 H   0  0  0  0  0  0  0  0  0  0  0  0
  148.7404  139.9786  155.8926 H   0  0  0  0  0  0  0  0  0  0  0  0
  146.3978  142.6489  156.4350 H   0  0  0  0  0  0  0  0  0  0  0  0
  147.2802  142.3045  154.9479 H   0  0  0  0  0  0  0  0  0  0  0  0
  148.0972  142.1841  156.5134 H   0  0  0  0  0  0  0  0  0  0  0  0
  1  2  1  0  0  0  0
  1 24  1  0  0  0  0
  1 25  1  0  0  0  0
  1 26  1  0  0  0  0
  2  3  1  0  0  0  0
  2 27  1  0  0  0  0
  2 28  1  0  0  0  0
  3 21  1  0  0  0  0
  3  4  1  0  0  0  0
  3  6  1  0  0  0  0
  4  5  1  0  0  0  0
  4 29  1  0  0  0  0
  4 30  1  0  0  0  0
  5 31  1  0  0  0  0
  5 32  1  0  0  0  0
  5 33  1  0  0  0  0
  6  7  1  0  0  0  0
  6 19  1  0  0  0  0
  6 34  1  0  0  0  0
  7  8  1  0  0  0  0
  7 35  1  0  0  0  0
  8  9  2  0  0  0  0
  8 10  1  0  0  0  0
 10 11  1  0  0  0  0
 10 36  1  0  0  0  0
 11 18  1  0  0  0  0
 11 12  2  0  0  0  0
 12 13  1  0  0  0  0
 12 37  1  0  0  0  0
 13 14  1  0  0  0  0
 14 15  2  0  0  0  0
 14 16  1  0  0  0  0
 16 17  1  0  0  0  0
 16 18  2  0  0  0  0
 17 38  1  0  0  0  0
 17 39  1  0  0  0  0
 17 40  1  0  0  0  0
 18 41  1  0  0  0  0
 19 20  1  0  0  0  0
 19 21  1  0  0  0  0
 19 42  1  0  0  0  0
 20 43  1  0  0  0  0
 20 44  1  0  0  0  0
 20 45  1  0  0  0  0
 21 22  1  0  0  0  0
 21 46  1  0  0  0  0
 22 23  1  0  0  0  0
 23 47  1  0  0  0  0
 23 48  1  0  0  0  0
 23 49  1  0  0  0  0
M  CHG  1  13  -1
M  END
> <s_m_source_file>
AV-unprocessed.smi

> <i_m_source_file_index>
2424

> <i_lp_mmshare_version>
43012

> <i_f3d_flags>
0

> <s_epik_input>
W0NIM11PW0NAQEhdMVtDQEhdKFtDSDNdKVtDQEBIXShDMShbQ0gyXVtDSDNdKVtDSDJdW0NIM10pW05IXUMoPU8pW05IXWMyW2NIXVtuSF1jKD1PKWMoW0NIM10pW2NIXTI=

> <s_epik_cmdline>
J2VwaWtfcHl0aG9uJywgJy1waCcsICc3LjAnLCAnLXRuJywgJzgnLCAnLW1hJywgJzIwMCcsICctbWV0YWxfYmluZGluZycsICctaW1hZScsICc8aW5maWxlLm1hZT4nLCAnLW9tYWUnLCAnPG91dGZpbGUubWFlPic=

> <r_lp_tautomer_probability>
1

> <r_epik_Ionization_Penalty>
7.6122

> <r_epik_Ionization_Penalty_Charging>
1.53843

> <r_epik_Ionization_Penalty_Neutral>
6.07377

> <r_epik_State_Penalty>
6.07371

> <r_epik_Charging_Adjusted_Penalty>
7.61214

> <i_epik_Tot_Q>
-1

> <i_epik_Tot_abs_Q>
1

> <r_epik_Metal_State_Penalty>
2.02136

> <b_epik_Metal_Only>
1

> <s_lp_Force_Field>
OPLS_2005

> <r_lp_Energy>
41.6495

> <b_lp_Chiralities_Consistent>
1

> <s_lp_Variant>
AV-unprocessed.smi:2424-10

> <Gold.Version>
5.8.1

> <Gold.Id.Protein>
6NUR|6NUR_protein|mol2

> <Gold.PLP.Fitness>
34.1115

> <Gold.PLP.PLP>
-25.8615

> <Gold.PLP.part.hbond>
-3.0000

> <Gold.PLP.part.metal>
0.0000

> <Gold.PLP.part.buried>
-3.3431

> <Gold.PLP.part.nonpolar>
-20.7144

> <Gold.PLP.part.repulsive>
1.6122

> <Gold.PLP.ligand.clash>
0.0000

> <Gold.PLP.ligand.torsion>
0.6342

> <Gold.PLP.Chemscore.Hbond>
2.9360

> <Gold.PLP.Chemscore.CHOScore>
0.0000

> <Gold.PLP.Chemscore.Metal>
0.0000

> <Gold.Chemscore.Hbonds>
donor molecule, donor type, donor heavy atom, donor atom, acceptor molecule, acceptor atom, score
      L1  H     7    35       P1  7948  0.94
      L1  H    10    36       P1  7948  1.00
      P1  H 10785 10796       L1    15  1.00

> <Gold.PLP.Chemscore.Internal.Correction>
0.7103

> <Gold.Rescore>
     Score         DG    S(hbond)    S(metal)    S(lipo)     H(rot)  DE(clash)    DE(int)     intcor
     15.57     -19.09       2.84        0.00      68.49       1.52       0.46       3.06       ----

> <Gold.Chemscore.Fitness>
15.5739

> <Gold.Chemscore.DG>
-19.0917

> <Gold.Chemscore.ZeroCoef>
-5.4800

> <Gold.Chemscore.Hbond>
2.8416

> <Gold.Chemscore.Metal>
0.0000

> <Gold.Chemscore.Lipo>
68.4875

> <Gold.Chemscore.Internal_Hbond>
0.0000

> <Gold.Chemscore.DEClash>
0.4574

> <Gold.Chemscore.DEInternal>
3.0605

> <Gold.Chemscore.Rot>
1.5204

> <Gold.Chemscore.Internal.Correction>
   9.000000E+99

> <Gold.Chemscore.Hbonds>
donor molecule, donor type, donor heavy atom, donor atom, acceptor molecule, acceptor atom, score
      L1  H     7    35       P1  7948  0.91
      L1  H    10    36       P1  7948  0.99
      P1  H 10785 10796       L1    15  0.94

> <Gold.Chemscore.Hbond.Weighted>
-9.4910

> <Gold.Chemscore.Metal.Weighted>
-0.0000

> <Gold.Chemscore.Lipo.Weighted>
-8.0130

> <Gold.Chemscore.Internal_Hbond.Weighted>
0.0000

> <Gold.Chemscore.DEClash.Weighted>
0.4574

> <Gold.Chemscore.DEInternal.Weighted>
3.0605

> <Gold.Chemscore.Rot.Weighted>
3.8922

> <Gold.Chemscore.Internal.Correction.Weighted>
   9.000000E+99

> <Gold.Protein.RotatedTorsions>
[ 6907 6896 6895 6894 ] final  -89.59 input  -60.11 | X-H torsion
[ 7974 7965 7964 7962 ] final  108.69 input  175.53 | X-H torsion
[ 8008 7997 7996 7995 ] final  -14.20 input   59.86 | X-H torsion
[ 10167 10162 10161 10158 ] final   85.21 input  -65.29 | X-H torsion
[ 10718 10713 10712 10709 ] final    1.29 input   66.30 | X-H torsion
[ 10763 10752 10751 10750 ] final  -13.48 input  -60.55 | X-H torsion
[ 11005 11000 10999 10996 ] final  151.52 input  -57.11 | X-H torsion

> <Gold.Protein.ActiveResidues>
 VAL166  LYS551  ARG553  GLY616  TRP617  ASP618  TYR619  PRO620  LYS621  CYS622 
 ASP623  PHE694  ASN695  SER759  ASP760  ASP761  ALA762  ILE779  LEU786  VAL792 
 PHE793  MET794  SER795  GLU796  ALA797  LYS798  CYS799  TRP800  GLU811  SER814 

> <Gold.Protein.RotatedAtoms>
  150.6875  134.2563  159.4530 H   0  0  0  0  0  0  0  0  0  0  0  0  # atno 6907 bound_to 6896
  152.0496  134.9659  160.0584 H   0  0  0  0  0  0  0  0  0  0  0  0  # atno 6908 bound_to 6896
  152.1128  133.4275  159.4676 H   0  0  0  0  0  0  0  0  0  0  0  0  # atno 6909 bound_to 6896
  145.2774  139.2644  143.3933 H   0  0  0  0  0  0  0  0  0  0  0  0  # atno 7974 bound_to 7965
  154.5229  140.2229  155.8943 H   0  0  0  0  0  0  0  0  0  0  0  0  # atno 8008 bound_to 7997
  156.1682  140.3127  155.8890 H   0  0  0  0  0  0  0  0  0  0  0  0  # atno 8009 bound_to 7997
  155.3613  140.0461  157.3037 H   0  0  0  0  0  0  0  0  0  0  0  0  # atno 8010 bound_to 7997
  139.9001  144.6334  150.8646 H   0  0  0  0  0  0  0  0  0  0  0  0  # atno 10167 bound_to 10162
  156.8460  130.5537  149.5673 H   0  0  0  0  0  0  0  0  0  0  0  0  # atno 10718 bound_to 10713
  153.5139  135.7016  153.5766 H   0  0  0  0  0  0  0  0  0  0  0  0  # atno 10763 bound_to 10752
  153.3845  135.3911  155.1880 H   0  0  0  0  0  0  0  0  0  0  0  0  # atno 10764 bound_to 10752
  154.8701  135.3843  154.4621 H   0  0  0  0  0  0  0  0  0  0  0  0  # atno 10765 bound_to 10752
  140.1226  134.8854  157.2093 H   0  0  0  0  0  0  0  0  0  0  0  0  # atno 11005 bound_to 11000
  146.3227  140.3233  142.8635 LP  0  0  0  0  0  0  0  0  0  0  0  0  # atno 17320 bound_to 7965
  144.9282  140.7945  143.5706 LP  0  0  0  0  0  0  0  0  0  0  0  0  # atno 17321 bound_to 7965
  140.7708  143.3443  151.2143 LP  0  0  0  0  0  0  0  0  0  0  0  0  # atno 17342 bound_to 10162
  139.7033  143.9497  152.2915 LP  0  0  0  0  0  0  0  0  0  0  0  0  # atno 17343 bound_to 10162
  156.0854  130.5854  150.9639 LP  0  0  0  0  0  0  0  0  0  0  0  0  # atno 17370 bound_to 10713
  157.6329  131.0919  150.8405 LP  0  0  0  0  0  0  0  0  0  0  0  0  # atno 17371 bound_to 10713
  140.2946  134.3202  155.7306 LP  0  0  0  0  0  0  0  0  0  0  0  0  # atno 17394 bound_to 11000
  141.2155  133.7555  156.9552 LP  0  0  0  0  0  0  0  0  0  0  0  0  # atno 17395 bound_to 11000

$$$$
