AV-unprocessed.smi:2330|AV-procd|sdf|9312|dock8
  -GOLD-   2272012533D 1   1.00000     0.00000
 Structure written by MMmdl.
 42 43  0  0  0  0  0  0  0  0  1 V2000
  146.0158  132.4117  150.0085 C   0  0  0  0  0  0  0  0  0  0  0  0
  145.4239  133.0944  151.2497 C   0  0  2  0  0  0  0  0  0  0  0  0
  145.3655  134.6241  151.0751 C   0  0  0  0  0  0  0  0  0  0  0  0
  144.7835  135.3186  152.3200 C   0  0  0  0  0  0  0  0  0  0  0  0
  145.5487  134.9483  153.6049 C   0  0  2  0  0  0  0  0  0  0  0  0
  146.8800  135.5522  153.5895 N   0  0  0  0  0  0  0  0  0  0  0  0
  147.3890  136.3380  154.5483 C   0  0  0  0  0  0  0  0  0  0  0  0
  146.7810  136.6673  155.5669 O   0  0  0  0  0  0  0  0  0  0  0  0
  148.6469  136.7066  154.2682 N   0  0  0  0  0  0  0  0  0  0  0  0
  149.4951  137.5385  155.1169 C   0  0  0  0  0  0  0  0  0  0  0  0
  150.0348  138.7791  154.3734 C   0  0  2  0  0  0  0  0  0  0  0  0
  151.2388  139.4589  155.0488 C   0  0  0  0  0  0  0  0  0  0  0  0
  148.9432  139.7623  154.0858 C   0  0  0  0  0  0  0  0  0  0  0  0
  149.0366  141.0724  154.3363 N   0  0  0  0  0  0  0  0  0  0  0  0
  147.8817  141.7710  153.9767 C   0  0  0  0  0  0  0  0  0  0  0  0
  146.9021  140.9717  153.4450 C   0  0  0  0  0  0  0  0  0  0  0  0
  147.3974  139.3029  153.3777 S   0  0  0  0  0  0  0  0  0  0  0  0
  145.6262  133.4154  153.7691 C   0  0  0  0  0  0  0  0  0  0  0  0
  146.2092  132.7260  152.5229 C   0  0  0  0  0  0  0  0  0  0  0  0
  147.0420  132.7343  149.8300 H   0  0  0  0  0  0  0  0  0  0  0  0
  145.4334  132.6452  149.1168 H   0  0  0  0  0  0  0  0  0  0  0  0
  146.0228  131.3273  150.1221 H   0  0  0  0  0  0  0  0  0  0  0  0
  144.4020  132.7308  151.3687 H   0  0  0  0  0  0  0  0  0  0  0  0
  146.3653  135.0107  150.8733 H   0  0  0  0  0  0  0  0  0  0  0  0
  144.7601  134.8758  150.2035 H   0  0  0  0  0  0  0  0  0  0  0  0
  144.7837  136.4001  152.1788 H   0  0  0  0  0  0  0  0  0  0  0  0
  143.7377  135.0293  152.4313 H   0  0  0  0  0  0  0  0  0  0  0  0
  145.0001  135.3628  154.4527 H   0  0  0  0  0  0  0  0  0  0  0  0
  147.4623  135.3393  152.7928 H   0  0  0  0  0  0  0  0  0  0  0  0
  149.0542  136.3791  153.4045 H   0  0  0  0  0  0  0  0  0  0  0  0
  148.8860  137.8587  155.9629 H   0  0  0  0  0  0  0  0  0  0  0  0
  150.3174  136.9581  155.5391 H   0  0  0  0  0  0  0  0  0  0  0  0
  150.3874  138.4303  153.4018 H   0  0  0  0  0  0  0  0  0  0  0  0
  151.5881  140.3078  154.4600 H   0  0  0  0  0  0  0  0  0  0  0  0
  152.0799  138.7747  155.1576 H   0  0  0  0  0  0  0  0  0  0  0  0
  150.9785  139.8269  156.0417 H   0  0  0  0  0  0  0  0  0  0  0  0
  147.8421  142.8387  154.1343 H   0  0  0  0  0  0  0  0  0  0  0  0
  145.9241  141.2618  153.0908 H   0  0  0  0  0  0  0  0  0  0  0  0
  146.2141  133.1531  154.6495 H   0  0  0  0  0  0  0  0  0  0  0  0
  144.6239  133.0265  153.9524 H   0  0  0  0  0  0  0  0  0  0  0  0
  146.1959  131.6452  152.6676 H   0  0  0  0  0  0  0  0  0  0  0  0
  147.2570  133.0057  152.4059 H   0  0  0  0  0  0  0  0  0  0  0  0
  1  2  1  0  0  0  0
  1 20  1  0  0  0  0
  1 21  1  0  0  0  0
  1 22  1  0  0  0  0
  2 19  1  0  0  0  0
  2  3  1  0  0  0  0
  2 23  1  0  0  0  0
  3  4  1  0  0  0  0
  3 24  1  0  0  0  0
  3 25  1  0  0  0  0
  4  5  1  0  0  0  0
  4 26  1  0  0  0  0
  4 27  1  0  0  0  0
  5  6  1  0  0  0  0
  5 18  1  0  0  0  0
  5 28  1  0  0  0  0
  6  7  1  0  0  0  0
  6 29  1  0  0  0  0
  7  8  2  0  0  0  0
  7  9  1  0  0  0  0
  9 10  1  0  0  0  0
  9 30  1  0  0  0  0
 10 11  1  0  0  0  0
 10 31  1  0  0  0  0
 10 32  1  0  0  0  0
 11 12  1  0  0  0  0
 11 13  1  0  0  0  0
 11 33  1  0  0  0  0
 12 34  1  0  0  0  0
 12 35  1  0  0  0  0
 12 36  1  0  0  0  0
 13 17  1  0  0  0  0
 13 14  2  0  0  0  0
 14 15  1  0  0  0  0
 15 16  2  0  0  0  0
 15 37  1  0  0  0  0
 16 17  1  0  0  0  0
 16 38  1  0  0  0  0
 18 19  1  0  0  0  0
 18 39  1  0  0  0  0
 18 40  1  0  0  0  0
 19 41  1  0  0  0  0
 19 42  1  0  0  0  0
M  END
> <s_m_source_file>
AV-unprocessed.smi

> <i_m_source_file_index>
2330

> <i_lp_mmshare_version>
43012

> <i_f3d_flags>
0

> <s_epik_input>
W0NIM11bQ0BASF0xW0NIMl1bQ0gyXVtDQEhdKFtDSDJdW0NIMl0xKVtOSF1DKD1PKVtOSF1bQ0gyXVtDQEhdKFtDSDNdKWMybltjSF1bY0hdczI=

> <s_epik_cmdline>
J2VwaWtfcHl0aG9uJywgJy1waCcsICc3LjAnLCAnLXRuJywgJzgnLCAnLW1hJywgJzIwMCcsICctbWV0YWxfYmluZGluZycsICctaW1hZScsICc8aW5maWxlLm1hZT4nLCAnLW9tYWUnLCAnPG91dGZpbGUubWFlPic=

> <r_lp_tautomer_probability>
1

> <r_epik_Ionization_Penalty>
0.000331107

> <r_epik_Ionization_Penalty_Charging>
0

> <r_epik_Ionization_Penalty_Neutral>
0.000331107

> <r_epik_State_Penalty>
-0

> <r_epik_Charging_Adjusted_Penalty>
0

> <i_epik_Tot_Q>
0

> <i_epik_Tot_abs_Q>
0

> <r_epik_Metal_State_Penalty>
-0

> <b_epik_Metal_Only>
0

> <s_lp_Force_Field>
OPLS_2005

> <r_lp_Energy>
-1.48662

> <b_lp_Chiralities_Consistent>
1

> <s_lp_Variant>
AV-unprocessed.smi:2330-3

> <Gold.Version>
5.8.1

> <Gold.Id.Protein>
6NUR|6NUR_protein|mol2

> <Gold.PLP.Fitness>
40.2096

> <Gold.PLP.PLP>
-29.4559

> <Gold.PLP.part.hbond>
-1.8287

> <Gold.PLP.part.metal>
0.0000

> <Gold.PLP.part.buried>
-2.8568

> <Gold.PLP.part.nonpolar>
-25.6679

> <Gold.PLP.part.repulsive>
0.1720

> <Gold.PLP.ligand.clash>
0.0000

> <Gold.PLP.ligand.torsion>
0.2928

> <Gold.PLP.Chemscore.Hbond>
1.7520

> <Gold.PLP.Chemscore.CHOScore>
1.9892

> <Gold.PLP.Chemscore.Metal>
0.0000

> <Gold.Chemscore.Hbonds>
donor molecule, donor type, donor heavy atom, donor atom, acceptor molecule, acceptor atom, score
      L1  H     6    29       P1  7948  0.74
      L1  H     9    30       P1  7948  1.00
      L1  C    15    37       P1  8028  0.84
      L1  C    16    38       P1 10175  0.88

> <Gold.PLP.Chemscore.Internal.Correction>
0.1158

> <Gold.Rescore>
     Score         DG    S(hbond)    S(metal)    S(lipo)     H(rot)  DE(clash)    DE(int)     intcor
     16.44     -16.83       1.81        0.00      77.17       1.45       0.04       0.35       ----

> <Gold.Chemscore.Fitness>
16.4397

> <Gold.Chemscore.DG>
-16.8317

> <Gold.Chemscore.ZeroCoef>
-5.4800

> <Gold.Chemscore.Hbond>
1.8096

> <Gold.Chemscore.Metal>
0.0000

> <Gold.Chemscore.Lipo>
77.1695

> <Gold.Chemscore.Internal_Hbond>
0.0000

> <Gold.Chemscore.DEClash>
0.0444

> <Gold.Chemscore.DEInternal>
0.3476

> <Gold.Chemscore.Rot>
1.4536

> <Gold.Chemscore.Internal.Correction>
   9.000000E+99

> <Gold.Chemscore.Hbonds>
donor molecule, donor type, donor heavy atom, donor atom, acceptor molecule, acceptor atom, score
      L1  H     6    29       P1  7948  0.73
      L1  H     9    30       P1  7948  0.87

> <Gold.Chemscore.Hbond.Weighted>
-6.0441

> <Gold.Chemscore.Metal.Weighted>
-0.0000

> <Gold.Chemscore.Lipo.Weighted>
-9.0288

> <Gold.Chemscore.Internal_Hbond.Weighted>
0.0000

> <Gold.Chemscore.DEClash.Weighted>
0.0444

> <Gold.Chemscore.DEInternal.Weighted>
0.3476

> <Gold.Chemscore.Rot.Weighted>
3.7212

> <Gold.Chemscore.Internal.Correction.Weighted>
   9.000000E+99

> <Gold.Protein.RotatedTorsions>
[ 6907 6896 6895 6894 ] final   15.95 input  -60.11 | X-H torsion
[ 7974 7965 7964 7962 ] final  -29.54 input  175.53 | X-H torsion
[ 8008 7997 7996 7995 ] final  -46.46 input   59.86 | X-H torsion
[ 10167 10162 10161 10158 ] final -128.08 input  -65.29 | X-H torsion
[ 10718 10713 10712 10709 ] final  162.94 input   66.30 | X-H torsion
[ 10763 10752 10751 10750 ] final   58.01 input  -60.55 | X-H torsion
[ 11005 11000 10999 10996 ] final  140.32 input  -57.11 | X-H torsion

> <Gold.Protein.ActiveResidues>
 VAL166  LYS551  ARG553  GLY616  TRP617  ASP618  TYR619  PRO620  LYS621  CYS622 
 ASP623  PHE694  ASN695  SER759  ASP760  ASP761  ALA762  ILE779  LEU786  VAL792 
 PHE793  MET794  SER795  GLU796  ALA797  LYS798  CYS799  TRP800  GLU811  SER814 

> <Gold.Protein.RotatedAtoms>
  151.8261  135.0636  160.0430 H   0  0  0  0  0  0  0  0  0  0  0  0  # atno 6907 bound_to 6896
  152.2915  133.5561  159.5569 H   0  0  0  0  0  0  0  0  0  0  0  0  # atno 6908 bound_to 6896
  150.7232  134.0338  159.3784 H   0  0  0  0  0  0  0  0  0  0  0  0  # atno 6909 bound_to 6896
  146.1209  140.5425  142.8736 H   0  0  0  0  0  0  0  0  0  0  0  0  # atno 7974 bound_to 7965
  154.4007  140.1371  156.4014 H   0  0  0  0  0  0  0  0  0  0  0  0  # atno 8008 bound_to 7997
  155.7820  140.3481  155.5282 H   0  0  0  0  0  0  0  0  0  0  0  0  # atno 8009 bound_to 7997
  155.8664  140.0964  157.1570 H   0  0  0  0  0  0  0  0  0  0  0  0  # atno 8010 bound_to 7997
  139.9541  143.6023  152.2466 H   0  0  0  0  0  0  0  0  0  0  0  0  # atno 10167 bound_to 10162
  157.1155  131.0479  151.2438 H   0  0  0  0  0  0  0  0  0  0  0  0  # atno 10718 bound_to 10713
  152.9861  135.5622  154.5483 H   0  0  0  0  0  0  0  0  0  0  0  0  # atno 10763 bound_to 10752
  154.4925  135.2793  155.1488 H   0  0  0  0  0  0  0  0  0  0  0  0  # atno 10764 bound_to 10752
  154.2951  135.6318  153.5454 H   0  0  0  0  0  0  0  0  0  0  0  0  # atno 10765 bound_to 10752
  140.0319  134.9348  157.0678 H   0  0  0  0  0  0  0  0  0  0  0  0  # atno 11005 bound_to 11000
  144.7596  140.5391  143.6745 LP  0  0  0  0  0  0  0  0  0  0  0  0  # atno 17320 bound_to 7965
  145.5468  139.1476  143.3416 LP  0  0  0  0  0  0  0  0  0  0  0  0  # atno 17321 bound_to 7965
  139.6605  144.7662  151.1972 LP  0  0  0  0  0  0  0  0  0  0  0  0  # atno 17342 bound_to 10162
  140.7574  143.6017  150.8693 LP  0  0  0  0  0  0  0  0  0  0  0  0  # atno 17343 bound_to 10162
  157.4522  130.7605  149.7161 LP  0  0  0  0  0  0  0  0  0  0  0  0  # atno 17370 bound_to 10713
  155.9840  130.3995  150.3332 LP  0  0  0  0  0  0  0  0  0  0  0  0  # atno 17371 bound_to 10713
  140.4212  134.1879  155.7164 LP  0  0  0  0  0  0  0  0  0  0  0  0  # atno 17394 bound_to 11000
  141.1835  133.8362  157.1171 LP  0  0  0  0  0  0  0  0  0  0  0  0  # atno 17395 bound_to 11000

$$$$
