AV-unprocessed.smi:110|AV-procd|sdf|1072|dock2
  -GOLD-   2262018153D 1   1.00000     0.00000
 Structure written by MMmdl.
 46 50  0  0  0  0  0  0  0  0  1 V2000
  147.3623  139.9515  151.7165 O   0  0  0  0  0  0  0  0  0  0  0  0
  147.2245  140.6181  152.9542 C   0  0  0  0  0  0  0  0  0  0  0  0
  148.2428  140.1236  153.9972 C   0  0  2  0  0  0  0  0  0  0  0  0
  149.5638  140.4892  153.6298 O   0  0  0  0  0  0  0  0  0  0  0  0
  150.4639  139.7299  154.3768 C   0  0  1  0  0  0  0  0  0  0  0  0
  150.8380  140.5006  155.6071 N   0  0  0  0  0  0  0  0  0  0  0  0
  150.4085  141.7388  156.0355 C   0  0  0  0  0  0  0  0  0  0  0  0
  150.9327  142.1524  157.1573 N   0  0  0  0  0  0  0  0  0  0  0  0
  151.8198  141.1444  157.5159 C   0  0  0  0  0  0  0  0  0  0  0  0
  152.7155  140.9365  158.6039 C   0  0  0  0  0  0  0  0  0  0  0  0
  152.8932  141.7983  159.6324 N   0  0  0  0  0  0  0  0  0  0  0  0
  153.2744  141.2748  160.9520 C   0  0  0  0  0  0  0  0  0  0  0  0
  152.9484  142.3605  161.9948 C   0  0  0  0  0  0  0  0  0  0  0  0
  152.5153  143.4844  161.1098 C   0  0  0  0  0  0  0  0  0  0  0  0
  152.1649  144.7885  161.4998 C   0  0  0  0  0  0  0  0  0  0  0  0
  151.8083  145.7105  160.4927 C   0  0  0  0  0  0  0  0  0  0  0  0
  151.8171  145.3223  159.1327 C   0  0  0  0  0  0  0  0  0  0  0  0
  152.1745  144.0065  158.7642 C   0  0  0  0  0  0  0  0  0  0  0  0
  152.5084  143.0839  159.7773 C   0  0  0  0  0  0  0  0  0  0  0  0
  153.4031  139.7662  158.6363 N   0  0  0  0  0  0  0  0  0  0  0  0
  153.2607  138.8747  157.6520 C   0  0  0  0  0  0  0  0  0  0  0  0
  152.4835  138.9441  156.5699 N   0  0  0  0  0  0  0  0  0  0  0  0
  151.7635  140.1029  156.5476 C   0  0  0  0  0  0  0  0  0  0  0  0
  149.7460  138.4182  154.7645 C   0  0  2  0  0  0  0  0  0  0  0  0
  150.3530  137.2995  154.1507 O   0  0  0  0  0  0  0  0  0  0  0  0
  148.3216  138.6121  154.2411 C   0  0  1  0  0  0  0  0  0  0  0  0
  147.3725  138.2301  155.2170 O   0  0  0  0  0  0  0  0  0  0  0  0
  148.0299  140.6277  154.9418 H   0  0  0  0  0  0  0  0  0  0  0  0
  151.4088  139.5963  153.8479 H   0  0  0  0  0  0  0  0  0  0  0  0
  149.7623  138.2854  155.8477 H   0  0  0  0  0  0  0  0  0  0  0  0
  148.1679  138.0468  153.3212 H   0  0  0  0  0  0  0  0  0  0  0  0
  148.1978  140.1836  151.3406 H   0  0  0  0  0  0  0  0  0  0  0  0
  147.3236  141.6933  152.8031 H   0  0  0  0  0  0  0  0  0  0  0  0
  146.2122  140.4395  153.3177 H   0  0  0  0  0  0  0  0  0  0  0  0
  149.6868  142.3339  155.4954 H   0  0  0  0  0  0  0  0  0  0  0  0
  152.7430  140.3479  161.1726 H   0  0  0  0  0  0  0  0  0  0  0  0
  154.3427  141.0555  160.9526 H   0  0  0  0  0  0  0  0  0  0  0  0
  152.1336  142.0614  162.6547 H   0  0  0  0  0  0  0  0  0  0  0  0
  153.8175  142.6366  162.5920 H   0  0  0  0  0  0  0  0  0  0  0  0
  152.1740  145.0787  162.5401 H   0  0  0  0  0  0  0  0  0  0  0  0
  151.5357  146.7204  160.7613 H   0  0  0  0  0  0  0  0  0  0  0  0
  151.5536  146.0391  158.3692 H   0  0  0  0  0  0  0  0  0  0  0  0
  152.1949  143.7231  157.7225 H   0  0  0  0  0  0  0  0  0  0  0  0
  153.8521  137.9761  157.7469 H   0  0  0  0  0  0  0  0  0  0  0  0
  150.0555  137.2540  153.2548 H   0  0  0  0  0  0  0  0  0  0  0  0
  147.3398  138.9014  155.8812 H   0  0  0  0  0  0  0  0  0  0  0  0
  1  2  1  0  0  0  0
  1 32  1  0  0  0  0
  2  3  1  0  0  0  0
  2 33  1  0  0  0  0
  2 34  1  0  0  0  0
  3 28  1  0  0  0  0
  3 26  1  0  0  0  0
  3  4  1  0  0  0  0
  4  5  1  0  0  0  0
  5 29  1  0  0  0  0
  5  6  1  0  0  0  0
  5 24  1  0  0  0  0
  6 23  1  0  0  0  0
  6  7  1  0  0  0  0
  7  8  2  0  0  0  0
  7 35  1  0  0  0  0
  8  9  1  0  0  0  0
  9 23  2  0  0  0  0
  9 10  1  0  0  0  0
 10 11  1  0  0  0  0
 10 20  2  0  0  0  0
 11 19  1  0  0  0  0
 11 12  1  0  0  0  0
 12 13  1  0  0  0  0
 12 36  1  0  0  0  0
 12 37  1  0  0  0  0
 13 14  1  0  0  0  0
 13 38  1  0  0  0  0
 13 39  1  0  0  0  0
 14 19  2  0  0  0  0
 14 15  1  0  0  0  0
 15 16  2  0  0  0  0
 15 40  1  0  0  0  0
 16 17  1  0  0  0  0
 16 41  1  0  0  0  0
 17 18  2  0  0  0  0
 17 42  1  0  0  0  0
 18 19  1  0  0  0  0
 18 43  1  0  0  0  0
 20 21  1  0  0  0  0
 21 22  2  0  0  0  0
 21 44  1  0  0  0  0
 22 23  1  0  0  0  0
 24 30  1  0  0  0  0
 24 25  1  0  0  0  0
 24 26  1  0  0  0  0
 25 45  1  0  0  0  0
 26 31  1  0  0  0  0
 26 27  1  0  0  0  0
 27 46  1  0  0  0  0
M  END
> <s_m_source_file>
AV-unprocessed.smi

> <i_m_source_file_index>
110

> <i_lp_mmshare_version>
43012

> <i_f3d_flags>
0

> <s_epik_input>
W09IXVtDSDJdW0NASF0xT1tDQEhdKFtDQEhdKFtPSF0pW0NAQEhdMVtPSF0pbihbY0hdbjIpYyhjMjMpbltjSF1uYzNOKFtDSDJdW0NIMl00KWMoYzQ1KVtjSF1bY0hdW2NIXVtjSF01

> <s_epik_cmdline>
J2VwaWtfcHl0aG9uJywgJy1waCcsICc3LjAnLCAnLXRuJywgJzgnLCAnLW1hJywgJzIwMCcsICctbWV0YWxfYmluZGluZycsICctaW1hZScsICc8aW5maWxlLm1hZT4nLCAnLW9tYWUnLCAnPG91dGZpbGUubWFlPic=

> <r_lp_tautomer_probability>
1

> <r_epik_Ionization_Penalty>
0.00068475

> <r_epik_Ionization_Penalty_Charging>
0

> <r_epik_Ionization_Penalty_Neutral>
0.00068475

> <r_epik_State_Penalty>
0.000417442

> <r_epik_Charging_Adjusted_Penalty>
0.000417442

> <i_epik_Tot_Q>
0

> <i_epik_Tot_abs_Q>
0

> <r_epik_Metal_State_Penalty>
-0

> <b_epik_Metal_Only>
0

> <s_epik_Chemistry_Notes>
This compound contains an acetal/aminal-like group ( X-CH(R)-Y where X, Y are N, S, or O) that may be acid/base labile, releasing an aldehyde.

> <s_lp_Force_Field>
OPLS_2005

> <r_lp_Energy>
55.1552

> <b_lp_Chiralities_Consistent>
1

> <s_lp_Variant>
AV-unprocessed.smi:110-10

> <Gold.Version>
5.8.1

> <Gold.Id.Protein>
6NUR|6NUR_protein|mol2

> <Gold.PLP.Fitness>
63.5653

> <Gold.PLP.PLP>
-54.6951

> <Gold.PLP.part.hbond>
-4.2624

> <Gold.PLP.part.metal>
0.0000

> <Gold.PLP.part.buried>
-1.9561

> <Gold.PLP.part.nonpolar>
-51.2992

> <Gold.PLP.part.repulsive>
4.0336

> <Gold.PLP.ligand.clash>
0.0051

> <Gold.PLP.ligand.torsion>
0.2727

> <Gold.PLP.Chemscore.Hbond>
2.1138

> <Gold.PLP.Chemscore.CHOScore>
1.0000

> <Gold.PLP.Chemscore.Metal>
0.0000

> <Gold.Chemscore.Hbonds>
donor molecule, donor type, donor heavy atom, donor atom, acceptor molecule, acceptor atom, score
      L1  H     1    32       P1  7957  0.63
      L1  H    25    45       P1  7948  0.91
      P1  H  8011  8017       L1     4  0.24
      L1  C     7    35       P1  8028  1.00

> <Gold.PLP.Chemscore.Internal.Correction>
0.0794

> <Gold.Rescore>
     Score         DG    S(hbond)    S(metal)    S(lipo)     H(rot)  DE(clash)    DE(int)     intcor
     12.95     -17.36       1.89        0.00     121.60       3.38       2.60       1.81       ----

> <Gold.Chemscore.Fitness>
12.9499

> <Gold.Chemscore.DG>
-17.3583

> <Gold.Chemscore.ZeroCoef>
-5.4800

> <Gold.Chemscore.Hbond>
1.8903

> <Gold.Chemscore.Metal>
0.0000

> <Gold.Chemscore.Lipo>
121.5966

> <Gold.Chemscore.Internal_Hbond>
0.0000

> <Gold.Chemscore.DEClash>
2.5982

> <Gold.Chemscore.DEInternal>
1.8102

> <Gold.Chemscore.Rot>
3.3837

> <Gold.Chemscore.Internal.Correction>
   9.000000E+99

> <Gold.Chemscore.Hbonds>
donor molecule, donor type, donor heavy atom, donor atom, acceptor molecule, acceptor atom, score
      L1  H     1    32       P1  7957  0.62
      L1  H    25    45       P1  7948  0.19
      P1  H  8011  8017       L1     4  0.23

> <Gold.Chemscore.Hbond.Weighted>
-6.3137

> <Gold.Chemscore.Metal.Weighted>
-0.0000

> <Gold.Chemscore.Lipo.Weighted>
-14.2268

> <Gold.Chemscore.Internal_Hbond.Weighted>
0.0000

> <Gold.Chemscore.DEClash.Weighted>
2.5982

> <Gold.Chemscore.DEInternal.Weighted>
1.8102

> <Gold.Chemscore.Rot.Weighted>
8.6622

> <Gold.Chemscore.Internal.Correction.Weighted>
   9.000000E+99

> <Gold.Protein.RotatedTorsions>
[ 6907 6896 6895 6894 ] final -107.52 input  -60.11 | X-H torsion
[ 7974 7965 7964 7962 ] final  100.36 input  175.53 | X-H torsion
[ 8008 7997 7996 7995 ] final  170.62 input   59.86 | X-H torsion
[ 10167 10162 10161 10158 ] final  -20.57 input  -65.29 | X-H torsion
[ 10718 10713 10712 10709 ] final  162.27 input   66.30 | X-H torsion
[ 10763 10752 10751 10750 ] final -171.01 input  -60.55 | X-H torsion
[ 11005 11000 10999 10996 ] final  129.35 input  -57.11 | X-H torsion

> <Gold.Protein.ActiveResidues>
 VAL166  LYS551  ARG553  GLY616  TRP617  ASP618  TYR619  PRO620  LYS621  CYS622 
 ASP623  PHE694  ASN695  SER759  ASP760  ASP761  ALA762  ILE779  LEU786  VAL792 
 PHE793  MET794  SER795  GLU796  ALA797  LYS798  CYS799  TRP800  GLU811  SER814 

> <Gold.Protein.RotatedAtoms>
  150.7449  133.9814  159.3577 H   0  0  0  0  0  0  0  0  0  0  0  0  # atno 6907 bound_to 6896
  151.7755  135.0773  160.0375 H   0  0  0  0  0  0  0  0  0  0  0  0  # atno 6908 bound_to 6896
  152.3310  133.5921  159.5845 H   0  0  0  0  0  0  0  0  0  0  0  0  # atno 6909 bound_to 6896
  145.3867  139.2370  143.3374 H   0  0  0  0  0  0  0  0  0  0  0  0  # atno 7974 bound_to 7965
  156.1349  140.1533  156.9010 H   0  0  0  0  0  0  0  0  0  0  0  0  # atno 8008 bound_to 7997
  154.4939  140.0843  156.7693 H   0  0  0  0  0  0  0  0  0  0  0  0  # atno 8009 bound_to 7997
  155.4188  140.3422  155.4272 H   0  0  0  0  0  0  0  0  0  0  0  0  # atno 8010 bound_to 7997
  140.7277  143.4710  151.0247 H   0  0  0  0  0  0  0  0  0  0  0  0  # atno 10167 bound_to 10162
  157.1249  131.0502  151.2398 H   0  0  0  0  0  0  0  0  0  0  0  0  # atno 10718 bound_to 10713
  154.6352  135.2891  155.0169 H   0  0  0  0  0  0  0  0  0  0  0  0  # atno 10763 bound_to 10752
  154.1316  135.6532  153.4927 H   0  0  0  0  0  0  0  0  0  0  0  0  # atno 10764 bound_to 10752
  153.0299  135.5311  154.7196 H   0  0  0  0  0  0  0  0  0  0  0  0  # atno 10765 bound_to 10752
  139.9611  134.9602  156.9135 H   0  0  0  0  0  0  0  0  0  0  0  0  # atno 11005 bound_to 11000
  146.2817  140.4543  142.8774 LP  0  0  0  0  0  0  0  0  0  0  0  0  # atno 17320 bound_to 7965
  144.8469  140.6943  143.6193 LP  0  0  0  0  0  0  0  0  0  0  0  0  # atno 17321 bound_to 7965
  139.8402  143.7574  152.3180 LP  0  0  0  0  0  0  0  0  0  0  0  0  # atno 17342 bound_to 10162
  139.7720  144.7473  151.0210 LP  0  0  0  0  0  0  0  0  0  0  0  0  # atno 17343 bound_to 10162
  157.4444  130.7562  149.7096 LP  0  0  0  0  0  0  0  0  0  0  0  0  # atno 17370 bound_to 10713
  155.9820  130.4013  150.3439 LP  0  0  0  0  0  0  0  0  0  0  0  0  # atno 17371 bound_to 10713
  140.5499  134.0637  155.7366 LP  0  0  0  0  0  0  0  0  0  0  0  0  # atno 17394 bound_to 11000
  141.1287  133.9338  157.2580 LP  0  0  0  0  0  0  0  0  0  0  0  0  # atno 17395 bound_to 11000

$$$$
