AV-unprocessed.smi:679|AV-procd|sdf|3322|dock10
  -GOLD-   22720 0293D 1   1.00000     0.00000
 Structure written by MMmdl.
 41 43  0  0  0  0  0  0  0  0  1 V2000
  150.5700  144.5258  160.0874 C   0  0  0  0  0  0  0  0  0  0  0  0
  151.7359  143.5348  160.0998 C   0  0  0  0  0  0  0  0  0  0  0  0
  151.2586  142.2649  159.6900 O   0  0  0  0  0  0  0  0  0  0  0  0
  150.6355  142.2910  158.4154 C   0  0  1  0  0  0  0  0  0  0  0  0
  151.2788  143.2441  157.4033 C   0  0  0  0  0  0  0  0  0  0  0  0
  151.0752  142.1504  156.3481 C   0  0  2  0  0  0  0  0  0  0  0  0
  149.7877  142.3066  155.6692 N   0  0  0  0  0  0  0  0  0  0  0  0
  149.3101  141.4705  154.7362 C   0  0  0  0  0  0  0  0  0  0  0  0
  149.9203  140.4729  154.3495 O   0  0  0  0  0  0  0  0  0  0  0  0
  147.9285  141.8132  154.1701 C   0  0  0  0  0  0  0  0  0  0  0  0
  146.9063  141.8497  155.2013 N   0  0  0  0  0  0  0  0  0  0  0  0
  145.5767  141.7605  155.1234 C   0  0  0  0  0  0  0  0  0  0  0  0
  145.0099  141.8492  156.3169 N   0  0  0  0  0  0  0  0  0  0  0  0
  146.0913  142.0043  157.1679 N   0  0  0  0  0  0  0  0  0  0  0  0
  147.2189  142.0079  156.5114 N   0  0  0  0  0  0  0  0  0  0  0  0
  151.0467  141.1113  157.5010 C   0  0  0  0  0  0  0  0  0  0  0  0
  152.3719  140.4156  157.8227 C   0  0  0  0  0  0  0  0  0  0  0  0
  152.0485  139.2161  158.7196 C   0  0  0  0  0  0  0  0  0  0  0  0
  150.5612  138.9216  158.5007 C   0  0  0  0  0  0  0  0  0  0  0  0
  150.0972  139.9164  157.4350 C   0  0  0  0  0  0  0  0  0  0  0  0
  150.8997  145.5201  160.3897 H   0  0  0  0  0  0  0  0  0  0  0  0
  149.7820  144.2112  160.7721 H   0  0  0  0  0  0  0  0  0  0  0  0
  150.1362  144.6057  159.0904 H   0  0  0  0  0  0  0  0  0  0  0  0
  152.5216  143.8772  159.4248 H   0  0  0  0  0  0  0  0  0  0  0  0
  152.1627  143.4753  161.1019 H   0  0  0  0  0  0  0  0  0  0  0  0
  149.5510  142.4081  158.4730 H   0  0  0  0  0  0  0  0  0  0  0  0
  150.7278  144.1699  157.2330 H   0  0  0  0  0  0  0  0  0  0  0  0
  152.3323  143.4375  157.6116 H   0  0  0  0  0  0  0  0  0  0  0  0
  151.9278  142.0465  155.6746 H   0  0  0  0  0  0  0  0  0  0  0  0
  149.2230  143.1004  155.9345 H   0  0  0  0  0  0  0  0  0  0  0  0
  147.9760  142.7820  153.6706 H   0  0  0  0  0  0  0  0  0  0  0  0
  147.6324  141.0769  153.4217 H   0  0  0  0  0  0  0  0  0  0  0  0
  145.0298  141.6312  154.2011 H   0  0  0  0  0  0  0  0  0  0  0  0
  152.8331  140.0579  156.9010 H   0  0  0  0  0  0  0  0  0  0  0  0
  153.0980  141.0797  158.2931 H   0  0  0  0  0  0  0  0  0  0  0  0
  152.6749  138.3579  158.4744 H   0  0  0  0  0  0  0  0  0  0  0  0
  152.2271  139.4650  159.7665 H   0  0  0  0  0  0  0  0  0  0  0  0
  150.3850  137.8904  158.1932 H   0  0  0  0  0  0  0  0  0  0  0  0
  150.0134  139.0867  159.4293 H   0  0  0  0  0  0  0  0  0  0  0  0
  149.0544  140.1987  157.5834 H   0  0  0  0  0  0  0  0  0  0  0  0
  150.1608  139.4441  156.4539 H   0  0  0  0  0  0  0  0  0  0  0  0
  1  2  1  0  0  0  0
  1 21  1  0  0  0  0
  1 22  1  0  0  0  0
  1 23  1  0  0  0  0
  2  3  1  0  0  0  0
  2 24  1  0  0  0  0
  2 25  1  0  0  0  0
  3  4  1  0  0  0  0
  4 16  1  0  0  0  0
  4  5  1  0  0  0  0
  4 26  1  0  0  0  0
  5  6  1  0  0  0  0
  5 27  1  0  0  0  0
  5 28  1  0  0  0  0
  6  7  1  0  0  0  0
  6 16  1  0  0  0  0
  6 29  1  0  0  0  0
  7  8  1  0  0  0  0
  7 30  1  0  0  0  0
  8  9  2  0  0  0  0
  8 10  1  0  0  0  0
 10 11  1  0  0  0  0
 10 31  1  0  0  0  0
 10 32  1  0  0  0  0
 11 15  1  0  0  0  0
 11 12  1  0  0  0  0
 12 13  2  0  0  0  0
 12 33  1  0  0  0  0
 13 14  1  0  0  0  0
 14 15  2  0  0  0  0
 16 20  1  0  0  0  0
 16 17  1  0  0  0  0
 17 18  1  0  0  0  0
 17 34  1  0  0  0  0
 17 35  1  0  0  0  0
 18 19  1  0  0  0  0
 18 36  1  0  0  0  0
 18 37  1  0  0  0  0
 19 20  1  0  0  0  0
 19 38  1  0  0  0  0
 19 39  1  0  0  0  0
 20 40  1  0  0  0  0
 20 41  1  0  0  0  0
M  END
> <s_m_source_file>
AV-unprocessed.smi

> <i_m_source_file_index>
679

> <i_lp_mmshare_version>
43012

> <i_f3d_flags>
0

> <s_epik_input>
W0NIMl0xW0NIMl1bQ0gyXVtDSDJdQzEyW0NASF0oT1tDSDJdW0NIM10pW0NIMl1bQ0BIXTJbTkhdQyg9TylbQ0gyXW4zW2NIXW5ubjM=

> <s_epik_cmdline>
J2VwaWtfcHl0aG9uJywgJy1waCcsICc3LjAnLCAnLXRuJywgJzgnLCAnLW1hJywgJzIwMCcsICctbWV0YWxfYmluZGluZycsICctaW1hZScsICc8aW5maWxlLm1hZT4nLCAnLW9tYWUnLCAnPG91dGZpbGUubWFlPic=

> <r_lp_tautomer_probability>
1

> <r_epik_Ionization_Penalty>
7.96741e-07

> <r_epik_Ionization_Penalty_Charging>
0

> <r_epik_Ionization_Penalty_Neutral>
7.96741e-07

> <r_epik_State_Penalty>
-0

> <r_epik_Charging_Adjusted_Penalty>
0

> <i_epik_Tot_Q>
0

> <i_epik_Tot_abs_Q>
0

> <r_epik_Metal_State_Penalty>
-0

> <b_epik_Metal_Only>
0

> <s_lp_Force_Field>
OPLS_2005

> <r_lp_Energy>
39.7046

> <b_lp_Chiralities_Consistent>
1

> <s_lp_Variant>
AV-unprocessed.smi:679-4

> <Gold.Version>
5.8.1

> <Gold.Id.Protein>
6NUR|6NUR_protein|mol2

> <Gold.PLP.Fitness>
40.7184

> <Gold.PLP.PLP>
-33.5871

> <Gold.PLP.part.hbond>
-3.0000

> <Gold.PLP.part.metal>
0.0000

> <Gold.PLP.part.buried>
-7.4487

> <Gold.PLP.part.nonpolar>
-25.1333

> <Gold.PLP.part.repulsive>
0.5616

> <Gold.PLP.ligand.clash>
0.0000

> <Gold.PLP.ligand.torsion>
0.8647

> <Gold.PLP.Chemscore.Hbond>
1.8560

> <Gold.PLP.Chemscore.CHOScore>
0.9799

> <Gold.PLP.Chemscore.Metal>
0.0000

> <Gold.Chemscore.Hbonds>
donor molecule, donor type, donor heavy atom, donor atom, acceptor molecule, acceptor atom, score
      L1  H     7    30       P1  8028  0.93
      P1  H  7989  7998       L1     9  0.82
      L1  C    12    33       P1 10175  1.00

> <Gold.PLP.Chemscore.Internal.Correction>
0.3530

> <Gold.Rescore>
     Score         DG    S(hbond)    S(metal)    S(lipo)     H(rot)  DE(clash)    DE(int)     intcor
     11.85     -13.98       1.65        0.00      78.18       2.41       0.26       1.87       ----

> <Gold.Chemscore.Fitness>
11.8464

> <Gold.Chemscore.DG>
-13.9838

> <Gold.Chemscore.ZeroCoef>
-5.4800

> <Gold.Chemscore.Hbond>
1.6537

> <Gold.Chemscore.Metal>
0.0000

> <Gold.Chemscore.Lipo>
78.1819

> <Gold.Chemscore.Internal_Hbond>
0.0000

> <Gold.Chemscore.DEClash>
0.2639

> <Gold.Chemscore.DEInternal>
1.8734

> <Gold.Chemscore.Rot>
2.4089

> <Gold.Chemscore.Internal.Correction>
   9.000000E+99

> <Gold.Chemscore.Hbonds>
donor molecule, donor type, donor heavy atom, donor atom, acceptor molecule, acceptor atom, score
      L1  H     7    30       P1  8028  0.89
      P1  H  7989  7998       L1     9  0.69

> <Gold.Chemscore.Hbond.Weighted>
-5.5233

> <Gold.Chemscore.Metal.Weighted>
-0.0000

> <Gold.Chemscore.Lipo.Weighted>
-9.1473

> <Gold.Chemscore.Internal_Hbond.Weighted>
0.0000

> <Gold.Chemscore.DEClash.Weighted>
0.2639

> <Gold.Chemscore.DEInternal.Weighted>
1.8734

> <Gold.Chemscore.Rot.Weighted>
6.1668

> <Gold.Chemscore.Internal.Correction.Weighted>
   9.000000E+99

> <Gold.Protein.RotatedTorsions>
[ 6907 6896 6895 6894 ] final   45.41 input  -60.11 | X-H torsion
[ 7974 7965 7964 7962 ] final  -31.07 input  175.53 | X-H torsion
[ 8008 7997 7996 7995 ] final  148.07 input   59.86 | X-H torsion
[ 10167 10162 10161 10158 ] final   70.60 input  -65.29 | X-H torsion
[ 10718 10713 10712 10709 ] final  157.73 input   66.30 | X-H torsion
[ 10763 10752 10751 10750 ] final -166.60 input  -60.55 | X-H torsion
[ 11005 11000 10999 10996 ] final   97.92 input  -57.11 | X-H torsion

> <Gold.Protein.ActiveResidues>
 VAL166  LYS551  ARG553  GLY616  TRP617  ASP618  TYR619  PRO620  LYS621  CYS622 
 ASP623  PHE694  ASN695  SER759  ASP760  ASP761  ALA762  ILE779  LEU786  VAL792 
 PHE793  MET794  SER795  GLU796  ALA797  LYS798  CYS799  TRP800  GLU811  SER814 

> <Gold.Protein.RotatedAtoms>
  152.2442  134.8198  160.0455 H   0  0  0  0  0  0  0  0  0  0  0  0  # atno 6907 bound_to 6896
  151.8902  133.3509  159.3804 H   0  0  0  0  0  0  0  0  0  0  0  0  # atno 6908 bound_to 6896
  150.7063  134.4858  159.5536 H   0  0  0  0  0  0  0  0  0  0  0  0  # atno 6909 bound_to 6896
  146.1095  140.5621  142.8784 H   0  0  0  0  0  0  0  0  0  0  0  0  # atno 7974 bound_to 7965
  156.2803  140.2138  156.5640 H   0  0  0  0  0  0  0  0  0  0  0  0  # atno 8008 bound_to 7997
  154.7190  140.0505  157.0644 H   0  0  0  0  0  0  0  0  0  0  0  0  # atno 8009 bound_to 7997
  155.0504  140.3155  155.4697 H   0  0  0  0  0  0  0  0  0  0  0  0  # atno 8010 bound_to 7997
  140.0552  144.5278  150.7334 H   0  0  0  0  0  0  0  0  0  0  0  0  # atno 10167 bound_to 10162
  157.1875  131.0647  151.2098 H   0  0  0  0  0  0  0  0  0  0  0  0  # atno 10718 bound_to 10713
  154.6817  135.2955  154.9604 H   0  0  0  0  0  0  0  0  0  0  0  0  # atno 10763 bound_to 10752
  154.0596  135.6633  153.4814 H   0  0  0  0  0  0  0  0  0  0  0  0  # atno 10764 bound_to 10752
  153.0552  135.5149  154.7863 H   0  0  0  0  0  0  0  0  0  0  0  0  # atno 10765 bound_to 10752
  139.8774  134.9024  156.4379 H   0  0  0  0  0  0  0  0  0  0  0  0  # atno 11005 bound_to 11000
  144.7499  140.5165  143.6809 LP  0  0  0  0  0  0  0  0  0  0  0  0  # atno 17320 bound_to 7965
  145.5692  139.1482  143.3298 LP  0  0  0  0  0  0  0  0  0  0  0  0  # atno 17321 bound_to 7965
  140.7198  143.2578  151.4316 LP  0  0  0  0  0  0  0  0  0  0  0  0  # atno 17342 bound_to 10162
  139.5928  144.1462  152.2108 LP  0  0  0  0  0  0  0  0  0  0  0  0  # atno 17343 bound_to 10162
  157.3893  130.7273  149.6686 LP  0  0  0  0  0  0  0  0  0  0  0  0  # atno 17370 bound_to 10713
  155.9716  130.4151  150.4164 LP  0  0  0  0  0  0  0  0  0  0  0  0  # atno 17371 bound_to 10713
  140.9020  133.7772  155.9691 LP  0  0  0  0  0  0  0  0  0  0  0  0  # atno 17394 bound_to 11000
  140.8640  134.2806  157.5221 LP  0  0  0  0  0  0  0  0  0  0  0  0  # atno 17395 bound_to 11000

$$$$
