AV-unprocessed.smi:102|AV-procd|sdf|951|dock6
  -GOLD-   2262017483D 1   1.00000     0.00000
 Structure written by MMmdl.
 44 45  0  0  0  0  0  0  0  0  1 V2000
  146.4709  144.5532  160.7610 C   0  0  0  0  0  0  0  0  0  0  0  0
  146.4929  143.2567  159.9619 C   0  0  0  0  0  0  0  0  0  0  0  0
  145.7435  142.3201  160.2398 O   0  0  0  0  0  0  0  0  0  0  0  0
  147.3958  143.2830  158.9644 O   0  0  0  0  0  0  0  0  0  0  0  0
  147.5954  142.1404  158.1438 C   0  0  0  0  0  0  0  0  0  0  0  0
  148.8076  142.3287  157.2188 C   0  0  2  0  0  0  0  0  0  0  0  0
  148.8904  141.2563  156.2917 O   0  0  0  0  0  0  0  0  0  0  0  0
  150.2104  141.0841  155.8782 C   0  0  2  0  0  0  0  0  0  0  0  0
  150.4409  139.6002  155.6668 N   0  0  0  0  0  0  0  0  0  0  0  0
  149.4186  138.6944  155.9139 C   0  0  0  0  0  0  0  0  0  0  0  0
  149.5711  137.3554  155.7838 C   0  0  0  0  0  0  0  0  0  0  0  0
  148.5308  136.5420  156.0335 F   0  0  0  0  0  0  0  0  0  0  0  0
  150.8536  136.7874  155.3792 C   0  0  0  0  0  0  0  0  0  0  0  0
  151.0872  135.5897  155.2292 O   0  0  0  0  0  0  0  0  0  0  0  0
  151.8602  137.7324  155.1629 N   0  0  0  0  0  0  0  0  0  0  0  0
  151.7181  139.1143  155.2970 C   0  0  0  0  0  0  0  0  0  0  0  0
  152.6815  139.8514  155.0925 O   0  0  0  0  0  0  0  0  0  0  0  0
  151.1391  141.7523  156.9205 C   0  0  2  0  0  0  0  0  0  0  0  0
  152.0888  140.8477  157.4744 O   0  0  0  0  0  0  0  0  0  0  0  0
  151.6858  139.8251  158.2444 C   0  0  0  0  0  0  0  0  0  0  0  0
  152.8562  139.0655  158.8536 C   0  0  0  0  0  0  0  0  0  0  0  0
  150.5201  139.4964  158.4638 O   0  0  0  0  0  0  0  0  0  0  0  0
  150.1444  142.2491  157.9701 C   0  0  1  0  0  0  0  0  0  0  0  0
  150.5270  143.4487  158.6515 O   0  0  0  0  0  0  0  0  0  0  0  0
  151.7796  143.6917  159.1017 C   0  0  0  0  0  0  0  0  0  0  0  0
  151.9145  145.0831  159.7059 C   0  0  0  0  0  0  0  0  0  0  0  0
  152.7389  142.9221  159.0570 O   0  0  0  0  0  0  0  0  0  0  0  0
  152.7691  137.3853  154.8926 H   0  0  0  0  0  0  0  0  0  0  0  0
  145.7574  145.2521  160.3244 H   0  0  0  0  0  0  0  0  0  0  0  0
  147.4559  145.0202  160.7649 H   0  0  0  0  0  0  0  0  0  0  0  0
  146.1784  144.3590  161.7932 H   0  0  0  0  0  0  0  0  0  0  0  0
  147.7854  141.2995  158.8111 H   0  0  0  0  0  0  0  0  0  0  0  0
  146.6995  141.8865  157.5749 H   0  0  0  0  0  0  0  0  0  0  0  0
  148.7199  143.2568  156.6548 H   0  0  0  0  0  0  0  0  0  0  0  0
  150.3211  141.5488  154.8978 H   0  0  0  0  0  0  0  0  0  0  0  0
  148.4489  139.0615  156.2180 H   0  0  0  0  0  0  0  0  0  0  0  0
  151.6427  142.5709  156.4065 H   0  0  0  0  0  0  0  0  0  0  0  0
  153.4933  139.7436  159.4218 H   0  0  0  0  0  0  0  0  0  0  0  0
  153.4552  138.6024  158.0694 H   0  0  0  0  0  0  0  0  0  0  0  0
  152.4990  138.2837  159.5240 H   0  0  0  0  0  0  0  0  0  0  0  0
  150.0474  141.4716  158.7286 H   0  0  0  0  0  0  0  0  0  0  0  0
  150.9646  145.4143  160.1258 H   0  0  0  0  0  0  0  0  0  0  0  0
  152.2244  145.7969  158.9425 H   0  0  0  0  0  0  0  0  0  0  0  0
  152.6599  145.0814  160.5015 H   0  0  0  0  0  0  0  0  0  0  0  0
  1  2  1  0  0  0  0
  1 29  1  0  0  0  0
  1 30  1  0  0  0  0
  1 31  1  0  0  0  0
  2  3  2  0  0  0  0
  2  4  1  0  0  0  0
  4  5  1  0  0  0  0
  5  6  1  0  0  0  0
  5 32  1  0  0  0  0
  5 33  1  0  0  0  0
  6 23  1  0  0  0  0
  6  7  1  0  0  0  0
  6 34  1  0  0  0  0
  7  8  1  0  0  0  0
  8  9  1  0  0  0  0
  8 18  1  0  0  0  0
  8 35  1  0  0  0  0
  9 16  1  0  0  0  0
  9 10  1  0  0  0  0
 10 11  2  0  0  0  0
 10 36  1  0  0  0  0
 11 12  1  0  0  0  0
 11 13  1  0  0  0  0
 13 14  2  0  0  0  0
 13 15  1  0  0  0  0
 15 28  1  0  0  0  0
 15 16  1  0  0  0  0
 16 17  2  0  0  0  0
 18 19  1  0  0  0  0
 18 23  1  0  0  0  0
 18 37  1  0  0  0  0
 19 20  1  0  0  0  0
 20 21  1  0  0  0  0
 20 22  2  0  0  0  0
 21 38  1  0  0  0  0
 21 39  1  0  0  0  0
 21 40  1  0  0  0  0
 23 24  1  0  0  0  0
 23 41  1  0  0  0  0
 24 25  1  0  0  0  0
 25 26  1  0  0  0  0
 25 27  2  0  0  0  0
 26 42  1  0  0  0  0
 26 43  1  0  0  0  0
 26 44  1  0  0  0  0
M  END
> <s_m_source_file>
AV-unprocessed.smi

> <i_m_source_file_index>
102

> <i_lp_mmshare_version>
43012

> <i_f3d_flags>
0

> <s_epik_input>
W0NIM11DKD1PKU9bQ0gyXVtDQEBIXTFPW0NASF0oW0NAQEhdKE9DKD1PKVtDSDNdKVtDQEhdMU9DKD1PKVtDSDNdKW4yW2NIXWMoRiljKD1PKVtuSF1jMj1P

> <s_epik_cmdline>
J2VwaWtfcHl0aG9uJywgJy1waCcsICc3LjAnLCAnLXRuJywgJzgnLCAnLW1hJywgJzIwMCcsICctbWV0YWxfYmluZGluZycsICctaW1hZScsICc8aW5maWxlLm1hZT4nLCAnLW9tYWUnLCAnPG91dGZpbGUubWFlPic=

> <r_lp_tautomer_probability>
0.999537

> <r_epik_Ionization_Penalty>
0.058267

> <r_epik_Ionization_Penalty_Charging>
0.058267

> <r_epik_Ionization_Penalty_Neutral>
6.57791e-16

> <r_epik_State_Penalty>
0.0503774

> <r_epik_Charging_Adjusted_Penalty>
0.108644

> <i_epik_Tot_Q>
0

> <i_epik_Tot_abs_Q>
0

> <r_epik_Metal_State_Penalty>
2.6644

> <b_epik_Metal_Only>
0

> <s_epik_Chemistry_Notes>
This compound has an ester and may undergo hydrolysis at high or low pH. This compound contains an acetal/aminal-like group ( X-CH(R)-Y where X, Y are N, S, or O) that may be acid/base labile, releasing an aldehyde.

> <s_lp_Force_Field>
OPLS_2005

> <r_lp_Energy>
7.12504

> <b_lp_Chiralities_Consistent>
1

> <s_lp_Variant>
AV-unprocessed.smi:102-7

> <Gold.Version>
5.8.1

> <Gold.Id.Protein>
6NUR|6NUR_protein|mol2

> <Gold.PLP.Fitness>
44.5211

> <Gold.PLP.PLP>
-35.0312

> <Gold.PLP.part.hbond>
-3.9801

> <Gold.PLP.part.metal>
0.0000

> <Gold.PLP.part.buried>
-5.2254

> <Gold.PLP.part.nonpolar>
-27.1775

> <Gold.PLP.part.repulsive>
0.6724

> <Gold.PLP.ligand.clash>
0.0000

> <Gold.PLP.ligand.torsion>
0.3142

> <Gold.PLP.Chemscore.Hbond>
3.3081

> <Gold.PLP.Chemscore.CHOScore>
0.0000

> <Gold.PLP.Chemscore.Metal>
0.0000

> <Gold.Chemscore.Hbonds>
donor molecule, donor type, donor heavy atom, donor atom, acceptor molecule, acceptor atom, score
      P1  H  6934  6946       L1     3  1.00
      P1  H  7989  7998       L1    17  0.26
      P1  H  7997  8008       L1    17  1.00
      P1  H 10752 10765       L1    14  1.00

> <Gold.PLP.Chemscore.Internal.Correction>
0.1942

> <Gold.Rescore>
     Score         DG    S(hbond)    S(metal)    S(lipo)     H(rot)  DE(clash)    DE(int)     intcor
     -1.64      -9.36       2.70        0.00      44.63       4.05       0.63      10.37       ----

> <Gold.Chemscore.Fitness>
-1.6378

> <Gold.Chemscore.DG>
-9.3623

> <Gold.Chemscore.ZeroCoef>
-5.4800

> <Gold.Chemscore.Hbond>
2.7047

> <Gold.Chemscore.Metal>
0.0000

> <Gold.Chemscore.Lipo>
44.6319

> <Gold.Chemscore.Internal_Hbond>
0.0000

> <Gold.Chemscore.DEClash>
0.6256

> <Gold.Chemscore.DEInternal>
10.3745

> <Gold.Chemscore.Rot>
4.0520

> <Gold.Chemscore.Internal.Correction>
   9.000000E+99

> <Gold.Chemscore.Hbonds>
donor molecule, donor type, donor heavy atom, donor atom, acceptor molecule, acceptor atom, score
      P1  H  6934  6946       L1     3  0.55
      P1  H  7989  7998       L1    17  0.02
      P1  H  7997  8008       L1    17  0.98
      P1  H 10752 10765       L1    14  0.39

> <Gold.Chemscore.Hbond.Weighted>
-9.0335

> <Gold.Chemscore.Metal.Weighted>
-0.0000

> <Gold.Chemscore.Lipo.Weighted>
-5.2219

> <Gold.Chemscore.Internal_Hbond.Weighted>
0.0000

> <Gold.Chemscore.DEClash.Weighted>
0.6256

> <Gold.Chemscore.DEInternal.Weighted>
10.3745

> <Gold.Chemscore.Rot.Weighted>
10.3732

> <Gold.Chemscore.Internal.Correction.Weighted>
   9.000000E+99

> <Gold.Protein.RotatedTorsions>
[ 6907 6896 6895 6894 ] final    8.63 input  -60.11 | X-H torsion
[ 7974 7965 7964 7962 ] final -162.79 input  175.53 | X-H torsion
[ 8008 7997 7996 7995 ] final  -17.18 input   59.86 | X-H torsion
[ 10167 10162 10161 10158 ] final   39.05 input  -65.29 | X-H torsion
[ 10718 10713 10712 10709 ] final   24.37 input   66.30 | X-H torsion
[ 10763 10752 10751 10750 ] final  177.95 input  -60.55 | X-H torsion
[ 11005 11000 10999 10996 ] final   24.46 input  -57.11 | X-H torsion

> <Gold.Protein.ActiveResidues>
 VAL166  LYS551  ARG553  GLY616  TRP617  ASP618  TYR619  PRO620  LYS621  CYS622 
 ASP623  PHE694  ASN695  SER759  ASP760  ASP761  ALA762  ILE779  LEU786  VAL792 
 PHE793  MET794  SER795  GLU796  ALA797  LYS798  CYS799  TRP800  GLU811  SER814 

> <Gold.Protein.RotatedAtoms>
  151.7092  135.0916  160.0264 H   0  0  0  0  0  0  0  0  0  0  0  0  # atno 6907 bound_to 6896
  152.3672  133.6368  159.6068 H   0  0  0  0  0  0  0  0  0  0  0  0  # atno 6908 bound_to 6896
  150.7647  133.9244  159.3449 H   0  0  0  0  0  0  0  0  0  0  0  0  # atno 6909 bound_to 6896
  144.7346  140.3202  143.6172 H   0  0  0  0  0  0  0  0  0  0  0  0  # atno 7974 bound_to 7965
  154.4997  140.2149  155.9372 H   0  0  0  0  0  0  0  0  0  0  0  0  # atno 8008 bound_to 7997
  156.1418  140.3178  155.8474 H   0  0  0  0  0  0  0  0  0  0  0  0  # atno 8009 bound_to 7997
  155.4106  140.0490  157.3022 H   0  0  0  0  0  0  0  0  0  0  0  0  # atno 8010 bound_to 7997
  140.3878  144.1894  150.6130 H   0  0  0  0  0  0  0  0  0  0  0  0  # atno 10167 bound_to 10162
  157.1788  130.6793  149.6105 H   0  0  0  0  0  0  0  0  0  0  0  0  # atno 10718 bound_to 10713
  154.5013  135.2783  155.1418 H   0  0  0  0  0  0  0  0  0  0  0  0  # atno 10763 bound_to 10752
  154.3050  135.6240  153.5445 H   0  0  0  0  0  0  0  0  0  0  0  0  # atno 10764 bound_to 10752
  152.9903  135.5706  154.5457 H   0  0  0  0  0  0  0  0  0  0  0  0  # atno 10765 bound_to 10752
  140.3585  134.2151  155.7674 H   0  0  0  0  0  0  0  0  0  0  0  0  # atno 11005 bound_to 11000
  145.7577  139.1814  143.2285 LP  0  0  0  0  0  0  0  0  0  0  0  0  # atno 17320 bound_to 7965
  146.1011  140.7542  142.9548 LP  0  0  0  0  0  0  0  0  0  0  0  0  # atno 17321 bound_to 7965
  140.4871  143.2359  151.8871 LP  0  0  0  0  0  0  0  0  0  0  0  0  # atno 17342 bound_to 10162
  139.4791  144.5206  151.8807 LP  0  0  0  0  0  0  0  0  0  0  0  0  # atno 17343 bound_to 10162
  155.9727  130.4653  150.6251 LP  0  0  0  0  0  0  0  0  0  0  0  0  # atno 17370 bound_to 10713
  157.3972  131.0804  151.1341 LP  0  0  0  0  0  0  0  0  0  0  0  0  # atno 17371 bound_to 10713
  141.1991  133.8019  157.0551 LP  0  0  0  0  0  0  0  0  0  0  0  0  # atno 17394 bound_to 11000
  140.0646  134.9736  157.1363 LP  0  0  0  0  0  0  0  0  0  0  0  0  # atno 17395 bound_to 11000

$$$$
