AV-unprocessed.smi:1851|AV-procd|sdf|7523|dock3
  -GOLD-   22720 9233D 1   1.00000     0.00000
 Structure written by MMmdl.
 39 41  0  0  0  0  0  0  0  0  1 V2000
  151.4611  136.7959  154.4531 O   0  0  0  0  0  0  0  0  0  0  0  0
  151.8894  137.9396  154.3084 C   0  0  0  0  0  0  0  0  0  0  0  0
  151.9595  138.8544  155.2861 N   0  0  0  0  0  0  0  0  0  0  0  0
  151.5346  138.6415  156.6659 C   0  0  0  0  0  0  0  0  0  0  0  0
  151.8249  139.8770  157.4673 C   0  0  0  0  0  0  0  0  0  0  0  0
  152.5383  139.8371  158.5934 N   0  0  0  0  0  0  0  0  0  0  0  0
  152.5662  141.1616  158.9840 C   0  0  0  0  0  0  0  0  0  0  0  0
  153.1704  141.7768  160.1037 C   0  0  0  0  0  0  0  0  0  0  0  0
  153.0693  143.1710  160.2929 C   0  0  0  0  0  0  0  0  0  0  0  0
  152.3637  143.9678  159.3681 C   0  0  0  0  0  0  0  0  0  0  0  0
  151.7523  143.3743  158.2470 C   0  0  0  0  0  0  0  0  0  0  0  0
  151.8557  141.9825  158.0632 C   0  0  0  0  0  0  0  0  0  0  0  0
  151.3859  141.1050  157.0915 N   0  0  0  0  0  0  0  0  0  0  0  0
  150.6011  141.4631  155.9210 C   0  0  0  0  0  0  0  0  0  0  0  0
  149.1078  141.5603  156.2546 C   0  0  0  0  0  0  0  0  0  0  0  0
  148.3678  141.5173  155.0428 O   0  0  0  0  0  0  0  0  0  0  0  0
  147.2075  142.2572  154.9611 C   0  0  0  0  0  0  0  0  0  0  0  0
  146.8426  142.7366  153.6858 C   0  0  0  0  0  0  0  0  0  0  0  0
  145.6738  143.5020  153.5100 C   0  0  0  0  0  0  0  0  0  0  0  0
  144.8532  143.7967  154.6147 C   0  0  0  0  0  0  0  0  0  0  0  0
  143.4209  144.7351  154.4025 Cl  0  0  0  0  0  0  0  0  0  0  0  0
  145.2043  143.3239  155.8929 C   0  0  0  0  0  0  0  0  0  0  0  0
  146.3739  142.5584  156.0683 C   0  0  0  0  0  0  0  0  0  0  0  0
  152.2675  138.3504  153.3598 H   0  0  0  0  0  0  0  0  0  0  0  0
  152.3279  139.7661  155.0571 H   0  0  0  0  0  0  0  0  0  0  0  0
  150.4700  138.4060  156.7182 H   0  0  0  0  0  0  0  0  0  0  0  0
  152.0654  137.7874  157.0857 H   0  0  0  0  0  0  0  0  0  0  0  0
  153.7139  141.1754  160.8172 H   0  0  0  0  0  0  0  0  0  0  0  0
  153.5363  143.6314  161.1512 H   0  0  0  0  0  0  0  0  0  0  0  0
  152.2920  145.0348  159.5197 H   0  0  0  0  0  0  0  0  0  0  0  0
  151.2114  143.9815  157.5367 H   0  0  0  0  0  0  0  0  0  0  0  0
  150.9657  142.4051  155.5116 H   0  0  0  0  0  0  0  0  0  0  0  0
  150.7647  140.7107  155.1488 H   0  0  0  0  0  0  0  0  0  0  0  0
  148.8208  140.7299  156.9020 H   0  0  0  0  0  0  0  0  0  0  0  0
  148.9070  142.4923  156.7855 H   0  0  0  0  0  0  0  0  0  0  0  0
  147.4665  142.5159  152.8322 H   0  0  0  0  0  0  0  0  0  0  0  0
  145.4083  143.8623  152.5268 H   0  0  0  0  0  0  0  0  0  0  0  0
  144.5767  143.5475  156.7430 H   0  0  0  0  0  0  0  0  0  0  0  0
  146.6088  142.2140  157.0638 H   0  0  0  0  0  0  0  0  0  0  0  0
  1  2  2  0  0  0  0
  2  3  1  0  0  0  0
  2 24  1  0  0  0  0
  3  4  1  0  0  0  0
  3 25  1  0  0  0  0
  4  5  1  0  0  0  0
  4 26  1  0  0  0  0
  4 27  1  0  0  0  0
  5 13  1  0  0  0  0
  5  6  2  0  0  0  0
  6  7  1  0  0  0  0
  7 12  2  0  0  0  0
  7  8  1  0  0  0  0
  8  9  2  0  0  0  0
  8 28  1  0  0  0  0
  9 10  1  0  0  0  0
  9 29  1  0  0  0  0
 10 11  2  0  0  0  0
 10 30  1  0  0  0  0
 11 12  1  0  0  0  0
 11 31  1  0  0  0  0
 12 13  1  0  0  0  0
 13 14  1  0  0  0  0
 14 15  1  0  0  0  0
 14 32  1  0  0  0  0
 14 33  1  0  0  0  0
 15 16  1  0  0  0  0
 15 34  1  0  0  0  0
 15 35  1  0  0  0  0
 16 17  1  0  0  0  0
 17 23  1  0  0  0  0
 17 18  2  0  0  0  0
 18 19  1  0  0  0  0
 18 36  1  0  0  0  0
 19 20  2  0  0  0  0
 19 37  1  0  0  0  0
 20 21  1  0  0  0  0
 20 22  1  0  0  0  0
 22 23  2  0  0  0  0
 22 38  1  0  0  0  0
 23 39  1  0  0  0  0
M  END
> <s_m_source_file>
AV-unprocessed.smi

> <i_m_source_file_index>
1851

> <i_lp_mmshare_version>
43012

> <i_f3d_flags>
0

> <s_epik_input>
Tz1bQ0hdW05IXVtDSDJdYyhuMSluKGMoYzEyKVtjSF1bY0hdW2NIXVtjSF0yKVtDSDJdW0NIMl1PYzNbY0hdW2NIXWMoQ2wpW2NIXVtjSF0z

> <s_epik_cmdline>
J2VwaWtfcHl0aG9uJywgJy1waCcsICc3LjAnLCAnLXRuJywgJzgnLCAnLW1hJywgJzIwMCcsICctbWV0YWxfYmluZGluZycsICctaW1hZScsICc8aW5maWxlLm1hZT4nLCAnLW9tYWUnLCAnPG91dGZpbGUubWFlPic=

> <r_lp_tautomer_probability>
1

> <r_epik_Ionization_Penalty>
0.0670201

> <r_epik_Ionization_Penalty_Charging>
0

> <r_epik_Ionization_Penalty_Neutral>
0.0670201

> <r_epik_State_Penalty>
0.0585513

> <r_epik_Charging_Adjusted_Penalty>
0.0585513

> <i_epik_Tot_Q>
0

> <i_epik_Tot_abs_Q>
0

> <r_epik_Metal_State_Penalty>
0.0525581

> <b_epik_Metal_Only>
0

> <s_lp_Force_Field>
OPLS_2005

> <r_lp_Energy>
12.626

> <b_lp_Chiralities_Consistent>
1

> <s_lp_Variant>
AV-unprocessed.smi:1851-1

> <Gold.Version>
5.8.1

> <Gold.Id.Protein>
6NUR|6NUR_protein|mol2

> <Gold.PLP.Fitness>
47.4366

> <Gold.PLP.PLP>
-46.4433

> <Gold.PLP.part.hbond>
-1.0000

> <Gold.PLP.part.metal>
0.0000

> <Gold.PLP.part.buried>
-6.6895

> <Gold.PLP.part.nonpolar>
-39.8784

> <Gold.PLP.part.repulsive>
0.4539

> <Gold.PLP.ligand.clash>
0.0000

> <Gold.PLP.ligand.torsion>
1.0506

> <Gold.PLP.Chemscore.Hbond>
1.0000

> <Gold.PLP.Chemscore.CHOScore>
0.0000

> <Gold.PLP.Chemscore.Metal>
0.0000

> <Gold.Chemscore.Hbonds>
donor molecule, donor type, donor heavy atom, donor atom, acceptor molecule, acceptor atom, score
      P1  H 10752 10765       L1     1  1.00

> <Gold.PLP.Chemscore.Internal.Correction>
0.0944

> <Gold.Rescore>
     Score         DG    S(hbond)    S(metal)    S(lipo)     H(rot)  DE(clash)    DE(int)     intcor
     14.32     -16.45       0.96        0.00     119.18       2.42       0.12       2.00       ----

> <Gold.Chemscore.Fitness>
14.3224

> <Gold.Chemscore.DG>
-16.4504

> <Gold.Chemscore.ZeroCoef>
-5.4800

> <Gold.Chemscore.Hbond>
0.9649

> <Gold.Chemscore.Metal>
0.0000

> <Gold.Chemscore.Lipo>
119.1808

> <Gold.Chemscore.Internal_Hbond>
0.0000

> <Gold.Chemscore.DEClash>
0.1238

> <Gold.Chemscore.DEInternal>
2.0042

> <Gold.Chemscore.Rot>
2.4205

> <Gold.Chemscore.Internal.Correction>
   9.000000E+99

> <Gold.Chemscore.Hbonds>
donor molecule, donor type, donor heavy atom, donor atom, acceptor molecule, acceptor atom, score
      P1  H 10752 10765       L1     1  0.60

> <Gold.Chemscore.Hbond.Weighted>
-3.2228

> <Gold.Chemscore.Metal.Weighted>
-0.0000

> <Gold.Chemscore.Lipo.Weighted>
-13.9441

> <Gold.Chemscore.Internal_Hbond.Weighted>
0.0000

> <Gold.Chemscore.DEClash.Weighted>
0.1238

> <Gold.Chemscore.DEInternal.Weighted>
2.0042

> <Gold.Chemscore.Rot.Weighted>
6.1965

> <Gold.Chemscore.Internal.Correction.Weighted>
   9.000000E+99

> <Gold.Protein.RotatedTorsions>
[ 6907 6896 6895 6894 ] final  169.33 input  -60.11 | X-H torsion
[ 7974 7965 7964 7962 ] final -139.34 input  175.53 | X-H torsion
[ 8008 7997 7996 7995 ] final -172.02 input   59.86 | X-H torsion
[ 10167 10162 10161 10158 ] final  143.30 input  -65.29 | X-H torsion
[ 10718 10713 10712 10709 ] final  -63.36 input   66.30 | X-H torsion
[ 10763 10752 10751 10750 ] final  164.44 input  -60.55 | X-H torsion
[ 11005 11000 10999 10996 ] final  -91.10 input  -57.11 | X-H torsion

> <Gold.Protein.ActiveResidues>
 VAL166  LYS551  ARG553  GLY616  TRP617  ASP618  TYR619  PRO620  LYS621  CYS622 
 ASP623  PHE694  ASN695  SER759  ASP760  ASP761  ALA762  ILE779  LEU786  VAL792 
 PHE793  MET794  SER795  GLU796  ALA797  LYS798  CYS799  TRP800  GLU811  SER814 

> <Gold.Protein.RotatedAtoms>
  151.8336  133.3412  159.3620 H   0  0  0  0  0  0  0  0  0  0  0  0  # atno 6907 bound_to 6896
  150.7256  134.5459  159.5780 H   0  0  0  0  0  0  0  0  0  0  0  0  # atno 6908 bound_to 6896
  152.2918  134.7714  160.0427 H   0  0  0  0  0  0  0  0  0  0  0  0  # atno 6909 bound_to 6896
  144.8684  140.6330  143.5282 H   0  0  0  0  0  0  0  0  0  0  0  0  # atno 7974 bound_to 7965
  155.9392  140.1105  157.1069 H   0  0  0  0  0  0  0  0  0  0  0  0  # atno 8008 bound_to 7997
  154.4086  140.1222  156.4970 H   0  0  0  0  0  0  0  0  0  0  0  0  # atno 8009 bound_to 7997
  155.6983  140.3472  155.4924 H   0  0  0  0  0  0  0  0  0  0  0  0  # atno 8010 bound_to 7997
  139.4973  144.6049  151.6400 H   0  0  0  0  0  0  0  0  0  0  0  0  # atno 10167 bound_to 10162
  156.0796  130.4220  150.1266 H   0  0  0  0  0  0  0  0  0  0  0  0  # atno 10718 bound_to 10713
  154.3090  135.2757  155.2575 H   0  0  0  0  0  0  0  0  0  0  0  0  # atno 10763 bound_to 10752
  154.4979  135.5816  153.6512 H   0  0  0  0  0  0  0  0  0  0  0  0  # atno 10764 bound_to 10752
  152.9890  135.6150  154.3266 H   0  0  0  0  0  0  0  0  0  0  0  0  # atno 10765 bound_to 10752
  141.1552  133.7734  156.9832 H   0  0  0  0  0  0  0  0  0  0  0  0  # atno 11005 bound_to 11000
  145.4176  139.1569  143.4091 LP  0  0  0  0  0  0  0  0  0  0  0  0  # atno 17320 bound_to 7965
  146.2913  140.4285  142.8738 LP  0  0  0  0  0  0  0  0  0  0  0  0  # atno 17321 bound_to 7965
  140.5708  144.0111  150.6216 LP  0  0  0  0  0  0  0  0  0  0  0  0  # atno 17342 bound_to 10162
  140.3228  143.3126  152.0766 LP  0  0  0  0  0  0  0  0  0  0  0  0  # atno 17343 bound_to 10162
  156.9300  130.9711  151.3534 LP  0  0  0  0  0  0  0  0  0  0  0  0  # atno 17370 bound_to 10713
  157.5907  130.8441  149.8655 LP  0  0  0  0  0  0  0  0  0  0  0  0  # atno 17371 bound_to 10713
  140.1052  134.9511  157.1983 LP  0  0  0  0  0  0  0  0  0  0  0  0  # atno 17394 bound_to 11000
  140.3266  134.2857  155.7236 LP  0  0  0  0  0  0  0  0  0  0  0  0  # atno 17395 bound_to 11000

$$$$
