AV-unprocessed.smi:1380|AV-procd|sdf|5600|dock9
  -GOLD-   22720 5203D 1   1.00000     0.00000
 Structure written by MMmdl.
 33 34  0  0  0  0  0  0  0  0  1 V2000
  144.6159  135.4989  152.5283 O   0  0  0  0  0  0  0  0  0  0  0  0
  145.8288  135.5616  152.3262 C   0  0  0  0  0  0  0  0  0  0  0  0
  146.5822  136.6317  152.6130 N   0  0  0  0  0  0  0  0  0  0  0  0
  146.0753  137.8854  153.1624 C   0  0  0  0  0  0  0  0  0  0  0  0
  146.8011  139.1205  152.5932 C   0  0  0  0  0  0  0  0  0  0  0  0
  147.9111  139.6356  153.4930 C   0  0  0  0  0  0  0  0  0  0  0  0
  148.0339  141.0123  153.7710 C   0  0  0  0  0  0  0  0  0  0  0  0
  149.0730  141.4431  154.6181 C   0  0  0  0  0  0  0  0  0  0  0  0
  149.9476  140.4757  155.1519 C   0  0  0  0  0  0  0  0  0  0  0  0
  149.8397  139.1546  154.8930 N   0  0  0  0  0  0  0  0  0  0  0  0
  148.8417  138.7500  154.0784 C   0  0  0  0  0  0  0  0  0  0  0  0
  146.5523  134.5765  151.7776 N   0  0  0  0  0  0  0  0  0  0  0  0
  146.0083  133.3091  151.3089 C   0  0  0  0  0  0  0  0  0  0  0  0
  144.7379  133.4273  150.4884 C   0  0  0  0  0  0  0  0  0  0  0  0
  143.5927  132.4585  150.6749 C   0  0  0  0  0  0  0  0  0  0  0  0
  144.4237  132.4106  149.4160 C   0  0  0  0  0  0  0  0  0  0  0  0
  147.5701  136.5893  152.4093 H   0  0  0  0  0  0  0  0  0  0  0  0
  145.0003  137.9642  152.9934 H   0  0  0  0  0  0  0  0  0  0  0  0
  146.2147  137.8482  154.2431 H   0  0  0  0  0  0  0  0  0  0  0  0
  147.2205  138.8848  151.6141 H   0  0  0  0  0  0  0  0  0  0  0  0
  146.0821  139.9230  152.4250 H   0  0  0  0  0  0  0  0  0  0  0  0
  147.3432  141.7254  153.3458 H   0  0  0  0  0  0  0  0  0  0  0  0
  149.1967  142.4898  154.8534 H   0  0  0  0  0  0  0  0  0  0  0  0
  150.7551  140.7712  155.8054 H   0  0  0  0  0  0  0  0  0  0  0  0
  148.7797  137.6870  153.8957 H   0  0  0  0  0  0  0  0  0  0  0  0
  147.5431  134.7235  151.6511 H   0  0  0  0  0  0  0  0  0  0  0  0
  146.7691  132.8342  150.6894 H   0  0  0  0  0  0  0  0  0  0  0  0
  145.8408  132.6388  152.1539 H   0  0  0  0  0  0  0  0  0  0  0  0
  144.4651  134.4539  150.2507 H   0  0  0  0  0  0  0  0  0  0  0  0
  143.7224  131.6518  151.3938 H   0  0  0  0  0  0  0  0  0  0  0  0
  142.5828  132.8560  150.5984 H   0  0  0  0  0  0  0  0  0  0  0  0
  143.9667  132.7740  148.4978 H   0  0  0  0  0  0  0  0  0  0  0  0
  145.1038  131.5695  149.2976 H   0  0  0  0  0  0  0  0  0  0  0  0
  1  2  2  0  0  0  0
  2  3  1  0  0  0  0
  2 12  1  0  0  0  0
  3  4  1  0  0  0  0
  3 17  1  0  0  0  0
  4  5  1  0  0  0  0
  4 18  1  0  0  0  0
  4 19  1  0  0  0  0
  5  6  1  0  0  0  0
  5 20  1  0  0  0  0
  5 21  1  0  0  0  0
  6 11  1  0  0  0  0
  6  7  2  0  0  0  0
  7  8  1  0  0  0  0
  7 22  1  0  0  0  0
  8  9  2  0  0  0  0
  8 23  1  0  0  0  0
  9 10  1  0  0  0  0
  9 24  1  0  0  0  0
 10 11  2  0  0  0  0
 11 25  1  0  0  0  0
 12 13  1  0  0  0  0
 12 26  1  0  0  0  0
 13 14  1  0  0  0  0
 13 27  1  0  0  0  0
 13 28  1  0  0  0  0
 14 16  1  0  0  0  0
 14 15  1  0  0  0  0
 14 29  1  0  0  0  0
 15 16  1  0  0  0  0
 15 30  1  0  0  0  0
 15 31  1  0  0  0  0
 16 32  1  0  0  0  0
 16 33  1  0  0  0  0
M  END
> <s_m_source_file>
AV-unprocessed.smi

> <i_m_source_file_index>
1380

> <i_lp_mmshare_version>
43012

> <i_f3d_flags>
0

> <s_epik_input>
W0NIMl0xW0NIMl1bQ0hdMVtDSDJdW05IXUMoPU8pW05IXVtDSDJdW0NIMl1jMltjSF1bY0hdW2NIXW5bY0hdMg==

> <s_epik_cmdline>
J2VwaWtfcHl0aG9uJywgJy1waCcsICc3LjAnLCAnLXRuJywgJzgnLCAnLW1hJywgJzIwMCcsICctbWV0YWxfYmluZGluZycsICctaW1hZScsICc8aW5maWxlLm1hZT4nLCAnLW9tYWUnLCAnPG91dGZpbGUubWFlPic=

> <r_epik_Ionization_Penalty>
0.0144004

> <r_epik_Ionization_Penalty_Charging>
0

> <r_epik_Ionization_Penalty_Neutral>
0.0144004

> <r_epik_State_Penalty>
0.0112076

> <r_epik_Charging_Adjusted_Penalty>
0.0112076

> <i_epik_Tot_Q>
0

> <i_epik_Tot_abs_Q>
0

> <r_epik_Metal_State_Penalty>
0.0109423

> <b_epik_Metal_Only>
0

> <s_lp_Force_Field>
OPLS_2005

> <r_lp_Energy>
8.98924

> <b_lp_Chiralities_Consistent>
1

> <s_lp_Variant>
AV-unprocessed.smi:1380-1

> <Gold.Version>
5.8.1

> <Gold.Id.Protein>
6NUR|6NUR_protein|mol2

> <Gold.PLP.Fitness>
37.5384

> <Gold.PLP.PLP>
-30.7551

> <Gold.PLP.part.hbond>
-2.0000

> <Gold.PLP.part.metal>
0.0000

> <Gold.PLP.part.buried>
-2.5215

> <Gold.PLP.part.nonpolar>
-27.3214

> <Gold.PLP.part.repulsive>
0.2528

> <Gold.PLP.ligand.clash>
0.0000

> <Gold.PLP.ligand.torsion>
1.1649

> <Gold.PLP.Chemscore.Hbond>
1.8480

> <Gold.PLP.Chemscore.CHOScore>
1.0000

> <Gold.PLP.Chemscore.Metal>
0.0000

> <Gold.Chemscore.Hbonds>
donor molecule, donor type, donor heavy atom, donor atom, acceptor molecule, acceptor atom, score
      L1  H     3    17       P1  7948  0.98
      L1  H    12    26       P1  7948  0.82
      L1  C    11    25       P1  7948  1.00

> <Gold.PLP.Chemscore.Internal.Correction>
0.5692

> <Gold.Rescore>
     Score         DG    S(hbond)    S(metal)    S(lipo)     H(rot)  DE(clash)    DE(int)     intcor
     15.22     -16.24       1.78        0.00      78.26       1.70       0.01       1.01       ----

> <Gold.Chemscore.Fitness>
15.2189

> <Gold.Chemscore.DG>
-16.2431

> <Gold.Chemscore.ZeroCoef>
-5.4800

> <Gold.Chemscore.Hbond>
1.7844

> <Gold.Chemscore.Metal>
0.0000

> <Gold.Chemscore.Lipo>
78.2619

> <Gold.Chemscore.Internal_Hbond>
0.0000

> <Gold.Chemscore.DEClash>
0.0121

> <Gold.Chemscore.DEInternal>
1.0121

> <Gold.Chemscore.Rot>
1.7006

> <Gold.Chemscore.Internal.Correction>
   9.000000E+99

> <Gold.Chemscore.Hbonds>
donor molecule, donor type, donor heavy atom, donor atom, acceptor molecule, acceptor atom, score
      L1  H     3    17       P1  7948  0.92
      L1  H    12    26       P1  7948  0.34

> <Gold.Chemscore.Hbond.Weighted>
-5.9600

> <Gold.Chemscore.Metal.Weighted>
-0.0000

> <Gold.Chemscore.Lipo.Weighted>
-9.1566

> <Gold.Chemscore.Internal_Hbond.Weighted>
0.0000

> <Gold.Chemscore.DEClash.Weighted>
0.0121

> <Gold.Chemscore.DEInternal.Weighted>
1.0121

> <Gold.Chemscore.Rot.Weighted>
4.3534

> <Gold.Chemscore.Internal.Correction.Weighted>
   9.000000E+99

> <Gold.Protein.RotatedTorsions>
[ 6907 6896 6895 6894 ] final  171.27 input  -60.11 | X-H torsion
[ 7974 7965 7964 7962 ] final -172.76 input  175.53 | X-H torsion
[ 8008 7997 7996 7995 ] final  138.32 input   59.86 | X-H torsion
[ 10167 10162 10161 10158 ] final  -36.28 input  -65.29 | X-H torsion
[ 10718 10713 10712 10709 ] final  165.69 input   66.30 | X-H torsion
[ 10763 10752 10751 10750 ] final -158.03 input  -60.55 | X-H torsion
[ 11005 11000 10999 10996 ] final  -49.23 input  -57.11 | X-H torsion

> <Gold.Protein.ActiveResidues>
 VAL166  LYS551  ARG553  GLY616  TRP617  ASP618  TYR619  PRO620  LYS621  CYS622 
 ASP623  PHE694  ASN695  SER759  ASP760  ASP761  ALA762  ILE779  LEU786  VAL792 
 PHE793  MET794  SER795  GLU796  ALA797  LYS798  CYS799  TRP800  GLU811  SER814 

> <Gold.Protein.RotatedAtoms>
  151.8028  133.3372  159.3531 H   0  0  0  0  0  0  0  0  0  0  0  0  # atno 6907 bound_to 6896
  150.7352  134.5737  159.5913 H   0  0  0  0  0  0  0  0  0  0  0  0  # atno 6908 bound_to 6896
  152.3131  134.7475  160.0383 H   0  0  0  0  0  0  0  0  0  0  0  0  # atno 6909 bound_to 6896
  144.7143  140.1723  143.6366 H   0  0  0  0  0  0  0  0  0  0  0  0  # atno 7974 bound_to 7965
  156.2998  140.2396  156.4054 H   0  0  0  0  0  0  0  0  0  0  0  0  # atno 8008 bound_to 7997
  154.8489  140.0425  157.1611 H   0  0  0  0  0  0  0  0  0  0  0  0  # atno 8009 bound_to 7997
  154.9020  140.2978  155.5316 H   0  0  0  0  0  0  0  0  0  0  0  0  # atno 8010 bound_to 7997
  140.7146  143.3419  151.2339 H   0  0  0  0  0  0  0  0  0  0  0  0  # atno 10167 bound_to 10162
  157.0766  131.0381  151.2591 H   0  0  0  0  0  0  0  0  0  0  0  0  # atno 10718 bound_to 10713
  154.7589  135.3112  154.8416 H   0  0  0  0  0  0  0  0  0  0  0  0  # atno 10763 bound_to 10752
  153.9182  135.6798  153.4753 H   0  0  0  0  0  0  0  0  0  0  0  0  # atno 10764 bound_to 10752
  153.1188  135.4832  154.9092 H   0  0  0  0  0  0  0  0  0  0  0  0  # atno 10765 bound_to 10752
  141.0747  133.6669  156.3556 H   0  0  0  0  0  0  0  0  0  0  0  0  # atno 11005 bound_to 11000
  145.8932  139.2387  143.1537 LP  0  0  0  0  0  0  0  0  0  0  0  0  # atno 17320 bound_to 7965
  145.9883  140.8624  143.0079 LP  0  0  0  0  0  0  0  0  0  0  0  0  # atno 17321 bound_to 7965
  139.6929  143.9662  152.2868 LP  0  0  0  0  0  0  0  0  0  0  0  0  # atno 17342 bound_to 10162
  139.9329  144.6730  150.8344 LP  0  0  0  0  0  0  0  0  0  0  0  0  # atno 17343 bound_to 10162
  157.4834  130.7779  149.7436 LP  0  0  0  0  0  0  0  0  0  0  0  0  # atno 17370 bound_to 10713
  155.9935  130.3924  150.2897 LP  0  0  0  0  0  0  0  0  0  0  0  0  # atno 17371 bound_to 10713
  140.5598  134.5945  157.5430 LP  0  0  0  0  0  0  0  0  0  0  0  0  # atno 17394 bound_to 11000
  139.9559  134.7535  156.0342 LP  0  0  0  0  0  0  0  0  0  0  0  0  # atno 17395 bound_to 11000

$$$$
