AV-unprocessed.smi:313|AV-procd|sdf|2310|dock10
  -GOLD-   2262022213D 1   1.00000     0.00000
 Structure written by MMmdl.
 50 51  0  0  0  0  0  0  0  0  1 V2000
  145.4148  135.8877  150.9180 C   0  0  0  0  0  0  0  0  0  0  0  0
  145.0879  136.2815  152.3662 C   0  0  0  0  0  0  0  0  0  0  0  0
  145.4232  135.1927  153.4051 C   0  0  1  0  0  0  0  0  0  0  0  0
  144.9723  133.8037  152.9324 C   0  0  0  0  0  0  0  0  0  0  0  0
  146.8591  135.1613  153.6759 N   0  0  0  0  0  0  0  0  0  0  0  0
  147.4347  135.1833  154.8885 C   0  0  0  0  0  0  0  0  0  0  0  0
  146.7982  135.2135  155.9429 O   0  0  0  0  0  0  0  0  0  0  0  0
  148.9712  135.1637  154.9049 C   0  0  2  0  0  0  0  0  0  0  0  0
  149.4304  133.9363  155.7090 C   0  0  0  0  0  0  0  0  0  0  0  0
  149.4926  136.3595  155.5645 N   0  0  0  0  0  0  0  0  0  0  0  0
  150.7292  136.8593  155.3989 C   0  0  0  0  0  0  0  0  0  0  0  0
  151.5670  136.3636  154.6448 O   0  0  0  0  0  0  0  0  0  0  0  0
  151.0247  138.1237  156.1523 C   0  0  0  0  0  0  0  0  0  0  0  0
  150.0789  138.7093  157.0220 C   0  0  0  0  0  0  0  0  0  0  0  0
  150.4257  139.8786  157.7253 C   0  0  0  0  0  0  0  0  0  0  0  0
  151.7160  140.4331  157.5520 C   0  0  0  0  0  0  0  0  0  0  0  0
  152.0881  141.5999  158.2548 N   0  0  0  0  0  0  0  0  0  0  0  0
  152.2570  141.5008  159.7035 C   0  0  0  0  0  0  0  0  0  0  0  0
  152.9228  142.7728  160.2548 C   0  0  0  0  0  0  0  0  0  0  0  0
  152.1659  143.9146  159.8683 O   0  0  0  0  0  0  0  0  0  0  0  0
  152.1095  144.0566  158.4530 C   0  0  0  0  0  0  0  0  0  0  0  0
  151.4203  142.8290  157.8323 C   0  0  0  0  0  0  0  0  0  0  0  0
  152.6225  139.8682  156.7167 N   0  0  0  0  0  0  0  0  0  0  0  0
  152.2863  138.7465  156.0452 C   0  0  0  0  0  0  0  0  0  0  0  0
  145.2217  136.7186  150.2393 H   0  0  0  0  0  0  0  0  0  0  0  0
  144.8096  135.0449  150.5833 H   0  0  0  0  0  0  0  0  0  0  0  0
  146.4637  135.6102  150.8133 H   0  0  0  0  0  0  0  0  0  0  0  0
  145.6430  137.1881  152.6100 H   0  0  0  0  0  0  0  0  0  0  0  0
  144.0321  136.5468  152.4366 H   0  0  0  0  0  0  0  0  0  0  0  0
  144.8737  135.4156  154.3213 H   0  0  0  0  0  0  0  0  0  0  0  0
  143.8984  133.7823  152.7461 H   0  0  0  0  0  0  0  0  0  0  0  0
  145.1899  133.0434  153.6835 H   0  0  0  0  0  0  0  0  0  0  0  0
  145.4756  133.5141  152.0093 H   0  0  0  0  0  0  0  0  0  0  0  0
  147.4678  135.1375  152.8708 H   0  0  0  0  0  0  0  0  0  0  0  0
  149.3620  135.1012  153.8870 H   0  0  0  0  0  0  0  0  0  0  0  0
  149.0681  133.0105  155.2599 H   0  0  0  0  0  0  0  0  0  0  0  0
  149.0737  133.9682  156.7396 H   0  0  0  0  0  0  0  0  0  0  0  0
  150.5187  133.8769  155.7394 H   0  0  0  0  0  0  0  0  0  0  0  0
  148.8603  136.8518  156.1783 H   0  0  0  0  0  0  0  0  0  0  0  0
  149.0985  138.2763  157.1585 H   0  0  0  0  0  0  0  0  0  0  0  0
  149.6988  140.3388  158.3777 H   0  0  0  0  0  0  0  0  0  0  0  0
  151.2826  141.3571  160.1726 H   0  0  0  0  0  0  0  0  0  0  0  0
  152.8711  140.6345  159.9537 H   0  0  0  0  0  0  0  0  0  0  0  0
  152.9708  142.7301  161.3429 H   0  0  0  0  0  0  0  0  0  0  0  0
  153.9489  142.8630  159.8940 H   0  0  0  0  0  0  0  0  0  0  0  0
  151.5537  144.9617  158.2089 H   0  0  0  0  0  0  0  0  0  0  0  0
  153.1154  144.1828  158.0494 H   0  0  0  0  0  0  0  0  0  0  0  0
  151.4199  142.9360  156.7488 H   0  0  0  0  0  0  0  0  0  0  0  0
  150.3769  142.7886  158.1474 H   0  0  0  0  0  0  0  0  0  0  0  0
  153.0529  138.3404  155.4012 H   0  0  0  0  0  0  0  0  0  0  0  0
  1  2  1  0  0  0  0
  1 25  1  0  0  0  0
  1 26  1  0  0  0  0
  1 27  1  0  0  0  0
  2  3  1  0  0  0  0
  2 28  1  0  0  0  0
  2 29  1  0  0  0  0
  3  4  1  0  0  0  0
  3  5  1  0  0  0  0
  3 30  1  0  0  0  0
  4 31  1  0  0  0  0
  4 32  1  0  0  0  0
  4 33  1  0  0  0  0
  5  6  1  0  0  0  0
  5 34  1  0  0  0  0
  6  7  2  0  0  0  0
  6  8  1  0  0  0  0
  8  9  1  0  0  0  0
  8 10  1  0  0  0  0
  8 35  1  0  0  0  0
  9 36  1  0  0  0  0
  9 37  1  0  0  0  0
  9 38  1  0  0  0  0
 10 11  1  0  0  0  0
 10 39  1  0  0  0  0
 11 12  2  0  0  0  0
 11 13  1  0  0  0  0
 13 24  1  0  0  0  0
 13 14  2  0  0  0  0
 14 15  1  0  0  0  0
 14 40  1  0  0  0  0
 15 16  2  0  0  0  0
 15 41  1  0  0  0  0
 16 17  1  0  0  0  0
 16 23  1  0  0  0  0
 17 22  1  0  0  0  0
 17 18  1  0  0  0  0
 18 19  1  0  0  0  0
 18 42  1  0  0  0  0
 18 43  1  0  0  0  0
 19 20  1  0  0  0  0
 19 44  1  0  0  0  0
 19 45  1  0  0  0  0
 20 21  1  0  0  0  0
 21 22  1  0  0  0  0
 21 46  1  0  0  0  0
 21 47  1  0  0  0  0
 22 48  1  0  0  0  0
 22 49  1  0  0  0  0
 23 24  2  0  0  0  0
 24 50  1  0  0  0  0
M  END
> <s_m_source_file>
AV-unprocessed.smi

> <i_m_source_file_index>
313

> <i_lp_mmshare_version>
43012

> <i_f3d_flags>
0

> <s_epik_input>
W0NIM11bQ0gyXVtDQEhdKFtDSDNdKVtOSF1DKD1PKVtDQEhdKFtDSDNdKVtOSF1DKD1PKWMxW2NIXVtjSF1jKG5bY0hdMSlOMltDSDJdW0NIMl1PW0NIMl1bQ0gyXTI=

> <s_epik_cmdline>
J2VwaWtfcHl0aG9uJywgJy1waCcsICc3LjAnLCAnLXRuJywgJzgnLCAnLW1hJywgJzIwMCcsICctbWV0YWxfYmluZGluZycsICctaW1hZScsICc8aW5maWxlLm1hZT4nLCAnLW9tYWUnLCAnPG91dGZpbGUubWFlPic=

> <r_lp_tautomer_probability>
1

> <r_epik_Ionization_Penalty>
9.96442e-06

> <r_epik_Ionization_Penalty_Charging>
0

> <r_epik_Ionization_Penalty_Neutral>
9.96442e-06

> <r_epik_State_Penalty>
-0

> <r_epik_Charging_Adjusted_Penalty>
0

> <i_epik_Tot_Q>
0

> <i_epik_Tot_abs_Q>
0

> <r_epik_Metal_State_Penalty>
-0

> <b_epik_Metal_Only>
0

> <s_lp_Force_Field>
OPLS_2005

> <r_lp_Energy>
19.2481

> <b_lp_Chiralities_Consistent>
1

> <s_lp_Variant>
AV-unprocessed.smi:313-2

> <Gold.Version>
5.8.1

> <Gold.Id.Protein>
6NUR|6NUR_protein|mol2

> <Gold.PLP.Fitness>
41.5857

> <Gold.PLP.PLP>
-34.0234

> <Gold.PLP.part.hbond>
-3.0000

> <Gold.PLP.part.metal>
0.0000

> <Gold.PLP.part.buried>
-4.5987

> <Gold.PLP.part.nonpolar>
-26.5720

> <Gold.PLP.part.repulsive>
0.2045

> <Gold.PLP.ligand.clash>
0.0000

> <Gold.PLP.ligand.torsion>
0.7379

> <Gold.PLP.Chemscore.Hbond>
2.8960

> <Gold.PLP.Chemscore.CHOScore>
0.0000

> <Gold.PLP.Chemscore.Metal>
0.0000

> <Gold.Chemscore.Hbonds>
donor molecule, donor type, donor heavy atom, donor atom, acceptor molecule, acceptor atom, score
      L1  H     5    34       P1  7948  0.77
      P1  H  7997  8008       L1    23  1.00
      P1  H 10752 10764       L1    12  1.00

> <Gold.PLP.Chemscore.Internal.Correction>
0.3500

> <Gold.Rescore>
     Score         DG    S(hbond)    S(metal)    S(lipo)     H(rot)  DE(clash)    DE(int)     intcor
     19.04     -20.23       2.72        0.00      87.68       1.79       0.16       1.03       ----

> <Gold.Chemscore.Fitness>
19.0381

> <Gold.Chemscore.DG>
-20.2339

> <Gold.Chemscore.ZeroCoef>
-5.4800

> <Gold.Chemscore.Hbond>
2.7171

> <Gold.Chemscore.Metal>
0.0000

> <Gold.Chemscore.Lipo>
87.6764

> <Gold.Chemscore.Internal_Hbond>
0.0000

> <Gold.Chemscore.DEClash>
0.1632

> <Gold.Chemscore.DEInternal>
1.0326

> <Gold.Chemscore.Rot>
1.7888

> <Gold.Chemscore.Internal.Correction>
   9.000000E+99

> <Gold.Chemscore.Hbonds>
donor molecule, donor type, donor heavy atom, donor atom, acceptor molecule, acceptor atom, score
      L1  H     5    34       P1  7948  0.74
      P1  H  7997  8008       L1    23  0.65
      P1  H 10752 10764       L1    12  0.96

> <Gold.Chemscore.Hbond.Weighted>
-9.0751

> <Gold.Chemscore.Metal.Weighted>
-0.0000

> <Gold.Chemscore.Lipo.Weighted>
-10.2581

> <Gold.Chemscore.Internal_Hbond.Weighted>
0.0000

> <Gold.Chemscore.DEClash.Weighted>
0.1632

> <Gold.Chemscore.DEInternal.Weighted>
1.0326

> <Gold.Chemscore.Rot.Weighted>
4.5793

> <Gold.Chemscore.Internal.Correction.Weighted>
   9.000000E+99

> <Gold.Protein.RotatedTorsions>
[ 6907 6896 6895 6894 ] final   84.57 input  -60.11 | X-H torsion
[ 7974 7965 7964 7962 ] final   12.19 input  175.53 | X-H torsion
[ 8008 7997 7996 7995 ] final  -52.55 input   59.86 | X-H torsion
[ 10167 10162 10161 10158 ] final   -5.33 input  -65.29 | X-H torsion
[ 10718 10713 10712 10709 ] final  152.57 input   66.30 | X-H torsion
[ 10763 10752 10751 10750 ] final  -68.91 input  -60.55 | X-H torsion
[ 11005 11000 10999 10996 ] final   79.87 input  -57.11 | X-H torsion

> <Gold.Protein.ActiveResidues>
 VAL166  LYS551  ARG553  GLY616  TRP617  ASP618  TYR619  PRO620  LYS621  CYS622 
 ASP623  PHE694  ASN695  SER759  ASP760  ASP761  ALA762  ILE779  LEU786  VAL792 
 PHE793  MET794  SER795  GLU796  ALA797  LYS798  CYS799  TRP800  GLU811  SER814 

> <Gold.Protein.RotatedAtoms>
  152.5355  134.2720  159.8974 H   0  0  0  0  0  0  0  0  0  0  0  0  # atno 6907 bound_to 6896
  151.2676  133.4264  159.2627 H   0  0  0  0  0  0  0  0  0  0  0  0  # atno 6908 bound_to 6896
  151.0396  134.9613  159.8211 H   0  0  0  0  0  0  0  0  0  0  0  0  # atno 6909 bound_to 6896
  146.2356  139.9374  142.8488 H   0  0  0  0  0  0  0  0  0  0  0  0  # atno 7974 bound_to 7965
  154.4109  140.1221  156.5009 H   0  0  0  0  0  0  0  0  0  0  0  0  # atno 8008 bound_to 7997
  155.6895  140.3495  155.4868 H   0  0  0  0  0  0  0  0  0  0  0  0  # atno 8009 bound_to 7997
  155.9481  140.1099  157.0990 H   0  0  0  0  0  0  0  0  0  0  0  0  # atno 8010 bound_to 7997
  140.6959  143.6321  150.8513 H   0  0  0  0  0  0  0  0  0  0  0  0  # atno 10167 bound_to 10162
  157.2561  131.0788  151.1697 H   0  0  0  0  0  0  0  0  0  0  0  0  # atno 10718 bound_to 10713
  154.3958  135.6042  153.5869 H   0  0  0  0  0  0  0  0  0  0  0  0  # atno 10763 bound_to 10752
  152.9787  135.5894  154.4243 H   0  0  0  0  0  0  0  0  0  0  0  0  # atno 10764 bound_to 10752
  154.4034  135.2843  155.2060 H   0  0  0  0  0  0  0  0  0  0  0  0  # atno 10765 bound_to 10752
  139.9156  134.7876  156.1835 H   0  0  0  0  0  0  0  0  0  0  0  0  # atno 11005 bound_to 11000
  145.1986  140.9844  143.4169 LP  0  0  0  0  0  0  0  0  0  0  0  0  # atno 17320 bound_to 7965
  144.9794  139.3799  143.6269 LP  0  0  0  0  0  0  0  0  0  0  0  0  # atno 17321 bound_to 7965
  140.0039  143.5715  152.2865 LP  0  0  0  0  0  0  0  0  0  0  0  0  # atno 17342 bound_to 10162
  139.6414  144.7655  151.2331 LP  0  0  0  0  0  0  0  0  0  0  0  0  # atno 17343 bound_to 10162
  157.3226  130.6945  149.6278 LP  0  0  0  0  0  0  0  0  0  0  0  0  # atno 17370 bound_to 10713
  155.9665  130.4331  150.4991 LP  0  0  0  0  0  0  0  0  0  0  0  0  # atno 17371 bound_to 10713
  141.0627  133.6834  156.1985 LP  0  0  0  0  0  0  0  0  0  0  0  0  # atno 17394 bound_to 11000
  140.6634  134.4943  157.5584 LP  0  0  0  0  0  0  0  0  0  0  0  0  # atno 17395 bound_to 11000

$$$$
