AV-unprocessed.smi:1022|AV-procd|sdf|4460|dock5
  -GOLD-   22720 2433D 1   1.00000     0.00000
 Structure written by MMmdl.
 32 33  0  0  0  0  0  0  0  0  2 V2000
  152.6178  143.6747  158.7961 C   0  0  0  0  0  0  0  0  0  0  0  0
  152.1406  143.0110  159.9533 O   0  0  0  0  0  0  0  0  0  0  0  0
  153.1920  142.5648  160.7944 C   0  0  0  0  0  0  0  0  0  0  0  0
  153.3956  141.0499  160.6086 C   0  0  2  0  0  0  0  0  0  0  0  0
  154.7003  140.5622  161.2560 C   0  0  0  0  0  0  0  0  0  0  0  0
  153.4138  140.7119  159.1872 N   0  0  0  0  0  0  0  0  0  0  0  0
  152.5586  139.8933  158.5569 C   0  0  0  0  0  0  0  0  0  0  0  0
  151.6592  139.3355  159.1900 O   0  0  0  0  0  0  0  0  0  0  0  0
  152.7938  139.7780  157.2299 N   0  5  0  0  0  0  0  0  0  0  0  0
  151.8217  140.0662  156.3488 C   0  0  0  0  0  0  0  0  0  0  0  0
  151.7265  139.4586  155.1577 N   0  0  0  0  0  0  0  0  0  0  0  0
  150.6527  139.9070  154.4020 N   0  0  0  0  0  0  0  0  0  0  0  0
  149.9545  140.8550  155.0318 C   0  0  0  0  0  0  0  0  0  0  0  0
  148.7509  141.4971  154.4267 C   0  0  0  0  0  0  0  0  0  0  0  0
  147.4059  141.4692  155.1193 C   0  0  0  0  0  0  0  0  0  0  0  0
  147.6249  140.6574  153.8684 C   0  0  0  0  0  0  0  0  0  0  0  0
  150.5730  141.2816  156.6192 S   0  0  0  0  0  0  0  0  0  0  0  0
  151.7750  143.9990  158.1861 H   0  0  0  0  0  0  0  0  0  0  0  0
  153.2377  143.0132  158.1895 H   0  0  0  0  0  0  0  0  0  0  0  0
  153.2014  144.5574  159.0605 H   0  0  0  0  0  0  0  0  0  0  0  0
  154.1063  143.1029  160.5383 H   0  0  0  0  0  0  0  0  0  0  0  0
  152.9640  142.7912  161.8375 H   0  0  0  0  0  0  0  0  0  0  0  0
  152.5668  140.5216  161.0833 H   0  0  0  0  0  0  0  0  0  0  0  0
  154.7052  140.7581  162.3284 H   0  0  0  0  0  0  0  0  0  0  0  0
  155.5689  141.0598  160.8232 H   0  0  0  0  0  0  0  0  0  0  0  0
  154.8282  139.4881  161.1193 H   0  0  0  0  0  0  0  0  0  0  0  0
  154.1342  141.1434  158.6272 H   0  0  0  0  0  0  0  0  0  0  0  0
  149.0276  142.4022  153.8897 H   0  0  0  0  0  0  0  0  0  0  0  0
  147.3198  140.9231  156.0565 H   0  0  0  0  0  0  0  0  0  0  0  0
  146.7822  142.3572  155.0390 H   0  0  0  0  0  0  0  0  0  0  0  0
  147.1474  141.0027  152.9538 H   0  0  0  0  0  0  0  0  0  0  0  0
  147.6983  139.5772  153.9780 H   0  0  0  0  0  0  0  0  0  0  0  0
  1  2  1  0  0  0  0
  1 18  1  0  0  0  0
  1 19  1  0  0  0  0
  1 20  1  0  0  0  0
  2  3  1  0  0  0  0
  3  4  1  0  0  0  0
  3 21  1  0  0  0  0
  3 22  1  0  0  0  0
  4  5  1  0  0  0  0
  4  6  1  0  0  0  0
  4 23  1  0  0  0  0
  5 24  1  0  0  0  0
  5 25  1  0  0  0  0
  5 26  1  0  0  0  0
  6  7  1  0  0  0  0
  6 27  1  0  0  0  0
  7  8  2  0  0  0  0
  7  9  1  0  0  0  0
  9 10  1  0  0  0  0
 10 17  1  0  0  0  0
 10 11  2  0  0  0  0
 11 12  1  0  0  0  0
 12 13  2  0  0  0  0
 13 14  1  0  0  0  0
 13 17  1  0  0  0  0
 14 16  1  0  0  0  0
 14 15  1  0  0  0  0
 14 28  1  0  0  0  0
 15 16  1  0  0  0  0
 15 29  1  0  0  0  0
 15 30  1  0  0  0  0
 16 31  1  0  0  0  0
 16 32  1  0  0  0  0
M  CHG  1   9  -1
M  END
> <s_m_source_file>
AV-unprocessed.smi

> <i_m_source_file_index>
1022

> <i_lp_mmshare_version>
43012

> <i_f3d_flags>
0

> <s_epik_input>
W0NIM11PW0NIMl1bQ0BIXShbQ0gzXSlbTkhdQyg9TylbTkhdYzFubmMoczEpW0NIXTJbQ0gyXVtDSDJdMg==

> <s_epik_cmdline>
J2VwaWtfcHl0aG9uJywgJy1waCcsICc3LjAnLCAnLXRuJywgJzgnLCAnLW1hJywgJzIwMCcsICctbWV0YWxfYmluZGluZycsICctaW1hZScsICc8aW5maWxlLm1hZT4nLCAnLW9tYWUnLCAnPG91dGZpbGUubWFlPic=

> <r_lp_tautomer_probability>
1

> <r_epik_Ionization_Penalty>
3.79487

> <r_epik_Ionization_Penalty_Charging>
3.64217

> <r_epik_Ionization_Penalty_Neutral>
0.152695

> <r_epik_State_Penalty>
3.6409

> <r_epik_Charging_Adjusted_Penalty>
7.28307

> <i_epik_Tot_Q>
-1

> <i_epik_Tot_abs_Q>
1

> <r_epik_Metal_State_Penalty>
0.534129

> <b_epik_Metal_Only>
1

> <s_lp_Force_Field>
OPLS_2005

> <r_lp_Energy>
-0.766609

> <b_lp_Chiralities_Consistent>
1

> <s_lp_Variant>
AV-unprocessed.smi:1022-3

> <Gold.Version>
5.8.1

> <Gold.Id.Protein>
6NUR|6NUR_protein|mol2

> <Gold.PLP.Fitness>
40.8981

> <Gold.PLP.PLP>
-35.1364

> <Gold.PLP.part.hbond>
-2.9412

> <Gold.PLP.part.metal>
0.0000

> <Gold.PLP.part.buried>
-2.7783

> <Gold.PLP.part.nonpolar>
-29.5256

> <Gold.PLP.part.repulsive>
0.2241

> <Gold.PLP.ligand.clash>
0.0000

> <Gold.PLP.ligand.torsion>
1.1840

> <Gold.PLP.Chemscore.Hbond>
2.6500

> <Gold.PLP.Chemscore.CHOScore>
0.0000

> <Gold.PLP.Chemscore.Metal>
0.0000

> <Gold.Chemscore.Hbonds>
donor molecule, donor type, donor heavy atom, donor atom, acceptor molecule, acceptor atom, score
      P1  H  7989  7998       L1    12  0.57
      P1  H  7997  8008       L1     9  2.00

> <Gold.PLP.Chemscore.Internal.Correction>
0.1797

> <Gold.Rescore>
     Score         DG    S(hbond)    S(metal)    S(lipo)     H(rot)  DE(clash)    DE(int)     intcor
     11.56     -12.82       0.86        0.00      75.17       1.69       0.05       1.20       ----

> <Gold.Chemscore.Fitness>
11.5614

> <Gold.Chemscore.DG>
-12.8180

> <Gold.Chemscore.ZeroCoef>
-5.4800

> <Gold.Chemscore.Hbond>
0.8609

> <Gold.Chemscore.Metal>
0.0000

> <Gold.Chemscore.Lipo>
75.1651

> <Gold.Chemscore.Internal_Hbond>
0.0000

> <Gold.Chemscore.DEClash>
0.0525

> <Gold.Chemscore.DEInternal>
1.2042

> <Gold.Chemscore.Rot>
1.6921

> <Gold.Chemscore.Internal.Correction>
   9.000000E+99

> <Gold.Chemscore.Hbonds>
donor molecule, donor type, donor heavy atom, donor atom, acceptor molecule, acceptor atom, score
      P1  H  7989  7998       L1    12  0.01
      P1  H  7997  8008       L1     9  0.57

> <Gold.Chemscore.Hbond.Weighted>
-2.8754

> <Gold.Chemscore.Metal.Weighted>
-0.0000

> <Gold.Chemscore.Lipo.Weighted>
-8.7943

> <Gold.Chemscore.Internal_Hbond.Weighted>
0.0000

> <Gold.Chemscore.DEClash.Weighted>
0.0525

> <Gold.Chemscore.DEInternal.Weighted>
1.2042

> <Gold.Chemscore.Rot.Weighted>
4.3317

> <Gold.Chemscore.Internal.Correction.Weighted>
   9.000000E+99

> <Gold.Protein.RotatedTorsions>
[ 6907 6896 6895 6894 ] final  134.23 input  -60.11 | X-H torsion
[ 7974 7965 7964 7962 ] final   82.51 input  175.53 | X-H torsion
[ 8008 7997 7996 7995 ] final  -46.19 input   59.86 | X-H torsion
[ 10167 10162 10161 10158 ] final -114.17 input  -65.29 | X-H torsion
[ 10718 10713 10712 10709 ] final -157.12 input   66.30 | X-H torsion
[ 10763 10752 10751 10750 ] final  161.77 input  -60.55 | X-H torsion
[ 11005 11000 10999 10996 ] final   75.36 input  -57.11 | X-H torsion

> <Gold.Protein.ActiveResidues>
 VAL166  LYS551  ARG553  GLY616  TRP617  ASP618  TYR619  PRO620  LYS621  CYS622 
 ASP623  PHE694  ASN695  SER759  ASP760  ASP761  ALA762  ILE779  LEU786  VAL792 
 PHE793  MET794  SER795  GLU796  ALA797  LYS798  CYS799  TRP800  GLU811  SER814 

> <Gold.Protein.RotatedAtoms>
  152.3136  133.5778  159.5696 H   0  0  0  0  0  0  0  0  0  0  0  0  # atno 6907 bound_to 6896
  150.7335  134.0116  159.3680 H   0  0  0  0  0  0  0  0  0  0  0  0  # atno 6908 bound_to 6896
  151.8007  135.0710  160.0451 H   0  0  0  0  0  0  0  0  0  0  0  0  # atno 6909 bound_to 6896
  145.6240  139.2391  143.2122 H   0  0  0  0  0  0  0  0  0  0  0  0  # atno 7974 bound_to 7965
  154.4005  140.1377  156.3971 H   0  0  0  0  0  0  0  0  0  0  0  0  # atno 8008 bound_to 7997
  155.7859  140.3480  155.5302 H   0  0  0  0  0  0  0  0  0  0  0  0  # atno 8009 bound_to 7997
  155.8627  140.0959  157.1593 H   0  0  0  0  0  0  0  0  0  0  0  0  # atno 8010 bound_to 7997
  140.1039  143.4588  152.1795 H   0  0  0  0  0  0  0  0  0  0  0  0  # atno 10167 bound_to 10162
  156.5360  130.8542  151.2732 H   0  0  0  0  0  0  0  0  0  0  0  0  # atno 10718 bound_to 10713
  154.2682  135.2766  155.2749 H   0  0  0  0  0  0  0  0  0  0  0  0  # atno 10763 bound_to 10752
  154.5325  135.5725  153.6774 H   0  0  0  0  0  0  0  0  0  0  0  0  # atno 10764 bound_to 10752
  152.9950  135.6231  154.2835 H   0  0  0  0  0  0  0  0  0  0  0  0  # atno 10765 bound_to 10752
  139.9347  134.7511  156.1261 H   0  0  0  0  0  0  0  0  0  0  0  0  # atno 11005 bound_to 11000
  146.1408  140.7059  142.9368 LP  0  0  0  0  0  0  0  0  0  0  0  0  # atno 17320 bound_to 7965
  144.7219  140.4402  143.7001 LP  0  0  0  0  0  0  0  0  0  0  0  0  # atno 17321 bound_to 7965
  139.5656  144.7433  151.4032 LP  0  0  0  0  0  0  0  0  0  0  0  0  # atno 17342 bound_to 10162
  140.6963  143.7741  150.7331 LP  0  0  0  0  0  0  0  0  0  0  0  0  # atno 17343 bound_to 10162
  157.7413  130.9868  150.2440 LP  0  0  0  0  0  0  0  0  0  0  0  0  # atno 17370 bound_to 10713
  156.3016  130.3759  149.7745 LP  0  0  0  0  0  0  0  0  0  0  0  0  # atno 17371 bound_to 10713
  141.0955  133.6697  156.2636 LP  0  0  0  0  0  0  0  0  0  0  0  0  # atno 17394 bound_to 11000
  140.6106  134.5462  157.5533 LP  0  0  0  0  0  0  0  0  0  0  0  0  # atno 17395 bound_to 11000

$$$$
