AV-unprocessed.smi:633|AV-procd|sdf|3130|dock2
  -GOLD-   22720 0 53D 1   1.00000     0.00000
 Structure written by MMmdl.
 53 56  0  0  0  0  0  0  0  0  1 V2000
  151.5379  144.7365  158.2659 C   0  0  0  0  0  0  0  0  0  0  0  0
  152.1005  143.3163  158.3868 C   0  0  2  0  0  0  0  0  0  0  0  0
  151.2631  142.2982  157.5924 C   0  0  0  0  0  0  0  0  0  0  0  0
  151.7499  140.9427  157.8315 N   0  0  0  0  0  0  0  0  0  0  0  0
  151.3032  139.9157  156.9729 C   0  0  0  0  0  0  0  0  0  0  0  0
  151.8940  139.7510  155.6982 C   0  0  0  0  0  0  0  0  0  0  0  0
  151.4391  138.7189  154.8554 C   0  0  0  0  0  0  0  0  0  0  0  0
  150.3951  137.8774  155.3051 C   0  0  0  0  0  0  0  0  0  0  0  0
  149.8657  136.7878  154.5620 N   0  0  0  0  0  0  0  0  0  0  0  0
  149.4545  135.5892  155.0097 C   0  0  0  0  0  0  0  0  0  0  0  0
  149.5129  135.2104  156.1791 O   0  0  0  0  0  0  0  0  0  0  0  0
  148.9830  134.8360  154.0040 N   0  0  0  0  0  0  0  0  0  0  0  0
  148.4583  133.4750  154.1018 C   0  0  0  0  0  0  0  0  0  0  0  0
  149.4875  132.3955  153.7990 C   0  0  0  0  0  0  0  0  0  0  0  0
  149.2364  130.9506  154.1594 C   0  0  0  0  0  0  0  0  0  0  0  0
  150.2859  131.7457  154.9034 C   0  0  0  0  0  0  0  0  0  0  0  0
  147.1831  133.2500  153.3025 C   0  0  0  0  0  0  0  0  0  0  0  0
  146.9962  132.0083  152.4643 C   0  0  0  0  0  0  0  0  0  0  0  0
  147.1751  133.3530  151.7959 C   0  0  0  0  0  0  0  0  0  0  0  0
  149.8754  138.1144  156.5930 C   0  0  0  0  0  0  0  0  0  0  0  0
  150.3063  139.1041  157.4027 N   0  0  0  0  0  0  0  0  0  0  0  0
  151.8080  140.5944  159.2482 C   0  0  0  0  0  0  0  0  0  0  0  0
  152.6026  141.6475  160.0456 C   0  0  1  0  0  0  0  0  0  0  0  0
  154.1250  141.5475  159.8427 C   0  0  0  0  0  0  0  0  0  0  0  0
  152.1047  142.9585  159.7683 O   0  0  0  0  0  0  0  0  0  0  0  0
  151.5259  145.0667  157.2270 H   0  0  0  0  0  0  0  0  0  0  0  0
  152.1430  145.4444  158.8324 H   0  0  0  0  0  0  0  0  0  0  0  0
  150.5176  144.7906  158.6467 H   0  0  0  0  0  0  0  0  0  0  0  0
  153.1221  143.3255  158.0065 H   0  0  0  0  0  0  0  0  0  0  0  0
  150.2142  142.3599  157.8864 H   0  0  0  0  0  0  0  0  0  0  0  0
  151.3186  142.5361  156.5292 H   0  0  0  0  0  0  0  0  0  0  0  0
  152.6807  140.4070  155.3559 H   0  0  0  0  0  0  0  0  0  0  0  0
  151.9078  138.5887  153.8926 H   0  0  0  0  0  0  0  0  0  0  0  0
  149.8373  136.9212  153.5617 H   0  0  0  0  0  0  0  0  0  0  0  0
  148.9852  135.2428  153.0802 H   0  0  0  0  0  0  0  0  0  0  0  0
  148.1908  133.3648  155.1535 H   0  0  0  0  0  0  0  0  0  0  0  0
  150.0213  132.5512  152.8632 H   0  0  0  0  0  0  0  0  0  0  0  0
  148.3207  130.7091  154.6951 H   0  0  0  0  0  0  0  0  0  0  0  0
  149.5808  130.1922  153.4592 H   0  0  0  0  0  0  0  0  0  0  0  0
  151.3300  131.5177  154.6992 H   0  0  0  0  0  0  0  0  0  0  0  0
  150.0634  132.0352  155.9286 H   0  0  0  0  0  0  0  0  0  0  0  0
  146.2872  133.6227  153.7956 H   0  0  0  0  0  0  0  0  0  0  0  0
  147.8247  131.3048  152.4084 H   0  0  0  0  0  0  0  0  0  0  0  0
  146.0039  131.5626  152.4424 H   0  0  0  0  0  0  0  0  0  0  0  0
  146.3020  133.8031  151.3281 H   0  0  0  0  0  0  0  0  0  0  0  0
  148.1211  133.5378  151.2912 H   0  0  0  0  0  0  0  0  0  0  0  0
  149.0846  137.4934  156.9880 H   0  0  0  0  0  0  0  0  0  0  0  0
  150.7862  140.5452  159.6269 H   0  0  0  0  0  0  0  0  0  0  0  0
  152.2467  139.6104  159.4100 H   0  0  0  0  0  0  0  0  0  0  0  0
  152.4149  141.4704  161.1050 H   0  0  0  0  0  0  0  0  0  0  0  0
  154.4974  140.5837  160.1904 H   0  0  0  0  0  0  0  0  0  0  0  0
  154.6446  142.3235  160.4050 H   0  0  0  0  0  0  0  0  0  0  0  0
  154.4103  141.6437  158.7955 H   0  0  0  0  0  0  0  0  0  0  0  0
  1  2  1  0  0  0  0
  1 26  1  0  0  0  0
  1 27  1  0  0  0  0
  1 28  1  0  0  0  0
  2 25  1  0  0  0  0
  2  3  1  0  0  0  0
  2 29  1  0  0  0  0
  3  4  1  0  0  0  0
  3 30  1  0  0  0  0
  3 31  1  0  0  0  0
  4  5  1  0  0  0  0
  4 22  1  0  0  0  0
  5 21  1  0  0  0  0
  5  6  2  0  0  0  0
  6  7  1  0  0  0  0
  6 32  1  0  0  0  0
  7  8  2  0  0  0  0
  7 33  1  0  0  0  0
  8  9  1  0  0  0  0
  8 20  1  0  0  0  0
  9 10  1  0  0  0  0
  9 34  1  0  0  0  0
 10 11  2  0  0  0  0
 10 12  1  0  0  0  0
 12 13  1  0  0  0  0
 12 35  1  0  0  0  0
 13 14  1  0  0  0  0
 13 17  1  0  0  0  0
 13 36  1  0  0  0  0
 14 16  1  0  0  0  0
 14 15  1  0  0  0  0
 14 37  1  0  0  0  0
 15 16  1  0  0  0  0
 15 38  1  0  0  0  0
 15 39  1  0  0  0  0
 16 40  1  0  0  0  0
 16 41  1  0  0  0  0
 17 19  1  0  0  0  0
 17 18  1  0  0  0  0
 17 42  1  0  0  0  0
 18 19  1  0  0  0  0
 18 43  1  0  0  0  0
 18 44  1  0  0  0  0
 19 45  1  0  0  0  0
 19 46  1  0  0  0  0
 20 21  2  0  0  0  0
 20 47  1  0  0  0  0
 22 23  1  0  0  0  0
 22 48  1  0  0  0  0
 22 49  1  0  0  0  0
 23 24  1  0  0  0  0
 23 25  1  0  0  0  0
 23 50  1  0  0  0  0
 24 51  1  0  0  0  0
 24 52  1  0  0  0  0
 24 53  1  0  0  0  0
M  END
> <s_m_source_file>
AV-unprocessed.smi

> <i_m_source_file_index>
633

> <i_lp_mmshare_version>
43012

> <i_f3d_flags>
0

> <s_epik_input>
W0NIM11bQ0BASF0xW0NIMl1OKFtDSDJdW0NASF0oTzEpW0NIM10pYzJbY0hdW2NIXWMoW2NIXW4yKVtOSF1DKD1PKVtOSF1bQ0hdKFtDSF0zW0NIMl1bQ0gyXTMpW0NIXTRbQ0gyXVtDSDJdNA==

> <s_epik_cmdline>
J2VwaWtfcHl0aG9uJywgJy1waCcsICc3LjAnLCAnLXRuJywgJzgnLCAnLW1hJywgJzIwMCcsICctbWV0YWxfYmluZGluZycsICctaW1hZScsICc8aW5maWxlLm1hZT4nLCAnLW9tYWUnLCAnPG91dGZpbGUubWFlPic=

> <r_lp_tautomer_probability>
1

> <r_epik_Ionization_Penalty>
0.00291159

> <r_epik_Ionization_Penalty_Charging>
0

> <r_epik_Ionization_Penalty_Neutral>
0.00291159

> <r_epik_State_Penalty>
0.00200877

> <r_epik_Charging_Adjusted_Penalty>
0.00200877

> <i_epik_Tot_Q>
0

> <i_epik_Tot_abs_Q>
0

> <r_epik_Metal_State_Penalty>
-0

> <b_epik_Metal_Only>
0

> <s_lp_Force_Field>
OPLS_2005

> <r_lp_Energy>
43.7528

> <b_lp_Chiralities_Consistent>
1

> <s_lp_Variant>
AV-unprocessed.smi:633-1

> <Gold.Version>
5.8.1

> <Gold.Id.Protein>
6NUR|6NUR_protein|mol2

> <Gold.PLP.Fitness>
49.4843

> <Gold.PLP.PLP>
-45.9692

> <Gold.PLP.part.hbond>
-2.0000

> <Gold.PLP.part.metal>
0.0000

> <Gold.PLP.part.buried>
-6.7245

> <Gold.PLP.part.nonpolar>
-37.9738

> <Gold.PLP.part.repulsive>
0.0584

> <Gold.PLP.ligand.clash>
0.0000

> <Gold.PLP.ligand.torsion>
2.4176

> <Gold.PLP.Chemscore.Hbond>
1.9440

> <Gold.PLP.Chemscore.CHOScore>
0.0000

> <Gold.PLP.Chemscore.Metal>
0.0000

> <Gold.Chemscore.Hbonds>
donor molecule, donor type, donor heavy atom, donor atom, acceptor molecule, acceptor atom, score
      L1  H     9    34       P1  7948  0.88
      L1  H    12    35       P1  7948  1.00

> <Gold.PLP.Chemscore.Internal.Correction>
2.5182

> <Gold.Rescore>
     Score         DG    S(hbond)    S(metal)    S(lipo)     H(rot)  DE(clash)    DE(int)     intcor
     17.67     -21.37       1.75        0.00     116.44       1.40       0.02       3.69       ----

> <Gold.Chemscore.Fitness>
17.6655

> <Gold.Chemscore.DG>
-21.3749

> <Gold.Chemscore.ZeroCoef>
-5.4800

> <Gold.Chemscore.Hbond>
1.7548

> <Gold.Chemscore.Metal>
0.0000

> <Gold.Chemscore.Lipo>
116.4396

> <Gold.Chemscore.Internal_Hbond>
0.0000

> <Gold.Chemscore.DEClash>
0.0197

> <Gold.Chemscore.DEInternal>
3.6898

> <Gold.Chemscore.Rot>
1.4022

> <Gold.Chemscore.Internal.Correction>
   9.000000E+99

> <Gold.Chemscore.Hbonds>
donor molecule, donor type, donor heavy atom, donor atom, acceptor molecule, acceptor atom, score
      L1  H     9    34       P1  7948  0.37
      L1  H    12    35       P1  7948  0.28

> <Gold.Chemscore.Hbond.Weighted>
-5.8612

> <Gold.Chemscore.Metal.Weighted>
-0.0000

> <Gold.Chemscore.Lipo.Weighted>
-13.6234

> <Gold.Chemscore.Internal_Hbond.Weighted>
0.0000

> <Gold.Chemscore.DEClash.Weighted>
0.0197

> <Gold.Chemscore.DEInternal.Weighted>
3.6898

> <Gold.Chemscore.Rot.Weighted>
3.5897

> <Gold.Chemscore.Internal.Correction.Weighted>
   9.000000E+99

> <Gold.Protein.RotatedTorsions>
[ 6907 6896 6895 6894 ] final  -95.25 input  -60.11 | X-H torsion
[ 7974 7965 7964 7962 ] final -166.76 input  175.53 | X-H torsion
[ 8008 7997 7996 7995 ] final   62.31 input   59.86 | X-H torsion
[ 10167 10162 10161 10158 ] final  168.85 input  -65.29 | X-H torsion
[ 10718 10713 10712 10709 ] final  157.80 input   66.30 | X-H torsion
[ 10763 10752 10751 10750 ] final   27.01 input  -60.55 | X-H torsion
[ 11005 11000 10999 10996 ] final  -61.00 input  -57.11 | X-H torsion

> <Gold.Protein.ActiveResidues>
 VAL166  LYS551  ARG553  GLY616  TRP617  ASP618  TYR619  PRO620  LYS621  CYS622 
 ASP623  PHE694  ASN695  SER759  ASP760  ASP761  ALA762  ILE779  LEU786  VAL792 
 PHE793  MET794  SER795  GLU796  ALA797  LYS798  CYS799  TRP800  GLU811  SER814 

> <Gold.Protein.RotatedAtoms>
  150.6959  134.1686  159.4203 H   0  0  0  0  0  0  0  0  0  0  0  0  # atno 6907 bound_to 6896
  151.9665  135.0096  160.0560 H   0  0  0  0  0  0  0  0  0  0  0  0  # atno 6908 bound_to 6896
  152.1880  133.4718  159.5030 H   0  0  0  0  0  0  0  0  0  0  0  0  # atno 6909 bound_to 6896
  144.7238  140.2619  143.6263 H   0  0  0  0  0  0  0  0  0  0  0  0  # atno 7974 bound_to 7965
  155.6123  140.3495  155.4626 H   0  0  0  0  0  0  0  0  0  0  0  0  # atno 8008 bound_to 7997
  156.0144  140.1240  157.0445 H   0  0  0  0  0  0  0  0  0  0  0  0  # atno 8009 bound_to 7997
  154.4292  140.1075  156.5862 H   0  0  0  0  0  0  0  0  0  0  0  0  # atno 8010 bound_to 7997
  139.4978  144.3769  151.9664 H   0  0  0  0  0  0  0  0  0  0  0  0  # atno 10167 bound_to 10162
  157.1865  131.0645  151.2103 H   0  0  0  0  0  0  0  0  0  0  0  0  # atno 10718 bound_to 10713
  153.0584  135.6547  154.0522 H   0  0  0  0  0  0  0  0  0  0  0  0  # atno 10763 bound_to 10752
  154.0195  135.2921  155.3384 H   0  0  0  0  0  0  0  0  0  0  0  0  # atno 10764 bound_to 10752
  154.6910  135.5282  153.8460 H   0  0  0  0  0  0  0  0  0  0  0  0  # atno 10765 bound_to 10752
  141.1308  133.6626  156.5308 H   0  0  0  0  0  0  0  0  0  0  0  0  # atno 11005 bound_to 11000
  145.8127  139.2010  143.1983 LP  0  0  0  0  0  0  0  0  0  0  0  0  # atno 17320 bound_to 7965
  146.0582  140.7999  142.9748 LP  0  0  0  0  0  0  0  0  0  0  0  0  # atno 17321 bound_to 7965
  140.3206  144.3433  150.6010 LP  0  0  0  0  0  0  0  0  0  0  0  0  # atno 17342 bound_to 10162
  140.5726  143.2179  151.7572 LP  0  0  0  0  0  0  0  0  0  0  0  0  # atno 17343 bound_to 10162
  157.3902  130.7278  149.6692 LP  0  0  0  0  0  0  0  0  0  0  0  0  # atno 17370 bound_to 10713
  155.9717  130.4148  150.4153 LP  0  0  0  0  0  0  0  0  0  0  0  0  # atno 17371 bound_to 10713
  140.4217  134.7181  157.4893 LP  0  0  0  0  0  0  0  0  0  0  0  0  # atno 17394 bound_to 11000
  140.0355  134.6343  155.9049 LP  0  0  0  0  0  0  0  0  0  0  0  0  # atno 17395 bound_to 11000

$$$$
