AV-unprocessed.smi:1325|AV-procd|sdf|5472|dock5
  -GOLD-   22720 5 43D 1   1.00000     0.00000
 Structure written by MMmdl.
 35 36  0  0  0  0  0  0  0  0  1 V2000
  153.8695  136.5588  162.6902 C   0  0  0  0  0  0  0  0  0  0  0  0
  153.8886  137.0262  161.2598 C   0  0  0  0  0  0  0  0  0  0  0  0
  153.3607  138.1811  161.0195 N   0  0  0  0  0  0  0  0  0  0  0  0
  153.3223  138.7034  159.7409 N   0  0  0  0  0  0  0  0  0  0  0  0
  152.6684  140.0152  159.6516 C   0  0  0  0  0  0  0  0  0  0  0  0
  153.5280  141.1361  160.2764 C   0  0  2  0  0  0  0  0  0  0  0  0
  153.7110  140.8658  161.6522 O   0  0  0  0  0  0  0  0  0  0  0  0
  152.8833  142.4980  160.0674 C   0  0  0  0  0  0  0  0  0  0  0  0
  152.8028  143.0485  158.7701 C   0  0  0  0  0  0  0  0  0  0  0  0
  152.2008  144.3059  158.5680 C   0  0  0  0  0  0  0  0  0  0  0  0
  151.6738  145.0193  159.6615 C   0  0  0  0  0  0  0  0  0  0  0  0
  151.7477  144.4741  160.9576 C   0  0  0  0  0  0  0  0  0  0  0  0
  152.3497  143.2170  161.1601 C   0  0  0  0  0  0  0  0  0  0  0  0
  153.8199  138.0824  158.6337 C   0  0  0  0  0  0  0  0  0  0  0  0
  153.7644  138.5822  157.5092 O   0  0  0  0  0  0  0  0  0  0  0  0
  154.4178  136.7749  158.9134 C   0  0  0  0  0  0  0  0  0  0  0  0
  154.9500  136.0889  157.7805 C   0  0  0  0  0  0  0  0  0  0  0  0
  155.3616  135.5278  156.8554 N   0  0  0  0  0  0  0  0  0  0  0  0
  154.4611  136.2511  160.1641 C   0  0  0  0  0  0  0  0  0  0  0  0
  155.0693  134.8981  160.5068 C   0  0  0  0  0  0  0  0  0  0  0  0
  154.8826  136.3932  163.0575 H   0  0  0  0  0  0  0  0  0  0  0  0
  153.3173  135.6236  162.7841 H   0  0  0  0  0  0  0  0  0  0  0  0
  153.3951  137.2871  163.3498 H   0  0  0  0  0  0  0  0  0  0  0  0
  152.5251  140.2313  158.5909 H   0  0  0  0  0  0  0  0  0  0  0  0
  151.6607  140.0109  160.0714 H   0  0  0  0  0  0  0  0  0  0  0  0
  154.5138  141.1494  159.8094 H   0  0  0  0  0  0  0  0  0  0  0  0
  154.4639  141.3499  161.9550 H   0  0  0  0  0  0  0  0  0  0  0  0
  153.2012  142.5083  157.9238 H   0  0  0  0  0  0  0  0  0  0  0  0
  152.1429  144.7227  157.5733 H   0  0  0  0  0  0  0  0  0  0  0  0
  151.2119  145.9831  159.5062 H   0  0  0  0  0  0  0  0  0  0  0  0
  151.3417  145.0196  161.7967 H   0  0  0  0  0  0  0  0  0  0  0  0
  152.3990  142.8050  162.1575 H   0  0  0  0  0  0  0  0  0  0  0  0
  155.4751  134.3936  159.6305 H   0  0  0  0  0  0  0  0  0  0  0  0
  154.3173  134.2405  160.9441 H   0  0  0  0  0  0  0  0  0  0  0  0
  155.8833  135.0142  161.2232 H   0  0  0  0  0  0  0  0  0  0  0  0
  1  2  1  0  0  0  0
  1 21  1  0  0  0  0
  1 22  1  0  0  0  0
  1 23  1  0  0  0  0
  2 19  1  0  0  0  0
  2  3  2  0  0  0  0
  3  4  1  0  0  0  0
  4  5  1  0  0  0  0
  4 14  1  0  0  0  0
  5  6  1  0  0  0  0
  5 24  1  0  0  0  0
  5 25  1  0  0  0  0
  6  7  1  0  0  0  0
  6  8  1  0  0  0  0
  6 26  1  0  0  0  0
  7 27  1  0  0  0  0
  8 13  1  0  0  0  0
  8  9  2  0  0  0  0
  9 10  1  0  0  0  0
  9 28  1  0  0  0  0
 10 11  2  0  0  0  0
 10 29  1  0  0  0  0
 11 12  1  0  0  0  0
 11 30  1  0  0  0  0
 12 13  2  0  0  0  0
 12 31  1  0  0  0  0
 13 32  1  0  0  0  0
 14 15  2  0  0  0  0
 14 16  1  0  0  0  0
 16 17  1  0  0  0  0
 16 19  2  0  0  0  0
 17 18  3  0  0  0  0
 19 20  1  0  0  0  0
 20 33  1  0  0  0  0
 20 34  1  0  0  0  0
 20 35  1  0  0  0  0
M  END
> <s_m_source_file>
AV-unprocessed.smi

> <i_m_source_file_index>
1325

> <i_lp_mmshare_version>
43012

> <i_f3d_flags>
0

> <s_epik_input>
TiNDYyhjMVtDSDNdKWMoPU8pbihuYzFbQ0gzXSlbQ0gyXVtDQEhdKFtPSF0pYzJbY0hdW2NIXVtjSF1bY0hdW2NIXTI=

> <s_epik_cmdline>
J2VwaWtfcHl0aG9uJywgJy1waCcsICc3LjAnLCAnLXRuJywgJzgnLCAnLW1hJywgJzIwMCcsICctbWV0YWxfYmluZGluZycsICctaW1hZScsICc8aW5maWxlLm1hZT4nLCAnLW9tYWUnLCAnPG91dGZpbGUubWFlPic=

> <r_lp_tautomer_probability>
1

> <r_epik_Ionization_Penalty>
7.1854e-08

> <r_epik_Ionization_Penalty_Charging>
1.40848e-10

> <r_epik_Ionization_Penalty_Neutral>
7.17131e-08

> <r_epik_State_Penalty>
-0

> <r_epik_Charging_Adjusted_Penalty>
1.40848e-10

> <i_epik_Tot_Q>
0

> <i_epik_Tot_abs_Q>
0

> <r_epik_Metal_State_Penalty>
-0

> <b_epik_Metal_Only>
0

> <s_lp_Force_Field>
OPLS_2005

> <r_lp_Energy>
27.9871

> <b_lp_Chiralities_Consistent>
1

> <s_lp_Variant>
AV-unprocessed.smi:1325-1

> <Gold.Version>
5.8.1

> <Gold.Id.Protein>
6NUR|6NUR_protein|mol2

> <Gold.PLP.Fitness>
47.7626

> <Gold.PLP.PLP>
-42.3326

> <Gold.PLP.part.hbond>
-2.0000

> <Gold.PLP.part.metal>
0.0000

> <Gold.PLP.part.buried>
-5.2931

> <Gold.PLP.part.nonpolar>
-35.6189

> <Gold.PLP.part.repulsive>
0.0000

> <Gold.PLP.ligand.clash>
0.0000

> <Gold.PLP.ligand.torsion>
0.2880

> <Gold.PLP.Chemscore.Hbond>
2.0000

> <Gold.PLP.Chemscore.CHOScore>
0.0000

> <Gold.PLP.Chemscore.Metal>
0.0000

> <Gold.Chemscore.Hbonds>
donor molecule, donor type, donor heavy atom, donor atom, acceptor molecule, acceptor atom, score
      P1  H  7997  8010       L1    15  1.00
      P1  H 10752 10764       L1    18  1.00

> <Gold.PLP.Chemscore.Internal.Correction>
0.0060

> <Gold.Rescore>
     Score         DG    S(hbond)    S(metal)    S(lipo)     H(rot)  DE(clash)    DE(int)     intcor
     20.83     -21.19       1.99        0.00     119.09       1.90       0.20       0.16       ----

> <Gold.Chemscore.Fitness>
20.8261

> <Gold.Chemscore.DG>
-21.1863

> <Gold.Chemscore.ZeroCoef>
-5.4800

> <Gold.Chemscore.Hbond>
1.9907

> <Gold.Chemscore.Metal>
0.0000

> <Gold.Chemscore.Lipo>
119.0896

> <Gold.Chemscore.Internal_Hbond>
0.0000

> <Gold.Chemscore.DEClash>
0.1984

> <Gold.Chemscore.DEInternal>
0.1618

> <Gold.Chemscore.Rot>
1.9047

> <Gold.Chemscore.Internal.Correction>
   9.000000E+99

> <Gold.Chemscore.Hbonds>
donor molecule, donor type, donor heavy atom, donor atom, acceptor molecule, acceptor atom, score
      P1  H  7997  8010       L1    15  0.95
      P1  H 10752 10764       L1    18  1.00

> <Gold.Chemscore.Hbond.Weighted>
-6.6489

> <Gold.Chemscore.Metal.Weighted>
-0.0000

> <Gold.Chemscore.Lipo.Weighted>
-13.9335

> <Gold.Chemscore.Internal_Hbond.Weighted>
0.0000

> <Gold.Chemscore.DEClash.Weighted>
0.1984

> <Gold.Chemscore.DEInternal.Weighted>
0.1618

> <Gold.Chemscore.Rot.Weighted>
4.8760

> <Gold.Chemscore.Internal.Correction.Weighted>
   9.000000E+99

> <Gold.Protein.RotatedTorsions>
[ 6907 6896 6895 6894 ] final   -9.98 input  -60.11 | X-H torsion
[ 7974 7965 7964 7962 ] final  131.63 input  175.53 | X-H torsion
[ 8008 7997 7996 7995 ] final   30.50 input   59.86 | X-H torsion
[ 10167 10162 10161 10158 ] final -173.31 input  -65.29 | X-H torsion
[ 10718 10713 10712 10709 ] final  151.50 input   66.30 | X-H torsion
[ 10763 10752 10751 10750 ] final   56.67 input  -60.55 | X-H torsion
[ 11005 11000 10999 10996 ] final  171.97 input  -57.11 | X-H torsion

> <Gold.Protein.ActiveResidues>
 VAL166  LYS551  ARG553  GLY616  TRP617  ASP618  TYR619  PRO620  LYS621  CYS622 
 ASP623  PHE694  ASN695  SER759  ASP760  ASP761  ALA762  ILE779  LEU786  VAL792 
 PHE793  MET794  SER795  GLU796  ALA797  LYS798  CYS799  TRP800  GLU811  SER814 

> <Gold.Protein.RotatedAtoms>
  151.4091  135.0982  159.9579 H   0  0  0  0  0  0  0  0  0  0  0  0  # atno 6907 bound_to 6896
  152.5026  133.8814  159.7359 H   0  0  0  0  0  0  0  0  0  0  0  0  # atno 6908 bound_to 6896
  150.9305  133.6715  159.2840 H   0  0  0  0  0  0  0  0  0  0  0  0  # atno 6909 bound_to 6896
  145.0053  139.4272  143.5272 H   0  0  0  0  0  0  0  0  0  0  0  0  # atno 7974 bound_to 7965
  155.0914  140.3220  155.4573 H   0  0  0  0  0  0  0  0  0  0  0  0  # atno 8008 bound_to 7997
  156.2741  140.2077  156.5987 H   0  0  0  0  0  0  0  0  0  0  0  0  # atno 8009 bound_to 7997
  154.6900  140.0517  157.0341 H   0  0  0  0  0  0  0  0  0  0  0  0  # atno 8010 bound_to 7997
  139.5695  144.1674  152.1363 H   0  0  0  0  0  0  0  0  0  0  0  0  # atno 10167 bound_to 10162
  157.2699  131.0815  151.1607 H   0  0  0  0  0  0  0  0  0  0  0  0  # atno 10718 bound_to 10713
  152.9836  135.5668  154.5267 H   0  0  0  0  0  0  0  0  0  0  0  0  # atno 10763 bound_to 10752
  154.4746  135.2786  155.1619 H   0  0  0  0  0  0  0  0  0  0  0  0  # atno 10764 bound_to 10752
  154.3153  135.6280  153.5537 H   0  0  0  0  0  0  0  0  0  0  0  0  # atno 10765 bound_to 10752
  140.3247  134.7408  157.4090 H   0  0  0  0  0  0  0  0  0  0  0  0  # atno 11005 bound_to 11000
  146.3460  139.9466  142.8734 LP  0  0  0  0  0  0  0  0  0  0  0  0  # atno 17320 bound_to 7965
  145.2097  140.9890  143.4108 LP  0  0  0  0  0  0  0  0  0  0  0  0  # atno 17321 bound_to 7965
  140.1204  144.5378  150.6866 LP  0  0  0  0  0  0  0  0  0  0  0  0  # atno 17342 bound_to 10162
  140.6980  143.2416  151.4947 LP  0  0  0  0  0  0  0  0  0  0  0  0  # atno 17343 bound_to 10162
  157.3082  130.6877  149.6201 LP  0  0  0  0  0  0  0  0  0  0  0  0  # atno 17370 bound_to 10713
  155.9663  130.4371  150.5163 LP  0  0  0  0  0  0  0  0  0  0  0  0  # atno 17371 bound_to 10713
  140.0912  134.5599  155.8443 LP  0  0  0  0  0  0  0  0  0  0  0  0  # atno 17394 bound_to 11000
  141.2078  133.6667  156.6330 LP  0  0  0  0  0  0  0  0  0  0  0  0  # atno 17395 bound_to 11000

$$$$
