AV-unprocessed.smi:1565|AV-procd|sdf|6301|dock7
  -GOLD-   22720 6503D 1   1.00000     0.00000
 Structure written by MMmdl.
 39 40  0  0  0  0  0  0  0  0  2 V2000
  149.6921  141.9732  157.4085 C   0  0  0  0  0  0  0  0  0  0  0  0
  151.0495  142.4512  157.9348 C   0  0  2  0  0  0  0  0  0  0  0  0
  151.7842  141.3495  158.7215 C   0  0  0  0  0  0  0  0  0  0  0  0
  153.0145  141.8740  159.3072 N   0  0  0  0  0  0  0  0  0  0  0  0
  153.9006  140.9015  159.8187 C   0  0  0  0  0  0  0  0  0  0  0  0
  154.3547  140.9897  161.1553 C   0  0  0  0  0  0  0  0  0  0  0  0
  155.2493  140.0179  161.6433 C   0  0  0  0  0  0  0  0  0  0  0  0
  155.6646  138.9711  160.7892 C   0  0  0  0  0  0  0  0  0  0  0  0
  156.6509  137.9227  161.2287 C   0  0  0  0  0  0  0  0  0  0  0  0
  157.3923  137.4300  160.3711 O   0  0  0  0  0  0  0  0  0  0  0  0
  156.5424  137.6280  162.5553 N   0  5  0  0  0  0  0  0  0  0  0  0
  155.9217  136.4090  163.0799 C   0  0  0  0  0  0  0  0  0  0  0  0
  154.5613  136.7093  163.7414 C   0  0  0  0  0  0  0  0  0  0  0  0
  154.7377  137.6167  164.7018 F   0  0  0  0  0  0  0  0  0  0  0  0
  153.7010  137.2028  162.8493 F   0  0  0  0  0  0  0  0  0  0  0  0
  154.0399  135.6122  164.2925 F   0  0  0  0  0  0  0  0  0  0  0  0
  155.1585  138.9697  159.4716 C   0  0  0  0  0  0  0  0  0  0  0  0
  154.2991  139.8982  158.9990 N   0  0  0  0  0  0  0  0  0  0  0  0
  152.8052  143.0881  160.0930 C   0  0  0  0  0  0  0  0  0  0  0  0
  152.0441  144.1402  159.2653 C   0  0  2  0  0  0  0  0  0  0  0  0
  151.7005  145.3839  160.0917 C   0  0  0  0  0  0  0  0  0  0  0  0
  150.8282  143.5699  158.7892 O   0  0  0  0  0  0  0  0  0  0  0  0
  149.8089  141.1211  156.7380 H   0  0  0  0  0  0  0  0  0  0  0  0
  149.1883  142.7655  156.8544 H   0  0  0  0  0  0  0  0  0  0  0  0
  149.0371  141.6692  158.2255 H   0  0  0  0  0  0  0  0  0  0  0  0
  151.6595  142.7645  157.0855 H   0  0  0  0  0  0  0  0  0  0  0  0
  151.1488  140.9732  159.5243 H   0  0  0  0  0  0  0  0  0  0  0  0
  151.9827  140.5105  158.0559 H   0  0  0  0  0  0  0  0  0  0  0  0
  154.0244  141.7813  161.8109 H   0  0  0  0  0  0  0  0  0  0  0  0
  155.6085  140.0885  162.6597 H   0  0  0  0  0  0  0  0  0  0  0  0
  155.7843  135.6518  162.3064 H   0  0  0  0  0  0  0  0  0  0  0  0
  156.5715  135.9404  163.8199 H   0  0  0  0  0  0  0  0  0  0  0  0
  155.4466  138.2016  158.7684 H   0  0  0  0  0  0  0  0  0  0  0  0
  152.2434  142.8404  160.9948 H   0  0  0  0  0  0  0  0  0  0  0  0
  153.7651  143.4994  160.4083 H   0  0  0  0  0  0  0  0  0  0  0  0
  152.6525  144.4480  158.4129 H   0  0  0  0  0  0  0  0  0  0  0  0
  152.6026  145.8644  160.4713 H   0  0  0  0  0  0  0  0  0  0  0  0
  151.0717  145.1296  160.9453 H   0  0  0  0  0  0  0  0  0  0  0  0
  151.1629  146.1160  159.4886 H   0  0  0  0  0  0  0  0  0  0  0  0
  1  2  1  0  0  0  0
  1 23  1  0  0  0  0
  1 24  1  0  0  0  0
  1 25  1  0  0  0  0
  2 22  1  0  0  0  0
  2  3  1  0  0  0  0
  2 26  1  0  0  0  0
  3  4  1  0  0  0  0
  3 27  1  0  0  0  0
  3 28  1  0  0  0  0
  4  5  1  0  0  0  0
  4 19  1  0  0  0  0
  5 18  1  0  0  0  0
  5  6  2  0  0  0  0
  6  7  1  0  0  0  0
  6 29  1  0  0  0  0
  7  8  2  0  0  0  0
  7 30  1  0  0  0  0
  8  9  1  0  0  0  0
  8 17  1  0  0  0  0
  9 10  2  0  0  0  0
  9 11  1  0  0  0  0
 11 12  1  0  0  0  0
 12 13  1  0  0  0  0
 12 31  1  0  0  0  0
 12 32  1  0  0  0  0
 13 14  1  0  0  0  0
 13 15  1  0  0  0  0
 13 16  1  0  0  0  0
 17 18  2  0  0  0  0
 17 33  1  0  0  0  0
 19 20  1  0  0  0  0
 19 34  1  0  0  0  0
 19 35  1  0  0  0  0
 20 21  1  0  0  0  0
 20 22  1  0  0  0  0
 20 36  1  0  0  0  0
 21 37  1  0  0  0  0
 21 38  1  0  0  0  0
 21 39  1  0  0  0  0
M  CHG  1  11  -1
M  END
> <s_m_source_file>
AV-unprocessed.smi

> <i_m_source_file_index>
1565

> <i_lp_mmshare_version>
43012

> <i_f3d_flags>
0

> <s_epik_input>
W0NIM11bQ0BASF0xW0NIMl1OKFtDSDJdW0NASF0oTzEpW0NIM10pYzJbY0hdW2NIXWMoW2NIXW4yKUMoPU8pW05IXVtDSDJdQyhGKShGKUY=

> <s_epik_cmdline>
J2VwaWtfcHl0aG9uJywgJy1waCcsICc3LjAnLCAnLXRuJywgJzgnLCAnLW1hJywgJzIwMCcsICctbWV0YWxfYmluZGluZycsICctaW1hZScsICc8aW5maWxlLm1hZT4nLCAnLW9tYWUnLCAnPG91dGZpbGUubWFlPic=

> <r_lp_tautomer_probability>
1

> <r_epik_Ionization_Penalty>
6.78525

> <r_epik_Ionization_Penalty_Charging>
6.78469

> <r_epik_Ionization_Penalty_Neutral>
0.000559052

> <r_epik_State_Penalty>
6.78469

> <r_epik_Charging_Adjusted_Penalty>
13.5694

> <i_epik_Tot_Q>
-1

> <i_epik_Tot_abs_Q>
1

> <r_epik_Metal_State_Penalty>
2.70441

> <b_epik_Metal_Only>
1

> <s_lp_Force_Field>
OPLS_2005

> <r_lp_Energy>
25.7162

> <b_lp_Chiralities_Consistent>
1

> <s_lp_Variant>
AV-unprocessed.smi:1565-5

> <Gold.Version>
5.8.1

> <Gold.Id.Protein>
6NUR|6NUR_protein|mol2

> <Gold.PLP.Fitness>
43.6435

> <Gold.PLP.PLP>
-42.9693

> <Gold.PLP.part.hbond>
-1.0000

> <Gold.PLP.part.metal>
0.0000

> <Gold.PLP.part.buried>
-5.1725

> <Gold.PLP.part.nonpolar>
-37.2696

> <Gold.PLP.part.repulsive>
0.1481

> <Gold.PLP.ligand.clash>
0.0000

> <Gold.PLP.ligand.torsion>
1.3231

> <Gold.PLP.Chemscore.Hbond>
1.0000

> <Gold.PLP.Chemscore.CHOScore>
0.0000

> <Gold.PLP.Chemscore.Metal>
0.0000

> <Gold.Chemscore.Hbonds>
donor molecule, donor type, donor heavy atom, donor atom, acceptor molecule, acceptor atom, score
      P1  H  7997  8008       L1    18  1.00

> <Gold.PLP.Chemscore.Internal.Correction>
0.3204

> <Gold.Rescore>
     Score         DG    S(hbond)    S(metal)    S(lipo)     H(rot)  DE(clash)    DE(int)     intcor
     15.21     -16.43       0.87        0.00      96.99       1.29       0.02       1.20       ----

> <Gold.Chemscore.Fitness>
15.2122

> <Gold.Chemscore.DG>
-16.4265

> <Gold.Chemscore.ZeroCoef>
-5.4800

> <Gold.Chemscore.Hbond>
0.8702

> <Gold.Chemscore.Metal>
0.0000

> <Gold.Chemscore.Lipo>
96.9911

> <Gold.Chemscore.Internal_Hbond>
0.0000

> <Gold.Chemscore.DEClash>
0.0155

> <Gold.Chemscore.DEInternal>
1.1988

> <Gold.Chemscore.Rot>
1.2921

> <Gold.Chemscore.Internal.Correction>
   9.000000E+99

> <Gold.Chemscore.Hbonds>
donor molecule, donor type, donor heavy atom, donor atom, acceptor molecule, acceptor atom, score
      P1  H  7997  8008       L1    18  0.29

> <Gold.Chemscore.Hbond.Weighted>
-2.9063

> <Gold.Chemscore.Metal.Weighted>
-0.0000

> <Gold.Chemscore.Lipo.Weighted>
-11.3480

> <Gold.Chemscore.Internal_Hbond.Weighted>
0.0000

> <Gold.Chemscore.DEClash.Weighted>
0.0155

> <Gold.Chemscore.DEInternal.Weighted>
1.1988

> <Gold.Chemscore.Rot.Weighted>
3.3078

> <Gold.Chemscore.Internal.Correction.Weighted>
   9.000000E+99

> <Gold.Protein.RotatedTorsions>
[ 6907 6896 6895 6894 ] final  -43.37 input  -60.11 | X-H torsion
[ 7974 7965 7964 7962 ] final  -88.55 input  175.53 | X-H torsion
[ 8008 7997 7996 7995 ] final -103.52 input   59.86 | X-H torsion
[ 10167 10162 10161 10158 ] final   20.07 input  -65.29 | X-H torsion
[ 10718 10713 10712 10709 ] final  -17.92 input   66.30 | X-H torsion
[ 10763 10752 10751 10750 ] final   -3.23 input  -60.55 | X-H torsion
[ 11005 11000 10999 10996 ] final  -43.24 input  -57.11 | X-H torsion

> <Gold.Protein.ActiveResidues>
 VAL166  LYS551  ARG553  GLY616  TRP617  ASP618  TYR619  PRO620  LYS621  CYS622 
 ASP623  PHE694  ASN695  SER759  ASP760  ASP761  ALA762  ILE779  LEU786  VAL792 
 PHE793  MET794  SER795  GLU796  ALA797  LYS798  CYS799  TRP800  GLU811  SER814 

> <Gold.Protein.RotatedAtoms>
  150.9447  134.8853  159.7634 H   0  0  0  0  0  0  0  0  0  0  0  0  # atno 6907 bound_to 6896
  152.5095  134.3891  159.9388 H   0  0  0  0  0  0  0  0  0  0  0  0  # atno 6908 bound_to 6896
  151.3910  133.3748  159.2756 H   0  0  0  0  0  0  0  0  0  0  0  0  # atno 6909 bound_to 6896
  145.4516  140.9560  143.2019 H   0  0  0  0  0  0  0  0  0  0  0  0  # atno 7974 bound_to 7965
  154.8720  140.0422  157.1730 H   0  0  0  0  0  0  0  0  0  0  0  0  # atno 8008 bound_to 7997
  154.8728  140.2961  155.5450 H   0  0  0  0  0  0  0  0  0  0  0  0  # atno 8009 bound_to 7997
  156.2999  140.2426  156.3720 H   0  0  0  0  0  0  0  0  0  0  0  0  # atno 8010 bound_to 7997
  140.5531  143.9473  150.6591 H   0  0  0  0  0  0  0  0  0  0  0  0  # atno 10167 bound_to 10162
  156.5667  130.4739  149.6381 H   0  0  0  0  0  0  0  0  0  0  0  0  # atno 10718 bound_to 10713
  153.3686  135.6993  153.6655 H   0  0  0  0  0  0  0  0  0  0  0  0  # atno 10763 bound_to 10752
  153.5315  135.3591  155.2678 H   0  0  0  0  0  0  0  0  0  0  0  0  # atno 10764 bound_to 10752
  154.8678  135.4182  154.2959 H   0  0  0  0  0  0  0  0  0  0  0  0  # atno 10765 bound_to 10752
  141.0370  133.6795  156.2706 H   0  0  0  0  0  0  0  0  0  0  0  0  # atno 11005 bound_to 11000
  144.8058  139.6054  143.7051 LP  0  0  0  0  0  0  0  0  0  0  0  0  # atno 17320 bound_to 7965
  146.2501  139.6181  142.9433 LP  0  0  0  0  0  0  0  0  0  0  0  0  # atno 17321 bound_to 7965
  140.2904  143.3328  152.1067 LP  0  0  0  0  0  0  0  0  0  0  0  0  # atno 17342 bound_to 10162
  139.5036  144.6758  151.6131 LP  0  0  0  0  0  0  0  0  0  0  0  0  # atno 17343 bound_to 10162
  156.2750  130.7039  151.1847 LP  0  0  0  0  0  0  0  0  0  0  0  0  # atno 17370 bound_to 10713
  157.7357  131.0570  150.5456 LP  0  0  0  0  0  0  0  0  0  0  0  0  # atno 17371 bound_to 10713
  140.6303  134.5270  157.5559 LP  0  0  0  0  0  0  0  0  0  0  0  0  # atno 17394 bound_to 11000
  139.9248  134.8077  156.1101 LP  0  0  0  0  0  0  0  0  0  0  0  0  # atno 17395 bound_to 11000

$$$$
