AV-unprocessed.smi:3222|AV-procd|sdf|12304|dock4
  -GOLD-   2272018143D 1   1.00000     0.00000
 Structure written by MMmdl.
 41 42  0  0  0  0  0  0  0  0  2 V2000
  153.4471  139.5636  160.1523 C   0  0  0  0  0  0  0  0  0  0  0  0
  152.9449  140.9171  159.6051 C   0  0  1  0  0  0  0  0  0  0  0  0
  151.4645  140.9318  159.5422 N   0  3  0  0  0  0  0  0  0  0  0  0
  150.8787  140.5824  158.2315 C   0  0  0  0  0  0  0  0  0  0  0  0
  150.1598  141.7922  157.6145 C   0  0  0  0  0  0  0  0  0  0  0  0
  149.4836  141.4371  156.3698 N   0  0  0  0  0  0  0  0  0  0  0  0
  148.0909  141.7904  156.1515 C   0  0  0  0  0  0  0  0  0  0  0  0
  147.8039  141.4056  154.6925 C   0  0  0  0  0  0  0  0  0  0  0  0
  148.9933  140.5502  154.2413 C   0  0  0  0  0  0  0  0  0  0  0  0
  150.0096  140.7431  155.3538 C   0  0  0  0  0  0  0  0  0  0  0  0
  151.1573  140.3043  155.2951 O   0  0  0  0  0  0  0  0  0  0  0  0
  153.4440  142.1269  160.4415 C   0  0  2  0  0  0  0  0  0  0  0  0
  153.2624  141.9137  161.9570 C   0  0  0  0  0  0  0  0  0  0  0  0
  152.8143  143.3785  160.0381 N   0  0  0  0  0  0  0  0  0  0  0  0
  152.1312  144.2838  160.8244 C   0  0  0  0  0  0  0  0  0  0  0  0
  151.7159  145.2994  160.0116 C   0  0  0  0  0  0  0  0  0  0  0  0
  152.1937  144.9212  158.7263 C   0  0  0  0  0  0  0  0  0  0  0  0
  152.8474  143.7710  158.7440 N   0  0  0  0  0  0  0  0  0  0  0  0
  154.5355  139.5052  160.1521 H   0  0  0  0  0  0  0  0  0  0  0  0
  153.0969  138.7261  159.5500 H   0  0  0  0  0  0  0  0  0  0  0  0
  153.1082  139.4014  161.1760 H   0  0  0  0  0  0  0  0  0  0  0  0
  153.3257  141.0348  158.5891 H   0  0  0  0  0  0  0  0  0  0  0  0
  151.0982  140.3104  160.2489 H   0  0  0  0  0  0  0  0  0  0  0  0
  151.6688  140.2437  157.5600 H   0  0  0  0  0  0  0  0  0  0  0  0
  150.1802  139.7547  158.3518 H   0  0  0  0  0  0  0  0  0  0  0  0
  149.4283  142.1957  158.3168 H   0  0  0  0  0  0  0  0  0  0  0  0
  150.8749  142.5930  157.4212 H   0  0  0  0  0  0  0  0  0  0  0  0
  147.4608  141.2223  156.8373 H   0  0  0  0  0  0  0  0  0  0  0  0
  147.9201  142.8529  156.3294 H   0  0  0  0  0  0  0  0  0  0  0  0
  146.8594  140.8689  154.5970 H   0  0  0  0  0  0  0  0  0  0  0  0
  147.7345  142.3014  154.0741 H   0  0  0  0  0  0  0  0  0  0  0  0
  148.7235  139.4958  154.1725 H   0  0  0  0  0  0  0  0  0  0  0  0
  149.3915  140.8743  153.2791 H   0  0  0  0  0  0  0  0  0  0  0  0
  154.5126  142.2441  160.2531 H   0  0  0  0  0  0  0  0  0  0  0  0
  153.8268  141.0521  162.3132 H   0  0  0  0  0  0  0  0  0  0  0  0
  152.2153  141.7536  162.2163 H   0  0  0  0  0  0  0  0  0  0  0  0
  153.6123  142.7815  162.5173 H   0  0  0  0  0  0  0  0  0  0  0  0
  151.9991  144.1336  161.8858 H   0  0  0  0  0  0  0  0  0  0  0  0
  151.1545  146.1782  160.2923 H   0  0  0  0  0  0  0  0  0  0  0  0
  152.0847  145.4441  157.7875 H   0  0  0  0  0  0  0  0  0  0  0  0
  151.1653  141.8721  159.7581 H   0  0  0  0  0  0  0  0  0  0  0  0
  1  2  1  0  0  0  0
  1 19  1  0  0  0  0
  1 20  1  0  0  0  0
  1 21  1  0  0  0  0
  2  3  1  0  0  0  0
  2 12  1  0  0  0  0
  2 22  1  0  0  0  0
  3  4  1  0  0  0  0
  3 23  1  0  0  0  0
  3 41  1  0  0  0  0
  4  5  1  0  0  0  0
  4 24  1  0  0  0  0
  4 25  1  0  0  0  0
  5  6  1  0  0  0  0
  5 26  1  0  0  0  0
  5 27  1  0  0  0  0
  6 10  1  0  0  0  0
  6  7  1  0  0  0  0
  7  8  1  0  0  0  0
  7 28  1  0  0  0  0
  7 29  1  0  0  0  0
  8  9  1  0  0  0  0
  8 30  1  0  0  0  0
  8 31  1  0  0  0  0
  9 10  1  0  0  0  0
  9 32  1  0  0  0  0
  9 33  1  0  0  0  0
 10 11  2  0  0  0  0
 12 13  1  0  0  0  0
 12 14  1  0  0  0  0
 12 34  1  0  0  0  0
 13 35  1  0  0  0  0
 13 36  1  0  0  0  0
 13 37  1  0  0  0  0
 14 18  1  0  0  0  0
 14 15  1  0  0  0  0
 15 16  2  0  0  0  0
 15 38  1  0  0  0  0
 16 17  1  0  0  0  0
 16 39  1  0  0  0  0
 17 18  2  0  0  0  0
 17 40  1  0  0  0  0
M  CHG  1   3   1
M  END
> <s_m_source_file>
AV-unprocessed.smi

> <i_m_source_file_index>
3222

> <i_lp_mmshare_version>
43012

> <i_f3d_flags>
0

> <s_epik_input>
bjFbY0hdW2NIXVtjSF1uMVtDQEBIXShbQ0gzXSlbQ0BIXShbQ0gzXSlbTkhdW0NIMl1bQ0gyXU4yW0NIMl1bQ0gyXVtDSDJdQzI9Tw==

> <s_epik_cmdline>
J2VwaWtfcHl0aG9uJywgJy1waCcsICc3LjAnLCAnLXRuJywgJzgnLCAnLW1hJywgJzIwMCcsICctbWV0YWxfYmluZGluZycsICctaW1hZScsICc8aW5maWxlLm1hZT4nLCAnLW9tYWUnLCAnPG91dGZpbGUubWFlPic=

> <r_lp_tautomer_probability>
1

> <r_epik_Ionization_Penalty>
0.0064019

> <r_epik_Ionization_Penalty_Charging>
0.00639164

> <r_epik_Ionization_Penalty_Neutral>
1.02567e-05

> <r_epik_State_Penalty>
0.00472531

> <r_epik_Charging_Adjusted_Penalty>
0.011117

> <i_epik_Tot_Q>
1

> <i_epik_Tot_abs_Q>
1

> <r_epik_Metal_State_Penalty>
-0

> <b_epik_Metal_Only>
0

> <s_lp_Force_Field>
OPLS_2005

> <r_lp_Energy>
24.0012

> <b_lp_Chiralities_Consistent>
1

> <s_lp_Variant>
AV-unprocessed.smi:3222-2

> <Gold.Version>
5.8.1

> <Gold.Id.Protein>
6NUR|6NUR_protein|mol2

> <Gold.PLP.Fitness>
46.0686

> <Gold.PLP.PLP>
-45.3664

> <Gold.PLP.part.hbond>
-1.0000

> <Gold.PLP.part.metal>
0.0000

> <Gold.PLP.part.buried>
-5.1354

> <Gold.PLP.part.nonpolar>
-39.1570

> <Gold.PLP.part.repulsive>
0.2211

> <Gold.PLP.ligand.clash>
0.0000

> <Gold.PLP.ligand.torsion>
1.2039

> <Gold.PLP.Chemscore.Hbond>
0.9920

> <Gold.PLP.Chemscore.CHOScore>
0.0000

> <Gold.PLP.Chemscore.Metal>
0.0000

> <Gold.Chemscore.Hbonds>
donor molecule, donor type, donor heavy atom, donor atom, acceptor molecule, acceptor atom, score
      P1  H  7989  7998       L1    11  1.00

> <Gold.PLP.Chemscore.Internal.Correction>
0.1339

> <Gold.Rescore>
     Score         DG    S(hbond)    S(metal)    S(lipo)     H(rot)  DE(clash)    DE(int)     intcor
     14.48     -15.44       0.96        0.00     101.20       1.99       0.02       0.94       ----

> <Gold.Chemscore.Fitness>
14.4793

> <Gold.Chemscore.DG>
-15.4366

> <Gold.Chemscore.ZeroCoef>
-5.4800

> <Gold.Chemscore.Hbond>
0.9628

> <Gold.Chemscore.Metal>
0.0000

> <Gold.Chemscore.Lipo>
101.2048

> <Gold.Chemscore.Internal_Hbond>
0.0000

> <Gold.Chemscore.DEClash>
0.0201

> <Gold.Chemscore.DEInternal>
0.9371

> <Gold.Chemscore.Rot>
1.9922

> <Gold.Chemscore.Internal.Correction>
   9.000000E+99

> <Gold.Chemscore.Hbonds>
donor molecule, donor type, donor heavy atom, donor atom, acceptor molecule, acceptor atom, score
      P1  H  7989  7998       L1    11  0.24

> <Gold.Chemscore.Hbond.Weighted>
-3.2157

> <Gold.Chemscore.Metal.Weighted>
-0.0000

> <Gold.Chemscore.Lipo.Weighted>
-11.8410

> <Gold.Chemscore.Internal_Hbond.Weighted>
0.0000

> <Gold.Chemscore.DEClash.Weighted>
0.0201

> <Gold.Chemscore.DEInternal.Weighted>
0.9371

> <Gold.Chemscore.Rot.Weighted>
5.1002

> <Gold.Chemscore.Internal.Correction.Weighted>
   9.000000E+99

> <Gold.Protein.RotatedTorsions>
[ 6907 6896 6895 6894 ] final  118.43 input  -60.11 | X-H torsion
[ 7974 7965 7964 7962 ] final   13.19 input  175.53 | X-H torsion
[ 8008 7997 7996 7995 ] final -127.28 input   59.86 | X-H torsion
[ 10167 10162 10161 10158 ] final  111.03 input  -65.29 | X-H torsion
[ 10718 10713 10712 10709 ] final   93.00 input   66.30 | X-H torsion
[ 10763 10752 10751 10750 ] final -166.19 input  -60.55 | X-H torsion
[ 11005 11000 10999 10996 ] final  -29.38 input  -57.11 | X-H torsion

> <Gold.Protein.ActiveResidues>
 VAL166  LYS551  ARG553  GLY616  TRP617  ASP618  TYR619  PRO620  LYS621  CYS622 
 ASP623  PHE694  ASN695  SER759  ASP760  ASP761  ALA762  ILE779  LEU786  VAL792 
 PHE793  MET794  SER795  GLU796  ALA797  LYS798  CYS799  TRP800  GLU811  SER814 

> <Gold.Protein.RotatedAtoms>
  152.4544  133.7693  159.6789 H   0  0  0  0  0  0  0  0  0  0  0  0  # atno 6907 bound_to 6896
  150.8465  133.7843  159.3047 H   0  0  0  0  0  0  0  0  0  0  0  0  # atno 6908 bound_to 6896
  151.5452  135.1071  159.9988 H   0  0  0  0  0  0  0  0  0  0  0  0  # atno 6909 bound_to 6896
  146.2335  139.9225  142.8508 H   0  0  0  0  0  0  0  0  0  0  0  0  # atno 7974 bound_to 7965
  155.2436  140.0429  157.2978 H   0  0  0  0  0  0  0  0  0  0  0  0  # atno 8008 bound_to 7997
  154.5812  140.2401  155.8020 H   0  0  0  0  0  0  0  0  0  0  0  0  # atno 8009 bound_to 7997
  156.2194  140.2974  155.9925 H   0  0  0  0  0  0  0  0  0  0  0  0  # atno 8010 bound_to 7997
  139.6643  144.7128  151.1807 H   0  0  0  0  0  0  0  0  0  0  0  0  # atno 10167 bound_to 10162
  157.6956  131.0463  150.3968 H   0  0  0  0  0  0  0  0  0  0  0  0  # atno 10718 bound_to 10713
  154.6857  135.2962  154.9550 H   0  0  0  0  0  0  0  0  0  0  0  0  # atno 10763 bound_to 10752
  154.0530  135.6642  153.4806 H   0  0  0  0  0  0  0  0  0  0  0  0  # atno 10764 bound_to 10752
  153.0577  135.5134  154.7923 H   0  0  0  0  0  0  0  0  0  0  0  0  # atno 10765 bound_to 10752
  140.9291  133.7350  156.0910 H   0  0  0  0  0  0  0  0  0  0  0  0  # atno 11005 bound_to 11000
  145.2123  140.9900  143.4093 LP  0  0  0  0  0  0  0  0  0  0  0  0  # atno 17320 bound_to 7965
  144.9681  139.3909  143.6322 LP  0  0  0  0  0  0  0  0  0  0  0  0  # atno 17321 bound_to 7965
  140.7593  143.5945  150.8763 LP  0  0  0  0  0  0  0  0  0  0  0  0  # atno 17342 bound_to 10162
  139.9605  143.6169  152.3004 LP  0  0  0  0  0  0  0  0  0  0  0  0  # atno 17343 bound_to 10162
  156.4365  130.3983  149.6725 LP  0  0  0  0  0  0  0  0  0  0  0  0  # atno 17370 bound_to 10713
  156.3924  130.7633  151.2635 LP  0  0  0  0  0  0  0  0  0  0  0  0  # atno 17371 bound_to 10713
  140.7887  134.3643  157.5470 LP  0  0  0  0  0  0  0  0  0  0  0  0  # atno 17394 bound_to 11000
  139.8792  134.9126  156.3065 LP  0  0  0  0  0  0  0  0  0  0  0  0  # atno 17395 bound_to 11000

$$$$
