AV-unprocessed.smi:72|AV-procd|sdf|732|dock3
  -GOLD-   2262017 63D 1   1.00000     0.00000
 Structure written by MMmdl.
 28 29  0  0  0  0  0  0  0  0  2 V2000
  152.6919  140.1978  159.1054 N   0  0  0  0  0  0  0  0  0  0  0  0
  151.9227  140.1180  158.1093 C   0  0  0  0  0  0  0  0  0  0  0  0
  150.5024  140.3375  158.2737 N   0  0  0  0  0  0  0  0  0  0  0  0
  149.7511  140.2545  157.2190 C   0  0  0  0  0  0  0  0  0  0  0  0
  150.3017  139.9553  155.9028 N   0  0  0  0  0  0  0  0  0  0  0  0
  149.4293  139.8608  154.6609 C   0  0  1  0  0  0  0  0  0  0  0  0
  148.3180  139.0484  154.9163 O   0  0  0  0  0  0  0  0  0  0  0  0
  147.1361  139.8389  154.9715 C   0  0  2  0  0  0  0  0  0  0  0  0
  145.8856  138.9775  154.7226 C   0  0  0  0  0  0  0  0  0  0  0  0
  144.7171  139.7620  154.8357 O   0  0  0  0  0  0  0  0  0  0  0  0
  147.4136  140.9722  153.9762 C   0  0  2  0  0  0  0  0  0  0  0  0
  147.1554  140.5625  152.6459 O   0  0  0  0  0  0  0  0  0  0  0  0
  148.9013  141.2347  154.1737 C   0  0  1  0  0  0  0  0  0  0  0  0
  149.0799  142.2852  155.1085 O   0  0  0  0  0  0  0  0  0  0  0  0
  151.6999  139.7399  155.7733 C   0  0  0  0  0  0  0  0  0  0  0  0
  152.1464  139.4928  154.6527 O   0  0  0  0  0  0  0  0  0  0  0  0
  152.4815  139.8201  156.8864 N   0  5  0  0  0  0  0  0  0  0  0  0
  150.0373  139.3468  153.9147 H   0  0  0  0  0  0  0  0  0  0  0  0
  147.0746  140.2682  155.9729 H   0  0  0  0  0  0  0  0  0  0  0  0
  146.8007  141.8514  154.1801 H   0  0  0  0  0  0  0  0  0  0  0  0
  149.4016  141.5151  153.2457 H   0  0  0  0  0  0  0  0  0  0  0  0
  153.6576  140.0258  158.8673 H   0  0  0  0  0  0  0  0  0  0  0  0
  148.6725  140.4029  157.2580 H   0  0  0  0  0  0  0  0  0  0  0  0
  145.9151  138.4984  153.7439 H   0  0  0  0  0  0  0  0  0  0  0  0
  145.8348  138.1787  155.4629 H   0  0  0  0  0  0  0  0  0  0  0  0
  144.4281  139.9967  153.9668 H   0  0  0  0  0  0  0  0  0  0  0  0
  147.9585  140.6292  152.1526 H   0  0  0  0  0  0  0  0  0  0  0  0
  148.7990  143.0939  154.7087 H   0  0  0  0  0  0  0  0  0  0  0  0
  1  2  2  0  0  0  0
  1 22  1  0  0  0  0
  2 17  1  0  0  0  0
  2  3  1  0  0  0  0
  3  4  2  0  0  0  0
  4  5  1  0  0  0  0
  4 23  1  0  0  0  0
  5  6  1  0  0  0  0
  5 15  1  0  0  0  0
  6 18  1  0  0  0  0
  6 13  1  0  0  0  0
  6  7  1  0  0  0  0
  7  8  1  0  0  0  0
  8 19  1  0  0  0  0
  8  9  1  0  0  0  0
  8 11  1  0  0  0  0
  9 10  1  0  0  0  0
  9 24  1  0  0  0  0
  9 25  1  0  0  0  0
 10 26  1  0  0  0  0
 11 20  1  0  0  0  0
 11 12  1  0  0  0  0
 11 13  1  0  0  0  0
 12 27  1  0  0  0  0
 13 21  1  0  0  0  0
 13 14  1  0  0  0  0
 14 28  1  0  0  0  0
 15 16  2  0  0  0  0
 15 17  1  0  0  0  0
M  CHG  1  17  -1
M  END
> <s_m_source_file>
AV-unprocessed.smi

> <i_m_source_file_index>
72

> <i_lp_mmshare_version>
43012

> <i_f3d_flags>
0

> <s_epik_input>
W05IMl1jMW5bY0hdbihjKD1PKW4xKVtDQEBIXTJPW0NASF0oW0NIMl1bT0hdKVtDQEBIXShbT0hdKVtDQEhdMltPSF0=

> <s_epik_cmdline>
J2VwaWtfcHl0aG9uJywgJy1waCcsICc3LjAnLCAnLXRuJywgJzgnLCAnLW1hJywgJzIwMCcsICctbWV0YWxfYmluZGluZycsICctaW1hZScsICc8aW5maWxlLm1hZT4nLCAnLW9tYWUnLCAnPG91dGZpbGUubWFlPic=

> <r_lp_tautomer_probability>
7.17554e-07

> <r_epik_Ionization_Penalty>
12.8705

> <r_epik_Ionization_Penalty_Charging>
5.64144

> <r_epik_Ionization_Penalty_Neutral>
7.22905

> <r_epik_State_Penalty>
3.30104

> <r_epik_Charging_Adjusted_Penalty>
8.94249

> <i_epik_Tot_Q>
-1

> <i_epik_Tot_abs_Q>
1

> <r_epik_Metal_State_Penalty>
0.529074

> <b_epik_Metal_Only>
1

> <s_epik_Chemistry_Notes>
This compound contains an acetal/aminal-like group ( X-CH(R)-Y where X, Y are N, S, or O) that may be acid/base labile, releasing an aldehyde.

> <s_lp_Force_Field>
OPLS_2005

> <r_lp_Energy>
37.8021

> <b_lp_Chiralities_Consistent>
1

> <s_lp_Variant>
AV-unprocessed.smi:72-70

> <Gold.Version>
5.8.1

> <Gold.Id.Protein>
6NUR|6NUR_protein|mol2

> <Gold.PLP.Fitness>
38.5476

> <Gold.PLP.PLP>
-23.3726

> <Gold.PLP.part.hbond>
-5.1108

> <Gold.PLP.part.metal>
0.0000

> <Gold.PLP.part.buried>
-3.7344

> <Gold.PLP.part.nonpolar>
-14.5183

> <Gold.PLP.part.repulsive>
0.1431

> <Gold.PLP.ligand.clash>
0.0000

> <Gold.PLP.ligand.torsion>
0.2567

> <Gold.PLP.Chemscore.Hbond>
5.2160

> <Gold.PLP.Chemscore.CHOScore>
0.0000

> <Gold.PLP.Chemscore.Metal>
0.0000

> <Gold.Chemscore.Hbonds>
donor molecule, donor type, donor heavy atom, donor atom, acceptor molecule, acceptor atom, score
      L1  H    10    26       P1 10175  1.00
      L1  H    12    27       P1  7957  1.00
      L1  H    14    28       P1  8028  0.45
      P1  H  7989  7998       L1    16  0.83
      P1  H  7997  8009       L1    17  2.00

> <Gold.PLP.Chemscore.Internal.Correction>
0.0404

> <Gold.Rescore>
     Score         DG    S(hbond)    S(metal)    S(lipo)     H(rot)  DE(clash)    DE(int)     intcor
     11.52     -12.05       4.43        0.00      18.13       4.04       0.01       0.52       ----

> <Gold.Chemscore.Fitness>
11.5171

> <Gold.Chemscore.DG>
-12.0495

> <Gold.Chemscore.ZeroCoef>
-5.4800

> <Gold.Chemscore.Hbond>
4.4286

> <Gold.Chemscore.Metal>
0.0000

> <Gold.Chemscore.Lipo>
18.1293

> <Gold.Chemscore.Internal_Hbond>
0.0000

> <Gold.Chemscore.DEClash>
0.0089

> <Gold.Chemscore.DEInternal>
0.5236

> <Gold.Chemscore.Rot>
4.0403

> <Gold.Chemscore.Internal.Correction>
   9.000000E+99

> <Gold.Chemscore.Hbonds>
donor molecule, donor type, donor heavy atom, donor atom, acceptor molecule, acceptor atom, score
      L1  H    10    26       P1 10175  1.00
      L1  H    12    27       P1  7957  0.96
      L1  H    14    28       P1  8028  0.44
      P1  H  7989  7998       L1    16  0.57
      P1  H  7997  8009       L1    17  0.87

> <Gold.Chemscore.Hbond.Weighted>
-14.7915

> <Gold.Chemscore.Metal.Weighted>
-0.0000

> <Gold.Chemscore.Lipo.Weighted>
-2.1211

> <Gold.Chemscore.Internal_Hbond.Weighted>
0.0000

> <Gold.Chemscore.DEClash.Weighted>
0.0089

> <Gold.Chemscore.DEInternal.Weighted>
0.5236

> <Gold.Chemscore.Rot.Weighted>
10.3431

> <Gold.Chemscore.Internal.Correction.Weighted>
   9.000000E+99

> <Gold.Protein.RotatedTorsions>
[ 6907 6896 6895 6894 ] final   26.34 input  -60.11 | X-H torsion
[ 7974 7965 7964 7962 ] final  142.90 input  175.53 | X-H torsion
[ 8008 7997 7996 7995 ] final -172.47 input   59.86 | X-H torsion
[ 10167 10162 10161 10158 ] final   42.32 input  -65.29 | X-H torsion
[ 10718 10713 10712 10709 ] final   95.45 input   66.30 | X-H torsion
[ 10763 10752 10751 10750 ] final -177.96 input  -60.55 | X-H torsion
[ 11005 11000 10999 10996 ] final   -3.09 input  -57.11 | X-H torsion

> <Gold.Protein.ActiveResidues>
 VAL166  LYS551  ARG553  GLY616  TRP617  ASP618  TYR619  PRO620  LYS621  CYS622 
 ASP623  PHE694  ASN695  SER759  ASP760  ASP761  ALA762  ILE779  LEU786  VAL792 
 PHE793  MET794  SER795  GLU796  ALA797  LYS798  CYS799  TRP800  GLU811  SER814 

> <Gold.Protein.RotatedAtoms>
  151.9860  135.0004  160.0559 H   0  0  0  0  0  0  0  0  0  0  0  0  # atno 6907 bound_to 6896
  152.1652  133.4603  159.4889 H   0  0  0  0  0  0  0  0  0  0  0  0  # atno 6908 bound_to 6896
  150.6893  134.1939  159.4339 H   0  0  0  0  0  0  0  0  0  0  0  0  # atno 6909 bound_to 6896
  144.8967  139.5480  143.5773 H   0  0  0  0  0  0  0  0  0  0  0  0  # atno 7974 bound_to 7965
  155.9450  140.1115  157.1024 H   0  0  0  0  0  0  0  0  0  0  0  0  # atno 8008 bound_to 7997
  154.4097  140.1212  156.5043 H   0  0  0  0  0  0  0  0  0  0  0  0  # atno 8009 bound_to 7997
  155.6915  140.3472  155.4897 H   0  0  0  0  0  0  0  0  0  0  0  0  # atno 8010 bound_to 7997
  140.3556  144.2295  150.6142 H   0  0  0  0  0  0  0  0  0  0  0  0  # atno 10167 bound_to 10162
  157.6938  131.0546  150.4341 H   0  0  0  0  0  0  0  0  0  0  0  0  # atno 10718 bound_to 10713
  154.5537  135.2815  155.0985 H   0  0  0  0  0  0  0  0  0  0  0  0  # atno 10763 bound_to 10752
  154.2420  135.6355  153.5214 H   0  0  0  0  0  0  0  0  0  0  0  0  # atno 10764 bound_to 10752
  153.0010  135.5562  154.6110 H   0  0  0  0  0  0  0  0  0  0  0  0  # atno 10765 bound_to 10752
  140.6656  133.9282  155.8462 H   0  0  0  0  0  0  0  0  0  0  0  0  # atno 11005 bound_to 11000
  146.3085  139.7664  142.9037 LP  0  0  0  0  0  0  0  0  0  0  0  0  # atno 17320 bound_to 7965
  145.3687  141.0339  143.3243 LP  0  0  0  0  0  0  0  0  0  0  0  0  # atno 17321 bound_to 7965
  140.5177  143.2274  151.8437 LP  0  0  0  0  0  0  0  0  0  0  0  0  # atno 17342 bound_to 10162
  139.4820  144.4874  151.9229 LP  0  0  0  0  0  0  0  0  0  0  0  0  # atno 17343 bound_to 10162
  156.4705  130.4051  149.6521 LP  0  0  0  0  0  0  0  0  0  0  0  0  # atno 17370 bound_to 10713
  156.3603  130.7478  151.2449 LP  0  0  0  0  0  0  0  0  0  0  0  0  # atno 17371 bound_to 10713
  141.0432  134.0591  157.3876 LP  0  0  0  0  0  0  0  0  0  0  0  0  # atno 17394 bound_to 11000
  139.8998  135.0160  156.7215 LP  0  0  0  0  0  0  0  0  0  0  0  0  # atno 17395 bound_to 11000

$$$$
