AV-unprocessed.smi:765|AV-procd|sdf|3649|dock7
  -GOLD-   22720 1 53D 1   1.00000     0.00000
 Structure written by MMmdl.
 39 40  0  0  0  0  0  0  0  0  1 V2000
  152.5264  139.7554  153.0897 C   0  0  0  0  0  0  0  0  0  0  0  0
  151.3786  139.8193  154.1073 C   0  0  2  0  0  0  0  0  0  0  0  0
  150.0831  140.3398  153.4596 C   0  0  0  0  0  0  0  0  0  0  0  0
  148.9376  140.4227  154.4779 C   0  0  0  0  0  0  0  0  0  0  0  0
  149.3370  141.2869  155.6847 C   0  0  0  0  0  0  0  0  0  0  0  0
  150.6194  140.7733  156.3761 C   0  0  2  0  0  0  0  0  0  0  0  0
  150.3574  139.4472  156.9713 C   0  0  0  0  0  0  0  0  0  0  0  0
  150.1512  138.4082  157.4376 N   0  0  0  0  0  0  0  0  0  0  0  0
  150.9752  141.7522  157.4049 N   0  0  0  0  0  0  0  0  0  0  0  0
  151.9271  141.6289  158.3456 C   0  0  0  0  0  0  0  0  0  0  0  0
  152.6171  140.6184  158.4825 O   0  0  0  0  0  0  0  0  0  0  0  0
  152.1352  142.8508  159.2530 C   0  0  1  0  0  0  0  0  0  0  0  0
  150.8126  143.5035  159.6953 C   0  0  0  0  0  0  0  0  0  0  0  0
  152.9487  142.4857  160.4055 N   0  0  0  0  0  0  0  0  0  0  0  0
  152.6361  142.5683  161.7490 C   0  0  0  0  0  0  0  0  0  0  0  0
  153.7134  142.1064  162.4488 C   0  0  0  0  0  0  0  0  0  0  0  0
  154.6513  141.7624  161.4361 C   0  0  0  0  0  0  0  0  0  0  0  0
  154.1917  141.9901  160.2164 N   0  0  0  0  0  0  0  0  0  0  0  0
  151.7554  140.6872  155.3252 C   0  0  0  0  0  0  0  0  0  0  0  0
  152.7625  140.7444  152.6955 H   0  0  0  0  0  0  0  0  0  0  0  0
  152.2682  139.1139  152.2468 H   0  0  0  0  0  0  0  0  0  0  0  0
  153.4323  139.3530  153.5442 H   0  0  0  0  0  0  0  0  0  0  0  0
  151.1962  138.8021  154.4562 H   0  0  0  0  0  0  0  0  0  0  0  0
  150.2573  141.3272  153.0294 H   0  0  0  0  0  0  0  0  0  0  0  0
  149.7913  139.6912  152.6329 H   0  0  0  0  0  0  0  0  0  0  0  0
  148.0498  140.8396  154.0019 H   0  0  0  0  0  0  0  0  0  0  0  0
  148.6658  139.4203  154.8098 H   0  0  0  0  0  0  0  0  0  0  0  0
  149.4838  142.3146  155.3482 H   0  0  0  0  0  0  0  0  0  0  0  0
  148.5129  141.3161  156.3991 H   0  0  0  0  0  0  0  0  0  0  0  0
  150.4650  142.6233  157.3813 H   0  0  0  0  0  0  0  0  0  0  0  0
  152.6848  143.5930  158.6703 H   0  0  0  0  0  0  0  0  0  0  0  0
  150.2079  143.7927  158.8352 H   0  0  0  0  0  0  0  0  0  0  0  0
  151.0023  144.4050  160.2785 H   0  0  0  0  0  0  0  0  0  0  0  0
  150.2147  142.8321  160.3132 H   0  0  0  0  0  0  0  0  0  0  0  0
  151.6818  142.9426  162.0902 H   0  0  0  0  0  0  0  0  0  0  0  0
  153.8160  142.0269  163.5208 H   0  0  0  0  0  0  0  0  0  0  0  0
  155.6457  141.3565  161.5498 H   0  0  0  0  0  0  0  0  0  0  0  0
  152.6593  140.2841  155.7835 H   0  0  0  0  0  0  0  0  0  0  0  0
  152.0128  141.6913  154.9831 H   0  0  0  0  0  0  0  0  0  0  0  0
  1  2  1  0  0  0  0
  1 20  1  0  0  0  0
  1 21  1  0  0  0  0
  1 22  1  0  0  0  0
  2 19  1  0  0  0  0
  2  3  1  0  0  0  0
  2 23  1  0  0  0  0
  3  4  1  0  0  0  0
  3 24  1  0  0  0  0
  3 25  1  0  0  0  0
  4  5  1  0  0  0  0
  4 26  1  0  0  0  0
  4 27  1  0  0  0  0
  5  6  1  0  0  0  0
  5 28  1  0  0  0  0
  5 29  1  0  0  0  0
  6  7  1  0  0  0  0
  6  9  1  0  0  0  0
  6 19  1  0  0  0  0
  7  8  3  0  0  0  0
  9 10  1  0  0  0  0
  9 30  1  0  0  0  0
 10 11  2  0  0  0  0
 10 12  1  0  0  0  0
 12 13  1  0  0  0  0
 12 14  1  0  0  0  0
 12 31  1  0  0  0  0
 13 32  1  0  0  0  0
 13 33  1  0  0  0  0
 13 34  1  0  0  0  0
 14 18  1  0  0  0  0
 14 15  1  0  0  0  0
 15 16  2  0  0  0  0
 15 35  1  0  0  0  0
 16 17  1  0  0  0  0
 16 36  1  0  0  0  0
 17 18  2  0  0  0  0
 17 37  1  0  0  0  0
 19 38  1  0  0  0  0
 19 39  1  0  0  0  0
M  END
> <s_m_source_file>
AV-unprocessed.smi

> <i_m_source_file_index>
765

> <i_lp_mmshare_version>
43012

> <i_f3d_flags>
0

> <s_epik_input>
W0NIM11bQ0BASF0oW0NIMl0xKVtDSDJdW0NIMl1bQ0gyXVtDQEBdMShDI04pW05IXUMoPU8pW0NASF0oW0NIM10pbjJbY0hdW2NIXVtjSF1uMg==

> <s_epik_cmdline>
J2VwaWtfcHl0aG9uJywgJy1waCcsICc3LjAnLCAnLXRuJywgJzgnLCAnLW1hJywgJzIwMCcsICctbWV0YWxfYmluZGluZycsICctaW1hZScsICc8aW5maWxlLm1hZT4nLCAnLW9tYWUnLCAnPG91dGZpbGUubWFlPic=

> <r_lp_tautomer_probability>
1

> <r_epik_Ionization_Penalty>
2.71142e-05

> <r_epik_Ionization_Penalty_Charging>
0

> <r_epik_Ionization_Penalty_Neutral>
2.71142e-05

> <r_epik_State_Penalty>
-0

> <r_epik_Charging_Adjusted_Penalty>
0

> <i_epik_Tot_Q>
0

> <i_epik_Tot_abs_Q>
0

> <r_epik_Metal_State_Penalty>
-0

> <b_epik_Metal_Only>
0

> <s_lp_Force_Field>
OPLS_2005

> <r_lp_Energy>
10.7608

> <b_lp_Chiralities_Consistent>
1

> <s_lp_Variant>
AV-unprocessed.smi:765-7

> <Gold.Version>
5.8.1

> <Gold.Id.Protein>
6NUR|6NUR_protein|mol2

> <Gold.PLP.Fitness>
43.2644

> <Gold.PLP.PLP>
-44.3220

> <Gold.PLP.part.hbond>
-0.7107

> <Gold.PLP.part.metal>
0.0000

> <Gold.PLP.part.buried>
-1.5557

> <Gold.PLP.part.nonpolar>
-41.5186

> <Gold.PLP.part.repulsive>
0.0506

> <Gold.PLP.ligand.clash>
0.0000

> <Gold.PLP.ligand.torsion>
0.5616

> <Gold.PLP.Chemscore.Hbond>
0.0000

> <Gold.PLP.Chemscore.CHOScore>
0.0000

> <Gold.PLP.Chemscore.Metal>
0.0000

> <Gold.PLP.Chemscore.Internal.Correction>
0.0656

> <Gold.Rescore>
     Score         DG    S(hbond)    S(metal)    S(lipo)     H(rot)  DE(clash)    DE(int)     intcor
     10.23     -13.89       0.00        0.00     102.93       1.42       1.11       2.55       ----

> <Gold.Chemscore.Fitness>
10.2315

> <Gold.Chemscore.DG>
-13.8918

> <Gold.Chemscore.ZeroCoef>
-5.4800

> <Gold.Chemscore.Hbond>
0.0000

> <Gold.Chemscore.Metal>
0.0000

> <Gold.Chemscore.Lipo>
102.9293

> <Gold.Chemscore.Internal_Hbond>
0.0000

> <Gold.Chemscore.DEClash>
1.1096

> <Gold.Chemscore.DEInternal>
2.5508

> <Gold.Chemscore.Rot>
1.4183

> <Gold.Chemscore.Internal.Correction>
   9.000000E+99

> <Gold.Chemscore.Hbond.Weighted>
-0.0000

> <Gold.Chemscore.Metal.Weighted>
-0.0000

> <Gold.Chemscore.Lipo.Weighted>
-12.0427

> <Gold.Chemscore.Internal_Hbond.Weighted>
0.0000

> <Gold.Chemscore.DEClash.Weighted>
1.1096

> <Gold.Chemscore.DEInternal.Weighted>
2.5508

> <Gold.Chemscore.Rot.Weighted>
3.6309

> <Gold.Chemscore.Internal.Correction.Weighted>
   9.000000E+99

> <Gold.Protein.RotatedTorsions>
[ 6907 6896 6895 6894 ] final  147.38 input  -60.11 | X-H torsion
[ 7974 7965 7964 7962 ] final    2.79 input  175.53 | X-H torsion
[ 8008 7997 7996 7995 ] final   22.60 input   59.86 | X-H torsion
[ 10167 10162 10161 10158 ] final   86.86 input  -65.29 | X-H torsion
[ 10718 10713 10712 10709 ] final -167.13 input   66.30 | X-H torsion
[ 10763 10752 10751 10750 ] final   91.78 input  -60.55 | X-H torsion
[ 11005 11000 10999 10996 ] final   81.76 input  -57.11 | X-H torsion

> <Gold.Protein.ActiveResidues>
 VAL166  LYS551  ARG553  GLY616  TRP617  ASP618  TYR619  PRO620  LYS621  CYS622 
 ASP623  PHE694  ASN695  SER759  ASP760  ASP761  ALA762  ILE779  LEU786  VAL792 
 PHE793  MET794  SER795  GLU796  ALA797  LYS798  CYS799  TRP800  GLU811  SER814 

> <Gold.Protein.RotatedAtoms>
  152.1556  133.4549  159.4834 H   0  0  0  0  0  0  0  0  0  0  0  0  # atno 6907 bound_to 6896
  150.6900  134.2135  159.4378 H   0  0  0  0  0  0  0  0  0  0  0  0  # atno 6908 bound_to 6896
  152.0035  134.9915  160.0616 H   0  0  0  0  0  0  0  0  0  0  0  0  # atno 6909 bound_to 6896
  146.2444  140.0782  142.8358 H   0  0  0  0  0  0  0  0  0  0  0  0  # atno 7974 bound_to 7965
  154.9682  140.3086  155.5000 H   0  0  0  0  0  0  0  0  0  0  0  0  # atno 8008 bound_to 7997
  156.2969  140.2289  156.4711 H   0  0  0  0  0  0  0  0  0  0  0  0  # atno 8009 bound_to 7997
  154.7901  140.0440  157.1183 H   0  0  0  0  0  0  0  0  0  0  0  0  # atno 8010 bound_to 7997
  139.8832  144.6428  150.8820 H   0  0  0  0  0  0  0  0  0  0  0  0  # atno 10167 bound_to 10162
  156.6780  130.9110  151.3053 H   0  0  0  0  0  0  0  0  0  0  0  0  # atno 10718 bound_to 10713
  153.2120  135.4385  155.0390 H   0  0  0  0  0  0  0  0  0  0  0  0  # atno 10763 bound_to 10752
  154.8205  135.3335  154.7055 H   0  0  0  0  0  0  0  0  0  0  0  0  # atno 10764 bound_to 10752
  153.7492  135.6999  153.5005 H   0  0  0  0  0  0  0  0  0  0  0  0  # atno 10765 bound_to 10752
  139.9087  134.8021  156.2084 H   0  0  0  0  0  0  0  0  0  0  0  0  # atno 11005 bound_to 11000
  145.0756  140.9186  143.4856 LP  0  0  0  0  0  0  0  0  0  0  0  0  # atno 17320 bound_to 7965
  145.0925  139.2880  143.5728 LP  0  0  0  0  0  0  0  0  0  0  0  0  # atno 17321 bound_to 7965
  140.7740  143.3569  151.1904 LP  0  0  0  0  0  0  0  0  0  0  0  0  # atno 17342 bound_to 10162
  139.7177  143.9274  152.2973 LP  0  0  0  0  0  0  0  0  0  0  0  0  # atno 17343 bound_to 10162
  157.7054  130.9379  150.0914 LP  0  0  0  0  0  0  0  0  0  0  0  0  # atno 17370 bound_to 10713
  156.1889  130.3653  149.8936 LP  0  0  0  0  0  0  0  0  0  0  0  0  # atno 17371 bound_to 10713
  141.0481  133.6903  156.1720 LP  0  0  0  0  0  0  0  0  0  0  0  0  # atno 17394 bound_to 11000
  140.6853  134.4724  157.5589 LP  0  0  0  0  0  0  0  0  0  0  0  0  # atno 17395 bound_to 11000

$$$$
