AV-unprocessed.smi:418|AV-procd|sdf|2529|dock9
  -GOLD-   2262022483D 1   1.00000     0.00000
 Structure written by MMmdl.
 40 42  0  0  0  0  0  0  0  0  1 V2000
  153.9000  140.9763  161.1386 C   0  0  0  0  0  0  0  0  0  0  0  0
  153.0864  141.6564  160.1380 N   0  0  0  0  0  0  0  0  0  0  0  0
  152.8717  141.2654  158.8599 C   0  0  0  0  0  0  0  0  0  0  0  0
  153.3364  140.2605  158.3218 O   0  0  0  0  0  0  0  0  0  0  0  0
  152.0594  142.1767  158.2743 N   0  0  0  0  0  0  0  0  0  0  0  0
  151.5885  142.1592  156.8911 C   0  0  0  0  0  0  0  0  0  0  0  0
  150.2020  141.4953  156.7697 C   0  0  1  0  0  0  0  0  0  0  0  0
  149.2083  142.3121  157.3541 O   0  0  0  0  0  0  0  0  0  0  0  0
  149.7900  141.2226  155.3136 C   0  0  0  0  0  0  0  0  0  0  0  0
  150.7845  140.4337  154.6715 O   0  0  0  0  0  0  0  0  0  0  0  0
  150.6616  139.0612  154.7122 C   0  0  0  0  0  0  0  0  0  0  0  0
  149.4222  138.3745  154.7763 C   0  0  0  0  0  0  0  0  0  0  0  0
  149.3880  136.9670  154.8168 C   0  0  0  0  0  0  0  0  0  0  0  0
  150.5861  136.2296  154.7932 C   0  0  0  0  0  0  0  0  0  0  0  0
  151.8203  136.9022  154.7285 C   0  0  0  0  0  0  0  0  0  0  0  0
  151.8559  138.3095  154.6884 C   0  0  0  0  0  0  0  0  0  0  0  0
  153.0508  138.9445  154.6268 F   0  0  0  0  0  0  0  0  0  0  0  0
  151.7582  143.1862  159.2001 C   0  0  0  0  0  0  0  0  0  0  0  0
  150.9765  144.3486  159.0815 C   0  0  0  0  0  0  0  0  0  0  0  0
  150.8758  145.1782  160.2231 C   0  0  0  0  0  0  0  0  0  0  0  0
  151.5423  144.8396  161.4297 C   0  0  0  0  0  0  0  0  0  0  0  0
  152.3241  143.6639  161.5207 C   0  0  0  0  0  0  0  0  0  0  0  0
  152.4055  142.8577  160.3724 C   0  0  0  0  0  0  0  0  0  0  0  0
  154.2322  139.9948  160.7980 H   0  0  0  0  0  0  0  0  0  0  0  0
  153.3302  140.8356  162.0574 H   0  0  0  0  0  0  0  0  0  0  0  0
  154.7837  141.5711  161.3712 H   0  0  0  0  0  0  0  0  0  0  0  0
  151.5790  143.1657  156.4686 H   0  0  0  0  0  0  0  0  0  0  0  0
  152.3160  141.5995  156.3019 H   0  0  0  0  0  0  0  0  0  0  0  0
  150.1968  140.5437  157.3028 H   0  0  0  0  0  0  0  0  0  0  0  0
  149.1162  143.0925  156.8285 H   0  0  0  0  0  0  0  0  0  0  0  0
  148.8470  140.6738  155.3155 H   0  0  0  0  0  0  0  0  0  0  0  0
  149.6261  142.1614  154.7813 H   0  0  0  0  0  0  0  0  0  0  0  0
  148.4823  138.9047  154.7957 H   0  0  0  0  0  0  0  0  0  0  0  0
  148.4398  136.4524  154.8661 H   0  0  0  0  0  0  0  0  0  0  0  0
  150.5588  135.1503  154.8246 H   0  0  0  0  0  0  0  0  0  0  0  0
  152.7416  136.3388  154.7099 H   0  0  0  0  0  0  0  0  0  0  0  0
  150.4741  144.6022  158.1597 H   0  0  0  0  0  0  0  0  0  0  0  0
  150.2851  146.0812  160.1759 H   0  0  0  0  0  0  0  0  0  0  0  0
  151.4526  145.4882  162.2887 H   0  0  0  0  0  0  0  0  0  0  0  0
  152.8359  143.4003  162.4345 H   0  0  0  0  0  0  0  0  0  0  0  0
  1  2  1  0  0  0  0
  1 24  1  0  0  0  0
  1 25  1  0  0  0  0
  1 26  1  0  0  0  0
  2 23  1  0  0  0  0
  2  3  1  0  0  0  0
  3  4  2  0  0  0  0
  3  5  1  0  0  0  0
  5  6  1  0  0  0  0
  5 18  1  0  0  0  0
  6  7  1  0  0  0  0
  6 27  1  0  0  0  0
  6 28  1  0  0  0  0
  7  8  1  0  0  0  0
  7  9  1  0  0  0  0
  7 29  1  0  0  0  0
  8 30  1  0  0  0  0
  9 10  1  0  0  0  0
  9 31  1  0  0  0  0
  9 32  1  0  0  0  0
 10 11  1  0  0  0  0
 11 16  1  0  0  0  0
 11 12  2  0  0  0  0
 12 13  1  0  0  0  0
 12 33  1  0  0  0  0
 13 14  2  0  0  0  0
 13 34  1  0  0  0  0
 14 15  1  0  0  0  0
 14 35  1  0  0  0  0
 15 16  2  0  0  0  0
 15 36  1  0  0  0  0
 16 17  1  0  0  0  0
 18 23  2  0  0  0  0
 18 19  1  0  0  0  0
 19 20  2  0  0  0  0
 19 37  1  0  0  0  0
 20 21  1  0  0  0  0
 20 38  1  0  0  0  0
 21 22  2  0  0  0  0
 21 39  1  0  0  0  0
 22 23  1  0  0  0  0
 22 40  1  0  0  0  0
M  END
> <s_m_source_file>
AV-unprocessed.smi

> <i_m_source_file_index>
418

> <i_lp_mmshare_version>
43012

> <i_f3d_flags>
0

> <s_epik_input>
W2NIXTFbY0hdW2NIXVtjSF1jKGMxMiluKFtDSDNdKWMoPU8pbjJbQ0gyXVtDQEhdKFtPSF0pW0NIMl1PYzNbY0hdW2NIXVtjSF1bY0hdYzNG

> <s_epik_cmdline>
J2VwaWtfcHl0aG9uJywgJy1waCcsICc3LjAnLCAnLXRuJywgJzgnLCAnLW1hJywgJzIwMCcsICctbWV0YWxfYmluZGluZycsICctaW1hZScsICc8aW5maWxlLm1hZT4nLCAnLW9tYWUnLCAnPG91dGZpbGUubWFlPic=

> <r_lp_tautomer_probability>
1

> <r_epik_Ionization_Penalty>
2.40171e-06

> <r_epik_Ionization_Penalty_Charging>
2.41238e-09

> <r_epik_Ionization_Penalty_Neutral>
2.3993e-06

> <r_epik_State_Penalty>
-0

> <r_epik_Charging_Adjusted_Penalty>
2.41238e-09

> <i_epik_Tot_Q>
0

> <i_epik_Tot_abs_Q>
0

> <r_epik_Metal_State_Penalty>
-0

> <b_epik_Metal_Only>
0

> <s_lp_Force_Field>
OPLS_2005

> <r_lp_Energy>
48.5553

> <b_lp_Chiralities_Consistent>
1

> <s_lp_Variant>
AV-unprocessed.smi:418-2

> <Gold.Version>
5.8.1

> <Gold.Id.Protein>
6NUR|6NUR_protein|mol2

> <Gold.PLP.Fitness>
58.5754

> <Gold.PLP.PLP>
-51.5031

> <Gold.PLP.part.hbond>
-3.0000

> <Gold.PLP.part.metal>
0.0000

> <Gold.PLP.part.buried>
-4.4273

> <Gold.PLP.part.nonpolar>
-44.1118

> <Gold.PLP.part.repulsive>
0.0940

> <Gold.PLP.ligand.clash>
0.0000

> <Gold.PLP.ligand.torsion>
0.9849

> <Gold.PLP.Chemscore.Hbond>
3.0000

> <Gold.PLP.Chemscore.CHOScore>
0.0000

> <Gold.PLP.Chemscore.Metal>
0.0000

> <Gold.Chemscore.Hbonds>
donor molecule, donor type, donor heavy atom, donor atom, acceptor molecule, acceptor atom, score
      L1  H     8    30       P1  8028  1.00
      P1  H  7989  7998       L1    10  0.94
      P1  H  7997  8009       L1     4  0.91

> <Gold.PLP.Chemscore.Internal.Correction>
0.0421

> <Gold.Rescore>
     Score         DG    S(hbond)    S(metal)    S(lipo)     H(rot)  DE(clash)    DE(int)     intcor
     20.84     -24.16       2.69        0.00     132.49       2.27       1.85       1.48       ----

> <Gold.Chemscore.Fitness>
20.8385

> <Gold.Chemscore.DG>
-24.1604

> <Gold.Chemscore.ZeroCoef>
-5.4800

> <Gold.Chemscore.Hbond>
2.6921

> <Gold.Chemscore.Metal>
0.0000

> <Gold.Chemscore.Lipo>
132.4929

> <Gold.Chemscore.Internal_Hbond>
0.0000

> <Gold.Chemscore.DEClash>
1.8456

> <Gold.Chemscore.DEInternal>
1.4763

> <Gold.Chemscore.Rot>
2.2706

> <Gold.Chemscore.Internal.Correction>
   9.000000E+99

> <Gold.Chemscore.Hbonds>
donor molecule, donor type, donor heavy atom, donor atom, acceptor molecule, acceptor atom, score
      L1  H     8    30       P1  8028  0.91
      P1  H  7989  7998       L1    10  0.73
      P1  H  7997  8009       L1     4  0.90

> <Gold.Chemscore.Hbond.Weighted>
-8.9916

> <Gold.Chemscore.Metal.Weighted>
-0.0000

> <Gold.Chemscore.Lipo.Weighted>
-15.5017

> <Gold.Chemscore.Internal_Hbond.Weighted>
0.0000

> <Gold.Chemscore.DEClash.Weighted>
1.8456

> <Gold.Chemscore.DEInternal.Weighted>
1.4763

> <Gold.Chemscore.Rot.Weighted>
5.8128

> <Gold.Chemscore.Internal.Correction.Weighted>
   9.000000E+99

> <Gold.Protein.RotatedTorsions>
[ 6907 6896 6895 6894 ] final  145.10 input  -60.11 | X-H torsion
[ 7974 7965 7964 7962 ] final   35.04 input  175.53 | X-H torsion
[ 8008 7997 7996 7995 ] final  151.75 input   59.86 | X-H torsion
[ 10167 10162 10161 10158 ] final   73.75 input  -65.29 | X-H torsion
[ 10718 10713 10712 10709 ] final -113.32 input   66.30 | X-H torsion
[ 10763 10752 10751 10750 ] final  157.35 input  -60.55 | X-H torsion
[ 11005 11000 10999 10996 ] final  139.36 input  -57.11 | X-H torsion

> <Gold.Protein.ActiveResidues>
 VAL166  LYS551  ARG553  GLY616  TRP617  ASP618  TYR619  PRO620  LYS621  CYS622 
 ASP623  PHE694  ASN695  SER759  ASP760  ASP761  ALA762  ILE779  LEU786  VAL792 
 PHE793  MET794  SER795  GLU796  ALA797  LYS798  CYS799  TRP800  GLU811  SER814 

> <Gold.Protein.RotatedAtoms>
  152.1852  133.4735  159.4978 H   0  0  0  0  0  0  0  0  0  0  0  0  # atno 6907 bound_to 6896
  150.6941  134.1782  159.4247 H   0  0  0  0  0  0  0  0  0  0  0  0  # atno 6908 bound_to 6896
  151.9695  135.0083  160.0602 H   0  0  0  0  0  0  0  0  0  0  0  0  # atno 6909 bound_to 6896
  146.1311  139.6193  142.9226 H   0  0  0  0  0  0  0  0  0  0  0  0  # atno 7974 bound_to 7965
  156.2660  140.2039  156.6225 H   0  0  0  0  0  0  0  0  0  0  0  0  # atno 8008 bound_to 7997
  154.6745  140.0546  157.0225 H   0  0  0  0  0  0  0  0  0  0  0  0  # atno 8009 bound_to 7997
  155.1088  140.3213  155.4530 H   0  0  0  0  0  0  0  0  0  0  0  0  # atno 8010 bound_to 7997
  140.0211  144.5540  150.7581 H   0  0  0  0  0  0  0  0  0  0  0  0  # atno 10167 bound_to 10162
  156.0759  130.5967  150.8626 H   0  0  0  0  0  0  0  0  0  0  0  0  # atno 10718 bound_to 10713
  154.1988  135.2791  155.2998 H   0  0  0  0  0  0  0  0  0  0  0  0  # atno 10763 bound_to 10752
  154.5871  135.5571  153.7245 H   0  0  0  0  0  0  0  0  0  0  0  0  # atno 10764 bound_to 10752
  153.0093  135.6359  154.2126 H   0  0  0  0  0  0  0  0  0  0  0  0  # atno 10765 bound_to 10752
  140.0249  134.9379  157.0549 H   0  0  0  0  0  0  0  0  0  0  0  0  # atno 11005 bound_to 11000
  145.5258  141.0429  143.2410 LP  0  0  0  0  0  0  0  0  0  0  0  0  # atno 17320 bound_to 7965
  144.7692  139.6775  143.7202 LP  0  0  0  0  0  0  0  0  0  0  0  0  # atno 17321 bound_to 7965
  140.7342  143.2726  151.3841 LP  0  0  0  0  0  0  0  0  0  0  0  0  # atno 17342 bound_to 10162
  139.6139  144.1042  152.2326 LP  0  0  0  0  0  0  0  0  0  0  0  0  # atno 17343 bound_to 10162
  157.5854  131.0945  150.9204 LP  0  0  0  0  0  0  0  0  0  0  0  0  # atno 17370 bound_to 10713
  156.9391  130.5378  149.5280 LP  0  0  0  0  0  0  0  0  0  0  0  0  # atno 17371 bound_to 10713
  140.4323  134.1768  155.7169 LP  0  0  0  0  0  0  0  0  0  0  0  0  # atno 17394 bound_to 11000
  141.1797  133.8440  157.1301 LP  0  0  0  0  0  0  0  0  0  0  0  0  # atno 17395 bound_to 11000

$$$$
