AV-unprocessed.smi:99|AV-procd|sdf|865|dock6
  -GOLD-   2262017313D 1   1.00000     0.00000
 Structure written by MMmdl.
 53 56  0  0  0  0  0  0  0  0  1 V2000
  143.3127  135.5596  153.6184 O   0  0  0  0  0  0  0  0  0  0  0  0
  144.3774  134.9452  153.5318 C   0  0  0  0  0  0  0  0  0  0  0  0
  145.4292  135.1528  154.3473 O   0  0  0  0  0  0  0  0  0  0  0  0
  145.3274  136.0408  155.4491 C   0  0  0  0  0  0  0  0  0  0  0  0
  146.7294  136.2810  156.0230 C   0  0  2  0  0  0  0  0  0  0  0  0
  147.7046  136.1623  154.9914 O   0  0  0  0  0  0  0  0  0  0  0  0
  148.9407  135.7897  155.5364 C   0  0  1  0  0  0  0  0  0  0  0  0
  149.9370  136.9158  155.3443 N   0  0  0  0  0  0  0  0  0  0  0  0
  149.5918  138.1166  154.7362 C   0  0  0  0  0  0  0  0  0  0  0  0
  150.4679  139.1350  154.5651 C   0  0  0  0  0  0  0  0  0  0  0  0
  151.8469  139.0125  155.0270 C   0  0  0  0  0  0  0  0  0  0  0  0
  152.7122  139.8778  154.9130 O   0  0  0  0  0  0  0  0  0  0  0  0
  152.1467  137.7933  155.6413 N   0  0  0  0  0  0  0  0  0  0  0  0
  151.2518  136.7387  155.8270 C   0  0  0  0  0  0  0  0  0  0  0  0
  151.6176  135.7107  156.3961 O   0  0  0  0  0  0  0  0  0  0  0  0
  148.7051  135.4345  157.0238 C   0  0  1  0  0  0  0  0  0  0  0  0
  149.0921  136.4760  157.9091 O   0  0  0  0  0  0  0  0  0  0  0  0
  147.1984  135.2313  157.0294 C   0  0  1  0  0  0  0  0  0  0  0  0
  146.6439  135.3640  158.3361 O   0  0  0  0  0  0  0  0  0  0  0  0
  146.9764  134.5103  159.3300 C   0  0  0  0  0  0  0  0  0  0  0  0
  147.2937  133.3335  159.1473 O   0  0  0  0  0  0  0  0  0  0  0  0
  146.8769  135.1312  160.6812 C   0  0  0  0  0  0  0  0  0  0  0  0
  146.9016  136.5404  160.7984 C   0  0  0  0  0  0  0  0  0  0  0  0
  146.8361  137.1559  162.0634 C   0  0  0  0  0  0  0  0  0  0  0  0
  146.7419  136.3695  163.2260 C   0  0  0  0  0  0  0  0  0  0  0  0
  146.7132  134.9667  163.1224 C   0  0  0  0  0  0  0  0  0  0  0  0
  146.7804  134.3491  161.8583 C   0  0  0  0  0  0  0  0  0  0  0  0
  144.6519  133.9115  152.4919 C   0  0  0  0  0  0  0  0  0  0  0  0
  143.5929  133.4492  151.6766 C   0  0  0  0  0  0  0  0  0  0  0  0
  143.8278  132.4921  150.6704 C   0  0  0  0  0  0  0  0  0  0  0  0
  145.1242  131.9840  150.4682 C   0  0  0  0  0  0  0  0  0  0  0  0
  146.1854  132.4320  151.2759 C   0  0  0  0  0  0  0  0  0  0  0  0
  145.9521  133.3885  152.2829 C   0  0  0  0  0  0  0  0  0  0  0  0
  153.0885  137.6674  155.9832 H   0  0  0  0  0  0  0  0  0  0  0  0
  144.8793  136.9915  155.1558 H   0  0  0  0  0  0  0  0  0  0  0  0
  144.6809  135.5908  156.2030 H   0  0  0  0  0  0  0  0  0  0  0  0
  146.7989  137.2816  156.4531 H   0  0  0  0  0  0  0  0  0  0  0  0
  149.3105  134.9498  154.9450 H   0  0  0  0  0  0  0  0  0  0  0  0
  148.5842  138.2696  154.3808 H   0  0  0  0  0  0  0  0  0  0  0  0
  150.1463  140.0477  154.0846 H   0  0  0  0  0  0  0  0  0  0  0  0
  149.2453  134.5238  157.2841 H   0  0  0  0  0  0  0  0  0  0  0  0
  148.3568  136.6846  158.4648 H   0  0  0  0  0  0  0  0  0  0  0  0
  147.0018  134.2414  156.6147 H   0  0  0  0  0  0  0  0  0  0  0  0
  146.9827  137.1648  159.9204 H   0  0  0  0  0  0  0  0  0  0  0  0
  146.8619  138.2328  162.1409 H   0  0  0  0  0  0  0  0  0  0  0  0
  146.6928  136.8416  164.1961 H   0  0  0  0  0  0  0  0  0  0  0  0
  146.6411  134.3619  164.0142 H   0  0  0  0  0  0  0  0  0  0  0  0
  146.7593  133.2702  161.8144 H   0  0  0  0  0  0  0  0  0  0  0  0
  142.5901  133.8296  151.8087 H   0  0  0  0  0  0  0  0  0  0  0  0
  143.0120  132.1494  150.0510 H   0  0  0  0  0  0  0  0  0  0  0  0
  145.3044  131.2524  149.6945 H   0  0  0  0  0  0  0  0  0  0  0  0
  147.1820  132.0461  151.1200 H   0  0  0  0  0  0  0  0  0  0  0  0
  146.7910  133.7161  152.8794 H   0  0  0  0  0  0  0  0  0  0  0  0
  1  2  2  0  0  0  0
  2  3  1  0  0  0  0
  2 28  1  0  0  0  0
  3  4  1  0  0  0  0
  4  5  1  0  0  0  0
  4 35  1  0  0  0  0
  4 36  1  0  0  0  0
  5 18  1  0  0  0  0
  5  6  1  0  0  0  0
  5 37  1  0  0  0  0
  6  7  1  0  0  0  0
  7  8  1  0  0  0  0
  7 16  1  0  0  0  0
  7 38  1  0  0  0  0
  8 14  1  0  0  0  0
  8  9  1  0  0  0  0
  9 10  2  0  0  0  0
  9 39  1  0  0  0  0
 10 11  1  0  0  0  0
 10 40  1  0  0  0  0
 11 12  2  0  0  0  0
 11 13  1  0  0  0  0
 13 34  1  0  0  0  0
 13 14  1  0  0  0  0
 14 15  2  0  0  0  0
 16 17  1  0  0  0  0
 16 18  1  0  0  0  0
 16 41  1  0  0  0  0
 17 42  1  0  0  0  0
 18 19  1  0  0  0  0
 18 43  1  0  0  0  0
 19 20  1  0  0  0  0
 20 21  2  0  0  0  0
 20 22  1  0  0  0  0
 22 27  1  0  0  0  0
 22 23  2  0  0  0  0
 23 24  1  0  0  0  0
 23 44  1  0  0  0  0
 24 25  2  0  0  0  0
 24 45  1  0  0  0  0
 25 26  1  0  0  0  0
 25 46  1  0  0  0  0
 26 27  2  0  0  0  0
 26 47  1  0  0  0  0
 27 48  1  0  0  0  0
 28 33  1  0  0  0  0
 28 29  2  0  0  0  0
 29 30  1  0  0  0  0
 29 49  1  0  0  0  0
 30 31  2  0  0  0  0
 30 50  1  0  0  0  0
 31 32  1  0  0  0  0
 31 51  1  0  0  0  0
 32 33  2  0  0  0  0
 32 52  1  0  0  0  0
 33 53  1  0  0  0  0
M  END
> <s_m_source_file>
AV-unprocessed.smi

> <i_m_source_file_index>
99

> <i_lp_mmshare_version>
43012

> <i_f3d_flags>
0

> <s_epik_input>
W2NIXTFbY0hdW2NIXVtjSF1bY0hdYzFDKD1PKU9bQ0gyXVtDQEBIXTJPW0NAQEhdKG4zW2NIXVtjSF1jKD1PKVtuSF1jMz1PKVtDQEBIXShbT0hdKVtDQEhdMk9DKD1PKWM0W2NIXVtjSF1bY0hdW2NIXVtjSF00

> <s_epik_cmdline>
J2VwaWtfcHl0aG9uJywgJy1waCcsICc3LjAnLCAnLXRuJywgJzgnLCAnLW1hJywgJzIwMCcsICctbWV0YWxfYmluZGluZycsICctaW1hZScsICc8aW5maWxlLm1hZT4nLCAnLW9tYWUnLCAnPG91dGZpbGUubWFlPic=

> <r_lp_tautomer_probability>
1

> <r_epik_Ionization_Penalty>
0.00454555

> <r_epik_Ionization_Penalty_Charging>
0.0045191

> <r_epik_Ionization_Penalty_Neutral>
2.64449e-05

> <r_epik_State_Penalty>
-0

> <r_epik_Charging_Adjusted_Penalty>
0.0045191

> <i_epik_Tot_Q>
0

> <i_epik_Tot_abs_Q>
0

> <r_epik_Metal_State_Penalty>
1.27877

> <b_epik_Metal_Only>
0

> <s_epik_Chemistry_Notes>
This compound has an ester and may undergo hydrolysis at high or low pH. This compound contains an acetal/aminal-like group ( X-CH(R)-Y where X, Y are N, S, or O) that may be acid/base labile, releasing an aldehyde.

> <s_lp_Force_Field>
OPLS_2005

> <r_lp_Energy>
44.6164

> <b_lp_Chiralities_Consistent>
1

> <s_lp_Variant>
AV-unprocessed.smi:99-1

> <Gold.Version>
5.8.1

> <Gold.Id.Protein>
6NUR|6NUR_protein|mol2

> <Gold.PLP.Fitness>
51.6568

> <Gold.PLP.PLP>
-46.4577

> <Gold.PLP.part.hbond>
-2.9936

> <Gold.PLP.part.metal>
0.0000

> <Gold.PLP.part.buried>
-3.0171

> <Gold.PLP.part.nonpolar>
-40.7968

> <Gold.PLP.part.repulsive>
0.4482

> <Gold.PLP.ligand.clash>
0.0000

> <Gold.PLP.ligand.torsion>
0.9623

> <Gold.PLP.Chemscore.Hbond>
2.2808

> <Gold.PLP.Chemscore.CHOScore>
0.0000

> <Gold.PLP.Chemscore.Metal>
0.0000

> <Gold.Chemscore.Hbonds>
donor molecule, donor type, donor heavy atom, donor atom, acceptor molecule, acceptor atom, score
      P1  H  7989  7998       L1    12  0.32
      P1  H  7997  8009       L1    12  1.00
      P1  H 10752 10764       L1    15  0.66

> <Gold.PLP.Chemscore.Internal.Correction>
0.2812

> <Gold.Rescore>
     Score         DG    S(hbond)    S(metal)    S(lipo)     H(rot)  DE(clash)    DE(int)     intcor
     13.87     -15.48       1.75        0.00     105.30       3.19       0.68       0.93       ----

> <Gold.Chemscore.Fitness>
13.8673

> <Gold.Chemscore.DG>
-15.4789

> <Gold.Chemscore.ZeroCoef>
-5.4800

> <Gold.Chemscore.Hbond>
1.7501

> <Gold.Chemscore.Metal>
0.0000

> <Gold.Chemscore.Lipo>
105.3036

> <Gold.Chemscore.Internal_Hbond>
0.0000

> <Gold.Chemscore.DEClash>
0.6781

> <Gold.Chemscore.DEInternal>
0.9335

> <Gold.Chemscore.Rot>
3.1903

> <Gold.Chemscore.Internal.Correction>
   9.000000E+99

> <Gold.Chemscore.Hbonds>
donor molecule, donor type, donor heavy atom, donor atom, acceptor molecule, acceptor atom, score
      P1  H  7989  7998       L1    12  0.03
      P1  H  7997  8009       L1    12  0.94
      P1  H 10752 10764       L1    15  0.10

> <Gold.Chemscore.Hbond.Weighted>
-5.8454

> <Gold.Chemscore.Metal.Weighted>
-0.0000

> <Gold.Chemscore.Lipo.Weighted>
-12.3205

> <Gold.Chemscore.Internal_Hbond.Weighted>
0.0000

> <Gold.Chemscore.DEClash.Weighted>
0.6781

> <Gold.Chemscore.DEInternal.Weighted>
0.9335

> <Gold.Chemscore.Rot.Weighted>
8.1671

> <Gold.Chemscore.Internal.Correction.Weighted>
   9.000000E+99

> <Gold.Protein.RotatedTorsions>
[ 6907 6896 6895 6894 ] final  115.93 input  -60.11 | X-H torsion
[ 7974 7965 7964 7962 ] final  -67.31 input  175.53 | X-H torsion
[ 8008 7997 7996 7995 ] final -135.27 input   59.86 | X-H torsion
[ 10167 10162 10161 10158 ] final   95.96 input  -65.29 | X-H torsion
[ 10718 10713 10712 10709 ] final  171.47 input   66.30 | X-H torsion
[ 10763 10752 10751 10750 ] final  -13.13 input  -60.55 | X-H torsion
[ 11005 11000 10999 10996 ] final   21.44 input  -57.11 | X-H torsion

> <Gold.Protein.ActiveResidues>
 VAL166  LYS551  ARG553  GLY616  TRP617  ASP618  TYR619  PRO620  LYS621  CYS622 
 ASP623  PHE694  ASN695  SER759  ASP760  ASP761  ALA762  ILE779  LEU786  VAL792 
 PHE793  MET794  SER795  GLU796  ALA797  LYS798  CYS799  TRP800  GLU811  SER814 

> <Gold.Protein.RotatedAtoms>
  152.4710  133.8030  159.6962 H   0  0  0  0  0  0  0  0  0  0  0  0  # atno 6907 bound_to 6896
  150.8700  133.7510  159.2971 H   0  0  0  0  0  0  0  0  0  0  0  0  # atno 6908 bound_to 6896
  151.5048  135.1066  159.9890 H   0  0  0  0  0  0  0  0  0  0  0  0  # atno 6909 bound_to 6896
  145.7307  140.8998  143.0581 H   0  0  0  0  0  0  0  0  0  0  0  0  # atno 7974 bound_to 7965
  155.3759  140.0491  157.3044 H   0  0  0  0  0  0  0  0  0  0  0  0  # atno 8008 bound_to 7997
  154.5107  140.2190  155.9125 H   0  0  0  0  0  0  0  0  0  0  0  0  # atno 8009 bound_to 7997
  156.1579  140.3122  155.8762 H   0  0  0  0  0  0  0  0  0  0  0  0  # atno 8010 bound_to 7997
  139.7940  144.6841  150.9854 H   0  0  0  0  0  0  0  0  0  0  0  0  # atno 10167 bound_to 10162
  156.9931  131.0153  151.2851 H   0  0  0  0  0  0  0  0  0  0  0  0  # atno 10718 bound_to 10713
  153.5087  135.7016  153.5792 H   0  0  0  0  0  0  0  0  0  0  0  0  # atno 10763 bound_to 10752
  153.3892  135.3900  155.1911 H   0  0  0  0  0  0  0  0  0  0  0  0  # atno 10764 bound_to 10752
  154.8705  135.3854  154.4565 H   0  0  0  0  0  0  0  0  0  0  0  0  # atno 10765 bound_to 10752
  140.3915  134.1814  155.7662 H   0  0  0  0  0  0  0  0  0  0  0  0  # atno 11005 bound_to 11000
  144.6893  139.9327  143.7472 LP  0  0  0  0  0  0  0  0  0  0  0  0  # atno 17320 bound_to 7965
  146.0540  139.3538  143.0622 LP  0  0  0  0  0  0  0  0  0  0  0  0  # atno 17321 bound_to 7965
  140.7820  143.4351  151.0635 LP  0  0  0  0  0  0  0  0  0  0  0  0  # atno 17342 bound_to 10162
  139.8026  143.8062  152.3164 LP  0  0  0  0  0  0  0  0  0  0  0  0  # atno 17343 bound_to 10162
  157.5444  130.8141  149.8068 LP  0  0  0  0  0  0  0  0  0  0  0  0  # atno 17370 bound_to 10713
  156.0199  130.3799  150.1993 LP  0  0  0  0  0  0  0  0  0  0  0  0  # atno 17371 bound_to 10713
  141.1889  133.8250  157.0977 LP  0  0  0  0  0  0  0  0  0  0  0  0  # atno 17394 bound_to 11000
  140.0403  134.9858  157.0949 LP  0  0  0  0  0  0  0  0  0  0  0  0  # atno 17395 bound_to 11000

$$$$
