AV-unprocessed.smi:1877|AV-procd|sdf|7623|dock3
  -GOLD-   22720 9353D 1   1.00000     0.00000
 Structure written by MMmdl.
 32 34  0  0  0  0  0  0  0  0  1 V2000
  152.7755  140.5431  158.1259 O   0  0  0  0  0  0  0  0  0  0  0  0
  151.9939  141.7202  158.0946 C   0  0  1  0  0  0  0  0  0  0  0  0
  150.5214  141.3147  157.8831 C   0  0  0  0  0  0  0  0  0  0  0  0
  150.2332  140.9900  156.4973 N   0  0  0  0  0  0  0  0  0  0  0  0
  151.0482  140.3626  155.6278 C   0  0  0  0  0  0  0  0  0  0  0  0
  150.5923  140.1717  154.3932 N   0  0  0  0  0  0  0  0  0  0  0  0
  149.3339  140.7433  154.4688 C   0  0  0  0  0  0  0  0  0  0  0  0
  148.3279  140.8789  153.4853 C   0  0  0  0  0  0  0  0  0  0  0  0
  147.1069  141.5134  153.7949 C   0  0  0  0  0  0  0  0  0  0  0  0
  146.8718  142.0187  155.0902 C   0  0  0  0  0  0  0  0  0  0  0  0
  147.8574  141.8920  156.0874 C   0  0  0  0  0  0  0  0  0  0  0  0
  149.0761  141.2614  155.7740 C   0  0  0  0  0  0  0  0  0  0  0  0
  152.1833  142.5728  159.3443 C   0  0  0  0  0  0  0  0  0  0  0  0
  152.8224  142.0332  160.4831 C   0  0  0  0  0  0  0  0  0  0  0  0
  152.9690  142.8059  161.6509 C   0  0  0  0  0  0  0  0  0  0  0  0
  153.5783  142.2788  162.7391 F   0  0  0  0  0  0  0  0  0  0  0  0
  152.4778  144.1243  161.6890 C   0  0  0  0  0  0  0  0  0  0  0  0
  151.8395  144.6688  160.5588 C   0  0  0  0  0  0  0  0  0  0  0  0
  151.6909  143.8974  159.3897 C   0  0  0  0  0  0  0  0  0  0  0  0
  151.0605  144.4332  158.3169 F   0  0  0  0  0  0  0  0  0  0  0  0
  152.4964  140.0180  158.8605 H   0  0  0  0  0  0  0  0  0  0  0  0
  152.3332  142.2816  157.2234 H   0  0  0  0  0  0  0  0  0  0  0  0
  150.2845  140.4365  158.4857 H   0  0  0  0  0  0  0  0  0  0  0  0
  149.8467  142.1068  158.2105 H   0  0  0  0  0  0  0  0  0  0  0  0
  152.0347  140.0306  155.9174 H   0  0  0  0  0  0  0  0  0  0  0  0
  148.4971  140.4960  152.4898 H   0  0  0  0  0  0  0  0  0  0  0  0
  146.3465  141.6130  153.0343 H   0  0  0  0  0  0  0  0  0  0  0  0
  145.9342  142.5039  155.3183 H   0  0  0  0  0  0  0  0  0  0  0  0
  147.6806  142.2801  157.0793 H   0  0  0  0  0  0  0  0  0  0  0  0
  153.1932  141.0187  160.4686 H   0  0  0  0  0  0  0  0  0  0  0  0
  152.5876  144.7167  162.5852 H   0  0  0  0  0  0  0  0  0  0  0  0
  151.4583  145.6787  160.5901 H   0  0  0  0  0  0  0  0  0  0  0  0
  1  2  1  0  0  0  0
  1 21  1  0  0  0  0
  2  3  1  0  0  0  0
  2 13  1  0  0  0  0
  2 22  1  0  0  0  0
  3  4  1  0  0  0  0
  3 23  1  0  0  0  0
  3 24  1  0  0  0  0
  4 12  1  0  0  0  0
  4  5  1  0  0  0  0
  5  6  2  0  0  0  0
  5 25  1  0  0  0  0
  6  7  1  0  0  0  0
  7 12  2  0  0  0  0
  7  8  1  0  0  0  0
  8  9  2  0  0  0  0
  8 26  1  0  0  0  0
  9 10  1  0  0  0  0
  9 27  1  0  0  0  0
 10 11  2  0  0  0  0
 10 28  1  0  0  0  0
 11 12  1  0  0  0  0
 11 29  1  0  0  0  0
 13 19  1  0  0  0  0
 13 14  2  0  0  0  0
 14 15  1  0  0  0  0
 14 30  1  0  0  0  0
 15 16  1  0  0  0  0
 15 17  2  0  0  0  0
 17 18  1  0  0  0  0
 17 31  1  0  0  0  0
 18 19  2  0  0  0  0
 18 32  1  0  0  0  0
 19 20  1  0  0  0  0
M  END
> <s_m_source_file>
AV-unprocessed.smi

> <i_m_source_file_index>
1877

> <i_lp_mmshare_version>
43012

> <i_f3d_flags>
0

> <s_epik_input>
RmMxW2NIXVtjSF1jKEYpW2NIXWMxW0NASF0oW09IXSlbQ0gyXW4oW2NIXW4yKWMoYzIzKVtjSF1bY0hdW2NIXVtjSF0z

> <s_epik_cmdline>
J2VwaWtfcHl0aG9uJywgJy1waCcsICc3LjAnLCAnLXRuJywgJzgnLCAnLW1hJywgJzIwMCcsICctbWV0YWxfYmluZGluZycsICctaW1hZScsICc8aW5maWxlLm1hZT4nLCAnLW9tYWUnLCAnPG91dGZpbGUubWFlPic=

> <r_epik_Ionization_Penalty>
0.0696522

> <r_epik_Ionization_Penalty_Charging>
0

> <r_epik_Ionization_Penalty_Neutral>
0.0696522

> <r_epik_State_Penalty>
0.0610247

> <r_epik_Charging_Adjusted_Penalty>
0.0610247

> <i_epik_Tot_Q>
0

> <i_epik_Tot_abs_Q>
0

> <r_epik_Metal_State_Penalty>
6.42746e-05

> <b_epik_Metal_Only>
0

> <s_lp_Force_Field>
OPLS_2005

> <r_lp_Energy>
11.5038

> <b_lp_Chiralities_Consistent>
1

> <s_lp_Variant>
AV-unprocessed.smi:1877-2

> <Gold.Version>
5.8.1

> <Gold.Id.Protein>
6NUR|6NUR_protein|mol2

> <Gold.PLP.Fitness>
53.0000

> <Gold.PLP.PLP>
-49.7660

> <Gold.PLP.part.hbond>
-1.9760

> <Gold.PLP.part.metal>
0.0000

> <Gold.PLP.part.buried>
-1.1650

> <Gold.PLP.part.nonpolar>
-45.2984

> <Gold.PLP.part.repulsive>
0.1044

> <Gold.PLP.ligand.clash>
0.0000

> <Gold.PLP.ligand.torsion>
0.7872

> <Gold.PLP.Chemscore.Hbond>
1.5967

> <Gold.PLP.Chemscore.CHOScore>
0.0000

> <Gold.PLP.Chemscore.Metal>
0.0000

> <Gold.Chemscore.Hbonds>
donor molecule, donor type, donor heavy atom, donor atom, acceptor molecule, acceptor atom, score
      P1  H  7989  7998       L1     6  1.00
      P1  H  7997  8010       L1     1  0.56

> <Gold.PLP.Chemscore.Internal.Correction>
0.0183

> <Gold.Rescore>
     Score         DG    S(hbond)    S(metal)    S(lipo)     H(rot)  DE(clash)    DE(int)     intcor
     16.80     -18.02       1.18        0.00     117.23       2.00       0.47       0.76       ----

> <Gold.Chemscore.Fitness>
16.7979

> <Gold.Chemscore.DG>
-18.0227

> <Gold.Chemscore.ZeroCoef>
-5.4800

> <Gold.Chemscore.Hbond>
1.1849

> <Gold.Chemscore.Metal>
0.0000

> <Gold.Chemscore.Lipo>
117.2265

> <Gold.Chemscore.Internal_Hbond>
0.0000

> <Gold.Chemscore.DEClash>
0.4659

> <Gold.Chemscore.DEInternal>
0.7589

> <Gold.Chemscore.Rot>
2.0040

> <Gold.Chemscore.Internal.Correction>
   9.000000E+99

> <Gold.Chemscore.Hbonds>
donor molecule, donor type, donor heavy atom, donor atom, acceptor molecule, acceptor atom, score
      P1  H  7989  7998       L1     6  0.44
      P1  H  7997  8010       L1     1  0.56

> <Gold.Chemscore.Hbond.Weighted>
-3.9575

> <Gold.Chemscore.Metal.Weighted>
-0.0000

> <Gold.Chemscore.Lipo.Weighted>
-13.7155

> <Gold.Chemscore.Internal_Hbond.Weighted>
0.0000

> <Gold.Chemscore.DEClash.Weighted>
0.4659

> <Gold.Chemscore.DEInternal.Weighted>
0.7589

> <Gold.Chemscore.Rot.Weighted>
5.1303

> <Gold.Chemscore.Internal.Correction.Weighted>
   9.000000E+99

> <Gold.Protein.RotatedTorsions>
[ 6907 6896 6895 6894 ] final  -46.90 input  -60.11 | X-H torsion
[ 7974 7965 7964 7962 ] final  -80.38 input  175.53 | X-H torsion
[ 8008 7997 7996 7995 ] final   42.49 input   59.86 | X-H torsion
[ 10167 10162 10161 10158 ] final  -47.11 input  -65.29 | X-H torsion
[ 10718 10713 10712 10709 ] final -168.96 input   66.30 | X-H torsion
[ 10763 10752 10751 10750 ] final  -19.14 input  -60.55 | X-H torsion
[ 11005 11000 10999 10996 ] final  170.75 input  -57.11 | X-H torsion

> <Gold.Protein.ActiveResidues>
 VAL166  LYS551  ARG553  GLY616  TRP617  ASP618  TYR619  PRO620  LYS621  CYS622 
 ASP623  PHE694  ASN695  SER759  ASP760  ASP761  ALA762  ILE779  LEU786  VAL792 
 PHE793  MET794  SER795  GLU796  ALA797  LYS798  CYS799  TRP800  GLU811  SER814 

> <Gold.Protein.RotatedAtoms>
  150.9064  134.8479  159.7395 H   0  0  0  0  0  0  0  0  0  0  0  0  # atno 6907 bound_to 6896
  152.4921  134.4425  159.9558 H   0  0  0  0  0  0  0  0  0  0  0  0  # atno 6908 bound_to 6896
  151.4472  133.3588  159.2825 H   0  0  0  0  0  0  0  0  0  0  0  0  # atno 6909 bound_to 6896
  145.5606  140.9482  143.1449 H   0  0  0  0  0  0  0  0  0  0  0  0  # atno 7974 bound_to 7965
  155.2870  140.3376  155.4254 H   0  0  0  0  0  0  0  0  0  0  0  0  # atno 8008 bound_to 7997
  156.2063  140.1752  156.7832 H   0  0  0  0  0  0  0  0  0  0  0  0  # atno 8009 bound_to 7997
  154.5626  140.0684  156.8826 H   0  0  0  0  0  0  0  0  0  0  0  0  # atno 8010 bound_to 7997
  140.6789  143.2799  151.3880 H   0  0  0  0  0  0  0  0  0  0  0  0  # atno 10167 bound_to 10162
  156.7045  130.9209  151.3083 H   0  0  0  0  0  0  0  0  0  0  0  0  # atno 10718 bound_to 10713
  153.6002  135.6999  153.5388 H   0  0  0  0  0  0  0  0  0  0  0  0  # atno 10763 bound_to 10752
  153.3104  135.4103  155.1330 H   0  0  0  0  0  0  0  0  0  0  0  0  # atno 10764 bound_to 10752
  154.8584  135.3670  154.5537 H   0  0  0  0  0  0  0  0  0  0  0  0  # atno 10765 bound_to 10752
  140.3116  134.7512  157.3996 H   0  0  0  0  0  0  0  0  0  0  0  0  # atno 11005 bound_to 11000
  144.7484  139.7257  143.7283 LP  0  0  0  0  0  0  0  0  0  0  0  0  # atno 17320 bound_to 7965
  146.1853  139.5066  142.9840 LP  0  0  0  0  0  0  0  0  0  0  0  0  # atno 17321 bound_to 7965
  139.6098  144.1121  152.2287 LP  0  0  0  0  0  0  0  0  0  0  0  0  # atno 17342 bound_to 10162
  140.0532  144.5916  150.7320 LP  0  0  0  0  0  0  0  0  0  0  0  0  # atno 17343 bound_to 10162
  157.6960  130.9282  150.0646 LP  0  0  0  0  0  0  0  0  0  0  0  0  # atno 17370 bound_to 10713
  156.1705  130.3646  149.9172 LP  0  0  0  0  0  0  0  0  0  0  0  0  # atno 17371 bound_to 10713
  140.1019  134.5461  155.8345 LP  0  0  0  0  0  0  0  0  0  0  0  0  # atno 17394 bound_to 11000
  141.2107  133.6697  156.6526 LP  0  0  0  0  0  0  0  0  0  0  0  0  # atno 17395 bound_to 11000

$$$$
