AV-unprocessed.smi:2562|AV-procd|sdf|10042|dock7
  -GOLD-   2272014 83D 1   1.00000     0.00000
 Structure written by MMmdl.
 31 32  0  0  0  0  0  0  0  0  2 V2000
  154.4252  142.9423  164.2883 C   0  0  0  0  0  0  0  0  0  0  0  0
  153.9636  142.3145  162.9686 C   0  0  0  0  0  0  0  0  0  0  0  0
  152.8467  143.1212  162.2911 C   0  0  0  0  0  0  0  0  0  0  0  0
  152.5199  142.6126  160.9251 C   0  0  0  0  0  0  0  0  0  0  0  0
  153.1701  141.5870  160.3713 N   0  0  0  0  0  0  0  0  0  0  0  0
  152.6568  141.3411  159.1471 N   0  0  0  0  0  0  0  0  0  0  0  0
  151.6883  142.2522  159.0633 C   0  0  0  0  0  0  0  0  0  0  0  0
  150.8585  142.3753  157.8233 C   0  0  2  0  0  0  0  0  0  0  0  0
  149.3485  142.3330  158.1254 C   0  0  0  0  0  0  0  0  0  0  0  0
  148.5833  142.3570  156.8637 N   0  3  0  0  0  0  0  0  0  0  0  0
  149.0056  141.2732  155.9540 C   0  0  0  0  0  0  0  0  0  0  0  0
  150.5265  141.3337  155.7253 C   0  0  0  0  0  0  0  0  0  0  0  0
  151.2043  141.2810  156.9766 O   0  0  0  0  0  0  0  0  0  0  0  0
  151.5617  143.0900  160.1381 N   0  0  0  0  0  0  0  0  0  0  0  0
  153.9332  141.0565  160.7677 H   0  0  0  0  0  0  0  0  0  0  0  0
  155.2146  142.3463  164.7466 H   0  0  0  0  0  0  0  0  0  0  0  0
  153.6027  143.0095  165.0008 H   0  0  0  0  0  0  0  0  0  0  0  0
  154.8166  143.9478  164.1308 H   0  0  0  0  0  0  0  0  0  0  0  0
  154.8161  142.2313  162.2936 H   0  0  0  0  0  0  0  0  0  0  0  0
  153.6178  141.2975  163.1572 H   0  0  0  0  0  0  0  0  0  0  0  0
  151.9415  143.0882  162.8989 H   0  0  0  0  0  0  0  0  0  0  0  0
  153.1336  144.1711  162.2183 H   0  0  0  0  0  0  0  0  0  0  0  0
  151.1152  143.3107  157.3218 H   0  0  0  0  0  0  0  0  0  0  0  0
  149.0947  141.4272  158.6785 H   0  0  0  0  0  0  0  0  0  0  0  0
  149.0538  143.1815  158.7435 H   0  0  0  0  0  0  0  0  0  0  0  0
  147.5981  142.2620  157.0656 H   0  0  0  0  0  0  0  0  0  0  0  0
  148.7285  140.3116  156.3884 H   0  0  0  0  0  0  0  0  0  0  0  0
  148.4706  141.3652  155.0085 H   0  0  0  0  0  0  0  0  0  0  0  0
  150.8483  140.4914  155.1127 H   0  0  0  0  0  0  0  0  0  0  0  0
  150.8040  142.2418  155.1877 H   0  0  0  0  0  0  0  0  0  0  0  0
  148.7424  143.2437  156.4064 H   0  0  0  0  0  0  0  0  0  0  0  0
  1  2  1  0  0  0  0
  1 16  1  0  0  0  0
  1 17  1  0  0  0  0
  1 18  1  0  0  0  0
  2  3  1  0  0  0  0
  2 19  1  0  0  0  0
  2 20  1  0  0  0  0
  3 21  1  0  0  0  0
  3 22  1  0  0  0  0
  3  4  1  0  0  0  0
  4 14  2  0  0  0  0
  4  5  1  0  0  0  0
  5  6  1  0  0  0  0
  5 15  1  0  0  0  0
  6  7  2  0  0  0  0
  7 14  1  0  0  0  0
  7  8  1  0  0  0  0
  8 13  1  0  0  0  0
  8  9  1  0  0  0  0
  8 23  1  0  0  0  0
  9 10  1  0  0  0  0
  9 24  1  0  0  0  0
  9 25  1  0  0  0  0
 10 11  1  0  0  0  0
 10 26  1  0  0  0  0
 10 31  1  0  0  0  0
 11 12  1  0  0  0  0
 11 27  1  0  0  0  0
 11 28  1  0  0  0  0
 12 13  1  0  0  0  0
 12 29  1  0  0  0  0
 12 30  1  0  0  0  0
M  CHG  1  10   1
M  END
> <s_m_source_file>
AV-unprocessed.smi

> <i_m_source_file_index>
2562

> <i_lp_mmshare_version>
43012

> <i_f3d_flags>
0

> <s_epik_input>
W0NIM11bQ0gyXVtDSDJdYzFuW25IXWMobjEpW0NAQEhdMltDSDJdW05IXVtDSDJdW0NIMl1PMg==

> <s_epik_cmdline>
J2VwaWtfcHl0aG9uJywgJy1waCcsICc3LjAnLCAnLXRuJywgJzgnLCAnLW1hJywgJzIwMCcsICctbWV0YWxfYmluZGluZycsICctaW1hZScsICc8aW5maWxlLm1hZT4nLCAnLW9tYWUnLCAnPG91dGZpbGUubWFlPic=

> <r_lp_tautomer_probability>
0.948284

> <r_epik_Ionization_Penalty>
0.10647

> <r_epik_Ionization_Penalty_Charging>
0.100865

> <r_epik_Ionization_Penalty_Neutral>
0.0056057

> <r_epik_State_Penalty>
0.375056

> <r_epik_Charging_Adjusted_Penalty>
0.47592

> <i_epik_Tot_Q>
1

> <i_epik_Tot_abs_Q>
1

> <r_epik_Metal_State_Penalty>
0.497514

> <b_epik_Metal_Only>
0

> <s_lp_Force_Field>
OPLS_2005

> <r_lp_Energy>
10.3016

> <b_lp_Chiralities_Consistent>
1

> <s_lp_Variant>
AV-unprocessed.smi:2562-1

> <Gold.Version>
5.8.1

> <Gold.Id.Protein>
6NUR|6NUR_protein|mol2

> <Gold.PLP.Fitness>
34.1115

> <Gold.PLP.PLP>
-28.2864

> <Gold.PLP.part.hbond>
-1.3619

> <Gold.PLP.part.metal>
0.0000

> <Gold.PLP.part.buried>
-3.0184

> <Gold.PLP.part.nonpolar>
-21.8963

> <Gold.PLP.part.repulsive>
0.1478

> <Gold.PLP.ligand.clash>
0.0000

> <Gold.PLP.ligand.torsion>
0.0949

> <Gold.PLP.Chemscore.Hbond>
2.0000

> <Gold.PLP.Chemscore.CHOScore>
0.0000

> <Gold.PLP.Chemscore.Metal>
0.0000

> <Gold.Chemscore.Hbonds>
donor molecule, donor type, donor heavy atom, donor atom, acceptor molecule, acceptor atom, score
      L1  H    10    31       P1  8028  2.00

> <Gold.PLP.Chemscore.Internal.Correction>
0.0148

> <Gold.Rescore>
     Score         DG    S(hbond)    S(metal)    S(lipo)     H(rot)  DE(clash)    DE(int)     intcor
     11.94     -12.05       1.00        0.00      60.84       1.51       0.03       0.08       ----

> <Gold.Chemscore.Fitness>
11.9450

> <Gold.Chemscore.DG>
-12.0539

> <Gold.Chemscore.ZeroCoef>
-5.4800

> <Gold.Chemscore.Hbond>
0.9954

> <Gold.Chemscore.Metal>
0.0000

> <Gold.Chemscore.Lipo>
60.8433

> <Gold.Chemscore.Internal_Hbond>
0.0000

> <Gold.Chemscore.DEClash>
0.0290

> <Gold.Chemscore.DEInternal>
0.0800

> <Gold.Chemscore.Rot>
1.5115

> <Gold.Chemscore.Internal.Correction>
   9.000000E+99

> <Gold.Chemscore.Hbonds>
donor molecule, donor type, donor heavy atom, donor atom, acceptor molecule, acceptor atom, score
      L1  H    10    31       P1  8028  0.92

> <Gold.Chemscore.Hbond.Weighted>
-3.3247

> <Gold.Chemscore.Metal.Weighted>
-0.0000

> <Gold.Chemscore.Lipo.Weighted>
-7.1187

> <Gold.Chemscore.Internal_Hbond.Weighted>
0.0000

> <Gold.Chemscore.DEClash.Weighted>
0.0290

> <Gold.Chemscore.DEInternal.Weighted>
0.0800

> <Gold.Chemscore.Rot.Weighted>
3.8695

> <Gold.Chemscore.Internal.Correction.Weighted>
   9.000000E+99

> <Gold.Protein.RotatedTorsions>
[ 6907 6896 6895 6894 ] final  156.10 input  -60.11 | X-H torsion
[ 7974 7965 7964 7962 ] final  -97.16 input  175.53 | X-H torsion
[ 8008 7997 7996 7995 ] final  -76.52 input   59.86 | X-H torsion
[ 10167 10162 10161 10158 ] final -145.22 input  -65.29 | X-H torsion
[ 10718 10713 10712 10709 ] final   70.24 input   66.30 | X-H torsion
[ 10763 10752 10751 10750 ] final   37.16 input  -60.55 | X-H torsion
[ 11005 11000 10999 10996 ] final  127.35 input  -57.11 | X-H torsion

> <Gold.Protein.ActiveResidues>
 VAL166  LYS551  ARG553  GLY616  TRP617  ASP618  TYR619  PRO620  LYS621  CYS622 
 ASP623  PHE694  ASN695  SER759  ASP760  ASP761  ALA762  ILE779  LEU786  VAL792 
 PHE793  MET794  SER795  GLU796  ALA797  LYS798  CYS799  TRP800  GLU811  SER814 

> <Gold.Protein.RotatedAtoms>
  152.0346  133.3952  159.4311 H   0  0  0  0  0  0  0  0  0  0  0  0  # atno 6907 bound_to 6896
  150.6879  134.3482  159.4907 H   0  0  0  0  0  0  0  0  0  0  0  0  # atno 6908 bound_to 6896
  152.1273  134.9161  160.0611 H   0  0  0  0  0  0  0  0  0  0  0  0  # atno 6909 bound_to 6896
  145.3374  140.9453  143.2627 H   0  0  0  0  0  0  0  0  0  0  0  0  # atno 7974 bound_to 7965
  154.5512  140.0726  156.8671 H   0  0  0  0  0  0  0  0  0  0  0  0  # atno 8008 bound_to 7997
  155.2989  140.3383  155.4230 H   0  0  0  0  0  0  0  0  0  0  0  0  # atno 8009 bound_to 7997
  156.1963  140.1705  156.7977 H   0  0  0  0  0  0  0  0  0  0  0  0  # atno 8010 bound_to 7997
  139.7826  143.8079  152.2640 H   0  0  0  0  0  0  0  0  0  0  0  0  # atno 10167 bound_to 10162
  157.6389  130.9467  150.0624 H   0  0  0  0  0  0  0  0  0  0  0  0  # atno 10718 bound_to 10713
  153.0048  135.6285  154.2101 H   0  0  0  0  0  0  0  0  0  0  0  0  # atno 10763 bound_to 10752
  154.1844  135.2812  155.3043 H   0  0  0  0  0  0  0  0  0  0  0  0  # atno 10764 bound_to 10752
  154.5809  135.5648  153.7244 H   0  0  0  0  0  0  0  0  0  0  0  0  # atno 10765 bound_to 10752
  139.9503  134.9623  156.8841 H   0  0  0  0  0  0  0  0  0  0  0  0  # atno 11005 bound_to 11000
  144.8817  139.4895  143.6720 LP  0  0  0  0  0  0  0  0  0  0  0  0  # atno 17320 bound_to 7965
  146.3021  139.7461  142.9083 LP  0  0  0  0  0  0  0  0  0  0  0  0  # atno 17321 bound_to 7965
  139.8146  144.7321  150.9652 LP  0  0  0  0  0  0  0  0  0  0  0  0  # atno 17342 bound_to 10162
  140.7819  143.4217  151.0831 LP  0  0  0  0  0  0  0  0  0  0  0  0  # atno 17343 bound_to 10162
  156.1652  130.3645  149.9242 LP  0  0  0  0  0  0  0  0  0  0  0  0  # atno 17370 bound_to 10713
  156.7230  130.9014  151.3620 LP  0  0  0  0  0  0  0  0  0  0  0  0  # atno 17371 bound_to 10713
  140.5736  134.0420  155.7439 LP  0  0  0  0  0  0  0  0  0  0  0  0  # atno 17394 bound_to 11000
  141.1164  133.9533  157.2814 LP  0  0  0  0  0  0  0  0  0  0  0  0  # atno 17395 bound_to 11000

$$$$
