AV-unprocessed.smi:2121|AV-procd|sdf|8644|dock2
  -GOLD-   2272011393D 1   1.00000     0.00000
 Structure written by MMmdl.
 49 50  0  0  0  0  0  0  0  0  1 V2000
  150.0862  141.7067  156.7000 C   0  0  0  0  0  0  0  0  0  0  0  0
  150.7464  142.5143  157.8226 C   0  0  1  0  0  0  0  0  0  0  0  0
  151.8446  141.7086  158.5393 C   0  0  0  0  0  0  0  0  0  0  0  0
  152.5364  142.5465  159.5134 N   0  0  0  0  0  0  0  0  0  0  0  0
  153.3325  141.8560  160.4524 C   0  0  0  0  0  0  0  0  0  0  0  0
  153.4125  142.3155  161.7883 C   0  0  0  0  0  0  0  0  0  0  0  0
  154.2018  141.6057  162.7127 C   0  0  0  0  0  0  0  0  0  0  0  0
  154.8983  140.4594  162.2836 C   0  0  0  0  0  0  0  0  0  0  0  0
  155.7411  139.6682  163.2757 C   0  0  0  0  0  0  0  0  0  0  0  0
  156.1378  140.4098  164.4679 N   0  0  0  0  0  0  0  0  0  0  0  0
  155.9908  139.9744  165.7282 C   0  0  0  0  0  0  0  0  0  0  0  0
  155.5166  138.8729  166.0109 O   0  0  0  0  0  0  0  0  0  0  0  0
  156.4606  140.9317  166.8346 C   0  0  2  0  0  0  0  0  0  0  0  0
  155.3145  141.0987  167.8460 C   0  0  0  0  0  0  0  0  0  0  0  0
  156.7708  142.2465  166.2753 N   0  0  0  0  0  0  0  0  0  0  0  0
  155.8660  143.1025  165.7780 C   0  0  0  0  0  0  0  0  0  0  0  0
  156.4213  144.2384  165.3549 N   0  0  0  0  0  0  0  0  0  0  0  0
  154.6580  142.8810  165.7142 O   0  0  0  0  0  0  0  0  0  0  0  0
  154.7644  140.0789  160.9302 C   0  0  0  0  0  0  0  0  0  0  0  0
  154.0085  140.7554  160.0398 N   0  0  0  0  0  0  0  0  0  0  0  0
  153.0703  143.7770  158.9336 C   0  0  0  0  0  0  0  0  0  0  0  0
  151.9764  144.5522  158.1729 C   0  0  2  0  0  0  0  0  0  0  0  0
  150.9853  145.2822  159.0968 C   0  0  0  0  0  0  0  0  0  0  0  0
  151.3136  143.6899  157.2453 O   0  0  0  0  0  0  0  0  0  0  0  0
  149.6272  140.7971  157.0881 H   0  0  0  0  0  0  0  0  0  0  0  0
  150.8140  141.4176  155.9412 H   0  0  0  0  0  0  0  0  0  0  0  0
  149.3062  142.2890  156.2089 H   0  0  0  0  0  0  0  0  0  0  0  0
  149.9715  142.7919  158.5373 H   0  0  0  0  0  0  0  0  0  0  0  0
  151.3970  140.8323  159.0062 H   0  0  0  0  0  0  0  0  0  0  0  0
  152.5737  141.3416  157.8157 H   0  0  0  0  0  0  0  0  0  0  0  0
  152.8890  143.2036  162.1094 H   0  0  0  0  0  0  0  0  0  0  0  0
  154.2708  141.9403  163.7374 H   0  0  0  0  0  0  0  0  0  0  0  0
  155.2090  138.7612  163.5679 H   0  0  0  0  0  0  0  0  0  0  0  0
  156.6473  139.3414  162.7655 H   0  0  0  0  0  0  0  0  0  0  0  0
  156.5392  141.3252  164.3252 H   0  0  0  0  0  0  0  0  0  0  0  0
  157.3393  140.5264  167.3406 H   0  0  0  0  0  0  0  0  0  0  0  0
  155.0445  140.1435  168.2985 H   0  0  0  0  0  0  0  0  0  0  0  0
  154.4178  141.5120  167.3813 H   0  0  0  0  0  0  0  0  0  0  0  0
  155.6045  141.7695  168.6553 H   0  0  0  0  0  0  0  0  0  0  0  0
  157.7397  142.5288  166.2896 H   0  0  0  0  0  0  0  0  0  0  0  0
  155.8485  144.9653  164.9523 H   0  0  0  0  0  0  0  0  0  0  0  0
  157.4200  144.3633  165.4349 H   0  0  0  0  0  0  0  0  0  0  0  0
  155.2683  139.2054  160.5436 H   0  0  0  0  0  0  0  0  0  0  0  0
  153.4988  144.4127  159.7095 H   0  0  0  0  0  0  0  0  0  0  0  0
  153.8781  143.5175  158.2479 H   0  0  0  0  0  0  0  0  0  0  0  0
  152.4703  145.3187  157.5751 H   0  0  0  0  0  0  0  0  0  0  0  0
  151.5006  146.0300  159.6999 H   0  0  0  0  0  0  0  0  0  0  0  0
  150.4834  144.6032  159.7855 H   0  0  0  0  0  0  0  0  0  0  0  0
  150.2203  145.7974  158.5157 H   0  0  0  0  0  0  0  0  0  0  0  0
  1  2  1  0  0  0  0
  1 25  1  0  0  0  0
  1 26  1  0  0  0  0
  1 27  1  0  0  0  0
  2 24  1  0  0  0  0
  2  3  1  0  0  0  0
  2 28  1  0  0  0  0
  3  4  1  0  0  0  0
  3 29  1  0  0  0  0
  3 30  1  0  0  0  0
  4  5  1  0  0  0  0
  4 21  1  0  0  0  0
  5 20  1  0  0  0  0
  5  6  2  0  0  0  0
  6  7  1  0  0  0  0
  6 31  1  0  0  0  0
  7  8  2  0  0  0  0
  7 32  1  0  0  0  0
  8  9  1  0  0  0  0
  8 19  1  0  0  0  0
  9 10  1  0  0  0  0
  9 33  1  0  0  0  0
  9 34  1  0  0  0  0
 10 11  1  0  0  0  0
 10 35  1  0  0  0  0
 11 12  2  0  0  0  0
 11 13  1  0  0  0  0
 13 14  1  0  0  0  0
 13 15  1  0  0  0  0
 13 36  1  0  0  0  0
 14 37  1  0  0  0  0
 14 38  1  0  0  0  0
 14 39  1  0  0  0  0
 15 16  1  0  0  0  0
 15 40  1  0  0  0  0
 16 17  1  0  0  0  0
 16 18  2  0  0  0  0
 17 41  1  0  0  0  0
 17 42  1  0  0  0  0
 19 20  2  0  0  0  0
 19 43  1  0  0  0  0
 21 22  1  0  0  0  0
 21 44  1  0  0  0  0
 21 45  1  0  0  0  0
 22 23  1  0  0  0  0
 22 24  1  0  0  0  0
 22 46  1  0  0  0  0
 23 47  1  0  0  0  0
 23 48  1  0  0  0  0
 23 49  1  0  0  0  0
M  END
> <s_m_source_file>
AV-unprocessed.smi

> <i_m_source_file_index>
2121

> <i_lp_mmshare_version>
43012

> <i_f3d_flags>
0

> <s_epik_input>
W0NIM11bQ0BASF0xW0NIMl1OKFtDSDJdW0NASF0oTzEpW0NIM10pYzJbY0hdW2NIXWMoW2NIXW4yKVtDSDJdW05IXUMoPU8pW0NASF0oW0NIM10pW05IXUMoPU8pW05IMl0=

> <s_epik_cmdline>
J2VwaWtfcHl0aG9uJywgJy1waCcsICc3LjAnLCAnLXRuJywgJzgnLCAnLW1hJywgJzIwMCcsICctbWV0YWxfYmluZGluZycsICctaW1hZScsICc8aW5maWxlLm1hZT4nLCAnLW9tYWUnLCAnPG91dGZpbGUubWFlPic=

> <r_lp_tautomer_probability>
1

> <r_epik_Ionization_Penalty>
0.0063713

> <r_epik_Ionization_Penalty_Charging>
0

> <r_epik_Ionization_Penalty_Neutral>
0.0063713

> <r_epik_State_Penalty>
0.00467069

> <r_epik_Charging_Adjusted_Penalty>
0.00467069

> <i_epik_Tot_Q>
0

> <i_epik_Tot_abs_Q>
0

> <r_epik_Metal_State_Penalty>
-0

> <b_epik_Metal_Only>
0

> <s_lp_Force_Field>
OPLS_2005

> <r_lp_Energy>
13.1908

> <b_lp_Chiralities_Consistent>
1

> <s_lp_Variant>
AV-unprocessed.smi:2121-5

> <Gold.Version>
5.8.1

> <Gold.Id.Protein>
6NUR|6NUR_protein|mol2

> <Gold.PLP.Fitness>
46.7148

> <Gold.PLP.PLP>
-48.6604

> <Gold.PLP.part.hbond>
-2.0000

> <Gold.PLP.part.metal>
0.0000

> <Gold.PLP.part.buried>
-7.2135

> <Gold.PLP.part.nonpolar>
-39.7823

> <Gold.PLP.part.repulsive>
0.7212

> <Gold.PLP.ligand.clash>
0.0000

> <Gold.PLP.ligand.torsion>
1.1541

> <Gold.PLP.Chemscore.Hbond>
0.0000

> <Gold.PLP.Chemscore.CHOScore>
0.0000

> <Gold.PLP.Chemscore.Metal>
0.0000

> <Gold.PLP.Chemscore.Internal.Correction>
0.3626

> <Gold.Rescore>
     Score         DG    S(hbond)    S(metal)    S(lipo)     H(rot)  DE(clash)    DE(int)     intcor
      8.41     -11.96       0.00        0.00     111.90       2.58       0.23       3.31       ----

> <Gold.Chemscore.Fitness>
8.4107

> <Gold.Chemscore.DG>
-11.9576

> <Gold.Chemscore.ZeroCoef>
-5.4800

> <Gold.Chemscore.Hbond>
0.0000

> <Gold.Chemscore.Metal>
0.0000

> <Gold.Chemscore.Lipo>
111.8976

> <Gold.Chemscore.Internal_Hbond>
0.0000

> <Gold.Chemscore.DEClash>
0.2327

> <Gold.Chemscore.DEInternal>
3.3142

> <Gold.Chemscore.Rot>
2.5838

> <Gold.Chemscore.Internal.Correction>
   9.000000E+99

> <Gold.Chemscore.Hbond.Weighted>
-0.0000

> <Gold.Chemscore.Metal.Weighted>
-0.0000

> <Gold.Chemscore.Lipo.Weighted>
-13.0920

> <Gold.Chemscore.Internal_Hbond.Weighted>
0.0000

> <Gold.Chemscore.DEClash.Weighted>
0.2327

> <Gold.Chemscore.DEInternal.Weighted>
3.3142

> <Gold.Chemscore.Rot.Weighted>
6.6145

> <Gold.Chemscore.Internal.Correction.Weighted>
   9.000000E+99

> <Gold.Protein.RotatedTorsions>
[ 6907 6896 6895 6894 ] final  115.12 input  -60.11 | X-H torsion
[ 7974 7965 7964 7962 ] final -141.33 input  175.53 | X-H torsion
[ 8008 7997 7996 7995 ] final    7.61 input   59.86 | X-H torsion
[ 10167 10162 10161 10158 ] final  175.25 input  -65.29 | X-H torsion
[ 10718 10713 10712 10709 ] final  -80.06 input   66.30 | X-H torsion
[ 10763 10752 10751 10750 ] final   60.78 input  -60.55 | X-H torsion
[ 11005 11000 10999 10996 ] final  -33.36 input  -57.11 | X-H torsion

> <Gold.Protein.ActiveResidues>
 VAL166  LYS551  ARG553  GLY616  TRP617  ASP618  TYR619  PRO620  LYS621  CYS622 
 ASP623  PHE694  ASN695  SER759  ASP760  ASP761  ALA762  ILE779  LEU786  VAL792 
 PHE793  MET794  SER795  GLU796  ALA797  LYS798  CYS799  TRP800  GLU811  SER814 

> <Gold.Protein.RotatedAtoms>
  152.4761  133.8142  159.7019 H   0  0  0  0  0  0  0  0  0  0  0  0  # atno 6907 bound_to 6896
  150.8779  133.7403  159.2947 H   0  0  0  0  0  0  0  0  0  0  0  0  # atno 6908 bound_to 6896
  151.4917  135.1061  159.9857 H   0  0  0  0  0  0  0  0  0  0  0  0  # atno 6909 bound_to 6896
  144.8528  140.6093  143.5379 H   0  0  0  0  0  0  0  0  0  0  0  0  # atno 7974 bound_to 7965
  154.7561  140.2776  155.6252 H   0  0  0  0  0  0  0  0  0  0  0  0  # atno 8008 bound_to 7997
  156.2906  140.2669  156.2254 H   0  0  0  0  0  0  0  0  0  0  0  0  # atno 8009 bound_to 7997
  155.0075  140.0372  157.2375 H   0  0  0  0  0  0  0  0  0  0  0  0  # atno 8010 bound_to 7997
  139.5170  144.3053  152.0341 H   0  0  0  0  0  0  0  0  0  0  0  0  # atno 10167 bound_to 10162
  156.0078  130.4563  150.3743 H   0  0  0  0  0  0  0  0  0  0  0  0  # atno 10718 bound_to 10713
  152.9931  135.5524  154.5929 H   0  0  0  0  0  0  0  0  0  0  0  0  # atno 10763 bound_to 10752
  154.5287  135.2812  155.1201 H   0  0  0  0  0  0  0  0  0  0  0  0  # atno 10764 bound_to 10752
  154.2525  135.6396  153.5298 H   0  0  0  0  0  0  0  0  0  0  0  0  # atno 10765 bound_to 10752
  140.9628  133.7154  156.1397 H   0  0  0  0  0  0  0  0  0  0  0  0  # atno 11005 bound_to 11000
  145.4466  139.1529  143.3941 LP  0  0  0  0  0  0  0  0  0  0  0  0  # atno 17320 bound_to 7965
  146.2799  140.4590  142.8780 LP  0  0  0  0  0  0  0  0  0  0  0  0  # atno 17321 bound_to 7965
  140.2499  144.4179  150.6226 LP  0  0  0  0  0  0  0  0  0  0  0  0  # atno 17342 bound_to 10162
  140.6231  143.2178  151.6652 LP  0  0  0  0  0  0  0  0  0  0  0  0  # atno 17343 bound_to 10162
  157.1826  131.0396  151.2740 LP  0  0  0  0  0  0  0  0  0  0  0  0  # atno 17370 bound_to 10713
  157.4132  130.7396  149.6855 LP  0  0  0  0  0  0  0  0  0  0  0  0  # atno 17371 bound_to 10713
  140.7442  134.4116  157.5550 LP  0  0  0  0  0  0  0  0  0  0  0  0  # atno 17394 bound_to 11000
  139.8884  134.8857  156.2476 LP  0  0  0  0  0  0  0  0  0  0  0  0  # atno 17395 bound_to 11000

$$$$
