AV-unprocessed.smi:2226|AV-procd|sdf|9016|dock6
  -GOLD-   2272012223D 1   1.00000     0.00000
 Structure written by MMmdl.
 40 42  0  0  0  0  0  0  0  0  2 V2000
  146.0424  142.1439  154.5069 C   0  0  0  0  0  0  0  0  0  0  0  0
  146.0659  140.8090  153.8631 N   0  3  1  0  0  0  0  0  0  0  0  0
  147.0653  140.6575  152.7775 C   0  0  1  0  0  0  0  0  0  0  0  0
  148.5099  140.6384  153.3394 C   0  0  0  0  0  0  0  0  0  0  0  0
  148.7268  139.6229  154.4772 C   0  0  0  0  0  0  0  0  0  0  0  0
  147.5513  139.5929  155.4724 C   0  0  0  0  0  0  0  0  0  0  0  0
  146.1554  139.6647  154.8025 C   0  0  2  0  0  0  0  0  0  0  0  0
  145.7233  138.3775  154.0629 C   0  0  0  0  0  0  0  0  0  0  0  0
  146.4616  138.1269  152.7255 C   0  0  1  0  0  0  0  0  0  0  0  0
  145.6797  137.1931  151.9164 N   0  0  0  0  0  0  0  0  0  0  0  0
  145.5697  135.8684  152.1015 C   0  0  0  0  0  0  0  0  0  0  0  0
  146.1518  135.2884  153.0234 O   0  0  0  0  0  0  0  0  0  0  0  0
  144.7398  135.3276  151.1297 N   0  0  0  0  0  0  0  0  0  0  0  0
  144.9899  134.1531  150.6367 C   0  0  0  0  0  0  0  0  0  0  0  0
  145.9916  133.2155  150.8749 N   0  0  0  0  0  0  0  0  0  0  0  0
  145.7678  132.1375  150.0652 C   0  0  0  0  0  0  0  0  0  0  0  0
  144.6754  132.3811  149.3477 C   0  0  0  0  0  0  0  0  0  0  0  0
  144.1777  133.6065  149.6754 O   0  0  0  0  0  0  0  0  0  0  0  0
  146.6864  139.4289  151.9190 C   0  0  0  0  0  0  0  0  0  0  0  0
  146.9703  142.3668  155.0329 H   0  0  0  0  0  0  0  0  0  0  0  0
  145.2246  142.2040  155.2254 H   0  0  0  0  0  0  0  0  0  0  0  0
  145.8822  142.9222  153.7605 H   0  0  0  0  0  0  0  0  0  0  0  0
  146.9832  141.5277  152.1246 H   0  0  0  0  0  0  0  0  0  0  0  0
  149.2232  140.4500  152.5364 H   0  0  0  0  0  0  0  0  0  0  0  0
  148.7540  141.6327  153.7146 H   0  0  0  0  0  0  0  0  0  0  0  0
  148.9045  138.6310  154.0709 H   0  0  0  0  0  0  0  0  0  0  0  0
  149.6470  139.8658  155.0098 H   0  0  0  0  0  0  0  0  0  0  0  0
  147.6222  138.7036  156.0995 H   0  0  0  0  0  0  0  0  0  0  0  0
  147.6571  140.4363  156.1553 H   0  0  0  0  0  0  0  0  0  0  0  0
  145.4234  139.8258  155.5953 H   0  0  0  0  0  0  0  0  0  0  0  0
  145.8291  137.5105  154.7162 H   0  0  0  0  0  0  0  0  0  0  0  0
  144.6542  138.4632  153.8599 H   0  0  0  0  0  0  0  0  0  0  0  0
  147.4296  137.6847  152.9435 H   0  0  0  0  0  0  0  0  0  0  0  0
  145.1714  137.5894  151.1389 H   0  0  0  0  0  0  0  0  0  0  0  0
  146.7657  133.2768  151.5209 H   0  0  0  0  0  0  0  0  0  0  0  0
  146.4332  131.2872  150.0899 H   0  0  0  0  0  0  0  0  0  0  0  0
  144.1484  131.8107  148.5973 H   0  0  0  0  0  0  0  0  0  0  0  0
  145.7637  139.6746  151.3899 H   0  0  0  0  0  0  0  0  0  0  0  0
  147.4343  139.2629  151.1426 H   0  0  0  0  0  0  0  0  0  0  0  0
  145.1637  140.7255  153.4168 H   0  0  0  0  0  0  0  0  0  0  0  0
  1  2  1  0  0  0  0
  1 20  1  0  0  0  0
  1 21  1  0  0  0  0
  1 22  1  0  0  0  0
  2  7  1  0  0  0  0
  2  3  1  0  0  0  0
  2 40  1  0  0  0  0
  3 19  1  0  0  0  0
  3  4  1  0  0  0  0
  3 23  1  0  0  0  0
  4  5  1  0  0  0  0
  4 24  1  0  0  0  0
  4 25  1  0  0  0  0
  5  6  1  0  0  0  0
  5 26  1  0  0  0  0
  5 27  1  0  0  0  0
  6  7  1  0  0  0  0
  6 28  1  0  0  0  0
  6 29  1  0  0  0  0
  7  8  1  0  0  0  0
  7 30  1  0  0  0  0
  8  9  1  0  0  0  0
  8 31  1  0  0  0  0
  8 32  1  0  0  0  0
  9 10  1  0  0  0  0
  9 19  1  0  0  0  0
  9 33  1  0  0  0  0
 10 34  1  0  0  0  0
 10 11  1  0  0  0  0
 11 13  1  0  0  0  0
 11 12  2  0  0  0  0
 13 14  2  0  0  0  0
 14 18  1  0  0  0  0
 14 15  1  0  0  0  0
 15 35  1  0  0  0  0
 15 16  1  0  0  0  0
 16 36  1  0  0  0  0
 16 17  2  0  0  0  0
 17 37  1  0  0  0  0
 17 18  1  0  0  0  0
 19 38  1  0  0  0  0
 19 39  1  0  0  0  0
M  CHG  1   2   1
M  END
> <s_m_source_file>
AV-unprocessed.smi

> <i_m_source_file_index>
2226

> <i_lp_mmshare_version>
43012

> <i_f3d_flags>
0

> <s_epik_input>
W0NIMl0xW0NIMl1bQ0gyXVtDQEhdKE4oW0NIM10pW0NIXTEyKVtDSDJdW0NASF0oW0NIMl0yKVtOSF1DKD1PKVtOSF1jM25bY0hdW2NIXW8z

> <s_epik_cmdline>
J2VwaWtfcHl0aG9uJywgJy1waCcsICc3LjAnLCAnLXRuJywgJzgnLCAnLW1hJywgJzIwMCcsICctbWV0YWxfYmluZGluZycsICctaW1hZScsICc8aW5maWxlLm1hZT4nLCAnLW9tYWUnLCAnPG91dGZpbGUubWFlPic=

> <r_lp_tautomer_probability>
0.107061

> <r_epik_Ionization_Penalty>
1.08307

> <r_epik_Ionization_Penalty_Charging>
1.08272

> <r_epik_Ionization_Penalty_Neutral>
0.000345913

> <r_epik_State_Penalty>
2.5744

> <r_epik_Charging_Adjusted_Penalty>
3.65713

> <i_epik_Tot_Q>
1

> <i_epik_Tot_abs_Q>
1

> <r_epik_Metal_State_Penalty>
3.72133

> <b_epik_Metal_Only>
0

> <s_lp_Force_Field>
OPLS_2005

> <r_lp_Energy>
58.4837

> <b_lp_Chiralities_Consistent>
1

> <s_lp_Variant>
AV-unprocessed.smi:2226-16

> <Gold.Version>
5.8.1

> <Gold.Id.Protein>
6NUR|6NUR_protein|mol2

> <Gold.PLP.Fitness>
36.2177

> <Gold.PLP.PLP>
-25.7025

> <Gold.PLP.part.hbond>
-1.7732

> <Gold.PLP.part.metal>
0.0000

> <Gold.PLP.part.buried>
2.6049

> <Gold.PLP.part.nonpolar>
-27.0744

> <Gold.PLP.part.repulsive>
1.4932

> <Gold.PLP.ligand.clash>
0.0000

> <Gold.PLP.ligand.torsion>
0.4874

> <Gold.PLP.Chemscore.Hbond>
2.8288

> <Gold.PLP.Chemscore.CHOScore>
0.9994

> <Gold.PLP.Chemscore.Metal>
0.0000

> <Gold.Chemscore.Hbonds>
donor molecule, donor type, donor heavy atom, donor atom, acceptor molecule, acceptor atom, score
      L1  H     2    40       P1 10175  2.00
      L1  H    10    34       P1 10171  0.80
      L1  C    16    36       P1 10747  0.89

> <Gold.PLP.Chemscore.Internal.Correction>
0.0054

> <Gold.Rescore>
     Score         DG    S(hbond)    S(metal)    S(lipo)     H(rot)  DE(clash)    DE(int)     intcor
     15.15     -17.51       1.76        0.00      74.42       1.00       1.89       0.48       ----

> <Gold.Chemscore.Fitness>
15.1494

> <Gold.Chemscore.DG>
-17.5141

> <Gold.Chemscore.ZeroCoef>
-5.4800

> <Gold.Chemscore.Hbond>
1.7627

> <Gold.Chemscore.Metal>
0.0000

> <Gold.Chemscore.Lipo>
74.4151

> <Gold.Chemscore.Internal_Hbond>
0.0000

> <Gold.Chemscore.DEClash>
1.8886

> <Gold.Chemscore.DEInternal>
0.4761

> <Gold.Chemscore.Rot>
1.0000

> <Gold.Chemscore.Internal.Correction>
   9.000000E+99

> <Gold.Chemscore.Hbonds>
donor molecule, donor type, donor heavy atom, donor atom, acceptor molecule, acceptor atom, score
      L1  H     2    40       P1 10175  0.88
      L1  H    10    34       P1 10171  0.79

> <Gold.Chemscore.Hbond.Weighted>
-5.8875

> <Gold.Chemscore.Metal.Weighted>
-0.0000

> <Gold.Chemscore.Lipo.Weighted>
-8.7066

> <Gold.Chemscore.Internal_Hbond.Weighted>
0.0000

> <Gold.Chemscore.DEClash.Weighted>
1.8886

> <Gold.Chemscore.DEInternal.Weighted>
0.4761

> <Gold.Chemscore.Rot.Weighted>
2.5600

> <Gold.Chemscore.Internal.Correction.Weighted>
   9.000000E+99

> <Gold.Protein.RotatedTorsions>
[ 6907 6896 6895 6894 ] final -140.93 input  -60.11 | X-H torsion
[ 7974 7965 7964 7962 ] final  -75.74 input  175.53 | X-H torsion
[ 8008 7997 7996 7995 ] final  140.25 input   59.86 | X-H torsion
[ 10167 10162 10161 10158 ] final  147.31 input  -65.29 | X-H torsion
[ 10718 10713 10712 10709 ] final  -99.34 input   66.30 | X-H torsion
[ 10763 10752 10751 10750 ] final   -9.16 input  -60.55 | X-H torsion
[ 11005 11000 10999 10996 ] final  -75.98 input  -57.11 | X-H torsion

> <Gold.Protein.ActiveResidues>
 VAL166  LYS551  ARG553  GLY616  TRP617  ASP618  TYR619  PRO620  LYS621  CYS622 
 ASP623  PHE694  ASN695  SER759  ASP760  ASP761  ALA762  ILE779  LEU786  VAL792 
 PHE793  MET794  SER795  GLU796  ALA797  LYS798  CYS799  TRP800  GLU811  SER814 

> <Gold.Protein.RotatedAtoms>
  151.0671  133.5496  159.2629 H   0  0  0  0  0  0  0  0  0  0  0  0  # atno 6907 bound_to 6896
  151.2449  135.0601  159.9049 H   0  0  0  0  0  0  0  0  0  0  0  0  # atno 6908 bound_to 6896
  152.5406  134.0441  159.8134 H   0  0  0  0  0  0  0  0  0  0  0  0  # atno 6909 bound_to 6896
  145.6221  140.9360  143.1132 H   0  0  0  0  0  0  0  0  0  0  0  0  # atno 7974 bound_to 7965
  156.2981  140.2346  156.4370 H   0  0  0  0  0  0  0  0  0  0  0  0  # atno 8008 bound_to 7997
  154.8220  140.0437  157.1437 H   0  0  0  0  0  0  0  0  0  0  0  0  # atno 8009 bound_to 7997
  154.9304  140.3016  155.5174 H   0  0  0  0  0  0  0  0  0  0  0  0  # atno 8010 bound_to 7997
  139.4892  144.5765  151.6955 H   0  0  0  0  0  0  0  0  0  0  0  0  # atno 10167 bound_to 10162
  156.0131  130.5278  150.6656 H   0  0  0  0  0  0  0  0  0  0  0  0  # atno 10718 bound_to 10713
  153.4508  135.7015  153.6110 H   0  0  0  0  0  0  0  0  0  0  0  0  # atno 10763 bound_to 10752
  153.4445  135.3772  155.2248 H   0  0  0  0  0  0  0  0  0  0  0  0  # atno 10764 bound_to 10752
  154.8728  135.3982  154.3920 H   0  0  0  0  0  0  0  0  0  0  0  0  # atno 10765 bound_to 10752
  141.1650  133.6967  156.7600 H   0  0  0  0  0  0  0  0  0  0  0  0  # atno 11005 bound_to 11000
  144.7227  139.7977  143.7376 LP  0  0  0  0  0  0  0  0  0  0  0  0  # atno 17320 bound_to 7965
  146.1423  139.4483  143.0101 LP  0  0  0  0  0  0  0  0  0  0  0  0  # atno 17321 bound_to 7965
  140.5362  144.0651  150.6071 LP  0  0  0  0  0  0  0  0  0  0  0  0  # atno 17342 bound_to 10162
  140.3658  143.2882  152.0333 LP  0  0  0  0  0  0  0  0  0  0  0  0  # atno 17343 bound_to 10162
  157.4389  131.0859  151.0963 LP  0  0  0  0  0  0  0  0  0  0  0  0  # atno 17370 bound_to 10713
  157.1513  130.6185  149.5583 LP  0  0  0  0  0  0  0  0  0  0  0  0  # atno 17371 bound_to 10713
  140.2541  134.8518  157.3696 LP  0  0  0  0  0  0  0  0  0  0  0  0  # atno 17394 bound_to 11000
  140.1674  134.4651  155.7854 LP  0  0  0  0  0  0  0  0  0  0  0  0  # atno 17395 bound_to 11000

$$$$
