AV-unprocessed.smi:1834|AV-procd|sdf|7470|dock8
  -GOLD-   22720 9163D 1   1.00000     0.00000
 Structure written by MMmdl.
 46 47  0  0  0  0  0  0  0  0  2 V2000
  149.3475  134.4564  154.7497 C   0  0  0  0  0  0  0  0  0  0  0  0
  150.0397  135.8015  155.0142 C   0  0  0  0  0  0  0  0  0  0  0  0
  149.2173  136.9651  154.5953 N   0  3  2  0  0  0  0  0  0  0  0  0
  149.9339  138.2515  154.7981 C   0  0  0  0  0  0  0  0  0  0  0  0
  149.1237  139.4405  154.2568 C   0  0  0  0  0  0  0  0  0  0  0  0
  147.7160  139.4784  154.8701 C   0  0  0  0  0  0  0  0  0  0  0  0
  146.9901  138.1329  154.6836 C   0  0  1  0  0  0  0  0  0  0  0  0
  146.5138  137.9298  153.2249 C   0  0  0  0  0  0  0  0  0  0  0  0
  145.0731  138.1145  153.0748 N   0  0  0  0  0  0  0  0  0  0  0  0
  144.1336  137.2943  153.5675 C   0  0  0  0  0  0  0  0  0  0  0  0
  144.3952  136.2687  154.1961 O   0  0  0  0  0  0  0  0  0  0  0  0
  142.8987  137.7509  153.2981 N   0  0  0  0  0  0  0  0  0  0  0  0
  141.7013  137.2469  153.6989 C   0  0  0  0  0  0  0  0  0  0  0  0
  140.6006  137.9142  154.1636 C   0  0  0  0  0  0  0  0  0  0  0  0
  139.6771  136.8584  154.4166 C   0  0  0  0  0  0  0  0  0  0  0  0
  138.2771  136.9615  154.9459 C   0  0  0  0  0  0  0  0  0  0  0  0
  140.1767  135.6616  154.1305 N   0  0  0  0  0  0  0  0  0  0  0  0
  141.4291  135.8962  153.6840 N   0  0  0  0  0  0  0  0  0  0  0  0
  142.2663  134.7821  153.2826 C   0  0  0  0  0  0  0  0  0  0  0  0
  147.8732  136.9876  155.2337 C   0  0  0  0  0  0  0  0  0  0  0  0
  150.0006  133.6301  155.0308 H   0  0  0  0  0  0  0  0  0  0  0  0
  149.1090  134.3382  153.6927 H   0  0  0  0  0  0  0  0  0  0  0  0
  148.4246  134.3455  155.3184 H   0  0  0  0  0  0  0  0  0  0  0  0
  150.3089  135.8949  156.0674 H   0  0  0  0  0  0  0  0  0  0  0  0
  150.9773  135.8030  154.4566 H   0  0  0  0  0  0  0  0  0  0  0  0
  150.1366  138.3900  155.8614 H   0  0  0  0  0  0  0  0  0  0  0  0
  150.9003  138.2209  154.2933 H   0  0  0  0  0  0  0  0  0  0  0  0
  149.6460  140.3725  154.4752 H   0  0  0  0  0  0  0  0  0  0  0  0
  149.0591  139.3778  153.1703 H   0  0  0  0  0  0  0  0  0  0  0  0
  147.7978  139.6979  155.9356 H   0  0  0  0  0  0  0  0  0  0  0  0
  147.1349  140.2928  154.4362 H   0  0  0  0  0  0  0  0  0  0  0  0
  146.0900  138.1674  155.2992 H   0  0  0  0  0  0  0  0  0  0  0  0
  147.0012  138.6613  152.5796 H   0  0  0  0  0  0  0  0  0  0  0  0
  146.8174  136.9529  152.8468 H   0  0  0  0  0  0  0  0  0  0  0  0
  144.7710  138.9321  152.5645 H   0  0  0  0  0  0  0  0  0  0  0  0
  142.8464  138.6037  152.7607 H   0  0  0  0  0  0  0  0  0  0  0  0
  140.4579  138.9743  154.3084 H   0  0  0  0  0  0  0  0  0  0  0  0
  137.9646  138.0020  155.0352 H   0  0  0  0  0  0  0  0  0  0  0  0
  138.1965  136.5051  155.9326 H   0  0  0  0  0  0  0  0  0  0  0  0
  137.5689  136.4587  154.2867 H   0  0  0  0  0  0  0  0  0  0  0  0
  143.0195  135.1122  152.5670 H   0  0  0  0  0  0  0  0  0  0  0  0
  141.6591  134.0063  152.8149 H   0  0  0  0  0  0  0  0  0  0  0  0
  142.7643  134.3659  154.1585 H   0  0  0  0  0  0  0  0  0  0  0  0
  147.3689  136.0310  155.1096 H   0  0  0  0  0  0  0  0  0  0  0  0
  148.0006  137.1153  156.3100 H   0  0  0  0  0  0  0  0  0  0  0  0
  149.0723  136.8716  153.5997 H   0  0  0  0  0  0  0  0  0  0  0  0
  1  2  1  0  0  0  0
  1 21  1  0  0  0  0
  1 22  1  0  0  0  0
  1 23  1  0  0  0  0
  2  3  1  0  0  0  0
  2 24  1  0  0  0  0
  2 25  1  0  0  0  0
  3 20  1  0  0  0  0
  3  4  1  0  0  0  0
  3 46  1  0  0  0  0
  4  5  1  0  0  0  0
  4 26  1  0  0  0  0
  4 27  1  0  0  0  0
  5  6  1  0  0  0  0
  5 28  1  0  0  0  0
  5 29  1  0  0  0  0
  6  7  1  0  0  0  0
  6 30  1  0  0  0  0
  6 31  1  0  0  0  0
  7  8  1  0  0  0  0
  7 20  1  0  0  0  0
  7 32  1  0  0  0  0
  8  9  1  0  0  0  0
  8 33  1  0  0  0  0
  8 34  1  0  0  0  0
  9 10  1  0  0  0  0
  9 35  1  0  0  0  0
 10 11  2  0  0  0  0
 10 12  1  0  0  0  0
 12 13  1  0  0  0  0
 12 36  1  0  0  0  0
 13 18  1  0  0  0  0
 13 14  2  0  0  0  0
 14 15  1  0  0  0  0
 14 37  1  0  0  0  0
 15 16  1  0  0  0  0
 15 17  2  0  0  0  0
 16 38  1  0  0  0  0
 16 39  1  0  0  0  0
 16 40  1  0  0  0  0
 17 18  1  0  0  0  0
 18 19  1  0  0  0  0
 19 41  1  0  0  0  0
 19 42  1  0  0  0  0
 19 43  1  0  0  0  0
 20 44  1  0  0  0  0
 20 45  1  0  0  0  0
M  CHG  1   3   1
M  END
> <s_m_source_file>
AV-unprocessed.smi

> <i_m_source_file_index>
1834

> <i_lp_mmshare_version>
43012

> <i_f3d_flags>
0

> <s_epik_input>
W0NIM11bQ0gyXU4xW0NIMl1bQ0gyXVtDSDJdW0NASF0oW0NIMl0xKVtDSDJdW05IXUMoPU8pW05IXWMyW2NIXWMoW0NIM10pbm4yW0NIM10=

> <s_epik_cmdline>
J2VwaWtfcHl0aG9uJywgJy1waCcsICc3LjAnLCAnLXRuJywgJzgnLCAnLW1hJywgJzIwMCcsICctbWV0YWxfYmluZGluZycsICctaW1hZScsICc8aW5maWxlLm1hZT4nLCAnLW9tYWUnLCAnPG91dGZpbGUubWFlPic=

> <r_lp_tautomer_probability>
1

> <r_epik_Ionization_Penalty>
0.000466842

> <r_epik_Ionization_Penalty_Charging>
0.000378984

> <r_epik_Ionization_Penalty_Neutral>
8.78572e-05

> <r_epik_State_Penalty>
0.000231434

> <r_epik_Charging_Adjusted_Penalty>
0.000610418

> <i_epik_Tot_Q>
1

> <i_epik_Tot_abs_Q>
1

> <r_epik_Metal_State_Penalty>
-0

> <b_epik_Metal_Only>
0

> <s_lp_Force_Field>
OPLS_2005

> <r_lp_Energy>
21.1664

> <b_lp_Chiralities_Consistent>
1

> <s_lp_Variant>
AV-unprocessed.smi:1834-2

> <Gold.Version>
5.8.1

> <Gold.Id.Protein>
6NUR|6NUR_protein|mol2

> <Gold.PLP.Fitness>
42.4556

> <Gold.PLP.PLP>
-29.8476

> <Gold.PLP.part.hbond>
-4.3363

> <Gold.PLP.part.metal>
0.0000

> <Gold.PLP.part.buried>
-5.8046

> <Gold.PLP.part.nonpolar>
-20.9056

> <Gold.PLP.part.repulsive>
0.1767

> <Gold.PLP.ligand.clash>
0.0000

> <Gold.PLP.ligand.torsion>
1.0667

> <Gold.PLP.Chemscore.Hbond>
4.9030

> <Gold.PLP.Chemscore.CHOScore>
0.0000

> <Gold.PLP.Chemscore.Metal>
0.0000

> <Gold.Chemscore.Hbonds>
donor molecule, donor type, donor heavy atom, donor atom, acceptor molecule, acceptor atom, score
      L1  H     3    46       P1  7948  2.00
      L1  H     9    35       P1 10175  0.99
      L1  H    12    36       P1 10175  0.93
      P1  H 11000 11005       L1    17  1.00

> <Gold.PLP.Chemscore.Internal.Correction>
0.0325

> <Gold.Rescore>
     Score         DG    S(hbond)    S(metal)    S(lipo)     H(rot)  DE(clash)    DE(int)     intcor
     17.29     -20.83       3.73        0.00      56.12       1.43       0.19       3.35       ----

> <Gold.Chemscore.Fitness>
17.2938

> <Gold.Chemscore.DG>
-20.8339

> <Gold.Chemscore.ZeroCoef>
-5.4800

> <Gold.Chemscore.Hbond>
3.7265

> <Gold.Chemscore.Metal>
0.0000

> <Gold.Chemscore.Lipo>
56.1185

> <Gold.Chemscore.Internal_Hbond>
0.0000

> <Gold.Chemscore.DEClash>
0.1899

> <Gold.Chemscore.DEInternal>
3.3502

> <Gold.Chemscore.Rot>
1.4291

> <Gold.Chemscore.Internal.Correction>
   9.000000E+99

> <Gold.Chemscore.Hbonds>
donor molecule, donor type, donor heavy atom, donor atom, acceptor molecule, acceptor atom, score
      L1  H     3    46       P1  7948  1.00
      L1  H     9    35       P1 10175  0.93
      L1  H    12    36       P1 10175  0.87
      P1  H 11000 11005       L1    17  0.57

> <Gold.Chemscore.Hbond.Weighted>
-12.4465

> <Gold.Chemscore.Metal.Weighted>
-0.0000

> <Gold.Chemscore.Lipo.Weighted>
-6.5659

> <Gold.Chemscore.Internal_Hbond.Weighted>
0.0000

> <Gold.Chemscore.DEClash.Weighted>
0.1899

> <Gold.Chemscore.DEInternal.Weighted>
3.3502

> <Gold.Chemscore.Rot.Weighted>
3.6584

> <Gold.Chemscore.Internal.Correction.Weighted>
   9.000000E+99

> <Gold.Protein.RotatedTorsions>
[ 6907 6896 6895 6894 ] final  -79.70 input  -60.11 | X-H torsion
[ 7974 7965 7964 7962 ] final   15.52 input  175.53 | X-H torsion
[ 8008 7997 7996 7995 ] final  -60.35 input   59.86 | X-H torsion
[ 10167 10162 10161 10158 ] final  -94.17 input  -65.29 | X-H torsion
[ 10718 10713 10712 10709 ] final  112.68 input   66.30 | X-H torsion
[ 10763 10752 10751 10750 ] final  146.99 input  -60.55 | X-H torsion
[ 11005 11000 10999 10996 ] final   44.60 input  -57.11 | X-H torsion

> <Gold.Protein.ActiveResidues>
 VAL166  LYS551  ARG553  GLY616  TRP617  ASP618  TYR619  PRO620  LYS621  CYS622 
 ASP623  PHE694  ASN695  SER759  ASP760  ASP761  ALA762  ILE779  LEU786  VAL792 
 PHE793  MET794  SER795  GLU796  ALA797  LYS798  CYS799  TRP800  GLU811  SER814 

> <Gold.Protein.RotatedAtoms>
  150.6944  134.4081  159.5148 H   0  0  0  0  0  0  0  0  0  0  0  0  # atno 6907 bound_to 6896
  152.1844  134.8724  160.0532 H   0  0  0  0  0  0  0  0  0  0  0  0  # atno 6908 bound_to 6896
  151.9702  133.3688  159.4105 H   0  0  0  0  0  0  0  0  0  0  0  0  # atno 6909 bound_to 6896
  146.2276  139.8882  142.8559 H   0  0  0  0  0  0  0  0  0  0  0  0  # atno 7974 bound_to 7965
  154.4394  140.1041  156.6259 H   0  0  0  0  0  0  0  0  0  0  0  0  # atno 8008 bound_to 7997
  155.5657  140.3488  155.4484 H   0  0  0  0  0  0  0  0  0  0  0  0  # atno 8009 bound_to 7997
  156.0427  140.1286  157.0127 H   0  0  0  0  0  0  0  0  0  0  0  0  # atno 8010 bound_to 7997
  140.3172  143.3070  152.0085 H   0  0  0  0  0  0  0  0  0  0  0  0  # atno 10167 bound_to 10162
  157.6379  131.0971  150.6931 H   0  0  0  0  0  0  0  0  0  0  0  0  # atno 10718 bound_to 10713
  154.0309  135.2898  155.3368 H   0  0  0  0  0  0  0  0  0  0  0  0  # atno 10763 bound_to 10752
  154.6988  135.5197  153.8500 H   0  0  0  0  0  0  0  0  0  0  0  0  # atno 10764 bound_to 10752
  153.0640  135.6624  154.0522 H   0  0  0  0  0  0  0  0  0  0  0  0  # atno 10765 bound_to 10752
  140.1537  134.4429  155.8364 H   0  0  0  0  0  0  0  0  0  0  0  0  # atno 11005 bound_to 11000
  145.2444  141.0021  143.3917 LP  0  0  0  0  0  0  0  0  0  0  0  0  # atno 17320 bound_to 7965
  144.9426  139.4172  143.6441 LP  0  0  0  0  0  0  0  0  0  0  0  0  # atno 17321 bound_to 7965
  139.4881  144.6339  151.7015 LP  0  0  0  0  0  0  0  0  0  0  0  0  # atno 17342 bound_to 10162
  140.5516  144.0416  150.6129 LP  0  0  0  0  0  0  0  0  0  0  0  0  # atno 17343 bound_to 10162
  156.7259  130.4695  149.5511 LP  0  0  0  0  0  0  0  0  0  0  0  0  # atno 17370 bound_to 10713
  156.1634  130.6389  151.0748 LP  0  0  0  0  0  0  0  0  0  0  0  0  # atno 17371 bound_to 10713
  141.2202  133.6883  156.7468 LP  0  0  0  0  0  0  0  0  0  0  0  0  # atno 17394 bound_to 11000
  140.2574  134.8493  157.3726 LP  0  0  0  0  0  0  0  0  0  0  0  0  # atno 17395 bound_to 11000

$$$$
