AV-unprocessed.smi:3328|AV-procd|sdf|12792|dock6
  -GOLD-   2272019143D 1   1.00000     0.00000
 Structure written by MMmdl.
 41 42  0  0  0  0  0  0  0  0  2 V2000
  144.5913  134.4265  151.0340 C   0  0  0  0  0  0  0  0  0  0  0  0
  144.7584  135.5701  151.9925 C   0  0  0  0  0  0  0  0  0  0  0  0
  143.7441  136.2652  152.7103 C   0  0  0  0  0  0  0  0  0  0  0  0
  144.2266  137.2274  153.4799 N   0  0  0  0  0  0  0  0  0  0  0  0
  145.5606  137.1847  153.2769 N   0  0  0  0  0  0  0  0  0  0  0  0
  146.4285  138.1141  153.9787 C   0  0  0  0  0  0  0  0  0  0  0  0
  147.2389  139.0016  153.0135 C   0  0  1  0  0  0  0  0  0  0  0  0
  146.9953  140.4910  153.3081 C   0  0  0  0  0  0  0  0  0  0  0  0
  148.6800  138.6710  153.1030 N   0  3  0  0  0  0  0  0  0  0  0  0
  149.3677  139.1526  154.3179 C   0  0  0  0  0  0  0  0  0  0  0  0
  150.8666  138.8213  154.2619 C   0  0  0  0  0  0  0  0  0  0  0  0
  151.5650  139.2953  155.4532 N   0  0  0  0  0  0  0  0  0  0  0  0
  151.5517  140.7027  155.8146 C   0  0  0  0  0  0  0  0  0  0  0  0
  152.1969  140.7601  157.2066 C   0  0  0  0  0  0  0  0  0  0  0  0
  152.8900  139.4067  157.3986 C   0  0  0  0  0  0  0  0  0  0  0  0
  152.3004  138.5528  156.2888 C   0  0  0  0  0  0  0  0  0  0  0  0
  152.4940  137.3412  156.2010 O   0  0  0  0  0  0  0  0  0  0  0  0
  145.9094  136.1931  152.3846 C   0  0  0  0  0  0  0  0  0  0  0  0
  143.5413  134.1744  150.8826 H   0  0  0  0  0  0  0  0  0  0  0  0
  145.0890  133.5253  151.3922 H   0  0  0  0  0  0  0  0  0  0  0  0
  145.0095  134.6580  150.0542 H   0  0  0  0  0  0  0  0  0  0  0  0
  142.6770  136.0980  152.6964 H   0  0  0  0  0  0  0  0  0  0  0  0
  145.8020  138.7340  154.6217 H   0  0  0  0  0  0  0  0  0  0  0  0
  147.0915  137.5538  154.6401 H   0  0  0  0  0  0  0  0  0  0  0  0
  146.8975  138.7891  151.9990 H   0  0  0  0  0  0  0  0  0  0  0  0
  145.9316  140.7276  153.2667 H   0  0  0  0  0  0  0  0  0  0  0  0
  147.4938  141.1344  152.5833 H   0  0  0  0  0  0  0  0  0  0  0  0
  147.3556  140.7630  154.3006 H   0  0  0  0  0  0  0  0  0  0  0  0
  148.7950  137.6704  153.0262 H   0  0  0  0  0  0  0  0  0  0  0  0
  149.2350  140.2318  154.4060 H   0  0  0  0  0  0  0  0  0  0  0  0
  148.9133  138.6965  155.1975 H   0  0  0  0  0  0  0  0  0  0  0  0
  151.0127  137.7443  154.1633 H   0  0  0  0  0  0  0  0  0  0  0  0
  151.3156  139.2750  153.3770 H   0  0  0  0  0  0  0  0  0  0  0  0
  152.1385  141.2666  155.0882 H   0  0  0  0  0  0  0  0  0  0  0  0
  150.5373  141.1033  155.8217 H   0  0  0  0  0  0  0  0  0  0  0  0
  152.8936  141.5941  157.2957 H   0  0  0  0  0  0  0  0  0  0  0  0
  151.4290  140.8924  157.9703 H   0  0  0  0  0  0  0  0  0  0  0  0
  153.9684  139.4888  157.2584 H   0  0  0  0  0  0  0  0  0  0  0  0
  152.6952  138.9776  158.3820 H   0  0  0  0  0  0  0  0  0  0  0  0
  146.9374  136.0129  152.1056 H   0  0  0  0  0  0  0  0  0  0  0  0
  149.1340  139.1037  152.3105 H   0  0  0  0  0  0  0  0  0  0  0  0
  1  2  1  0  0  0  0
  1 19  1  0  0  0  0
  1 20  1  0  0  0  0
  1 21  1  0  0  0  0
  2 18  2  0  0  0  0
  2  3  1  0  0  0  0
  3  4  2  0  0  0  0
  3 22  1  0  0  0  0
  4  5  1  0  0  0  0
  5  6  1  0  0  0  0
  5 18  1  0  0  0  0
  6  7  1  0  0  0  0
  6 23  1  0  0  0  0
  6 24  1  0  0  0  0
  7  8  1  0  0  0  0
  7  9  1  0  0  0  0
  7 25  1  0  0  0  0
  8 26  1  0  0  0  0
  8 27  1  0  0  0  0
  8 28  1  0  0  0  0
  9 10  1  0  0  0  0
  9 29  1  0  0  0  0
  9 41  1  0  0  0  0
 10 11  1  0  0  0  0
 10 30  1  0  0  0  0
 10 31  1  0  0  0  0
 11 12  1  0  0  0  0
 11 32  1  0  0  0  0
 11 33  1  0  0  0  0
 12 16  1  0  0  0  0
 12 13  1  0  0  0  0
 13 14  1  0  0  0  0
 13 34  1  0  0  0  0
 13 35  1  0  0  0  0
 14 15  1  0  0  0  0
 14 36  1  0  0  0  0
 14 37  1  0  0  0  0
 15 16  1  0  0  0  0
 15 38  1  0  0  0  0
 15 39  1  0  0  0  0
 16 17  2  0  0  0  0
 18 40  1  0  0  0  0
M  CHG  1   9   1
M  END
> <s_m_source_file>
AV-unprocessed.smi

> <i_m_source_file_index>
3328

> <i_lp_mmshare_version>
43012

> <i_f3d_flags>
0

> <s_epik_input>
W0NIM11jMVtjSF1ubihbY0hdMSlbQ0gyXVtDQEhdKFtDSDNdKVtOSF1bQ0gyXVtDSDJdTjJbQ0gyXVtDSDJdW0NIMl1DMj1P

> <s_epik_cmdline>
J2VwaWtfcHl0aG9uJywgJy1waCcsICc3LjAnLCAnLXRuJywgJzgnLCAnLW1hJywgJzIwMCcsICctbWV0YWxfYmluZGluZycsICctaW1hZScsICc8aW5maWxlLm1hZT4nLCAnLW9tYWUnLCAnPG91dGZpbGUubWFlPic=

> <r_lp_tautomer_probability>
1

> <r_epik_Ionization_Penalty>
0.00826719

> <r_epik_Ionization_Penalty_Charging>
0.00825899

> <r_epik_Ionization_Penalty_Neutral>
8.19932e-06

> <r_epik_State_Penalty>
0.00621436

> <r_epik_Charging_Adjusted_Penalty>
0.0144734

> <i_epik_Tot_Q>
1

> <i_epik_Tot_abs_Q>
1

> <r_epik_Metal_State_Penalty>
0.00621509

> <b_epik_Metal_Only>
0

> <s_lp_Force_Field>
OPLS_2005

> <r_lp_Energy>
19.1629

> <b_lp_Chiralities_Consistent>
1

> <s_lp_Variant>
AV-unprocessed.smi:3328-2

> <Gold.Version>
5.8.1

> <Gold.Id.Protein>
6NUR|6NUR_protein|mol2

> <Gold.PLP.Fitness>
45.1766

> <Gold.PLP.PLP>
-31.7314

> <Gold.PLP.part.hbond>
-2.9949

> <Gold.PLP.part.metal>
0.0000

> <Gold.PLP.part.buried>
-3.0051

> <Gold.PLP.part.nonpolar>
-26.4957

> <Gold.PLP.part.repulsive>
0.2621

> <Gold.PLP.ligand.clash>
0.0000

> <Gold.PLP.ligand.torsion>
0.8223

> <Gold.PLP.Chemscore.Hbond>
4.0000

> <Gold.PLP.Chemscore.CHOScore>
1.0000

> <Gold.PLP.Chemscore.Metal>
0.0000

> <Gold.Chemscore.Hbonds>
donor molecule, donor type, donor heavy atom, donor atom, acceptor molecule, acceptor atom, score
      L1  H     9    29       P1  7948  1.79
      L1  H     9    41       P1  7957  1.00
      P1  H 10752 10764       L1    17  0.31
      L1  C    18    40       P1  7948  0.97

> <Gold.PLP.Chemscore.Internal.Correction>
0.0897

> <Gold.Rescore>
     Score         DG    S(hbond)    S(metal)    S(lipo)     H(rot)  DE(clash)    DE(int)     intcor
     17.37     -18.34       2.94        0.00      68.95       1.97       0.11       0.86       ----

> <Gold.Chemscore.Fitness>
17.3665

> <Gold.Chemscore.DG>
-18.3361

> <Gold.Chemscore.ZeroCoef>
-5.4800

> <Gold.Chemscore.Hbond>
2.9447

> <Gold.Chemscore.Metal>
0.0000

> <Gold.Chemscore.Lipo>
68.9529

> <Gold.Chemscore.Internal_Hbond>
0.0000

> <Gold.Chemscore.DEClash>
0.1104

> <Gold.Chemscore.DEInternal>
0.8592

> <Gold.Chemscore.Rot>
1.9714

> <Gold.Chemscore.Internal.Correction>
   9.000000E+99

> <Gold.Chemscore.Hbonds>
donor molecule, donor type, donor heavy atom, donor atom, acceptor molecule, acceptor atom, score
      L1  H     9    29       P1  7948  0.88
      L1  H     9    41       P1  7957  0.93
      P1  H 10752 10764       L1    17  0.31

> <Gold.Chemscore.Hbond.Weighted>
-9.8354

> <Gold.Chemscore.Metal.Weighted>
-0.0000

> <Gold.Chemscore.Lipo.Weighted>
-8.0675

> <Gold.Chemscore.Internal_Hbond.Weighted>
0.0000

> <Gold.Chemscore.DEClash.Weighted>
0.1104

> <Gold.Chemscore.DEInternal.Weighted>
0.8592

> <Gold.Chemscore.Rot.Weighted>
5.0468

> <Gold.Chemscore.Internal.Correction.Weighted>
   9.000000E+99

> <Gold.Protein.RotatedTorsions>
[ 6907 6896 6895 6894 ] final  -96.35 input  -60.11 | X-H torsion
[ 7974 7965 7964 7962 ] final  -61.60 input  175.53 | X-H torsion
[ 8008 7997 7996 7995 ] final   94.56 input   59.86 | X-H torsion
[ 10167 10162 10161 10158 ] final -139.51 input  -65.29 | X-H torsion
[ 10718 10713 10712 10709 ] final -113.68 input   66.30 | X-H torsion
[ 10763 10752 10751 10750 ] final  -32.15 input  -60.55 | X-H torsion
[ 11005 11000 10999 10996 ] final  178.19 input  -57.11 | X-H torsion

> <Gold.Protein.ActiveResidues>
 VAL166  LYS551  ARG553  GLY616  TRP617  ASP618  TYR619  PRO620  LYS621  CYS622 
 ASP623  PHE694  ASN695  SER759  ASP760  ASP761  ALA762  ILE779  LEU786  VAL792 
 PHE793  MET794  SER795  GLU796  ALA797  LYS798  CYS799  TRP800  GLU811  SER814 

> <Gold.Protein.RotatedAtoms>
  150.6986  134.1516  159.4142 H   0  0  0  0  0  0  0  0  0  0  0  0  # atno 6907 bound_to 6896
  151.9498  135.0172  160.0550 H   0  0  0  0  0  0  0  0  0  0  0  0  # atno 6908 bound_to 6896
  152.2020  133.4813  159.5100 H   0  0  0  0  0  0  0  0  0  0  0  0  # atno 6909 bound_to 6896
  145.8014  140.8652  143.0229 H   0  0  0  0  0  0  0  0  0  0  0  0  # atno 7974 bound_to 7965
  156.0592  140.3298  155.7442 H   0  0  0  0  0  0  0  0  0  0  0  0  # atno 8008 bound_to 7997
  155.5481  140.0607  157.2873 H   0  0  0  0  0  0  0  0  0  0  0  0  # atno 8009 bound_to 7997
  154.4473  140.1899  156.0646 H   0  0  0  0  0  0  0  0  0  0  0  0  # atno 8010 bound_to 7997
  139.8372  143.7369  152.2664 H   0  0  0  0  0  0  0  0  0  0  0  0  # atno 10167 bound_to 10162
  156.0782  130.5986  150.8674 H   0  0  0  0  0  0  0  0  0  0  0  0  # atno 10718 bound_to 10713
  153.8091  135.6884  153.4843 H   0  0  0  0  0  0  0  0  0  0  0  0  # atno 10763 bound_to 10752
  153.1640  135.4569  154.9809 H   0  0  0  0  0  0  0  0  0  0  0  0  # atno 10764 bound_to 10752
  154.7975  135.3324  154.7573 H   0  0  0  0  0  0  0  0  0  0  0  0  # atno 10765 bound_to 10752
  140.3924  134.6850  157.4515 H   0  0  0  0  0  0  0  0  0  0  0  0  # atno 11005 bound_to 11000
  144.6768  140.0265  143.7483 LP  0  0  0  0  0  0  0  0  0  0  0  0  # atno 17320 bound_to 7965
  145.9873  139.2987  143.1006 LP  0  0  0  0  0  0  0  0  0  0  0  0  # atno 17321 bound_to 7965
  139.7595  144.7511  151.0385 LP  0  0  0  0  0  0  0  0  0  0  0  0  # atno 17342 bound_to 10162
  140.7801  143.4767  151.0073 LP  0  0  0  0  0  0  0  0  0  0  0  0  # atno 17343 bound_to 10162
  157.5887  131.0945  150.9155 LP  0  0  0  0  0  0  0  0  0  0  0  0  # atno 17370 bound_to 10713
  156.9335  130.5358  149.5279 LP  0  0  0  0  0  0  0  0  0  0  0  0  # atno 17371 bound_to 10713
  140.0397  134.6286  155.8997 LP  0  0  0  0  0  0  0  0  0  0  0  0  # atno 17394 bound_to 11000
  141.1886  133.6563  156.5331 LP  0  0  0  0  0  0  0  0  0  0  0  0  # atno 17395 bound_to 11000

$$$$
