AV-unprocessed.smi:1047|AV-procd|sdf|4563|dock6
  -GOLD-   22720 3 03D 1   1.00000     0.00000
 Structure written by MMmdl.
 57 59  0  0  0  0  0  0  0  0  3 V2000
  152.6557  130.3549  155.0798 C   0  0  0  0  0  0  0  0  0  0  0  0
  151.3222  130.4707  155.8318 C   0  0  0  0  0  0  0  0  0  0  0  0
  150.5014  131.6154  155.3628 N   0  3  2  0  0  0  0  0  0  0  0  0
  149.9309  131.3847  154.0140 C   0  0  0  0  0  0  0  0  0  0  0  0
  149.0406  132.5664  153.5939 C   0  0  0  0  0  0  0  0  0  0  0  0
  149.7935  133.7730  153.6323 O   0  0  0  0  0  0  0  0  0  0  0  0
  150.2885  134.0575  154.9365 C   0  0  2  0  0  0  0  0  0  0  0  0
  150.9693  135.4370  154.9248 C   0  0  0  0  0  0  0  0  0  0  0  0
  150.0823  136.4966  154.3998 N   0  3  0  0  0  0  0  0  0  0  0  0
  150.7187  137.8267  154.3220 C   0  0  0  0  0  0  0  0  0  0  0  0
  149.7907  138.9276  154.8717 C   0  0  2  0  0  0  0  0  0  0  0  0
  148.7689  139.1780  153.9274 O   0  0  0  0  0  0  0  0  0  0  0  0
  150.5055  140.2654  155.1525 C   0  0  0  0  0  0  0  0  0  0  0  0
  151.3954  140.1980  156.2973 N   0  0  0  0  0  0  0  0  0  0  0  0
  152.3281  139.2578  156.5428 C   0  0  0  0  0  0  0  0  0  0  0  0
  153.0481  139.3903  157.6528 N   0  0  0  0  0  0  0  0  0  0  0  0
  152.5171  140.5481  158.1945 C   0  0  0  0  0  0  0  0  0  0  0  0
  152.8475  141.2423  159.3788 C   0  0  0  0  0  0  0  0  0  0  0  0
  152.1679  142.4283  159.7373 C   0  0  0  0  0  0  0  0  0  0  0  0
  152.5586  143.1447  161.0181 C   0  0  0  0  0  0  0  0  0  0  0  0
  151.1367  142.9355  158.9064 C   0  0  0  0  0  0  0  0  0  0  0  0
  150.3936  144.2082  159.2715 C   0  0  0  0  0  0  0  0  0  0  0  0
  150.7918  142.2528  157.7212 C   0  0  0  0  0  0  0  0  0  0  0  0
  151.4781  141.0758  157.3733 C   0  0  0  0  0  0  0  0  0  0  0  0
  151.2155  132.9161  155.4056 C   0  0  0  0  0  0  0  0  0  0  0  0
  153.2689  129.5619  155.5089 H   0  0  0  0  0  0  0  0  0  0  0  0
  153.2261  131.2820  155.1433 H   0  0  0  0  0  0  0  0  0  0  0  0
  152.5136  130.1167  154.0261 H   0  0  0  0  0  0  0  0  0  0  0  0
  150.7538  129.5428  155.7522 H   0  0  0  0  0  0  0  0  0  0  0  0
  151.5477  130.6049  156.8907 H   0  0  0  0  0  0  0  0  0  0  0  0
  150.7382  131.2489  153.2925 H   0  0  0  0  0  0  0  0  0  0  0  0
  149.3419  130.4666  154.0121 H   0  0  0  0  0  0  0  0  0  0  0  0
  148.6695  132.4144  152.5801 H   0  0  0  0  0  0  0  0  0  0  0  0
  148.1670  132.6467  154.2430 H   0  0  0  0  0  0  0  0  0  0  0  0
  149.4397  134.1190  155.6203 H   0  0  0  0  0  0  0  0  0  0  0  0
  151.2762  135.7027  155.9372 H   0  0  0  0  0  0  0  0  0  0  0  0
  151.8762  135.3947  154.3203 H   0  0  0  0  0  0  0  0  0  0  0  0
  149.7786  136.2399  153.4712 H   0  0  0  0  0  0  0  0  0  0  0  0
  151.6405  137.7850  154.9023 H   0  0  0  0  0  0  0  0  0  0  0  0
  150.9988  138.0442  153.2901 H   0  0  0  0  0  0  0  0  0  0  0  0
  149.3218  138.5770  155.7921 H   0  0  0  0  0  0  0  0  0  0  0  0
  149.1609  139.2629  153.0712 H   0  0  0  0  0  0  0  0  0  0  0  0
  151.0849  140.5797  154.2832 H   0  0  0  0  0  0  0  0  0  0  0  0
  149.7734  141.0531  155.3370 H   0  0  0  0  0  0  0  0  0  0  0  0
  152.4911  138.4323  155.8652 H   0  0  0  0  0  0  0  0  0  0  0  0
  153.6329  140.8558  160.0118 H   0  0  0  0  0  0  0  0  0  0  0  0
  151.7082  143.2035  161.6976 H   0  0  0  0  0  0  0  0  0  0  0  0
  152.9003  144.1570  160.8011 H   0  0  0  0  0  0  0  0  0  0  0  0
  153.3648  142.6244  161.5361 H   0  0  0  0  0  0  0  0  0  0  0  0
  149.6469  144.4637  158.5193 H   0  0  0  0  0  0  0  0  0  0  0  0
  151.0863  145.0462  159.3521 H   0  0  0  0  0  0  0  0  0  0  0  0
  149.8805  144.0898  160.2260 H   0  0  0  0  0  0  0  0  0  0  0  0
  150.0081  142.6289  157.0805 H   0  0  0  0  0  0  0  0  0  0  0  0
  151.5586  133.1251  156.4184 H   0  0  0  0  0  0  0  0  0  0  0  0
  152.1026  132.8583  154.7731 H   0  0  0  0  0  0  0  0  0  0  0  0
  149.2702  136.5644  154.9969 H   0  0  0  0  0  0  0  0  0  0  0  0
  149.7160  131.6838  155.9948 H   0  0  0  0  0  0  0  0  0  0  0  0
  1  2  1  0  0  0  0
  1 26  1  0  0  0  0
  1 27  1  0  0  0  0
  1 28  1  0  0  0  0
  2  3  1  0  0  0  0
  2 29  1  0  0  0  0
  2 30  1  0  0  0  0
  3 25  1  0  0  0  0
  3  4  1  0  0  0  0
  3 57  1  0  0  0  0
  4  5  1  0  0  0  0
  4 31  1  0  0  0  0
  4 32  1  0  0  0  0
  5  6  1  0  0  0  0
  5 33  1  0  0  0  0
  5 34  1  0  0  0  0
  6  7  1  0  0  0  0
  7  8  1  0  0  0  0
  7 25  1  0  0  0  0
  7 35  1  0  0  0  0
  8  9  1  0  0  0  0
  8 36  1  0  0  0  0
  8 37  1  0  0  0  0
  9 10  1  0  0  0  0
  9 38  1  0  0  0  0
  9 56  1  0  0  0  0
 10 11  1  0  0  0  0
 10 39  1  0  0  0  0
 10 40  1  0  0  0  0
 11 12  1  0  0  0  0
 11 13  1  0  0  0  0
 11 41  1  0  0  0  0
 12 42  1  0  0  0  0
 13 14  1  0  0  0  0
 13 43  1  0  0  0  0
 13 44  1  0  0  0  0
 14 24  1  0  0  0  0
 14 15  1  0  0  0  0
 15 16  2  0  0  0  0
 15 45  1  0  0  0  0
 16 17  1  0  0  0  0
 17 24  2  0  0  0  0
 17 18  1  0  0  0  0
 18 19  2  0  0  0  0
 18 46  1  0  0  0  0
 19 20  1  0  0  0  0
 19 21  1  0  0  0  0
 20 47  1  0  0  0  0
 20 48  1  0  0  0  0
 20 49  1  0  0  0  0
 21 22  1  0  0  0  0
 21 23  2  0  0  0  0
 22 50  1  0  0  0  0
 22 51  1  0  0  0  0
 22 52  1  0  0  0  0
 23 24  1  0  0  0  0
 23 53  1  0  0  0  0
 25 54  1  0  0  0  0
 25 55  1  0  0  0  0
M  CHG  1   3   1
M  CHG  1   9   1
M  END
> <s_m_source_file>
AV-unprocessed.smi

> <i_m_source_file_index>
1047

> <i_lp_mmshare_version>
43012

> <i_f3d_flags>
0

> <s_epik_input>
W0NIM11bQ0gyXU4xW0NIMl1bQ0gyXU9bQ0BIXShbQ0gyXTEpW0NIMl1bTkhdW0NIMl1bQ0BIXShbT0hdKVtDSDJdbihbY0hdbjIpYyhjMjMpW2NIXWMoW0NIM10pYyhbY0hdMylbQ0gzXQ==

> <s_epik_cmdline>
J2VwaWtfcHl0aG9uJywgJy1waCcsICc3LjAnLCAnLXRuJywgJzgnLCAnLW1hJywgJzIwMCcsICctbWV0YWxfYmluZGluZycsICctaW1hZScsICc8aW5maWxlLm1hZT4nLCAnLW9tYWUnLCAnPG91dGZpbGUubWFlPic=

> <r_epik_Ionization_Penalty>
0.528991

> <r_epik_Ionization_Penalty_Charging>
0.438567

> <r_epik_Ionization_Penalty_Neutral>
0.0904237

> <r_epik_State_Penalty>
0.533036

> <r_epik_Charging_Adjusted_Penalty>
0.971603

> <i_epik_Tot_Q>
2

> <i_epik_Tot_abs_Q>
2

> <r_epik_Metal_State_Penalty>
0.448985

> <b_epik_Metal_Only>
0

> <s_lp_Force_Field>
OPLS_2005

> <r_lp_Energy>
33.7981

> <b_lp_Chiralities_Consistent>
1

> <s_lp_Variant>
AV-unprocessed.smi:1047-4

> <Gold.Version>
5.8.1

> <Gold.Id.Protein>
6NUR|6NUR_protein|mol2

> <Gold.PLP.Fitness>
59.4711

> <Gold.PLP.PLP>
-48.5933

> <Gold.PLP.part.hbond>
-3.1632

> <Gold.PLP.part.metal>
0.0000

> <Gold.PLP.part.buried>
-3.4736

> <Gold.PLP.part.nonpolar>
-42.1155

> <Gold.PLP.part.repulsive>
0.9076

> <Gold.PLP.ligand.clash>
0.0000

> <Gold.PLP.ligand.torsion>
0.6568

> <Gold.PLP.Chemscore.Hbond>
4.0000

> <Gold.PLP.Chemscore.CHOScore>
0.0000

> <Gold.PLP.Chemscore.Metal>
0.0000

> <Gold.Chemscore.Hbonds>
donor molecule, donor type, donor heavy atom, donor atom, acceptor molecule, acceptor atom, score
      L1  H     9    38       P1  7948  1.80
      L1  H    12    42       P1  7957  0.81
      P1  H  7997  8008       L1    16  1.00

> <Gold.PLP.Chemscore.Internal.Correction>
0.1914

> <Gold.Rescore>
     Score         DG    S(hbond)    S(metal)    S(lipo)     H(rot)  DE(clash)    DE(int)     intcor
     18.02     -19.18       1.97        0.00     119.85       2.70       0.51       0.65       ----

> <Gold.Chemscore.Fitness>
18.0170

> <Gold.Chemscore.DG>
-19.1761

> <Gold.Chemscore.ZeroCoef>
-5.4800

> <Gold.Chemscore.Hbond>
1.9705

> <Gold.Chemscore.Metal>
0.0000

> <Gold.Chemscore.Lipo>
119.8519

> <Gold.Chemscore.Internal_Hbond>
0.0000

> <Gold.Chemscore.DEClash>
0.5132

> <Gold.Chemscore.DEInternal>
0.6459

> <Gold.Chemscore.Rot>
2.6985

> <Gold.Chemscore.Internal.Correction>
   9.000000E+99

> <Gold.Chemscore.Hbonds>
donor molecule, donor type, donor heavy atom, donor atom, acceptor molecule, acceptor atom, score
      L1  H     9    38       P1  7948  0.18
      L1  H    12    42       P1  7957  0.80
      P1  H  7997  8008       L1    16  0.11

> <Gold.Chemscore.Hbond.Weighted>
-6.5815

> <Gold.Chemscore.Metal.Weighted>
-0.0000

> <Gold.Chemscore.Lipo.Weighted>
-14.0227

> <Gold.Chemscore.Internal_Hbond.Weighted>
0.0000

> <Gold.Chemscore.DEClash.Weighted>
0.5132

> <Gold.Chemscore.DEInternal.Weighted>
0.6459

> <Gold.Chemscore.Rot.Weighted>
6.9081

> <Gold.Chemscore.Internal.Correction.Weighted>
   9.000000E+99

> <Gold.Protein.RotatedTorsions>
[ 6907 6896 6895 6894 ] final  -16.96 input  -60.11 | X-H torsion
[ 7974 7965 7964 7962 ] final   76.01 input  175.53 | X-H torsion
[ 8008 7997 7996 7995 ] final  -90.07 input   59.86 | X-H torsion
[ 10167 10162 10161 10158 ] final  -50.35 input  -65.29 | X-H torsion
[ 10718 10713 10712 10709 ] final  109.53 input   66.30 | X-H torsion
[ 10763 10752 10751 10750 ] final   94.24 input  -60.55 | X-H torsion
[ 11005 11000 10999 10996 ] final  157.70 input  -57.11 | X-H torsion

> <Gold.Protein.ActiveResidues>
 VAL166  LYS551  ARG553  GLY616  TRP617  ASP618  TYR619  PRO620  LYS621  CYS622 
 ASP623  PHE694  ASN695  SER759  ASP760  ASP761  ALA762  ILE779  LEU786  VAL792 
 PHE793  MET794  SER795  GLU796  ALA797  LYS798  CYS799  TRP800  GLU811  SER814 

> <Gold.Protein.RotatedAtoms>
  151.3006  135.0767  159.9236 H   0  0  0  0  0  0  0  0  0  0  0  0  # atno 6907 bound_to 6896
  152.5298  133.9837  159.7829 H   0  0  0  0  0  0  0  0  0  0  0  0  # atno 6908 bound_to 6896
  151.0123  133.5902  159.2711 H   0  0  0  0  0  0  0  0  0  0  0  0  # atno 6909 bound_to 6896
  145.7083  139.2606  143.1665 H   0  0  0  0  0  0  0  0  0  0  0  0  # atno 7974 bound_to 7965
  154.6941  140.0534  157.0393 H   0  0  0  0  0  0  0  0  0  0  0  0  # atno 8008 bound_to 7997
  155.0776  140.3206  155.4592 H   0  0  0  0  0  0  0  0  0  0  0  0  # atno 8009 bound_to 7997
  156.2738  140.2070  156.5903 H   0  0  0  0  0  0  0  0  0  0  0  0  # atno 8010 bound_to 7997
  140.6642  143.2661  151.4346 H   0  0  0  0  0  0  0  0  0  0  0  0  # atno 10167 bound_to 10162
  157.6537  131.0915  150.6468 H   0  0  0  0  0  0  0  0  0  0  0  0  # atno 10718 bound_to 10713
  153.2394  135.4296  155.0682 H   0  0  0  0  0  0  0  0  0  0  0  0  # atno 10763 bound_to 10752
  154.8334  135.3399  154.6671 H   0  0  0  0  0  0  0  0  0  0  0  0  # atno 10764 bound_to 10752
  153.7095  135.7023  153.5098 H   0  0  0  0  0  0  0  0  0  0  0  0  # atno 10765 bound_to 10752
  140.1794  134.8486  157.2785 H   0  0  0  0  0  0  0  0  0  0  0  0  # atno 11005 bound_to 11000
  146.0735  140.7843  142.9676 LP  0  0  0  0  0  0  0  0  0  0  0  0  # atno 17320 bound_to 7965
  144.6949  140.3379  143.7204 LP  0  0  0  0  0  0  0  0  0  0  0  0  # atno 17321 bound_to 7965
  139.5885  144.1551  152.2059 LP  0  0  0  0  0  0  0  0  0  0  0  0  # atno 17342 bound_to 10162
  140.0898  144.5630  150.7062 LP  0  0  0  0  0  0  0  0  0  0  0  0  # atno 17343 bound_to 10162
  156.6776  130.4558  149.5637 LP  0  0  0  0  0  0  0  0  0  0  0  0  # atno 17370 bound_to 10713
  156.1952  130.6585  151.1106 LP  0  0  0  0  0  0  0  0  0  0  0  0  # atno 17371 bound_to 10713
  140.2284  134.3938  155.7533 LP  0  0  0  0  0  0  0  0  0  0  0  0  # atno 17394 bound_to 11000
  141.2222  133.7202  156.8602 LP  0  0  0  0  0  0  0  0  0  0  0  0  # atno 17395 bound_to 11000

$$$$
