AV-unprocessed.smi:438|AV-procd|sdf|2570|dock1
  -GOLD-   2262022543D 1   1.00000     0.00000
 Structure written by MMmdl.
 48 49  0  0  0  0  0  0  0  0  1 V2000
  147.7583  133.9188  153.5850 C   0  0  0  0  0  0  0  0  0  0  0  0
  148.5586  134.2968  154.8193 C   0  0  0  0  0  0  0  0  0  0  0  0
  149.3546  135.4171  154.6623 N   0  0  0  0  0  0  0  0  0  0  0  0
  150.1331  135.8433  155.7271 C   0  0  0  0  0  0  0  0  0  0  0  0
  151.0924  137.3098  155.2486 S   0  0  0  0  0  0  0  0  0  0  0  0
  150.5381  138.5261  156.4814 C   0  0  0  0  0  0  0  0  0  0  0  0
  151.4690  139.7314  156.6180 C   0  0  0  0  0  0  0  0  0  0  0  0
  152.4272  139.8762  155.8585 O   0  0  0  0  0  0  0  0  0  0  0  0
  151.1679  140.5976  157.5976 N   0  0  0  0  0  0  0  0  0  0  0  0
  151.9297  141.7992  157.9316 C   0  0  1  0  0  0  0  0  0  0  0  0
  151.0716  143.0556  157.6717 C   0  0  0  0  0  0  0  0  0  0  0  0
  151.8155  144.3408  158.0625 C   0  0  0  0  0  0  0  0  0  0  0  0
  152.2779  144.2876  159.5250 C   0  0  0  0  0  0  0  0  0  0  0  0
  153.1429  143.0451  159.7844 C   0  0  0  0  0  0  0  0  0  0  0  0
  152.4078  141.7437  159.4043 C   0  0  2  0  0  0  0  0  0  0  0  0
  153.2936  140.5186  159.6935 C   0  0  0  0  0  0  0  0  0  0  0  0
  150.1521  135.2539  156.8861 N   0  0  0  0  0  0  0  0  0  0  0  0
  149.3600  134.1176  157.1096 C   0  0  0  0  0  0  0  0  0  0  0  0
  149.3645  133.5611  158.2068 O   0  0  0  0  0  0  0  0  0  0  0  0
  148.5308  133.6175  155.9920 C   0  0  0  0  0  0  0  0  0  0  0  0
  147.6683  132.3769  156.2250 C   0  0  0  0  0  0  0  0  0  0  0  0
  146.1816  132.5984  155.8957 C   0  0  0  0  0  0  0  0  0  0  0  0
  145.4715  131.3784  155.9364 O   0  0  0  0  0  0  0  0  0  0  0  0
  147.9908  132.8995  153.2765 H   0  0  0  0  0  0  0  0  0  0  0  0
  147.9777  134.5797  152.7452 H   0  0  0  0  0  0  0  0  0  0  0  0
  146.6896  133.9832  153.7904 H   0  0  0  0  0  0  0  0  0  0  0  0
  150.4523  138.0279  157.4482 H   0  0  0  0  0  0  0  0  0  0  0  0
  149.5435  138.8803  156.2092 H   0  0  0  0  0  0  0  0  0  0  0  0
  150.3573  140.4022  158.1673 H   0  0  0  0  0  0  0  0  0  0  0  0
  152.8140  141.8438  157.2925 H   0  0  0  0  0  0  0  0  0  0  0  0
  150.7878  143.1080  156.6198 H   0  0  0  0  0  0  0  0  0  0  0  0
  150.1414  142.9906  158.2383 H   0  0  0  0  0  0  0  0  0  0  0  0
  152.6787  144.4763  157.4095 H   0  0  0  0  0  0  0  0  0  0  0  0
  151.1706  145.2061  157.9071 H   0  0  0  0  0  0  0  0  0  0  0  0
  152.8401  145.1892  159.7701 H   0  0  0  0  0  0  0  0  0  0  0  0
  151.4097  144.2747  160.1851 H   0  0  0  0  0  0  0  0  0  0  0  0
  154.0697  143.1236  159.2144 H   0  0  0  0  0  0  0  0  0  0  0  0
  153.4309  143.0176  160.8359 H   0  0  0  0  0  0  0  0  0  0  0  0
  151.5263  141.6659  160.0430 H   0  0  0  0  0  0  0  0  0  0  0  0
  154.1833  140.5170  159.0632 H   0  0  0  0  0  0  0  0  0  0  0  0
  152.7603  139.5839  159.5195 H   0  0  0  0  0  0  0  0  0  0  0  0
  153.6234  140.5115  160.7328 H   0  0  0  0  0  0  0  0  0  0  0  0
  149.3455  135.8856  153.7677 H   0  0  0  0  0  0  0  0  0  0  0  0
  147.7621  132.0296  157.2533 H   0  0  0  0  0  0  0  0  0  0  0  0
  148.0574  131.5610  155.6144 H   0  0  0  0  0  0  0  0  0  0  0  0
  145.7245  133.3037  156.5899 H   0  0  0  0  0  0  0  0  0  0  0  0
  146.0803  133.0244  154.8974 H   0  0  0  0  0  0  0  0  0  0  0  0
  144.5902  131.5331  155.6322 H   0  0  0  0  0  0  0  0  0  0  0  0
  1 24  1  0  0  0  0
  1 25  1  0  0  0  0
  1 26  1  0  0  0  0
  1  2  1  0  0  0  0
  2 20  2  0  0  0  0
  2  3  1  0  0  0  0
  3  4  1  0  0  0  0
  3 43  1  0  0  0  0
  4  5  1  0  0  0  0
  4 17  2  0  0  0  0
  5  6  1  0  0  0  0
  6  7  1  0  0  0  0
  6 27  1  0  0  0  0
  6 28  1  0  0  0  0
  7  8  2  0  0  0  0
  7  9  1  0  0  0  0
  9 10  1  0  0  0  0
  9 29  1  0  0  0  0
 10 15  1  0  0  0  0
 10 11  1  0  0  0  0
 10 30  1  0  0  0  0
 11 12  1  0  0  0  0
 11 31  1  0  0  0  0
 11 32  1  0  0  0  0
 12 13  1  0  0  0  0
 12 33  1  0  0  0  0
 12 34  1  0  0  0  0
 13 14  1  0  0  0  0
 13 35  1  0  0  0  0
 13 36  1  0  0  0  0
 14 15  1  0  0  0  0
 14 37  1  0  0  0  0
 14 38  1  0  0  0  0
 15 16  1  0  0  0  0
 15 39  1  0  0  0  0
 16 40  1  0  0  0  0
 16 41  1  0  0  0  0
 16 42  1  0  0  0  0
 17 18  1  0  0  0  0
 18 19  2  0  0  0  0
 18 20  1  0  0  0  0
 20 21  1  0  0  0  0
 21 22  1  0  0  0  0
 21 44  1  0  0  0  0
 21 45  1  0  0  0  0
 22 23  1  0  0  0  0
 22 46  1  0  0  0  0
 22 47  1  0  0  0  0
 23 48  1  0  0  0  0
M  END
> <s_m_source_file>
AV-unprocessed.smi

> <i_m_source_file_index>
438

> <i_lp_mmshare_version>
43012

> <i_f3d_flags>
0

> <s_epik_input>
W09IXVtDSDJdW0NIMl1jMWMoW09IXSluYyhuYzFbQ0gzXSlTW0NIMl1DKD1PKVtOSF1bQ0BASF0yW0NIMl1bQ0gyXVtDSDJdW0NIMl1bQ0BIXTJbQ0gzXQ==

> <s_epik_cmdline>
J2VwaWtfcHl0aG9uJywgJy1waCcsICc3LjAnLCAnLXRuJywgJzgnLCAnLW1hJywgJzIwMCcsICctbWV0YWxfYmluZGluZycsICctaW1hZScsICc8aW5maWxlLm1hZT4nLCAnLW9tYWUnLCAnPG91dGZpbGUubWFlPic=

> <r_lp_tautomer_probability>
0.273662

> <r_epik_Ionization_Penalty>
0.0875285

> <r_epik_Ionization_Penalty_Charging>
0.0875254

> <r_epik_Ionization_Penalty_Neutral>
3.01536e-06

> <r_epik_State_Penalty>
0.985796

> <r_epik_Charging_Adjusted_Penalty>
1.07332

> <i_epik_Tot_Q>
0

> <i_epik_Tot_abs_Q>
0

> <r_epik_Metal_State_Penalty>
1.58101

> <b_epik_Metal_Only>
0

> <s_lp_Force_Field>
OPLS_2005

> <r_lp_Energy>
20.5505

> <b_lp_Chiralities_Consistent>
1

> <s_lp_Variant>
AV-unprocessed.smi:438-8

> <Gold.Version>
5.8.1

> <Gold.Id.Protein>
6NUR|6NUR_protein|mol2

> <Gold.PLP.Fitness>
47.5721

> <Gold.PLP.PLP>
-35.9854

> <Gold.PLP.part.hbond>
-4.8469

> <Gold.PLP.part.metal>
0.0000

> <Gold.PLP.part.buried>
-3.2710

> <Gold.PLP.part.nonpolar>
-28.1516

> <Gold.PLP.part.repulsive>
0.0846

> <Gold.PLP.ligand.clash>
0.0000

> <Gold.PLP.ligand.torsion>
0.1777

> <Gold.PLP.Chemscore.Hbond>
3.9500

> <Gold.PLP.Chemscore.CHOScore>
0.0000

> <Gold.PLP.Chemscore.Metal>
0.0000

> <Gold.Chemscore.Hbonds>
donor molecule, donor type, donor heavy atom, donor atom, acceptor molecule, acceptor atom, score
      L1  H     3    43       P1  7948  1.00
      L1  H    23    48       P1 10957  0.79
      P1  H  6896  6908       L1    19  1.00
      P1  H  7997  8010       L1     8  1.00

> <Gold.PLP.Chemscore.Internal.Correction>
0.0921

> <Gold.Rescore>
     Score         DG    S(hbond)    S(metal)    S(lipo)     H(rot)  DE(clash)    DE(int)     intcor
     21.15     -21.38       3.66        0.00      94.11       2.86       0.08       0.15       ----

> <Gold.Chemscore.Fitness>
21.1529

> <Gold.Chemscore.DG>
-21.3831

> <Gold.Chemscore.ZeroCoef>
-5.4800

> <Gold.Chemscore.Hbond>
3.6602

> <Gold.Chemscore.Metal>
0.0000

> <Gold.Chemscore.Lipo>
94.1120

> <Gold.Chemscore.Internal_Hbond>
0.0000

> <Gold.Chemscore.DEClash>
0.0835

> <Gold.Chemscore.DEInternal>
0.1467

> <Gold.Chemscore.Rot>
2.8645

> <Gold.Chemscore.Internal.Correction>
   9.000000E+99

> <Gold.Chemscore.Hbonds>
donor molecule, donor type, donor heavy atom, donor atom, acceptor molecule, acceptor atom, score
      L1  H     3    43       P1  7948  0.64
      L1  H    23    48       P1 10957  0.13
      P1  H  6896  6908       L1    19  0.94
      P1  H  7997  8010       L1     8  0.98

> <Gold.Chemscore.Hbond.Weighted>
-12.2251

> <Gold.Chemscore.Metal.Weighted>
-0.0000

> <Gold.Chemscore.Lipo.Weighted>
-11.0111

> <Gold.Chemscore.Internal_Hbond.Weighted>
0.0000

> <Gold.Chemscore.DEClash.Weighted>
0.0835

> <Gold.Chemscore.DEInternal.Weighted>
0.1467

> <Gold.Chemscore.Rot.Weighted>
7.3331

> <Gold.Chemscore.Internal.Correction.Weighted>
   9.000000E+99

> <Gold.Protein.RotatedTorsions>
[ 6907 6896 6895 6894 ] final  109.48 input  -60.11 | X-H torsion
[ 7974 7965 7964 7962 ] final -177.84 input  175.53 | X-H torsion
[ 8008 7997 7996 7995 ] final   80.50 input   59.86 | X-H torsion
[ 10167 10162 10161 10158 ] final  -41.38 input  -65.29 | X-H torsion
[ 10718 10713 10712 10709 ] final -170.28 input   66.30 | X-H torsion
[ 10763 10752 10751 10750 ] final  141.58 input  -60.55 | X-H torsion
[ 11005 11000 10999 10996 ] final  138.65 input  -57.11 | X-H torsion

> <Gold.Protein.ActiveResidues>
 VAL166  LYS551  ARG553  GLY616  TRP617  ASP618  TYR619  PRO620  LYS621  CYS622 
 ASP623  PHE694  ASN695  SER759  ASP760  ASP761  ALA762  ILE779  LEU786  VAL792 
 PHE793  MET794  SER795  GLU796  ALA797  LYS798  CYS799  TRP800  GLU811  SER814 

> <Gold.Protein.RotatedAtoms>
  152.5065  133.8937  159.7406 H   0  0  0  0  0  0  0  0  0  0  0  0  # atno 6907 bound_to 6896
  150.9370  133.6692  159.2805 H   0  0  0  0  0  0  0  0  0  0  0  0  # atno 6908 bound_to 6896
  151.4017  135.0977  159.9610 H   0  0  0  0  0  0  0  0  0  0  0  0  # atno 6909 bound_to 6896
  144.7129  140.0958  143.6419 H   0  0  0  0  0  0  0  0  0  0  0  0  # atno 7974 bound_to 7965
  155.8843  140.3442  155.5910 H   0  0  0  0  0  0  0  0  0  0  0  0  # atno 8008 bound_to 7997
  155.7684  140.0842  157.2139 H   0  0  0  0  0  0  0  0  0  0  0  0  # atno 8009 bound_to 7997
  154.4027  140.1523  156.2900 H   0  0  0  0  0  0  0  0  0  0  0  0  # atno 8010 bound_to 7997
  140.7004  143.3098  151.3058 H   0  0  0  0  0  0  0  0  0  0  0  0  # atno 10167 bound_to 10162
  156.7239  130.9281  151.3099 H   0  0  0  0  0  0  0  0  0  0  0  0  # atno 10718 bound_to 10713
  153.9415  135.2979  155.3442 H   0  0  0  0  0  0  0  0  0  0  0  0  # atno 10763 bound_to 10752
  154.7474  135.4996  153.9231 H   0  0  0  0  0  0  0  0  0  0  0  0  # atno 10764 bound_to 10752
  153.1040  135.6742  153.9728 H   0  0  0  0  0  0  0  0  0  0  0  0  # atno 10765 bound_to 10752
  140.0199  134.9401  157.0452 H   0  0  0  0  0  0  0  0  0  0  0  0  # atno 11005 bound_to 11000
  145.9581  139.2781  143.1172 LP  0  0  0  0  0  0  0  0  0  0  0  0  # atno 17320 bound_to 7965
  145.9251  140.9088  143.0385 LP  0  0  0  0  0  0  0  0  0  0  0  0  # atno 17321 bound_to 7965
  139.6517  144.0350  152.2631 LP  0  0  0  0  0  0  0  0  0  0  0  0  # atno 17342 bound_to 10162
  139.9889  144.6376  150.7832 LP  0  0  0  0  0  0  0  0  0  0  0  0  # atno 17343 bound_to 10162
  157.6886  130.9211  150.0454 LP  0  0  0  0  0  0  0  0  0  0  0  0  # atno 17370 bound_to 10713
  156.1575  130.3643  149.9347 LP  0  0  0  0  0  0  0  0  0  0  0  0  # atno 17371 bound_to 10713
  140.4406  134.1685  155.7173 LP  0  0  0  0  0  0  0  0  0  0  0  0  # atno 17394 bound_to 11000
  141.1767  133.8500  157.1398 LP  0  0  0  0  0  0  0  0  0  0  0  0  # atno 17395 bound_to 11000

$$$$
