AV-unprocessed.smi:1005|AV-procd|sdf|4362|dock5
  -GOLD-   22720 2263D 1   1.00000     0.00000
 Structure written by MMmdl.
 56 58  0  0  0  0  0  0  0  0  2 V2000
  152.7501  142.6052  161.6869 C   0  0  0  0  0  0  0  0  0  0  0  0
  152.2492  142.3489  160.2764 C   0  0  0  0  0  0  0  0  0  0  0  0
  152.6993  141.2012  159.5851 C   0  0  0  0  0  0  0  0  0  0  0  0
  152.2592  140.9279  158.2714 C   0  0  0  0  0  0  0  0  0  0  0  0
  152.5657  139.8803  157.4197 N   0  0  0  0  0  0  0  0  0  0  0  0
  151.8468  140.1897  156.3445 C   0  0  0  0  0  0  0  0  0  0  0  0
  151.1047  141.3124  156.4016 N   0  0  0  0  0  0  0  0  0  0  0  0
  150.2441  141.8508  155.3631 C   0  0  0  0  0  0  0  0  0  0  0  0
  149.3674  140.7686  154.7029 C   0  0  2  0  0  0  0  0  0  0  0  0
  150.1860  139.9853  153.8547 O   0  0  0  0  0  0  0  0  0  0  0  0
  148.2214  141.3867  153.8741 C   0  0  0  0  0  0  0  0  0  0  0  0
  147.0514  141.8134  154.6430 N   0  0  0  0  0  0  0  0  0  0  0  0
  146.2690  142.7939  153.8987 C   0  0  0  0  0  0  0  0  0  0  0  0
  145.0303  143.2554  154.6838 C   0  0  0  0  0  0  0  0  0  0  0  0
  144.2375  142.1228  155.0244 O   0  0  0  0  0  0  0  0  0  0  0  0
  144.9448  141.1617  155.8045 C   0  0  1  0  0  0  0  0  0  0  0  0
  143.9910  139.9919  156.1056 C   0  0  0  0  0  0  0  0  0  0  0  0
  143.0232  139.7440  155.0068 N   0  3  0  0  0  0  0  0  0  0  0  0
  141.8237  140.6108  155.0706 C   0  0  0  0  0  0  0  0  0  0  0  0
  142.6545  138.3148  154.9026 C   0  0  0  0  0  0  0  0  0  0  0  0
  146.1842  140.6976  155.0132 C   0  0  0  0  0  0  0  0  0  0  0  0
  151.3487  141.8413  157.6640 C   0  0  0  0  0  0  0  0  0  0  0  0
  150.8930  142.9859  158.3414 C   0  0  0  0  0  0  0  0  0  0  0  0
  151.3424  143.2438  159.6533 C   0  0  0  0  0  0  0  0  0  0  0  0
  150.8450  144.4832  160.3763 C   0  0  0  0  0  0  0  0  0  0  0  0
  153.4657  141.8441  162.0001 H   0  0  0  0  0  0  0  0  0  0  0  0
  151.9201  142.5960  162.3941 H   0  0  0  0  0  0  0  0  0  0  0  0
  153.2462  143.5744  161.7468 H   0  0  0  0  0  0  0  0  0  0  0  0
  153.3894  140.5190  160.0594 H   0  0  0  0  0  0  0  0  0  0  0  0
  151.8560  139.5617  155.4655 H   0  0  0  0  0  0  0  0  0  0  0  0
  149.6175  142.6221  155.8127 H   0  0  0  0  0  0  0  0  0  0  0  0
  150.8644  142.3490  154.6161 H   0  0  0  0  0  0  0  0  0  0  0  0
  148.9542  140.1272  155.4826 H   0  0  0  0  0  0  0  0  0  0  0  0
  149.8000  139.9770  152.9918 H   0  0  0  0  0  0  0  0  0  0  0  0
  148.6234  142.2706  153.3772 H   0  0  0  0  0  0  0  0  0  0  0  0
  147.9266  140.7130  153.0676 H   0  0  0  0  0  0  0  0  0  0  0  0
  146.8879  143.6605  153.6625 H   0  0  0  0  0  0  0  0  0  0  0  0
  145.9523  142.3682  152.9451 H   0  0  0  0  0  0  0  0  0  0  0  0
  145.3222  143.7911  155.5885 H   0  0  0  0  0  0  0  0  0  0  0  0
  144.4336  143.9414  154.0824 H   0  0  0  0  0  0  0  0  0  0  0  0
  145.2789  141.6262  156.7328 H   0  0  0  0  0  0  0  0  0  0  0  0
  144.5925  139.0960  156.2684 H   0  0  0  0  0  0  0  0  0  0  0  0
  143.4473  140.1690  157.0348 H   0  0  0  0  0  0  0  0  0  0  0  0
  141.2671  140.4411  155.9934 H   0  0  0  0  0  0  0  0  0  0  0  0
  141.1580  140.4048  154.2318 H   0  0  0  0  0  0  0  0  0  0  0  0
  142.0870  141.6665  155.0189 H   0  0  0  0  0  0  0  0  0  0  0  0
  142.1437  137.9761  155.8052 H   0  0  0  0  0  0  0  0  0  0  0  0
  143.5398  137.6950  154.7564 H   0  0  0  0  0  0  0  0  0  0  0  0
  141.9932  138.1473  154.0519 H   0  0  0  0  0  0  0  0  0  0  0  0
  145.8672  140.1641  154.1155 H   0  0  0  0  0  0  0  0  0  0  0  0
  146.7356  139.9828  155.6235 H   0  0  0  0  0  0  0  0  0  0  0  0
  150.2034  143.6593  157.8540 H   0  0  0  0  0  0  0  0  0  0  0  0
  150.1163  145.0286  159.7757 H   0  0  0  0  0  0  0  0  0  0  0  0
  151.6746  145.1573  160.5905 H   0  0  0  0  0  0  0  0  0  0  0  0
  150.3660  144.2122  161.3172 H   0  0  0  0  0  0  0  0  0  0  0  0
  143.5043  139.9704  154.1475 H   0  0  0  0  0  0  0  0  0  0  0  0
  1  2  1  0  0  0  0
  1 26  1  0  0  0  0
  1 27  1  0  0  0  0
  1 28  1  0  0  0  0
  2 24  1  0  0  0  0
  2  3  2  0  0  0  0
  3  4  1  0  0  0  0
  3 29  1  0  0  0  0
  4 22  2  0  0  0  0
  4  5  1  0  0  0  0
  5  6  2  0  0  0  0
  6  7  1  0  0  0  0
  6 30  1  0  0  0  0
  7  8  1  0  0  0  0
  7 22  1  0  0  0  0
  8  9  1  0  0  0  0
  8 31  1  0  0  0  0
  8 32  1  0  0  0  0
  9 10  1  0  0  0  0
  9 11  1  0  0  0  0
  9 33  1  0  0  0  0
 10 34  1  0  0  0  0
 11 12  1  0  0  0  0
 11 35  1  0  0  0  0
 11 36  1  0  0  0  0
 12 21  1  0  0  0  0
 12 13  1  0  0  0  0
 13 14  1  0  0  0  0
 13 37  1  0  0  0  0
 13 38  1  0  0  0  0
 14 15  1  0  0  0  0
 14 39  1  0  0  0  0
 14 40  1  0  0  0  0
 15 16  1  0  0  0  0
 16 17  1  0  0  0  0
 16 21  1  0  0  0  0
 16 41  1  0  0  0  0
 17 18  1  0  0  0  0
 17 42  1  0  0  0  0
 17 43  1  0  0  0  0
 18 19  1  0  0  0  0
 18 20  1  0  0  0  0
 18 56  1  0  0  0  0
 19 44  1  0  0  0  0
 19 45  1  0  0  0  0
 19 46  1  0  0  0  0
 20 47  1  0  0  0  0
 20 48  1  0  0  0  0
 20 49  1  0  0  0  0
 21 50  1  0  0  0  0
 21 51  1  0  0  0  0
 22 23  1  0  0  0  0
 23 24  2  0  0  0  0
 23 52  1  0  0  0  0
 24 25  1  0  0  0  0
 25 53  1  0  0  0  0
 25 54  1  0  0  0  0
 25 55  1  0  0  0  0
M  CHG  1  18   1
M  END
> <s_m_source_file>
AV-unprocessed.smi

> <i_m_source_file_index>
1005

> <i_lp_mmshare_version>
43012

> <i_f3d_flags>
0

> <s_epik_input>
W0NIM11jKFtjSF0xKWMoW0NIM10pW2NIXWMoYzEyKW4oW2NIXW4yKVtDSDJdW0NASF0oW09IXSlbQ0gyXU4zW0NIMl1bQ0gyXU9bQ0BIXShbQ0gyXTMpW0NIMl1OKFtDSDNdKVtDSDNd

> <s_epik_cmdline>
J2VwaWtfcHl0aG9uJywgJy1waCcsICc3LjAnLCAnLXRuJywgJzgnLCAnLW1hJywgJzIwMCcsICctbWV0YWxfYmluZGluZycsICctaW1hZScsICc8aW5maWxlLm1hZT4nLCAnLW9tYWUnLCAnPG91dGZpbGUubWFlPic=

> <r_epik_Ionization_Penalty>
0.226781

> <r_epik_Ionization_Penalty_Charging>
0.00915946

> <r_epik_Ionization_Penalty_Neutral>
0.217622

> <r_epik_State_Penalty>
0.173018

> <r_epik_Charging_Adjusted_Penalty>
0.182178

> <i_epik_Tot_Q>
1

> <i_epik_Tot_abs_Q>
1

> <r_epik_Metal_State_Penalty>
0.0905268

> <b_epik_Metal_Only>
0

> <s_lp_Force_Field>
OPLS_2005

> <r_lp_Energy>
36.5786

> <b_lp_Chiralities_Consistent>
1

> <s_lp_Variant>
AV-unprocessed.smi:1005-1

> <Gold.Version>
5.8.1

> <Gold.Id.Protein>
6NUR|6NUR_protein|mol2

> <Gold.PLP.Fitness>
60.0069

> <Gold.PLP.PLP>
-47.9014

> <Gold.PLP.part.hbond>
-4.0000

> <Gold.PLP.part.metal>
0.0000

> <Gold.PLP.part.buried>
-6.1807

> <Gold.PLP.part.nonpolar>
-37.7704

> <Gold.PLP.part.repulsive>
0.3157

> <Gold.PLP.ligand.clash>
0.0038

> <Gold.PLP.ligand.torsion>
1.3253

> <Gold.PLP.Chemscore.Hbond>
4.8968

> <Gold.PLP.Chemscore.CHOScore>
0.0000

> <Gold.PLP.Chemscore.Metal>
0.0000

> <Gold.Chemscore.Hbonds>
donor molecule, donor type, donor heavy atom, donor atom, acceptor molecule, acceptor atom, score
      L1  H    10    34       P1  7957  1.00
      L1  H    18    56       P1 10175  2.00
      P1  H  7989  7998       L1    10  0.81
      P1  H  7997  8009       L1     5  1.00

> <Gold.PLP.Chemscore.Internal.Correction>
0.0695

> <Gold.Rescore>
     Score         DG    S(hbond)    S(metal)    S(lipo)     H(rot)  DE(clash)    DE(int)     intcor
     17.32     -21.90       2.63        0.00     118.07       2.41       0.92       3.66       ----

> <Gold.Chemscore.Fitness>
17.3219

> <Gold.Chemscore.DG>
-21.9041

> <Gold.Chemscore.ZeroCoef>
-5.4800

> <Gold.Chemscore.Hbond>
2.6315

> <Gold.Chemscore.Metal>
0.0000

> <Gold.Chemscore.Lipo>
118.0653

> <Gold.Chemscore.Internal_Hbond>
0.0000

> <Gold.Chemscore.DEClash>
0.9199

> <Gold.Chemscore.DEInternal>
3.6622

> <Gold.Chemscore.Rot>
2.4136

> <Gold.Chemscore.Internal.Correction>
   9.000000E+99

> <Gold.Chemscore.Hbonds>
donor molecule, donor type, donor heavy atom, donor atom, acceptor molecule, acceptor atom, score
      L1  H    10    34       P1  7957  1.00
      L1  H    18    56       P1 10175  0.98
      P1  H  7989  7998       L1    10  0.11
      P1  H  7997  8009       L1     5  0.34

> <Gold.Chemscore.Hbond.Weighted>
-8.7892

> <Gold.Chemscore.Metal.Weighted>
-0.0000

> <Gold.Chemscore.Lipo.Weighted>
-13.8136

> <Gold.Chemscore.Internal_Hbond.Weighted>
0.0000

> <Gold.Chemscore.DEClash.Weighted>
0.9199

> <Gold.Chemscore.DEInternal.Weighted>
3.6622

> <Gold.Chemscore.Rot.Weighted>
6.1788

> <Gold.Chemscore.Internal.Correction.Weighted>
   9.000000E+99

> <Gold.Protein.RotatedTorsions>
[ 6907 6896 6895 6894 ] final   22.59 input  -60.11 | X-H torsion
[ 7974 7965 7964 7962 ] final  -51.68 input  175.53 | X-H torsion
[ 8008 7997 7996 7995 ] final  165.42 input   59.86 | X-H torsion
[ 10167 10162 10161 10158 ] final   15.58 input  -65.29 | X-H torsion
[ 10718 10713 10712 10709 ] final -123.56 input   66.30 | X-H torsion
[ 10763 10752 10751 10750 ] final -123.14 input  -60.55 | X-H torsion
[ 11005 11000 10999 10996 ] final  -70.13 input  -57.11 | X-H torsion

> <Gold.Protein.ActiveResidues>
 VAL166  LYS551  ARG553  GLY616  TRP617  ASP618  TYR619  PRO620  LYS621  CYS622 
 ASP623  PHE694  ASN695  SER759  ASP760  ASP761  ALA762  ILE779  LEU786  VAL792 
 PHE793  MET794  SER795  GLU796  ALA797  LYS798  CYS799  TRP800  GLU811  SER814 

> <Gold.Protein.RotatedAtoms>
  151.9294  135.0263  160.0527 H   0  0  0  0  0  0  0  0  0  0  0  0  # atno 6907 bound_to 6896
  152.2131  133.4922  159.5129 H   0  0  0  0  0  0  0  0  0  0  0  0  # atno 6908 bound_to 6896
  150.6981  134.1358  159.4129 H   0  0  0  0  0  0  0  0  0  0  0  0  # atno 6909 bound_to 6896
  145.9163  140.7872  142.9670 H   0  0  0  0  0  0  0  0  0  0  0  0  # atno 7974 bound_to 7965
  156.1801  140.1670  156.8289 H   0  0  0  0  0  0  0  0  0  0  0  0  # atno 8008 bound_to 7997
  154.5351  140.0748  156.8446 H   0  0  0  0  0  0  0  0  0  0  0  0  # atno 8009 bound_to 7997
  155.3328  140.3380  155.4241 H   0  0  0  0  0  0  0  0  0  0  0  0  # atno 8010 bound_to 7997
  140.5857  143.8894  150.6828 H   0  0  0  0  0  0  0  0  0  0  0  0  # atno 10167 bound_to 10162
  156.1512  130.6536  150.9917 H   0  0  0  0  0  0  0  0  0  0  0  0  # atno 10718 bound_to 10713
  154.8702  135.4108  154.2895 H   0  0  0  0  0  0  0  0  0  0  0  0  # atno 10763 bound_to 10752
  153.3773  135.7010  153.6597 H   0  0  0  0  0  0  0  0  0  0  0  0  # atno 10764 bound_to 10752
  153.5434  135.3643  155.2700 H   0  0  0  0  0  0  0  0  0  0  0  0  # atno 10765 bound_to 10752
  141.1568  133.6782  156.6706 H   0  0  0  0  0  0  0  0  0  0  0  0  # atno 11005 bound_to 11000
  144.6748  140.1905  143.7397 LP  0  0  0  0  0  0  0  0  0  0  0  0  # atno 17320 bound_to 7965
  145.8607  139.2221  143.1718 LP  0  0  0  0  0  0  0  0  0  0  0  0  # atno 17321 bound_to 7965
  140.2404  143.3668  152.1491 LP  0  0  0  0  0  0  0  0  0  0  0  0  # atno 17342 bound_to 10162
  139.5196  144.7022  151.5460 LP  0  0  0  0  0  0  0  0  0  0  0  0  # atno 17343 bound_to 10162
  157.6659  131.0872  150.7730 LP  0  0  0  0  0  0  0  0  0  0  0  0  # atno 17370 bound_to 10713
  156.7798  130.4855  149.5403 LP  0  0  0  0  0  0  0  0  0  0  0  0  # atno 17371 bound_to 10713
  140.3178  134.8033  157.4228 LP  0  0  0  0  0  0  0  0  0  0  0  0  # atno 17394 bound_to 11000
  140.1123  134.5329  155.8255 LP  0  0  0  0  0  0  0  0  0  0  0  0  # atno 17395 bound_to 11000

$$$$
