AV-unprocessed.smi:1795|AV-procd|sdf|7248|dock3
  -GOLD-   22720 8503D 1   1.00000     0.00000
 Structure written by MMmdl.
 48 49  0  0  0  0  0  0  0  0  2 V2000
  147.9916  133.6213  153.2090 C   0  0  0  0  0  0  0  0  0  0  0  0
  146.6777  134.1869  153.7776 C   0  0  1  0  0  0  0  0  0  0  0  0
  146.8378  135.5727  154.4361 C   0  0  0  0  0  0  0  0  0  0  0  0
  146.9886  136.6596  153.4285 N   0  3  2  0  0  0  0  0  0  0  0  0
  147.1695  138.0388  153.9931 C   0  0  2  0  0  0  0  0  0  0  0  0
  146.9854  139.1030  152.8857 C   0  0  0  0  0  0  0  0  0  0  0  0
  148.5357  138.2468  154.7078 C   0  0  0  0  0  0  0  0  0  0  0  0
  148.5833  139.4625  155.5160 N   0  0  0  0  0  0  0  0  0  0  0  0
  149.6136  140.3214  155.5483 C   0  0  0  0  0  0  0  0  0  0  0  0
  150.6508  140.1497  154.9064 O   0  0  0  0  0  0  0  0  0  0  0  0
  149.4487  141.5435  156.4623 C   0  0  0  0  0  0  0  0  0  0  0  0
  150.4634  141.6089  157.5273 N   0  0  0  0  0  0  0  0  0  0  0  0
  151.0734  142.8581  157.7585 C   0  0  0  0  0  0  0  0  0  0  0  0
  152.0067  143.0276  158.7086 C   0  0  0  0  0  0  0  0  0  0  0  0
  152.3844  141.8850  159.5062 C   0  0  0  0  0  0  0  0  0  0  0  0
  151.8048  140.6863  159.2958 C   0  0  0  0  0  0  0  0  0  0  0  0
  150.7814  140.4974  158.2609 C   0  0  0  0  0  0  0  0  0  0  0  0
  150.2420  139.4076  158.0656 O   0  0  0  0  0  0  0  0  0  0  0  0
  145.8673  136.5837  152.4533 C   0  0  0  0  0  0  0  0  0  0  0  0
  145.7940  135.1952  151.7960 C   0  0  2  0  0  0  0  0  0  0  0  0
  144.6071  135.0759  150.8332 C   0  0  0  0  0  0  0  0  0  0  0  0
  145.6353  134.2076  152.8068 O   0  0  0  0  0  0  0  0  0  0  0  0
  148.7248  133.4759  154.0027 H   0  0  0  0  0  0  0  0  0  0  0  0
  148.4432  134.2825  152.4701 H   0  0  0  0  0  0  0  0  0  0  0  0
  147.8249  132.6531  152.7361 H   0  0  0  0  0  0  0  0  0  0  0  0
  146.3498  133.4917  154.5513 H   0  0  0  0  0  0  0  0  0  0  0  0
  145.9684  135.7872  155.0600 H   0  0  0  0  0  0  0  0  0  0  0  0
  147.7037  135.5203  155.0947 H   0  0  0  0  0  0  0  0  0  0  0  0
  146.3884  138.1848  154.7411 H   0  0  0  0  0  0  0  0  0  0  0  0
  147.1026  140.1154  153.2720 H   0  0  0  0  0  0  0  0  0  0  0  0
  145.9961  139.0768  152.4335 H   0  0  0  0  0  0  0  0  0  0  0  0
  147.7177  138.9702  152.0887 H   0  0  0  0  0  0  0  0  0  0  0  0
  148.7718  137.4164  155.3741 H   0  0  0  0  0  0  0  0  0  0  0  0
  149.3394  138.2987  153.9728 H   0  0  0  0  0  0  0  0  0  0  0  0
  147.7708  139.6731  156.0778 H   0  0  0  0  0  0  0  0  0  0  0  0
  149.4767  142.4561  155.8633 H   0  0  0  0  0  0  0  0  0  0  0  0
  148.4455  141.5139  156.8897 H   0  0  0  0  0  0  0  0  0  0  0  0
  150.7302  143.6628  157.1246 H   0  0  0  0  0  0  0  0  0  0  0  0
  152.4604  143.9937  158.8744 H   0  0  0  0  0  0  0  0  0  0  0  0
  153.1343  141.9919  160.2761 H   0  0  0  0  0  0  0  0  0  0  0  0
  152.0995  139.8430  159.9031 H   0  0  0  0  0  0  0  0  0  0  0  0
  144.9281  136.8073  152.9628 H   0  0  0  0  0  0  0  0  0  0  0  0
  145.9807  137.3250  151.6652 H   0  0  0  0  0  0  0  0  0  0  0  0
  146.7062  135.0074  151.2293 H   0  0  0  0  0  0  0  0  0  0  0  0
  144.6778  135.8088  150.0289 H   0  0  0  0  0  0  0  0  0  0  0  0
  143.6603  135.2359  151.3499 H   0  0  0  0  0  0  0  0  0  0  0  0
  144.5740  134.0863  150.3770 H   0  0  0  0  0  0  0  0  0  0  0  0
  147.8354  136.4490  152.9199 H   0  0  0  0  0  0  0  0  0  0  0  0
  1  2  1  0  0  0  0
  1 23  1  0  0  0  0
  1 24  1  0  0  0  0
  1 25  1  0  0  0  0
  2 22  1  0  0  0  0
  2  3  1  0  0  0  0
  2 26  1  0  0  0  0
  3  4  1  0  0  0  0
  3 27  1  0  0  0  0
  3 28  1  0  0  0  0
  4  5  1  0  0  0  0
  4 19  1  0  0  0  0
  4 48  1  0  0  0  0
  5  6  1  0  0  0  0
  5  7  1  0  0  0  0
  5 29  1  0  0  0  0
  6 30  1  0  0  0  0
  6 31  1  0  0  0  0
  6 32  1  0  0  0  0
  7  8  1  0  0  0  0
  7 33  1  0  0  0  0
  7 34  1  0  0  0  0
  8  9  1  0  0  0  0
  8 35  1  0  0  0  0
  9 10  2  0  0  0  0
  9 11  1  0  0  0  0
 11 12  1  0  0  0  0
 11 36  1  0  0  0  0
 11 37  1  0  0  0  0
 12 17  1  0  0  0  0
 12 13  1  0  0  0  0
 13 14  2  0  0  0  0
 13 38  1  0  0  0  0
 14 15  1  0  0  0  0
 14 39  1  0  0  0  0
 15 16  2  0  0  0  0
 15 40  1  0  0  0  0
 16 17  1  0  0  0  0
 16 41  1  0  0  0  0
 17 18  2  0  0  0  0
 19 20  1  0  0  0  0
 19 42  1  0  0  0  0
 19 43  1  0  0  0  0
 20 21  1  0  0  0  0
 20 22  1  0  0  0  0
 20 44  1  0  0  0  0
 21 45  1  0  0  0  0
 21 46  1  0  0  0  0
 21 47  1  0  0  0  0
M  CHG  1   4   1
M  END
> <s_m_source_file>
AV-unprocessed.smi

> <i_m_source_file_index>
1795

> <i_lp_mmshare_version>
43012

> <i_f3d_flags>
0

> <s_epik_input>
W0NIM11bQ0BASF0xW0NIMl1OKFtDSDJdW0NASF0oTzEpW0NIM10pW0NASF0oW0NIM10pW0NIMl1bTkhdQyg9TylbQ0gyXW4yW2NIXVtjSF1bY0hdW2NIXWMyPU8=

> <s_epik_cmdline>
J2VwaWtfcHl0aG9uJywgJy1waCcsICc3LjAnLCAnLXRuJywgJzgnLCAnLW1hJywgJzIwMCcsICctbWV0YWxfYmluZGluZycsICctaW1hZScsICc8aW5maWxlLm1hZT4nLCAnLW9tYWUnLCAnPG91dGZpbGUubWFlPic=

> <r_lp_tautomer_probability>
1

> <r_epik_Ionization_Penalty>
0.656654

> <r_epik_Ionization_Penalty_Charging>
0.656654

> <r_epik_Ionization_Penalty_Neutral>
8.90321e-08

> <r_epik_State_Penalty>
0.675641

> <r_epik_Charging_Adjusted_Penalty>
1.33229

> <i_epik_Tot_Q>
1

> <i_epik_Tot_abs_Q>
1

> <r_epik_Metal_State_Penalty>
0.675691

> <b_epik_Metal_Only>
0

> <s_lp_Force_Field>
OPLS_2005

> <r_lp_Energy>
31.4881

> <b_lp_Chiralities_Consistent>
1

> <s_lp_Variant>
AV-unprocessed.smi:1795-12

> <Gold.Version>
5.8.1

> <Gold.Id.Protein>
6NUR|6NUR_protein|mol2

> <Gold.PLP.Fitness>
43.9998

> <Gold.PLP.PLP>
-33.0762

> <Gold.PLP.part.hbond>
-2.0000

> <Gold.PLP.part.metal>
0.0000

> <Gold.PLP.part.buried>
-2.8999

> <Gold.PLP.part.nonpolar>
-28.0262

> <Gold.PLP.part.repulsive>
0.1828

> <Gold.PLP.ligand.clash>
0.0000

> <Gold.PLP.ligand.torsion>
0.5638

> <Gold.PLP.Chemscore.Hbond>
3.0000

> <Gold.PLP.Chemscore.CHOScore>
1.0000

> <Gold.PLP.Chemscore.Metal>
0.0000

> <Gold.Chemscore.Hbonds>
donor molecule, donor type, donor heavy atom, donor atom, acceptor molecule, acceptor atom, score
      L1  H     4    48       P1  7948  2.00
      P1  H  7989  7998       L1    10  1.00
      L1  C    13    38       P1  8028  0.91

> <Gold.PLP.Chemscore.Internal.Correction>
0.0512

> <Gold.Rescore>
     Score         DG    S(hbond)    S(metal)    S(lipo)     H(rot)  DE(clash)    DE(int)     intcor
     14.99     -16.62       1.98        0.00      79.87       1.89       0.02       1.61       ----

> <Gold.Chemscore.Fitness>
14.9926

> <Gold.Chemscore.DG>
-16.6210

> <Gold.Chemscore.ZeroCoef>
-5.4800

> <Gold.Chemscore.Hbond>
1.9841

> <Gold.Chemscore.Metal>
0.0000

> <Gold.Chemscore.Lipo>
79.8700

> <Gold.Chemscore.Internal_Hbond>
0.0000

> <Gold.Chemscore.DEClash>
0.0208

> <Gold.Chemscore.DEInternal>
1.6076

> <Gold.Chemscore.Rot>
1.8870

> <Gold.Chemscore.Internal.Correction>
   9.000000E+99

> <Gold.Chemscore.Hbonds>
donor molecule, donor type, donor heavy atom, donor atom, acceptor molecule, acceptor atom, score
      L1  H     4    48       P1  7948  0.95
      P1  H  7989  7998       L1    10  1.00

> <Gold.Chemscore.Hbond.Weighted>
-6.6270

> <Gold.Chemscore.Metal.Weighted>
-0.0000

> <Gold.Chemscore.Lipo.Weighted>
-9.3448

> <Gold.Chemscore.Internal_Hbond.Weighted>
0.0000

> <Gold.Chemscore.DEClash.Weighted>
0.0208

> <Gold.Chemscore.DEInternal.Weighted>
1.6076

> <Gold.Chemscore.Rot.Weighted>
4.8308

> <Gold.Chemscore.Internal.Correction.Weighted>
   9.000000E+99

> <Gold.Protein.RotatedTorsions>
[ 6907 6896 6895 6894 ] final  -87.51 input  -60.11 | X-H torsion
[ 7974 7965 7964 7962 ] final  -97.20 input  175.53 | X-H torsion
[ 8008 7997 7996 7995 ] final  -68.48 input   59.86 | X-H torsion
[ 10167 10162 10161 10158 ] final -150.24 input  -65.29 | X-H torsion
[ 10718 10713 10712 10709 ] final  -93.59 input   66.30 | X-H torsion
[ 10763 10752 10751 10750 ] final  -55.77 input  -60.55 | X-H torsion
[ 11005 11000 10999 10996 ] final  -93.67 input  -57.11 | X-H torsion

> <Gold.Protein.ActiveResidues>
 VAL166  LYS551  ARG553  GLY616  TRP617  ASP618  TYR619  PRO620  LYS621  CYS622 
 ASP623  PHE694  ASN695  SER759  ASP760  ASP761  ALA762  ILE779  LEU786  VAL792 
 PHE793  MET794  SER795  GLU796  ALA797  LYS798  CYS799  TRP800  GLU811  SER814 

> <Gold.Protein.RotatedAtoms>
  150.6866  134.2885  159.4656 H   0  0  0  0  0  0  0  0  0  0  0  0  # atno 6907 bound_to 6896
  152.0792  134.9480  160.0583 H   0  0  0  0  0  0  0  0  0  0  0  0  # atno 6908 bound_to 6896
  152.0839  133.4132  159.4550 H   0  0  0  0  0  0  0  0  0  0  0  0  # atno 6909 bound_to 6896
  145.3368  140.9452  143.2630 H   0  0  0  0  0  0  0  0  0  0  0  0  # atno 7974 bound_to 7965
  154.4871  140.0872  156.7511 H   0  0  0  0  0  0  0  0  0  0  0  0  # atno 8008 bound_to 7997
  155.4323  140.3450  155.4263 H   0  0  0  0  0  0  0  0  0  0  0  0  # atno 8009 bound_to 7997
  156.1277  140.1492  156.9100 H   0  0  0  0  0  0  0  0  0  0  0  0  # atno 8010 bound_to 7997
  139.7372  143.8718  152.2552 H   0  0  0  0  0  0  0  0  0  0  0  0  # atno 10167 bound_to 10162
  156.0015  130.5033  150.5800 H   0  0  0  0  0  0  0  0  0  0  0  0  # atno 10718 bound_to 10713
  154.1961  135.6419  153.5073 H   0  0  0  0  0  0  0  0  0  0  0  0  # atno 10763 bound_to 10752
  153.0023  135.5440  154.6365 H   0  0  0  0  0  0  0  0  0  0  0  0  # atno 10764 bound_to 10752
  154.5766  135.2921  155.0748 H   0  0  0  0  0  0  0  0  0  0  0  0  # atno 10765 bound_to 10752
  141.1491  133.7904  157.0192 H   0  0  0  0  0  0  0  0  0  0  0  0  # atno 11005 bound_to 11000
  144.8821  139.4890  143.6718 LP  0  0  0  0  0  0  0  0  0  0  0  0  # atno 17320 bound_to 7965
  146.3023  139.7467  142.9082 LP  0  0  0  0  0  0  0  0  0  0  0  0  # atno 17321 bound_to 7965
  139.8658  144.7094  150.9046 LP  0  0  0  0  0  0  0  0  0  0  0  0  # atno 17342 bound_to 10162
  140.7780  143.3779  151.1529 LP  0  0  0  0  0  0  0  0  0  0  0  0  # atno 17343 bound_to 10162
  157.3681  131.0761  151.1580 LP  0  0  0  0  0  0  0  0  0  0  0  0  # atno 17370 bound_to 10713
  157.2343  130.6539  149.5863 LP  0  0  0  0  0  0  0  0  0  0  0  0  # atno 17371 bound_to 10713
  140.0827  134.9639  157.1650 LP  0  0  0  0  0  0  0  0  0  0  0  0  # atno 17394 bound_to 11000
  140.3555  134.2552  155.7193 LP  0  0  0  0  0  0  0  0  0  0  0  0  # atno 17395 bound_to 11000

$$$$
