AV-unprocessed.smi:38|AV-procd|sdf|343|dock7
  -GOLD-   2262016183D 1   1.00000     0.00000
 Structure written by MMmdl.
 27 28  0  0  0  0  0  0  0  0  2 V2000
  151.5226  137.1335  159.8318 O   0  0  0  0  0  0  0  0  0  0  0  0
  151.4139  137.6755  158.7330 C   0  0  0  0  0  0  0  0  0  0  0  0
  152.4912  138.0458  157.9819 N   0  5  0  0  0  0  0  0  0  0  0  0
  152.3682  138.6480  156.7625 C   0  0  0  0  0  0  0  0  0  0  0  0
  153.3350  138.9679  156.0706 O   0  0  0  0  0  0  0  0  0  0  0  0
  151.0669  138.9143  156.2545 N   0  0  0  0  0  0  0  0  0  0  0  0
  150.9234  139.5785  154.9009 C   0  0  1  0  0  0  0  0  0  0  0  0
  150.0882  138.7018  153.9641 C   0  0  0  0  0  0  0  0  0  0  0  0
  148.7099  139.3077  154.1246 C   0  0  2  0  0  0  0  0  0  0  0  0
  147.9091  139.0475  152.9900 O   0  0  0  0  0  0  0  0  0  0  0  0
  149.0391  140.7940  154.2837 C   0  0  1  0  0  0  0  0  0  0  0  0
  147.9452  141.5927  155.0102 C   0  0  0  0  0  0  0  0  0  0  0  0
  147.4567  142.6217  154.1762 O   0  0  0  0  0  0  0  0  0  0  0  0
  150.2459  140.7948  155.0474 O   0  0  0  0  0  0  0  0  0  0  0  0
  149.9558  138.5386  156.9911 C   0  0  0  0  0  0  0  0  0  0  0  0
  150.0819  137.9391  158.1925 C   0  0  0  0  0  0  0  0  0  0  0  0
  148.9839  137.5849  158.8820 F   0  0  0  0  0  0  0  0  0  0  0  0
  151.9382  139.7659  154.5463 H   0  0  0  0  0  0  0  0  0  0  0  0
  148.2294  138.9173  155.0229 H   0  0  0  0  0  0  0  0  0  0  0  0
  149.2510  141.2226  153.3019 H   0  0  0  0  0  0  0  0  0  0  0  0
  150.4618  138.8391  152.9481 H   0  0  0  0  0  0  0  0  0  0  0  0
  150.1425  137.6427  154.2195 H   0  0  0  0  0  0  0  0  0  0  0  0
  148.3221  139.4410  152.2369 H   0  0  0  0  0  0  0  0  0  0  0  0
  147.1041  140.9415  155.2491 H   0  0  0  0  0  0  0  0  0  0  0  0
  148.3083  142.0072  155.9503 H   0  0  0  0  0  0  0  0  0  0  0  0
  147.9816  143.3949  154.3151 H   0  0  0  0  0  0  0  0  0  0  0  0
  148.9638  138.7181  156.6082 H   0  0  0  0  0  0  0  0  0  0  0  0
  1  2  2  0  0  0  0
  2 16  1  0  0  0  0
  2  3  1  0  0  0  0
  3  4  1  0  0  0  0
  4  5  2  0  0  0  0
  4  6  1  0  0  0  0
  6  7  1  0  0  0  0
  6 15  1  0  0  0  0
  7 18  1  0  0  0  0
  7 14  1  0  0  0  0
  7  8  1  0  0  0  0
  8  9  1  0  0  0  0
  8 21  1  0  0  0  0
  8 22  1  0  0  0  0
  9 19  1  0  0  0  0
  9 10  1  0  0  0  0
  9 11  1  0  0  0  0
 10 23  1  0  0  0  0
 11 20  1  0  0  0  0
 11 12  1  0  0  0  0
 11 14  1  0  0  0  0
 12 13  1  0  0  0  0
 12 24  1  0  0  0  0
 12 25  1  0  0  0  0
 13 26  1  0  0  0  0
 15 16  2  0  0  0  0
 15 27  1  0  0  0  0
 16 17  1  0  0  0  0
M  CHG  1   3  -1
M  END
> <s_m_source_file>
AV-unprocessed.smi

> <i_m_source_file_index>
38

> <i_lp_mmshare_version>
43012

> <i_f3d_flags>
0

> <s_epik_input>
Tz1jMVtuSF1jKD1PKW4oW2NIXWMxRilbQ0BIXTJbQ0gyXVtDQEhdKFtPSF0pW0NASF0oTzIpW0NIMl1bT0hd

> <s_epik_cmdline>
J2VwaWtfcHl0aG9uJywgJy1waCcsICc3LjAnLCAnLXRuJywgJzgnLCAnLW1hJywgJzIwMCcsICctbWV0YWxfYmluZGluZycsICctaW1hZScsICc8aW5maWxlLm1hZT4nLCAnLW9tYWUnLCAnPG91dGZpbGUubWFlPic=

> <r_epik_Ionization_Penalty>
1.68146

> <r_epik_Ionization_Penalty_Charging>
3.4211e-08

> <r_epik_Ionization_Penalty_Neutral>
1.68146

> <r_epik_State_Penalty>
1.78593

> <r_epik_Charging_Adjusted_Penalty>
1.78593

> <i_epik_Tot_Q>
-1

> <i_epik_Tot_abs_Q>
1

> <r_epik_Metal_State_Penalty>
0.0113696

> <b_epik_Metal_Only>
0

> <s_epik_Chemistry_Notes>
This compound contains an acetal/aminal-like group ( X-CH(R)-Y where X, Y are N, S, or O) that may be acid/base labile, releasing an aldehyde.

> <s_lp_Force_Field>
OPLS_2005

> <r_lp_Energy>
36.3434

> <b_lp_Chiralities_Consistent>
1

> <s_lp_Variant>
AV-unprocessed.smi:38-9

> <Gold.Version>
5.8.1

> <Gold.Id.Protein>
6NUR|6NUR_protein|mol2

> <Gold.PLP.Fitness>
36.4640

> <Gold.PLP.PLP>
-26.0235

> <Gold.PLP.part.hbond>
-5.3572

> <Gold.PLP.part.metal>
0.0000

> <Gold.PLP.part.buried>
-1.9673

> <Gold.PLP.part.nonpolar>
-18.5758

> <Gold.PLP.part.repulsive>
0.0899

> <Gold.PLP.ligand.clash>
0.0000

> <Gold.PLP.ligand.torsion>
0.7598

> <Gold.PLP.Chemscore.Hbond>
3.9833

> <Gold.PLP.Chemscore.CHOScore>
0.0000

> <Gold.PLP.Chemscore.Metal>
0.0000

> <Gold.Chemscore.Hbonds>
donor molecule, donor type, donor heavy atom, donor atom, acceptor molecule, acceptor atom, score
      L1  H    10    23       P1  7957  1.00
      L1  H    13    26       P1  8028  0.95
      P1  H  6896  6908       L1     1  1.00
      P1  H  7997  8008       L1     5  1.00

> <Gold.PLP.Chemscore.Internal.Correction>
0.0104

> <Gold.Rescore>
     Score         DG    S(hbond)    S(metal)    S(lipo)     H(rot)  DE(clash)    DE(int)     intcor
     13.75     -14.85       3.84        0.00      33.47       2.88       0.35       0.75       ----

> <Gold.Chemscore.Fitness>
13.7475

> <Gold.Chemscore.DG>
-14.8471

> <Gold.Chemscore.ZeroCoef>
-5.4800

> <Gold.Chemscore.Hbond>
3.8407

> <Gold.Chemscore.Metal>
0.0000

> <Gold.Chemscore.Lipo>
33.4663

> <Gold.Chemscore.Internal_Hbond>
0.0000

> <Gold.Chemscore.DEClash>
0.3490

> <Gold.Chemscore.DEInternal>
0.7506

> <Gold.Chemscore.Rot>
2.8815

> <Gold.Chemscore.Internal.Correction>
   9.000000E+99

> <Gold.Chemscore.Hbonds>
donor molecule, donor type, donor heavy atom, donor atom, acceptor molecule, acceptor atom, score
      L1  H    10    23       P1  7957  1.00
      L1  H    13    26       P1  8028  0.74
      P1  H  6896  6908       L1     1  0.94
      P1  H  7997  8008       L1     5  0.92

> <Gold.Chemscore.Hbond.Weighted>
-12.8281

> <Gold.Chemscore.Metal.Weighted>
-0.0000

> <Gold.Chemscore.Lipo.Weighted>
-3.9156

> <Gold.Chemscore.Internal_Hbond.Weighted>
0.0000

> <Gold.Chemscore.DEClash.Weighted>
0.3490

> <Gold.Chemscore.DEInternal.Weighted>
0.7506

> <Gold.Chemscore.Rot.Weighted>
7.3765

> <Gold.Chemscore.Internal.Correction.Weighted>
   9.000000E+99

> <Gold.Protein.RotatedTorsions>
[ 6907 6896 6895 6894 ] final -108.51 input  -60.11 | X-H torsion
[ 7974 7965 7964 7962 ] final   28.63 input  175.53 | X-H torsion
[ 8008 7997 7996 7995 ] final  -35.13 input   59.86 | X-H torsion
[ 10167 10162 10161 10158 ] final  -60.46 input  -65.29 | X-H torsion
[ 10718 10713 10712 10709 ] final -179.78 input   66.30 | X-H torsion
[ 10763 10752 10751 10750 ] final -142.67 input  -60.55 | X-H torsion
[ 11005 11000 10999 10996 ] final  158.49 input  -57.11 | X-H torsion

> <Gold.Protein.ActiveResidues>
 VAL166  LYS551  ARG553  GLY616  TRP617  ASP618  TYR619  PRO620  LYS621  CYS622 
 ASP623  PHE694  ASN695  SER759  ASP760  ASP761  ALA762  ILE779  LEU786  VAL792 
 PHE793  MET794  SER795  GLU796  ALA797  LYS798  CYS799  TRP800  GLU811  SER814 

> <Gold.Protein.RotatedAtoms>
  150.7506  133.9666  159.3532 H   0  0  0  0  0  0  0  0  0  0  0  0  # atno 6907 bound_to 6896
  151.7596  135.0811  160.0353 H   0  0  0  0  0  0  0  0  0  0  0  0  # atno 6908 bound_to 6896
  152.3412  133.6032  159.5914 H   0  0  0  0  0  0  0  0  0  0  0  0  # atno 6909 bound_to 6896
  146.1718  139.7030  142.8962 H   0  0  0  0  0  0  0  0  0  0  0  0  # atno 7974 bound_to 7965
  154.4103  140.1665  156.2162 H   0  0  0  0  0  0  0  0  0  0  0  0  # atno 8008 bound_to 7997
  155.9402  140.3408  155.6298 H   0  0  0  0  0  0  0  0  0  0  0  0  # atno 8009 bound_to 7997
  155.6998  140.0744  157.2405 H   0  0  0  0  0  0  0  0  0  0  0  0  # atno 8010 bound_to 7997
  140.6070  143.2376  151.5799 H   0  0  0  0  0  0  0  0  0  0  0  0  # atno 10167 bound_to 10162
  156.8641  130.9762  151.3080 H   0  0  0  0  0  0  0  0  0  0  0  0  # atno 10718 bound_to 10713
  154.8500  135.3489  154.6064 H   0  0  0  0  0  0  0  0  0  0  0  0  # atno 10763 bound_to 10752
  153.6673  135.6987  153.5163 H   0  0  0  0  0  0  0  0  0  0  0  0  # atno 10764 bound_to 10752
  153.2770  135.4275  155.0999 H   0  0  0  0  0  0  0  0  0  0  0  0  # atno 10765 bound_to 10752
  140.1870  134.8434  157.2869 H   0  0  0  0  0  0  0  0  0  0  0  0  # atno 11005 bound_to 11000
  145.4320  141.0416  143.2905 LP  0  0  0  0  0  0  0  0  0  0  0  0  # atno 17320 bound_to 7965
  144.8174  139.5852  143.7002 LP  0  0  0  0  0  0  0  0  0  0  0  0  # atno 17321 bound_to 7965
  139.5332  144.2856  152.1194 LP  0  0  0  0  0  0  0  0  0  0  0  0  # atno 17342 bound_to 10162
  140.2047  144.4622  150.6414 LP  0  0  0  0  0  0  0  0  0  0  0  0  # atno 17343 bound_to 10162
  157.6233  130.8672  149.9146 LP  0  0  0  0  0  0  0  0  0  0  0  0  # atno 17370 bound_to 10713
  156.0761  130.3679  150.0676 LP  0  0  0  0  0  0  0  0  0  0  0  0  # atno 17371 bound_to 10713
  140.2202  134.4032  155.7569 LP  0  0  0  0  0  0  0  0  0  0  0  0  # atno 17394 bound_to 11000
  141.2225  133.7162  156.8478 LP  0  0  0  0  0  0  0  0  0  0  0  0  # atno 17395 bound_to 11000

$$$$
