AV-unprocessed.smi:730|AV-procd|sdf|3525|dock2
  -GOLD-   22720 0513D 1   1.00000     0.00000
 Structure written by MMmdl.
 40 41  0  0  0  0  0  0  0  0  1 V2000
  150.2871  130.0697  157.1444 C   0  0  0  0  0  0  0  0  0  0  0  0
  150.9698  130.6000  155.8678 C   0  0  0  0  0  0  0  0  0  0  0  0
  152.3951  131.0556  156.2328 C   0  0  0  0  0  0  0  0  0  0  0  0
  151.0513  129.4491  154.8475 C   0  0  0  0  0  0  0  0  0  0  0  0
  150.1963  131.7504  155.2857 C   0  0  0  0  0  0  0  0  0  0  0  0
  149.5760  131.9564  154.0830 C   0  0  0  0  0  0  0  0  0  0  0  0
  149.0407  133.2652  154.2120 C   0  0  0  0  0  0  0  0  0  0  0  0
  148.3094  133.8601  153.1524 N   0  0  0  0  0  0  0  0  0  0  0  0
  147.2655  133.3398  152.4850 C   0  0  0  0  0  0  0  0  0  0  0  0
  146.7806  132.2255  152.6831 O   0  0  0  0  0  0  0  0  0  0  0  0
  146.8034  134.1942  151.5607 N   0  0  0  0  0  0  0  0  0  0  0  0
  145.6762  133.9363  150.6667 C   0  0  1  0  0  0  0  0  0  0  0  0
  145.8808  132.6113  149.9075 C   0  0  0  0  0  0  0  0  0  0  0  0
  145.0384  131.5785  150.6540 C   0  0  0  0  0  0  0  0  0  0  0  0
  143.8206  132.3724  151.1142 C   0  0  0  0  0  0  0  0  0  0  0  0
  144.3738  133.7567  151.4800 C   0  0  2  0  0  0  0  0  0  0  0  0
  143.4244  134.7559  151.1701 O   0  0  0  0  0  0  0  0  0  0  0  0
  149.3081  133.8150  155.3854 N   0  0  0  0  0  0  0  0  0  0  0  0
  150.0482  132.8500  156.0773 O   0  0  0  0  0  0  0  0  0  0  0  0
  150.8419  129.2358  157.5759 H   0  0  0  0  0  0  0  0  0  0  0  0
  149.2760  129.7163  156.9383 H   0  0  0  0  0  0  0  0  0  0  0  0
  150.2162  130.8440  157.9095 H   0  0  0  0  0  0  0  0  0  0  0  0
  152.3765  131.8680  156.9604 H   0  0  0  0  0  0  0  0  0  0  0  0
  152.9371  131.4134  155.3565 H   0  0  0  0  0  0  0  0  0  0  0  0
  152.9766  130.2403  156.6643 H   0  0  0  0  0  0  0  0  0  0  0  0
  151.5978  128.5961  155.2517 H   0  0  0  0  0  0  0  0  0  0  0  0
  151.5609  129.7591  153.9344 H   0  0  0  0  0  0  0  0  0  0  0  0
  150.0576  129.0991  154.5657 H   0  0  0  0  0  0  0  0  0  0  0  0
  149.5150  131.2778  153.2453 H   0  0  0  0  0  0  0  0  0  0  0  0
  148.6085  134.7842  152.8789 H   0  0  0  0  0  0  0  0  0  0  0  0
  147.2609  135.0891  151.4670 H   0  0  0  0  0  0  0  0  0  0  0  0
  145.5825  134.7586  149.9538 H   0  0  0  0  0  0  0  0  0  0  0  0
  145.4956  132.7182  148.8925 H   0  0  0  0  0  0  0  0  0  0  0  0
  146.9259  132.3108  149.8215 H   0  0  0  0  0  0  0  0  0  0  0  0
  144.7731  130.7231  150.0323 H   0  0  0  0  0  0  0  0  0  0  0  0
  145.5881  131.2077  151.5200 H   0  0  0  0  0  0  0  0  0  0  0  0
  143.1177  132.4503  150.2828 H   0  0  0  0  0  0  0  0  0  0  0  0
  143.2967  131.8972  151.9440 H   0  0  0  0  0  0  0  0  0  0  0  0
  144.5766  133.7919  152.5518 H   0  0  0  0  0  0  0  0  0  0  0  0
  142.7292  134.3622  150.6653 H   0  0  0  0  0  0  0  0  0  0  0  0
  1  2  1  0  0  0  0
  1 20  1  0  0  0  0
  1 21  1  0  0  0  0
  1 22  1  0  0  0  0
  2  3  1  0  0  0  0
  2  4  1  0  0  0  0
  2  5  1  0  0  0  0
  3 23  1  0  0  0  0
  3 24  1  0  0  0  0
  3 25  1  0  0  0  0
  4 26  1  0  0  0  0
  4 27  1  0  0  0  0
  4 28  1  0  0  0  0
  5 19  1  0  0  0  0
  5  6  2  0  0  0  0
  6  7  1  0  0  0  0
  6 29  1  0  0  0  0
  7  8  1  0  0  0  0
  7 18  2  0  0  0  0
  8  9  1  0  0  0  0
  8 30  1  0  0  0  0
  9 10  2  0  0  0  0
  9 11  1  0  0  0  0
 11 12  1  0  0  0  0
 11 31  1  0  0  0  0
 12 16  1  0  0  0  0
 12 13  1  0  0  0  0
 12 32  1  0  0  0  0
 13 14  1  0  0  0  0
 13 33  1  0  0  0  0
 13 34  1  0  0  0  0
 14 15  1  0  0  0  0
 14 35  1  0  0  0  0
 14 36  1  0  0  0  0
 15 16  1  0  0  0  0
 15 37  1  0  0  0  0
 15 38  1  0  0  0  0
 16 17  1  0  0  0  0
 16 39  1  0  0  0  0
 17 40  1  0  0  0  0
 18 19  1  0  0  0  0
M  END
> <s_m_source_file>
AV-unprocessed.smi

> <i_m_source_file_index>
730

> <i_lp_mmshare_version>
43012

> <i_f3d_flags>
0

> <s_epik_input>
W0NIM11DKFtDSDNdKShbQ0gzXSljMVtjSF1jKG5vMSlbTkhdQyg9TylbTkhdW0NAQEhdMltDSDJdW0NIMl1bQ0gyXVtDQEhdMltPSF0=

> <s_epik_cmdline>
J2VwaWtfcHl0aG9uJywgJy1waCcsICc3LjAnLCAnLXRuJywgJzgnLCAnLW1hJywgJzIwMCcsICctbWV0YWxfYmluZGluZycsICctaW1hZScsICc8aW5maWxlLm1hZT4nLCAnLW9tYWUnLCAnPG91dGZpbGUubWFlPic=

> <r_lp_tautomer_probability>
1

> <r_epik_Ionization_Penalty>
2.23071e-05

> <r_epik_Ionization_Penalty_Charging>
0

> <r_epik_Ionization_Penalty_Neutral>
2.23071e-05

> <r_epik_State_Penalty>
-0

> <r_epik_Charging_Adjusted_Penalty>
0

> <i_epik_Tot_Q>
0

> <i_epik_Tot_abs_Q>
0

> <r_epik_Metal_State_Penalty>
-0

> <b_epik_Metal_Only>
0

> <s_lp_Force_Field>
OPLS_2005

> <r_lp_Energy>
16.5613

> <b_lp_Chiralities_Consistent>
1

> <s_lp_Variant>
AV-unprocessed.smi:730-4

> <Gold.Version>
5.8.1

> <Gold.Id.Protein>
6NUR|6NUR_protein|mol2

> <Gold.PLP.Fitness>
39.4231

> <Gold.PLP.PLP>
-31.5841

> <Gold.PLP.part.hbond>
-3.0000

> <Gold.PLP.part.metal>
0.0000

> <Gold.PLP.part.buried>
-2.7796

> <Gold.PLP.part.nonpolar>
-25.1646

> <Gold.PLP.part.repulsive>
0.2199

> <Gold.PLP.ligand.clash>
0.0000

> <Gold.PLP.ligand.torsion>
0.4876

> <Gold.PLP.Chemscore.Hbond>
2.9353

> <Gold.PLP.Chemscore.CHOScore>
0.0000

> <Gold.PLP.Chemscore.Metal>
0.0000

> <Gold.Chemscore.Hbonds>
donor molecule, donor type, donor heavy atom, donor atom, acceptor molecule, acceptor atom, score
      L1  H     8    30       P1  7948  1.00
      L1  H    11    31       P1  7948  0.93
      L1  H    17    40       P1 10186  0.98

> <Gold.PLP.Chemscore.Internal.Correction>
0.0085

> <Gold.Rescore>
     Score         DG    S(hbond)    S(metal)    S(lipo)     H(rot)  DE(clash)    DE(int)     intcor
     12.56     -16.19       2.01        0.00      71.60       1.71       0.36       3.27       ----

> <Gold.Chemscore.Fitness>
12.5626

> <Gold.Chemscore.DG>
-16.1942

> <Gold.Chemscore.ZeroCoef>
-5.4800

> <Gold.Chemscore.Hbond>
2.0122

> <Gold.Chemscore.Metal>
0.0000

> <Gold.Chemscore.Lipo>
71.6038

> <Gold.Chemscore.Internal_Hbond>
0.0000

> <Gold.Chemscore.DEClash>
0.3614

> <Gold.Chemscore.DEInternal>
3.2702

> <Gold.Chemscore.Rot>
1.7125

> <Gold.Chemscore.Internal.Correction>
   9.000000E+99

> <Gold.Chemscore.Hbonds>
donor molecule, donor type, donor heavy atom, donor atom, acceptor molecule, acceptor atom, score
      L1  H     8    30       P1  7948  0.25
      L1  H    11    31       P1  7948  0.67
      L1  H    17    40       P1 10186  0.40

> <Gold.Chemscore.Hbond.Weighted>
-6.7206

> <Gold.Chemscore.Metal.Weighted>
-0.0000

> <Gold.Chemscore.Lipo.Weighted>
-8.3776

> <Gold.Chemscore.Internal_Hbond.Weighted>
0.0000

> <Gold.Chemscore.DEClash.Weighted>
0.3614

> <Gold.Chemscore.DEInternal.Weighted>
3.2702

> <Gold.Chemscore.Rot.Weighted>
4.3841

> <Gold.Chemscore.Internal.Correction.Weighted>
   9.000000E+99

> <Gold.Protein.RotatedTorsions>
[ 6907 6896 6895 6894 ] final   64.75 input  -60.11 | X-H torsion
[ 7974 7965 7964 7962 ] final  139.94 input  175.53 | X-H torsion
[ 8008 7997 7996 7995 ] final -126.72 input   59.86 | X-H torsion
[ 10167 10162 10161 10158 ] final  160.23 input  -65.29 | X-H torsion
[ 10718 10713 10712 10709 ] final  102.11 input   66.30 | X-H torsion
[ 10763 10752 10751 10750 ] final  121.06 input  -60.55 | X-H torsion
[ 11005 11000 10999 10996 ] final   89.99 input  -57.11 | X-H torsion

> <Gold.Protein.ActiveResidues>
 VAL166  LYS551  ARG553  GLY616  TRP617  ASP618  TYR619  PRO620  LYS621  CYS622 
 ASP623  PHE694  ASN695  SER759  ASP760  ASP761  ALA762  ILE779  LEU786  VAL792 
 PHE793  MET794  SER795  GLU796  ALA797  LYS798  CYS799  TRP800  GLU811  SER814 

> <Gold.Protein.RotatedAtoms>
  152.4355  134.5694  159.9916 H   0  0  0  0  0  0  0  0  0  0  0  0  # atno 6907 bound_to 6896
  151.5806  133.3372  159.3015 H   0  0  0  0  0  0  0  0  0  0  0  0  # atno 6908 bound_to 6896
  150.8253  134.7516  159.6872 H   0  0  0  0  0  0  0  0  0  0  0  0  # atno 6909 bound_to 6896
  144.9232  139.5141  143.5653 H   0  0  0  0  0  0  0  0  0  0  0  0  # atno 7974 bound_to 7965
  155.2344  140.0426  157.2966 H   0  0  0  0  0  0  0  0  0  0  0  0  # atno 8008 bound_to 7997
  154.5868  140.2416  155.7947 H   0  0  0  0  0  0  0  0  0  0  0  0  # atno 8009 bound_to 7997
  156.2231  140.2963  156.0010 H   0  0  0  0  0  0  0  0  0  0  0  0  # atno 8010 bound_to 7997
  139.4838  144.4654  151.8649 H   0  0  0  0  0  0  0  0  0  0  0  0  # atno 10167 bound_to 10162
  157.6811  131.0744  150.5354 H   0  0  0  0  0  0  0  0  0  0  0  0  # atno 10718 bound_to 10713
  153.6081  135.3435  155.2969 H   0  0  0  0  0  0  0  0  0  0  0  0  # atno 10763 bound_to 10752
  154.8624  135.4243  154.2339 H   0  0  0  0  0  0  0  0  0  0  0  0  # atno 10764 bound_to 10752
  153.3183  135.7036  153.7125 H   0  0  0  0  0  0  0  0  0  0  0  0  # atno 10765 bound_to 10752
  139.8864  134.8586  156.3221 H   0  0  0  0  0  0  0  0  0  0  0  0  # atno 11005 bound_to 11000
  146.3214  139.8127  142.8942 LP  0  0  0  0  0  0  0  0  0  0  0  0  # atno 17320 bound_to 7965
  145.3262  141.0256  143.3472 LP  0  0  0  0  0  0  0  0  0  0  0  0  # atno 17321 bound_to 7965
  140.4119  144.2358  150.5888 LP  0  0  0  0  0  0  0  0  0  0  0  0  # atno 17342 bound_to 10162
  140.4958  143.2333  151.8752 LP  0  0  0  0  0  0  0  0  0  0  0  0  # atno 17343 bound_to 10162
  156.5663  130.4268  149.6040 LP  0  0  0  0  0  0  0  0  0  0  0  0  # atno 17370 bound_to 10713
  156.2779  130.7054  151.1870 LP  0  0  0  0  0  0  0  0  0  0  0  0  # atno 17371 bound_to 10713
  140.9780  133.7285  156.0630 LP  0  0  0  0  0  0  0  0  0  0  0  0  # atno 17394 bound_to 11000
  140.7786  134.3751  157.5492 LP  0  0  0  0  0  0  0  0  0  0  0  0  # atno 17395 bound_to 11000

$$$$
