AV-unprocessed.smi:2453|AV-procd|sdf|9688|dock7
  -GOLD-   2272013323D 1   1.00000     0.00000
 Structure written by MMmdl.
 40 41  0  0  0  0  0  0  0  0  1 V2000
  147.0512  142.9648  154.2796 C   0  0  0  0  0  0  0  0  0  0  0  0
  147.6168  141.5772  154.0309 C   0  0  0  0  0  0  0  0  0  0  0  0
  146.9353  140.6821  153.1785 C   0  0  0  0  0  0  0  0  0  0  0  0
  147.3681  139.4336  152.9075 N   0  0  0  0  0  0  0  0  0  0  0  0
  148.5133  139.0254  153.4911 C   0  0  0  0  0  0  0  0  0  0  0  0
  149.2734  139.8341  154.3581 C   0  0  0  0  0  0  0  0  0  0  0  0
  148.8267  141.1500  154.6304 C   0  0  0  0  0  0  0  0  0  0  0  0
  149.5072  142.0402  155.5087 N   0  0  0  0  0  0  0  0  0  0  0  0
  150.7283  141.9166  156.0568 C   0  0  0  0  0  0  0  0  0  0  0  0
  151.5138  140.9928  155.8462 O   0  0  0  0  0  0  0  0  0  0  0  0
  150.9955  142.9528  156.8650 N   0  0  0  0  0  0  0  0  0  0  0  0
  152.2190  143.1508  157.6455 C   0  0  1  0  0  0  0  0  0  0  0  0
  152.4776  144.6575  157.8472 C   0  0  0  0  0  0  0  0  0  0  0  0
  151.4505  145.3031  158.7930 C   0  0  0  0  0  0  0  0  0  0  0  0
  151.3920  144.5635  160.1376 C   0  0  0  0  0  0  0  0  0  0  0  0
  151.1117  143.0648  159.9404 C   0  0  0  0  0  0  0  0  0  0  0  0
  152.1507  142.4071  159.0067 C   0  0  1  0  0  0  0  0  0  0  0  0
  151.8954  140.8908  158.8708 C   0  0  0  0  0  0  0  0  0  0  0  0
  152.9921  140.2516  158.2519 O   0  0  0  0  0  0  0  0  0  0  0  0
  146.1204  143.1176  153.7325 H   0  0  0  0  0  0  0  0  0  0  0  0
  147.7605  143.7275  153.9572 H   0  0  0  0  0  0  0  0  0  0  0  0
  146.8458  143.1085  155.3406 H   0  0  0  0  0  0  0  0  0  0  0  0
  146.0123  140.9733  152.6991 H   0  0  0  0  0  0  0  0  0  0  0  0
  148.8314  138.0182  153.2661 H   0  0  0  0  0  0  0  0  0  0  0  0
  150.1679  139.4258  154.8020 H   0  0  0  0  0  0  0  0  0  0  0  0
  149.0198  142.9012  155.7080 H   0  0  0  0  0  0  0  0  0  0  0  0
  150.2865  143.6643  156.9630 H   0  0  0  0  0  0  0  0  0  0  0  0
  153.0710  142.7541  157.0908 H   0  0  0  0  0  0  0  0  0  0  0  0
  153.4771  144.7944  158.2620 H   0  0  0  0  0  0  0  0  0  0  0  0
  152.4772  145.1728  156.8859 H   0  0  0  0  0  0  0  0  0  0  0  0
  151.7057  146.3505  158.9570 H   0  0  0  0  0  0  0  0  0  0  0  0
  150.4637  145.2976  158.3286 H   0  0  0  0  0  0  0  0  0  0  0  0
  152.3377  144.6913  160.6659 H   0  0  0  0  0  0  0  0  0  0  0  0
  150.6224  145.0055  160.7712 H   0  0  0  0  0  0  0  0  0  0  0  0
  151.1170  142.5680  160.9111 H   0  0  0  0  0  0  0  0  0  0  0  0
  150.1078  142.9311  159.5355 H   0  0  0  0  0  0  0  0  0  0  0  0
  153.1233  142.5232  159.4884 H   0  0  0  0  0  0  0  0  0  0  0  0
  151.7566  140.4418  159.8547 H   0  0  0  0  0  0  0  0  0  0  0  0
  150.9888  140.6874  158.3005 H   0  0  0  0  0  0  0  0  0  0  0  0
  152.7773  139.3401  158.1240 H   0  0  0  0  0  0  0  0  0  0  0  0
  1  2  1  0  0  0  0
  1 20  1  0  0  0  0
  1 21  1  0  0  0  0
  1 22  1  0  0  0  0
  2  7  1  0  0  0  0
  2  3  2  0  0  0  0
  3  4  1  0  0  0  0
  3 23  1  0  0  0  0
  4  5  2  0  0  0  0
  5  6  1  0  0  0  0
  5 24  1  0  0  0  0
  6  7  2  0  0  0  0
  6 25  1  0  0  0  0
  7  8  1  0  0  0  0
  8  9  1  0  0  0  0
  8 26  1  0  0  0  0
  9 10  2  0  0  0  0
  9 11  1  0  0  0  0
 11 12  1  0  0  0  0
 11 27  1  0  0  0  0
 12 17  1  0  0  0  0
 12 13  1  0  0  0  0
 12 28  1  0  0  0  0
 13 14  1  0  0  0  0
 13 29  1  0  0  0  0
 13 30  1  0  0  0  0
 14 15  1  0  0  0  0
 14 31  1  0  0  0  0
 14 32  1  0  0  0  0
 15 16  1  0  0  0  0
 15 33  1  0  0  0  0
 15 34  1  0  0  0  0
 16 17  1  0  0  0  0
 16 35  1  0  0  0  0
 16 36  1  0  0  0  0
 17 18  1  0  0  0  0
 17 37  1  0  0  0  0
 18 19  1  0  0  0  0
 18 38  1  0  0  0  0
 18 39  1  0  0  0  0
 19 40  1  0  0  0  0
M  END
> <s_m_source_file>
AV-unprocessed.smi

> <i_m_source_file_index>
2453

> <i_lp_mmshare_version>
43012

> <i_f3d_flags>
0

> <s_epik_input>
W0NIM11jMVtjSF1uW2NIXVtjSF1jMVtOSF1DKD1PKVtOSF1bQ0BASF0yW0NIMl1bQ0gyXVtDSDJdW0NIMl1bQ0BIXTJbQ0gyXVtPSF0=

> <s_epik_cmdline>
J2VwaWtfcHl0aG9uJywgJy1waCcsICc3LjAnLCAnLXRuJywgJzgnLCAnLW1hJywgJzIwMCcsICctbWV0YWxfYmluZGluZycsICctaW1hZScsICc8aW5maWxlLm1hZT4nLCAnLW9tYWUnLCAnPG91dGZpbGUubWFlPic=

> <r_epik_Ionization_Penalty>
0.210691

> <r_epik_Ionization_Penalty_Charging>
0

> <r_epik_Ionization_Penalty_Neutral>
0.210691

> <r_epik_State_Penalty>
0.200732

> <r_epik_Charging_Adjusted_Penalty>
0.200732

> <i_epik_Tot_Q>
0

> <i_epik_Tot_abs_Q>
0

> <r_epik_Metal_State_Penalty>
0.147519

> <b_epik_Metal_Only>
0

> <s_lp_Force_Field>
OPLS_2005

> <r_lp_Energy>
17.3761

> <b_lp_Chiralities_Consistent>
1

> <s_lp_Variant>
AV-unprocessed.smi:2453-2

> <Gold.Version>
5.8.1

> <Gold.Id.Protein>
6NUR|6NUR_protein|mol2

> <Gold.PLP.Fitness>
45.4191

> <Gold.PLP.PLP>
-34.0303

> <Gold.PLP.part.hbond>
-3.7152

> <Gold.PLP.part.metal>
0.0000

> <Gold.PLP.part.buried>
2.0625

> <Gold.PLP.part.nonpolar>
-32.1465

> <Gold.PLP.part.repulsive>
1.0407

> <Gold.PLP.ligand.clash>
0.0000

> <Gold.PLP.ligand.torsion>
0.4290

> <Gold.PLP.Chemscore.Hbond>
2.0764

> <Gold.PLP.Chemscore.CHOScore>
2.0000

> <Gold.PLP.Chemscore.Metal>
0.0000

> <Gold.Chemscore.Hbonds>
donor molecule, donor type, donor heavy atom, donor atom, acceptor molecule, acceptor atom, score
      L1  H     8    26       P1  8028  1.00
      L1  H    11    27       P1  8028  0.49
      P1  H  7989  7998       L1    10  0.14
      P1  H  7997  8009       L1    19  0.47
      L1  C     3    23       P1 10175  0.92
      L1  C     5    24       P1  7948  1.00

> <Gold.PLP.Chemscore.Internal.Correction>
0.0174

> <Gold.Rescore>
     Score         DG    S(hbond)    S(metal)    S(lipo)     H(rot)  DE(clash)    DE(int)     intcor
     16.34     -21.41       2.07        0.00     115.35       1.75       3.44       1.63       ----

> <Gold.Chemscore.Fitness>
16.3439

> <Gold.Chemscore.DG>
-21.4106

> <Gold.Chemscore.ZeroCoef>
-5.4800

> <Gold.Chemscore.Hbond>
2.0697

> <Gold.Chemscore.Metal>
0.0000

> <Gold.Chemscore.Lipo>
115.3519

> <Gold.Chemscore.Internal_Hbond>
0.0000

> <Gold.Chemscore.DEClash>
3.4355

> <Gold.Chemscore.DEInternal>
1.6312

> <Gold.Chemscore.Rot>
1.7493

> <Gold.Chemscore.Internal.Correction>
   9.000000E+99

> <Gold.Chemscore.Hbonds>
donor molecule, donor type, donor heavy atom, donor atom, acceptor molecule, acceptor atom, score
      L1  H     8    26       P1  8028  0.96
      L1  H    11    27       P1  8028  0.49
      P1  H  7989  7998       L1    10  0.06
      P1  H  7997  8009       L1    19  0.02

> <Gold.Chemscore.Hbond.Weighted>
-6.9127

> <Gold.Chemscore.Metal.Weighted>
-0.0000

> <Gold.Chemscore.Lipo.Weighted>
-13.4962

> <Gold.Chemscore.Internal_Hbond.Weighted>
0.0000

> <Gold.Chemscore.DEClash.Weighted>
3.4355

> <Gold.Chemscore.DEInternal.Weighted>
1.6312

> <Gold.Chemscore.Rot.Weighted>
4.4782

> <Gold.Chemscore.Internal.Correction.Weighted>
   9.000000E+99

> <Gold.Protein.RotatedTorsions>
[ 6907 6896 6895 6894 ] final   77.27 input  -60.11 | X-H torsion
[ 7974 7965 7964 7962 ] final  -47.47 input  175.53 | X-H torsion
[ 8008 7997 7996 7995 ] final  155.45 input   59.86 | X-H torsion
[ 10167 10162 10161 10158 ] final -137.75 input  -65.29 | X-H torsion
[ 10718 10713 10712 10709 ] final   15.37 input   66.30 | X-H torsion
[ 10763 10752 10751 10750 ] final   53.34 input  -60.55 | X-H torsion
[ 11005 11000 10999 10996 ] final  130.67 input  -57.11 | X-H torsion

> <Gold.Protein.ActiveResidues>
 VAL166  LYS551  ARG553  GLY616  TRP617  ASP618  TYR619  PRO620  LYS621  CYS622 
 ASP623  PHE694  ASN695  SER759  ASP760  ASP761  ALA762  ILE779  LEU786  VAL792 
 PHE793  MET794  SER795  GLU796  ALA797  LYS798  CYS799  TRP800  GLU811  SER814 

> <Gold.Protein.RotatedAtoms>
  152.5110  134.3842  159.9361 H   0  0  0  0  0  0  0  0  0  0  0  0  # atno 6907 bound_to 6896
  151.3800  133.3818  159.2717 H   0  0  0  0  0  0  0  0  0  0  0  0  # atno 6908 bound_to 6896
  150.9512  134.8932  159.7732 H   0  0  0  0  0  0  0  0  0  0  0  0  # atno 6909 bound_to 6896
  145.9612  140.7477  142.9456 H   0  0  0  0  0  0  0  0  0  0  0  0  # atno 7974 bound_to 7965
  156.2477  140.1939  156.6803 H   0  0  0  0  0  0  0  0  0  0  0  0  # atno 8008 bound_to 7997
  154.6327  140.0594  156.9777 H   0  0  0  0  0  0  0  0  0  0  0  0  # atno 8009 bound_to 7997
  155.1686  140.3266  155.4400 H   0  0  0  0  0  0  0  0  0  0  0  0  # atno 8010 bound_to 7997
  139.8547  143.7154  152.2655 H   0  0  0  0  0  0  0  0  0  0  0  0  # atno 10167 bound_to 10162
  157.0526  130.6276  149.5770 H   0  0  0  0  0  0  0  0  0  0  0  0  # atno 10718 bound_to 10713
  152.9794  135.5782  154.4726 H   0  0  0  0  0  0  0  0  0  0  0  0  # atno 10763 bound_to 10752
  154.4286  135.2773  155.1929 H   0  0  0  0  0  0  0  0  0  0  0  0  # atno 10764 bound_to 10752
  154.3647  135.6181  153.5762 H   0  0  0  0  0  0  0  0  0  0  0  0  # atno 10765 bound_to 10752
  139.9685  134.9584  156.9327 H   0  0  0  0  0  0  0  0  0  0  0  0  # atno 11005 bound_to 11000
  144.6815  140.2595  143.7321 LP  0  0  0  0  0  0  0  0  0  0  0  0  # atno 17320 bound_to 7965
  145.8037  139.1974  143.2033 LP  0  0  0  0  0  0  0  0  0  0  0  0  # atno 17321 bound_to 7965
  139.7431  144.7554  151.0621 LP  0  0  0  0  0  0  0  0  0  0  0  0  # atno 17342 bound_to 10162
  140.7783  143.4948  150.9846 LP  0  0  0  0  0  0  0  0  0  0  0  0  # atno 17343 bound_to 10162
  156.0003  130.5081  150.7637 LP  0  0  0  0  0  0  0  0  0  0  0  0  # atno 17370 bound_to 10713
  157.5018  131.0919  151.0305 LP  0  0  0  0  0  0  0  0  0  0  0  0  # atno 17371 bound_to 10713
  140.5344  134.0782  155.7324 LP  0  0  0  0  0  0  0  0  0  0  0  0  # atno 17394 bound_to 11000
  141.1365  133.9212  157.2422 LP  0  0  0  0  0  0  0  0  0  0  0  0  # atno 17395 bound_to 11000

$$$$
