AV-unprocessed.smi:3112|AV-procd|sdf|11842|dock7
  -GOLD-   2272017223D 1   1.00000     0.00000
 Structure written by MMmdl.
 37 37  0  0  0  0  0  0  0  0  2 V2000
  145.5482  136.1700  151.2207 C   0  0  0  0  0  0  0  0  0  0  0  0
  145.8670  136.9989  152.4725 C   0  0  0  0  0  0  0  0  0  0  0  0
  146.4561  138.3860  152.1560 C   0  0  2  0  0  0  0  0  0  0  0  0
  147.3833  138.2589  151.0956 O   0  0  0  0  0  0  0  0  0  0  0  0
  147.1865  138.9899  153.3673 C   0  0  0  0  0  0  0  0  0  0  0  0
  148.6489  138.8005  153.2576 N   0  3  0  0  0  0  0  0  0  0  0  0
  149.4184  139.0530  154.4976 C   0  0  1  0  0  0  0  0  0  0  0  0
  150.6699  138.1504  154.5380 C   0  0  0  0  0  0  0  0  0  0  0  0
  149.7573  140.5634  154.6015 C   0  0  1  0  0  0  0  0  0  0  0  0
  148.5156  141.4610  154.4424 C   0  0  0  0  0  0  0  0  0  0  0  0
  150.4444  140.8869  155.8462 N   0  0  0  0  0  0  0  0  0  0  0  0
  150.1144  141.8338  156.7959 C   0  0  0  0  0  0  0  0  0  0  0  0
  151.0468  141.7576  157.7903 C   0  0  0  0  0  0  0  0  0  0  0  0
  151.9183  140.7200  157.3573 C   0  0  0  0  0  0  0  0  0  0  0  0
  151.5543  140.2004  156.1960 N   0  0  0  0  0  0  0  0  0  0  0  0
  145.0973  135.2156  151.4937 H   0  0  0  0  0  0  0  0  0  0  0  0
  146.4481  135.9551  150.6438 H   0  0  0  0  0  0  0  0  0  0  0  0
  144.8478  136.6930  150.5687 H   0  0  0  0  0  0  0  0  0  0  0  0
  144.9450  137.1236  153.0418 H   0  0  0  0  0  0  0  0  0  0  0  0
  146.5472  136.4408  153.1173 H   0  0  0  0  0  0  0  0  0  0  0  0
  145.6528  139.0551  151.8432 H   0  0  0  0  0  0  0  0  0  0  0  0
  147.9821  137.5565  151.3015 H   0  0  0  0  0  0  0  0  0  0  0  0
  146.9842  140.0606  153.4195 H   0  0  0  0  0  0  0  0  0  0  0  0
  146.8095  138.5495  154.2906 H   0  0  0  0  0  0  0  0  0  0  0  0
  148.8377  137.8601  152.9403 H   0  0  0  0  0  0  0  0  0  0  0  0
  148.7875  138.7952  155.3500 H   0  0  0  0  0  0  0  0  0  0  0  0
  151.2165  138.2558  155.4750 H   0  0  0  0  0  0  0  0  0  0  0  0
  151.3562  138.3936  153.7261 H   0  0  0  0  0  0  0  0  0  0  0  0
  150.4134  137.0952  154.4482 H   0  0  0  0  0  0  0  0  0  0  0  0
  150.4396  140.8075  153.7843 H   0  0  0  0  0  0  0  0  0  0  0  0
  148.0429  141.3245  153.4698 H   0  0  0  0  0  0  0  0  0  0  0  0
  148.7831  142.5150  154.5248 H   0  0  0  0  0  0  0  0  0  0  0  0
  147.7669  141.2488  155.2063 H   0  0  0  0  0  0  0  0  0  0  0  0
  149.2526  142.4758  156.6873 H   0  0  0  0  0  0  0  0  0  0  0  0
  151.0982  142.3519  158.6906 H   0  0  0  0  0  0  0  0  0  0  0  0
  152.7977  140.3311  157.8493 H   0  0  0  0  0  0  0  0  0  0  0  0
  148.9800  139.4455  152.5545 H   0  0  0  0  0  0  0  0  0  0  0  0
  1  2  1  0  0  0  0
  1 16  1  0  0  0  0
  1 17  1  0  0  0  0
  1 18  1  0  0  0  0
  2  3  1  0  0  0  0
  2 19  1  0  0  0  0
  2 20  1  0  0  0  0
  3  4  1  0  0  0  0
  3  5  1  0  0  0  0
  3 21  1  0  0  0  0
  4 22  1  0  0  0  0
  5  6  1  0  0  0  0
  5 23  1  0  0  0  0
  5 24  1  0  0  0  0
  6  7  1  0  0  0  0
  6 25  1  0  0  0  0
  6 37  1  0  0  0  0
  7  8  1  0  0  0  0
  7  9  1  0  0  0  0
  7 26  1  0  0  0  0
  8 27  1  0  0  0  0
  8 28  1  0  0  0  0
  8 29  1  0  0  0  0
  9 10  1  0  0  0  0
  9 11  1  0  0  0  0
  9 30  1  0  0  0  0
 10 31  1  0  0  0  0
 10 32  1  0  0  0  0
 10 33  1  0  0  0  0
 11 15  1  0  0  0  0
 11 12  1  0  0  0  0
 12 13  2  0  0  0  0
 12 34  1  0  0  0  0
 13 14  1  0  0  0  0
 13 35  1  0  0  0  0
 14 15  2  0  0  0  0
 14 36  1  0  0  0  0
M  CHG  1   6   1
M  END
> <s_m_source_file>
AV-unprocessed.smi

> <i_m_source_file_index>
3112

> <i_lp_mmshare_version>
43012

> <i_f3d_flags>
0

> <s_epik_input>
W0NIM11bQ0gyXVtDQEhdKFtPSF0pW0NIMl1bTkhdW0NASF0oW0NIM10pW0NASF0oW0NIM10pbjFbY0hdW2NIXVtjSF1uMQ==

> <s_epik_cmdline>
J2VwaWtfcHl0aG9uJywgJy1waCcsICc3LjAnLCAnLXRuJywgJzgnLCAnLW1hJywgJzIwMCcsICctbWV0YWxfYmluZGluZycsICctaW1hZScsICc8aW5maWxlLm1hZT4nLCAnLW9tYWUnLCAnPG91dGZpbGUubWFlPic=

> <r_lp_tautomer_probability>
1

> <r_epik_Ionization_Penalty>
0.0154842

> <r_epik_Ionization_Penalty_Charging>
0.0154724

> <r_epik_Ionization_Penalty_Neutral>
1.17979e-05

> <r_epik_State_Penalty>
0.0121607

> <r_epik_Charging_Adjusted_Penalty>
0.0276331

> <i_epik_Tot_Q>
1

> <i_epik_Tot_abs_Q>
1

> <r_epik_Metal_State_Penalty>
0.0121863

> <b_epik_Metal_Only>
0

> <s_lp_Force_Field>
OPLS_2005

> <r_lp_Energy>
13.0446

> <b_lp_Chiralities_Consistent>
1

> <s_lp_Variant>
AV-unprocessed.smi:3112-7

> <Gold.Version>
5.8.1

> <Gold.Id.Protein>
6NUR|6NUR_protein|mol2

> <Gold.PLP.Fitness>
47.3116

> <Gold.PLP.PLP>
-34.5322

> <Gold.PLP.part.hbond>
-4.7366

> <Gold.PLP.part.metal>
0.0000

> <Gold.PLP.part.buried>
-1.3170

> <Gold.PLP.part.nonpolar>
-27.8293

> <Gold.PLP.part.repulsive>
0.0728

> <Gold.PLP.ligand.clash>
0.0000

> <Gold.PLP.ligand.torsion>
1.1847

> <Gold.PLP.Chemscore.Hbond>
4.0000

> <Gold.PLP.Chemscore.CHOScore>
1.0000

> <Gold.PLP.Chemscore.Metal>
0.0000

> <Gold.Chemscore.Hbonds>
donor molecule, donor type, donor heavy atom, donor atom, acceptor molecule, acceptor atom, score
      L1  H     4    22       P1  7948  1.00
      L1  H     6    25       P1  7948  2.00
      L1  H     6    37       P1  7957  1.00
      L1  C    12    34       P1  8028  1.00

> <Gold.PLP.Chemscore.Internal.Correction>
0.1487

> <Gold.Rescore>
     Score         DG    S(hbond)    S(metal)    S(lipo)     H(rot)  DE(clash)    DE(int)     intcor
     15.25     -17.89       2.98        0.00      73.77       2.41       0.15       2.49       ----

> <Gold.Chemscore.Fitness>
15.2535

> <Gold.Chemscore.DG>
-17.8875

> <Gold.Chemscore.ZeroCoef>
-5.4800

> <Gold.Chemscore.Hbond>
2.9770

> <Gold.Chemscore.Metal>
0.0000

> <Gold.Chemscore.Lipo>
73.7695

> <Gold.Chemscore.Internal_Hbond>
0.0000

> <Gold.Chemscore.DEClash>
0.1470

> <Gold.Chemscore.DEInternal>
2.4869

> <Gold.Chemscore.Rot>
2.4089

> <Gold.Chemscore.Internal.Correction>
   9.000000E+99

> <Gold.Chemscore.Hbonds>
donor molecule, donor type, donor heavy atom, donor atom, acceptor molecule, acceptor atom, score
      L1  H     4    22       P1  7948  1.00
      L1  H     6    25       P1  7948  0.99
      L1  H     6    37       P1  7957  0.99

> <Gold.Chemscore.Hbond.Weighted>
-9.9431

> <Gold.Chemscore.Metal.Weighted>
-0.0000

> <Gold.Chemscore.Lipo.Weighted>
-8.6310

> <Gold.Chemscore.Internal_Hbond.Weighted>
0.0000

> <Gold.Chemscore.DEClash.Weighted>
0.1470

> <Gold.Chemscore.DEInternal.Weighted>
2.4869

> <Gold.Chemscore.Rot.Weighted>
6.1667

> <Gold.Chemscore.Internal.Correction.Weighted>
   9.000000E+99

> <Gold.Protein.RotatedTorsions>
[ 6907 6896 6895 6894 ] final -129.00 input  -60.11 | X-H torsion
[ 7974 7965 7964 7962 ] final -125.00 input  175.53 | X-H torsion
[ 8008 7997 7996 7995 ] final  148.70 input   59.86 | X-H torsion
[ 10167 10162 10161 10158 ] final  -66.22 input  -65.29 | X-H torsion
[ 10718 10713 10712 10709 ] final  -29.49 input   66.30 | X-H torsion
[ 10763 10752 10751 10750 ] final   43.82 input  -60.55 | X-H torsion
[ 11005 11000 10999 10996 ] final  130.99 input  -57.11 | X-H torsion

> <Gold.Protein.ActiveResidues>
 VAL166  LYS551  ARG553  GLY616  TRP617  ASP618  TYR619  PRO620  LYS621  CYS622 
 ASP623  PHE694  ASN695  SER759  ASP760  ASP761  ALA762  ILE779  LEU786  VAL792 
 PHE793  MET794  SER795  GLU796  ALA797  LYS798  CYS799  TRP800  GLU811  SER814 

> <Gold.Protein.RotatedAtoms>
  150.9240  133.6846  159.2825 H   0  0  0  0  0  0  0  0  0  0  0  0  # atno 6907 bound_to 6896
  151.4291  135.1006  159.9646 H   0  0  0  0  0  0  0  0  0  0  0  0  # atno 6908 bound_to 6896
  152.4993  133.8674  159.7336 H   0  0  0  0  0  0  0  0  0  0  0  0  # atno 6909 bound_to 6896
  145.0021  140.7830  143.4490 H   0  0  0  0  0  0  0  0  0  0  0  0  # atno 7974 bound_to 7965
  156.2782  140.2121  156.5740 H   0  0  0  0  0  0  0  0  0  0  0  0  # atno 8008 bound_to 7997
  154.7113  140.0512  157.0575 H   0  0  0  0  0  0  0  0  0  0  0  0  # atno 8009 bound_to 7997
  155.0602  140.3166  155.4666 H   0  0  0  0  0  0  0  0  0  0  0  0  # atno 8010 bound_to 7997
  140.5673  143.2315  151.6609 H   0  0  0  0  0  0  0  0  0  0  0  0  # atno 10167 bound_to 10162
  156.4118  130.4409  149.7247 H   0  0  0  0  0  0  0  0  0  0  0  0  # atno 10718 bound_to 10713
  152.9853  135.6089  154.3174 H   0  0  0  0  0  0  0  0  0  0  0  0  # atno 10763 bound_to 10752
  154.2885  135.2775  155.2667 H   0  0  0  0  0  0  0  0  0  0  0  0  # atno 10764 bound_to 10752
  154.4973  135.5876  153.6561 H   0  0  0  0  0  0  0  0  0  0  0  0  # atno 10765 bound_to 10752
  139.9704  134.9579  156.9374 H   0  0  0  0  0  0  0  0  0  0  0  0  # atno 11005 bound_to 11000
  145.2138  139.2191  143.5129 LP  0  0  0  0  0  0  0  0  0  0  0  0  # atno 17320 bound_to 7965
  146.3454  140.1982  142.8589 LP  0  0  0  0  0  0  0  0  0  0  0  0  # atno 17321 bound_to 7965
  139.5099  144.3560  152.0608 LP  0  0  0  0  0  0  0  0  0  0  0  0  # atno 17342 bound_to 10162
  140.2693  144.3982  150.6157 LP  0  0  0  0  0  0  0  0  0  0  0  0  # atno 17343 bound_to 10162
  156.4222  130.7774  151.2792 LP  0  0  0  0  0  0  0  0  0  0  0  0  # atno 17370 bound_to 10713
  157.7507  131.0179  150.3605 LP  0  0  0  0  0  0  0  0  0  0  0  0  # atno 17371 bound_to 10713
  140.5305  134.0818  155.7314 LP  0  0  0  0  0  0  0  0  0  0  0  0  # atno 17394 bound_to 11000
  141.1384  133.9182  157.2382 LP  0  0  0  0  0  0  0  0  0  0  0  0  # atno 17395 bound_to 11000

$$$$
