AV-unprocessed.smi:149|AV-procd|sdf|1234|dock9
  -GOLD-   2262018443D 1   1.00000     0.00000
 Structure written by MMmdl.
 60 64  0  0  0  0  0  0  0  0  2 V2000
  156.9197  136.5183  164.8488 C   0  0  0  0  0  0  0  0  0  0  0  0
  156.6057  136.2290  163.3679 C   0  0  2  0  0  0  0  0  0  0  0  0
  155.8717  137.4299  162.7412 C   0  0  0  0  0  0  0  0  0  0  0  0
  154.7640  136.8937  161.9699 N   0  0  0  0  0  0  0  0  0  0  0  0
  154.1939  137.6161  160.9687 C   0  0  0  0  0  0  0  0  0  0  0  0
  153.6424  136.9490  159.9200 N   0  0  0  0  0  0  0  0  0  0  0  0
  153.0699  137.6161  158.9148 C   0  0  0  0  0  0  0  0  0  0  0  0
  152.9362  138.9330  158.7602 N   0  0  0  0  0  0  0  0  0  0  0  0
  153.4746  139.6155  159.8107 C   0  0  0  0  0  0  0  0  0  0  0  0
  154.1152  139.0411  160.9475 C   0  0  0  0  0  0  0  0  0  0  0  0
  154.5239  140.0520  161.8106 N   0  0  0  0  0  0  0  0  0  0  0  0
  154.1560  141.1539  161.2175 C   0  0  0  0  0  0  0  0  0  0  0  0
  153.5192  140.9868  160.0091 N   0  0  0  0  0  0  0  0  0  0  0  0
  153.0170  142.0307  159.1590 C   0  0  0  0  0  0  0  0  0  0  0  0
  152.9036  143.4761  159.6512 C   0  0  0  0  0  0  0  0  0  0  0  0
  151.6438  143.6646  158.7726 C   0  0  0  0  0  0  0  0  0  0  0  0
  150.4678  144.4507  159.3860 C   0  0  0  0  0  0  0  0  0  0  0  0
  149.2193  144.0733  158.8400 O   0  0  0  0  0  0  0  0  0  0  0  0
  151.8992  144.2467  157.3696 C   0  0  0  0  0  0  0  0  0  0  0  0
  151.0832  143.6326  156.3924 O   0  0  0  0  0  0  0  0  0  0  0  0
  151.5309  142.1220  158.8007 C   0  0  0  0  0  0  0  0  0  0  0  0
  154.8972  135.4534  161.8676 C   0  0  0  0  0  0  0  0  0  0  0  0
  155.6720  135.0184  163.1183 C   0  0  1  0  0  0  0  0  0  0  0  0
  156.3498  133.7034  162.8866 N   0  3  0  0  0  0  0  0  0  0  0  0
  157.2467  133.2215  163.9671 C   0  0  0  0  0  0  0  0  0  0  0  0
  156.4359  132.6871  165.1624 C   0  0  0  0  0  0  0  0  0  0  0  0
  155.5935  131.6298  164.7190 O   0  0  0  0  0  0  0  0  0  0  0  0
  154.6642  132.0563  163.7293 C   0  0  0  0  0  0  0  0  0  0  0  0
  155.4202  132.6073  162.5031 C   0  0  0  0  0  0  0  0  0  0  0  0
  156.0043  136.6689  165.4220 H   0  0  0  0  0  0  0  0  0  0  0  0
  157.5178  137.4250  164.9442 H   0  0  0  0  0  0  0  0  0  0  0  0
  157.4763  135.7194  165.3324 H   0  0  0  0  0  0  0  0  0  0  0  0
  157.5354  136.0844  162.8155 H   0  0  0  0  0  0  0  0  0  0  0  0
  155.4704  138.0927  163.5089 H   0  0  0  0  0  0  0  0  0  0  0  0
  156.5488  138.0123  162.1148 H   0  0  0  0  0  0  0  0  0  0  0  0
  152.6594  137.0090  158.1215 H   0  0  0  0  0  0  0  0  0  0  0  0
  154.3413  142.1258  161.6518 H   0  0  0  0  0  0  0  0  0  0  0  0
  153.6151  142.0000  158.2463 H   0  0  0  0  0  0  0  0  0  0  0  0
  152.7025  143.5450  160.7207 H   0  0  0  0  0  0  0  0  0  0  0  0
  153.7519  144.1057  159.3812 H   0  0  0  0  0  0  0  0  0  0  0  0
  150.4123  144.2973  160.4639 H   0  0  0  0  0  0  0  0  0  0  0  0
  150.5925  145.5222  159.2268 H   0  0  0  0  0  0  0  0  0  0  0  0
  148.8915  144.7876  158.3156 H   0  0  0  0  0  0  0  0  0  0  0  0
  151.6983  145.3179  157.3440 H   0  0  0  0  0  0  0  0  0  0  0  0
  152.9435  144.1262  157.0796 H   0  0  0  0  0  0  0  0  0  0  0  0
  150.3245  144.1776  156.2484 H   0  0  0  0  0  0  0  0  0  0  0  0
  151.2743  141.6664  157.8439 H   0  0  0  0  0  0  0  0  0  0  0  0
  150.8823  141.7415  159.5901 H   0  0  0  0  0  0  0  0  0  0  0  0
  153.9182  134.9759  161.8146 H   0  0  0  0  0  0  0  0  0  0  0  0
  155.4514  135.2091  160.9597 H   0  0  0  0  0  0  0  0  0  0  0  0
  154.9737  134.9434  163.9526 H   0  0  0  0  0  0  0  0  0  0  0  0
  157.8504  132.4070  163.5647 H   0  0  0  0  0  0  0  0  0  0  0  0
  157.9664  133.9799  164.2660 H   0  0  0  0  0  0  0  0  0  0  0  0
  157.1084  132.3016  165.9286 H   0  0  0  0  0  0  0  0  0  0  0  0
  155.8410  133.4734  165.6285 H   0  0  0  0  0  0  0  0  0  0  0  0
  154.0512  131.2038  163.4362 H   0  0  0  0  0  0  0  0  0  0  0  0
  153.9850  132.7997  164.1480 H   0  0  0  0  0  0  0  0  0  0  0  0
  154.7200  132.9244  161.7314 H   0  0  0  0  0  0  0  0  0  0  0  0
  156.0073  131.8034  162.0568 H   0  0  0  0  0  0  0  0  0  0  0  0
  156.9472  133.8598  162.0873 H   0  0  0  0  0  0  0  0  0  0  0  0
  1  2  1  0  0  0  0
  1 30  1  0  0  0  0
  1 31  1  0  0  0  0
  1 32  1  0  0  0  0
  2 23  1  0  0  0  0
  2  3  1  0  0  0  0
  2 33  1  0  0  0  0
  3  4  1  0  0  0  0
  3 34  1  0  0  0  0
  3 35  1  0  0  0  0
  4  5  1  0  0  0  0
  4 22  1  0  0  0  0
  5 10  1  0  0  0  0
  5  6  2  0  0  0  0
  6  7  1  0  0  0  0
  7  8  2  0  0  0  0
  7 36  1  0  0  0  0
  8  9  1  0  0  0  0
  9 13  1  0  0  0  0
  9 10  2  0  0  0  0
 10 11  1  0  0  0  0
 11 12  2  0  0  0  0
 12 13  1  0  0  0  0
 12 37  1  0  0  0  0
 13 14  1  0  0  0  0
 14 21  1  0  0  0  0
 14 15  1  0  0  0  0
 14 38  1  0  0  0  0
 15 16  1  0  0  0  0
 15 39  1  0  0  0  0
 15 40  1  0  0  0  0
 16 17  1  0  0  0  0
 16 19  1  0  0  0  0
 16 21  1  0  0  0  0
 17 18  1  0  0  0  0
 17 41  1  0  0  0  0
 17 42  1  0  0  0  0
 18 43  1  0  0  0  0
 19 20  1  0  0  0  0
 19 44  1  0  0  0  0
 19 45  1  0  0  0  0
 20 46  1  0  0  0  0
 21 47  1  0  0  0  0
 21 48  1  0  0  0  0
 22 23  1  0  0  0  0
 22 49  1  0  0  0  0
 22 50  1  0  0  0  0
 23 24  1  0  0  0  0
 23 51  1  0  0  0  0
 24 29  1  0  0  0  0
 24 25  1  0  0  0  0
 24 60  1  0  0  0  0
 25 26  1  0  0  0  0
 25 52  1  0  0  0  0
 25 53  1  0  0  0  0
 26 27  1  0  0  0  0
 26 54  1  0  0  0  0
 26 55  1  0  0  0  0
 27 28  1  0  0  0  0
 28 29  1  0  0  0  0
 28 56  1  0  0  0  0
 28 57  1  0  0  0  0
 29 58  1  0  0  0  0
 29 59  1  0  0  0  0
M  CHG  1  24   1
M  END
> <s_m_source_file>
AV-unprocessed.smi

> <i_m_source_file_index>
149

> <i_lp_mmshare_version>
43012

> <i_f3d_flags>
0

> <s_epik_input>
W0NIMl0xW0NIMl1PW0NIMl1bQ0gyXU4xW0NAQEhdMltDSDJdTihbQ0gyXVtDQEhdMltDSDNdKWMobltjSF1uMyljKGMzNCluW2NIXW40W0NIXShbQ0gyXTUpW0NIMl1DNShbQ0gyXVtPSF0pW0NIMl1bT0hd

> <s_epik_cmdline>
J2VwaWtfcHl0aG9uJywgJy1waCcsICc3LjAnLCAnLXRuJywgJzgnLCAnLW1hJywgJzIwMCcsICctbWV0YWxfYmluZGluZycsICctaW1hZScsICc8aW5maWxlLm1hZT4nLCAnLW9tYWUnLCAnPG91dGZpbGUubWFlPic=

> <r_lp_tautomer_probability>
1

> <r_epik_Ionization_Penalty>
0.404847

> <r_epik_Ionization_Penalty_Charging>
0.404623

> <r_epik_Ionization_Penalty_Neutral>
0.000224096

> <r_epik_State_Penalty>
0.238803

> <r_epik_Charging_Adjusted_Penalty>
0.643425

> <i_epik_Tot_Q>
1

> <i_epik_Tot_abs_Q>
1

> <r_epik_Metal_State_Penalty>
0.239083

> <b_epik_Metal_Only>
0

> <s_lp_Force_Field>
OPLS_2005

> <r_lp_Energy>
72.409

> <b_lp_Chiralities_Consistent>
1

> <s_lp_Variant>
AV-unprocessed.smi:149-1

> <Gold.Version>
5.8.1

> <Gold.Id.Protein>
6NUR|6NUR_protein|mol2

> <Gold.PLP.Fitness>
54.6311

> <Gold.PLP.PLP>
-48.0288

> <Gold.PLP.part.hbond>
-2.4552

> <Gold.PLP.part.metal>
0.0000

> <Gold.PLP.part.buried>
-7.7160

> <Gold.PLP.part.nonpolar>
-39.0501

> <Gold.PLP.part.repulsive>
0.0081

> <Gold.PLP.ligand.clash>
0.0000

> <Gold.PLP.ligand.torsion>
1.0725

> <Gold.PLP.Chemscore.Hbond>
2.6748

> <Gold.PLP.Chemscore.CHOScore>
0.0000

> <Gold.PLP.Chemscore.Metal>
0.0000

> <Gold.Chemscore.Hbonds>
donor molecule, donor type, donor heavy atom, donor atom, acceptor molecule, acceptor atom, score
      L1  H    18    43       P1  8029  1.00
      L1  H    20    46       P1  8028  1.00

> <Gold.PLP.Chemscore.Internal.Correction>
0.7231

> <Gold.Rescore>
     Score         DG    S(hbond)    S(metal)    S(lipo)     H(rot)  DE(clash)    DE(int)     intcor
     18.01     -19.32       2.48        0.00     115.02       3.09       0.03       1.28       ----

> <Gold.Chemscore.Fitness>
18.0144

> <Gold.Chemscore.DG>
-19.3208

> <Gold.Chemscore.ZeroCoef>
-5.4800

> <Gold.Chemscore.Hbond>
2.4842

> <Gold.Chemscore.Metal>
0.0000

> <Gold.Chemscore.Lipo>
115.0169

> <Gold.Chemscore.Internal_Hbond>
0.0000

> <Gold.Chemscore.DEClash>
0.0304

> <Gold.Chemscore.DEInternal>
1.2760

> <Gold.Chemscore.Rot>
3.0912

> <Gold.Chemscore.Internal.Correction>
   9.000000E+99

> <Gold.Chemscore.Hbonds>
donor molecule, donor type, donor heavy atom, donor atom, acceptor molecule, acceptor atom, score
      L1  H    18    43       P1  8029  0.65
      L1  H    20    46       P1  8028  0.99

> <Gold.Chemscore.Hbond.Weighted>
-8.2973

> <Gold.Chemscore.Metal.Weighted>
-0.0000

> <Gold.Chemscore.Lipo.Weighted>
-13.4570

> <Gold.Chemscore.Internal_Hbond.Weighted>
0.0000

> <Gold.Chemscore.DEClash.Weighted>
0.0304

> <Gold.Chemscore.DEInternal.Weighted>
1.2760

> <Gold.Chemscore.Rot.Weighted>
7.9135

> <Gold.Chemscore.Internal.Correction.Weighted>
   9.000000E+99

> <Gold.Protein.RotatedTorsions>
[ 6907 6896 6895 6894 ] final   25.48 input  -60.11 | X-H torsion
[ 7974 7965 7964 7962 ] final  -17.95 input  175.53 | X-H torsion
[ 8008 7997 7996 7995 ] final   38.12 input   59.86 | X-H torsion
[ 10167 10162 10161 10158 ] final  -93.74 input  -65.29 | X-H torsion
[ 10718 10713 10712 10709 ] final  150.90 input   66.30 | X-H torsion
[ 10763 10752 10751 10750 ] final  -70.52 input  -60.55 | X-H torsion
[ 11005 11000 10999 10996 ] final -115.76 input  -57.11 | X-H torsion

> <Gold.Protein.ActiveResidues>
 VAL166  LYS551  ARG553  GLY616  TRP617  ASP618  TYR619  PRO620  LYS621  CYS622 
 ASP623  PHE694  ASN695  SER759  ASP760  ASP761  ALA762  ILE779  LEU786  VAL792 
 PHE793  MET794  SER795  GLU796  ALA797  LYS798  CYS799  TRP800  GLU811  SER814 

> <Gold.Protein.RotatedAtoms>
  151.9732  135.0066  160.0553 H   0  0  0  0  0  0  0  0  0  0  0  0  # atno 6907 bound_to 6896
  152.1764  133.4673  159.4944 H   0  0  0  0  0  0  0  0  0  0  0  0  # atno 6908 bound_to 6896
  150.6910  134.1806  159.4290 H   0  0  0  0  0  0  0  0  0  0  0  0  # atno 6909 bound_to 6896
  146.1916  140.3852  142.8456 H   0  0  0  0  0  0  0  0  0  0  0  0  # atno 7974 bound_to 7965
  155.2149  140.3326  155.4323 H   0  0  0  0  0  0  0  0  0  0  0  0  # atno 8008 bound_to 7997
  156.2356  140.1870  156.7177 H   0  0  0  0  0  0  0  0  0  0  0  0  # atno 8009 bound_to 7997
  154.6053  140.0617  156.9408 H   0  0  0  0  0  0  0  0  0  0  0  0  # atno 8010 bound_to 7997
  140.3215  143.3046  152.0040 H   0  0  0  0  0  0  0  0  0  0  0  0  # atno 10167 bound_to 10162
  157.2775  131.0829  151.1555 H   0  0  0  0  0  0  0  0  0  0  0  0  # atno 10718 bound_to 10713
  154.4188  135.5991  153.5997 H   0  0  0  0  0  0  0  0  0  0  0  0  # atno 10763 bound_to 10752
  152.9793  135.5947  154.3981 H   0  0  0  0  0  0  0  0  0  0  0  0  # atno 10764 bound_to 10752
  154.3803  135.2841  155.2193 H   0  0  0  0  0  0  0  0  0  0  0  0  # atno 10765 bound_to 10752
  141.0467  133.9752  157.2906 H   0  0  0  0  0  0  0  0  0  0  0  0  # atno 11005 bound_to 11000
  144.8498  140.6984  143.6176 LP  0  0  0  0  0  0  0  0  0  0  0  0  # atno 17320 bound_to 7965
  145.3775  139.1644  143.4299 LP  0  0  0  0  0  0  0  0  0  0  0  0  # atno 17321 bound_to 7965
  139.4873  144.6307  151.7076 LP  0  0  0  0  0  0  0  0  0  0  0  0  # atno 17342 bound_to 10162
  140.5479  144.0474  150.6114 LP  0  0  0  0  0  0  0  0  0  0  0  0  # atno 17343 bound_to 10162
  157.3003  130.6839  149.6160 LP  0  0  0  0  0  0  0  0  0  0  0  0  # atno 17370 bound_to 10713
  155.9664  130.4394  150.5257 LP  0  0  0  0  0  0  0  0  0  0  0  0  # atno 17371 bound_to 10713
  139.9317  135.0199  156.8422 LP  0  0  0  0  0  0  0  0  0  0  0  0  # atno 17394 bound_to 11000
  140.6134  134.0061  155.7586 LP  0  0  0  0  0  0  0  0  0  0  0  0  # atno 17395 bound_to 11000

$$$$
