AV-unprocessed.smi:1296|AV-procd|sdf|5414|dock7
  -GOLD-   22720 4573D 1   1.00000     0.00000
 Structure written by MMmdl.
 36 36  0  0  0  0  0  0  0  0  1 V2000
  151.6384  144.9077  158.8445 C   0  0  0  0  0  0  0  0  0  0  0  0
  152.1999  143.5906  159.3350 C   0  0  0  0  0  0  0  0  0  0  0  0
  152.5200  143.5898  160.6826 N   0  0  0  0  0  0  0  0  0  0  0  0
  153.0536  142.4319  161.2206 C   0  0  0  0  0  0  0  0  0  0  0  0
  153.3825  142.5166  162.7009 C   0  0  0  0  0  0  0  0  0  0  0  0
  153.2509  141.3280  160.4561 C   0  0  0  0  0  0  0  0  0  0  0  0
  153.8398  140.0308  161.0100 C   0  0  0  0  0  0  0  0  0  0  0  0
  155.2613  140.1128  161.5728 C   0  0  0  0  0  0  0  0  0  0  0  0
  156.2048  140.4510  160.8576 O   0  0  0  0  0  0  0  0  0  0  0  0
  155.3973  139.7992  162.8686 N   0  0  0  0  0  0  0  0  0  0  0  0
  156.6588  139.8295  163.5976 C   0  0  0  0  0  0  0  0  0  0  0  0
  156.4679  139.4508  165.0792 C   0  0  0  0  0  0  0  0  0  0  0  0
  155.7058  138.1253  165.2530 C   0  0  0  0  0  0  0  0  0  0  0  0
  155.7661  140.5826  165.8438 C   0  0  0  0  0  0  0  0  0  0  0  0
  152.8741  141.3844  159.0240 C   0  0  0  0  0  0  0  0  0  0  0  0
  153.0081  140.4106  158.2842 O   0  0  0  0  0  0  0  0  0  0  0  0
  152.3487  142.5872  158.5245 N   0  0  0  0  0  0  0  0  0  0  0  0
  152.3891  144.3880  161.2870 H   0  0  0  0  0  0  0  0  0  0  0  0
  151.3474  144.8412  157.7954 H   0  0  0  0  0  0  0  0  0  0  0  0
  152.3838  145.6975  158.9424 H   0  0  0  0  0  0  0  0  0  0  0  0
  150.7586  145.1870  159.4247 H   0  0  0  0  0  0  0  0  0  0  0  0
  154.4516  142.3779  162.8625 H   0  0  0  0  0  0  0  0  0  0  0  0
  152.8464  141.7458  163.2549 H   0  0  0  0  0  0  0  0  0  0  0  0
  153.1034  143.4842  163.1197 H   0  0  0  0  0  0  0  0  0  0  0  0
  153.8397  139.2850  160.2148 H   0  0  0  0  0  0  0  0  0  0  0  0
  153.1871  139.6155  161.7788 H   0  0  0  0  0  0  0  0  0  0  0  0
  154.5727  139.5322  163.3864 H   0  0  0  0  0  0  0  0  0  0  0  0
  157.3549  139.1362  163.1226 H   0  0  0  0  0  0  0  0  0  0  0  0
  157.0982  140.8254  163.5188 H   0  0  0  0  0  0  0  0  0  0  0  0
  157.4566  139.3243  165.5230 H   0  0  0  0  0  0  0  0  0  0  0  0
  154.7140  138.1777  164.8027 H   0  0  0  0  0  0  0  0  0  0  0  0
  155.5785  137.8825  166.3084 H   0  0  0  0  0  0  0  0  0  0  0  0
  156.2367  137.2919  164.7927 H   0  0  0  0  0  0  0  0  0  0  0  0
  154.7667  140.7673  165.4483 H   0  0  0  0  0  0  0  0  0  0  0  0
  156.3295  141.5134  165.7735 H   0  0  0  0  0  0  0  0  0  0  0  0
  155.6654  140.3399  166.9020 H   0  0  0  0  0  0  0  0  0  0  0  0
  1 19  1  0  0  0  0
  1 20  1  0  0  0  0
  1 21  1  0  0  0  0
  1  2  1  0  0  0  0
  2  3  1  0  0  0  0
  2 17  2  0  0  0  0
  3  4  1  0  0  0  0
  3 18  1  0  0  0  0
  4  6  2  0  0  0  0
  4  5  1  0  0  0  0
  5 22  1  0  0  0  0
  5 23  1  0  0  0  0
  5 24  1  0  0  0  0
  6 15  1  0  0  0  0
  6  7  1  0  0  0  0
  7  8  1  0  0  0  0
  7 25  1  0  0  0  0
  7 26  1  0  0  0  0
  8  9  2  0  0  0  0
  8 10  1  0  0  0  0
 10 11  1  0  0  0  0
 10 27  1  0  0  0  0
 11 12  1  0  0  0  0
 11 28  1  0  0  0  0
 11 29  1  0  0  0  0
 12 13  1  0  0  0  0
 12 14  1  0  0  0  0
 12 30  1  0  0  0  0
 13 31  1  0  0  0  0
 13 32  1  0  0  0  0
 13 33  1  0  0  0  0
 14 34  1  0  0  0  0
 14 35  1  0  0  0  0
 14 36  1  0  0  0  0
 15 16  2  0  0  0  0
 15 17  1  0  0  0  0
M  END
> <s_m_source_file>
AV-unprocessed.smi

> <i_m_source_file_index>
1296

> <i_lp_mmshare_version>
43012

> <i_f3d_flags>
0

> <s_epik_input>
W0NIM11jMW5jKFtDSDNdKWMoYyg9TylbbkhdMSlbQ0gyXUMoPU8pW05IXVtDSDJdW0NIXShbQ0gzXSlbQ0gzXQ==

> <s_epik_cmdline>
J2VwaWtfcHl0aG9uJywgJy1waCcsICc3LjAnLCAnLXRuJywgJzgnLCAnLW1hJywgJzIwMCcsICctbWV0YWxfYmluZGluZycsICctaW1hZScsICc8aW5maWxlLm1hZT4nLCAnLW9tYWUnLCAnPG91dGZpbGUubWFlPic=

> <r_lp_tautomer_probability>
0.156392

> <r_epik_Ionization_Penalty>
0.0142343

> <r_epik_Ionization_Penalty_Charging>
0.0141145

> <r_epik_Ionization_Penalty_Neutral>
0.000119779

> <r_epik_State_Penalty>
1.52879

> <r_epik_Charging_Adjusted_Penalty>
1.5429

> <i_epik_Tot_Q>
0

> <i_epik_Tot_abs_Q>
0

> <r_epik_Metal_State_Penalty>
1.70685

> <b_epik_Metal_Only>
0

> <s_lp_Force_Field>
OPLS_2005

> <r_lp_Energy>
9.70595

> <b_lp_Chiralities_Consistent>
1

> <s_lp_Variant>
AV-unprocessed.smi:1296-2

> <Gold.Version>
5.8.1

> <Gold.Id.Protein>
6NUR|6NUR_protein|mol2

> <Gold.PLP.Fitness>
39.2340

> <Gold.PLP.PLP>
-36.7007

> <Gold.PLP.part.hbond>
-2.0000

> <Gold.PLP.part.metal>
0.0000

> <Gold.PLP.part.buried>
-3.5644

> <Gold.PLP.part.nonpolar>
-29.7374

> <Gold.PLP.part.repulsive>
0.0457

> <Gold.PLP.ligand.clash>
0.0000

> <Gold.PLP.ligand.torsion>
0.0603

> <Gold.PLP.Chemscore.Hbond>
0.8800

> <Gold.PLP.Chemscore.CHOScore>
0.0000

> <Gold.PLP.Chemscore.Metal>
0.0000

> <Gold.Chemscore.Hbonds>
donor molecule, donor type, donor heavy atom, donor atom, acceptor molecule, acceptor atom, score
      P1  H  7997  8008       L1    16  0.80

> <Gold.PLP.Chemscore.Internal.Correction>
0.0138

> <Gold.Rescore>
     Score         DG    S(hbond)    S(metal)    S(lipo)     H(rot)  DE(clash)    DE(int)     intcor
     12.17     -12.33       0.91        0.00      70.39       1.73       0.09       0.07       ----

> <Gold.Chemscore.Fitness>
12.1695

> <Gold.Chemscore.DG>
-12.3268

> <Gold.Chemscore.ZeroCoef>
-5.4800

> <Gold.Chemscore.Hbond>
0.9098

> <Gold.Chemscore.Metal>
0.0000

> <Gold.Chemscore.Lipo>
70.3909

> <Gold.Chemscore.Internal_Hbond>
0.0000

> <Gold.Chemscore.DEClash>
0.0885

> <Gold.Chemscore.DEInternal>
0.0689

> <Gold.Chemscore.Rot>
1.7296

> <Gold.Chemscore.Internal.Correction>
   9.000000E+99

> <Gold.Chemscore.Hbonds>
donor molecule, donor type, donor heavy atom, donor atom, acceptor molecule, acceptor atom, score
      P1  H  7997  8008       L1    16  0.75

> <Gold.Chemscore.Hbond.Weighted>
-3.0387

> <Gold.Chemscore.Metal.Weighted>
-0.0000

> <Gold.Chemscore.Lipo.Weighted>
-8.2357

> <Gold.Chemscore.Internal_Hbond.Weighted>
0.0000

> <Gold.Chemscore.DEClash.Weighted>
0.0885

> <Gold.Chemscore.DEInternal.Weighted>
0.0689

> <Gold.Chemscore.Rot.Weighted>
4.4277

> <Gold.Chemscore.Internal.Correction.Weighted>
   9.000000E+99

> <Gold.Protein.RotatedTorsions>
[ 6907 6896 6895 6894 ] final   61.68 input  -60.11 | X-H torsion
[ 7974 7965 7964 7962 ] final   80.15 input  175.53 | X-H torsion
[ 8008 7997 7996 7995 ] final  -88.40 input   59.86 | X-H torsion
[ 10167 10162 10161 10158 ] final  -48.65 input  -65.29 | X-H torsion
[ 10718 10713 10712 10709 ] final   63.89 input   66.30 | X-H torsion
[ 10763 10752 10751 10750 ] final -162.89 input  -60.55 | X-H torsion
[ 11005 11000 10999 10996 ] final -112.39 input  -57.11 | X-H torsion

> <Gold.Protein.ActiveResidues>
 VAL166  LYS551  ARG553  GLY616  TRP617  ASP618  TYR619  PRO620  LYS621  CYS622 
 ASP623  PHE694  ASN695  SER759  ASP760  ASP761  ALA762  ILE779  LEU786  VAL792 
 PHE793  MET794  SER795  GLU796  ALA797  LYS798  CYS799  TRP800  GLU811  SER814 

> <Gold.Protein.RotatedAtoms>
  152.4109  134.6126  160.0029 H   0  0  0  0  0  0  0  0  0  0  0  0  # atno 6907 bound_to 6896
  151.6304  133.3327  159.3115 H   0  0  0  0  0  0  0  0  0  0  0  0  # atno 6908 bound_to 6896
  150.8000  134.7127  159.6658 H   0  0  0  0  0  0  0  0  0  0  0  0  # atno 6909 bound_to 6896
  145.6549  139.2457  143.1956 H   0  0  0  0  0  0  0  0  0  0  0  0  # atno 7974 bound_to 7965
  154.6744  140.0554  157.0200 H   0  0  0  0  0  0  0  0  0  0  0  0  # atno 8008 bound_to 7997
  155.1042  140.3232  155.4520 H   0  0  0  0  0  0  0  0  0  0  0  0  # atno 8009 bound_to 7997
  156.2670  140.2026  156.6167 H   0  0  0  0  0  0  0  0  0  0  0  0  # atno 8010 bound_to 7997
  140.6721  143.2731  151.4101 H   0  0  0  0  0  0  0  0  0  0  0  0  # atno 10167 bound_to 10162
  157.6002  130.9130  149.9774 H   0  0  0  0  0  0  0  0  0  0  0  0  # atno 10718 bound_to 10713
  154.7173  135.3018  154.9104 H   0  0  0  0  0  0  0  0  0  0  0  0  # atno 10763 bound_to 10752
  153.9987  135.6709  153.4762 H   0  0  0  0  0  0  0  0  0  0  0  0  # atno 10764 bound_to 10752
  153.0804  135.5012  154.8407 H   0  0  0  0  0  0  0  0  0  0  0  0  # atno 10765 bound_to 10752
  141.0678  133.9430  157.2544 H   0  0  0  0  0  0  0  0  0  0  0  0  # atno 11005 bound_to 11000
  146.1173  140.7353  142.9474 LP  0  0  0  0  0  0  0  0  0  0  0  0  # atno 17320 bound_to 7965
  144.7109  140.4036  143.7081 LP  0  0  0  0  0  0  0  0  0  0  0  0  # atno 17321 bound_to 7965
  139.5995  144.1326  152.2182 LP  0  0  0  0  0  0  0  0  0  0  0  0  # atno 17342 bound_to 10162
  140.0706  144.5782  150.7195 LP  0  0  0  0  0  0  0  0  0  0  0  0  # atno 17343 bound_to 10162
  156.1074  130.3652  150.0110 LP  0  0  0  0  0  0  0  0  0  0  0  0  # atno 17370 bound_to 10713
  156.8214  130.9360  151.3641 LP  0  0  0  0  0  0  0  0  0  0  0  0  # atno 17371 bound_to 10713
  139.9493  135.0178  156.8947 LP  0  0  0  0  0  0  0  0  0  0  0  0  # atno 17394 bound_to 11000
  140.5737  134.0419  155.7439 LP  0  0  0  0  0  0  0  0  0  0  0  0  # atno 17395 bound_to 11000

$$$$
