AV-unprocessed.smi:2189|AV-procd|sdf|8884|dock4
  -GOLD-   2272012 83D 1   1.00000     0.00000
 Structure written by MMmdl.
 39 41  0  0  0  0  0  0  0  0  1 V2000
  151.4943  141.2744  157.7929 O   0  0  0  0  0  0  0  0  0  0  0  0
  150.7521  142.0499  157.1879 C   0  0  0  0  0  0  0  0  0  0  0  0
  150.8773  143.3854  157.3138 N   0  0  0  0  0  0  0  0  0  0  0  0
  151.8426  144.0823  158.1607 C   0  0  0  0  0  0  0  0  0  0  0  0
  151.4701  144.0104  159.6541 C   0  0  0  0  0  0  0  0  0  0  0  0
  152.4038  143.1371  160.4750 C   0  0  0  0  0  0  0  0  0  0  0  0
  153.2301  142.1767  159.8521 C   0  0  0  0  0  0  0  0  0  0  0  0
  154.0949  141.4122  160.6589 C   0  0  0  0  0  0  0  0  0  0  0  0
  154.0974  141.6329  162.0496 C   0  0  0  0  0  0  0  0  0  0  0  0
  153.2319  142.6136  162.5741 C   0  0  0  0  0  0  0  0  0  0  0  0
  152.3994  143.3526  161.8097 N   0  0  0  0  0  0  0  0  0  0  0  0
  149.6616  141.6433  156.2833 C   0  0  0  0  0  0  0  0  0  0  0  0
  149.9721  141.1558  155.0527 C   0  0  0  0  0  0  0  0  0  0  0  0
  148.9536  140.7233  154.1280 C   0  0  0  0  0  0  0  0  0  0  0  0
  147.6747  140.8503  154.4972 C   0  0  0  0  0  0  0  0  0  0  0  0
  147.2837  141.3799  155.7258 N   0  0  0  0  0  0  0  0  0  0  0  0
  145.8524  141.5631  155.9418 C   0  0  0  0  0  0  0  0  0  0  0  0
  145.4779  141.1780  157.3612 C   0  0  0  0  0  0  0  0  0  0  0  0
  146.3638  142.3518  158.4478 S   0  0  0  0  0  0  0  0  0  0  0  0
  145.9133  143.7120  158.1134 O   0  0  0  0  0  0  0  0  0  0  0  0
  146.2437  141.8714  159.8327 O   0  0  0  0  0  0  0  0  0  0  0  0
  147.9349  142.1427  157.9058 N   0  0  0  0  0  0  0  0  0  0  0  0
  148.2492  141.7550  156.7020 C   0  0  0  0  0  0  0  0  0  0  0  0
  150.2426  143.9650  156.7842 H   0  0  0  0  0  0  0  0  0  0  0  0
  152.8515  143.6978  158.0014 H   0  0  0  0  0  0  0  0  0  0  0  0
  151.8645  145.1255  157.8456 H   0  0  0  0  0  0  0  0  0  0  0  0
  151.4722  145.0159  160.0770 H   0  0  0  0  0  0  0  0  0  0  0  0
  150.4488  143.6429  159.7620 H   0  0  0  0  0  0  0  0  0  0  0  0
  153.2114  142.0363  158.7813 H   0  0  0  0  0  0  0  0  0  0  0  0
  154.7457  140.6714  160.2187 H   0  0  0  0  0  0  0  0  0  0  0  0
  154.7473  141.0658  162.6994 H   0  0  0  0  0  0  0  0  0  0  0  0
  153.2071  142.8093  163.6360 H   0  0  0  0  0  0  0  0  0  0  0  0
  150.9980  141.0833  154.7203 H   0  0  0  0  0  0  0  0  0  0  0  0
  149.2161  140.3063  153.1668 H   0  0  0  0  0  0  0  0  0  0  0  0
  146.8671  140.5430  153.8484 H   0  0  0  0  0  0  0  0  0  0  0  0
  145.5863  142.6003  155.7359 H   0  0  0  0  0  0  0  0  0  0  0  0
  145.2758  140.9500  155.2484 H   0  0  0  0  0  0  0  0  0  0  0  0
  144.4071  141.2760  157.5387 H   0  0  0  0  0  0  0  0  0  0  0  0
  145.7791  140.1586  157.6047 H   0  0  0  0  0  0  0  0  0  0  0  0
  1  2  2  0  0  0  0
  2  3  1  0  0  0  0
  2 12  1  0  0  0  0
  3  4  1  0  0  0  0
  3 24  1  0  0  0  0
  4  5  1  0  0  0  0
  4 25  1  0  0  0  0
  4 26  1  0  0  0  0
  5  6  1  0  0  0  0
  5 27  1  0  0  0  0
  5 28  1  0  0  0  0
  6 11  1  0  0  0  0
  6  7  2  0  0  0  0
  7  8  1  0  0  0  0
  7 29  1  0  0  0  0
  8  9  2  0  0  0  0
  8 30  1  0  0  0  0
  9 10  1  0  0  0  0
  9 31  1  0  0  0  0
 10 11  2  0  0  0  0
 10 32  1  0  0  0  0
 12 23  1  0  0  0  0
 12 13  2  0  0  0  0
 13 14  1  0  0  0  0
 13 33  1  0  0  0  0
 14 15  2  0  0  0  0
 14 34  1  0  0  0  0
 15 16  1  0  0  0  0
 15 35  1  0  0  0  0
 16 23  1  0  0  0  0
 16 17  1  0  0  0  0
 17 18  1  0  0  0  0
 17 36  1  0  0  0  0
 17 37  1  0  0  0  0
 18 19  1  0  0  0  0
 18 38  1  0  0  0  0
 18 39  1  0  0  0  0
 19 20  2  0  0  0  0
 19 21  2  0  0  0  0
 19 22  1  0  0  0  0
 22 23  2  0  0  0  0
M  END
> <s_m_source_file>
AV-unprocessed.smi

> <i_m_source_file_index>
2189

> <i_lp_mmshare_version>
43012

> <i_f3d_flags>
0

> <s_epik_input>
W0NIMl0xW0NIMl1TKD1PKSg9TylOPUMoTjEyKUMoPVtDSF1bQ0hdPVtDSF0yKUMoPU8pW05IXVtDSDJdW0NIMl1jM1tjSF1bY0hdW2NIXVtjSF1uMw==

> <s_epik_cmdline>
J2VwaWtfcHl0aG9uJywgJy1waCcsICc3LjAnLCAnLXRuJywgJzgnLCAnLW1hJywgJzIwMCcsICctbWV0YWxfYmluZGluZycsICctaW1hZScsICc8aW5maWxlLm1hZT4nLCAnLW9tYWUnLCAnPG91dGZpbGUubWFlPic=

> <r_epik_Ionization_Penalty>
0.0177355

> <r_epik_Ionization_Penalty_Charging>
8.06468e-09

> <r_epik_Ionization_Penalty_Neutral>
0.0177355

> <r_epik_State_Penalty>
0.0140338

> <r_epik_Charging_Adjusted_Penalty>
0.0140338

> <i_epik_Tot_Q>
0

> <i_epik_Tot_abs_Q>
0

> <r_epik_Metal_State_Penalty>
0.0535636

> <b_epik_Metal_Only>
0

> <s_lp_Force_Field>
OPLS_2005

> <r_lp_Energy>
27.3768

> <b_lp_Chiralities_Consistent>
1

> <s_lp_Variant>
AV-unprocessed.smi:2189-1

> <Gold.Version>
5.8.1

> <Gold.Id.Protein>
6NUR|6NUR_protein|mol2

> <Gold.PLP.Fitness>
46.7165

> <Gold.PLP.PLP>
-44.7306

> <Gold.PLP.part.hbond>
-2.0000

> <Gold.PLP.part.metal>
0.0000

> <Gold.PLP.part.buried>
-2.6673

> <Gold.PLP.part.nonpolar>
-39.6400

> <Gold.PLP.part.repulsive>
1.4700

> <Gold.PLP.ligand.clash>
0.0000

> <Gold.PLP.ligand.torsion>
2.0972

> <Gold.PLP.Chemscore.Hbond>
2.0000

> <Gold.PLP.Chemscore.CHOScore>
0.0000

> <Gold.PLP.Chemscore.Metal>
0.0000

> <Gold.Chemscore.Hbonds>
donor molecule, donor type, donor heavy atom, donor atom, acceptor molecule, acceptor atom, score
      L1  H     3    24       P1  8028  1.00
      P1  H  6934  6946       L1    21  0.91

> <Gold.PLP.Chemscore.Internal.Correction>
0.1803

> <Gold.Rescore>
     Score         DG    S(hbond)    S(metal)    S(lipo)     H(rot)  DE(clash)    DE(int)     intcor
     18.09     -21.24       1.99        0.00     109.94       1.47       0.19       2.96       ----

> <Gold.Chemscore.Fitness>
18.0860

> <Gold.Chemscore.DG>
-21.2440

> <Gold.Chemscore.ZeroCoef>
-5.4800

> <Gold.Chemscore.Hbond>
1.9936

> <Gold.Chemscore.Metal>
0.0000

> <Gold.Chemscore.Lipo>
109.9422

> <Gold.Chemscore.Internal_Hbond>
0.0000

> <Gold.Chemscore.DEClash>
0.1946

> <Gold.Chemscore.DEInternal>
2.9633

> <Gold.Chemscore.Rot>
1.4679

> <Gold.Chemscore.Internal.Correction>
   9.000000E+99

> <Gold.Chemscore.Hbonds>
donor molecule, donor type, donor heavy atom, donor atom, acceptor molecule, acceptor atom, score
      L1  H     3    24       P1  8028  0.99
      P1  H  6934  6946       L1    21  0.87

> <Gold.Chemscore.Hbond.Weighted>
-6.6585

> <Gold.Chemscore.Metal.Weighted>
-0.0000

> <Gold.Chemscore.Lipo.Weighted>
-12.8632

> <Gold.Chemscore.Internal_Hbond.Weighted>
0.0000

> <Gold.Chemscore.DEClash.Weighted>
0.1946

> <Gold.Chemscore.DEInternal.Weighted>
2.9633

> <Gold.Chemscore.Rot.Weighted>
3.7578

> <Gold.Chemscore.Internal.Correction.Weighted>
   9.000000E+99

> <Gold.Protein.RotatedTorsions>
[ 6907 6896 6895 6894 ] final   62.91 input  -60.11 | X-H torsion
[ 7974 7965 7964 7962 ] final -164.38 input  175.53 | X-H torsion
[ 8008 7997 7996 7995 ] final  -99.61 input   59.86 | X-H torsion
[ 10167 10162 10161 10158 ] final  165.45 input  -65.29 | X-H torsion
[ 10718 10713 10712 10709 ] final -170.82 input   66.30 | X-H torsion
[ 10763 10752 10751 10750 ] final  105.54 input  -60.55 | X-H torsion
[ 11005 11000 10999 10996 ] final -123.24 input  -57.11 | X-H torsion

> <Gold.Protein.ActiveResidues>
 VAL166  LYS551  ARG553  GLY616  TRP617  ASP618  TYR619  PRO620  LYS621  CYS622 
 ASP623  PHE694  ASN695  SER759  ASP760  ASP761  ALA762  ILE779  LEU786  VAL792 
 PHE793  MET794  SER795  GLU796  ALA797  LYS798  CYS799  TRP800  GLU811  SER814 

> <Gold.Protein.RotatedAtoms>
  152.4211  134.5954  159.9985 H   0  0  0  0  0  0  0  0  0  0  0  0  # atno 6907 bound_to 6896
  151.6104  133.3342  159.3074 H   0  0  0  0  0  0  0  0  0  0  0  0  # atno 6908 bound_to 6896
  150.8099  134.7285  159.6744 H   0  0  0  0  0  0  0  0  0  0  0  0  # atno 6909 bound_to 6896
  144.7298  140.2970  143.6211 H   0  0  0  0  0  0  0  0  0  0  0  0  # atno 7974 bound_to 7965
  154.8171  140.0446  157.1384 H   0  0  0  0  0  0  0  0  0  0  0  0  # atno 8008 bound_to 7997
  154.9301  140.3038  155.5152 H   0  0  0  0  0  0  0  0  0  0  0  0  # atno 8009 bound_to 7997
  156.2977  140.2324  156.4360 H   0  0  0  0  0  0  0  0  0  0  0  0  # atno 8010 bound_to 7997
  139.4906  144.4131  151.9276 H   0  0  0  0  0  0  0  0  0  0  0  0  # atno 10167 bound_to 10162
  156.7318  130.9309  151.3105 H   0  0  0  0  0  0  0  0  0  0  0  0  # atno 10718 bound_to 10713
  153.3808  135.3906  155.1855 H   0  0  0  0  0  0  0  0  0  0  0  0  # atno 10763 bound_to 10752
  154.8707  135.3725  154.4859 H   0  0  0  0  0  0  0  0  0  0  0  0  # atno 10764 bound_to 10752
  153.5336  135.7085  153.5732 H   0  0  0  0  0  0  0  0  0  0  0  0  # atno 10765 bound_to 10752
  140.9934  134.0507  157.3627 H   0  0  0  0  0  0  0  0  0  0  0  0  # atno 11005 bound_to 11000
  145.7799  139.1887  143.2164 LP  0  0  0  0  0  0  0  0  0  0  0  0  # atno 17320 bound_to 7965
  146.0843  140.7729  142.9626 LP  0  0  0  0  0  0  0  0  0  0  0  0  # atno 17321 bound_to 7965
  140.3573  144.3016  150.5939 LP  0  0  0  0  0  0  0  0  0  0  0  0  # atno 17342 bound_to 10162
  140.5433  143.2219  151.8048 LP  0  0  0  0  0  0  0  0  0  0  0  0  # atno 17343 bound_to 10162
  157.6855  130.9181  150.0376 LP  0  0  0  0  0  0  0  0  0  0  0  0  # atno 17370 bound_to 10713
  156.1523  130.3642  149.9419 LP  0  0  0  0  0  0  0  0  0  0  0  0  # atno 17371 bound_to 10713
  139.9003  135.0162  156.7235 LP  0  0  0  0  0  0  0  0  0  0  0  0  # atno 17394 bound_to 11000
  140.7005  133.9311  155.8021 LP  0  0  0  0  0  0  0  0  0  0  0  0  # atno 17395 bound_to 11000

$$$$
