AV-unprocessed.smi:1830|AV-procd|sdf|7449|dock5
  -GOLD-   22720 9143D 1   1.00000     0.00000
 Structure written by MMmdl.
 54 57  0  0  0  0  0  0  0  0  3 V2000
  149.6345  136.7310  156.0879 O   0  0  0  0  0  0  0  0  0  0  0  0
  148.9150  137.1333  155.1744 C   0  0  0  0  0  0  0  0  0  0  0  0
  148.0410  136.3545  154.5221 N   0  0  0  0  0  0  0  0  0  0  0  0
  147.8307  134.9310  154.7704 C   0  0  0  0  0  0  0  0  0  0  0  0
  147.0062  134.2366  153.6679 C   0  0  1  0  0  0  0  0  0  0  0  0
  145.9193  133.2908  154.2217 C   0  0  0  0  0  0  0  0  0  0  0  0
  145.0532  132.7554  153.1459 N   0  3  2  0  0  0  0  0  0  0  0  0
  145.5931  131.6166  152.3703 C   0  0  0  0  0  0  0  0  0  0  0  0
  144.9865  131.7279  150.9625 C   0  0  0  0  0  0  0  0  0  0  0  0
  144.0482  132.9385  151.0154 C   0  0  0  0  0  0  0  0  0  0  0  0
  144.5733  133.7706  152.1864 C   0  0  2  0  0  0  0  0  0  0  0  0
  145.7107  134.7259  151.7603 C   0  0  0  0  0  0  0  0  0  0  0  0
  146.3686  135.2530  152.9041 O   0  0  0  0  0  0  0  0  0  0  0  0
  148.8791  138.3953  154.7159 N   0  0  0  0  0  0  0  0  0  0  0  0
  149.5995  139.5240  155.2000 C   0  0  0  0  0  0  0  0  0  0  0  0
  150.9505  139.4274  155.6215 C   0  0  0  0  0  0  0  0  0  0  0  0
  151.6328  140.5802  156.0555 C   0  0  0  0  0  0  0  0  0  0  0  0
  150.9586  141.8141  156.0505 C   0  0  0  0  0  0  0  0  0  0  0  0
  149.6785  141.8752  155.6289 N   0  3  0  0  0  0  0  0  0  0  0  0
  148.9718  140.8003  155.2000 C   0  0  0  0  0  0  0  0  0  0  0  0
  147.6293  140.9811  154.8028 N   0  0  0  0  0  0  0  0  0  0  0  0
  146.7368  141.4144  155.8751 C   0  0  0  0  0  0  0  0  0  0  0  0
  145.7271  142.3724  155.2392 C   0  0  0  0  0  0  0  0  0  0  0  0
  146.4884  142.9370  154.0461 C   0  0  0  0  0  0  0  0  0  0  0  0
  147.3223  141.7408  153.5914 C   0  0  0  0  0  0  0  0  0  0  0  0
  147.4913  136.7701  153.7841 H   0  0  0  0  0  0  0  0  0  0  0  0
  148.8105  134.4593  154.8497 H   0  0  0  0  0  0  0  0  0  0  0  0
  147.3476  134.7993  155.7398 H   0  0  0  0  0  0  0  0  0  0  0  0
  147.6860  133.6829  153.0187 H   0  0  0  0  0  0  0  0  0  0  0  0
  146.3573  132.4636  154.7817 H   0  0  0  0  0  0  0  0  0  0  0  0
  145.2853  133.8401  154.9187 H   0  0  0  0  0  0  0  0  0  0  0  0
  146.6813  131.6601  152.3112 H   0  0  0  0  0  0  0  0  0  0  0  0
  145.3255  130.6781  152.8563 H   0  0  0  0  0  0  0  0  0  0  0  0
  145.7779  131.8976  150.2314 H   0  0  0  0  0  0  0  0  0  0  0  0
  144.4584  130.8205  150.6680 H   0  0  0  0  0  0  0  0  0  0  0  0
  144.0133  133.4909  150.0757 H   0  0  0  0  0  0  0  0  0  0  0  0
  143.0345  132.6007  151.2356 H   0  0  0  0  0  0  0  0  0  0  0  0
  143.7721  134.3508  152.6460 H   0  0  0  0  0  0  0  0  0  0  0  0
  146.4382  134.2231  151.1207 H   0  0  0  0  0  0  0  0  0  0  0  0
  145.3036  135.5516  151.1764 H   0  0  0  0  0  0  0  0  0  0  0  0
  148.1807  138.5941  154.0143 H   0  0  0  0  0  0  0  0  0  0  0  0
  151.4828  138.4884  155.6037 H   0  0  0  0  0  0  0  0  0  0  0  0
  152.6613  140.5186  156.3804 H   0  0  0  0  0  0  0  0  0  0  0  0
  151.4013  142.7484  156.3645 H   0  0  0  0  0  0  0  0  0  0  0  0
  146.2343  140.5654  156.3396 H   0  0  0  0  0  0  0  0  0  0  0  0
  147.3054  141.9317  156.6502 H   0  0  0  0  0  0  0  0  0  0  0  0
  144.8567  141.8154  154.8895 H   0  0  0  0  0  0  0  0  0  0  0  0
  145.3799  143.1424  155.9287 H   0  0  0  0  0  0  0  0  0  0  0  0
  145.8340  143.3210  153.2628 H   0  0  0  0  0  0  0  0  0  0  0  0
  147.1430  143.7470  154.3712 H   0  0  0  0  0  0  0  0  0  0  0  0
  148.1919  142.0524  153.0136 H   0  0  0  0  0  0  0  0  0  0  0  0
  146.7261  141.0999  152.9410 H   0  0  0  0  0  0  0  0  0  0  0  0
  144.2252  132.3912  153.5955 H   0  0  0  0  0  0  0  0  0  0  0  0
  149.2152  142.7842  155.6361 H   0  0  0  0  0  0  0  0  0  0  0  0
  1  2  2  0  0  0  0
  2  3  1  0  0  0  0
  2 14  1  0  0  0  0
  3  4  1  0  0  0  0
  3 26  1  0  0  0  0
  4  5  1  0  0  0  0
  4 27  1  0  0  0  0
  4 28  1  0  0  0  0
  5 13  1  0  0  0  0
  5  6  1  0  0  0  0
  5 29  1  0  0  0  0
  6  7  1  0  0  0  0
  6 30  1  0  0  0  0
  6 31  1  0  0  0  0
  7 11  1  0  0  0  0
  7  8  1  0  0  0  0
  7 53  1  0  0  0  0
  8  9  1  0  0  0  0
  8 32  1  0  0  0  0
  8 33  1  0  0  0  0
  9 10  1  0  0  0  0
  9 34  1  0  0  0  0
  9 35  1  0  0  0  0
 10 11  1  0  0  0  0
 10 36  1  0  0  0  0
 10 37  1  0  0  0  0
 11 12  1  0  0  0  0
 11 38  1  0  0  0  0
 12 13  1  0  0  0  0
 12 39  1  0  0  0  0
 12 40  1  0  0  0  0
 14 15  1  0  0  0  0
 14 41  1  0  0  0  0
 15 20  1  0  0  0  0
 15 16  2  0  0  0  0
 16 17  1  0  0  0  0
 16 42  1  0  0  0  0
 17 18  2  0  0  0  0
 17 43  1  0  0  0  0
 18 19  1  0  0  0  0
 18 44  1  0  0  0  0
 19 20  2  0  0  0  0
 19 54  1  0  0  0  0
 20 21  1  0  0  0  0
 21 25  1  0  0  0  0
 21 22  1  0  0  0  0
 22 23  1  0  0  0  0
 22 45  1  0  0  0  0
 22 46  1  0  0  0  0
 23 24  1  0  0  0  0
 23 47  1  0  0  0  0
 23 48  1  0  0  0  0
 24 25  1  0  0  0  0
 24 49  1  0  0  0  0
 24 50  1  0  0  0  0
 25 51  1  0  0  0  0
 25 52  1  0  0  0  0
M  CHG  1   7   1
M  CHG  1  19   1
M  END
> <s_m_source_file>
AV-unprocessed.smi

> <i_m_source_file_index>
1830

> <i_lp_mmshare_version>
43012

> <i_f3d_flags>
0

> <s_epik_input>
W0NIMl0xW0NIMl1bQ0gyXVtDQEhdKE4xMilbQ0gyXU9bQ0BASF0oW0NIMl0yKVtDSDJdW05IXUMoPU8pW05IXWMzW2NIXVtjSF1bY0hdbmMzTjRbQ0gyXVtDSDJdW0NIMl1bQ0gyXTQ=

> <s_epik_cmdline>
J2VwaWtfcHl0aG9uJywgJy1waCcsICc3LjAnLCAnLXRuJywgJzgnLCAnLW1hJywgJzIwMCcsICctbWV0YWxfYmluZGluZycsICctaW1hZScsICc8aW5maWxlLm1hZT4nLCAnLW9tYWUnLCAnPG91dGZpbGUubWFlPic=

> <r_lp_tautomer_probability>
0.999994

> <r_epik_Ionization_Penalty>
1.29113

> <r_epik_Ionization_Penalty_Charging>
1.29111

> <r_epik_Ionization_Penalty_Neutral>
1.88144e-05

> <r_epik_State_Penalty>
1.32676

> <r_epik_Charging_Adjusted_Penalty>
2.61787

> <i_epik_Tot_Q>
2

> <i_epik_Tot_abs_Q>
2

> <r_epik_Metal_State_Penalty>
1.40425

> <b_epik_Metal_Only>
0

> <s_lp_Force_Field>
OPLS_2005

> <r_lp_Energy>
74.6229

> <b_lp_Chiralities_Consistent>
1

> <s_lp_Variant>
AV-unprocessed.smi:1830-18

> <Gold.Version>
5.8.1

> <Gold.Id.Protein>
6NUR|6NUR_protein|mol2

> <Gold.PLP.Fitness>
45.3894

> <Gold.PLP.PLP>
-35.3575

> <Gold.PLP.part.hbond>
-3.0000

> <Gold.PLP.part.metal>
0.0000

> <Gold.PLP.part.buried>
-8.1055

> <Gold.PLP.part.nonpolar>
-25.7147

> <Gold.PLP.part.repulsive>
1.4747

> <Gold.PLP.ligand.clash>
0.0000

> <Gold.PLP.ligand.torsion>
1.0648

> <Gold.PLP.Chemscore.Hbond>
4.0000

> <Gold.PLP.Chemscore.CHOScore>
0.0000

> <Gold.PLP.Chemscore.Metal>
0.0000

> <Gold.Chemscore.Hbonds>
donor molecule, donor type, donor heavy atom, donor atom, acceptor molecule, acceptor atom, score
      L1  H     7    53       P1 10957  1.85
      L1  H    19    54       P1  8028  2.00

> <Gold.PLP.Chemscore.Internal.Correction>
0.1615

> <Gold.Rescore>
     Score         DG    S(hbond)    S(metal)    S(lipo)     H(rot)  DE(clash)    DE(int)     intcor
     15.44     -17.50       1.93        0.00      78.72       1.43       0.08       1.98       ----

> <Gold.Chemscore.Fitness>
15.4383

> <Gold.Chemscore.DG>
-17.4981

> <Gold.Chemscore.ZeroCoef>
-5.4800

> <Gold.Chemscore.Hbond>
1.9350

> <Gold.Chemscore.Metal>
0.0000

> <Gold.Chemscore.Lipo>
78.7205

> <Gold.Chemscore.Internal_Hbond>
0.0000

> <Gold.Chemscore.DEClash>
0.0770

> <Gold.Chemscore.DEInternal>
1.9828

> <Gold.Chemscore.Rot>
1.4278

> <Gold.Chemscore.Internal.Correction>
   9.000000E+99

> <Gold.Chemscore.Hbonds>
donor molecule, donor type, donor heavy atom, donor atom, acceptor molecule, acceptor atom, score
      L1  H     7    53       P1 10957  0.20
      L1  H    19    54       P1  8028  0.98

> <Gold.Chemscore.Hbond.Weighted>
-6.4629

> <Gold.Chemscore.Metal.Weighted>
-0.0000

> <Gold.Chemscore.Lipo.Weighted>
-9.2103

> <Gold.Chemscore.Internal_Hbond.Weighted>
0.0000

> <Gold.Chemscore.DEClash.Weighted>
0.0770

> <Gold.Chemscore.DEInternal.Weighted>
1.9828

> <Gold.Chemscore.Rot.Weighted>
3.6551

> <Gold.Chemscore.Internal.Correction.Weighted>
   9.000000E+99

> <Gold.Protein.RotatedTorsions>
[ 6907 6896 6895 6894 ] final  -54.12 input  -60.11 | X-H torsion
[ 7974 7965 7964 7962 ] final  -58.50 input  175.53 | X-H torsion
[ 8008 7997 7996 7995 ] final  -48.93 input   59.86 | X-H torsion
[ 10167 10162 10161 10158 ] final  -52.50 input  -65.29 | X-H torsion
[ 10718 10713 10712 10709 ] final  -17.77 input   66.30 | X-H torsion
[ 10763 10752 10751 10750 ] final   12.86 input  -60.55 | X-H torsion
[ 11005 11000 10999 10996 ] final  -28.32 input  -57.11 | X-H torsion

> <Gold.Protein.ActiveResidues>
 VAL166  LYS551  ARG553  GLY616  TRP617  ASP618  TYR619  PRO620  LYS621  CYS622 
 ASP623  PHE694  ASN695  SER759  ASP760  ASP761  ALA762  ILE779  LEU786  VAL792 
 PHE793  MET794  SER795  GLU796  ALA797  LYS798  CYS799  TRP800  GLU811  SER814 

> <Gold.Protein.RotatedAtoms>
  150.8366  134.7641  159.6897 H   0  0  0  0  0  0  0  0  0  0  0  0  # atno 6907 bound_to 6896
  152.4461  134.5488  159.9870 H   0  0  0  0  0  0  0  0  0  0  0  0  # atno 6908 bound_to 6896
  151.5637  133.3362  159.3012 H   0  0  0  0  0  0  0  0  0  0  0  0  # atno 6909 bound_to 6896
  145.8385  140.8433  143.0046 H   0  0  0  0  0  0  0  0  0  0  0  0  # atno 7974 bound_to 7965
  154.4036  140.1309  156.4420 H   0  0  0  0  0  0  0  0  0  0  0  0  # atno 8008 bound_to 7997
  155.7449  140.3489  155.5102 H   0  0  0  0  0  0  0  0  0  0  0  0  # atno 8009 bound_to 7997
  155.9004  140.1018  157.1344 H   0  0  0  0  0  0  0  0  0  0  0  0  # atno 8010 bound_to 7997
  140.6534  143.2582  151.4657 H   0  0  0  0  0  0  0  0  0  0  0  0  # atno 10167 bound_to 10162
  156.5689  130.4744  149.6372 H   0  0  0  0  0  0  0  0  0  0  0  0  # atno 10718 bound_to 10713
  153.1779  135.6823  153.8517 H   0  0  0  0  0  0  0  0  0  0  0  0  # atno 10763 bound_to 10752
  153.7859  135.3176  155.3373 H   0  0  0  0  0  0  0  0  0  0  0  0  # atno 10764 bound_to 10752
  154.8041  135.4759  154.0442 H   0  0  0  0  0  0  0  0  0  0  0  0  # atno 10765 bound_to 10752
  140.9198  133.7406  156.0785 H   0  0  0  0  0  0  0  0  0  0  0  0  # atno 11005 bound_to 11000
  144.6735  140.0777  143.7470 LP  0  0  0  0  0  0  0  0  0  0  0  0  # atno 17320 bound_to 7965
  145.9491  139.2721  143.1223 LP  0  0  0  0  0  0  0  0  0  0  0  0  # atno 17321 bound_to 7965
  139.5752  144.1835  152.1893 LP  0  0  0  0  0  0  0  0  0  0  0  0  # atno 17342 bound_to 10162
  140.1143  144.5429  150.6904 LP  0  0  0  0  0  0  0  0  0  0  0  0  # atno 17343 bound_to 10162
  156.2732  130.7029  151.1832 LP  0  0  0  0  0  0  0  0  0  0  0  0  # atno 17370 bound_to 10713
  157.7352  131.0574  150.5481 LP  0  0  0  0  0  0  0  0  0  0  0  0  # atno 17371 bound_to 10713
  140.8003  134.3517  157.5441 LP  0  0  0  0  0  0  0  0  0  0  0  0  # atno 17394 bound_to 11000
  139.8773  134.9193  156.3224 LP  0  0  0  0  0  0  0  0  0  0  0  0  # atno 17395 bound_to 11000

$$$$
