AV-unprocessed.smi:497|AV-procd|sdf|2725|dock5
  -GOLD-   2262023173D 1   1.00000     0.00000
 Structure written by MMmdl.
 40 42  0  0  0  0  0  0  0  0  2 V2000
  145.4146  143.3226  154.3529 C   0  0  0  0  0  0  0  0  0  0  0  0
  145.5007  142.3807  155.4074 O   0  0  0  0  0  0  0  0  0  0  0  0
  146.0208  141.1318  154.9803 C   0  0  0  0  0  0  0  0  0  0  0  0
  147.3526  141.3521  154.2496 C   0  0  0  0  0  0  0  0  0  0  0  0
  148.1067  140.1009  154.0785 N   0  0  0  0  0  0  0  0  0  0  0  0
  147.7566  138.9261  153.4771 C   0  0  0  0  0  0  0  0  0  0  0  0
  146.4585  138.5992  152.8063 C   0  0  0  0  0  0  0  0  0  0  0  0
  146.4027  137.2264  152.3193 N   0  0  0  0  0  0  0  0  0  0  0  0
  145.2814  136.5023  152.1775 C   0  0  0  0  0  0  0  0  0  0  0  0
  144.1591  136.9318  152.4432 O   0  0  0  0  0  0  0  0  0  0  0  0
  145.4646  135.1243  151.6837 C   0  0  0  0  0  0  0  0  0  0  0  0
  144.6389  134.3021  150.9621 C   0  0  0  0  0  0  0  0  0  0  0  0
  145.3409  133.0785  150.7796 C   0  0  0  0  0  0  0  0  0  0  0  0
  146.5443  133.2391  151.4042 C   0  0  0  0  0  0  0  0  0  0  0  0
  146.6338  134.4770  151.9620 O   0  0  0  0  0  0  0  0  0  0  0  0
  148.8195  138.0807  153.5973 N   0  3  0  0  0  0  0  0  0  0  0  0
  149.8534  138.7148  154.2863 C   0  0  0  0  0  0  0  0  0  0  0  0
  151.1178  138.2623  154.6508 C   0  0  0  0  0  0  0  0  0  0  0  0
  151.9338  139.1680  155.3603 C   0  0  0  0  0  0  0  0  0  0  0  0
  151.4842  140.4655  155.6807 C   0  0  0  0  0  0  0  0  0  0  0  0
  150.2005  140.9133  155.3043 C   0  0  0  0  0  0  0  0  0  0  0  0
  149.4011  140.0122  154.6017 C   0  0  0  0  0  0  0  0  0  0  0  0
  145.0154  144.2628  154.7336 H   0  0  0  0  0  0  0  0  0  0  0  0
  144.7504  142.9700  153.5627 H   0  0  0  0  0  0  0  0  0  0  0  0
  146.3964  143.5237  153.9222 H   0  0  0  0  0  0  0  0  0  0  0  0
  146.1751  140.4758  155.8383 H   0  0  0  0  0  0  0  0  0  0  0  0
  145.3072  140.6391  154.3178 H   0  0  0  0  0  0  0  0  0  0  0  0
  147.1718  141.7753  153.2621 H   0  0  0  0  0  0  0  0  0  0  0  0
  147.9757  142.0742  154.7778 H   0  0  0  0  0  0  0  0  0  0  0  0
  145.6507  138.7414  153.5243 H   0  0  0  0  0  0  0  0  0  0  0  0
  146.2655  139.2944  151.9889 H   0  0  0  0  0  0  0  0  0  0  0  0
  147.2813  136.7879  152.0843 H   0  0  0  0  0  0  0  0  0  0  0  0
  143.6489  134.5479  150.6068 H   0  0  0  0  0  0  0  0  0  0  0  0
  145.0077  132.1934  150.2579 H   0  0  0  0  0  0  0  0  0  0  0  0
  147.4088  132.6064  151.5429 H   0  0  0  0  0  0  0  0  0  0  0  0
  151.4638  137.2683  154.4077 H   0  0  0  0  0  0  0  0  0  0  0  0
  152.9238  138.8610  155.6658 H   0  0  0  0  0  0  0  0  0  0  0  0
  152.1368  141.1312  156.2267 H   0  0  0  0  0  0  0  0  0  0  0  0
  149.8651  141.9083  155.5562 H   0  0  0  0  0  0  0  0  0  0  0  0
  148.8322  137.1365  153.2344 H   0  0  0  0  0  0  0  0  0  0  0  0
  1  2  1  0  0  0  0
  1 23  1  0  0  0  0
  1 24  1  0  0  0  0
  1 25  1  0  0  0  0
  2  3  1  0  0  0  0
  3  4  1  0  0  0  0
  3 26  1  0  0  0  0
  3 27  1  0  0  0  0
  4  5  1  0  0  0  0
  4 28  1  0  0  0  0
  4 29  1  0  0  0  0
  5 22  1  0  0  0  0
  5  6  1  0  0  0  0
  6  7  1  0  0  0  0
  6 16  2  0  0  0  0
  7  8  1  0  0  0  0
  7 30  1  0  0  0  0
  7 31  1  0  0  0  0
  8  9  1  0  0  0  0
  8 32  1  0  0  0  0
  9 10  2  0  0  0  0
  9 11  1  0  0  0  0
 11 15  1  0  0  0  0
 11 12  2  0  0  0  0
 12 13  1  0  0  0  0
 12 33  1  0  0  0  0
 13 14  2  0  0  0  0
 13 34  1  0  0  0  0
 14 15  1  0  0  0  0
 14 35  1  0  0  0  0
 16 17  1  0  0  0  0
 16 40  1  0  0  0  0
 17 22  2  0  0  0  0
 17 18  1  0  0  0  0
 18 19  2  0  0  0  0
 18 36  1  0  0  0  0
 19 20  1  0  0  0  0
 19 37  1  0  0  0  0
 20 21  2  0  0  0  0
 20 38  1  0  0  0  0
 21 22  1  0  0  0  0
 21 39  1  0  0  0  0
M  CHG  1  16   1
M  END
> <s_m_source_file>
AV-unprocessed.smi

> <i_m_source_file_index>
497

> <i_lp_mmshare_version>
43012

> <i_f3d_flags>
0

> <s_epik_input>
W2NIXTFbY0hdW2NIXVtjSF1jKGMxMiluKFtDSDJdW0NIMl1PW0NIM10pYyhuMilbQ0gyXVtOSF1DKD1PKWMzW2NIXVtjSF1bY0hdbzM=

> <s_epik_cmdline>
J2VwaWtfcHl0aG9uJywgJy1waCcsICc3LjAnLCAnLXRuJywgJzgnLCAnLW1hJywgJzIwMCcsICctbWV0YWxfYmluZGluZycsICctaW1hZScsICc8aW5maWxlLm1hZT4nLCAnLW9tYWUnLCAnPG91dGZpbGUubWFlPic=

> <r_epik_Ionization_Penalty>
1.26486

> <r_epik_Ionization_Penalty_Charging>
1.26483

> <r_epik_Ionization_Penalty_Neutral>
2.77772e-05

> <r_epik_State_Penalty>
1.33577

> <r_epik_Charging_Adjusted_Penalty>
2.6006

> <i_epik_Tot_Q>
1

> <i_epik_Tot_abs_Q>
1

> <r_epik_Metal_State_Penalty>
1.44158

> <b_epik_Metal_Only>
0

> <s_lp_Force_Field>
OPLS_2005

> <r_lp_Energy>
9.51778

> <b_lp_Chiralities_Consistent>
1

> <s_lp_Variant>
AV-unprocessed.smi:497-2

> <Gold.Version>
5.8.1

> <Gold.Id.Protein>
6NUR|6NUR_protein|mol2

> <Gold.PLP.Fitness>
52.5323

> <Gold.PLP.PLP>
-41.7087

> <Gold.PLP.part.hbond>
-2.6268

> <Gold.PLP.part.metal>
0.0000

> <Gold.PLP.part.buried>
-4.6342

> <Gold.PLP.part.nonpolar>
-38.4239

> <Gold.PLP.part.repulsive>
3.8380

> <Gold.PLP.ligand.clash>
0.0000

> <Gold.PLP.ligand.torsion>
0.6084

> <Gold.PLP.Chemscore.Hbond>
3.0000

> <Gold.PLP.Chemscore.CHOScore>
0.9995

> <Gold.PLP.Chemscore.Metal>
0.0000

> <Gold.Chemscore.Hbonds>
donor molecule, donor type, donor heavy atom, donor atom, acceptor molecule, acceptor atom, score
      L1  H     8    32       P1  7948  1.00
      L1  H    16    40       P1  7948  1.76
      L1  C    14    35       P1 10747  0.66

> <Gold.PLP.Chemscore.Internal.Correction>
0.0420

> <Gold.Rescore>
     Score         DG    S(hbond)    S(metal)    S(lipo)     H(rot)  DE(clash)    DE(int)     intcor
     15.84     -16.70       1.92        0.00      83.98       1.96       0.10       0.77       ----

> <Gold.Chemscore.Fitness>
15.8360

> <Gold.Chemscore.DG>
-16.6993

> <Gold.Chemscore.ZeroCoef>
-5.4800

> <Gold.Chemscore.Hbond>
1.9175

> <Gold.Chemscore.Metal>
0.0000

> <Gold.Chemscore.Lipo>
83.9778

> <Gold.Chemscore.Internal_Hbond>
0.0000

> <Gold.Chemscore.DEClash>
0.0958

> <Gold.Chemscore.DEInternal>
0.7675

> <Gold.Chemscore.Rot>
1.9573

> <Gold.Chemscore.Internal.Correction>
   9.000000E+99

> <Gold.Chemscore.Hbonds>
donor molecule, donor type, donor heavy atom, donor atom, acceptor molecule, acceptor atom, score
      L1  H     8    32       P1  7948  1.00
      L1  H    16    40       P1  7948  0.86

> <Gold.Chemscore.Hbond.Weighted>
-6.4046

> <Gold.Chemscore.Metal.Weighted>
-0.0000

> <Gold.Chemscore.Lipo.Weighted>
-9.8254

> <Gold.Chemscore.Internal_Hbond.Weighted>
0.0000

> <Gold.Chemscore.DEClash.Weighted>
0.0958

> <Gold.Chemscore.DEInternal.Weighted>
0.7675

> <Gold.Chemscore.Rot.Weighted>
5.0107

> <Gold.Chemscore.Internal.Correction.Weighted>
   9.000000E+99

> <Gold.Protein.RotatedTorsions>
[ 6907 6896 6895 6894 ] final -157.48 input  -60.11 | X-H torsion
[ 7974 7965 7964 7962 ] final  -72.24 input  175.53 | X-H torsion
[ 8008 7997 7996 7995 ] final  174.99 input   59.86 | X-H torsion
[ 10167 10162 10161 10158 ] final   -3.72 input  -65.29 | X-H torsion
[ 10718 10713 10712 10709 ] final   -2.90 input   66.30 | X-H torsion
[ 10763 10752 10751 10750 ] final  -53.89 input  -60.55 | X-H torsion
[ 11005 11000 10999 10996 ] final   99.08 input  -57.11 | X-H torsion

> <Gold.Protein.ActiveResidues>
 VAL166  LYS551  ARG553  GLY616  TRP617  ASP618  TYR619  PRO620  LYS621  CYS622 
 ASP623  PHE694  ASN695  SER759  ASP760  ASP761  ALA762  ILE779  LEU786  VAL792 
 PHE793  MET794  SER795  GLU796  ALA797  LYS798  CYS799  TRP800  GLU811  SER814 

> <Gold.Protein.RotatedAtoms>
  151.3036  133.4111  159.2641 H   0  0  0  0  0  0  0  0  0  0  0  0  # atno 6907 bound_to 6896
  151.0174  134.9444  159.8051 H   0  0  0  0  0  0  0  0  0  0  0  0  # atno 6908 bound_to 6896
  152.5316  134.2999  159.9127 H   0  0  0  0  0  0  0  0  0  0  0  0  # atno 6909 bound_to 6896
  145.6676  140.9232  143.0900 H   0  0  0  0  0  0  0  0  0  0  0  0  # atno 7974 bound_to 7965
  156.0917  140.1420  156.9583 H   0  0  0  0  0  0  0  0  0  0  0  0  # atno 8008 bound_to 7997
  154.4646  140.0931  156.7032 H   0  0  0  0  0  0  0  0  0  0  0  0  # atno 8009 bound_to 7997
  155.4909  140.3448  155.4357 H   0  0  0  0  0  0  0  0  0  0  0  0  # atno 8010 bound_to 7997
  140.6901  143.6507  150.8352 H   0  0  0  0  0  0  0  0  0  0  0  0  # atno 10167 bound_to 10162
  156.7839  130.5340  149.5746 H   0  0  0  0  0  0  0  0  0  0  0  0  # atno 10718 bound_to 10713
  154.1660  135.6467  153.4997 H   0  0  0  0  0  0  0  0  0  0  0  0  # atno 10763 bound_to 10752
  153.0097  135.5372  154.6661 H   0  0  0  0  0  0  0  0  0  0  0  0  # atno 10764 bound_to 10752
  154.5988  135.2941  155.0529 H   0  0  0  0  0  0  0  0  0  0  0  0  # atno 10765 bound_to 10752
  139.8771  134.9079  156.4553 H   0  0  0  0  0  0  0  0  0  0  0  0  # atno 11005 bound_to 11000
  144.7067  139.8531  143.7427 LP  0  0  0  0  0  0  0  0  0  0  0  0  # atno 17320 bound_to 7965
  146.1072  139.4073  143.0310 LP  0  0  0  0  0  0  0  0  0  0  0  0  # atno 17321 bound_to 7965
  140.0219  143.5533  152.2797 LP  0  0  0  0  0  0  0  0  0  0  0  0  # atno 17342 bound_to 10162
  139.6295  144.7642  151.2567 LP  0  0  0  0  0  0  0  0  0  0  0  0  # atno 17343 bound_to 10162
  156.1200  130.6103  151.0180 LP  0  0  0  0  0  0  0  0  0  0  0  0  # atno 17370 bound_to 10713
  157.6633  131.0876  150.7788 LP  0  0  0  0  0  0  0  0  0  0  0  0  # atno 17371 bound_to 10713
  140.8903  133.7853  155.9564 LP  0  0  0  0  0  0  0  0  0  0  0  0  # atno 17394 bound_to 11000
  140.8761  134.2668  157.5167 LP  0  0  0  0  0  0  0  0  0  0  0  0  # atno 17395 bound_to 11000

$$$$
