AV-unprocessed.smi:2986|AV-procd|sdf|11382|dock6
  -GOLD-   2272016303D 1   1.00000     0.00000
 Structure written by MMmdl.
 43 45  0  0  0  0  0  0  0  0  2 V2000
  148.9837  141.1139  153.9271 C   0  0  0  0  0  0  0  0  0  0  0  0
  150.2111  140.5569  154.3637 O   0  0  0  0  0  0  0  0  0  0  0  0
  150.3629  140.6140  155.7710 C   0  0  0  0  0  0  0  0  0  0  0  0
  151.3688  141.7198  156.1100 C   0  0  0  0  0  0  0  0  0  0  0  0
  151.7695  141.6862  157.5224 N   0  0  0  0  0  0  0  0  0  0  0  0
  152.1465  140.6427  158.3113 C   0  0  0  0  0  0  0  0  0  0  0  0
  152.2685  138.9532  157.8243 S   0  0  0  0  0  0  0  0  0  0  0  0
  150.5486  138.3723  157.7822 C   0  0  0  0  0  0  0  0  0  0  0  0
  150.1920  137.4975  158.9839 C   0  0  0  0  0  0  0  0  0  0  0  0
  151.0932  137.0495  159.6911 O   0  0  0  0  0  0  0  0  0  0  0  0
  148.8797  137.2685  159.1709 N   0  0  0  0  0  0  0  0  0  0  0  0
  148.2560  136.4510  160.1468 C   0  0  0  0  0  0  0  0  0  0  0  0
  148.0818  135.0383  160.0783 C   0  0  0  0  0  0  0  0  0  0  0  0
  147.4408  134.7526  161.2506 C   0  0  0  0  0  0  0  0  0  0  0  0
  146.9487  133.4821  161.8542 C   0  0  0  0  0  0  0  0  0  0  0  0
  147.2396  135.8892  161.9702 O   0  0  0  0  0  0  0  0  0  0  0  0
  147.7667  136.9718  161.2565 N   0  0  0  0  0  0  0  0  0  0  0  0
  152.4498  141.1390  159.5417 N   0  3  0  0  0  0  0  0  0  0  0  0
  152.2507  142.5207  159.5460 C   0  0  0  0  0  0  0  0  0  0  0  0
  152.4193  143.4624  160.5565 C   0  0  0  0  0  0  0  0  0  0  0  0
  152.1242  144.8021  160.2285 C   0  0  0  0  0  0  0  0  0  0  0  0
  151.6816  145.1627  158.9390 C   0  0  0  0  0  0  0  0  0  0  0  0
  151.5166  144.2000  157.9213 C   0  0  0  0  0  0  0  0  0  0  0  0
  151.8107  142.8780  158.2535 C   0  0  0  0  0  0  0  0  0  0  0  0
  148.9204  141.0545  152.8407 H   0  0  0  0  0  0  0  0  0  0  0  0
  148.9029  142.1638  154.2117 H   0  0  0  0  0  0  0  0  0  0  0  0
  148.1342  140.5714  154.3444 H   0  0  0  0  0  0  0  0  0  0  0  0
  149.3998  140.8191  156.2411 H   0  0  0  0  0  0  0  0  0  0  0  0
  150.7189  139.6543  156.1493 H   0  0  0  0  0  0  0  0  0  0  0  0
  152.2673  141.6098  155.5024 H   0  0  0  0  0  0  0  0  0  0  0  0
  150.9627  142.7059  155.8825 H   0  0  0  0  0  0  0  0  0  0  0  0
  149.8877  139.2395  157.7516 H   0  0  0  0  0  0  0  0  0  0  0  0
  150.3828  137.8122  156.8616 H   0  0  0  0  0  0  0  0  0  0  0  0
  148.2538  137.6966  158.5038 H   0  0  0  0  0  0  0  0  0  0  0  0
  148.3736  134.3369  159.3114 H   0  0  0  0  0  0  0  0  0  0  0  0
  147.1872  132.6300  161.2176 H   0  0  0  0  0  0  0  0  0  0  0  0
  145.8675  133.5123  161.9893 H   0  0  0  0  0  0  0  0  0  0  0  0
  147.4077  133.3146  162.8287 H   0  0  0  0  0  0  0  0  0  0  0  0
  152.7583  143.1891  161.5451 H   0  0  0  0  0  0  0  0  0  0  0  0
  152.2392  145.5687  160.9812 H   0  0  0  0  0  0  0  0  0  0  0  0
  151.4641  146.1992  158.7254 H   0  0  0  0  0  0  0  0  0  0  0  0
  151.1764  144.4858  156.9369 H   0  0  0  0  0  0  0  0  0  0  0  0
  152.7692  140.5734  160.3174 H   0  0  0  0  0  0  0  0  0  0  0  0
  1  2  1  0  0  0  0
  1 25  1  0  0  0  0
  1 26  1  0  0  0  0
  1 27  1  0  0  0  0
  2  3  1  0  0  0  0
  3  4  1  0  0  0  0
  3 28  1  0  0  0  0
  3 29  1  0  0  0  0
  4  5  1  0  0  0  0
  4 30  1  0  0  0  0
  4 31  1  0  0  0  0
  5 24  1  0  0  0  0
  5  6  1  0  0  0  0
  6  7  1  0  0  0  0
  6 18  2  0  0  0  0
  7  8  1  0  0  0  0
  8  9  1  0  0  0  0
  8 32  1  0  0  0  0
  8 33  1  0  0  0  0
  9 10  2  0  0  0  0
  9 11  1  0  0  0  0
 11 12  1  0  0  0  0
 11 34  1  0  0  0  0
 12 17  2  0  0  0  0
 12 13  1  0  0  0  0
 13 14  2  0  0  0  0
 13 35  1  0  0  0  0
 14 15  1  0  0  0  0
 14 16  1  0  0  0  0
 15 36  1  0  0  0  0
 15 37  1  0  0  0  0
 15 38  1  0  0  0  0
 16 17  1  0  0  0  0
 18 19  1  0  0  0  0
 18 43  1  0  0  0  0
 19 24  2  0  0  0  0
 19 20  1  0  0  0  0
 20 21  2  0  0  0  0
 20 39  1  0  0  0  0
 21 22  1  0  0  0  0
 21 40  1  0  0  0  0
 22 23  2  0  0  0  0
 22 41  1  0  0  0  0
 23 24  1  0  0  0  0
 23 42  1  0  0  0  0
M  CHG  1  18   1
M  END
> <s_m_source_file>
AV-unprocessed.smi

> <i_m_source_file_index>
2986

> <i_lp_mmshare_version>
43012

> <i_f3d_flags>
0

> <s_epik_input>
W2NIXTFbY0hdW2NIXVtjSF1jKGMxMiluKFtDSDJdW0NIMl1PW0NIM10pYyhuMilTW0NIMl1DKD1PKVtOSF1jM1tjSF1jKFtDSDNdKW9uMw==

> <s_epik_cmdline>
J2VwaWtfcHl0aG9uJywgJy1waCcsICc3LjAnLCAnLXRuJywgJzgnLCAnLW1hJywgJzIwMCcsICctbWV0YWxfYmluZGluZycsICctaW1hZScsICc8aW5maWxlLm1hZT4nLCAnLW9tYWUnLCAnPG91dGZpbGUubWFlPic=

> <r_epik_Ionization_Penalty>
1.88527

> <r_epik_Ionization_Penalty_Charging>
1.88465

> <r_epik_Ionization_Penalty_Neutral>
0.000624705

> <r_epik_State_Penalty>
2.00469

> <r_epik_Charging_Adjusted_Penalty>
3.88934

> <i_epik_Tot_Q>
1

> <i_epik_Tot_abs_Q>
1

> <r_epik_Metal_State_Penalty>
2.24687

> <b_epik_Metal_Only>
0

> <s_lp_Force_Field>
OPLS_2005

> <r_lp_Energy>
12.3116

> <b_lp_Chiralities_Consistent>
1

> <s_lp_Variant>
AV-unprocessed.smi:2986-2

> <Gold.Version>
5.8.1

> <Gold.Id.Protein>
6NUR|6NUR_protein|mol2

> <Gold.PLP.Fitness>
58.8648

> <Gold.PLP.PLP>
-51.9437

> <Gold.PLP.part.hbond>
-4.0124

> <Gold.PLP.part.metal>
0.0000

> <Gold.PLP.part.buried>
-7.8199

> <Gold.PLP.part.nonpolar>
-39.5239

> <Gold.PLP.part.repulsive>
0.4792

> <Gold.PLP.ligand.clash>
0.0000

> <Gold.PLP.ligand.torsion>
1.9435

> <Gold.PLP.Chemscore.Hbond>
3.5680

> <Gold.PLP.Chemscore.CHOScore>
0.0000

> <Gold.PLP.Chemscore.Metal>
0.0000

> <Gold.Chemscore.Hbonds>
donor molecule, donor type, donor heavy atom, donor atom, acceptor molecule, acceptor atom, score
      P1  H  6896  6908       L1    10  1.00
      P1  H  6931  6943       L1    17  1.00
      P1  H  6934  6947       L1    17  0.59
      P1  H  7989  7998       L1     2  0.86

> <Gold.PLP.Chemscore.Internal.Correction>
0.1042

> <Gold.Rescore>
     Score         DG    S(hbond)    S(metal)    S(lipo)     H(rot)  DE(clash)    DE(int)     intcor
     19.05     -22.08       2.61        0.00     118.70       2.35       0.22       2.80       ----

> <Gold.Chemscore.Fitness>
19.0543

> <Gold.Chemscore.DG>
-22.0774

> <Gold.Chemscore.ZeroCoef>
-5.4800

> <Gold.Chemscore.Hbond>
2.6089

> <Gold.Chemscore.Metal>
0.0000

> <Gold.Chemscore.Lipo>
118.6978

> <Gold.Chemscore.Internal_Hbond>
0.0000

> <Gold.Chemscore.DEClash>
0.2193

> <Gold.Chemscore.DEInternal>
2.8039

> <Gold.Chemscore.Rot>
2.3453

> <Gold.Chemscore.Internal.Correction>
   9.000000E+99

> <Gold.Chemscore.Hbonds>
donor molecule, donor type, donor heavy atom, donor atom, acceptor molecule, acceptor atom, score
      P1  H  6896  6908       L1    10  0.97
      P1  H  6931  6943       L1    17  0.63
      P1  H  6934  6947       L1    17  0.45
      P1  H  7989  7998       L1     2  0.74

> <Gold.Chemscore.Hbond.Weighted>
-8.7139

> <Gold.Chemscore.Metal.Weighted>
-0.0000

> <Gold.Chemscore.Lipo.Weighted>
-13.8876

> <Gold.Chemscore.Internal_Hbond.Weighted>
0.0000

> <Gold.Chemscore.DEClash.Weighted>
0.2193

> <Gold.Chemscore.DEInternal.Weighted>
2.8039

> <Gold.Chemscore.Rot.Weighted>
6.0040

> <Gold.Chemscore.Internal.Correction.Weighted>
   9.000000E+99

> <Gold.Protein.RotatedTorsions>
[ 6907 6896 6895 6894 ] final -136.89 input  -60.11 | X-H torsion
[ 7974 7965 7964 7962 ] final   16.86 input  175.53 | X-H torsion
[ 8008 7997 7996 7995 ] final  -17.78 input   59.86 | X-H torsion
[ 10167 10162 10161 10158 ] final  -39.75 input  -65.29 | X-H torsion
[ 10718 10713 10712 10709 ] final  155.42 input   66.30 | X-H torsion
[ 10763 10752 10751 10750 ] final   -7.58 input  -60.55 | X-H torsion
[ 11005 11000 10999 10996 ] final  -77.90 input  -57.11 | X-H torsion

> <Gold.Protein.ActiveResidues>
 VAL166  LYS551  ARG553  GLY616  TRP617  ASP618  TYR619  PRO620  LYS621  CYS622 
 ASP623  PHE694  ASN695  SER759  ASP760  ASP761  ALA762  ILE779  LEU786  VAL792 
 PHE793  MET794  SER795  GLU796  ALA797  LYS798  CYS799  TRP800  GLU811  SER814 

> <Gold.Protein.RotatedAtoms>
  151.0157  133.5923  159.2677 H   0  0  0  0  0  0  0  0  0  0  0  0  # atno 6907 bound_to 6896
  151.3058  135.0780  159.9265 H   0  0  0  0  0  0  0  0  0  0  0  0  # atno 6908 bound_to 6896
  152.5311  133.9831  159.7870 H   0  0  0  0  0  0  0  0  0  0  0  0  # atno 6909 bound_to 6896
  146.2236  139.8687  142.8591 H   0  0  0  0  0  0  0  0  0  0  0  0  # atno 7974 bound_to 7965
  154.4953  140.2133  155.9459 H   0  0  0  0  0  0  0  0  0  0  0  0  # atno 8008 bound_to 7997
  156.1362  140.3188  155.8393 H   0  0  0  0  0  0  0  0  0  0  0  0  # atno 8009 bound_to 7997
  155.4205  140.0496  157.3016 H   0  0  0  0  0  0  0  0  0  0  0  0  # atno 8010 bound_to 7997
  140.7055  143.3195  151.2826 H   0  0  0  0  0  0  0  0  0  0  0  0  # atno 10167 bound_to 10162
  157.2185  131.0713  151.1926 H   0  0  0  0  0  0  0  0  0  0  0  0  # atno 10718 bound_to 10713
  153.4284  135.7011  153.6247 H   0  0  0  0  0  0  0  0  0  0  0  0  # atno 10763 bound_to 10752
  153.4672  135.3723  155.2371 H   0  0  0  0  0  0  0  0  0  0  0  0  # atno 10764 bound_to 10752
  154.8724  135.4034  154.3664 H   0  0  0  0  0  0  0  0  0  0  0  0  # atno 10765 bound_to 10752
  141.1662  133.7041  156.7890 H   0  0  0  0  0  0  0  0  0  0  0  0  # atno 11005 bound_to 11000
  145.2630  141.0083  143.3815 LP  0  0  0  0  0  0  0  0  0  0  0  0  # atno 17320 bound_to 7965
  144.9283  139.4329  143.6507 LP  0  0  0  0  0  0  0  0  0  0  0  0  # atno 17321 bound_to 7965
  139.6645  144.0130  152.2714 LP  0  0  0  0  0  0  0  0  0  0  0  0  # atno 17342 bound_to 10162
  139.9709  144.6494  150.7990 LP  0  0  0  0  0  0  0  0  0  0  0  0  # atno 17343 bound_to 10162
  157.3600  130.7126  149.6495 LP  0  0  0  0  0  0  0  0  0  0  0  0  # atno 17370 bound_to 10713
  155.9684  130.4228  150.4534 LP  0  0  0  0  0  0  0  0  0  0  0  0  # atno 17371 bound_to 10713
  140.2339  134.8665  157.3505 LP  0  0  0  0  0  0  0  0  0  0  0  0  # atno 17394 bound_to 11000
  140.1863  134.4427  155.7742 LP  0  0  0  0  0  0  0  0  0  0  0  0  # atno 17395 bound_to 11000

$$$$
