AV-unprocessed.smi:2661|AV-procd|sdf|10316|dock5
  -GOLD-   2272014333D 1   1.00000     0.00000
 Structure written by MMmdl.
 44 46  0  0  0  0  0  0  0  0  1 V2000
  144.7264  134.9341  150.5118 C   0  0  0  0  0  0  0  0  0  0  0  0
  144.9529  135.9905  151.4887 N   0  0  0  0  0  0  0  0  0  0  0  0
  144.2410  136.0115  152.7509 C   0  0  0  0  0  0  0  0  0  0  0  0
  144.9922  137.0524  153.5894 C   0  0  0  0  0  0  0  0  0  0  0  0
  145.7803  137.9185  152.5901 C   0  0  1  0  0  0  0  0  0  0  0  0
  147.1219  138.1880  153.1038 N   0  0  0  0  0  0  0  0  0  0  0  0
  147.4313  139.1463  153.9892 C   0  0  0  0  0  0  0  0  0  0  0  0
  146.5980  139.8989  154.4929 O   0  0  0  0  0  0  0  0  0  0  0  0
  148.7489  139.1535  154.2545 N   0  0  0  0  0  0  0  0  0  0  0  0
  149.4708  140.0067  155.1325 C   0  0  0  0  0  0  0  0  0  0  0  0
  150.8459  139.7612  155.3102 C   0  0  0  0  0  0  0  0  0  0  0  0
  151.5907  140.5961  156.1640 C   0  0  0  0  0  0  0  0  0  0  0  0
  150.9414  141.6690  156.8190 C   0  0  0  0  0  0  0  0  0  0  0  0
  151.6657  142.5159  157.6862 N   0  0  0  0  0  0  0  0  0  0  0  0
  151.5193  142.2365  159.1130 C   0  0  0  0  0  0  0  0  0  0  0  0
  152.5760  143.0081  159.9224 C   0  0  0  0  0  0  0  0  0  0  0  0
  152.4970  144.3971  159.6198 O   0  0  0  0  0  0  0  0  0  0  0  0
  152.7572  144.6537  158.2437 C   0  0  0  0  0  0  0  0  0  0  0  0
  151.7033  143.9443  157.3767 C   0  0  0  0  0  0  0  0  0  0  0  0
  149.6228  141.9193  156.6285 N   0  0  0  0  0  0  0  0  0  0  0  0
  148.9108  141.1148  155.8111 C   0  0  0  0  0  0  0  0  0  0  0  0
  145.8272  136.9951  151.3718 C   0  0  0  0  0  0  0  0  0  0  0  0
  146.5714  137.1874  150.4103 O   0  0  0  0  0  0  0  0  0  0  0  0
  145.5976  134.2811  150.4509 H   0  0  0  0  0  0  0  0  0  0  0  0
  144.5421  135.3553  149.5229 H   0  0  0  0  0  0  0  0  0  0  0  0
  143.8634  134.3260  150.7848 H   0  0  0  0  0  0  0  0  0  0  0  0
  143.2090  136.3186  152.5753 H   0  0  0  0  0  0  0  0  0  0  0  0
  144.2336  135.0312  153.2289 H   0  0  0  0  0  0  0  0  0  0  0  0
  144.3137  137.6487  154.2003 H   0  0  0  0  0  0  0  0  0  0  0  0
  145.6692  136.5360  154.2727 H   0  0  0  0  0  0  0  0  0  0  0  0
  145.2333  138.8297  152.3417 H   0  0  0  0  0  0  0  0  0  0  0  0
  147.8697  137.6140  152.7436 H   0  0  0  0  0  0  0  0  0  0  0  0
  149.2929  138.4242  153.8174 H   0  0  0  0  0  0  0  0  0  0  0  0
  151.3290  138.9403  154.8007 H   0  0  0  0  0  0  0  0  0  0  0  0
  152.6469  140.4132  156.2939 H   0  0  0  0  0  0  0  0  0  0  0  0
  150.5184  142.5343  159.4284 H   0  0  0  0  0  0  0  0  0  0  0  0
  151.6161  141.1737  159.3296 H   0  0  0  0  0  0  0  0  0  0  0  0
  152.4062  142.8681  160.9900 H   0  0  0  0  0  0  0  0  0  0  0  0
  153.5786  142.6341  159.7081 H   0  0  0  0  0  0  0  0  0  0  0  0
  152.7237  145.7293  158.0698 H   0  0  0  0  0  0  0  0  0  0  0  0
  153.7635  144.3203  157.9842 H   0  0  0  0  0  0  0  0  0  0  0  0
  151.9413  144.0970  156.3232 H   0  0  0  0  0  0  0  0  0  0  0  0
  150.7189  144.3792  157.5557 H   0  0  0  0  0  0  0  0  0  0  0  0
  147.8755  141.3944  155.6968 H   0  0  0  0  0  0  0  0  0  0  0  0
  1  2  1  0  0  0  0
  1 24  1  0  0  0  0
  1 25  1  0  0  0  0
  1 26  1  0  0  0  0
  2 22  1  0  0  0  0
  2  3  1  0  0  0  0
  3  4  1  0  0  0  0
  3 27  1  0  0  0  0
  3 28  1  0  0  0  0
  4  5  1  0  0  0  0
  4 29  1  0  0  0  0
  4 30  1  0  0  0  0
  5  6  1  0  0  0  0
  5 22  1  0  0  0  0
  5 31  1  0  0  0  0
  6  7  1  0  0  0  0
  6 32  1  0  0  0  0
  7  8  2  0  0  0  0
  7  9  1  0  0  0  0
  9 10  1  0  0  0  0
  9 33  1  0  0  0  0
 10 21  1  0  0  0  0
 10 11  2  0  0  0  0
 11 12  1  0  0  0  0
 11 34  1  0  0  0  0
 12 13  2  0  0  0  0
 12 35  1  0  0  0  0
 13 14  1  0  0  0  0
 13 20  1  0  0  0  0
 14 19  1  0  0  0  0
 14 15  1  0  0  0  0
 15 16  1  0  0  0  0
 15 36  1  0  0  0  0
 15 37  1  0  0  0  0
 16 17  1  0  0  0  0
 16 38  1  0  0  0  0
 16 39  1  0  0  0  0
 17 18  1  0  0  0  0
 18 19  1  0  0  0  0
 18 40  1  0  0  0  0
 18 41  1  0  0  0  0
 19 42  1  0  0  0  0
 19 43  1  0  0  0  0
 20 21  2  0  0  0  0
 21 44  1  0  0  0  0
 22 23  2  0  0  0  0
M  END
> <s_m_source_file>
AV-unprocessed.smi

> <i_m_source_file_index>
2661

> <i_lp_mmshare_version>
43012

> <i_f3d_flags>
0

> <s_epik_input>
W0NIM11OMVtDSDJdW0NIMl1bQ0BIXShDMT1PKVtOSF1DKD1PKVtOSF1jMltjSF1bY0hdYyhuW2NIXTIpTjNbQ0gyXVtDSDJdT1tDSDJdW0NIMl0z

> <s_epik_cmdline>
J2VwaWtfcHl0aG9uJywgJy1waCcsICc3LjAnLCAnLXRuJywgJzgnLCAnLW1hJywgJzIwMCcsICctbWV0YWxfYmluZGluZycsICctaW1hZScsICc8aW5maWxlLm1hZT4nLCAnLW9tYWUnLCAnPG91dGZpbGUubWFlPic=

> <r_lp_tautomer_probability>
1

> <r_epik_Ionization_Penalty>
0.00172037

> <r_epik_Ionization_Penalty_Charging>
0

> <r_epik_Ionization_Penalty_Neutral>
0.00172037

> <r_epik_State_Penalty>
0.00114015

> <r_epik_Charging_Adjusted_Penalty>
0.00114015

> <i_epik_Tot_Q>
0

> <i_epik_Tot_abs_Q>
0

> <r_epik_Metal_State_Penalty>
-0

> <b_epik_Metal_Only>
0

> <s_lp_Force_Field>
OPLS_2005

> <r_lp_Energy>
30.3032

> <b_lp_Chiralities_Consistent>
1

> <s_lp_Variant>
AV-unprocessed.smi:2661-1

> <Gold.Version>
5.8.1

> <Gold.Id.Protein>
6NUR|6NUR_protein|mol2

> <Gold.PLP.Fitness>
41.6050

> <Gold.PLP.PLP>
-36.6881

> <Gold.PLP.part.hbond>
-2.0608

> <Gold.PLP.part.metal>
0.0000

> <Gold.PLP.part.buried>
-1.0298

> <Gold.PLP.part.nonpolar>
-35.6633

> <Gold.PLP.part.repulsive>
2.7182

> <Gold.PLP.ligand.clash>
0.0000

> <Gold.PLP.ligand.torsion>
0.5260

> <Gold.PLP.Chemscore.Hbond>
1.8640

> <Gold.PLP.Chemscore.CHOScore>
0.0000

> <Gold.PLP.Chemscore.Metal>
0.0000

> <Gold.Chemscore.Hbonds>
donor molecule, donor type, donor heavy atom, donor atom, acceptor molecule, acceptor atom, score
      L1  H     6    32       P1  7948  1.00
      P1  H  7954  7966       L1    23  0.85

> <Gold.PLP.Chemscore.Internal.Correction>
0.3770

> <Gold.Rescore>
     Score         DG    S(hbond)    S(metal)    S(lipo)     H(rot)  DE(clash)    DE(int)     intcor
     15.01     -18.64       1.81        0.00      88.41       1.26       1.92       1.71       ----

> <Gold.Chemscore.Fitness>
15.0082

> <Gold.Chemscore.DG>
-18.6370

> <Gold.Chemscore.ZeroCoef>
-5.4800

> <Gold.Chemscore.Hbond>
1.8105

> <Gold.Chemscore.Metal>
0.0000

> <Gold.Chemscore.Lipo>
88.4148

> <Gold.Chemscore.Internal_Hbond>
0.0000

> <Gold.Chemscore.DEClash>
1.9214

> <Gold.Chemscore.DEInternal>
1.7073

> <Gold.Chemscore.Rot>
1.2636

> <Gold.Chemscore.Internal.Correction>
   9.000000E+99

> <Gold.Chemscore.Hbonds>
donor molecule, donor type, donor heavy atom, donor atom, acceptor molecule, acceptor atom, score
      L1  H     6    32       P1  7948  0.99
      P1  H  7954  7966       L1    23  0.85

> <Gold.Chemscore.Hbond.Weighted>
-6.0472

> <Gold.Chemscore.Metal.Weighted>
-0.0000

> <Gold.Chemscore.Lipo.Weighted>
-10.3445

> <Gold.Chemscore.Internal_Hbond.Weighted>
0.0000

> <Gold.Chemscore.DEClash.Weighted>
1.9214

> <Gold.Chemscore.DEInternal.Weighted>
1.7073

> <Gold.Chemscore.Rot.Weighted>
3.2348

> <Gold.Chemscore.Internal.Correction.Weighted>
   9.000000E+99

> <Gold.Protein.RotatedTorsions>
[ 6907 6896 6895 6894 ] final  -93.67 input  -60.11 | X-H torsion
[ 7974 7965 7964 7962 ] final -149.87 input  175.53 | X-H torsion
[ 8008 7997 7996 7995 ] final  142.00 input   59.86 | X-H torsion
[ 10167 10162 10161 10158 ] final -135.66 input  -65.29 | X-H torsion
[ 10718 10713 10712 10709 ] final   91.68 input   66.30 | X-H torsion
[ 10763 10752 10751 10750 ] final   49.70 input  -60.55 | X-H torsion
[ 11005 11000 10999 10996 ] final  -54.71 input  -57.11 | X-H torsion

> <Gold.Protein.ActiveResidues>
 VAL166  LYS551  ARG553  GLY616  TRP617  ASP618  TYR619  PRO620  LYS621  CYS622 
 ASP623  PHE694  ASN695  SER759  ASP760  ASP761  ALA762  ILE779  LEU786  VAL792 
 PHE793  MET794  SER795  GLU796  ALA797  LYS798  CYS799  TRP800  GLU811  SER814 

> <Gold.Protein.RotatedAtoms>
  150.6927  134.1930  159.4292 H   0  0  0  0  0  0  0  0  0  0  0  0  # atno 6907 bound_to 6896
  151.9900  134.9981  160.0570 H   0  0  0  0  0  0  0  0  0  0  0  0  # atno 6908 bound_to 6896
  152.1676  133.4587  159.4929 H   0  0  0  0  0  0  0  0  0  0  0  0  # atno 6909 bound_to 6896
  144.7942  140.5008  143.5752 H   0  0  0  0  0  0  0  0  0  0  0  0  # atno 7974 bound_to 7965
  156.2957  140.2300  156.4656 H   0  0  0  0  0  0  0  0  0  0  0  0  # atno 8008 bound_to 7997
  154.7980  140.0450  157.1272 H   0  0  0  0  0  0  0  0  0  0  0  0  # atno 8009 bound_to 7997
  154.9567  140.3049  155.5053 H   0  0  0  0  0  0  0  0  0  0  0  0  # atno 8010 bound_to 7997
  139.8756  143.6903  152.2634 H   0  0  0  0  0  0  0  0  0  0  0  0  # atno 10167 bound_to 10162
  157.6960  131.0416  150.3767 H   0  0  0  0  0  0  0  0  0  0  0  0  # atno 10718 bound_to 10713
  152.9786  135.5903  154.4132 H   0  0  0  0  0  0  0  0  0  0  0  0  # atno 10763 bound_to 10752
  154.3765  135.2767  155.2238 H   0  0  0  0  0  0  0  0  0  0  0  0  # atno 10764 bound_to 10752
  154.4170  135.6068  153.6042 H   0  0  0  0  0  0  0  0  0  0  0  0  # atno 10765 bound_to 10752
  141.1039  133.6615  156.4362 H   0  0  0  0  0  0  0  0  0  0  0  0  # atno 11005 bound_to 11000
  145.5717  139.1484  143.3285 LP  0  0  0  0  0  0  0  0  0  0  0  0  # atno 17320 bound_to 7965
  146.2204  140.5850  142.9020 LP  0  0  0  0  0  0  0  0  0  0  0  0  # atno 17321 bound_to 7965
  139.7243  144.7596  151.0904 LP  0  0  0  0  0  0  0  0  0  0  0  0  # atno 17342 bound_to 10162
  140.7753  143.5167  150.9585 LP  0  0  0  0  0  0  0  0  0  0  0  0  # atno 17343 bound_to 10162
  156.4185  130.3948  149.6841 LP  0  0  0  0  0  0  0  0  0  0  0  0  # atno 17370 bound_to 10713
  156.4100  130.7717  151.2730 LP  0  0  0  0  0  0  0  0  0  0  0  0  # atno 17371 bound_to 10713
  140.4952  134.6538  157.5227 LP  0  0  0  0  0  0  0  0  0  0  0  0  # atno 17394 bound_to 11000
  139.9901  134.6998  155.9704 LP  0  0  0  0  0  0  0  0  0  0  0  0  # atno 17395 bound_to 11000

$$$$
