AV-unprocessed.smi:861|AV-procd|sdf|3968|dock5
  -GOLD-   22720 1443D 1   1.00000     0.00000
 Structure written by MMmdl.
 44 45  0  0  0  0  0  0  0  0  2 V2000
  144.8857  136.2356  151.7734 C   0  0  0  0  0  0  0  0  0  0  0  0
  145.9932  136.4814  152.8118 C   0  0  0  0  0  0  0  0  0  0  0  0
  146.1030  135.2849  153.7693 C   0  0  0  0  0  0  0  0  0  0  0  0
  145.7817  137.7901  153.6000 C   0  0  0  0  0  0  0  0  0  0  0  0
  147.0202  138.2494  154.3951 C   0  0  0  0  0  0  0  0  0  0  0  0
  148.1297  138.7057  153.5155 N   0  3  1  0  0  0  0  0  0  0  0  0
  147.7252  139.7598  152.5538 C   0  0  0  0  0  0  0  0  0  0  0  0
  147.6389  141.1350  153.2400 C   0  0  0  0  0  0  0  0  0  0  0  0
  148.8860  141.4382  153.8532 O   0  0  0  0  0  0  0  0  0  0  0  0
  149.2405  140.5061  154.8696 C   0  0  2  0  0  0  0  0  0  0  0  0
  150.5476  141.0055  155.5112 C   0  0  0  0  0  0  0  0  0  0  0  0
  150.4088  142.3228  156.1233 N   0  0  0  0  0  0  0  0  0  0  0  0
  151.1857  142.7276  157.2186 C   0  0  0  0  0  0  0  0  0  0  0  0
  151.6156  144.0677  157.2859 C   0  0  0  0  0  0  0  0  0  0  0  0
  152.3843  144.4524  158.3979 C   0  0  0  0  0  0  0  0  0  0  0  0
  152.6647  143.4661  159.3608 C   0  0  0  0  0  0  0  0  0  0  0  0
  152.2272  142.1920  159.2457 N   0  0  0  0  0  0  0  0  0  0  0  0
  151.4988  141.8277  158.1845 N   0  0  0  0  0  0  0  0  0  0  0  0
  149.3708  139.1057  154.2266 C   0  0  0  0  0  0  0  0  0  0  0  0
  143.9021  136.2005  152.2426 H   0  0  0  0  0  0  0  0  0  0  0  0
  145.0395  135.2881  151.2559 H   0  0  0  0  0  0  0  0  0  0  0  0
  144.8658  137.0145  151.0117 H   0  0  0  0  0  0  0  0  0  0  0  0
  146.9417  136.5550  152.2780 H   0  0  0  0  0  0  0  0  0  0  0  0
  145.1850  135.1506  154.3426 H   0  0  0  0  0  0  0  0  0  0  0  0
  146.9208  135.4190  154.4779 H   0  0  0  0  0  0  0  0  0  0  0  0
  146.2918  134.3596  153.2240 H   0  0  0  0  0  0  0  0  0  0  0  0
  145.4616  138.5669  152.9060 H   0  0  0  0  0  0  0  0  0  0  0  0
  144.9562  137.6491  154.2993 H   0  0  0  0  0  0  0  0  0  0  0  0
  146.7199  139.0819  155.0325 H   0  0  0  0  0  0  0  0  0  0  0  0
  147.3675  137.4620  155.0629 H   0  0  0  0  0  0  0  0  0  0  0  0
  148.4699  139.8022  151.7582 H   0  0  0  0  0  0  0  0  0  0  0  0
  146.7796  139.5043  152.0739 H   0  0  0  0  0  0  0  0  0  0  0  0
  147.4153  141.9059  152.5025 H   0  0  0  0  0  0  0  0  0  0  0  0
  146.8363  141.1624  153.9784 H   0  0  0  0  0  0  0  0  0  0  0  0
  148.4593  140.5087  155.6313 H   0  0  0  0  0  0  0  0  0  0  0  0
  150.9421  140.2712  156.2141 H   0  0  0  0  0  0  0  0  0  0  0  0
  151.3047  141.1046  154.7330 H   0  0  0  0  0  0  0  0  0  0  0  0
  149.7123  142.9535  155.7532 H   0  0  0  0  0  0  0  0  0  0  0  0
  151.3654  144.7798  156.5131 H   0  0  0  0  0  0  0  0  0  0  0  0
  152.7448  145.4642  158.5090 H   0  0  0  0  0  0  0  0  0  0  0  0
  153.2489  143.7017  160.2379 H   0  0  0  0  0  0  0  0  0  0  0  0
  149.6456  138.3589  154.9683 H   0  0  0  0  0  0  0  0  0  0  0  0
  150.1846  139.1187  153.5002 H   0  0  0  0  0  0  0  0  0  0  0  0
  148.3687  137.8992  152.9559 H   0  0  0  0  0  0  0  0  0  0  0  0
  1  2  1  0  0  0  0
  1 20  1  0  0  0  0
  1 21  1  0  0  0  0
  1 22  1  0  0  0  0
  2  3  1  0  0  0  0
  2  4  1  0  0  0  0
  2 23  1  0  0  0  0
  3 24  1  0  0  0  0
  3 25  1  0  0  0  0
  3 26  1  0  0  0  0
  4  5  1  0  0  0  0
  4 27  1  0  0  0  0
  4 28  1  0  0  0  0
  5  6  1  0  0  0  0
  5 29  1  0  0  0  0
  5 30  1  0  0  0  0
  6 19  1  0  0  0  0
  6  7  1  0  0  0  0
  6 44  1  0  0  0  0
  7  8  1  0  0  0  0
  7 31  1  0  0  0  0
  7 32  1  0  0  0  0
  8  9  1  0  0  0  0
  8 33  1  0  0  0  0
  8 34  1  0  0  0  0
  9 10  1  0  0  0  0
 10 11  1  0  0  0  0
 10 19  1  0  0  0  0
 10 35  1  0  0  0  0
 11 12  1  0  0  0  0
 11 36  1  0  0  0  0
 11 37  1  0  0  0  0
 12 13  1  0  0  0  0
 12 38  1  0  0  0  0
 13 18  1  0  0  0  0
 13 14  2  0  0  0  0
 14 15  1  0  0  0  0
 14 39  1  0  0  0  0
 15 16  2  0  0  0  0
 15 40  1  0  0  0  0
 16 17  1  0  0  0  0
 16 41  1  0  0  0  0
 17 18  2  0  0  0  0
 19 42  1  0  0  0  0
 19 43  1  0  0  0  0
M  CHG  1   6   1
M  END
> <s_m_source_file>
AV-unprocessed.smi

> <i_m_source_file_index>
861

> <i_lp_mmshare_version>
43012

> <i_f3d_flags>
0

> <s_epik_input>
W0NIM11bQ0hdKFtDSDNdKVtDSDJdW0NIMl1OMVtDSDJdW0NIMl1PW0NASF0oW0NIMl0xKVtDSDJdW05IXWMyW2NIXVtjSF1bY0hdbm4y

> <s_epik_cmdline>
J2VwaWtfcHl0aG9uJywgJy1waCcsICc3LjAnLCAnLXRuJywgJzgnLCAnLW1hJywgJzIwMCcsICctbWV0YWxfYmluZGluZycsICctaW1hZScsICc8aW5maWxlLm1hZT4nLCAnLW9tYWUnLCAnPG91dGZpbGUubWFlPic=

> <r_lp_tautomer_probability>
0.999978

> <r_epik_Ionization_Penalty>
0.114704

> <r_epik_Ionization_Penalty_Charging>
0.0953451

> <r_epik_Ionization_Penalty_Neutral>
0.0193593

> <r_epik_State_Penalty>
0.104983

> <r_epik_Charging_Adjusted_Penalty>
0.200328

> <i_epik_Tot_Q>
1

> <i_epik_Tot_abs_Q>
1

> <r_epik_Metal_State_Penalty>
0.100113

> <b_epik_Metal_Only>
0

> <s_lp_Force_Field>
OPLS_2005

> <r_lp_Energy>
26.2812

> <b_lp_Chiralities_Consistent>
1

> <s_lp_Variant>
AV-unprocessed.smi:861-3

> <Gold.Version>
5.8.1

> <Gold.Id.Protein>
6NUR|6NUR_protein|mol2

> <Gold.PLP.Fitness>
42.2798

> <Gold.PLP.PLP>
-32.5287

> <Gold.PLP.part.hbond>
-3.8271

> <Gold.PLP.part.metal>
0.0000

> <Gold.PLP.part.buried>
3.3933

> <Gold.PLP.part.nonpolar>
-31.5818

> <Gold.PLP.part.repulsive>
0.3132

> <Gold.PLP.ligand.clash>
0.0000

> <Gold.PLP.ligand.torsion>
0.5665

> <Gold.PLP.Chemscore.Hbond>
3.5925

> <Gold.PLP.Chemscore.CHOScore>
0.0000

> <Gold.PLP.Chemscore.Metal>
0.0000

> <Gold.Chemscore.Hbonds>
donor molecule, donor type, donor heavy atom, donor atom, acceptor molecule, acceptor atom, score
      L1  H     6    44       P1  7948  1.85
      L1  H    12    38       P1  8028  1.00
      P1  H  8011  8017       L1     9  0.74

> <Gold.PLP.Chemscore.Internal.Correction>
0.1067

> <Gold.Rescore>
     Score         DG    S(hbond)    S(metal)    S(lipo)     H(rot)  DE(clash)    DE(int)     intcor
     16.53     -18.87       2.07        0.00      92.74       1.71       1.70       0.64       ----

> <Gold.Chemscore.Fitness>
16.5342

> <Gold.Chemscore.DG>
-18.8743

> <Gold.Chemscore.ZeroCoef>
-5.4800

> <Gold.Chemscore.Hbond>
2.0744

> <Gold.Chemscore.Metal>
0.0000

> <Gold.Chemscore.Lipo>
92.7362

> <Gold.Chemscore.Internal_Hbond>
0.0000

> <Gold.Chemscore.DEClash>
1.6957

> <Gold.Chemscore.DEInternal>
0.6445

> <Gold.Chemscore.Rot>
1.7127

> <Gold.Chemscore.Internal.Correction>
   9.000000E+99

> <Gold.Chemscore.Hbonds>
donor molecule, donor type, donor heavy atom, donor atom, acceptor molecule, acceptor atom, score
      L1  H     6    44       P1  7948  0.89
      L1  H    12    38       P1  8028  0.94
      P1  H  8011  8017       L1     9  0.18

> <Gold.Chemscore.Hbond.Weighted>
-6.9286

> <Gold.Chemscore.Metal.Weighted>
-0.0000

> <Gold.Chemscore.Lipo.Weighted>
-10.8501

> <Gold.Chemscore.Internal_Hbond.Weighted>
0.0000

> <Gold.Chemscore.DEClash.Weighted>
1.6957

> <Gold.Chemscore.DEInternal.Weighted>
0.6445

> <Gold.Chemscore.Rot.Weighted>
4.3844

> <Gold.Chemscore.Internal.Correction.Weighted>
   9.000000E+99

> <Gold.Protein.RotatedTorsions>
[ 6907 6896 6895 6894 ] final  117.81 input  -60.11 | X-H torsion
[ 7974 7965 7964 7962 ] final  148.50 input  175.53 | X-H torsion
[ 8008 7997 7996 7995 ] final  -32.37 input   59.86 | X-H torsion
[ 10167 10162 10161 10158 ] final  -71.06 input  -65.29 | X-H torsion
[ 10718 10713 10712 10709 ] final -165.08 input   66.30 | X-H torsion
[ 10763 10752 10751 10750 ] final  -80.63 input  -60.55 | X-H torsion
[ 11005 11000 10999 10996 ] final -127.67 input  -57.11 | X-H torsion

> <Gold.Protein.ActiveResidues>
 VAL166  LYS551  ARG553  GLY616  TRP617  ASP618  TYR619  PRO620  LYS621  CYS622 
 ASP623  PHE694  ASN695  SER759  ASP760  ASP761  ALA762  ILE779  LEU786  VAL792 
 PHE793  MET794  SER795  GLU796  ALA797  LYS798  CYS799  TRP800  GLU811  SER814 

> <Gold.Protein.RotatedAtoms>
  152.4586  133.7775  159.6832 H   0  0  0  0  0  0  0  0  0  0  0  0  # atno 6907 bound_to 6896
  150.8522  133.7760  159.3028 H   0  0  0  0  0  0  0  0  0  0  0  0  # atno 6908 bound_to 6896
  151.5352  135.1071  159.9964 H   0  0  0  0  0  0  0  0  0  0  0  0  # atno 6909 bound_to 6896
  144.8509  139.6161  143.5974 H   0  0  0  0  0  0  0  0  0  0  0  0  # atno 7974 bound_to 7965
  154.4182  140.1739  156.1716 H   0  0  0  0  0  0  0  0  0  0  0  0  # atno 8008 bound_to 7997
  155.9755  140.3382  155.6591 H   0  0  0  0  0  0  0  0  0  0  0  0  # atno 8009 bound_to 7997
  155.6569  140.0696  157.2558 H   0  0  0  0  0  0  0  0  0  0  0  0  # atno 8010 bound_to 7997
  140.5303  143.2322  151.7273 H   0  0  0  0  0  0  0  0  0  0  0  0  # atno 10167 bound_to 10162
  156.6482  130.8997  151.3008 H   0  0  0  0  0  0  0  0  0  0  0  0  # atno 10718 bound_to 10713
  154.5536  135.5654  153.6944 H   0  0  0  0  0  0  0  0  0  0  0  0  # atno 10763 bound_to 10752
  152.9997  135.6257  154.2340 H   0  0  0  0  0  0  0  0  0  0  0  0  # atno 10764 bound_to 10752
  154.2276  135.2867  155.2881 H   0  0  0  0  0  0  0  0  0  0  0  0  # atno 10765 bound_to 10752
  140.9580  134.0975  157.3997 H   0  0  0  0  0  0  0  0  0  0  0  0  # atno 11005 bound_to 11000
  146.2784  139.6813  142.9246 LP  0  0  0  0  0  0  0  0  0  0  0  0  # atno 17320 bound_to 7965
  145.4501  141.0428  143.2809 LP  0  0  0  0  0  0  0  0  0  0  0  0  # atno 17321 bound_to 7965
  139.4952  144.4124  152.0067 LP  0  0  0  0  0  0  0  0  0  0  0  0  # atno 17342 bound_to 10162
  140.3225  144.3411  150.6006 LP  0  0  0  0  0  0  0  0  0  0  0  0  # atno 17343 bound_to 10162
  157.7149  130.9485  150.1220 LP  0  0  0  0  0  0  0  0  0  0  0  0  # atno 17370 bound_to 10713
  156.2105  130.3666  149.8676 LP  0  0  0  0  0  0  0  0  0  0  0  0  # atno 17371 bound_to 10713
  139.8868  135.0085  156.6524 LP  0  0  0  0  0  0  0  0  0  0  0  0  # atno 17394 bound_to 11000
  140.7508  133.8899  155.8345 LP  0  0  0  0  0  0  0  0  0  0  0  0  # atno 17395 bound_to 11000

$$$$
