AV-unprocessed.smi:148|AV-procd|sdf|1230|dock7
  -GOLD-   2262018433D 1   1.00000     0.00000
 Structure written by MMmdl.
 63 67  0  0  0  0  0  0  0  0  1 V2000
  150.0786  139.7499  153.5825 O   0  0  0  0  0  0  0  0  0  0  0  0
  150.5496  138.6362  154.3111 C   0  0  0  0  0  0  0  0  0  0  0  0
  150.2212  138.7539  155.8223 C   0  0  2  0  0  0  0  0  0  0  0  0
  148.6905  138.7343  156.0713 C   0  0  0  0  0  0  0  0  0  0  0  0
  147.9944  137.6855  155.3455 N   0  0  0  0  0  0  0  0  0  0  0  0
  147.9586  136.3465  155.6631 C   0  0  0  0  0  0  0  0  0  0  0  0
  147.2531  135.6028  154.8558 N   0  0  0  0  0  0  0  0  0  0  0  0
  146.7812  136.4932  153.8984 C   0  0  0  0  0  0  0  0  0  0  0  0
  145.9636  136.3703  152.7383 C   0  0  0  0  0  0  0  0  0  0  0  0
  145.4107  135.2177  152.2938 N   0  0  0  0  0  0  0  0  0  0  0  0
  146.1835  134.7160  151.1566 C   0  0  0  0  0  0  0  0  0  0  0  0
  145.7527  133.2980  150.7594 C   0  0  0  0  0  0  0  0  0  0  0  0
  144.2455  133.2546  150.4900 C   0  0  0  0  0  0  0  0  0  0  0  0
  143.4857  133.7621  151.7217 C   0  0  0  0  0  0  0  0  0  0  0  0
  143.9453  135.1885  152.1290 C   0  0  1  0  0  0  0  0  0  0  0  0
  143.1676  135.7530  153.3608 C   0  0  1  0  0  0  0  0  0  0  0  0
  143.0127  137.2889  153.3409 C   0  0  0  0  0  0  0  0  0  0  0  0
  141.5120  137.5657  153.2403 C   0  0  0  0  0  0  0  0  0  0  0  0
  140.8742  136.3897  153.9716 C   0  0  0  0  0  0  0  0  0  0  0  0
  141.7377  135.1929  153.5651 C   0  0  2  0  0  0  0  0  0  0  0  0
  141.6919  134.1888  154.5578 O   0  0  0  0  0  0  0  0  0  0  0  0
  145.6851  137.4963  152.0359 N   0  0  0  0  0  0  0  0  0  0  0  0
  146.1935  138.6699  152.4238 C   0  0  0  0  0  0  0  0  0  0  0  0
  146.9771  138.9356  153.4712 N   0  0  0  0  0  0  0  0  0  0  0  0
  147.2424  137.8075  154.1905 C   0  0  0  0  0  0  0  0  0  0  0  0
  150.8559  140.0195  156.4635 C   0  0  1  0  0  0  0  0  0  0  0  0
  150.1453  141.3248  156.1441 C   0  0  0  0  0  0  0  0  0  0  0  0
  150.6825  142.2629  157.2192 C   0  0  0  0  0  0  0  0  0  0  0  0
  150.9237  141.4448  158.3573 O   0  0  0  0  0  0  0  0  0  0  0  0
  150.8294  140.0709  157.9957 C   0  0  0  0  0  0  0  0  0  0  0  0
  149.9875  139.5005  152.6754 H   0  0  0  0  0  0  0  0  0  0  0  0
  150.1297  137.7208  153.8933 H   0  0  0  0  0  0  0  0  0  0  0  0
  151.6234  138.5977  154.1336 H   0  0  0  0  0  0  0  0  0  0  0  0
  150.6360  137.8766  156.3215 H   0  0  0  0  0  0  0  0  0  0  0  0
  148.4720  138.5887  157.1291 H   0  0  0  0  0  0  0  0  0  0  0  0
  148.2544  139.6948  155.7940 H   0  0  0  0  0  0  0  0  0  0  0  0
  148.4661  135.9374  156.5247 H   0  0  0  0  0  0  0  0  0  0  0  0
  146.0537  135.3908  150.3088 H   0  0  0  0  0  0  0  0  0  0  0  0
  147.2479  134.7135  151.3981 H   0  0  0  0  0  0  0  0  0  0  0  0
  146.3024  132.9743  149.8753 H   0  0  0  0  0  0  0  0  0  0  0  0
  146.0052  132.5992  151.5581 H   0  0  0  0  0  0  0  0  0  0  0  0
  144.0037  133.8718  149.6239 H   0  0  0  0  0  0  0  0  0  0  0  0
  143.9351  132.2378  150.2482 H   0  0  0  0  0  0  0  0  0  0  0  0
  142.4183  133.7414  151.5065 H   0  0  0  0  0  0  0  0  0  0  0  0
  143.6445  133.0551  152.5346 H   0  0  0  0  0  0  0  0  0  0  0  0
  143.7121  135.8348  151.2826 H   0  0  0  0  0  0  0  0  0  0  0  0
  143.7470  135.5444  154.2609 H   0  0  0  0  0  0  0  0  0  0  0  0
  143.3852  137.6973  154.2816 H   0  0  0  0  0  0  0  0  0  0  0  0
  143.5789  137.7784  152.5488 H   0  0  0  0  0  0  0  0  0  0  0  0
  141.2333  138.5288  153.6687 H   0  0  0  0  0  0  0  0  0  0  0  0
  141.2025  137.5618  152.1944 H   0  0  0  0  0  0  0  0  0  0  0  0
  140.9386  136.5592  155.0479 H   0  0  0  0  0  0  0  0  0  0  0  0
  139.8223  136.2545  153.7176 H   0  0  0  0  0  0  0  0  0  0  0  0
  141.3411  134.7711  152.6437 H   0  0  0  0  0  0  0  0  0  0  0  0
  142.1603  133.4314  154.2396 H   0  0  0  0  0  0  0  0  0  0  0  0
  145.9331  139.5181  151.8079 H   0  0  0  0  0  0  0  0  0  0  0  0
  151.8927  140.1074  156.1344 H   0  0  0  0  0  0  0  0  0  0  0  0
  150.3486  141.6948  155.1390 H   0  0  0  0  0  0  0  0  0  0  0  0
  149.0661  141.2080  156.2542 H   0  0  0  0  0  0  0  0  0  0  0  0
  151.6290  142.7025  156.9025 H   0  0  0  0  0  0  0  0  0  0  0  0
  149.9914  143.0742  157.4488 H   0  0  0  0  0  0  0  0  0  0  0  0
  149.8846  139.6835  158.3797 H   0  0  0  0  0  0  0  0  0  0  0  0
  151.6389  139.4976  158.4476 H   0  0  0  0  0  0  0  0  0  0  0  0
  1  2  1  0  0  0  0
  1 31  1  0  0  0  0
  2  3  1  0  0  0  0
  2 32  1  0  0  0  0
  2 33  1  0  0  0  0
  3  4  1  0  0  0  0
  3 26  1  0  0  0  0
  3 34  1  0  0  0  0
  4  5  1  0  0  0  0
  4 35  1  0  0  0  0
  4 36  1  0  0  0  0
  5 25  1  0  0  0  0
  5  6  1  0  0  0  0
  6  7  2  0  0  0  0
  6 37  1  0  0  0  0
  7  8  1  0  0  0  0
  8 25  2  0  0  0  0
  8  9  1  0  0  0  0
  9 10  1  0  0  0  0
  9 22  2  0  0  0  0
 10 15  1  0  0  0  0
 10 11  1  0  0  0  0
 11 12  1  0  0  0  0
 11 38  1  0  0  0  0
 11 39  1  0  0  0  0
 12 13  1  0  0  0  0
 12 40  1  0  0  0  0
 12 41  1  0  0  0  0
 13 14  1  0  0  0  0
 13 42  1  0  0  0  0
 13 43  1  0  0  0  0
 14 15  1  0  0  0  0
 14 44  1  0  0  0  0
 14 45  1  0  0  0  0
 15 16  1  0  0  0  0
 15 46  1  0  0  0  0
 16 20  1  0  0  0  0
 16 17  1  0  0  0  0
 16 47  1  0  0  0  0
 17 18  1  0  0  0  0
 17 48  1  0  0  0  0
 17 49  1  0  0  0  0
 18 19  1  0  0  0  0
 18 50  1  0  0  0  0
 18 51  1  0  0  0  0
 19 20  1  0  0  0  0
 19 52  1  0  0  0  0
 19 53  1  0  0  0  0
 20 21  1  0  0  0  0
 20 54  1  0  0  0  0
 21 55  1  0  0  0  0
 22 23  1  0  0  0  0
 23 24  2  0  0  0  0
 23 56  1  0  0  0  0
 24 25  1  0  0  0  0
 26 30  1  0  0  0  0
 26 27  1  0  0  0  0
 26 57  1  0  0  0  0
 27 28  1  0  0  0  0
 27 58  1  0  0  0  0
 27 59  1  0  0  0  0
 28 29  1  0  0  0  0
 28 60  1  0  0  0  0
 28 61  1  0  0  0  0
 29 30  1  0  0  0  0
 30 62  1  0  0  0  0
 30 63  1  0  0  0  0
M  END
> <s_m_source_file>
AV-unprocessed.smi

> <i_m_source_file_index>
148

> <i_lp_mmshare_version>
43012

> <i_f3d_flags>
0

> <s_epik_input>
W0NIMl0xT1tDSDJdW0NIMl1bQ0BIXTFbQ0BIXShbQ0gyXVtPSF0pW0NIMl1uKFtjSF1uMiljKGMyMyluW2NIXW5jM040W0NIMl1bQ0gyXVtDSDJdW0NIMl1bQ0BIXTRbQ0BASF01W0NIMl1bQ0gyXVtDSDJdW0NASF01W09IXQ==

> <s_epik_cmdline>
J2VwaWtfcHl0aG9uJywgJy1waCcsICc3LjAnLCAnLXRuJywgJzgnLCAnLW1hJywgJzIwMCcsICctbWV0YWxfYmluZGluZycsICctaW1hZScsICc8aW5maWxlLm1hZT4nLCAnLW9tYWUnLCAnPG91dGZpbGUubWFlPic=

> <r_lp_tautomer_probability>
1

> <r_epik_Ionization_Penalty>
0.00556303

> <r_epik_Ionization_Penalty_Charging>
0

> <r_epik_Ionization_Penalty_Neutral>
0.00556303

> <r_epik_State_Penalty>
0.00401767

> <r_epik_Charging_Adjusted_Penalty>
0.00401767

> <i_epik_Tot_Q>
0

> <i_epik_Tot_abs_Q>
0

> <r_epik_Metal_State_Penalty>
-0

> <b_epik_Metal_Only>
0

> <s_lp_Force_Field>
OPLS_2005

> <r_lp_Energy>
68.4818

> <b_lp_Chiralities_Consistent>
1

> <s_lp_Variant>
AV-unprocessed.smi:148-29

> <Gold.Version>
5.8.1

> <Gold.Id.Protein>
6NUR|6NUR_protein|mol2

> <Gold.PLP.Fitness>
49.6823

> <Gold.PLP.PLP>
-39.9386

> <Gold.PLP.part.hbond>
-3.7739

> <Gold.PLP.part.metal>
0.0000

> <Gold.PLP.part.buried>
-3.6483

> <Gold.PLP.part.nonpolar>
-33.5325

> <Gold.PLP.part.repulsive>
1.1113

> <Gold.PLP.ligand.clash>
0.0000

> <Gold.PLP.ligand.torsion>
1.4148

> <Gold.PLP.Chemscore.Hbond>
3.4960

> <Gold.PLP.Chemscore.CHOScore>
0.5345

> <Gold.PLP.Chemscore.Metal>
0.0000

> <Gold.Chemscore.Hbonds>
donor molecule, donor type, donor heavy atom, donor atom, acceptor molecule, acceptor atom, score
      L1  H     1    31       P1  7957  0.91
      L1  H    21    55       P1 10957  0.78
      P1  H  7989  7998       L1     1  0.78
      P1  H 11000 11005       L1    21  1.00
      L1  C    23    56       P1 10175  0.64

> <Gold.PLP.Chemscore.Internal.Correction>
0.4817

> <Gold.Rescore>
     Score         DG    S(hbond)    S(metal)    S(lipo)     H(rot)  DE(clash)    DE(int)     intcor
     12.95     -16.01       2.64        0.00      87.28       3.32       0.76       2.29       ----

> <Gold.Chemscore.Fitness>
12.9539

> <Gold.Chemscore.DG>
-16.0060

> <Gold.Chemscore.ZeroCoef>
-5.4800

> <Gold.Chemscore.Hbond>
2.6391

> <Gold.Chemscore.Metal>
0.0000

> <Gold.Chemscore.Lipo>
87.2771

> <Gold.Chemscore.Internal_Hbond>
0.0000

> <Gold.Chemscore.DEClash>
0.7642

> <Gold.Chemscore.DEInternal>
2.2879

> <Gold.Chemscore.Rot>
3.3203

> <Gold.Chemscore.Internal.Correction>
   9.000000E+99

> <Gold.Chemscore.Hbonds>
donor molecule, donor type, donor heavy atom, donor atom, acceptor molecule, acceptor atom, score
      L1  H     1    31       P1  7957  0.86
      L1  H    21    55       P1 10957  0.80
      P1  H  7989  7998       L1     1  0.08
      P1  H 11000 11005       L1    21  0.92

> <Gold.Chemscore.Hbond.Weighted>
-8.8146

> <Gold.Chemscore.Metal.Weighted>
-0.0000

> <Gold.Chemscore.Lipo.Weighted>
-10.2114

> <Gold.Chemscore.Internal_Hbond.Weighted>
0.0000

> <Gold.Chemscore.DEClash.Weighted>
0.7642

> <Gold.Chemscore.DEInternal.Weighted>
2.2879

> <Gold.Chemscore.Rot.Weighted>
8.5000

> <Gold.Chemscore.Internal.Correction.Weighted>
   9.000000E+99

> <Gold.Protein.RotatedTorsions>
[ 6907 6896 6895 6894 ] final  107.78 input  -60.11 | X-H torsion
[ 7974 7965 7964 7962 ] final  -91.79 input  175.53 | X-H torsion
[ 8008 7997 7996 7995 ] final  -68.59 input   59.86 | X-H torsion
[ 10167 10162 10161 10158 ] final -100.46 input  -65.29 | X-H torsion
[ 10718 10713 10712 10709 ] final -102.39 input   66.30 | X-H torsion
[ 10763 10752 10751 10750 ] final   91.28 input  -60.55 | X-H torsion
[ 11005 11000 10999 10996 ] final    6.68 input  -57.11 | X-H torsion

> <Gold.Protein.ActiveResidues>
 VAL166  LYS551  ARG553  GLY616  TRP617  ASP618  TYR619  PRO620  LYS621  CYS622 
 ASP623  PHE694  ASN695  SER759  ASP760  ASP761  ALA762  ILE779  LEU786  VAL792 
 PHE793  MET794  SER795  GLU796  ALA797  LYS798  CYS799  TRP800  GLU811  SER814 

> <Gold.Protein.RotatedAtoms>
  152.5140  133.9184  159.7522 H   0  0  0  0  0  0  0  0  0  0  0  0  # atno 6907 bound_to 6896
  150.9562  133.6487  159.2769 H   0  0  0  0  0  0  0  0  0  0  0  0  # atno 6908 bound_to 6896
  151.3748  135.0934  159.9530 H   0  0  0  0  0  0  0  0  0  0  0  0  # atno 6909 bound_to 6896
  145.4085  140.9543  143.2247 H   0  0  0  0  0  0  0  0  0  0  0  0  # atno 7974 bound_to 7965
  154.4879  140.0870  156.7527 H   0  0  0  0  0  0  0  0  0  0  0  0  # atno 8008 bound_to 7997
  155.4305  140.3449  155.4261 H   0  0  0  0  0  0  0  0  0  0  0  0  # atno 8009 bound_to 7997
  156.1287  140.1495  156.9085 H   0  0  0  0  0  0  0  0  0  0  0  0  # atno 8010 bound_to 7997
  140.2516  143.3468  152.0709 H   0  0  0  0  0  0  0  0  0  0  0  0  # atno 10167 bound_to 10162
  156.0227  130.5418  150.7102 H   0  0  0  0  0  0  0  0  0  0  0  0  # atno 10718 bound_to 10713
  153.2065  135.4403  155.0329 H   0  0  0  0  0  0  0  0  0  0  0  0  # atno 10763 bound_to 10752
  154.8176  135.3322  154.7133 H   0  0  0  0  0  0  0  0  0  0  0  0  # atno 10764 bound_to 10752
  153.7574  135.6994  153.4988 H   0  0  0  0  0  0  0  0  0  0  0  0  # atno 10765 bound_to 10752
  140.5567  134.0231  155.7956 H   0  0  0  0  0  0  0  0  0  0  0  0  # atno 11005 bound_to 11000
  144.8325  139.5605  143.6937 LP  0  0  0  0  0  0  0  0  0  0  0  0  # atno 17320 bound_to 7965
  146.2717  139.6651  142.9292 LP  0  0  0  0  0  0  0  0  0  0  0  0  # atno 17321 bound_to 7965
  139.5044  144.6775  151.6091 LP  0  0  0  0  0  0  0  0  0  0  0  0  # atno 17342 bound_to 10162
  140.6036  143.9565  150.6403 LP  0  0  0  0  0  0  0  0  0  0  0  0  # atno 17343 bound_to 10162
  157.4742  131.0896  151.0609 LP  0  0  0  0  0  0  0  0  0  0  0  0  # atno 17370 bound_to 10713
  157.1060  130.6002  149.5471 LP  0  0  0  0  0  0  0  0  0  0  0  0  # atno 17371 bound_to 10713
  141.1139  133.9572  157.2859 LP  0  0  0  0  0  0  0  0  0  0  0  0  # atno 17394 bound_to 11000
  139.9428  135.0188  156.8760 LP  0  0  0  0  0  0  0  0  0  0  0  0  # atno 17395 bound_to 11000

$$$$
