AV-unprocessed.smi:1976|AV-procd|sdf|7983|dock1
  -GOLD-   2272010163D 1   1.00000     0.00000
 Structure written by MMmdl.
 45 47  0  0  0  0  0  0  0  0  2 V2000
  148.7934  141.3569  156.7333 O   0  0  0  0  0  0  0  0  0  0  0  0
  149.4730  141.5347  155.7215 C   0  0  0  0  0  0  0  0  0  0  0  0
  151.0028  141.6415  155.8033 C   0  0  0  0  0  0  0  0  0  0  0  0
  151.5065  141.8157  157.1761 N   0  0  0  0  0  0  0  0  0  0  0  0
  151.1414  142.9990  157.8475 C   0  0  0  0  0  0  0  0  0  0  0  0
  151.5248  143.2745  159.1089 C   0  0  0  0  0  0  0  0  0  0  0  0
  151.1653  144.5888  159.7846 C   0  0  0  0  0  0  0  0  0  0  0  0
  149.8433  144.7339  159.8794 F   0  0  0  0  0  0  0  0  0  0  0  0
  151.6835  144.6575  161.0116 F   0  0  0  0  0  0  0  0  0  0  0  0
  151.6450  145.6091  159.0746 F   0  0  0  0  0  0  0  0  0  0  0  0
  152.3762  142.2934  159.7529 C   0  0  0  0  0  0  0  0  0  0  0  0
  152.7464  141.1630  159.1199 C   0  0  0  0  0  0  0  0  0  0  0  0
  152.3062  140.8698  157.7540 C   0  0  0  0  0  0  0  0  0  0  0  0
  152.6361  139.8401  157.1647 O   0  0  0  0  0  0  0  0  0  0  0  0
  148.9429  141.6293  154.4934 N   0  0  0  0  0  0  0  0  0  0  0  0
  147.5161  141.5573  154.1987 C   0  0  2  0  0  0  0  0  0  0  0  0
  146.6425  142.4544  155.0976 C   0  0  0  0  0  0  0  0  0  0  0  0
  145.3624  141.6391  155.3673 C   0  0  0  0  0  0  0  0  0  0  0  0
  145.5061  140.4103  154.5632 N   0  3  2  0  0  0  0  0  0  0  0  0
  144.7470  139.2206  155.0066 C   0  0  0  0  0  0  0  0  0  0  0  0
  144.9684  138.0714  154.0025 C   0  0  0  0  0  0  0  0  0  0  0  0
  146.4681  137.7959  153.7673 C   0  0  0  0  0  0  0  0  0  0  0  0
  147.2201  139.0889  153.3955 C   0  0  0  0  0  0  0  0  0  0  0  0
  146.9522  140.1621  154.4634 C   0  0  1  0  0  0  0  0  0  0  0  0
  151.4310  140.7463  155.3506 H   0  0  0  0  0  0  0  0  0  0  0  0
  151.3398  142.4671  155.1734 H   0  0  0  0  0  0  0  0  0  0  0  0
  150.5348  143.6773  157.2651 H   0  0  0  0  0  0  0  0  0  0  0  0
  152.7210  142.4660  160.7617 H   0  0  0  0  0  0  0  0  0  0  0  0
  153.3812  140.4541  159.6310 H   0  0  0  0  0  0  0  0  0  0  0  0
  149.5693  141.7692  153.7135 H   0  0  0  0  0  0  0  0  0  0  0  0
  147.3426  141.8187  153.1526 H   0  0  0  0  0  0  0  0  0  0  0  0
  147.1420  142.6782  156.0415 H   0  0  0  0  0  0  0  0  0  0  0  0
  146.4244  143.4049  154.6091 H   0  0  0  0  0  0  0  0  0  0  0  0
  145.2957  141.3881  156.4272 H   0  0  0  0  0  0  0  0  0  0  0  0
  144.4576  142.1802  155.0896 H   0  0  0  0  0  0  0  0  0  0  0  0
  145.0704  138.9238  156.0055 H   0  0  0  0  0  0  0  0  0  0  0  0
  143.6862  139.4661  155.0697 H   0  0  0  0  0  0  0  0  0  0  0  0
  144.4727  137.1664  154.3552 H   0  0  0  0  0  0  0  0  0  0  0  0
  144.4982  138.3282  153.0523 H   0  0  0  0  0  0  0  0  0  0  0  0
  146.9039  137.3712  154.6725 H   0  0  0  0  0  0  0  0  0  0  0  0
  146.5947  137.0480  152.9837 H   0  0  0  0  0  0  0  0  0  0  0  0
  148.2896  138.8916  153.3160 H   0  0  0  0  0  0  0  0  0  0  0  0
  146.8914  139.4404  152.4164 H   0  0  0  0  0  0  0  0  0  0  0  0
  147.3109  139.8078  155.4329 H   0  0  0  0  0  0  0  0  0  0  0  0
  145.1911  140.6383  153.6310 H   0  0  0  0  0  0  0  0  0  0  0  0
  1  2  2  0  0  0  0
  2  3  1  0  0  0  0
  2 15  1  0  0  0  0
  3  4  1  0  0  0  0
  3 25  1  0  0  0  0
  3 26  1  0  0  0  0
  4 13  1  0  0  0  0
  4  5  1  0  0  0  0
  5  6  2  0  0  0  0
  5 27  1  0  0  0  0
  6  7  1  0  0  0  0
  6 11  1  0  0  0  0
  7  8  1  0  0  0  0
  7  9  1  0  0  0  0
  7 10  1  0  0  0  0
 11 12  2  0  0  0  0
 11 28  1  0  0  0  0
 12 13  1  0  0  0  0
 12 29  1  0  0  0  0
 13 14  2  0  0  0  0
 15 16  1  0  0  0  0
 15 30  1  0  0  0  0
 16 24  1  0  0  0  0
 16 17  1  0  0  0  0
 16 31  1  0  0  0  0
 17 18  1  0  0  0  0
 17 32  1  0  0  0  0
 17 33  1  0  0  0  0
 18 19  1  0  0  0  0
 18 34  1  0  0  0  0
 18 35  1  0  0  0  0
 19 24  1  0  0  0  0
 19 20  1  0  0  0  0
 19 45  1  0  0  0  0
 20 21  1  0  0  0  0
 20 36  1  0  0  0  0
 20 37  1  0  0  0  0
 21 22  1  0  0  0  0
 21 38  1  0  0  0  0
 21 39  1  0  0  0  0
 22 23  1  0  0  0  0
 22 40  1  0  0  0  0
 22 41  1  0  0  0  0
 23 24  1  0  0  0  0
 23 42  1  0  0  0  0
 23 43  1  0  0  0  0
 24 44  1  0  0  0  0
M  CHG  1  19   1
M  END
> <s_m_source_file>
AV-unprocessed.smi

> <i_m_source_file_index>
1976

> <i_lp_mmshare_version>
43012

> <i_f3d_flags>
0

> <s_epik_input>
W0NIMl0xW0NIMl1bQ0gyXVtDSDJdW0NASF0oTjEyKVtDQEBIXShbQ0gyXVtDSDJdMilbTkhdQyg9TylbQ0gyXW4zW2NIXWMoQyhGKShGKUYpW2NIXVtjSF1jMz1P

> <s_epik_cmdline>
J2VwaWtfcHl0aG9uJywgJy1waCcsICc3LjAnLCAnLXRuJywgJzgnLCAnLW1hJywgJzIwMCcsICctbWV0YWxfYmluZGluZycsICctaW1hZScsICc8aW5maWxlLm1hZT4nLCAnLW9tYWUnLCAnPG91dGZpbGUubWFlPic=

> <r_lp_tautomer_probability>
1

> <r_epik_Ionization_Penalty>
0.00171506

> <r_epik_Ionization_Penalty_Charging>
0.00171498

> <r_epik_Ionization_Penalty_Neutral>
7.81737e-08

> <r_epik_State_Penalty>
0.00115937

> <r_epik_Charging_Adjusted_Penalty>
0.00287436

> <i_epik_Tot_Q>
1

> <i_epik_Tot_abs_Q>
1

> <r_epik_Metal_State_Penalty>
-0

> <b_epik_Metal_Only>
0

> <s_lp_Force_Field>
OPLS_2005

> <r_lp_Energy>
45.9566

> <b_lp_Chiralities_Consistent>
1

> <s_lp_Variant>
AV-unprocessed.smi:1976-1

> <Gold.Version>
5.8.1

> <Gold.Id.Protein>
6NUR|6NUR_protein|mol2

> <Gold.PLP.Fitness>
52.1633

> <Gold.PLP.PLP>
-41.1707

> <Gold.PLP.part.hbond>
-2.0000

> <Gold.PLP.part.metal>
0.0000

> <Gold.PLP.part.buried>
-4.0361

> <Gold.PLP.part.nonpolar>
-34.0338

> <Gold.PLP.part.repulsive>
0.2772

> <Gold.PLP.ligand.clash>
0.0000

> <Gold.PLP.ligand.torsion>
0.2659

> <Gold.PLP.Chemscore.Hbond>
2.9500

> <Gold.PLP.Chemscore.CHOScore>
0.8686

> <Gold.PLP.Chemscore.Metal>
0.0000

> <Gold.Chemscore.Hbonds>
donor molecule, donor type, donor heavy atom, donor atom, acceptor molecule, acceptor atom, score
      L1  H    19    45       P1 10175  1.70
      P1  H  7997  8008       L1    14  1.00
      L1  C     5    27       P1  8028  1.00

> <Gold.PLP.Chemscore.Internal.Correction>
0.0686

> <Gold.Rescore>
     Score         DG    S(hbond)    S(metal)    S(lipo)     H(rot)  DE(clash)    DE(int)     intcor
     13.80     -16.84       1.82        0.00      79.89       1.58       0.11       2.93       ----

> <Gold.Chemscore.Fitness>
13.8045

> <Gold.Chemscore.DG>
-16.8406

> <Gold.Chemscore.ZeroCoef>
-5.4800

> <Gold.Chemscore.Hbond>
1.8160

> <Gold.Chemscore.Metal>
0.0000

> <Gold.Chemscore.Lipo>
79.8940

> <Gold.Chemscore.Internal_Hbond>
0.0000

> <Gold.Chemscore.DEClash>
0.1053

> <Gold.Chemscore.DEInternal>
2.9308

> <Gold.Chemscore.Rot>
1.5830

> <Gold.Chemscore.Internal.Correction>
   9.000000E+99

> <Gold.Chemscore.Hbonds>
donor molecule, donor type, donor heavy atom, donor atom, acceptor molecule, acceptor atom, score
      L1  H    19    45       P1 10175  0.80
      P1  H  7997  8008       L1    14  0.44

> <Gold.Chemscore.Hbond.Weighted>
-6.0654

> <Gold.Chemscore.Metal.Weighted>
-0.0000

> <Gold.Chemscore.Lipo.Weighted>
-9.3476

> <Gold.Chemscore.Internal_Hbond.Weighted>
0.0000

> <Gold.Chemscore.DEClash.Weighted>
0.1053

> <Gold.Chemscore.DEInternal.Weighted>
2.9308

> <Gold.Chemscore.Rot.Weighted>
4.0524

> <Gold.Chemscore.Internal.Correction.Weighted>
   9.000000E+99

> <Gold.Protein.RotatedTorsions>
[ 6907 6896 6895 6894 ] final  111.86 input  -60.11 | X-H torsion
[ 7974 7965 7964 7962 ] final  -92.12 input  175.53 | X-H torsion
[ 8008 7997 7996 7995 ] final  -73.76 input   59.86 | X-H torsion
[ 10167 10162 10161 10158 ] final   84.34 input  -65.29 | X-H torsion
[ 10718 10713 10712 10709 ] final  162.87 input   66.30 | X-H torsion
[ 10763 10752 10751 10750 ] final  -90.57 input  -60.55 | X-H torsion
[ 11005 11000 10999 10996 ] final  -81.70 input  -57.11 | X-H torsion

> <Gold.Protein.ActiveResidues>
 VAL166  LYS551  ARG553  GLY616  TRP617  ASP618  TYR619  PRO620  LYS621  CYS622 
 ASP623  PHE694  ASN695  SER759  ASP760  ASP761  ALA762  ILE779  LEU786  VAL792 
 PHE793  MET794  SER795  GLU796  ALA797  LYS798  CYS799  TRP800  GLU811  SER814 

> <Gold.Protein.RotatedAtoms>
  152.4947  133.8598  159.7243 H   0  0  0  0  0  0  0  0  0  0  0  0  # atno 6907 bound_to 6896
  150.9112  133.6986  159.2861 H   0  0  0  0  0  0  0  0  0  0  0  0  # atno 6908 bound_to 6896
  151.4394  135.1023  159.9718 H   0  0  0  0  0  0  0  0  0  0  0  0  # atno 6909 bound_to 6896
  145.4040  140.9540  143.2271 H   0  0  0  0  0  0  0  0  0  0  0  0  # atno 7974 bound_to 7965
  154.5274  140.0773  156.8284 H   0  0  0  0  0  0  0  0  0  0  0  0  # atno 8008 bound_to 7997
  155.3446  140.3409  155.4221 H   0  0  0  0  0  0  0  0  0  0  0  0  # atno 8009 bound_to 7997
  156.1746  140.1631  156.8373 H   0  0  0  0  0  0  0  0  0  0  0  0  # atno 8010 bound_to 7997
  139.9091  144.6283  150.8557 H   0  0  0  0  0  0  0  0  0  0  0  0  # atno 10167 bound_to 10162
  157.1164  131.0481  151.2434 H   0  0  0  0  0  0  0  0  0  0  0  0  # atno 10718 bound_to 10713
  154.6672  135.5299  153.8092 H   0  0  0  0  0  0  0  0  0  0  0  0  # atno 10763 bound_to 10752
  153.0478  135.6520  154.0781 H   0  0  0  0  0  0  0  0  0  0  0  0  # atno 10764 bound_to 10752
  154.0684  135.2956  155.3292 H   0  0  0  0  0  0  0  0  0  0  0  0  # atno 10765 bound_to 10752
  141.1666  133.7209  156.8461 H   0  0  0  0  0  0  0  0  0  0  0  0  # atno 11005 bound_to 11000
  144.8354  139.5559  143.6924 LP  0  0  0  0  0  0  0  0  0  0  0  0  # atno 17320 bound_to 7965
  146.2737  139.6700  142.9278 LP  0  0  0  0  0  0  0  0  0  0  0  0  # atno 17321 bound_to 7965
  140.7689  143.3379  151.2269 LP  0  0  0  0  0  0  0  0  0  0  0  0  # atno 17342 bound_to 10162
  139.6958  143.9615  152.2882 LP  0  0  0  0  0  0  0  0  0  0  0  0  # atno 17343 bound_to 10162
  157.4514  130.7600  149.7155 LP  0  0  0  0  0  0  0  0  0  0  0  0  # atno 17370 bound_to 10713
  155.9838  130.3997  150.3343 LP  0  0  0  0  0  0  0  0  0  0  0  0  # atno 17371 bound_to 10713
  140.1948  134.8939  157.3102 LP  0  0  0  0  0  0  0  0  0  0  0  0  # atno 17394 bound_to 11000
  140.2250  134.3977  155.7548 LP  0  0  0  0  0  0  0  0  0  0  0  0  # atno 17395 bound_to 11000

$$$$
