AV-unprocessed.smi:746|AV-procd|sdf|3576|dock1
  -GOLD-   22720 0563D 1   1.00000     0.00000
 Structure written by MMmdl.
 48 50  0  0  0  0  0  0  0  0  1 V2000
  144.9119  136.0720  151.3480 C   0  0  0  0  0  0  0  0  0  0  0  0
  145.2854  136.4668  152.6565 O   0  0  0  0  0  0  0  0  0  0  0  0
  145.1567  137.8640  152.8598 C   0  0  0  0  0  0  0  0  0  0  0  0
  146.1632  138.5934  151.9660 C   0  0  0  0  0  0  0  0  0  0  0  0
  146.1307  139.9829  152.2782 O   0  0  0  0  0  0  0  0  0  0  0  0
  146.9492  140.4510  153.2857 C   0  0  0  0  0  0  0  0  0  0  0  0
  147.9972  139.6264  153.7406 C   0  0  0  0  0  0  0  0  0  0  0  0
  148.8359  140.0950  154.7701 C   0  0  0  0  0  0  0  0  0  0  0  0
  148.5922  141.3761  155.3200 C   0  0  0  0  0  0  0  0  0  0  0  0
  149.3755  141.9701  156.3456 N   0  0  0  0  0  0  0  0  0  0  0  0
  150.0319  141.3727  157.3603 C   0  0  0  0  0  0  0  0  0  0  0  0
  150.1434  140.1520  157.4668 O   0  0  0  0  0  0  0  0  0  0  0  0
  150.6514  142.2541  158.1859 N   0  0  0  0  0  0  0  0  0  0  0  0
  150.1941  143.6511  158.3636 C   0  0  0  0  0  0  0  0  0  0  0  0
  151.3788  144.6363  158.2686 C   0  0  0  0  0  0  0  0  0  0  0  0
  152.4923  144.2773  159.2701 C   0  0  0  0  0  0  0  0  0  0  0  0
  152.8596  142.7974  159.1075 C   0  0  1  0  0  0  0  0  0  0  0  0
  153.8434  142.2058  160.1186 C   0  0  0  0  0  0  0  0  0  0  0  0
  153.5421  140.6952  160.1151 C   0  0  0  0  0  0  0  0  0  0  0  0
  152.2712  140.5082  159.2667 C   0  0  0  0  0  0  0  0  0  0  0  0
  151.6256  141.9037  159.2404 C   0  0  2  0  0  0  0  0  0  0  0  0
  147.5288  142.1297  154.7825 C   0  0  0  0  0  0  0  0  0  0  0  0
  146.7205  141.6859  153.7971 N   0  0  0  0  0  0  0  0  0  0  0  0
  145.0279  134.9933  151.2435 H   0  0  0  0  0  0  0  0  0  0  0  0
  145.5405  136.5524  150.5969 H   0  0  0  0  0  0  0  0  0  0  0  0
  143.8694  136.3196  151.1434 H   0  0  0  0  0  0  0  0  0  0  0  0
  144.1424  138.1872  152.6200 H   0  0  0  0  0  0  0  0  0  0  0  0
  145.3429  138.1083  153.9068 H   0  0  0  0  0  0  0  0  0  0  0  0
  147.1627  138.1892  152.1348 H   0  0  0  0  0  0  0  0  0  0  0  0
  145.9060  138.4341  150.9174 H   0  0  0  0  0  0  0  0  0  0  0  0
  148.1587  138.6518  153.3041 H   0  0  0  0  0  0  0  0  0  0  0  0
  149.6517  139.4726  155.1033 H   0  0  0  0  0  0  0  0  0  0  0  0
  149.3460  142.9786  156.3814 H   0  0  0  0  0  0  0  0  0  0  0  0
  149.4226  143.9531  157.6547 H   0  0  0  0  0  0  0  0  0  0  0  0
  149.7255  143.7397  159.3449 H   0  0  0  0  0  0  0  0  0  0  0  0
  151.7810  144.6193  157.2547 H   0  0  0  0  0  0  0  0  0  0  0  0
  151.0337  145.6551  158.4467 H   0  0  0  0  0  0  0  0  0  0  0  0
  153.3667  144.9093  159.1122 H   0  0  0  0  0  0  0  0  0  0  0  0
  152.1450  144.4655  160.2868 H   0  0  0  0  0  0  0  0  0  0  0  0
  153.2814  142.6585  158.1096 H   0  0  0  0  0  0  0  0  0  0  0  0
  154.8795  142.4246  159.8581 H   0  0  0  0  0  0  0  0  0  0  0  0
  153.6580  142.6156  161.1124 H   0  0  0  0  0  0  0  0  0  0  0  0
  154.3716  140.1213  159.7006 H   0  0  0  0  0  0  0  0  0  0  0  0
  153.3805  140.3445  161.1350 H   0  0  0  0  0  0  0  0  0  0  0  0
  152.5575  140.1969  158.2610 H   0  0  0  0  0  0  0  0  0  0  0  0
  151.6107  139.7459  159.6812 H   0  0  0  0  0  0  0  0  0  0  0  0
  151.1536  142.0726  160.2107 H   0  0  0  0  0  0  0  0  0  0  0  0
  147.3137  143.1191  155.1587 H   0  0  0  0  0  0  0  0  0  0  0  0
  1  2  1  0  0  0  0
  1 24  1  0  0  0  0
  1 25  1  0  0  0  0
  1 26  1  0  0  0  0
  2  3  1  0  0  0  0
  3  4  1  0  0  0  0
  3 27  1  0  0  0  0
  3 28  1  0  0  0  0
  4  5  1  0  0  0  0
  4 29  1  0  0  0  0
  4 30  1  0  0  0  0
  5  6  1  0  0  0  0
  6 23  1  0  0  0  0
  6  7  2  0  0  0  0
  7  8  1  0  0  0  0
  7 31  1  0  0  0  0
  8  9  2  0  0  0  0
  8 32  1  0  0  0  0
  9 10  1  0  0  0  0
  9 22  1  0  0  0  0
 10 11  1  0  0  0  0
 10 33  1  0  0  0  0
 11 12  2  0  0  0  0
 11 13  1  0  0  0  0
 13 21  1  0  0  0  0
 13 14  1  0  0  0  0
 14 15  1  0  0  0  0
 14 34  1  0  0  0  0
 14 35  1  0  0  0  0
 15 16  1  0  0  0  0
 15 36  1  0  0  0  0
 15 37  1  0  0  0  0
 16 17  1  0  0  0  0
 16 38  1  0  0  0  0
 16 39  1  0  0  0  0
 17 21  1  0  0  0  0
 17 18  1  0  0  0  0
 17 40  1  0  0  0  0
 18 19  1  0  0  0  0
 18 41  1  0  0  0  0
 18 42  1  0  0  0  0
 19 20  1  0  0  0  0
 19 43  1  0  0  0  0
 19 44  1  0  0  0  0
 20 21  1  0  0  0  0
 20 45  1  0  0  0  0
 20 46  1  0  0  0  0
 21 47  1  0  0  0  0
 22 23  2  0  0  0  0
 22 48  1  0  0  0  0
M  END
> <s_m_source_file>
AV-unprocessed.smi

> <i_m_source_file_index>
746

> <i_lp_mmshare_version>
43012

> <i_f3d_flags>
0

> <s_epik_input>
W0NIM11PW0NIMl1bQ0gyXU9jMVtjSF1bY0hdYyhbY0hdbjEpW05IXUMoPU8pTihbQ0gyXVtDSDJdW0NIMl0yKVtDQEhdKFtDQEBIXTIzKVtDSDJdW0NIMl1bQ0gyXTM=

> <s_epik_cmdline>
J2VwaWtfcHl0aG9uJywgJy1waCcsICc3LjAnLCAnLXRuJywgJzgnLCAnLW1hJywgJzIwMCcsICctbWV0YWxfYmluZGluZycsICctaW1hZScsICc8aW5maWxlLm1hZT4nLCAnLW9tYWUnLCAnPG91dGZpbGUubWFlPic=

> <r_lp_tautomer_probability>
1

> <r_epik_Ionization_Penalty>
8.29966e-05

> <r_epik_Ionization_Penalty_Charging>
0

> <r_epik_Ionization_Penalty_Neutral>
8.29966e-05

> <r_epik_State_Penalty>
-0

> <r_epik_Charging_Adjusted_Penalty>
0

> <i_epik_Tot_Q>
0

> <i_epik_Tot_abs_Q>
0

> <r_epik_Metal_State_Penalty>
-0

> <b_epik_Metal_Only>
0

> <s_lp_Force_Field>
OPLS_2005

> <r_lp_Energy>
59.0162

> <b_lp_Chiralities_Consistent>
1

> <s_lp_Variant>
AV-unprocessed.smi:746-1

> <Gold.Version>
5.8.1

> <Gold.Id.Protein>
6NUR|6NUR_protein|mol2

> <Gold.PLP.Fitness>
49.3365

> <Gold.PLP.PLP>
-44.4575

> <Gold.PLP.part.hbond>
-1.0000

> <Gold.PLP.part.metal>
0.0000

> <Gold.PLP.part.buried>
0.3018

> <Gold.PLP.part.nonpolar>
-46.3083

> <Gold.PLP.part.repulsive>
2.0692

> <Gold.PLP.ligand.clash>
0.0000

> <Gold.PLP.ligand.torsion>
0.7073

> <Gold.PLP.Chemscore.Hbond>
1.0000

> <Gold.PLP.Chemscore.CHOScore>
0.9826

> <Gold.PLP.Chemscore.Metal>
0.0000

> <Gold.Chemscore.Hbonds>
donor molecule, donor type, donor heavy atom, donor atom, acceptor molecule, acceptor atom, score
      L1  H    10    33       P1  8028  1.00
      L1  C    22    48       P1  8028  0.84

> <Gold.PLP.Chemscore.Internal.Correction>
0.3458

> <Gold.Rescore>
     Score         DG    S(hbond)    S(metal)    S(lipo)     H(rot)  DE(clash)    DE(int)     intcor
     14.12     -19.48       0.96        0.00     125.35       1.52       2.03       3.33       ----

> <Gold.Chemscore.Fitness>
14.1171

> <Gold.Chemscore.DG>
-19.4783

> <Gold.Chemscore.ZeroCoef>
-5.4800

> <Gold.Chemscore.Hbond>
0.9631

> <Gold.Chemscore.Metal>
0.0000

> <Gold.Chemscore.Lipo>
125.3467

> <Gold.Chemscore.Internal_Hbond>
0.0000

> <Gold.Chemscore.DEClash>
2.0312

> <Gold.Chemscore.DEInternal>
3.3300

> <Gold.Chemscore.Rot>
1.5172

> <Gold.Chemscore.Internal.Correction>
   9.000000E+99

> <Gold.Chemscore.Hbonds>
donor molecule, donor type, donor heavy atom, donor atom, acceptor molecule, acceptor atom, score
      L1  H    10    33       P1  8028  0.96

> <Gold.Chemscore.Hbond.Weighted>
-3.2169

> <Gold.Chemscore.Metal.Weighted>
-0.0000

> <Gold.Chemscore.Lipo.Weighted>
-14.6656

> <Gold.Chemscore.Internal_Hbond.Weighted>
0.0000

> <Gold.Chemscore.DEClash.Weighted>
2.0312

> <Gold.Chemscore.DEInternal.Weighted>
3.3300

> <Gold.Chemscore.Rot.Weighted>
3.8841

> <Gold.Chemscore.Internal.Correction.Weighted>
   9.000000E+99

> <Gold.Protein.RotatedTorsions>
[ 6907 6896 6895 6894 ] final   85.29 input  -60.11 | X-H torsion
[ 7974 7965 7964 7962 ] final   44.30 input  175.53 | X-H torsion
[ 8008 7997 7996 7995 ] final   91.10 input   59.86 | X-H torsion
[ 10167 10162 10161 10158 ] final  -57.10 input  -65.29 | X-H torsion
[ 10718 10713 10712 10709 ] final  120.34 input   66.30 | X-H torsion
[ 10763 10752 10751 10750 ] final   68.82 input  -60.55 | X-H torsion
[ 11005 11000 10999 10996 ] final -150.36 input  -57.11 | X-H torsion

> <Gold.Protein.ActiveResidues>
 VAL166  LYS551  ARG553  GLY616  TRP617  ASP618  TYR619  PRO620  LYS621  CYS622 
 ASP623  PHE694  ASN695  SER759  ASP760  ASP761  ALA762  ILE779  LEU786  VAL792 
 PHE793  MET794  SER795  GLU796  ALA797  LYS798  CYS799  TRP800  GLU811  SER814 

> <Gold.Protein.RotatedAtoms>
  152.5371  134.2609  159.8934 H   0  0  0  0  0  0  0  0  0  0  0  0  # atno 6907 bound_to 6896
  151.2569  133.4315  159.2622 H   0  0  0  0  0  0  0  0  0  0  0  0  # atno 6908 bound_to 6896
  151.0488  134.9673  159.8257 H   0  0  0  0  0  0  0  0  0  0  0  0  # atno 6909 bound_to 6896
  146.0580  139.5090  142.9676 H   0  0  0  0  0  0  0  0  0  0  0  0  # atno 7974 bound_to 7965
  156.0197  140.3341  155.7026 H   0  0  0  0  0  0  0  0  0  0  0  0  # atno 8008 bound_to 7997
  155.6039  140.0658  157.2743 H   0  0  0  0  0  0  0  0  0  0  0  0  # atno 8009 bound_to 7997
  154.4311  140.1805  156.1190 H   0  0  0  0  0  0  0  0  0  0  0  0  # atno 8010 bound_to 7997
  140.6278  143.2446  151.5318 H   0  0  0  0  0  0  0  0  0  0  0  0  # atno 10167 bound_to 10162
  157.5898  131.1065  150.8021 H   0  0  0  0  0  0  0  0  0  0  0  0  # atno 10718 bound_to 10713
  153.0255  135.5233  154.7193 H   0  0  0  0  0  0  0  0  0  0  0  0  # atno 10763 bound_to 10752
  154.6253  135.2893  155.0282 H   0  0  0  0  0  0  0  0  0  0  0  0  # atno 10764 bound_to 10752
  154.1254  135.6601  153.4963 H   0  0  0  0  0  0  0  0  0  0  0  0  # atno 10765 bound_to 10752
  140.7410  134.3514  157.5147 H   0  0  0  0  0  0  0  0  0  0  0  0  # atno 11005 bound_to 11000
  145.6609  141.0240  143.1709 LP  0  0  0  0  0  0  0  0  0  0  0  0  # atno 17320 bound_to 7965
  144.7159  139.8200  143.7399 LP  0  0  0  0  0  0  0  0  0  0  0  0  # atno 17321 bound_to 7965
  139.5496  144.2430  152.1506 LP  0  0  0  0  0  0  0  0  0  0  0  0  # atno 17342 bound_to 10162
  140.1666  144.4976  150.6603 LP  0  0  0  0  0  0  0  0  0  0  0  0  # atno 17343 bound_to 10162
  156.8446  130.5059  149.5317 LP  0  0  0  0  0  0  0  0  0  0  0  0  # atno 17370 bound_to 10713
  156.0951  130.5926  150.9800 LP  0  0  0  0  0  0  0  0  0  0  0  0  # atno 17371 bound_to 10713
  139.8806  134.9081  156.2960 LP  0  0  0  0  0  0  0  0  0  0  0  0  # atno 17394 bound_to 11000
  140.9836  133.7252  156.0709 LP  0  0  0  0  0  0  0  0  0  0  0  0  # atno 17395 bound_to 11000

$$$$
