AV-unprocessed.smi:2559|AV-procd|sdf|10035|dock4
  -GOLD-   2272014 83D 1   1.00000     0.00000
 Structure written by MMmdl.
 44 46  0  0  0  0  0  0  0  0  1 V2000
  155.6814  140.2730  163.1002 C   0  0  0  0  0  0  0  0  0  0  0  0
  154.8764  139.5370  162.1234 N   0  0  0  0  0  0  0  0  0  0  0  0
  154.9537  138.1696  162.0581 C   0  0  0  0  0  0  0  0  0  0  0  0
  155.6911  137.5149  162.7947 O   0  0  0  0  0  0  0  0  0  0  0  0
  154.1692  137.5329  161.1368 N   0  0  0  0  0  0  0  0  0  0  0  0
  153.3002  138.0966  160.2632 C   0  0  0  0  0  0  0  0  0  0  0  0
  152.6165  137.4417  159.4799 O   0  0  0  0  0  0  0  0  0  0  0  0
  153.2509  139.5635  160.3610 C   0  0  0  0  0  0  0  0  0  0  0  0
  153.9991  140.2531  161.2601 C   0  0  0  0  0  0  0  0  0  0  0  0
  153.7391  141.6119  161.1809 N   0  0  0  0  0  0  0  0  0  0  0  0
  152.8397  141.6923  160.1969 C   0  0  0  0  0  0  0  0  0  0  0  0
  152.2819  142.8996  159.7732 N   0  0  0  0  0  0  0  0  0  0  0  0
  151.9973  143.2105  158.3730 C   0  0  0  0  0  0  0  0  0  0  0  0
  152.5468  144.5936  157.9796 C   0  0  0  0  0  0  0  0  0  0  0  0
  151.9680  145.6892  158.8858 C   0  0  0  0  0  0  0  0  0  0  0  0
  152.1668  145.3125  160.3604 C   0  0  0  0  0  0  0  0  0  0  0  0
  151.6330  143.8943  160.6287 C   0  0  0  0  0  0  0  0  0  0  0  0
  152.4742  140.4939  159.6631 N   0  0  0  0  0  0  0  0  0  0  0  0
  151.4657  140.2308  158.6363 C   0  0  0  0  0  0  0  0  0  0  0  0
  152.0503  140.2405  157.2088 C   0  0  1  0  0  0  0  0  0  0  0  0
  153.0884  139.2818  157.1733 O   0  0  0  0  0  0  0  0  0  0  0  0
  151.0215  139.9037  156.1118 C   0  0  0  0  0  0  0  0  0  0  0  0
  151.6465  139.8752  154.8460 O   0  0  0  0  0  0  0  0  0  0  0  0
  154.2406  136.5263  161.1099 H   0  0  0  0  0  0  0  0  0  0  0  0
  156.7226  139.9476  163.0776 H   0  0  0  0  0  0  0  0  0  0  0  0
  155.2944  140.1097  164.1069 H   0  0  0  0  0  0  0  0  0  0  0  0
  155.6807  141.3471  162.9145 H   0  0  0  0  0  0  0  0  0  0  0  0
  152.4421  142.4482  157.7322 H   0  0  0  0  0  0  0  0  0  0  0  0
  150.9204  143.1674  158.2051 H   0  0  0  0  0  0  0  0  0  0  0  0
  153.6348  144.5900  158.0558 H   0  0  0  0  0  0  0  0  0  0  0  0
  152.3098  144.8077  156.9373 H   0  0  0  0  0  0  0  0  0  0  0  0
  152.4371  146.6497  158.6713 H   0  0  0  0  0  0  0  0  0  0  0  0
  150.9032  145.8066  158.6804 H   0  0  0  0  0  0  0  0  0  0  0  0
  153.2252  145.3676  160.6158 H   0  0  0  0  0  0  0  0  0  0  0  0
  151.6562  146.0319  161.0007 H   0  0  0  0  0  0  0  0  0  0  0  0
  150.5591  143.8667  160.4398 H   0  0  0  0  0  0  0  0  0  0  0  0
  151.7491  143.6294  161.6788 H   0  0  0  0  0  0  0  0  0  0  0  0
  150.9908  139.2744  158.8376 H   0  0  0  0  0  0  0  0  0  0  0  0
  150.6571  140.9534  158.7187 H   0  0  0  0  0  0  0  0  0  0  0  0
  152.4838  141.2209  157.0108 H   0  0  0  0  0  0  0  0  0  0  0  0
  152.7088  138.4232  157.2806 H   0  0  0  0  0  0  0  0  0  0  0  0
  150.5267  138.9518  156.3084 H   0  0  0  0  0  0  0  0  0  0  0  0
  150.2437  140.6648  156.0612 H   0  0  0  0  0  0  0  0  0  0  0  0
  151.4733  139.0379  154.4434 H   0  0  0  0  0  0  0  0  0  0  0  0
  1  2  1  0  0  0  0
  1 25  1  0  0  0  0
  1 26  1  0  0  0  0
  1 27  1  0  0  0  0
  2  9  1  0  0  0  0
  2  3  1  0  0  0  0
  3  4  2  0  0  0  0
  3  5  1  0  0  0  0
  5 24  1  0  0  0  0
  5  6  1  0  0  0  0
  6  7  2  0  0  0  0
  6  8  1  0  0  0  0
  8 18  1  0  0  0  0
  8  9  2  0  0  0  0
  9 10  1  0  0  0  0
 10 11  2  0  0  0  0
 11 12  1  0  0  0  0
 11 18  1  0  0  0  0
 12 17  1  0  0  0  0
 12 13  1  0  0  0  0
 13 14  1  0  0  0  0
 13 28  1  0  0  0  0
 13 29  1  0  0  0  0
 14 15  1  0  0  0  0
 14 30  1  0  0  0  0
 14 31  1  0  0  0  0
 15 16  1  0  0  0  0
 15 32  1  0  0  0  0
 15 33  1  0  0  0  0
 16 17  1  0  0  0  0
 16 34  1  0  0  0  0
 16 35  1  0  0  0  0
 17 36  1  0  0  0  0
 17 37  1  0  0  0  0
 18 19  1  0  0  0  0
 19 20  1  0  0  0  0
 19 38  1  0  0  0  0
 19 39  1  0  0  0  0
 20 21  1  0  0  0  0
 20 22  1  0  0  0  0
 20 40  1  0  0  0  0
 21 41  1  0  0  0  0
 22 23  1  0  0  0  0
 22 42  1  0  0  0  0
 22 43  1  0  0  0  0
 23 44  1  0  0  0  0
M  END
> <s_m_source_file>
AV-unprocessed.smi

> <i_m_source_file_index>
2559

> <i_lp_mmshare_version>
43012

> <i_f3d_flags>
0

> <s_epik_input>
Tz1jMVtuSF1jKD1PKW4oW0NIM10pYyhjMTIpbmMobjJbQ0gyXVtDQEhdKFtPSF0pW0NIMl1bT0hdKU4zW0NIMl1bQ0gyXVtDSDJdW0NIMl1bQ0gyXTM=

> <s_epik_cmdline>
J2VwaWtfcHl0aG9uJywgJy1waCcsICc3LjAnLCAnLXRuJywgJzgnLCAnLW1hJywgJzIwMCcsICctbWV0YWxfYmluZGluZycsICctaW1hZScsICc8aW5maWxlLm1hZT4nLCAnLW9tYWUnLCAnPG91dGZpbGUubWFlPic=

> <r_lp_tautomer_probability>
1

> <r_epik_Ionization_Penalty>
0.0023969

> <r_epik_Ionization_Penalty_Charging>
9.35512e-05

> <r_epik_Ionization_Penalty_Neutral>
0.00230335

> <r_epik_State_Penalty>
-0

> <r_epik_Charging_Adjusted_Penalty>
9.35512e-05

> <i_epik_Tot_Q>
0

> <i_epik_Tot_abs_Q>
0

> <r_epik_Metal_State_Penalty>
0.0757518

> <b_epik_Metal_Only>
0

> <s_lp_Force_Field>
OPLS_2005

> <r_lp_Energy>
42.4748

> <b_lp_Chiralities_Consistent>
1

> <s_lp_Variant>
AV-unprocessed.smi:2559-2

> <Gold.Version>
5.8.1

> <Gold.Id.Protein>
6NUR|6NUR_protein|mol2

> <Gold.PLP.Fitness>
49.7378

> <Gold.PLP.PLP>
-45.4949

> <Gold.PLP.part.hbond>
-1.9382

> <Gold.PLP.part.metal>
0.0000

> <Gold.PLP.part.buried>
-4.2154

> <Gold.PLP.part.nonpolar>
-38.6502

> <Gold.PLP.part.repulsive>
0.0279

> <Gold.PLP.ligand.clash>
0.0000

> <Gold.PLP.ligand.torsion>
1.1721

> <Gold.PLP.Chemscore.Hbond>
2.0000

> <Gold.PLP.Chemscore.CHOScore>
0.0000

> <Gold.PLP.Chemscore.Metal>
0.0000

> <Gold.Chemscore.Hbonds>
donor molecule, donor type, donor heavy atom, donor atom, acceptor molecule, acceptor atom, score
      P1  H  7989  7998       L1    23  1.00
      P1  H  7997  8010       L1    21  1.00

> <Gold.PLP.Chemscore.Internal.Correction>
0.5871

> <Gold.Rescore>
     Score         DG    S(hbond)    S(metal)    S(lipo)     H(rot)  DE(clash)    DE(int)     intcor
     11.93     -14.05       1.95        0.00      82.61       2.97       0.00       2.12       ----

> <Gold.Chemscore.Fitness>
11.9300

> <Gold.Chemscore.DG>
-14.0522

> <Gold.Chemscore.ZeroCoef>
-5.4800

> <Gold.Chemscore.Hbond>
1.9480

> <Gold.Chemscore.Metal>
0.0000

> <Gold.Chemscore.Lipo>
82.6093

> <Gold.Chemscore.Internal_Hbond>
0.0000

> <Gold.Chemscore.DEClash>
0.0004

> <Gold.Chemscore.DEInternal>
2.1218

> <Gold.Chemscore.Rot>
2.9685

> <Gold.Chemscore.Internal.Correction>
   9.000000E+99

> <Gold.Chemscore.Hbonds>
donor molecule, donor type, donor heavy atom, donor atom, acceptor molecule, acceptor atom, score
      P1  H  7989  7998       L1    23  0.29
      P1  H  7997  8010       L1    21  0.50

> <Gold.Chemscore.Hbond.Weighted>
-6.5063

> <Gold.Chemscore.Metal.Weighted>
-0.0000

> <Gold.Chemscore.Lipo.Weighted>
-9.6653

> <Gold.Chemscore.Internal_Hbond.Weighted>
0.0000

> <Gold.Chemscore.DEClash.Weighted>
0.0004

> <Gold.Chemscore.DEInternal.Weighted>
2.1218

> <Gold.Chemscore.Rot.Weighted>
7.5994

> <Gold.Chemscore.Internal.Correction.Weighted>
   9.000000E+99

> <Gold.Protein.RotatedTorsions>
[ 6907 6896 6895 6894 ] final  -70.00 input  -60.11 | X-H torsion
[ 7974 7965 7964 7962 ] final -123.69 input  175.53 | X-H torsion
[ 8008 7997 7996 7995 ] final   65.05 input   59.86 | X-H torsion
[ 10167 10162 10161 10158 ] final   23.16 input  -65.29 | X-H torsion
[ 10718 10713 10712 10709 ] final   62.95 input   66.30 | X-H torsion
[ 10763 10752 10751 10750 ] final  101.87 input  -60.55 | X-H torsion
[ 11005 11000 10999 10996 ] final  -97.49 input  -57.11 | X-H torsion

> <Gold.Protein.ActiveResidues>
 VAL166  LYS551  ARG553  GLY616  TRP617  ASP618  TYR619  PRO620  LYS621  CYS622 
 ASP623  PHE694  ASN695  SER759  ASP760  ASP761  ALA762  ILE779  LEU786  VAL792 
 PHE793  MET794  SER795  GLU796  ALA797  LYS798  CYS799  TRP800  GLU811  SER814 

> <Gold.Protein.RotatedAtoms>
  150.7278  134.5516  159.5797 H   0  0  0  0  0  0  0  0  0  0  0  0  # atno 6907 bound_to 6896
  152.3002  134.7617  160.0368 H   0  0  0  0  0  0  0  0  0  0  0  0  # atno 6908 bound_to 6896
  151.8201  133.3358  159.3618 H   0  0  0  0  0  0  0  0  0  0  0  0  # atno 6909 bound_to 6896
  145.0160  140.7947  143.4409 H   0  0  0  0  0  0  0  0  0  0  0  0  # atno 7974 bound_to 7965
  155.6557  140.3497  155.4764 H   0  0  0  0  0  0  0  0  0  0  0  0  # atno 8008 bound_to 7997
  155.9810  140.1174  157.0749 H   0  0  0  0  0  0  0  0  0  0  0  0  # atno 8009 bound_to 7997
  154.4192  140.1138  156.5422 H   0  0  0  0  0  0  0  0  0  0  0  0  # atno 8010 bound_to 7997
  140.5291  143.9873  150.6456 H   0  0  0  0  0  0  0  0  0  0  0  0  # atno 10167 bound_to 10162
  157.5937  130.9078  149.9653 H   0  0  0  0  0  0  0  0  0  0  0  0  # atno 10718 bound_to 10713
  153.3323  135.4030  155.1505 H   0  0  0  0  0  0  0  0  0  0  0  0  # atno 10763 bound_to 10752
  154.8625  135.3613  154.5455 H   0  0  0  0  0  0  0  0  0  0  0  0  # atno 10764 bound_to 10752
  153.5894  135.7074  153.5489 H   0  0  0  0  0  0  0  0  0  0  0  0  # atno 10765 bound_to 10752
  141.1377  133.8175  157.0713 H   0  0  0  0  0  0  0  0  0  0  0  0  # atno 11005 bound_to 11000
  145.1959  139.2277  143.5218 LP  0  0  0  0  0  0  0  0  0  0  0  0  # atno 17320 bound_to 7965
  146.3478  140.1765  142.8589 LP  0  0  0  0  0  0  0  0  0  0  0  0  # atno 17321 bound_to 7965
  140.3242  143.3118  152.0753 LP  0  0  0  0  0  0  0  0  0  0  0  0  # atno 17342 bound_to 10162
  139.4948  144.6553  151.6586 LP  0  0  0  0  0  0  0  0  0  0  0  0  # atno 17343 bound_to 10162
  156.0996  130.3657  150.0243 LP  0  0  0  0  0  0  0  0  0  0  0  0  # atno 17370 bound_to 10713
  156.8361  130.9409  151.3634 LP  0  0  0  0  0  0  0  0  0  0  0  0  # atno 17371 bound_to 10713
  140.0509  134.9806  157.1135 LP  0  0  0  0  0  0  0  0  0  0  0  0  # atno 17394 bound_to 11000
  140.3991  134.2102  155.7164 LP  0  0  0  0  0  0  0  0  0  0  0  0  # atno 17395 bound_to 11000

$$$$
