AV-unprocessed.smi:1581|AV-procd|sdf|6360|dock7
  -GOLD-   22720 6583D 1   1.00000     0.00000
 Structure written by MMmdl.
 34 35  0  0  0  0  0  0  0  0  1 V2000
  146.7362  138.7030  152.1392 C   0  0  0  0  0  0  0  0  0  0  0  0
  146.9745  139.5022  153.4154 C   0  0  0  0  0  0  0  0  0  0  0  0
  146.1379  139.4911  154.3176 O   0  0  0  0  0  0  0  0  0  0  0  0
  148.1203  140.1974  153.4741 N   0  0  0  0  0  0  0  0  0  0  0  0
  148.5364  141.0311  154.5981 C   0  0  0  0  0  0  0  0  0  0  0  0
  149.8443  140.6152  155.2610 C   0  0  0  0  0  0  0  0  0  0  0  0
  150.5510  139.5039  154.7616 C   0  0  0  0  0  0  0  0  0  0  0  0
  151.7640  139.1454  155.3778 C   0  0  0  0  0  0  0  0  0  0  0  0
  152.2864  139.8130  156.4272 N   0  0  0  0  0  0  0  0  0  0  0  0
  151.6160  140.8832  156.9208 C   0  0  0  0  0  0  0  0  0  0  0  0
  152.1657  141.5683  158.0253 N   0  0  0  0  0  0  0  0  0  0  0  0
  151.5601  142.8651  158.3175 C   0  0  0  0  0  0  0  0  0  0  0  0
  152.4144  143.6390  159.3369 C   0  0  0  0  0  0  0  0  0  0  0  0
  152.6182  142.8447  160.5010 O   0  0  0  0  0  0  0  0  0  0  0  0
  153.3104  141.6367  160.2040 C   0  0  0  0  0  0  0  0  0  0  0  0
  152.4785  140.7928  159.2239 C   0  0  0  0  0  0  0  0  0  0  0  0
  150.3946  141.3202  156.3555 C   0  0  0  0  0  0  0  0  0  0  0  0
  146.6327  139.3733  151.2855 H   0  0  0  0  0  0  0  0  0  0  0  0
  145.8261  138.1074  152.2185 H   0  0  0  0  0  0  0  0  0  0  0  0
  147.5705  138.0271  151.9500 H   0  0  0  0  0  0  0  0  0  0  0  0
  148.7473  140.1506  152.6843 H   0  0  0  0  0  0  0  0  0  0  0  0
  148.6089  142.0707  154.2737 H   0  0  0  0  0  0  0  0  0  0  0  0
  147.7489  140.9991  155.3510 H   0  0  0  0  0  0  0  0  0  0  0  0
  150.1751  138.9369  153.9226 H   0  0  0  0  0  0  0  0  0  0  0  0
  152.3306  138.2994  155.0182 H   0  0  0  0  0  0  0  0  0  0  0  0
  151.4465  143.4686  157.4180 H   0  0  0  0  0  0  0  0  0  0  0  0
  150.5587  142.7024  158.7182 H   0  0  0  0  0  0  0  0  0  0  0  0
  153.3753  143.9205  158.9035 H   0  0  0  0  0  0  0  0  0  0  0  0
  151.9115  144.5631  159.6222 H   0  0  0  0  0  0  0  0  0  0  0  0
  154.2939  141.8609  159.7874 H   0  0  0  0  0  0  0  0  0  0  0  0
  153.4750  141.0843  161.1291 H   0  0  0  0  0  0  0  0  0  0  0  0
  151.5513  140.4731  159.7016 H   0  0  0  0  0  0  0  0  0  0  0  0
  153.0353  139.8938  158.9559 H   0  0  0  0  0  0  0  0  0  0  0  0
  149.8942  142.1918  156.7494 H   0  0  0  0  0  0  0  0  0  0  0  0
  1  2  1  0  0  0  0
  1 18  1  0  0  0  0
  1 19  1  0  0  0  0
  1 20  1  0  0  0  0
  2  3  2  0  0  0  0
  2  4  1  0  0  0  0
  4  5  1  0  0  0  0
  4 21  1  0  0  0  0
  5  6  1  0  0  0  0
  5 22  1  0  0  0  0
  5 23  1  0  0  0  0
  6 17  1  0  0  0  0
  6  7  2  0  0  0  0
  7  8  1  0  0  0  0
  7 24  1  0  0  0  0
  8  9  2  0  0  0  0
  8 25  1  0  0  0  0
  9 10  1  0  0  0  0
 10 11  1  0  0  0  0
 10 17  2  0  0  0  0
 11 16  1  0  0  0  0
 11 12  1  0  0  0  0
 12 13  1  0  0  0  0
 12 26  1  0  0  0  0
 12 27  1  0  0  0  0
 13 14  1  0  0  0  0
 13 28  1  0  0  0  0
 13 29  1  0  0  0  0
 14 15  1  0  0  0  0
 15 16  1  0  0  0  0
 15 30  1  0  0  0  0
 15 31  1  0  0  0  0
 16 32  1  0  0  0  0
 16 33  1  0  0  0  0
 17 34  1  0  0  0  0
M  END
> <s_m_source_file>
AV-unprocessed.smi

> <i_m_source_file_index>
1581

> <i_lp_mmshare_version>
43012

> <i_f3d_flags>
0

> <s_epik_input>
W0NIM11DKD1PKVtOSF1bQ0gyXWMxW2NIXVtjSF1uYyhbY0hdMSlOMltDSDJdW0NIMl1PW0NIMl1bQ0gyXTI=

> <s_epik_cmdline>
J2VwaWtfcHl0aG9uJywgJy1waCcsICc3LjAnLCAnLXRuJywgJzgnLCAnLW1hJywgJzIwMCcsICctbWV0YWxfYmluZGluZycsICctaW1hZScsICc8aW5maWxlLm1hZT4nLCAnLW9tYWUnLCAnPG91dGZpbGUubWFlPic=

> <r_lp_tautomer_probability>
1

> <r_epik_Ionization_Penalty>
0.0056686

> <r_epik_Ionization_Penalty_Charging>
0

> <r_epik_Ionization_Penalty_Neutral>
0.0056686

> <r_epik_State_Penalty>
0.00415614

> <r_epik_Charging_Adjusted_Penalty>
0.00415614

> <i_epik_Tot_Q>
0

> <i_epik_Tot_abs_Q>
0

> <r_epik_Metal_State_Penalty>
-0

> <b_epik_Metal_Only>
0

> <s_lp_Force_Field>
OPLS_2005

> <r_lp_Energy>
12.8791

> <b_lp_Chiralities_Consistent>
1

> <s_lp_Variant>
AV-unprocessed.smi:1581-1

> <Gold.Version>
5.8.1

> <Gold.Id.Protein>
6NUR|6NUR_protein|mol2

> <Gold.PLP.Fitness>
41.9371

> <Gold.PLP.PLP>
-35.9970

> <Gold.PLP.part.hbond>
-2.0000

> <Gold.PLP.part.metal>
0.0000

> <Gold.PLP.part.buried>
-2.4472

> <Gold.PLP.part.nonpolar>
-31.8595

> <Gold.PLP.part.repulsive>
0.2421

> <Gold.PLP.ligand.clash>
0.0000

> <Gold.PLP.ligand.torsion>
0.1731

> <Gold.PLP.Chemscore.Hbond>
1.9913

> <Gold.PLP.Chemscore.CHOScore>
0.0000

> <Gold.PLP.Chemscore.Metal>
0.0000

> <Gold.Chemscore.Hbonds>
donor molecule, donor type, donor heavy atom, donor atom, acceptor molecule, acceptor atom, score
      L1  H     4    21       P1  7957  1.00
      P1  H  7997  8010       L1     9  0.89

> <Gold.PLP.Chemscore.Internal.Correction>
0.3126

> <Gold.Rescore>
     Score         DG    S(hbond)    S(metal)    S(lipo)     H(rot)  DE(clash)    DE(int)     intcor
     17.35     -17.84       1.88        0.00      85.92       1.54       0.33       0.16       ----

> <Gold.Chemscore.Fitness>
17.3513

> <Gold.Chemscore.DG>
-17.8413

> <Gold.Chemscore.ZeroCoef>
-5.4800

> <Gold.Chemscore.Hbond>
1.8753

> <Gold.Chemscore.Metal>
0.0000

> <Gold.Chemscore.Lipo>
85.9166

> <Gold.Chemscore.Internal_Hbond>
0.0000

> <Gold.Chemscore.DEClash>
0.3314

> <Gold.Chemscore.DEInternal>
0.1587

> <Gold.Chemscore.Rot>
1.5448

> <Gold.Chemscore.Internal.Correction>
   9.000000E+99

> <Gold.Chemscore.Hbonds>
donor molecule, donor type, donor heavy atom, donor atom, acceptor molecule, acceptor atom, score
      L1  H     4    21       P1  7957  1.00
      P1  H  7997  8010       L1     9  0.66

> <Gold.Chemscore.Hbond.Weighted>
-6.2637

> <Gold.Chemscore.Metal.Weighted>
-0.0000

> <Gold.Chemscore.Lipo.Weighted>
-10.0522

> <Gold.Chemscore.Internal_Hbond.Weighted>
0.0000

> <Gold.Chemscore.DEClash.Weighted>
0.3314

> <Gold.Chemscore.DEInternal.Weighted>
0.1587

> <Gold.Chemscore.Rot.Weighted>
3.9546

> <Gold.Chemscore.Internal.Correction.Weighted>
   9.000000E+99

> <Gold.Protein.RotatedTorsions>
[ 6907 6896 6895 6894 ] final   38.92 input  -60.11 | X-H torsion
[ 7974 7965 7964 7962 ] final  -76.07 input  175.53 | X-H torsion
[ 8008 7997 7996 7995 ] final   74.09 input   59.86 | X-H torsion
[ 10167 10162 10161 10158 ] final  -20.86 input  -65.29 | X-H torsion
[ 10718 10713 10712 10709 ] final  -13.30 input   66.30 | X-H torsion
[ 10763 10752 10751 10750 ] final   26.69 input  -60.55 | X-H torsion
[ 11005 11000 10999 10996 ] final  -52.26 input  -57.11 | X-H torsion

> <Gold.Protein.ActiveResidues>
 VAL166  LYS551  ARG553  GLY616  TRP617  ASP618  TYR619  PRO620  LYS621  CYS622 
 ASP623  PHE694  ASN695  SER759  ASP760  ASP761  ALA762  ILE779  LEU786  VAL792 
 PHE793  MET794  SER795  GLU796  ALA797  LYS798  CYS799  TRP800  GLU811  SER814 

> <Gold.Protein.RotatedAtoms>
  152.1628  134.8898  160.0540 H   0  0  0  0  0  0  0  0  0  0  0  0  # atno 6907 bound_to 6896
  151.9888  133.3778  159.4144 H   0  0  0  0  0  0  0  0  0  0  0  0  # atno 6908 bound_to 6896
  150.6890  134.3882  159.5108 H   0  0  0  0  0  0  0  0  0  0  0  0  # atno 6909 bound_to 6896
  145.6177  140.9371  143.1155 H   0  0  0  0  0  0  0  0  0  0  0  0  # atno 7974 bound_to 7965
  155.7933  140.3478  155.5361 H   0  0  0  0  0  0  0  0  0  0  0  0  # atno 8008 bound_to 7997
  155.8612  140.0971  157.1632 H   0  0  0  0  0  0  0  0  0  0  0  0  # atno 8009 bound_to 7997
  154.4012  140.1358  156.3950 H   0  0  0  0  0  0  0  0  0  0  0  0  # atno 8010 bound_to 7997
  140.7279  143.4683  151.0283 H   0  0  0  0  0  0  0  0  0  0  0  0  # atno 10167 bound_to 10162
  156.6323  130.4905  149.6125 H   0  0  0  0  0  0  0  0  0  0  0  0  # atno 10718 bound_to 10713
  153.0605  135.6554  154.0473 H   0  0  0  0  0  0  0  0  0  0  0  0  # atno 10763 bound_to 10752
  154.0142  135.2925  155.3390 H   0  0  0  0  0  0  0  0  0  0  0  0  # atno 10764 bound_to 10752
  154.6942  135.5271  153.8502 H   0  0  0  0  0  0  0  0  0  0  0  0  # atno 10765 bound_to 10752
  141.0915  133.6632  156.3998 H   0  0  0  0  0  0  0  0  0  0  0  0  # atno 11005 bound_to 11000
  144.7244  139.7924  143.7370 LP  0  0  0  0  0  0  0  0  0  0  0  0  # atno 17320 bound_to 7965
  146.1455  139.4524  143.0081 LP  0  0  0  0  0  0  0  0  0  0  0  0  # atno 17321 bound_to 7965
  139.8373  143.7611  152.3180 LP  0  0  0  0  0  0  0  0  0  0  0  0  # atno 17342 bound_to 10162
  139.7747  144.7465  151.0173 LP  0  0  0  0  0  0  0  0  0  0  0  0  # atno 17343 bound_to 10162
  156.2225  130.6746  151.1382 LP  0  0  0  0  0  0  0  0  0  0  0  0  # atno 17370 bound_to 10713
  157.7196  131.0689  150.6189 LP  0  0  0  0  0  0  0  0  0  0  0  0  # atno 17371 bound_to 10713
  140.5241  134.6276  157.5328 LP  0  0  0  0  0  0  0  0  0  0  0  0  # atno 17394 bound_to 11000
  139.9742  134.7243  155.9982 LP  0  0  0  0  0  0  0  0  0  0  0  0  # atno 17395 bound_to 11000

$$$$
