AV-unprocessed.smi:3209|AV-procd|sdf|12269|dock2
  -GOLD-   2272018103D 1   1.00000     0.00000
 Structure written by MMmdl.
 37 39  0  0  0  0  0  0  0  0  2 V2000
  145.9610  142.8160  154.7269 C   0  0  0  0  0  0  0  0  0  0  0  0
  147.1088  141.9034  154.4591 C   0  0  0  0  0  0  0  0  0  0  0  0
  148.2210  141.8780  155.1983 N   0  0  0  0  0  0  0  0  0  0  0  0
  149.1503  140.9382  154.7419 C   0  0  0  0  0  0  0  0  0  0  0  0
  150.4585  140.7781  155.4551 C   0  0  0  0  0  0  0  0  0  0  0  0
  150.3993  141.2934  156.8993 C   0  0  0  0  0  0  0  0  0  0  0  0
  150.6949  142.7394  156.9593 N   0  3  0  0  0  0  0  0  0  0  0  0
  150.8141  143.2864  158.3286 C   0  0  1  0  0  0  0  0  0  0  0  0
  151.9692  142.6387  159.1276 C   0  0  0  0  0  0  0  0  0  0  0  0
  152.8349  143.8487  159.5234 C   0  0  2  0  0  0  0  0  0  0  0  0
  152.0844  144.7061  160.5594 C   0  0  0  0  0  0  0  0  0  0  0  0
  150.9813  145.3711  159.7140 C   0  0  0  0  0  0  0  0  0  0  0  0
  151.2210  144.7762  158.3133 C   0  0  1  0  0  0  0  0  0  0  0  0
  152.7452  144.7121  158.2713 C   0  0  0  0  0  0  0  0  0  0  0  0
  148.7189  140.2412  153.6406 C   0  0  0  0  0  0  0  0  0  0  0  0
  147.1295  140.7454  153.1348 S   0  0  0  0  0  0  0  0  0  0  0  0
  146.2318  143.5668  155.4699 H   0  0  0  0  0  0  0  0  0  0  0  0
  145.1108  142.2447  155.0994 H   0  0  0  0  0  0  0  0  0  0  0  0
  145.6669  143.3251  153.8090 H   0  0  0  0  0  0  0  0  0  0  0  0
  150.7540  139.7281  155.4551 H   0  0  0  0  0  0  0  0  0  0  0  0
  151.2416  141.3088  154.9117 H   0  0  0  0  0  0  0  0  0  0  0  0
  149.4084  141.1153  157.3193 H   0  0  0  0  0  0  0  0  0  0  0  0
  151.1136  140.7470  157.5164 H   0  0  0  0  0  0  0  0  0  0  0  0
  151.5537  142.9248  156.4612 H   0  0  0  0  0  0  0  0  0  0  0  0
  149.8579  143.1627  158.8396 H   0  0  0  0  0  0  0  0  0  0  0  0
  151.6118  142.0841  159.9961 H   0  0  0  0  0  0  0  0  0  0  0  0
  152.5502  141.9498  158.5123 H   0  0  0  0  0  0  0  0  0  0  0  0
  153.8470  143.5812  159.8279 H   0  0  0  0  0  0  0  0  0  0  0  0
  151.6796  144.1065  161.3758 H   0  0  0  0  0  0  0  0  0  0  0  0
  152.7426  145.4607  160.9922 H   0  0  0  0  0  0  0  0  0  0  0  0
  149.9805  145.1610  160.0932 H   0  0  0  0  0  0  0  0  0  0  0  0
  151.1108  146.4542  159.7009 H   0  0  0  0  0  0  0  0  0  0  0  0
  150.7581  145.3572  157.5147 H   0  0  0  0  0  0  0  0  0  0  0  0
  153.2232  145.6870  158.3837 H   0  0  0  0  0  0  0  0  0  0  0  0
  153.1370  144.2229  157.3778 H   0  0  0  0  0  0  0  0  0  0  0  0
  149.2363  139.4650  153.0961 H   0  0  0  0  0  0  0  0  0  0  0  0
  149.9417  143.2255  156.4938 H   0  0  0  0  0  0  0  0  0  0  0  0
  1  2  1  0  0  0  0
  1 17  1  0  0  0  0
  1 18  1  0  0  0  0
  1 19  1  0  0  0  0
  2 16  1  0  0  0  0
  2  3  2  0  0  0  0
  3  4  1  0  0  0  0
  4  5  1  0  0  0  0
  4 15  2  0  0  0  0
  5  6  1  0  0  0  0
  5 20  1  0  0  0  0
  5 21  1  0  0  0  0
  6  7  1  0  0  0  0
  6 22  1  0  0  0  0
  6 23  1  0  0  0  0
  7  8  1  0  0  0  0
  7 24  1  0  0  0  0
  7 37  1  0  0  0  0
  8 13  1  0  0  0  0
  8  9  1  0  0  0  0
  8 25  1  0  0  0  0
  9 10  1  0  0  0  0
  9 26  1  0  0  0  0
  9 27  1  0  0  0  0
 10 14  1  0  0  0  0
 10 11  1  0  0  0  0
 10 28  1  0  0  0  0
 11 12  1  0  0  0  0
 11 29  1  0  0  0  0
 11 30  1  0  0  0  0
 12 13  1  0  0  0  0
 12 31  1  0  0  0  0
 12 32  1  0  0  0  0
 13 14  1  0  0  0  0
 13 33  1  0  0  0  0
 14 34  1  0  0  0  0
 14 35  1  0  0  0  0
 15 16  1  0  0  0  0
 15 36  1  0  0  0  0
M  CHG  1   7   1
M  END
> <s_m_source_file>
AV-unprocessed.smi

> <i_m_source_file_index>
3209

> <i_lp_mmshare_version>
43012

> <i_f3d_flags>
0

> <s_epik_input>
W0NIM11jMW5jKFtjSF1zMSlbQ0gyXVtDSDJdW05IXVtDQEhdKFtDSDJdW0NASF0yMylbQ0BIXShbQ0gyXTMpW0NIMl1bQ0gyXTI=

> <s_epik_cmdline>
J2VwaWtfcHl0aG9uJywgJy1waCcsICc3LjAnLCAnLXRuJywgJzgnLCAnLW1hJywgJzIwMCcsICctbWV0YWxfYmluZGluZycsICctaW1hZScsICc8aW5maWxlLm1hZT4nLCAnLW9tYWUnLCAnPG91dGZpbGUubWFlPic=

> <r_lp_tautomer_probability>
1

> <r_epik_Ionization_Penalty>
0.000342479

> <r_epik_Ionization_Penalty_Charging>
0.000317129

> <r_epik_Ionization_Penalty_Neutral>
2.535e-05

> <r_epik_State_Penalty>
-0

> <r_epik_Charging_Adjusted_Penalty>
0.000317129

> <i_epik_Tot_Q>
1

> <i_epik_Tot_abs_Q>
1

> <r_epik_Metal_State_Penalty>
-0

> <b_epik_Metal_Only>
0

> <s_lp_Force_Field>
OPLS_2005

> <r_lp_Energy>
48.296

> <b_lp_Chiralities_Consistent>
1

> <s_lp_Variant>
AV-unprocessed.smi:3209-2

> <Gold.Version>
5.8.1

> <Gold.Id.Protein>
6NUR|6NUR_protein|mol2

> <Gold.PLP.Fitness>
49.2441

> <Gold.PLP.PLP>
-42.2656

> <Gold.PLP.part.hbond>
-1.0000

> <Gold.PLP.part.metal>
0.0000

> <Gold.PLP.part.buried>
-2.2125

> <Gold.PLP.part.nonpolar>
-40.2086

> <Gold.PLP.part.repulsive>
1.5077

> <Gold.PLP.ligand.clash>
0.0000

> <Gold.PLP.ligand.torsion>
0.4846

> <Gold.PLP.Chemscore.Hbond>
2.0000

> <Gold.PLP.Chemscore.CHOScore>
0.6433

> <Gold.PLP.Chemscore.Metal>
0.0000

> <Gold.Chemscore.Hbonds>
donor molecule, donor type, donor heavy atom, donor atom, acceptor molecule, acceptor atom, score
      L1  H     7    37       P1  8028  2.00
      L1  C    15    36       P1  7957  0.63

> <Gold.PLP.Chemscore.Internal.Correction>
0.0179

> <Gold.Rescore>
     Score         DG    S(hbond)    S(metal)    S(lipo)     H(rot)  DE(clash)    DE(int)     intcor
     18.91     -19.61       0.96        0.00     122.00       1.31       0.21       0.49       ----

> <Gold.Chemscore.Fitness>
18.9098

> <Gold.Chemscore.DG>
-19.6120

> <Gold.Chemscore.ZeroCoef>
-5.4800

> <Gold.Chemscore.Hbond>
0.9623

> <Gold.Chemscore.Metal>
0.0000

> <Gold.Chemscore.Lipo>
121.9980

> <Gold.Chemscore.Internal_Hbond>
0.0000

> <Gold.Chemscore.DEClash>
0.2076

> <Gold.Chemscore.DEInternal>
0.4946

> <Gold.Chemscore.Rot>
1.3108

> <Gold.Chemscore.Internal.Correction>
   9.000000E+99

> <Gold.Chemscore.Hbonds>
donor molecule, donor type, donor heavy atom, donor atom, acceptor molecule, acceptor atom, score
      L1  H     7    37       P1  8028  0.95

> <Gold.Chemscore.Hbond.Weighted>
-3.2140

> <Gold.Chemscore.Metal.Weighted>
-0.0000

> <Gold.Chemscore.Lipo.Weighted>
-14.2738

> <Gold.Chemscore.Internal_Hbond.Weighted>
0.0000

> <Gold.Chemscore.DEClash.Weighted>
0.2076

> <Gold.Chemscore.DEInternal.Weighted>
0.4946

> <Gold.Chemscore.Rot.Weighted>
3.3558

> <Gold.Chemscore.Internal.Correction.Weighted>
   9.000000E+99

> <Gold.Protein.RotatedTorsions>
[ 6907 6896 6895 6894 ] final  117.61 input  -60.11 | X-H torsion
[ 7974 7965 7964 7962 ] final -150.65 input  175.53 | X-H torsion
[ 8008 7997 7996 7995 ] final   37.05 input   59.86 | X-H torsion
[ 10167 10162 10161 10158 ] final  151.67 input  -65.29 | X-H torsion
[ 10718 10713 10712 10709 ] final  172.40 input   66.30 | X-H torsion
[ 10763 10752 10751 10750 ] final  -72.38 input  -60.55 | X-H torsion
[ 11005 11000 10999 10996 ] final   95.28 input  -57.11 | X-H torsion

> <Gold.Protein.ActiveResidues>
 VAL166  LYS551  ARG553  GLY616  TRP617  ASP618  TYR619  PRO620  LYS621  CYS622 
 ASP623  PHE694  ASN695  SER759  ASP760  ASP761  ALA762  ILE779  LEU786  VAL792 
 PHE793  MET794  SER795  GLU796  ALA797  LYS798  CYS799  TRP800  GLU811  SER814 

> <Gold.Protein.RotatedAtoms>
  152.4600  133.7803  159.6846 H   0  0  0  0  0  0  0  0  0  0  0  0  # atno 6907 bound_to 6896
  150.8541  133.7732  159.3021 H   0  0  0  0  0  0  0  0  0  0  0  0  # atno 6908 bound_to 6896
  151.5319  135.1071  159.9956 H   0  0  0  0  0  0  0  0  0  0  0  0  # atno 6909 bound_to 6896
  144.7895  140.4903  143.5783 H   0  0  0  0  0  0  0  0  0  0  0  0  # atno 7974 bound_to 7965
  155.1974  140.3313  155.4348 H   0  0  0  0  0  0  0  0  0  0  0  0  # atno 8008 bound_to 7997
  156.2420  140.1899  156.7013 H   0  0  0  0  0  0  0  0  0  0  0  0  # atno 8009 bound_to 7997
  154.6165  140.0601  156.9546 H   0  0  0  0  0  0  0  0  0  0  0  0  # atno 8010 bound_to 7997
  139.4838  144.5421  151.7546 H   0  0  0  0  0  0  0  0  0  0  0  0  # atno 10167 bound_to 10162
  156.9796  131.0115  151.2885 H   0  0  0  0  0  0  0  0  0  0  0  0  # atno 10718 bound_to 10713
  154.4449  135.5932  153.6153 H   0  0  0  0  0  0  0  0  0  0  0  0  # atno 10763 bound_to 10752
  152.9808  135.6007  154.3677 H   0  0  0  0  0  0  0  0  0  0  0  0  # atno 10764 bound_to 10752
  154.3531  135.2841  155.2340 H   0  0  0  0  0  0  0  0  0  0  0  0  # atno 10765 bound_to 10752
  139.8790  134.8890  156.3987 H   0  0  0  0  0  0  0  0  0  0  0  0  # atno 11005 bound_to 11000
  145.5832  139.1490  143.3223 LP  0  0  0  0  0  0  0  0  0  0  0  0  # atno 17320 bound_to 7965
  146.2141  140.5961  142.9046 LP  0  0  0  0  0  0  0  0  0  0  0  0  # atno 17321 bound_to 7965
  140.4962  144.1236  150.5961 LP  0  0  0  0  0  0  0  0  0  0  0  0  # atno 17342 bound_to 10162
  140.4114  143.2655  151.9828 LP  0  0  0  0  0  0  0  0  0  0  0  0  # atno 17343 bound_to 10162
  157.5536  130.8198  149.8176 LP  0  0  0  0  0  0  0  0  0  0  0  0  # atno 17370 bound_to 10713
  156.0250  130.3782  150.1850 LP  0  0  0  0  0  0  0  0  0  0  0  0  # atno 17371 bound_to 10713
  140.9282  133.7598  155.9991 LP  0  0  0  0  0  0  0  0  0  0  0  0  # atno 17394 bound_to 11000
  140.8361  134.3121  157.5331 LP  0  0  0  0  0  0  0  0  0  0  0  0  # atno 17395 bound_to 11000

$$$$
