AV-unprocessed.smi:44|AV-procd|sdf|398|dock2
  -GOLD-   2262016253D 1   1.00000     0.00000
 Structure written by MMmdl.
 29 31  0  0  0  0  0  0  0  0  1 V2000
  152.7200  137.4519  155.9990 O   0  0  0  0  0  0  0  0  0  0  0  0
  152.4885  138.2880  156.8697 C   0  0  0  0  0  0  0  0  0  0  0  0
  152.7769  138.1076  158.1820 N   0  0  0  0  0  0  0  0  0  0  0  0
  152.5116  139.0679  159.1911 C   0  0  0  0  0  0  0  0  0  0  0  0
  151.9613  140.2375  158.9887 N   0  0  0  0  0  0  0  0  0  0  0  0
  151.6577  140.4460  157.6584 C   0  0  0  0  0  0  0  0  0  0  0  0
  151.8625  139.6034  156.5994 C   0  0  0  0  0  0  0  0  0  0  0  0
  151.4211  140.1692  155.4103 N   0  0  0  0  0  0  0  0  0  0  0  0
  150.9607  141.3515  155.8145 C   0  0  0  0  0  0  0  0  0  0  0  0
  151.0620  141.5906  157.1385 N   0  0  0  0  0  0  0  0  0  0  0  0
  150.6382  142.8090  157.9000 C   0  0  2  0  0  0  0  0  0  0  0  0
  151.6040  143.9578  157.6071 C   0  0  0  0  0  0  0  0  0  0  0  0
  152.6493  143.7478  158.6796 C   0  0  0  0  0  0  0  0  0  0  0  0
  151.7833  143.3114  159.8610 C   0  0  2  0  0  0  0  0  0  0  0  0
  152.5493  142.4956  160.9133 C   0  0  0  0  0  0  0  0  0  0  0  0
  151.8980  142.5831  162.1621 O   0  0  0  0  0  0  0  0  0  0  0  0
  150.7441  142.5303  159.2672 O   0  0  0  0  0  0  0  0  0  0  0  0
  153.2055  137.2335  158.4489 H   0  0  0  0  0  0  0  0  0  0  0  0
  149.6083  142.9901  157.5906 H   0  0  0  0  0  0  0  0  0  0  0  0
  151.3376  144.2009  160.3102 H   0  0  0  0  0  0  0  0  0  0  0  0
  152.8163  138.7351  160.1843 H   0  0  0  0  0  0  0  0  0  0  0  0
  150.5362  142.0617  155.1218 H   0  0  0  0  0  0  0  0  0  0  0  0
  151.9939  143.9242  156.5891 H   0  0  0  0  0  0  0  0  0  0  0  0
  151.0813  144.9033  157.7568 H   0  0  0  0  0  0  0  0  0  0  0  0
  153.3379  142.9539  158.3864 H   0  0  0  0  0  0  0  0  0  0  0  0
  153.2318  144.6455  158.8887 H   0  0  0  0  0  0  0  0  0  0  0  0
  152.6573  141.4533  160.6141 H   0  0  0  0  0  0  0  0  0  0  0  0
  153.5538  142.9002  161.0412 H   0  0  0  0  0  0  0  0  0  0  0  0
  152.3689  142.0510  162.7852 H   0  0  0  0  0  0  0  0  0  0  0  0
  1  2  2  0  0  0  0
  2  7  1  0  0  0  0
  2  3  1  0  0  0  0
  3 18  1  0  0  0  0
  3  4  1  0  0  0  0
  4  5  2  0  0  0  0
  4 21  1  0  0  0  0
  5  6  1  0  0  0  0
  6 10  1  0  0  0  0
  6  7  2  0  0  0  0
  7  8  1  0  0  0  0
  8  9  2  0  0  0  0
  9 10  1  0  0  0  0
  9 22  1  0  0  0  0
 10 11  1  0  0  0  0
 11 19  1  0  0  0  0
 11 17  1  0  0  0  0
 11 12  1  0  0  0  0
 12 13  1  0  0  0  0
 12 23  1  0  0  0  0
 12 24  1  0  0  0  0
 13 14  1  0  0  0  0
 13 25  1  0  0  0  0
 13 26  1  0  0  0  0
 14 20  1  0  0  0  0
 14 15  1  0  0  0  0
 14 17  1  0  0  0  0
 15 16  1  0  0  0  0
 15 27  1  0  0  0  0
 15 28  1  0  0  0  0
 16 29  1  0  0  0  0
M  END
> <s_m_source_file>
AV-unprocessed.smi

> <i_m_source_file_index>
44

> <i_lp_mmshare_version>
43012

> <i_f3d_flags>
0

> <s_epik_input>
bjFbY0hdW25IXWMoPU8pYyhjMTIpbltjSF1uMltDQEhdM1tDSDJdW0NIMl1bQ0BIXShPMylbQ0gyXVtPSF0=

> <s_epik_cmdline>
J2VwaWtfcHl0aG9uJywgJy1waCcsICc3LjAnLCAnLXRuJywgJzgnLCAnLW1hJywgJzIwMCcsICctbWV0YWxfYmluZGluZycsICctaW1hZScsICc8aW5maWxlLm1hZT4nLCAnLW9tYWUnLCAnPG91dGZpbGUubWFlPic=

> <r_lp_tautomer_probability>
0.85571

> <r_epik_Ionization_Penalty>
0.00801444

> <r_epik_Ionization_Penalty_Charging>
0.00794574

> <r_epik_Ionization_Penalty_Neutral>
6.87072e-05

> <r_epik_State_Penalty>
0.0826172

> <r_epik_Charging_Adjusted_Penalty>
0.090563

> <i_epik_Tot_Q>
0

> <i_epik_Tot_abs_Q>
0

> <r_epik_Metal_State_Penalty>
0.440697

> <b_epik_Metal_Only>
0

> <s_epik_Chemistry_Notes>
This compound contains an acetal/aminal-like group ( X-CH(R)-Y where X, Y are N, S, or O) that may be acid/base labile, releasing an aldehyde.

> <s_lp_Force_Field>
OPLS_2005

> <r_lp_Energy>
40.4283

> <b_lp_Chiralities_Consistent>
1

> <s_lp_Variant>
AV-unprocessed.smi:44-4

> <Gold.Version>
5.8.1

> <Gold.Id.Protein>
6NUR|6NUR_protein|mol2

> <Gold.PLP.Fitness>
38.4019

> <Gold.PLP.PLP>
-33.8398

> <Gold.PLP.part.hbond>
-4.7741

> <Gold.PLP.part.metal>
0.0000

> <Gold.PLP.part.buried>
-4.9967

> <Gold.PLP.part.nonpolar>
-25.1630

> <Gold.PLP.part.repulsive>
0.1256

> <Gold.PLP.ligand.clash>
0.0000

> <Gold.PLP.ligand.torsion>
0.5047

> <Gold.PLP.Chemscore.Hbond>
1.8512

> <Gold.PLP.Chemscore.CHOScore>
0.0000

> <Gold.PLP.Chemscore.Metal>
0.0000

> <Gold.Chemscore.Hbonds>
donor molecule, donor type, donor heavy atom, donor atom, acceptor molecule, acceptor atom, score
      P1  H  6933  6945       L1    16  0.98
      P1  H  7989  7998       L1     8  0.53
      P1  H 10752 10763       L1     1  0.34

> <Gold.PLP.Chemscore.Internal.Correction>
0.0179

> <Gold.Rescore>
     Score         DG    S(hbond)    S(metal)    S(lipo)     H(rot)  DE(clash)    DE(int)     intcor
      9.41     -11.28       1.67        0.00      51.69       2.27       0.12       1.75       ----

> <Gold.Chemscore.Fitness>
9.4129

> <Gold.Chemscore.DG>
-11.2800

> <Gold.Chemscore.ZeroCoef>
-5.4800

> <Gold.Chemscore.Hbond>
1.6673

> <Gold.Chemscore.Metal>
0.0000

> <Gold.Chemscore.Lipo>
51.6895

> <Gold.Chemscore.Internal_Hbond>
0.0000

> <Gold.Chemscore.DEClash>
0.1151

> <Gold.Chemscore.DEInternal>
1.7520

> <Gold.Chemscore.Rot>
2.2720

> <Gold.Chemscore.Internal.Correction>
   9.000000E+99

> <Gold.Chemscore.Hbonds>
donor molecule, donor type, donor heavy atom, donor atom, acceptor molecule, acceptor atom, score
      P1  H  6933  6945       L1    16  0.28
      P1  H  7989  7998       L1     8  0.03
      P1  H 10752 10763       L1     1  0.35

> <Gold.Chemscore.Hbond.Weighted>
-5.5688

> <Gold.Chemscore.Metal.Weighted>
-0.0000

> <Gold.Chemscore.Lipo.Weighted>
-6.0477

> <Gold.Chemscore.Internal_Hbond.Weighted>
0.0000

> <Gold.Chemscore.DEClash.Weighted>
0.1151

> <Gold.Chemscore.DEInternal.Weighted>
1.7520

> <Gold.Chemscore.Rot.Weighted>
5.8164

> <Gold.Chemscore.Internal.Correction.Weighted>
   9.000000E+99

> <Gold.Protein.RotatedTorsions>
[ 6907 6896 6895 6894 ] final   92.98 input  -60.11 | X-H torsion
[ 7974 7965 7964 7962 ] final -170.12 input  175.53 | X-H torsion
[ 8008 7997 7996 7995 ] final  168.61 input   59.86 | X-H torsion
[ 10167 10162 10161 10158 ] final  113.81 input  -65.29 | X-H torsion
[ 10718 10713 10712 10709 ] final -101.32 input   66.30 | X-H torsion
[ 10763 10752 10751 10750 ] final   95.42 input  -60.55 | X-H torsion
[ 11005 11000 10999 10996 ] final   58.49 input  -57.11 | X-H torsion

> <Gold.Protein.ActiveResidues>
 VAL166  LYS551  ARG553  GLY616  TRP617  ASP618  TYR619  PRO620  LYS621  CYS622 
 ASP623  PHE694  ASN695  SER759  ASP760  ASP761  ALA762  ILE779  LEU786  VAL792 
 PHE793  MET794  SER795  GLU796  ALA797  LYS798  CYS799  TRP800  GLU811  SER814 

> <Gold.Protein.RotatedAtoms>
  152.5453  134.1419  159.8482 H   0  0  0  0  0  0  0  0  0  0  0  0  # atno 6907 bound_to 6896
  151.1454  133.4936  159.2603 H   0  0  0  0  0  0  0  0  0  0  0  0  # atno 6908 bound_to 6896
  151.1528  135.0246  159.8731 H   0  0  0  0  0  0  0  0  0  0  0  0  # atno 6909 bound_to 6896
  144.7175  140.2119  143.6326 H   0  0  0  0  0  0  0  0  0  0  0  0  # atno 7974 bound_to 7965
  156.1531  140.1586  156.8737 H   0  0  0  0  0  0  0  0  0  0  0  0  # atno 8008 bound_to 7997
  154.5090  140.0806  156.7988 H   0  0  0  0  0  0  0  0  0  0  0  0  # atno 8009 bound_to 7997
  155.3856  140.3407  155.4251 H   0  0  0  0  0  0  0  0  0  0  0  0  # atno 8010 bound_to 7997
  139.6434  144.7125  151.2191 H   0  0  0  0  0  0  0  0  0  0  0  0  # atno 10167 bound_to 10162
  156.0191  130.5368  150.6946 H   0  0  0  0  0  0  0  0  0  0  0  0  # atno 10718 bound_to 10713
  153.2530  135.4254  155.0817 H   0  0  0  0  0  0  0  0  0  0  0  0  # atno 10763 bound_to 10752
  154.8389  135.3430  154.6485 H   0  0  0  0  0  0  0  0  0  0  0  0  # atno 10764 bound_to 10752
  153.6907  135.7034  153.5148 H   0  0  0  0  0  0  0  0  0  0  0  0  # atno 10765 bound_to 10752
  140.0373  134.5924  155.9427 H   0  0  0  0  0  0  0  0  0  0  0  0  # atno 11005 bound_to 11000
  145.8582  139.2209  143.1732 LP  0  0  0  0  0  0  0  0  0  0  0  0  # atno 17320 bound_to 7965
  146.0198  140.8359  142.9929 LP  0  0  0  0  0  0  0  0  0  0  0  0  # atno 17321 bound_to 7965
  140.7502  143.6273  150.8457 LP  0  0  0  0  0  0  0  0  0  0  0  0  # atno 17342 bound_to 10162
  139.9913  143.5844  152.2909 LP  0  0  0  0  0  0  0  0  0  0  0  0  # atno 17343 bound_to 10162
  157.4620  131.0884  151.0735 LP  0  0  0  0  0  0  0  0  0  0  0  0  # atno 17370 bound_to 10713
  157.1220  130.6066  149.5507 LP  0  0  0  0  0  0  0  0  0  0  0  0  # atno 17371 bound_to 10713
  141.1864  133.6557  156.5239 LP  0  0  0  0  0  0  0  0  0  0  0  0  # atno 17394 bound_to 11000
  140.4126  134.7259  157.4844 LP  0  0  0  0  0  0  0  0  0  0  0  0  # atno 17395 bound_to 11000

$$$$
