AV-unprocessed.smi:1887|AV-procd|sdf|7656|dock1
  -GOLD-   22720 9393D 1   1.00000     0.00000
 Structure written by MMmdl.
 43 45  0  0  0  0  0  0  0  0  2 V2000
  150.5561  132.5716  156.8471 C   0  0  0  0  0  0  0  0  0  0  0  0
  149.8972  133.6445  157.4946 O   0  0  0  0  0  0  0  0  0  0  0  0
  148.5944  133.8743  156.9847 C   0  0  0  0  0  0  0  0  0  0  0  0
  148.0396  135.1833  157.5629 C   0  0  0  0  0  0  0  0  0  0  0  0
  149.0906  136.0177  158.1411 N   0  0  0  0  0  0  0  0  0  0  0  0
  149.1770  136.4924  159.4106 C   0  0  0  0  0  0  0  0  0  0  0  0
  148.1926  136.2013  160.3780 N   0  0  0  0  0  0  0  0  0  0  0  0
  147.6181  137.1999  161.0801 N   0  0  0  0  0  0  0  0  0  0  0  0
  146.7669  136.5976  161.8929 C   0  0  0  0  0  0  0  0  0  0  0  0
  145.9321  137.4335  162.8198 C   0  0  0  0  0  0  0  0  0  0  0  0
  146.7836  135.1796  161.7445 C   0  0  0  0  0  0  0  0  0  0  0  0
  145.9595  134.1706  162.4965 C   0  0  0  0  0  0  0  0  0  0  0  0
  147.7167  134.9622  160.7666 C   0  0  0  0  0  0  0  0  0  0  0  0
  148.2045  133.6838  160.1608 C   0  0  0  0  0  0  0  0  0  0  0  0
  150.2677  137.2160  159.6701 N   0  0  0  0  0  0  0  0  0  0  0  0
  150.9351  137.2047  158.4537 C   0  0  0  0  0  0  0  0  0  0  0  0
  150.2524  136.4859  157.5216 C   0  0  0  0  0  0  0  0  0  0  0  0
  150.7245  136.2724  156.1365 C   0  0  0  0  0  0  0  0  0  0  0  0
  150.0696  135.6044  155.3387 O   0  0  0  0  0  0  0  0  0  0  0  0
  151.9266  136.8875  155.9003 N   0  5  0  0  0  0  0  0  0  0  0  0
  152.6521  137.6247  156.8116 C   0  0  0  0  0  0  0  0  0  0  0  0
  153.7315  138.1405  156.5181 O   0  0  0  0  0  0  0  0  0  0  0  0
  152.1741  137.7964  158.0846 N   0  0  0  0  0  0  0  0  0  0  0  0
  152.9251  138.5733  159.0748 C   0  0  0  0  0  0  0  0  0  0  0  0
  151.5471  132.4379  157.2806 H   0  0  0  0  0  0  0  0  0  0  0  0
  150.6786  132.7708  155.7818 H   0  0  0  0  0  0  0  0  0  0  0  0
  150.0052  131.6383  156.9696 H   0  0  0  0  0  0  0  0  0  0  0  0
  148.6218  133.9264  155.8954 H   0  0  0  0  0  0  0  0  0  0  0  0
  147.9397  133.0446  157.2544 H   0  0  0  0  0  0  0  0  0  0  0  0
  147.5167  135.7509  156.7943 H   0  0  0  0  0  0  0  0  0  0  0  0
  147.2867  134.9606  158.3170 H   0  0  0  0  0  0  0  0  0  0  0  0
  145.4708  136.8271  163.5991 H   0  0  0  0  0  0  0  0  0  0  0  0
  145.1330  137.9377  162.2763 H   0  0  0  0  0  0  0  0  0  0  0  0
  146.5343  138.1976  163.3121 H   0  0  0  0  0  0  0  0  0  0  0  0
  146.3553  133.1599  162.3969 H   0  0  0  0  0  0  0  0  0  0  0  0
  144.9302  134.1494  162.1387 H   0  0  0  0  0  0  0  0  0  0  0  0
  145.9256  134.3915  163.5632 H   0  0  0  0  0  0  0  0  0  0  0  0
  147.4305  132.9172  160.1902 H   0  0  0  0  0  0  0  0  0  0  0  0
  149.0726  133.3095  160.7031 H   0  0  0  0  0  0  0  0  0  0  0  0
  148.4924  133.8175  159.1180 H   0  0  0  0  0  0  0  0  0  0  0  0
  153.1260  139.5790  158.7030 H   0  0  0  0  0  0  0  0  0  0  0  0
  153.8798  138.0915  159.2896 H   0  0  0  0  0  0  0  0  0  0  0  0
  152.3912  138.6798  160.0189 H   0  0  0  0  0  0  0  0  0  0  0  0
  1  2  1  0  0  0  0
  1 25  1  0  0  0  0
  1 26  1  0  0  0  0
  1 27  1  0  0  0  0
  2  3  1  0  0  0  0
  3  4  1  0  0  0  0
  3 28  1  0  0  0  0
  3 29  1  0  0  0  0
  4  5  1  0  0  0  0
  4 30  1  0  0  0  0
  4 31  1  0  0  0  0
  5 17  1  0  0  0  0
  5  6  1  0  0  0  0
  6  7  1  0  0  0  0
  6 15  2  0  0  0  0
  7 13  1  0  0  0  0
  7  8  1  0  0  0  0
  8  9  2  0  0  0  0
  9 10  1  0  0  0  0
  9 11  1  0  0  0  0
 10 32  1  0  0  0  0
 10 33  1  0  0  0  0
 10 34  1  0  0  0  0
 11 12  1  0  0  0  0
 11 13  2  0  0  0  0
 12 35  1  0  0  0  0
 12 36  1  0  0  0  0
 12 37  1  0  0  0  0
 13 14  1  0  0  0  0
 14 38  1  0  0  0  0
 14 39  1  0  0  0  0
 14 40  1  0  0  0  0
 15 16  1  0  0  0  0
 16 23  1  0  0  0  0
 16 17  2  0  0  0  0
 17 18  1  0  0  0  0
 18 19  2  0  0  0  0
 18 20  1  0  0  0  0
 20 21  1  0  0  0  0
 21 22  2  0  0  0  0
 21 23  1  0  0  0  0
 23 24  1  0  0  0  0
 24 41  1  0  0  0  0
 24 42  1  0  0  0  0
 24 43  1  0  0  0  0
M  CHG  1  20  -1
M  END
> <s_m_source_file>
AV-unprocessed.smi

> <i_m_source_file_index>
1887

> <i_lp_mmshare_version>
43012

> <i_f3d_flags>
0

> <s_epik_input>
W0NIM11uMWMoPU8pW25IXWMoPU8pYyhjMTIpbihbQ0gyXVtDSDJdT1tDSDNdKWMobjIpLW4zbmMoW0NIM10pYyhbQ0gzXSljM1tDSDNd

> <s_epik_cmdline>
J2VwaWtfcHl0aG9uJywgJy1waCcsICc3LjAnLCAnLXRuJywgJzgnLCAnLW1hJywgJzIwMCcsICctbWV0YWxfYmluZGluZycsICctaW1hZScsICc8aW5maWxlLm1hZT4nLCAnLW9tYWUnLCAnPG91dGZpbGUubWFlPic=

> <r_lp_tautomer_probability>
1

> <r_epik_Ionization_Penalty>
3.98818

> <r_epik_Ionization_Penalty_Charging>
0.0180637

> <r_epik_Ionization_Penalty_Neutral>
3.97012

> <r_epik_State_Penalty>
3.96767

> <r_epik_Charging_Adjusted_Penalty>
3.98573

> <i_epik_Tot_Q>
-1

> <i_epik_Tot_abs_Q>
1

> <r_epik_Metal_State_Penalty>
0.612715

> <b_epik_Metal_Only>
1

> <s_lp_Force_Field>
OPLS_2005

> <r_lp_Energy>
28.3599

> <b_lp_Chiralities_Consistent>
1

> <s_lp_Variant>
AV-unprocessed.smi:1887-2

> <Gold.Version>
5.8.1

> <Gold.Id.Protein>
6NUR|6NUR_protein|mol2

> <Gold.PLP.Fitness>
45.5953

> <Gold.PLP.PLP>
-31.3070

> <Gold.PLP.part.hbond>
-5.7649

> <Gold.PLP.part.metal>
0.0000

> <Gold.PLP.part.buried>
-5.4978

> <Gold.PLP.part.nonpolar>
-20.4230

> <Gold.PLP.part.repulsive>
0.1424

> <Gold.PLP.ligand.clash>
0.0000

> <Gold.PLP.ligand.torsion>
1.3149

> <Gold.PLP.Chemscore.Hbond>
5.4515

> <Gold.PLP.Chemscore.CHOScore>
0.0000

> <Gold.PLP.Chemscore.Metal>
0.0000

> <Gold.Chemscore.Hbonds>
donor molecule, donor type, donor heavy atom, donor atom, acceptor molecule, acceptor atom, score
      P1  H  6896  6908       L1     2  1.00
      P1  H  6931  6943       L1     8  0.90
      P1  H  6934  6947       L1     8  0.91
      P1  H  7997  8009       L1    22  0.64
      P1  H 10752 10764       L1    20  2.00

> <Gold.PLP.Chemscore.Internal.Correction>
0.5637

> <Gold.Rescore>
     Score         DG    S(hbond)    S(metal)    S(lipo)     H(rot)  DE(clash)    DE(int)     intcor
     12.24     -18.05       2.84        0.00      58.79       1.48       0.05       5.76       ----

> <Gold.Chemscore.Fitness>
12.2360

> <Gold.Chemscore.DG>
-18.0481

> <Gold.Chemscore.ZeroCoef>
-5.4800

> <Gold.Chemscore.Hbond>
2.8402

> <Gold.Chemscore.Metal>
0.0000

> <Gold.Chemscore.Lipo>
58.7929

> <Gold.Chemscore.Internal_Hbond>
0.0000

> <Gold.Chemscore.DEClash>
0.0471

> <Gold.Chemscore.DEInternal>
5.7650

> <Gold.Chemscore.Rot>
1.4832

> <Gold.Chemscore.Internal.Correction>
   9.000000E+99

> <Gold.Chemscore.Hbonds>
donor molecule, donor type, donor heavy atom, donor atom, acceptor molecule, acceptor atom, score
      P1  H  6896  6908       L1     2  0.43
      P1  H  6931  6943       L1     8  0.54
      P1  H  6934  6947       L1     8  0.67
      P1  H  7997  8009       L1    22  0.60
      P1  H 10752 10764       L1    20  0.42

> <Gold.Chemscore.Hbond.Weighted>
-9.4863

> <Gold.Chemscore.Metal.Weighted>
-0.0000

> <Gold.Chemscore.Lipo.Weighted>
-6.8788

> <Gold.Chemscore.Internal_Hbond.Weighted>
0.0000

> <Gold.Chemscore.DEClash.Weighted>
0.0471

> <Gold.Chemscore.DEInternal.Weighted>
5.7650

> <Gold.Chemscore.Rot.Weighted>
3.7970

> <Gold.Chemscore.Internal.Correction.Weighted>
   9.000000E+99

> <Gold.Protein.RotatedTorsions>
[ 6907 6896 6895 6894 ] final  118.41 input  -60.11 | X-H torsion
[ 7974 7965 7964 7962 ] final -162.36 input  175.53 | X-H torsion
[ 8008 7997 7996 7995 ] final -171.90 input   59.86 | X-H torsion
[ 10167 10162 10161 10158 ] final  156.99 input  -65.29 | X-H torsion
[ 10718 10713 10712 10709 ] final  157.34 input   66.30 | X-H torsion
[ 10763 10752 10751 10750 ] final  -38.13 input  -60.55 | X-H torsion
[ 11005 11000 10999 10996 ] final   58.81 input  -57.11 | X-H torsion

> <Gold.Protein.ActiveResidues>
 VAL166  LYS551  ARG553  GLY616  TRP617  ASP618  TYR619  PRO620  LYS621  CYS622 
 ASP623  PHE694  ASN695  SER759  ASP760  ASP761  ALA762  ILE779  LEU786  VAL792 
 PHE793  MET794  SER795  GLU796  ALA797  LYS798  CYS799  TRP800  GLU811  SER814 

> <Gold.Protein.RotatedAtoms>
  152.4545  133.7695  159.6790 H   0  0  0  0  0  0  0  0  0  0  0  0  # atno 6907 bound_to 6896
  150.8467  133.7841  159.3047 H   0  0  0  0  0  0  0  0  0  0  0  0  # atno 6908 bound_to 6896
  151.5449  135.1071  159.9987 H   0  0  0  0  0  0  0  0  0  0  0  0  # atno 6909 bound_to 6896
  144.7360  140.3264  143.6161 H   0  0  0  0  0  0  0  0  0  0  0  0  # atno 7974 bound_to 7965
  155.9376  140.1103  157.1081 H   0  0  0  0  0  0  0  0  0  0  0  0  # atno 8008 bound_to 7997
  154.4083  140.1225  156.4951 H   0  0  0  0  0  0  0  0  0  0  0  0  # atno 8009 bound_to 7997
  155.7002  140.3472  155.4932 H   0  0  0  0  0  0  0  0  0  0  0  0  # atno 8010 bound_to 7997
  139.4822  144.4958  151.8242 H   0  0  0  0  0  0  0  0  0  0  0  0  # atno 10167 bound_to 10162
  157.1927  131.0658  151.2070 H   0  0  0  0  0  0  0  0  0  0  0  0  # atno 10718 bound_to 10713
  153.9078  135.6795  153.4752 H   0  0  0  0  0  0  0  0  0  0  0  0  # atno 10763 bound_to 10752
  153.1095  135.4790  154.9007 H   0  0  0  0  0  0  0  0  0  0  0  0  # atno 10764 bound_to 10752
  154.7543  135.3193  154.8455 H   0  0  0  0  0  0  0  0  0  0  0  0  # atno 10765 bound_to 10752
  140.0350  134.5956  155.9456 H   0  0  0  0  0  0  0  0  0  0  0  0  # atno 11005 bound_to 11000
  145.7517  139.1796  143.2318 LP  0  0  0  0  0  0  0  0  0  0  0  0  # atno 17320 bound_to 7965
  146.1056  140.7491  142.9528 LP  0  0  0  0  0  0  0  0  0  0  0  0  # atno 17321 bound_to 7965
  140.4446  144.1939  150.5893 LP  0  0  0  0  0  0  0  0  0  0  0  0  # atno 17342 bound_to 10162
  140.4647  143.2435  151.9171 LP  0  0  0  0  0  0  0  0  0  0  0  0  # atno 17343 bound_to 10162
  157.3844  130.7248  149.6653 LP  0  0  0  0  0  0  0  0  0  0  0  0  # atno 17370 bound_to 10713
  155.9710  130.4163  150.4226 LP  0  0  0  0  0  0  0  0  0  0  0  0  # atno 17371 bound_to 10713
  141.1852  133.6554  156.5189 LP  0  0  0  0  0  0  0  0  0  0  0  0  # atno 17394 bound_to 11000
  140.4162  134.7228  157.4864 LP  0  0  0  0  0  0  0  0  0  0  0  0  # atno 17395 bound_to 11000

$$$$
