AV-unprocessed.smi:2062|AV-procd|sdf|8403|dock3
  -GOLD-   2272011 93D 1   1.00000     0.00000
 Structure written by MMmdl.
 42 43  0  0  0  0  0  0  0  0  3 V2000
  146.1120  134.5668  150.6759 C   0  0  0  0  0  0  0  0  0  0  0  0
  147.0591  133.3578  150.6704 C   0  0  0  0  0  0  0  0  0  0  0  0
  146.6405  132.3550  149.5820 C   0  0  0  0  0  0  0  0  0  0  0  0
  147.1130  132.7042  152.0687 C   0  0  0  0  0  0  0  0  0  0  0  0
  148.4458  132.1256  152.3914 N   0  3  2  0  0  0  0  0  0  0  0  0
  148.4051  131.1096  153.4711 C   0  0  0  0  0  0  0  0  0  0  0  0
  148.3136  131.7745  154.8552 C   0  0  0  0  0  0  0  0  0  0  0  0
  149.4131  132.6591  155.0174 O   0  0  0  0  0  0  0  0  0  0  0  0
  149.4047  133.7255  154.0732 C   0  0  1  0  0  0  0  0  0  0  0  0
  150.5775  134.6732  154.3810 C   0  0  0  0  0  0  0  0  0  0  0  0
  150.2534  136.0543  154.0400 N   0  0  0  0  0  0  0  0  0  0  0  0
  150.8172  137.1491  154.5690 C   0  0  0  0  0  0  0  0  0  0  0  0
  151.7176  137.0371  155.4041 O   0  0  0  0  0  0  0  0  0  0  0  0
  150.2983  138.3058  154.1000 N   0  5  0  0  0  0  0  0  0  0  0  0
  150.3052  139.4053  154.8713 C   0  0  0  0  0  0  0  0  0  0  0  0
  151.2803  139.6773  155.7465 N   0  0  0  0  0  0  0  0  0  0  0  0
  151.0824  140.8700  156.4446 C   0  0  0  0  0  0  0  0  0  0  0  0
  149.9248  141.5162  156.0999 C   0  0  0  0  0  0  0  0  0  0  0  0
  149.0445  140.6414  154.8795 S   0  0  0  0  0  0  0  0  0  0  0  0
  149.5162  133.1226  152.6551 C   0  0  0  0  0  0  0  0  0  0  0  0
  145.0895  134.2697  150.9119 H   0  0  0  0  0  0  0  0  0  0  0  0
  146.0979  135.0603  149.7036 H   0  0  0  0  0  0  0  0  0  0  0  0
  146.4225  135.3075  151.4135 H   0  0  0  0  0  0  0  0  0  0  0  0
  148.0475  133.7373  150.4131 H   0  0  0  0  0  0  0  0  0  0  0  0
  145.6522  131.9401  149.7828 H   0  0  0  0  0  0  0  0  0  0  0  0
  147.3426  131.5240  149.5110 H   0  0  0  0  0  0  0  0  0  0  0  0
  146.6057  132.8326  148.6023 H   0  0  0  0  0  0  0  0  0  0  0  0
  146.8220  133.4219  152.8357 H   0  0  0  0  0  0  0  0  0  0  0  0
  146.3608  131.9149  152.0995 H   0  0  0  0  0  0  0  0  0  0  0  0
  147.5805  130.4127  153.3184 H   0  0  0  0  0  0  0  0  0  0  0  0
  149.3193  130.5169  153.4184 H   0  0  0  0  0  0  0  0  0  0  0  0
  147.3715  132.3101  154.9810 H   0  0  0  0  0  0  0  0  0  0  0  0
  148.3549  131.0171  155.6381 H   0  0  0  0  0  0  0  0  0  0  0  0
  148.4743  134.2873  154.1688 H   0  0  0  0  0  0  0  0  0  0  0  0
  150.8839  134.5887  155.4250 H   0  0  0  0  0  0  0  0  0  0  0  0
  151.4441  134.3897  153.7834 H   0  0  0  0  0  0  0  0  0  0  0  0
  149.5268  136.1973  153.3541 H   0  0  0  0  0  0  0  0  0  0  0  0
  151.8176  141.1821  157.1712 H   0  0  0  0  0  0  0  0  0  0  0  0
  149.5376  142.4465  156.4866 H   0  0  0  0  0  0  0  0  0  0  0  0
  150.4767  132.6150  152.5562 H   0  0  0  0  0  0  0  0  0  0  0  0
  149.5141  133.9096  151.9023 H   0  0  0  0  0  0  0  0  0  0  0  0
  148.7190  131.6253  151.5575 H   0  0  0  0  0  0  0  0  0  0  0  0
  1  2  1  0  0  0  0
  1 21  1  0  0  0  0
  1 22  1  0  0  0  0
  1 23  1  0  0  0  0
  2  3  1  0  0  0  0
  2  4  1  0  0  0  0
  2 24  1  0  0  0  0
  3 25  1  0  0  0  0
  3 26  1  0  0  0  0
  3 27  1  0  0  0  0
  4  5  1  0  0  0  0
  4 28  1  0  0  0  0
  4 29  1  0  0  0  0
  5 20  1  0  0  0  0
  5  6  1  0  0  0  0
  5 42  1  0  0  0  0
  6  7  1  0  0  0  0
  6 30  1  0  0  0  0
  6 31  1  0  0  0  0
  7  8  1  0  0  0  0
  7 32  1  0  0  0  0
  7 33  1  0  0  0  0
  8  9  1  0  0  0  0
  9 10  1  0  0  0  0
  9 20  1  0  0  0  0
  9 34  1  0  0  0  0
 10 11  1  0  0  0  0
 10 35  1  0  0  0  0
 10 36  1  0  0  0  0
 11 12  1  0  0  0  0
 11 37  1  0  0  0  0
 12 13  2  0  0  0  0
 12 14  1  0  0  0  0
 14 15  1  0  0  0  0
 15 19  1  0  0  0  0
 15 16  2  0  0  0  0
 16 17  1  0  0  0  0
 17 18  2  0  0  0  0
 17 38  1  0  0  0  0
 18 19  1  0  0  0  0
 18 39  1  0  0  0  0
 20 40  1  0  0  0  0
 20 41  1  0  0  0  0
M  CHG  1   5   1
M  CHG  1  14  -1
M  END
> <s_m_source_file>
AV-unprocessed.smi

> <i_m_source_file_index>
2062

> <i_lp_mmshare_version>
43012

> <i_f3d_flags>
0

> <s_epik_input>
W0NIM11bQ0hdKFtDSDNdKVtDSDJdTjFbQ0gyXVtDSDJdT1tDQEhdKFtDSDJdMSlbQ0gyXVtOSF1DKD1PKVtOSF1jMm5bY0hdW2NIXXMy

> <s_epik_cmdline>
J2VwaWtfcHl0aG9uJywgJy1waCcsICc3LjAnLCAnLXRuJywgJzgnLCAnLW1hJywgJzIwMCcsICctbWV0YWxfYmluZGluZycsICctaW1hZScsICc8aW5maWxlLm1hZT4nLCAnLW9tYWUnLCAnPG91dGZpbGUubWFlPic=

> <r_lp_tautomer_probability>
0.999

> <r_epik_Ionization_Penalty>
6.35835

> <r_epik_Ionization_Penalty_Charging>
5.49938

> <r_epik_Ionization_Penalty_Neutral>
0.858963

> <r_epik_State_Penalty>
5.49328

> <r_epik_Charging_Adjusted_Penalty>
10.9927

> <i_epik_Tot_Q>
0

> <i_epik_Tot_abs_Q>
2

> <r_epik_Metal_State_Penalty>
1.51523

> <b_epik_Metal_Only>
1

> <s_lp_Force_Field>
OPLS_2005

> <r_lp_Energy>
10.4353

> <b_lp_Chiralities_Consistent>
1

> <s_lp_Variant>
AV-unprocessed.smi:2062-8

> <Gold.Version>
5.8.1

> <Gold.Id.Protein>
6NUR|6NUR_protein|mol2

> <Gold.PLP.Fitness>
43.6919

> <Gold.PLP.PLP>
-34.6557

> <Gold.PLP.part.hbond>
-4.0000

> <Gold.PLP.part.metal>
0.0000

> <Gold.PLP.part.buried>
-3.2372

> <Gold.PLP.part.nonpolar>
-27.2712

> <Gold.PLP.part.repulsive>
0.3791

> <Gold.PLP.ligand.clash>
0.0000

> <Gold.PLP.ligand.torsion>
1.5258

> <Gold.PLP.Chemscore.Hbond>
2.9833

> <Gold.PLP.Chemscore.CHOScore>
1.0000

> <Gold.PLP.Chemscore.Metal>
0.0000

> <Gold.Chemscore.Hbonds>
donor molecule, donor type, donor heavy atom, donor atom, acceptor molecule, acceptor atom, score
      L1  H     5    42       P1 10747  0.93
      L1  H    11    37       P1  7948  1.00
      P1  H 10752 10763       L1    13  0.96
      L1  C    18    39       P1  8028  1.00

> <Gold.PLP.Chemscore.Internal.Correction>
0.1380

> <Gold.Rescore>
     Score         DG    S(hbond)    S(metal)    S(lipo)     H(rot)  DE(clash)    DE(int)     intcor
     13.94     -18.37       2.52        0.00      75.69       1.72       1.10       3.33       ----

> <Gold.Chemscore.Fitness>
13.9429

> <Gold.Chemscore.DG>
-18.3652

> <Gold.Chemscore.ZeroCoef>
-5.4800

> <Gold.Chemscore.Hbond>
2.5245

> <Gold.Chemscore.Metal>
0.0000

> <Gold.Chemscore.Lipo>
75.6858

> <Gold.Chemscore.Internal_Hbond>
0.0000

> <Gold.Chemscore.DEClash>
1.0973

> <Gold.Chemscore.DEInternal>
3.3251

> <Gold.Chemscore.Rot>
1.7194

> <Gold.Chemscore.Internal.Correction>
   9.000000E+99

> <Gold.Chemscore.Hbonds>
donor molecule, donor type, donor heavy atom, donor atom, acceptor molecule, acceptor atom, score
      L1  H     5    42       P1 10747  0.88
      L1  H    11    37       P1  7948  0.41
      P1  H 10752 10763       L1    13  0.54

> <Gold.Chemscore.Hbond.Weighted>
-8.4317

> <Gold.Chemscore.Metal.Weighted>
-0.0000

> <Gold.Chemscore.Lipo.Weighted>
-8.8552

> <Gold.Chemscore.Internal_Hbond.Weighted>
0.0000

> <Gold.Chemscore.DEClash.Weighted>
1.0973

> <Gold.Chemscore.DEInternal.Weighted>
3.3251

> <Gold.Chemscore.Rot.Weighted>
4.4017

> <Gold.Chemscore.Internal.Correction.Weighted>
   9.000000E+99

> <Gold.Protein.RotatedTorsions>
[ 6907 6896 6895 6894 ] final  -45.79 input  -60.11 | X-H torsion
[ 7974 7965 7964 7962 ] final    7.46 input  175.53 | X-H torsion
[ 8008 7997 7996 7995 ] final   88.79 input   59.86 | X-H torsion
[ 10167 10162 10161 10158 ] final  -79.76 input  -65.29 | X-H torsion
[ 10718 10713 10712 10709 ] final  -26.11 input   66.30 | X-H torsion
[ 10763 10752 10751 10750 ] final   68.88 input  -60.55 | X-H torsion
[ 11005 11000 10999 10996 ] final   33.25 input  -57.11 | X-H torsion

> <Gold.Protein.ActiveResidues>
 VAL166  LYS551  ARG553  GLY616  TRP617  ASP618  TYR619  PRO620  LYS621  CYS622 
 ASP623  PHE694  ASN695  SER759  ASP760  ASP761  ALA762  ILE779  LEU786  VAL792 
 PHE793  MET794  SER795  GLU796  ALA797  LYS798  CYS799  TRP800  GLU811  SER814 

> <Gold.Protein.RotatedAtoms>
  150.9181  134.8599  159.7470 H   0  0  0  0  0  0  0  0  0  0  0  0  # atno 6907 bound_to 6896
  152.4979  134.4259  159.9506 H   0  0  0  0  0  0  0  0  0  0  0  0  # atno 6908 bound_to 6896
  151.4295  133.3635  159.2802 H   0  0  0  0  0  0  0  0  0  0  0  0  # atno 6909 bound_to 6896
  146.2426  140.0080  142.8409 H   0  0  0  0  0  0  0  0  0  0  0  0  # atno 7974 bound_to 7965
  155.9921  140.3368  155.6763 H   0  0  0  0  0  0  0  0  0  0  0  0  # atno 8008 bound_to 7997
  155.6406  140.0695  157.2637 H   0  0  0  0  0  0  0  0  0  0  0  0  # atno 8009 bound_to 7997
  154.4222  140.1743  156.1557 H   0  0  0  0  0  0  0  0  0  0  0  0  # atno 8010 bound_to 7997
  140.4564  143.2467  151.8414 H   0  0  0  0  0  0  0  0  0  0  0  0  # atno 10167 bound_to 10162
  156.4555  130.4493  149.6962 H   0  0  0  0  0  0  0  0  0  0  0  0  # atno 10718 bound_to 10713
  153.0258  135.5231  154.7202 H   0  0  0  0  0  0  0  0  0  0  0  0  # atno 10763 bound_to 10752
  154.6259  135.2894  155.0274 H   0  0  0  0  0  0  0  0  0  0  0  0  # atno 10764 bound_to 10752
  154.1244  135.6602  153.4962 H   0  0  0  0  0  0  0  0  0  0  0  0  # atno 10765 bound_to 10752
  140.2651  134.3147  155.7845 H   0  0  0  0  0  0  0  0  0  0  0  0  # atno 11005 bound_to 11000
  145.1354  140.9541  143.4520 LP  0  0  0  0  0  0  0  0  0  0  0  0  # atno 17320 bound_to 7965
  145.0347  139.3310  143.6007 LP  0  0  0  0  0  0  0  0  0  0  0  0  # atno 17321 bound_to 7965
  139.4801  144.5060  151.8997 LP  0  0  0  0  0  0  0  0  0  0  0  0  # atno 17342 bound_to 10162
  140.4146  144.2324  150.5888 LP  0  0  0  0  0  0  0  0  0  0  0  0  # atno 17343 bound_to 10162
  156.3772  130.7560  151.2549 LP  0  0  0  0  0  0  0  0  0  0  0  0  # atno 17370 bound_to 10713
  157.7501  131.0306  150.4145 LP  0  0  0  0  0  0  0  0  0  0  0  0  # atno 17371 bound_to 10713
  141.2185  133.7432  156.9247 LP  0  0  0  0  0  0  0  0  0  0  0  0  # atno 17394 bound_to 11000
  140.1427  134.9282  157.2489 LP  0  0  0  0  0  0  0  0  0  0  0  0  # atno 17395 bound_to 11000

$$$$
