AV-unprocessed.smi:242|AV-procd|sdf|1846|dock8
  -GOLD-   2262020463D 1   1.00000     0.00000
 Structure written by MMmdl.
 58 61  0  0  0  0  0  0  0  0  2 V2000
  148.9239  132.3841  153.1733 C   0  0  0  0  0  0  0  0  0  0  0  0
  148.0386  133.4282  153.8793 C   0  0  0  0  0  0  0  0  0  0  0  0
  146.7758  133.6862  153.0346 C   0  0  0  0  0  0  0  0  0  0  0  0
  148.7989  134.6831  154.1406 N   0  3  2  0  0  0  0  0  0  0  0  0
  150.1765  134.4894  154.6621 C   0  0  0  0  0  0  0  0  0  0  0  0
  150.3864  135.5234  155.7760 C   0  0  0  0  0  0  0  0  0  0  0  0
  149.2747  136.5472  155.5537 C   0  0  2  0  0  0  0  0  0  0  0  0
  148.9392  137.3247  156.7484 N   0  0  0  0  0  0  0  0  0  0  0  0
  148.4887  136.5697  157.9119 C   0  0  0  0  0  0  0  0  0  0  0  0
  149.8675  138.2443  157.0949 C   0  0  0  0  0  0  0  0  0  0  0  0
  150.8937  137.8960  157.9148 N   0  0  0  0  0  0  0  0  0  0  0  0
  151.8059  138.8097  158.2621 C   0  0  0  0  0  0  0  0  0  0  0  0
  151.8762  140.0955  157.9093 N   0  0  0  0  0  0  0  0  0  0  0  0
  150.8458  140.4427  157.0853 C   0  0  0  0  0  0  0  0  0  0  0  0
  149.8098  139.5824  156.6277 C   0  0  0  0  0  0  0  0  0  0  0  0
  148.9447  140.2750  155.7912 N   0  0  0  0  0  0  0  0  0  0  0  0
  149.4377  141.4835  155.7619 C   0  0  0  0  0  0  0  0  0  0  0  0
  150.5699  141.6764  156.5226 N   0  0  0  0  0  0  0  0  0  0  0  0
  151.3105  142.9182  156.6840 C   0  0  0  0  0  0  0  0  0  0  0  0
  151.1548  143.5645  158.0837 C   0  0  0  0  0  0  0  0  0  0  0  0
  149.7760  143.8135  158.2956 O   0  0  0  0  0  0  0  0  0  0  0  0
  151.6467  142.5974  159.1792 C   0  0  0  0  0  0  0  0  0  0  0  0
  151.6718  143.2585  160.5687 C   0  0  0  0  0  0  0  0  0  0  0  0
  152.4621  144.4405  160.5305 O   0  0  0  0  0  0  0  0  0  0  0  0
  151.9314  145.4285  159.6558 C   0  0  0  0  0  0  0  0  0  0  0  0
  151.9154  144.9032  158.2094 C   0  0  0  0  0  0  0  0  0  0  0  0
  148.1404  135.6546  155.0405 C   0  0  0  0  0  0  0  0  0  0  0  0
  148.3655  131.4686  152.9749 H   0  0  0  0  0  0  0  0  0  0  0  0
  149.7889  132.1030  153.7737 H   0  0  0  0  0  0  0  0  0  0  0  0
  149.2909  132.7592  152.2173 H   0  0  0  0  0  0  0  0  0  0  0  0
  147.7217  133.0181  154.8397 H   0  0  0  0  0  0  0  0  0  0  0  0
  146.2600  132.7520  152.8108 H   0  0  0  0  0  0  0  0  0  0  0  0
  147.0224  134.1614  152.0845 H   0  0  0  0  0  0  0  0  0  0  0  0
  146.0587  134.3229  153.5528 H   0  0  0  0  0  0  0  0  0  0  0  0
  150.3336  133.4845  155.0561 H   0  0  0  0  0  0  0  0  0  0  0  0
  150.8841  134.6412  153.8466 H   0  0  0  0  0  0  0  0  0  0  0  0
  150.2598  135.0397  156.7461 H   0  0  0  0  0  0  0  0  0  0  0  0
  151.3819  135.9678  155.7537 H   0  0  0  0  0  0  0  0  0  0  0  0
  149.5800  137.2274  154.7565 H   0  0  0  0  0  0  0  0  0  0  0  0
  148.3961  137.2090  158.7915 H   0  0  0  0  0  0  0  0  0  0  0  0
  149.1859  135.7645  158.1462 H   0  0  0  0  0  0  0  0  0  0  0  0
  147.5097  136.1297  157.7225 H   0  0  0  0  0  0  0  0  0  0  0  0
  152.5896  138.4625  158.9191 H   0  0  0  0  0  0  0  0  0  0  0  0
  148.9791  142.2772  155.1900 H   0  0  0  0  0  0  0  0  0  0  0  0
  152.3623  142.7208  156.4719 H   0  0  0  0  0  0  0  0  0  0  0  0
  150.9716  143.6120  155.9133 H   0  0  0  0  0  0  0  0  0  0  0  0
  149.3438  143.8499  157.4561 H   0  0  0  0  0  0  0  0  0  0  0  0
  151.0278  141.6996  159.2032 H   0  0  0  0  0  0  0  0  0  0  0  0
  152.6574  142.2638  158.9394 H   0  0  0  0  0  0  0  0  0  0  0  0
  150.6631  143.4913  160.9132 H   0  0  0  0  0  0  0  0  0  0  0  0
  152.1027  142.5732  161.2987 H   0  0  0  0  0  0  0  0  0  0  0  0
  150.9307  145.7184  159.9797 H   0  0  0  0  0  0  0  0  0  0  0  0
  152.5527  146.3220  159.7190 H   0  0  0  0  0  0  0  0  0  0  0  0
  152.9456  144.7630  157.8798 H   0  0  0  0  0  0  0  0  0  0  0  0
  151.4833  145.6603  157.5539 H   0  0  0  0  0  0  0  0  0  0  0  0
  147.3688  136.2229  154.5197 H   0  0  0  0  0  0  0  0  0  0  0  0
  147.6734  135.1253  155.8735 H   0  0  0  0  0  0  0  0  0  0  0  0
  148.9015  135.1565  153.2543 H   0  0  0  0  0  0  0  0  0  0  0  0
  1  2  1  0  0  0  0
  1 28  1  0  0  0  0
  1 29  1  0  0  0  0
  1 30  1  0  0  0  0
  2  3  1  0  0  0  0
  2  4  1  0  0  0  0
  2 31  1  0  0  0  0
  3 32  1  0  0  0  0
  3 33  1  0  0  0  0
  3 34  1  0  0  0  0
  4 27  1  0  0  0  0
  4  5  1  0  0  0  0
  4 58  1  0  0  0  0
  5  6  1  0  0  0  0
  5 35  1  0  0  0  0
  5 36  1  0  0  0  0
  6  7  1  0  0  0  0
  6 37  1  0  0  0  0
  6 38  1  0  0  0  0
  7  8  1  0  0  0  0
  7 27  1  0  0  0  0
  7 39  1  0  0  0  0
  8  9  1  0  0  0  0
  8 10  1  0  0  0  0
  9 40  1  0  0  0  0
  9 41  1  0  0  0  0
  9 42  1  0  0  0  0
 10 15  1  0  0  0  0
 10 11  2  0  0  0  0
 11 12  1  0  0  0  0
 12 13  2  0  0  0  0
 12 43  1  0  0  0  0
 13 14  1  0  0  0  0
 14 18  1  0  0  0  0
 14 15  2  0  0  0  0
 15 16  1  0  0  0  0
 16 17  2  0  0  0  0
 17 18  1  0  0  0  0
 17 44  1  0  0  0  0
 18 19  1  0  0  0  0
 19 20  1  0  0  0  0
 19 45  1  0  0  0  0
 19 46  1  0  0  0  0
 20 26  1  0  0  0  0
 20 21  1  0  0  0  0
 20 22  1  0  0  0  0
 21 47  1  0  0  0  0
 22 23  1  0  0  0  0
 22 48  1  0  0  0  0
 22 49  1  0  0  0  0
 23 24  1  0  0  0  0
 23 50  1  0  0  0  0
 23 51  1  0  0  0  0
 24 25  1  0  0  0  0
 25 26  1  0  0  0  0
 25 52  1  0  0  0  0
 25 53  1  0  0  0  0
 26 54  1  0  0  0  0
 26 55  1  0  0  0  0
 27 56  1  0  0  0  0
 27 57  1  0  0  0  0
M  CHG  1   4   1
M  END
> <s_m_source_file>
AV-unprocessed.smi

> <i_m_source_file_index>
242

> <i_lp_mmshare_version>
43012

> <i_f3d_flags>
0

> <s_epik_input>
W0NIM11bQ0hdKFtDSDNdKU4xW0NIMl1bQ0gyXVtDQEhdKFtDSDJdMSlOKFtDSDNdKWMobltjSF1uMiljKGMyMyluW2NIXW4zW0NIMl1DNChbT0hdKVtDSDJdW0NIMl1PW0NIMl1bQ0gyXTQ=

> <s_epik_cmdline>
J2VwaWtfcHl0aG9uJywgJy1waCcsICc3LjAnLCAnLXRuJywgJzgnLCAnLW1hJywgJzIwMCcsICctbWV0YWxfYmluZGluZycsICctaW1hZScsICc8aW5maWxlLm1hZT4nLCAnLW9tYWUnLCAnPG91dGZpbGUubWFlPic=

> <r_lp_tautomer_probability>
1

> <r_epik_Ionization_Penalty>
0.000825961

> <r_epik_Ionization_Penalty_Charging>
0.00034898

> <r_epik_Ionization_Penalty_Neutral>
0.000476981

> <r_epik_State_Penalty>
-0

> <r_epik_Charging_Adjusted_Penalty>
0.00034898

> <i_epik_Tot_Q>
1

> <i_epik_Tot_abs_Q>
1

> <r_epik_Metal_State_Penalty>
-0

> <b_epik_Metal_Only>
0

> <s_lp_Force_Field>
OPLS_2005

> <r_lp_Energy>
47.5475

> <b_lp_Chiralities_Consistent>
1

> <s_lp_Variant>
AV-unprocessed.smi:242-3

> <Gold.Version>
5.8.1

> <Gold.Id.Protein>
6NUR|6NUR_protein|mol2

> <Gold.PLP.Fitness>
48.3720

> <Gold.PLP.PLP>
-37.7975

> <Gold.PLP.part.hbond>
-2.9976

> <Gold.PLP.part.metal>
0.0000

> <Gold.PLP.part.buried>
-4.1314

> <Gold.PLP.part.nonpolar>
-30.8968

> <Gold.PLP.part.repulsive>
0.1248

> <Gold.PLP.ligand.clash>
0.0000

> <Gold.PLP.ligand.torsion>
0.8891

> <Gold.PLP.Chemscore.Hbond>
3.0000

> <Gold.PLP.Chemscore.CHOScore>
1.0000

> <Gold.PLP.Chemscore.Metal>
0.0000

> <Gold.Chemscore.Hbonds>
donor molecule, donor type, donor heavy atom, donor atom, acceptor molecule, acceptor atom, score
      L1  H     4    58       P1  7948  2.00
      L1  H    21    47       P1  8028  1.00
      L1  C    17    44       P1  8028  1.00

> <Gold.PLP.Chemscore.Internal.Correction>
0.3527

> <Gold.Rescore>
     Score         DG    S(hbond)    S(metal)    S(lipo)     H(rot)  DE(clash)    DE(int)     intcor
     13.01     -16.63       1.77        0.00      99.50       2.50       1.34       2.28       ----

> <Gold.Chemscore.Fitness>
13.0085

> <Gold.Chemscore.DG>
-16.6265

> <Gold.Chemscore.ZeroCoef>
-5.4800

> <Gold.Chemscore.Hbond>
1.7678

> <Gold.Chemscore.Metal>
0.0000

> <Gold.Chemscore.Lipo>
99.4961

> <Gold.Chemscore.Internal_Hbond>
0.0000

> <Gold.Chemscore.DEClash>
1.3382

> <Gold.Chemscore.DEInternal>
2.2797

> <Gold.Chemscore.Rot>
2.4996

> <Gold.Chemscore.Internal.Correction>
   9.000000E+99

> <Gold.Chemscore.Hbonds>
donor molecule, donor type, donor heavy atom, donor atom, acceptor molecule, acceptor atom, score
      L1  H     4    58       P1  7948  0.45
      L1  H    21    47       P1  8028  0.27

> <Gold.Chemscore.Hbond.Weighted>
-5.9044

> <Gold.Chemscore.Metal.Weighted>
-0.0000

> <Gold.Chemscore.Lipo.Weighted>
-11.6410

> <Gold.Chemscore.Internal_Hbond.Weighted>
0.0000

> <Gold.Chemscore.DEClash.Weighted>
1.3382

> <Gold.Chemscore.DEInternal.Weighted>
2.2797

> <Gold.Chemscore.Rot.Weighted>
6.3990

> <Gold.Chemscore.Internal.Correction.Weighted>
   9.000000E+99

> <Gold.Protein.RotatedTorsions>
[ 6907 6896 6895 6894 ] final -138.85 input  -60.11 | X-H torsion
[ 7974 7965 7964 7962 ] final  154.99 input  175.53 | X-H torsion
[ 8008 7997 7996 7995 ] final   68.55 input   59.86 | X-H torsion
[ 10167 10162 10161 10158 ] final  131.82 input  -65.29 | X-H torsion
[ 10718 10713 10712 10709 ] final  -26.24 input   66.30 | X-H torsion
[ 10763 10752 10751 10750 ] final   -1.37 input  -60.55 | X-H torsion
[ 11005 11000 10999 10996 ] final  100.61 input  -57.11 | X-H torsion

> <Gold.Protein.ActiveResidues>
 VAL166  LYS551  ARG553  GLY616  TRP617  ASP618  TYR619  PRO620  LYS621  CYS622 
 ASP623  PHE694  ASN695  SER759  ASP760  ASP761  ALA762  ILE779  LEU786  VAL792 
 PHE793  MET794  SER795  GLU796  ALA797  LYS798  CYS799  TRP800  GLU811  SER814 

> <Gold.Protein.RotatedAtoms>
  151.0402  133.5713  159.2651 H   0  0  0  0  0  0  0  0  0  0  0  0  # atno 6907 bound_to 6896
  151.2762  135.0699  159.9162 H   0  0  0  0  0  0  0  0  0  0  0  0  # atno 6908 bound_to 6896
  152.5363  134.0124  159.7998 H   0  0  0  0  0  0  0  0  0  0  0  0  # atno 6909 bound_to 6896
  144.8053  139.7007  143.6164 H   0  0  0  0  0  0  0  0  0  0  0  0  # atno 7974 bound_to 7965
  155.7101  140.3494  155.4970 H   0  0  0  0  0  0  0  0  0  0  0  0  # atno 8008 bound_to 7997
  155.9364  140.1093  157.1113 H   0  0  0  0  0  0  0  0  0  0  0  0  # atno 8009 bound_to 7997
  154.4094  140.1221  156.4856 H   0  0  0  0  0  0  0  0  0  0  0  0  # atno 8010 bound_to 7997
  139.5367  144.6689  151.4762 H   0  0  0  0  0  0  0  0  0  0  0  0  # atno 10167 bound_to 10162
  156.4537  130.4489  149.6973 H   0  0  0  0  0  0  0  0  0  0  0  0  # atno 10718 bound_to 10713
  153.3440  135.6982  153.6843 H   0  0  0  0  0  0  0  0  0  0  0  0  # atno 10763 bound_to 10752
  153.5596  135.3537  155.2794 H   0  0  0  0  0  0  0  0  0  0  0  0  # atno 10764 bound_to 10752
  154.8642  135.4246  154.2660 H   0  0  0  0  0  0  0  0  0  0  0  0  # atno 10765 bound_to 10752
  139.8771  134.9147  156.4781 H   0  0  0  0  0  0  0  0  0  0  0  0  # atno 11005 bound_to 11000
  146.2343  139.5875  142.9534 LP  0  0  0  0  0  0  0  0  0  0  0  0  # atno 17320 bound_to 7965
  145.5452  141.0418  143.2308 LP  0  0  0  0  0  0  0  0  0  0  0  0  # atno 17321 bound_to 7965
  140.6577  143.8565  150.6853 LP  0  0  0  0  0  0  0  0  0  0  0  0  # atno 17342 bound_to 10162
  140.1949  143.4006  152.1835 LP  0  0  0  0  0  0  0  0  0  0  0  0  # atno 17343 bound_to 10162
  156.3789  130.7568  151.2559 LP  0  0  0  0  0  0  0  0  0  0  0  0  # atno 17370 bound_to 10713
  157.7501  131.0301  150.4124 LP  0  0  0  0  0  0  0  0  0  0  0  0  # atno 17371 bound_to 10713
  140.8747  133.7962  155.9402 LP  0  0  0  0  0  0  0  0  0  0  0  0  # atno 17394 bound_to 11000
  140.8916  134.2488  157.5091 LP  0  0  0  0  0  0  0  0  0  0  0  0  # atno 17395 bound_to 11000

$$$$
