AV-unprocessed.smi:2163|AV-procd|sdf|8804|dock5
  -GOLD-   2272011593D 1   1.00000     0.00000
 Structure written by MMmdl.
 43 45  0  0  0  0  0  0  0  0  1 V2000
  152.2038  139.5132  157.9440 C   0  0  0  0  0  0  0  0  0  0  0  0
  151.9294  140.8971  158.4409 C   0  0  0  0  0  0  0  0  0  0  0  0
  152.7355  141.5146  159.3050 N   0  0  0  0  0  0  0  0  0  0  0  0
  152.1165  142.7379  159.4761 C   0  0  0  0  0  0  0  0  0  0  0  0
  152.4786  143.8479  160.2724 C   0  0  0  0  0  0  0  0  0  0  0  0
  151.6781  145.0093  160.2841 C   0  0  0  0  0  0  0  0  0  0  0  0
  150.5071  145.0777  159.5015 C   0  0  0  0  0  0  0  0  0  0  0  0
  150.1276  143.9825  158.7019 C   0  0  0  0  0  0  0  0  0  0  0  0
  150.9296  142.8258  158.6947 C   0  0  0  0  0  0  0  0  0  0  0  0
  150.8423  141.6016  158.0399 N   0  0  0  0  0  0  0  0  0  0  0  0
  149.7909  141.1972  157.1170 C   0  0  0  0  0  0  0  0  0  0  0  0
  150.2736  141.1585  155.6534 C   0  0  2  0  0  0  0  0  0  0  0  0
  150.4766  142.4741  155.1775 O   0  0  0  0  0  0  0  0  0  0  0  0
  149.2745  140.4504  154.7269 C   0  0  0  0  0  0  0  0  0  0  0  0
  148.6165  141.4297  153.9342 O   0  0  0  0  0  0  0  0  0  0  0  0
  147.4250  141.9499  154.3910 C   0  0  0  0  0  0  0  0  0  0  0  0
  146.9395  141.7918  155.7138 C   0  0  0  0  0  0  0  0  0  0  0  0
  145.7084  142.3613  156.0939 C   0  0  0  0  0  0  0  0  0  0  0  0
  144.9473  143.0943  155.1625 C   0  0  0  0  0  0  0  0  0  0  0  0
  143.6265  143.7110  155.5730 C   0  0  0  0  0  0  0  0  0  0  0  0
  143.5170  145.1133  155.1434 C   0  0  0  0  0  0  0  0  0  0  0  0
  143.4310  146.2164  154.8054 N   0  0  0  0  0  0  0  0  0  0  0  0
  145.4240  143.2555  153.8471 C   0  0  0  0  0  0  0  0  0  0  0  0
  146.6543  142.6859  153.4677 C   0  0  0  0  0  0  0  0  0  0  0  0
  153.0970  139.1057  158.4189 H   0  0  0  0  0  0  0  0  0  0  0  0
  152.3641  139.5249  156.8657 H   0  0  0  0  0  0  0  0  0  0  0  0
  151.3649  138.8551  158.1703 H   0  0  0  0  0  0  0  0  0  0  0  0
  153.3738  143.8056  160.8748 H   0  0  0  0  0  0  0  0  0  0  0  0
  151.9643  145.8518  160.8963 H   0  0  0  0  0  0  0  0  0  0  0  0
  149.9002  145.9712  159.5156 H   0  0  0  0  0  0  0  0  0  0  0  0
  149.2313  144.0303  158.1013 H   0  0  0  0  0  0  0  0  0  0  0  0
  149.4431  140.2094  157.4215 H   0  0  0  0  0  0  0  0  0  0  0  0
  148.9336  141.8624  157.2194 H   0  0  0  0  0  0  0  0  0  0  0  0
  151.2321  140.6410  155.5973 H   0  0  0  0  0  0  0  0  0  0  0  0
  149.7821  143.0222  155.5101 H   0  0  0  0  0  0  0  0  0  0  0  0
  149.7946  139.7264  154.0971 H   0  0  0  0  0  0  0  0  0  0  0  0
  148.5367  139.9119  155.3247 H   0  0  0  0  0  0  0  0  0  0  0  0
  147.4936  141.2392  156.4570 H   0  0  0  0  0  0  0  0  0  0  0  0
  145.3506  142.2356  157.1053 H   0  0  0  0  0  0  0  0  0  0  0  0
  142.8005  143.1499  155.1353 H   0  0  0  0  0  0  0  0  0  0  0  0
  143.5123  143.6712  156.6566 H   0  0  0  0  0  0  0  0  0  0  0  0
  144.8481  143.8179  153.1268 H   0  0  0  0  0  0  0  0  0  0  0  0
  147.0107  142.8152  152.4562 H   0  0  0  0  0  0  0  0  0  0  0  0
  1  2  1  0  0  0  0
  1 25  1  0  0  0  0
  1 26  1  0  0  0  0
  1 27  1  0  0  0  0
  2 10  1  0  0  0  0
  2  3  2  0  0  0  0
  3  4  1  0  0  0  0
  4  9  2  0  0  0  0
  4  5  1  0  0  0  0
  5  6  2  0  0  0  0
  5 28  1  0  0  0  0
  6  7  1  0  0  0  0
  6 29  1  0  0  0  0
  7  8  2  0  0  0  0
  7 30  1  0  0  0  0
  8  9  1  0  0  0  0
  8 31  1  0  0  0  0
  9 10  1  0  0  0  0
 10 11  1  0  0  0  0
 11 12  1  0  0  0  0
 11 32  1  0  0  0  0
 11 33  1  0  0  0  0
 12 13  1  0  0  0  0
 12 14  1  0  0  0  0
 12 34  1  0  0  0  0
 13 35  1  0  0  0  0
 14 15  1  0  0  0  0
 14 36  1  0  0  0  0
 14 37  1  0  0  0  0
 15 16  1  0  0  0  0
 16 24  1  0  0  0  0
 16 17  2  0  0  0  0
 17 18  1  0  0  0  0
 17 38  1  0  0  0  0
 18 19  2  0  0  0  0
 18 39  1  0  0  0  0
 19 20  1  0  0  0  0
 19 23  1  0  0  0  0
 20 21  1  0  0  0  0
 20 40  1  0  0  0  0
 20 41  1  0  0  0  0
 21 22  3  0  0  0  0
 23 24  2  0  0  0  0
 23 42  1  0  0  0  0
 24 43  1  0  0  0  0
M  END
> <s_m_source_file>
AV-unprocessed.smi

> <i_m_source_file_index>
2163

> <i_lp_mmshare_version>
43012

> <i_f3d_flags>
0

> <s_epik_input>
W2NIXTFbY0hdW2NIXVtjSF1jKGMxMiluKGMobjIpW0NIM10pW0NIMl1bQ0BIXShbT0hdKVtDSDJdT2MzW2NIXVtjSF1jKFtDSDJdQyNOKVtjSF1bY0hdMw==

> <s_epik_cmdline>
J2VwaWtfcHl0aG9uJywgJy1waCcsICc3LjAnLCAnLXRuJywgJzgnLCAnLW1hJywgJzIwMCcsICctbWV0YWxfYmluZGluZycsICctaW1hZScsICc8aW5maWxlLm1hZT4nLCAnLW9tYWUnLCAnPG91dGZpbGUubWFlPic=

> <r_lp_tautomer_probability>
1

> <r_epik_Ionization_Penalty>
0.114213

> <r_epik_Ionization_Penalty_Charging>
0

> <r_epik_Ionization_Penalty_Neutral>
0.114213

> <r_epik_State_Penalty>
0.103875

> <r_epik_Charging_Adjusted_Penalty>
0.103875

> <i_epik_Tot_Q>
0

> <i_epik_Tot_abs_Q>
0

> <r_epik_Metal_State_Penalty>
0.000113526

> <b_epik_Metal_Only>
0

> <s_lp_Force_Field>
OPLS_2005

> <r_lp_Energy>
15.1167

> <b_lp_Chiralities_Consistent>
1

> <s_lp_Variant>
AV-unprocessed.smi:2163-1

> <Gold.Version>
5.8.1

> <Gold.Id.Protein>
6NUR|6NUR_protein|mol2

> <Gold.PLP.Fitness>
47.9437

> <Gold.PLP.PLP>
-47.3520

> <Gold.PLP.part.hbond>
-4.2535

> <Gold.PLP.part.metal>
0.0000

> <Gold.PLP.part.buried>
-2.9977

> <Gold.PLP.part.nonpolar>
-39.4038

> <Gold.PLP.part.repulsive>
0.1789

> <Gold.PLP.ligand.clash>
1.2253

> <Gold.PLP.ligand.torsion>
1.3582

> <Gold.PLP.Chemscore.Hbond>
1.4807

> <Gold.PLP.Chemscore.CHOScore>
0.0000

> <Gold.PLP.Chemscore.Metal>
0.0000

> <Gold.Chemscore.Hbonds>
donor molecule, donor type, donor heavy atom, donor atom, acceptor molecule, acceptor atom, score
      L1  H    13    35       P1  8028  1.00
      P1  H  8011  8017       L1    15  0.38

> <Gold.PLP.Chemscore.Internal.Correction>
0.0912

> <Gold.Rescore>
     Score         DG    S(hbond)    S(metal)    S(lipo)     H(rot)  DE(clash)    DE(int)     intcor
     13.47     -17.84       1.40        0.00     120.57       2.51       3.00       1.38       ----

> <Gold.Chemscore.Fitness>
13.4677

> <Gold.Chemscore.DG>
-17.8419

> <Gold.Chemscore.ZeroCoef>
-5.4800

> <Gold.Chemscore.Hbond>
1.4025

> <Gold.Chemscore.Metal>
0.0000

> <Gold.Chemscore.Lipo>
120.5729

> <Gold.Chemscore.Internal_Hbond>
0.0000

> <Gold.Chemscore.DEClash>
2.9986

> <Gold.Chemscore.DEInternal>
1.3756

> <Gold.Chemscore.Rot>
2.5115

> <Gold.Chemscore.Internal.Correction>
   9.000000E+99

> <Gold.Chemscore.Hbonds>
donor molecule, donor type, donor heavy atom, donor atom, acceptor molecule, acceptor atom, score
      L1  H    13    35       P1  8028  0.95
      P1  H  8011  8017       L1    15  0.36

> <Gold.Chemscore.Hbond.Weighted>
-4.6844

> <Gold.Chemscore.Metal.Weighted>
-0.0000

> <Gold.Chemscore.Lipo.Weighted>
-14.1070

> <Gold.Chemscore.Internal_Hbond.Weighted>
0.0000

> <Gold.Chemscore.DEClash.Weighted>
2.9986

> <Gold.Chemscore.DEInternal.Weighted>
1.3756

> <Gold.Chemscore.Rot.Weighted>
6.4296

> <Gold.Chemscore.Internal.Correction.Weighted>
   9.000000E+99

> <Gold.Protein.RotatedTorsions>
[ 6907 6896 6895 6894 ] final   88.45 input  -60.11 | X-H torsion
[ 7974 7965 7964 7962 ] final  -72.44 input  175.53 | X-H torsion
[ 8008 7997 7996 7995 ] final  -45.28 input   59.86 | X-H torsion
[ 10167 10162 10161 10158 ] final  -17.68 input  -65.29 | X-H torsion
[ 10718 10713 10712 10709 ] final -178.76 input   66.30 | X-H torsion
[ 10763 10752 10751 10750 ] final   17.80 input  -60.55 | X-H torsion
[ 11005 11000 10999 10996 ] final  131.49 input  -57.11 | X-H torsion

> <Gold.Protein.ActiveResidues>
 VAL166  LYS551  ARG553  GLY616  TRP617  ASP618  TYR619  PRO620  LYS621  CYS622 
 ASP623  PHE694  ASN695  SER759  ASP760  ASP761  ALA762  ILE779  LEU786  VAL792 
 PHE793  MET794  SER795  GLU796  ALA797  LYS798  CYS799  TRP800  GLU811  SER814 

> <Gold.Protein.RotatedAtoms>
  152.5425  134.2119  159.8752 H   0  0  0  0  0  0  0  0  0  0  0  0  # atno 6907 bound_to 6896
  151.2101  133.4554  159.2605 H   0  0  0  0  0  0  0  0  0  0  0  0  # atno 6908 bound_to 6896
  151.0905  134.9926  159.8456 H   0  0  0  0  0  0  0  0  0  0  0  0  # atno 6909 bound_to 6896
  145.6651  140.9239  143.0913 H   0  0  0  0  0  0  0  0  0  0  0  0  # atno 7974 bound_to 7965
  154.4000  140.1401  156.3821 H   0  0  0  0  0  0  0  0  0  0  0  0  # atno 8008 bound_to 7997
  155.7994  140.3476  155.5373 H   0  0  0  0  0  0  0  0  0  0  0  0  # atno 8009 bound_to 7997
  155.8499  140.0940  157.1672 H   0  0  0  0  0  0  0  0  0  0  0  0  # atno 8010 bound_to 7997
  140.7250  143.4991  150.9892 H   0  0  0  0  0  0  0  0  0  0  0  0  # atno 10167 bound_to 10162
  156.8490  130.9712  151.3094 H   0  0  0  0  0  0  0  0  0  0  0  0  # atno 10718 bound_to 10713
  153.1306  135.6739  153.9184 H   0  0  0  0  0  0  0  0  0  0  0  0  # atno 10763 bound_to 10752
  153.8671  135.3074  155.3442 H   0  0  0  0  0  0  0  0  0  0  0  0  # atno 10764 bound_to 10752
  154.7704  135.4942  153.9719 H   0  0  0  0  0  0  0  0  0  0  0  0  # atno 10765 bound_to 10752
  139.9734  134.9571  156.9446 H   0  0  0  0  0  0  0  0  0  0  0  0  # atno 11005 bound_to 11000
  144.7075  139.8500  143.7425 LP  0  0  0  0  0  0  0  0  0  0  0  0  # atno 17320 bound_to 7965
  146.1092  139.4095  143.0298 LP  0  0  0  0  0  0  0  0  0  0  0  0  # atno 17321 bound_to 7965
  139.8699  143.7205  152.3167 LP  0  0  0  0  0  0  0  0  0  0  0  0  # atno 17342 bound_to 10162
  139.7450  144.7549  151.0593 LP  0  0  0  0  0  0  0  0  0  0  0  0  # atno 17343 bound_to 10162
  157.6314  130.8732  149.9280 LP  0  0  0  0  0  0  0  0  0  0  0  0  # atno 17370 bound_to 10713
  156.0838  130.3670  150.0527 LP  0  0  0  0  0  0  0  0  0  0  0  0  # atno 17371 bound_to 10713
  140.5246  134.0873  155.7300 LP  0  0  0  0  0  0  0  0  0  0  0  0  # atno 17394 bound_to 11000
  141.1412  133.9135  157.2321 LP  0  0  0  0  0  0  0  0  0  0  0  0  # atno 17395 bound_to 11000

$$$$
