AV-unprocessed.smi:2340|AV-procd|sdf|9345|dock4
  -GOLD-   2272012563D 1   1.00000     0.00000
 Structure written by MMmdl.
 40 41  0  0  0  0  0  0  0  0  1 V2000
  152.6197  142.9575  161.1465 C   0  0  0  0  0  0  0  0  0  0  0  0
  152.2066  143.3205  159.7550 C   0  0  0  0  0  0  0  0  0  0  0  0
  152.4020  144.5227  159.1224 C   0  0  0  0  0  0  0  0  0  0  0  0
  151.7682  144.5130  157.4996 S   0  0  0  0  0  0  0  0  0  0  0  0
  151.2527  142.8473  157.7419 C   0  0  0  0  0  0  0  0  0  0  0  0
  150.5510  142.0466  156.6904 C   0  0  1  0  0  0  0  0  0  0  0  0
  151.3954  140.8422  156.2384 C   0  0  0  0  0  0  0  0  0  0  0  0
  149.1112  141.6871  157.1184 C   0  0  0  0  0  0  0  0  0  0  0  0
  148.3267  142.8558  157.5040 N   0  0  0  0  0  0  0  0  0  0  0  0
  147.4512  142.8931  158.5176 C   0  0  0  0  0  0  0  0  0  0  0  0
  147.1922  141.9312  159.2409 O   0  0  0  0  0  0  0  0  0  0  0  0
  146.9020  144.1074  158.6540 N   0  0  0  0  0  0  0  0  0  0  0  0
  145.9406  144.4804  159.6867 C   0  0  2  0  0  0  0  0  0  0  0  0
  146.4401  144.1220  161.0713 C   0  0  0  0  0  0  0  0  0  0  0  0
  145.1412  144.0130  161.8642 C   0  0  0  0  0  0  0  0  0  0  0  0
  144.1372  143.6216  160.9326 O   0  0  0  0  0  0  0  0  0  0  0  0
  144.6531  143.6512  159.6053 C   0  0  1  0  0  0  0  0  0  0  0  0
  143.5984  144.2056  158.6397 C   0  0  0  0  0  0  0  0  0  0  0  0
  151.5486  142.3790  158.9587 N   0  0  0  0  0  0  0  0  0  0  0  0
  153.0626  143.8079  161.6658 H   0  0  0  0  0  0  0  0  0  0  0  0
  153.3576  142.1552  161.1404 H   0  0  0  0  0  0  0  0  0  0  0  0
  151.7670  142.6198  161.7359 H   0  0  0  0  0  0  0  0  0  0  0  0
  152.8794  145.4102  159.5105 H   0  0  0  0  0  0  0  0  0  0  0  0
  150.4696  142.7025  155.8226 H   0  0  0  0  0  0  0  0  0  0  0  0
  152.3838  141.1618  155.9070 H   0  0  0  0  0  0  0  0  0  0  0  0
  150.9302  140.3137  155.4062 H   0  0  0  0  0  0  0  0  0  0  0  0
  151.5319  140.1283  157.0512 H   0  0  0  0  0  0  0  0  0  0  0  0
  148.5914  141.1922  156.2975 H   0  0  0  0  0  0  0  0  0  0  0  0
  149.1299  140.9737  157.9442 H   0  0  0  0  0  0  0  0  0  0  0  0
  148.4710  143.6983  156.9669 H   0  0  0  0  0  0  0  0  0  0  0  0
  147.1819  144.8320  158.0092 H   0  0  0  0  0  0  0  0  0  0  0  0
  145.7116  145.5479  159.6578 H   0  0  0  0  0  0  0  0  0  0  0  0
  146.9436  143.1539  161.0592 H   0  0  0  0  0  0  0  0  0  0  0  0
  147.1297  144.8592  161.4836 H   0  0  0  0  0  0  0  0  0  0  0  0
  145.2175  143.3043  162.6891 H   0  0  0  0  0  0  0  0  0  0  0  0
  144.8668  144.9841  162.2778 H   0  0  0  0  0  0  0  0  0  0  0  0
  144.8941  142.6219  159.3337 H   0  0  0  0  0  0  0  0  0  0  0  0
  143.9685  144.2129  157.6145 H   0  0  0  0  0  0  0  0  0  0  0  0
  143.3188  145.2261  158.9030 H   0  0  0  0  0  0  0  0  0  0  0  0
  142.6948  143.5962  158.6607 H   0  0  0  0  0  0  0  0  0  0  0  0
  1  2  1  0  0  0  0
  1 20  1  0  0  0  0
  1 21  1  0  0  0  0
  1 22  1  0  0  0  0
  2 19  1  0  0  0  0
  2  3  2  0  0  0  0
  3  4  1  0  0  0  0
  3 23  1  0  0  0  0
  4  5  1  0  0  0  0
  5  6  1  0  0  0  0
  5 19  2  0  0  0  0
  6  7  1  0  0  0  0
  6  8  1  0  0  0  0
  6 24  1  0  0  0  0
  7 25  1  0  0  0  0
  7 26  1  0  0  0  0
  7 27  1  0  0  0  0
  8  9  1  0  0  0  0
  8 28  1  0  0  0  0
  8 29  1  0  0  0  0
  9 10  1  0  0  0  0
  9 30  1  0  0  0  0
 10 11  2  0  0  0  0
 10 12  1  0  0  0  0
 12 13  1  0  0  0  0
 12 31  1  0  0  0  0
 13 17  1  0  0  0  0
 13 14  1  0  0  0  0
 13 32  1  0  0  0  0
 14 15  1  0  0  0  0
 14 33  1  0  0  0  0
 14 34  1  0  0  0  0
 15 16  1  0  0  0  0
 15 35  1  0  0  0  0
 15 36  1  0  0  0  0
 16 17  1  0  0  0  0
 17 18  1  0  0  0  0
 17 37  1  0  0  0  0
 18 38  1  0  0  0  0
 18 39  1  0  0  0  0
 18 40  1  0  0  0  0
M  END
> <s_m_source_file>
AV-unprocessed.smi

> <i_m_source_file_index>
2340

> <i_lp_mmshare_version>
43012

> <i_f3d_flags>
0

> <s_epik_input>
W0NIM11jMVtjSF1zYyhuMSlbQ0BIXShbQ0gzXSlbQ0gyXVtOSF1DKD1PKVtOSF1bQ0BASF0yW0NIMl1bQ0gyXU9bQ0BIXTJbQ0gzXQ==

> <s_epik_cmdline>
J2VwaWtfcHl0aG9uJywgJy1waCcsICc3LjAnLCAnLXRuJywgJzgnLCAnLW1hJywgJzIwMCcsICctbWV0YWxfYmluZGluZycsICctaW1hZScsICc8aW5maWxlLm1hZT4nLCAnLW9tYWUnLCAnPG91dGZpbGUubWFlPic=

> <r_epik_Ionization_Penalty>
0.00156622

> <r_epik_Ionization_Penalty_Charging>
0

> <r_epik_Ionization_Penalty_Neutral>
0.00156622

> <r_epik_State_Penalty>
0.00101902

> <r_epik_Charging_Adjusted_Penalty>
0.00101902

> <i_epik_Tot_Q>
0

> <i_epik_Tot_abs_Q>
0

> <r_epik_Metal_State_Penalty>
-0

> <b_epik_Metal_Only>
0

> <s_lp_Force_Field>
OPLS_2005

> <r_lp_Energy>
4.85076

> <b_lp_Chiralities_Consistent>
1

> <s_lp_Variant>
AV-unprocessed.smi:2340-2

> <Gold.Version>
5.8.1

> <Gold.Id.Protein>
6NUR|6NUR_protein|mol2

> <Gold.PLP.Fitness>
44.5681

> <Gold.PLP.PLP>
-38.2489

> <Gold.PLP.part.hbond>
-4.4346

> <Gold.PLP.part.metal>
0.0000

> <Gold.PLP.part.buried>
-3.4429

> <Gold.PLP.part.nonpolar>
-31.0122

> <Gold.PLP.part.repulsive>
0.1806

> <Gold.PLP.ligand.clash>
0.0000

> <Gold.PLP.ligand.torsion>
0.2349

> <Gold.PLP.Chemscore.Hbond>
2.2190

> <Gold.PLP.Chemscore.CHOScore>
0.0000

> <Gold.PLP.Chemscore.Metal>
0.0000

> <Gold.Chemscore.Hbonds>
donor molecule, donor type, donor heavy atom, donor atom, acceptor molecule, acceptor atom, score
      L1  H     9    30       P1  8028  0.65
      L1  H    12    31       P1  8029  0.89
      P1  H  6934  6946       L1    11  0.58

> <Gold.PLP.Chemscore.Internal.Correction>
0.1321

> <Gold.Rescore>
     Score         DG    S(hbond)    S(metal)    S(lipo)     H(rot)  DE(clash)    DE(int)     intcor
     17.01     -18.66       1.59        0.00     100.92       1.53       0.08       1.57       ----

> <Gold.Chemscore.Fitness>
17.0106

> <Gold.Chemscore.DG>
-18.6614

> <Gold.Chemscore.ZeroCoef>
-5.4800

> <Gold.Chemscore.Hbond>
1.5859

> <Gold.Chemscore.Metal>
0.0000

> <Gold.Chemscore.Lipo>
100.9223

> <Gold.Chemscore.Internal_Hbond>
0.0000

> <Gold.Chemscore.DEClash>
0.0811

> <Gold.Chemscore.DEInternal>
1.5698

> <Gold.Chemscore.Rot>
1.5325

> <Gold.Chemscore.Internal.Correction>
   9.000000E+99

> <Gold.Chemscore.Hbonds>
donor molecule, donor type, donor heavy atom, donor atom, acceptor molecule, acceptor atom, score
      L1  H     9    30       P1  8028  0.06
      L1  H    12    31       P1  8029  0.68
      P1  H  6934  6946       L1    11  0.58

> <Gold.Chemscore.Hbond.Weighted>
-5.2968

> <Gold.Chemscore.Metal.Weighted>
-0.0000

> <Gold.Chemscore.Lipo.Weighted>
-11.8079

> <Gold.Chemscore.Internal_Hbond.Weighted>
0.0000

> <Gold.Chemscore.DEClash.Weighted>
0.0811

> <Gold.Chemscore.DEInternal.Weighted>
1.5698

> <Gold.Chemscore.Rot.Weighted>
3.9233

> <Gold.Chemscore.Internal.Correction.Weighted>
   9.000000E+99

> <Gold.Protein.RotatedTorsions>
[ 6907 6896 6895 6894 ] final  113.49 input  -60.11 | X-H torsion
[ 7974 7965 7964 7962 ] final -147.43 input  175.53 | X-H torsion
[ 8008 7997 7996 7995 ] final -137.44 input   59.86 | X-H torsion
[ 10167 10162 10161 10158 ] final  -79.29 input  -65.29 | X-H torsion
[ 10718 10713 10712 10709 ] final   18.30 input   66.30 | X-H torsion
[ 10763 10752 10751 10750 ] final -107.31 input  -60.55 | X-H torsion
[ 11005 11000 10999 10996 ] final  166.00 input  -57.11 | X-H torsion

> <Gold.Protein.ActiveResidues>
 VAL166  LYS551  ARG553  GLY616  TRP617  ASP618  TYR619  PRO620  LYS621  CYS622 
 ASP623  PHE694  ASN695  SER759  ASP760  ASP761  ALA762  ILE779  LEU786  VAL792 
 PHE793  MET794  SER795  GLU796  ALA797  LYS798  CYS799  TRP800  GLU811  SER814 

> <Gold.Protein.RotatedAtoms>
  152.4858  133.8369  159.7131 H   0  0  0  0  0  0  0  0  0  0  0  0  # atno 6907 bound_to 6896
  150.8943  133.7192  159.2902 H   0  0  0  0  0  0  0  0  0  0  0  0  # atno 6908 bound_to 6896
  151.4654  135.1045  159.9789 H   0  0  0  0  0  0  0  0  0  0  0  0  # atno 6909 bound_to 6896
  144.8094  140.5328  143.5653 H   0  0  0  0  0  0  0  0  0  0  0  0  # atno 7974 bound_to 7965
  155.4118  140.0512  157.3031 H   0  0  0  0  0  0  0  0  0  0  0  0  # atno 8008 bound_to 7997
  154.4943  140.2132  155.9441 H   0  0  0  0  0  0  0  0  0  0  0  0  # atno 8009 bound_to 7997
  156.1384  140.3159  155.8462 H   0  0  0  0  0  0  0  0  0  0  0  0  # atno 8010 bound_to 7997
  140.4607  143.2455  151.8353 H   0  0  0  0  0  0  0  0  0  0  0  0  # atno 10167 bound_to 10162
  157.0944  130.6441  149.5857 H   0  0  0  0  0  0  0  0  0  0  0  0  # atno 10718 bound_to 10713
  154.8067  135.4679  154.0410 H   0  0  0  0  0  0  0  0  0  0  0  0  # atno 10763 bound_to 10752
  153.1874  135.6850  153.8404 H   0  0  0  0  0  0  0  0  0  0  0  0  # atno 10764 bound_to 10752
  153.7934  135.3240  155.3359 H   0  0  0  0  0  0  0  0  0  0  0  0  # atno 10765 bound_to 10752
  140.2619  134.7895  157.3598 H   0  0  0  0  0  0  0  0  0  0  0  0  # atno 11005 bound_to 11000
  145.5360  139.1475  143.3473 LP  0  0  0  0  0  0  0  0  0  0  0  0  # atno 17320 bound_to 7965
  146.2390  140.5501  142.8942 LP  0  0  0  0  0  0  0  0  0  0  0  0  # atno 17321 bound_to 7965
  139.4806  144.5011  151.9058 LP  0  0  0  0  0  0  0  0  0  0  0  0  # atno 17342 bound_to 10162
  140.4097  144.2385  150.5889 LP  0  0  0  0  0  0  0  0  0  0  0  0  # atno 17343 bound_to 10162
  155.9889  130.4935  150.7193 LP  0  0  0  0  0  0  0  0  0  0  0  0  # atno 17370 bound_to 10713
  157.4694  131.0891  151.0659 LP  0  0  0  0  0  0  0  0  0  0  0  0  # atno 17371 bound_to 10713
  140.1456  134.4915  155.7999 LP  0  0  0  0  0  0  0  0  0  0  0  0  # atno 17394 bound_to 11000
  141.2189  133.6842  156.7288 LP  0  0  0  0  0  0  0  0  0  0  0  0  # atno 17395 bound_to 11000

$$$$
