AV-unprocessed.smi:1129|AV-procd|sdf|4847|dock7
  -GOLD-   22720 3413D 1   1.00000     0.00000
 Structure written by MMmdl.
 40 41  0  0  0  0  0  0  0  0  1 V2000
  145.8901  137.8276  162.8488 C   0  0  0  0  0  0  0  0  0  0  0  0
  146.5954  137.8102  161.6200 O   0  0  0  0  0  0  0  0  0  0  0  0
  146.9783  136.5012  161.2321 C   0  0  0  0  0  0  0  0  0  0  0  0
  147.4047  136.5163  159.7611 C   0  0  0  0  0  0  0  0  0  0  0  0
  146.8938  135.3499  159.1228 O   0  0  0  0  0  0  0  0  0  0  0  0
  146.8746  135.3079  157.7438 C   0  0  0  0  0  0  0  0  0  0  0  0
  147.6205  136.2674  157.0310 C   0  0  0  0  0  0  0  0  0  0  0  0
  147.6059  136.2338  155.6235 C   0  0  0  0  0  0  0  0  0  0  0  0
  146.8360  135.2417  154.9712 C   0  0  0  0  0  0  0  0  0  0  0  0
  146.7599  135.0929  153.5603 N   0  0  0  0  0  0  0  0  0  0  0  0
  145.9246  134.3148  152.8470 C   0  0  0  0  0  0  0  0  0  0  0  0
  145.0757  133.5751  153.3447 O   0  0  0  0  0  0  0  0  0  0  0  0
  146.0886  134.3868  151.3161 C   0  0  1  0  0  0  0  0  0  0  0  0
  146.5453  133.0468  150.7090 C   0  0  0  0  0  0  0  0  0  0  0  0
  145.4512  131.9623  150.7330 C   0  0  0  0  0  0  0  0  0  0  0  0
  144.0578  132.4784  150.3428 C   0  0  0  0  0  0  0  0  0  0  0  0
  143.1782  131.6737  150.0452 O   0  0  0  0  0  0  0  0  0  0  0  0
  143.8169  133.8008  150.3765 N   0  0  0  0  0  0  0  0  0  0  0  0
  144.8034  134.8594  150.5993 C   0  0  0  0  0  0  0  0  0  0  0  0
  146.1392  134.3169  155.7759 C   0  0  0  0  0  0  0  0  0  0  0  0
  146.1470  134.3451  157.1253 N   0  0  0  0  0  0  0  0  0  0  0  0
  145.6229  138.8531  163.1029 H   0  0  0  0  0  0  0  0  0  0  0  0
  146.5005  137.4278  163.6596 H   0  0  0  0  0  0  0  0  0  0  0  0
  144.9693  137.2464  162.7840 H   0  0  0  0  0  0  0  0  0  0  0  0
  147.7881  136.1268  161.8606 H   0  0  0  0  0  0  0  0  0  0  0  0
  146.1288  135.8282  161.3570 H   0  0  0  0  0  0  0  0  0  0  0  0
  146.9916  137.4040  159.2795 H   0  0  0  0  0  0  0  0  0  0  0  0
  148.4922  136.5673  159.6835 H   0  0  0  0  0  0  0  0  0  0  0  0
  148.1977  137.0147  157.5550 H   0  0  0  0  0  0  0  0  0  0  0  0
  148.1931  136.9547  155.0763 H   0  0  0  0  0  0  0  0  0  0  0  0
  147.4686  135.5824  153.0330 H   0  0  0  0  0  0  0  0  0  0  0  0
  146.8637  135.1278  151.1132 H   0  0  0  0  0  0  0  0  0  0  0  0
  146.8547  133.2142  149.6765 H   0  0  0  0  0  0  0  0  0  0  0  0
  147.4328  132.6813  151.2272 H   0  0  0  0  0  0  0  0  0  0  0  0
  145.7307  131.1411  150.0721 H   0  0  0  0  0  0  0  0  0  0  0  0
  145.3764  131.5364  151.7340 H   0  0  0  0  0  0  0  0  0  0  0  0
  142.8780  134.1032  150.1593 H   0  0  0  0  0  0  0  0  0  0  0  0
  144.3273  135.6696  151.1533 H   0  0  0  0  0  0  0  0  0  0  0  0
  145.0650  135.2737  149.6251 H   0  0  0  0  0  0  0  0  0  0  0  0
  145.5510  133.5312  155.3245 H   0  0  0  0  0  0  0  0  0  0  0  0
  1  2  1  0  0  0  0
  1 22  1  0  0  0  0
  1 23  1  0  0  0  0
  1 24  1  0  0  0  0
  2  3  1  0  0  0  0
  3  4  1  0  0  0  0
  3 25  1  0  0  0  0
  3 26  1  0  0  0  0
  4  5  1  0  0  0  0
  4 27  1  0  0  0  0
  4 28  1  0  0  0  0
  5  6  1  0  0  0  0
  6 21  1  0  0  0  0
  6  7  2  0  0  0  0
  7  8  1  0  0  0  0
  7 29  1  0  0  0  0
  8  9  2  0  0  0  0
  8 30  1  0  0  0  0
  9 10  1  0  0  0  0
  9 20  1  0  0  0  0
 10 11  1  0  0  0  0
 10 31  1  0  0  0  0
 11 12  2  0  0  0  0
 11 13  1  0  0  0  0
 13 19  1  0  0  0  0
 13 14  1  0  0  0  0
 13 32  1  0  0  0  0
 14 15  1  0  0  0  0
 14 33  1  0  0  0  0
 14 34  1  0  0  0  0
 15 16  1  0  0  0  0
 15 35  1  0  0  0  0
 15 36  1  0  0  0  0
 16 17  2  0  0  0  0
 16 18  1  0  0  0  0
 18 19  1  0  0  0  0
 18 37  1  0  0  0  0
 19 38  1  0  0  0  0
 19 39  1  0  0  0  0
 20 21  2  0  0  0  0
 20 40  1  0  0  0  0
M  END
> <s_m_source_file>
AV-unprocessed.smi

> <i_m_source_file_index>
1129

> <i_lp_mmshare_version>
43012

> <i_f3d_flags>
0

> <s_epik_input>
W0NIM11PW0NIMl1bQ0gyXU9jMVtjSF1bY0hdYyhbY0hdbjEpW05IXUMoPU8pW0NAQEhdMltDSDJdW0NIMl1DKD1PKVtOSF1bQ0gyXTI=

> <s_epik_cmdline>
J2VwaWtfcHl0aG9uJywgJy1waCcsICc3LjAnLCAnLXRuJywgJzgnLCAnLW1hJywgJzIwMCcsICctbWV0YWxfYmluZGluZycsICctaW1hZScsICc8aW5maWxlLm1hZT4nLCAnLW9tYWUnLCAnPG91dGZpbGUubWFlPic=

> <r_lp_tautomer_probability>
1

> <r_epik_Ionization_Penalty>
1.79985e-05

> <r_epik_Ionization_Penalty_Charging>
0

> <r_epik_Ionization_Penalty_Neutral>
1.79985e-05

> <r_epik_State_Penalty>
-0

> <r_epik_Charging_Adjusted_Penalty>
0

> <i_epik_Tot_Q>
0

> <i_epik_Tot_abs_Q>
0

> <r_epik_Metal_State_Penalty>
-0

> <b_epik_Metal_Only>
0

> <s_lp_Force_Field>
OPLS_2005

> <r_lp_Energy>
14.8931

> <b_lp_Chiralities_Consistent>
1

> <s_lp_Variant>
AV-unprocessed.smi:1129-2

> <Gold.Version>
5.8.1

> <Gold.Id.Protein>
6NUR|6NUR_protein|mol2

> <Gold.PLP.Fitness>
41.0179

> <Gold.PLP.PLP>
-27.7416

> <Gold.PLP.part.hbond>
-5.0000

> <Gold.PLP.part.metal>
0.0000

> <Gold.PLP.part.buried>
-4.4529

> <Gold.PLP.part.nonpolar>
-21.2781

> <Gold.PLP.part.repulsive>
2.6126

> <Gold.PLP.ligand.clash>
0.0023

> <Gold.PLP.ligand.torsion>
0.6061

> <Gold.PLP.Chemscore.Hbond>
4.8080

> <Gold.PLP.Chemscore.CHOScore>
0.0000

> <Gold.PLP.Chemscore.Metal>
0.0000

> <Gold.Chemscore.Hbonds>
donor molecule, donor type, donor heavy atom, donor atom, acceptor molecule, acceptor atom, score
      L1  H    10    31       P1  7948  1.00
      L1  H    18    37       P1 10186  1.00
      P1  H  6934  6947       L1     2  0.83
      P1  H 10785 10796       L1    17  1.00

> <Gold.PLP.Chemscore.Internal.Correction>
0.0669

> <Gold.Rescore>
     Score         DG    S(hbond)    S(metal)    S(lipo)     H(rot)  DE(clash)    DE(int)     intcor
     16.77     -20.09       3.95        0.00      56.34       2.03       1.13       2.19       ----

> <Gold.Chemscore.Fitness>
16.7650

> <Gold.Chemscore.DG>
-20.0934

> <Gold.Chemscore.ZeroCoef>
-5.4800

> <Gold.Chemscore.Hbond>
3.9540

> <Gold.Chemscore.Metal>
0.0000

> <Gold.Chemscore.Lipo>
56.3434

> <Gold.Chemscore.Internal_Hbond>
0.0000

> <Gold.Chemscore.DEClash>
1.1335

> <Gold.Chemscore.DEInternal>
2.1949

> <Gold.Chemscore.Rot>
2.0255

> <Gold.Chemscore.Internal.Correction>
   9.000000E+99

> <Gold.Chemscore.Hbonds>
donor molecule, donor type, donor heavy atom, donor atom, acceptor molecule, acceptor atom, score
      L1  H    10    31       P1  7948  0.97
      L1  H    18    37       P1 10186  0.94
      P1  H  6934  6947       L1     2  0.78
      P1  H 10785 10796       L1    17  0.94

> <Gold.Chemscore.Hbond.Weighted>
-13.2065

> <Gold.Chemscore.Metal.Weighted>
-0.0000

> <Gold.Chemscore.Lipo.Weighted>
-6.5922

> <Gold.Chemscore.Internal_Hbond.Weighted>
0.0000

> <Gold.Chemscore.DEClash.Weighted>
1.1335

> <Gold.Chemscore.DEInternal.Weighted>
2.1949

> <Gold.Chemscore.Rot.Weighted>
5.1853

> <Gold.Chemscore.Internal.Correction.Weighted>
   9.000000E+99

> <Gold.Protein.RotatedTorsions>
[ 6907 6896 6895 6894 ] final -115.74 input  -60.11 | X-H torsion
[ 7974 7965 7964 7962 ] final   24.90 input  175.53 | X-H torsion
[ 8008 7997 7996 7995 ] final   93.18 input   59.86 | X-H torsion
[ 10167 10162 10161 10158 ] final   65.50 input  -65.29 | X-H torsion
[ 10718 10713 10712 10709 ] final  -49.26 input   66.30 | X-H torsion
[ 10763 10752 10751 10750 ] final  130.68 input  -60.55 | X-H torsion
[ 11005 11000 10999 10996 ] final   23.37 input  -57.11 | X-H torsion

> <Gold.Protein.ActiveResidues>
 VAL166  LYS551  ARG553  GLY616  TRP617  ASP618  TYR619  PRO620  LYS621  CYS622 
 ASP623  PHE694  ASN695  SER759  ASP760  ASP761  ALA762  ILE779  LEU786  VAL792 
 PHE793  MET794  SER795  GLU796  ALA797  LYS798  CYS799  TRP800  GLU811  SER814 

> <Gold.Protein.RotatedAtoms>
  150.8002  133.8615  159.3232 H   0  0  0  0  0  0  0  0  0  0  0  0  # atno 6907 bound_to 6896
  151.6429  135.1009  160.0154 H   0  0  0  0  0  0  0  0  0  0  0  0  # atno 6908 bound_to 6896
  152.4088  133.6891  159.6414 H   0  0  0  0  0  0  0  0  0  0  0  0  # atno 6909 bound_to 6896
  146.1915  139.7541  142.8828 H   0  0  0  0  0  0  0  0  0  0  0  0  # atno 7974 bound_to 7965
  156.0438  140.3316  155.7274 H   0  0  0  0  0  0  0  0  0  0  0  0  # atno 8008 bound_to 7997
  155.5704  140.0627  157.2825 H   0  0  0  0  0  0  0  0  0  0  0  0  # atno 8009 bound_to 7997
  154.4405  140.1862  156.0862 H   0  0  0  0  0  0  0  0  0  0  0  0  # atno 8010 bound_to 7997
  140.1106  144.4821  150.6980 H   0  0  0  0  0  0  0  0  0  0  0  0  # atno 10167 bound_to 10162
  156.1910  130.4153  149.9371 H   0  0  0  0  0  0  0  0  0  0  0  0  # atno 10718 bound_to 10713
  153.7619  135.3194  155.3338 H   0  0  0  0  0  0  0  0  0  0  0  0  # atno 10763 bound_to 10752
  154.8227  135.4592  154.0829 H   0  0  0  0  0  0  0  0  0  0  0  0  # atno 10764 bound_to 10752
  153.2063  135.6929  153.8253 H   0  0  0  0  0  0  0  0  0  0  0  0  # atno 10765 bound_to 10752
  140.3704  134.2029  155.7667 H   0  0  0  0  0  0  0  0  0  0  0  0  # atno 11005 bound_to 11000
  145.3777  141.0353  143.3195 LP  0  0  0  0  0  0  0  0  0  0  0  0  # atno 17320 bound_to 7965
  144.8496  139.5342  143.6862 LP  0  0  0  0  0  0  0  0  0  0  0  0  # atno 17321 bound_to 7965
  140.6928  143.2386  151.5085 LP  0  0  0  0  0  0  0  0  0  0  0  0  # atno 17342 bound_to 10162
  139.5621  144.2130  152.1708 LP  0  0  0  0  0  0  0  0  0  0  0  0  # atno 17343 bound_to 10162
  156.7111  130.8970  151.3609 LP  0  0  0  0  0  0  0  0  0  0  0  0  # atno 17370 bound_to 10713
  157.6929  130.9252  150.0563 LP  0  0  0  0  0  0  0  0  0  0  0  0  # atno 17371 bound_to 10713
  141.1956  133.8101  157.0706 LP  0  0  0  0  0  0  0  0  0  0  0  0  # atno 17394 bound_to 11000
  140.0556  134.9782  157.1215 LP  0  0  0  0  0  0  0  0  0  0  0  0  # atno 17395 bound_to 11000

$$$$
