AV-unprocessed.smi:1911|AV-procd|sdf|7745|dock2
  -GOLD-   22720 9483D 1   1.00000     0.00000
 Structure written by MMmdl.
 51 53  0  0  0  0  0  0  0  0  3 V2000
  144.0149  133.5509  148.9727 N   0  5  0  0  0  0  0  0  0  0  0  0
  144.4379  132.5300  149.7448 C   0  0  0  0  0  0  0  0  0  0  0  0
  143.8050  131.5377  150.0977 O   0  0  0  0  0  0  0  0  0  0  0  0
  145.8926  132.7021  150.1969 C   0  0  0  0  0  0  0  0  0  0  0  0
  145.9802  132.8543  151.6724 N   0  3  2  0  0  0  0  0  0  0  0  0
  145.3341  134.1039  152.1480 C   0  0  0  0  0  0  0  0  0  0  0  0
  145.3091  134.1713  153.6857 C   0  0  0  0  0  0  0  0  0  0  0  0
  146.7160  134.0154  154.2947 C   0  0  2  0  0  0  0  0  0  0  0  0
  147.5505  135.1887  154.0371 N   0  0  0  0  0  0  0  0  0  0  0  0
  147.9706  136.0619  154.9635 C   0  0  0  0  0  0  0  0  0  0  0  0
  147.6730  135.9837  156.1551 O   0  0  0  0  0  0  0  0  0  0  0  0
  148.7264  137.0268  154.4121 N   0  0  0  0  0  0  0  0  0  0  0  0
  149.4153  138.0868  155.0605 C   0  0  0  0  0  0  0  0  0  0  0  0
  149.4436  138.0973  156.4683 C   0  0  0  0  0  0  0  0  0  0  0  0
  150.0961  139.1500  157.1374 C   0  0  0  0  0  0  0  0  0  0  0  0
  150.7017  140.1773  156.3756 C   0  0  0  0  0  0  0  0  0  0  0  0
  151.3582  141.2570  156.9994 N   0  0  0  0  0  0  0  0  0  0  0  0
  150.9887  142.6410  156.7512 C   0  0  0  0  0  0  0  0  0  0  0  0
  151.8536  143.4536  157.7149 C   0  0  0  0  0  0  0  0  0  0  0  0
  152.0262  142.5135  158.9081 C   0  0  0  0  0  0  0  0  0  0  0  0
  152.0360  141.1149  158.2818 C   0  0  0  0  0  0  0  0  0  0  0  0
  150.6604  140.1764  155.0221 N   0  0  0  0  0  0  0  0  0  0  0  0
  150.0361  139.1638  154.3847 C   0  0  0  0  0  0  0  0  0  0  0  0
  147.3846  132.7478  153.7360 C   0  0  0  0  0  0  0  0  0  0  0  0
  147.3654  132.7155  152.1971 C   0  0  0  0  0  0  0  0  0  0  0  0
  144.7013  134.2495  148.6625 H   0  0  0  0  0  0  0  0  0  0  0  0
  146.5003  131.8582  149.8660 H   0  0  0  0  0  0  0  0  0  0  0  0
  146.2929  133.5876  149.7005 H   0  0  0  0  0  0  0  0  0  0  0  0
  145.8613  134.9667  151.7377 H   0  0  0  0  0  0  0  0  0  0  0  0
  144.3106  134.1521  151.7738 H   0  0  0  0  0  0  0  0  0  0  0  0
  144.8504  135.1052  154.0126 H   0  0  0  0  0  0  0  0  0  0  0  0
  144.6679  133.3739  154.0639 H   0  0  0  0  0  0  0  0  0  0  0  0
  146.6205  133.8964  155.3755 H   0  0  0  0  0  0  0  0  0  0  0  0
  147.8442  135.3365  153.0828 H   0  0  0  0  0  0  0  0  0  0  0  0
  148.7976  137.0171  153.4054 H   0  0  0  0  0  0  0  0  0  0  0  0
  148.9725  137.3068  157.0343 H   0  0  0  0  0  0  0  0  0  0  0  0
  150.1181  139.1542  158.2167 H   0  0  0  0  0  0  0  0  0  0  0  0
  151.1677  142.9288  155.7147 H   0  0  0  0  0  0  0  0  0  0  0  0
  149.9298  142.7785  156.9737 H   0  0  0  0  0  0  0  0  0  0  0  0
  152.8252  143.6528  157.2606 H   0  0  0  0  0  0  0  0  0  0  0  0
  151.4044  144.4096  157.9849 H   0  0  0  0  0  0  0  0  0  0  0  0
  152.9242  142.7227  159.4900 H   0  0  0  0  0  0  0  0  0  0  0  0
  151.1666  142.6085  159.5732 H   0  0  0  0  0  0  0  0  0  0  0  0
  151.5456  140.3919  158.9347 H   0  0  0  0  0  0  0  0  0  0  0  0
  153.0572  140.7770  158.1031 H   0  0  0  0  0  0  0  0  0  0  0  0
  150.0230  139.2486  153.3094 H   0  0  0  0  0  0  0  0  0  0  0  0
  148.4098  132.6688  154.1003 H   0  0  0  0  0  0  0  0  0  0  0  0
  146.8607  131.8694  154.1153 H   0  0  0  0  0  0  0  0  0  0  0  0
  147.8039  131.7761  151.8599 H   0  0  0  0  0  0  0  0  0  0  0  0
  147.9894  133.5141  151.7930 H   0  0  0  0  0  0  0  0  0  0  0  0
  145.4409  132.0882  152.0517 H   0  0  0  0  0  0  0  0  0  0  0  0
  1  2  1  0  0  0  0
  1 26  1  0  0  0  0
  2  3  2  0  0  0  0
  2  4  1  0  0  0  0
  4  5  1  0  0  0  0
  4 27  1  0  0  0  0
  4 28  1  0  0  0  0
  5 25  1  0  0  0  0
  5  6  1  0  0  0  0
  5 51  1  0  0  0  0
  6  7  1  0  0  0  0
  6 29  1  0  0  0  0
  6 30  1  0  0  0  0
  7  8  1  0  0  0  0
  7 31  1  0  0  0  0
  7 32  1  0  0  0  0
  8  9  1  0  0  0  0
  8 24  1  0  0  0  0
  8 33  1  0  0  0  0
  9 10  1  0  0  0  0
  9 34  1  0  0  0  0
 10 11  2  0  0  0  0
 10 12  1  0  0  0  0
 12 13  1  0  0  0  0
 12 35  1  0  0  0  0
 13 23  1  0  0  0  0
 13 14  2  0  0  0  0
 14 15  1  0  0  0  0
 14 36  1  0  0  0  0
 15 16  2  0  0  0  0
 15 37  1  0  0  0  0
 16 17  1  0  0  0  0
 16 22  1  0  0  0  0
 17 21  1  0  0  0  0
 17 18  1  0  0  0  0
 18 19  1  0  0  0  0
 18 38  1  0  0  0  0
 18 39  1  0  0  0  0
 19 20  1  0  0  0  0
 19 40  1  0  0  0  0
 19 41  1  0  0  0  0
 20 21  1  0  0  0  0
 20 42  1  0  0  0  0
 20 43  1  0  0  0  0
 21 44  1  0  0  0  0
 21 45  1  0  0  0  0
 22 23  2  0  0  0  0
 23 46  1  0  0  0  0
 24 25  1  0  0  0  0
 24 47  1  0  0  0  0
 24 48  1  0  0  0  0
 25 49  1  0  0  0  0
 25 50  1  0  0  0  0
M  CHG  1   1  -1
M  CHG  1   5   1
M  END
> <s_m_source_file>
AV-unprocessed.smi

> <i_m_source_file_index>
1911

> <i_lp_mmshare_version>
43012

> <i_f3d_flags>
0

> <s_epik_input>
W05IMl1DKD1PKVtDSDJdTjFbQ0gyXVtDSDJdW0NIXShbQ0gyXVtDSDJdMSlbTkhdQyg9TylbTkhdYzJbY0hdW2NIXWMobltjSF0yKU4zW0NIMl1bQ0gyXVtDSDJdW0NIMl0z

> <s_epik_cmdline>
J2VwaWtfcHl0aG9uJywgJy1waCcsICc3LjAnLCAnLXRuJywgJzgnLCAnLW1hJywgJzIwMCcsICctbWV0YWxfYmluZGluZycsICctaW1hZScsICc8aW5maWxlLm1hZT4nLCAnLW9tYWUnLCAnPG91dGZpbGUubWFlPic=

> <r_lp_tautomer_probability>
1

> <r_epik_Ionization_Penalty>
5.80652

> <r_epik_Ionization_Penalty_Charging>
5.7288

> <r_epik_Ionization_Penalty_Neutral>
0.0777157

> <r_epik_State_Penalty>
6.60246

> <r_epik_Charging_Adjusted_Penalty>
12.3313

> <i_epik_Tot_Q>
0

> <i_epik_Tot_abs_Q>
2

> <r_epik_Metal_State_Penalty>
2.64988

> <b_epik_Metal_Only>
1

> <s_lp_Force_Field>
OPLS_2005

> <r_lp_Energy>
33.5084

> <b_lp_Chiralities_Consistent>
1

> <s_lp_Variant>
AV-unprocessed.smi:1911-8

> <Gold.Version>
5.8.1

> <Gold.Id.Protein>
6NUR|6NUR_protein|mol2

> <Gold.PLP.Fitness>
52.3397

> <Gold.PLP.PLP>
-36.7790

> <Gold.PLP.part.hbond>
-5.5762

> <Gold.PLP.part.metal>
0.0000

> <Gold.PLP.part.buried>
-5.6435

> <Gold.PLP.part.nonpolar>
-26.1409

> <Gold.PLP.part.repulsive>
0.2513

> <Gold.PLP.ligand.clash>
0.0000

> <Gold.PLP.ligand.torsion>
0.8475

> <Gold.PLP.Chemscore.Hbond>
4.6850

> <Gold.PLP.Chemscore.CHOScore>
1.0000

> <Gold.PLP.Chemscore.Metal>
0.0000

> <Gold.Chemscore.Hbonds>
donor molecule, donor type, donor heavy atom, donor atom, acceptor molecule, acceptor atom, score
      L1  H     1    26       P1  7921  1.00
      L1  H     9    34       P1  7948  0.99
      L1  H    12    35       P1  7948  1.00
      P1  H  7989  7998       L1    22  0.90
      P1  H 10785 10796       L1     3  0.79
      L1  C    23    46       P1  7957  1.00

> <Gold.PLP.Chemscore.Internal.Correction>
0.2007

> <Gold.Rescore>
     Score         DG    S(hbond)    S(metal)    S(lipo)     H(rot)  DE(clash)    DE(int)     intcor
     20.74     -23.05       3.76        0.00      83.96       1.88       0.06       2.25       ----

> <Gold.Chemscore.Fitness>
20.7425

> <Gold.Chemscore.DG>
-23.0520

> <Gold.Chemscore.ZeroCoef>
-5.4800

> <Gold.Chemscore.Hbond>
3.7602

> <Gold.Chemscore.Metal>
0.0000

> <Gold.Chemscore.Lipo>
83.9646

> <Gold.Chemscore.Internal_Hbond>
0.0000

> <Gold.Chemscore.DEClash>
0.0616

> <Gold.Chemscore.DEInternal>
2.2479

> <Gold.Chemscore.Rot>
1.8793

> <Gold.Chemscore.Internal.Correction>
   9.000000E+99

> <Gold.Chemscore.Hbonds>
donor molecule, donor type, donor heavy atom, donor atom, acceptor molecule, acceptor atom, score
      L1  H     1    26       P1  7921  0.97
      L1  H     9    34       P1  7948  0.94
      L1  H    12    35       P1  7948  0.98
      P1  H  7989  7998       L1    22  0.18
      P1  H 10785 10796       L1     3  0.72

> <Gold.Chemscore.Hbond.Weighted>
-12.5591

> <Gold.Chemscore.Metal.Weighted>
-0.0000

> <Gold.Chemscore.Lipo.Weighted>
-9.8239

> <Gold.Chemscore.Internal_Hbond.Weighted>
0.0000

> <Gold.Chemscore.DEClash.Weighted>
0.0616

> <Gold.Chemscore.DEInternal.Weighted>
2.2479

> <Gold.Chemscore.Rot.Weighted>
4.8109

> <Gold.Chemscore.Internal.Correction.Weighted>
   9.000000E+99

> <Gold.Protein.RotatedTorsions>
[ 6907 6896 6895 6894 ] final   42.91 input  -60.11 | X-H torsion
[ 7974 7965 7964 7962 ] final  -73.09 input  175.53 | X-H torsion
[ 8008 7997 7996 7995 ] final  114.31 input   59.86 | X-H torsion
[ 10167 10162 10161 10158 ] final -119.11 input  -65.29 | X-H torsion
[ 10718 10713 10712 10709 ] final  -56.21 input   66.30 | X-H torsion
[ 10763 10752 10751 10750 ] final  166.27 input  -60.55 | X-H torsion
[ 11005 11000 10999 10996 ] final  160.43 input  -57.11 | X-H torsion

> <Gold.Protein.ActiveResidues>
 VAL166  LYS551  ARG553  GLY616  TRP617  ASP618  TYR619  PRO620  LYS621  CYS622 
 ASP623  PHE694  ASN695  SER759  ASP760  ASP761  ALA762  ILE779  LEU786  VAL792 
 PHE793  MET794  SER795  GLU796  ALA797  LYS798  CYS799  TRP800  GLU811  SER814 

> <Gold.Protein.RotatedAtoms>
  152.2137  134.8477  160.0494 H   0  0  0  0  0  0  0  0  0  0  0  0  # atno 6907 bound_to 6896
  151.9286  133.3600  159.3931 H   0  0  0  0  0  0  0  0  0  0  0  0  # atno 6908 bound_to 6896
  150.6982  134.4486  159.5369 H   0  0  0  0  0  0  0  0  0  0  0  0  # atno 6909 bound_to 6896
  145.6567  140.9265  143.0955 H   0  0  0  0  0  0  0  0  0  0  0  0  # atno 7974 bound_to 7965
  156.2313  140.2962  156.0196 H   0  0  0  0  0  0  0  0  0  0  0  0  # atno 8008 bound_to 7997
  155.2217  140.0416  157.2966 H   0  0  0  0  0  0  0  0  0  0  0  0  # atno 8009 bound_to 7997
  154.6000  140.2424  155.7812 H   0  0  0  0  0  0  0  0  0  0  0  0  # atno 8010 bound_to 7997
  140.0502  143.5068  152.2086 H   0  0  0  0  0  0  0  0  0  0  0  0  # atno 10167 bound_to 10162
  156.1306  130.4159  150.0275 H   0  0  0  0  0  0  0  0  0  0  0  0  # atno 10718 bound_to 10713
  154.3365  135.2754  155.2445 H   0  0  0  0  0  0  0  0  0  0  0  0  # atno 10763 bound_to 10752
  154.4734  135.5877  153.6341 H   0  0  0  0  0  0  0  0  0  0  0  0  # atno 10764 bound_to 10752
  152.9861  135.6093  154.3562 H   0  0  0  0  0  0  0  0  0  0  0  0  # atno 10765 bound_to 10752
  140.2058  134.8304  157.3068 H   0  0  0  0  0  0  0  0  0  0  0  0  # atno 11005 bound_to 11000
  144.7103  139.8396  143.7416 LP  0  0  0  0  0  0  0  0  0  0  0  0  # atno 17320 bound_to 7965
  146.1159  139.4170  143.0259 LP  0  0  0  0  0  0  0  0  0  0  0  0  # atno 17321 bound_to 7965
  139.5958  144.7566  151.3290 LP  0  0  0  0  0  0  0  0  0  0  0  0  # atno 17342 bound_to 10162
  140.7220  143.7108  150.7771 LP  0  0  0  0  0  0  0  0  0  0  0  0  # atno 17343 bound_to 10162
  156.8188  130.9351  151.3642 LP  0  0  0  0  0  0  0  0  0  0  0  0  # atno 17370 bound_to 10713
  157.6485  130.8864  149.9585 LP  0  0  0  0  0  0  0  0  0  0  0  0  # atno 17371 bound_to 10713
  140.2004  134.4262  155.7666 LP  0  0  0  0  0  0  0  0  0  0  0  0  # atno 17394 bound_to 11000
  141.2227  133.7069  156.8174 LP  0  0  0  0  0  0  0  0  0  0  0  0  # atno 17395 bound_to 11000

$$$$
