AV-unprocessed.smi:492|AV-procd|sdf|2708|dock10
  -GOLD-   2262023153D 1   1.00000     0.00000
 Structure written by MMmdl.
 46 48  0  0  0  0  0  0  0  0  1 V2000
  142.1882  146.1022  155.1411 C   0  0  0  0  0  0  0  0  0  0  0  0
  142.6937  145.0378  155.9339 O   0  0  0  0  0  0  0  0  0  0  0  0
  143.7263  144.2814  155.4220 C   0  0  0  0  0  0  0  0  0  0  0  0
  144.3348  144.5111  154.1623 C   0  0  0  0  0  0  0  0  0  0  0  0
  145.3867  143.6870  153.7165 C   0  0  0  0  0  0  0  0  0  0  0  0
  145.8515  142.6271  154.5208 C   0  0  0  0  0  0  0  0  0  0  0  0
  146.9723  141.7311  154.0286 C   0  0  0  0  0  0  0  0  0  0  0  0
  148.0935  141.7643  154.8955 O   0  0  0  0  0  0  0  0  0  0  0  0
  149.1686  140.9536  154.4495 C   0  0  0  0  0  0  0  0  0  0  0  0
  150.3118  140.9987  155.4760 C   0  0  2  0  0  0  0  0  0  0  0  0
  151.4400  140.3426  154.9322 O   0  0  0  0  0  0  0  0  0  0  0  0
  149.9228  140.4283  156.8564 C   0  0  0  0  0  0  0  0  0  0  0  0
  150.9035  140.7312  157.8888 N   0  0  0  0  0  0  0  0  0  0  0  0
  151.6161  139.8630  158.6476 C   0  0  0  0  0  0  0  0  0  0  0  0
  151.4732  138.3816  158.4975 C   0  0  0  0  0  0  0  0  0  0  0  0
  152.4513  140.4115  159.5301 N   0  0  0  0  0  0  0  0  0  0  0  0
  152.2646  141.7649  159.3225 C   0  0  0  0  0  0  0  0  0  0  0  0
  152.8626  142.8818  159.9491 C   0  0  0  0  0  0  0  0  0  0  0  0
  152.5100  144.1913  159.5617 C   0  0  0  0  0  0  0  0  0  0  0  0
  151.5556  144.4033  158.5458 C   0  0  0  0  0  0  0  0  0  0  0  0
  150.9468  143.3048  157.9096 C   0  0  0  0  0  0  0  0  0  0  0  0
  151.3030  141.9994  158.2991 C   0  0  0  0  0  0  0  0  0  0  0  0
  145.2432  142.3883  155.7700 C   0  0  0  0  0  0  0  0  0  0  0  0
  144.1919  143.2125  156.2149 C   0  0  0  0  0  0  0  0  0  0  0  0
  141.3812  146.5992  155.6794 H   0  0  0  0  0  0  0  0  0  0  0  0
  141.7792  145.7382  154.1976 H   0  0  0  0  0  0  0  0  0  0  0  0
  142.9575  146.8486  154.9382 H   0  0  0  0  0  0  0  0  0  0  0  0
  144.0116  145.3135  153.5170 H   0  0  0  0  0  0  0  0  0  0  0  0
  145.8364  143.8738  152.7522 H   0  0  0  0  0  0  0  0  0  0  0  0
  146.5893  140.7124  153.9526 H   0  0  0  0  0  0  0  0  0  0  0  0
  147.2750  142.0426  153.0276 H   0  0  0  0  0  0  0  0  0  0  0  0
  148.8391  139.9264  154.2842 H   0  0  0  0  0  0  0  0  0  0  0  0
  149.5270  141.3357  153.4924 H   0  0  0  0  0  0  0  0  0  0  0  0
  150.6056  142.0409  155.5995 H   0  0  0  0  0  0  0  0  0  0  0  0
  151.1802  139.4741  154.6656 H   0  0  0  0  0  0  0  0  0  0  0  0
  148.9507  140.8134  157.1649 H   0  0  0  0  0  0  0  0  0  0  0  0
  149.8129  139.3447  156.8054 H   0  0  0  0  0  0  0  0  0  0  0  0
  152.1253  137.8623  159.2005 H   0  0  0  0  0  0  0  0  0  0  0  0
  151.7467  138.0755  157.4877 H   0  0  0  0  0  0  0  0  0  0  0  0
  150.4462  138.0761  158.6954 H   0  0  0  0  0  0  0  0  0  0  0  0
  153.5941  142.7304  160.7288 H   0  0  0  0  0  0  0  0  0  0  0  0
  152.9734  145.0376  160.0472 H   0  0  0  0  0  0  0  0  0  0  0  0
  151.2905  145.4095  158.2559 H   0  0  0  0  0  0  0  0  0  0  0  0
  150.2140  143.4642  157.1326 H   0  0  0  0  0  0  0  0  0  0  0  0
  145.5793  141.5725  156.3932 H   0  0  0  0  0  0  0  0  0  0  0  0
  143.7365  143.0208  157.1755 H   0  0  0  0  0  0  0  0  0  0  0  0
  1  2  1  0  0  0  0
  1 25  1  0  0  0  0
  1 26  1  0  0  0  0
  1 27  1  0  0  0  0
  2  3  1  0  0  0  0
  3 24  1  0  0  0  0
  3  4  2  0  0  0  0
  4  5  1  0  0  0  0
  4 28  1  0  0  0  0
  5  6  2  0  0  0  0
  5 29  1  0  0  0  0
  6  7  1  0  0  0  0
  6 23  1  0  0  0  0
  7  8  1  0  0  0  0
  7 30  1  0  0  0  0
  7 31  1  0  0  0  0
  8  9  1  0  0  0  0
  9 10  1  0  0  0  0
  9 32  1  0  0  0  0
  9 33  1  0  0  0  0
 10 11  1  0  0  0  0
 10 12  1  0  0  0  0
 10 34  1  0  0  0  0
 11 35  1  0  0  0  0
 12 13  1  0  0  0  0
 12 36  1  0  0  0  0
 12 37  1  0  0  0  0
 13 22  1  0  0  0  0
 13 14  1  0  0  0  0
 14 15  1  0  0  0  0
 14 16  2  0  0  0  0
 15 38  1  0  0  0  0
 15 39  1  0  0  0  0
 15 40  1  0  0  0  0
 16 17  1  0  0  0  0
 17 22  2  0  0  0  0
 17 18  1  0  0  0  0
 18 19  2  0  0  0  0
 18 41  1  0  0  0  0
 19 20  1  0  0  0  0
 19 42  1  0  0  0  0
 20 21  2  0  0  0  0
 20 43  1  0  0  0  0
 21 22  1  0  0  0  0
 21 44  1  0  0  0  0
 23 24  2  0  0  0  0
 23 45  1  0  0  0  0
 24 46  1  0  0  0  0
M  END
> <s_m_source_file>
AV-unprocessed.smi

> <i_m_source_file_index>
492

> <i_lp_mmshare_version>
43012

> <i_f3d_flags>
0

> <s_epik_input>
W0NIM11PYzFbY0hdW2NIXWMoW2NIXVtjSF0xKVtDSDJdT1tDSDJdW0NASF0oW09IXSlbQ0gyXW4oYyhuMilbQ0gzXSljKGMyMylbY0hdW2NIXVtjSF1bY0hdMw==

> <s_epik_cmdline>
J2VwaWtfcHl0aG9uJywgJy1waCcsICc3LjAnLCAnLXRuJywgJzgnLCAnLW1hJywgJzIwMCcsICctbWV0YWxfYmluZGluZycsICctaW1hZScsICc8aW5maWxlLm1hZT4nLCAnLW9tYWUnLCAnPG91dGZpbGUubWFlPic=

> <r_lp_tautomer_probability>
1

> <r_epik_Ionization_Penalty>
0.132603

> <r_epik_Ionization_Penalty_Charging>
0

> <r_epik_Ionization_Penalty_Neutral>
0.132603

> <r_epik_State_Penalty>
0.121982

> <r_epik_Charging_Adjusted_Penalty>
0.121982

> <i_epik_Tot_Q>
0

> <i_epik_Tot_abs_Q>
0

> <r_epik_Metal_State_Penalty>
0.000135431

> <b_epik_Metal_Only>
0

> <s_lp_Force_Field>
OPLS_2005

> <r_lp_Energy>
19.0412

> <b_lp_Chiralities_Consistent>
1

> <s_lp_Variant>
AV-unprocessed.smi:492-1

> <Gold.Version>
5.8.1

> <Gold.Id.Protein>
6NUR|6NUR_protein|mol2

> <Gold.PLP.Fitness>
57.2213

> <Gold.PLP.PLP>
-54.2953

> <Gold.PLP.part.hbond>
-1.0000

> <Gold.PLP.part.metal>
0.0000

> <Gold.PLP.part.buried>
-8.1927

> <Gold.PLP.part.nonpolar>
-46.0938

> <Gold.PLP.part.repulsive>
0.2799

> <Gold.PLP.ligand.clash>
0.0000

> <Gold.PLP.ligand.torsion>
0.0788

> <Gold.PLP.Chemscore.Hbond>
1.0000

> <Gold.PLP.Chemscore.CHOScore>
0.0000

> <Gold.PLP.Chemscore.Metal>
0.0000

> <Gold.Chemscore.Hbonds>
donor molecule, donor type, donor heavy atom, donor atom, acceptor molecule, acceptor atom, score
      P1  H  7989  7998       L1    11  0.80

> <Gold.PLP.Chemscore.Internal.Correction>
0.0835

> <Gold.Rescore>
     Score         DG    S(hbond)    S(metal)    S(lipo)     H(rot)  DE(clash)    DE(int)     intcor
     16.10     -16.34       0.51        0.00     130.86       2.40       0.09       0.16       ----

> <Gold.Chemscore.Fitness>
16.1011

> <Gold.Chemscore.DG>
-16.3447

> <Gold.Chemscore.ZeroCoef>
-5.4800

> <Gold.Chemscore.Hbond>
0.5079

> <Gold.Chemscore.Metal>
0.0000

> <Gold.Chemscore.Lipo>
130.8550

> <Gold.Chemscore.Internal_Hbond>
0.0000

> <Gold.Chemscore.DEClash>
0.0861

> <Gold.Chemscore.DEInternal>
0.1576

> <Gold.Chemscore.Rot>
2.3991

> <Gold.Chemscore.Internal.Correction>
   9.000000E+99

> <Gold.Chemscore.Hbonds>
donor molecule, donor type, donor heavy atom, donor atom, acceptor molecule, acceptor atom, score
      P1  H  7989  7998       L1    11  0.07

> <Gold.Chemscore.Hbond.Weighted>
-1.6964

> <Gold.Chemscore.Metal.Weighted>
-0.0000

> <Gold.Chemscore.Lipo.Weighted>
-15.3100

> <Gold.Chemscore.Internal_Hbond.Weighted>
0.0000

> <Gold.Chemscore.DEClash.Weighted>
0.0861

> <Gold.Chemscore.DEInternal.Weighted>
0.1576

> <Gold.Chemscore.Rot.Weighted>
6.1417

> <Gold.Chemscore.Internal.Correction.Weighted>
   9.000000E+99

> <Gold.Protein.RotatedTorsions>
[ 6907 6896 6895 6894 ] final   48.06 input  -60.11 | X-H torsion
[ 7974 7965 7964 7962 ] final  145.11 input  175.53 | X-H torsion
[ 8008 7997 7996 7995 ] final   73.23 input   59.86 | X-H torsion
[ 10167 10162 10161 10158 ] final   18.81 input  -65.29 | X-H torsion
[ 10718 10713 10712 10709 ] final  -15.85 input   66.30 | X-H torsion
[ 10763 10752 10751 10750 ] final   91.62 input  -60.55 | X-H torsion
[ 11005 11000 10999 10996 ] final  -13.36 input  -57.11 | X-H torsion

> <Gold.Protein.ActiveResidues>
 VAL166  LYS551  ARG553  GLY616  TRP617  ASP618  TYR619  PRO620  LYS621  CYS622 
 ASP623  PHE694  ASN695  SER759  ASP760  ASP761  ALA762  ILE779  LEU786  VAL792 
 PHE793  MET794  SER795  GLU796  ALA797  LYS798  CYS799  TRP800  GLU811  SER814 

> <Gold.Protein.RotatedAtoms>
  152.2752  134.7889  160.0406 H   0  0  0  0  0  0  0  0  0  0  0  0  # atno 6907 bound_to 6896
  151.8488  133.3431  159.3674 H   0  0  0  0  0  0  0  0  0  0  0  0  # atno 6908 bound_to 6896
  150.7167  134.5247  159.5715 H   0  0  0  0  0  0  0  0  0  0  0  0  # atno 6909 bound_to 6896
  144.8780  139.5743  143.5856 H   0  0  0  0  0  0  0  0  0  0  0  0  # atno 7974 bound_to 7965
  155.7806  140.3482  155.5295 H   0  0  0  0  0  0  0  0  0  0  0  0  # atno 8008 bound_to 7997
  155.8732  140.0990  157.1556 H   0  0  0  0  0  0  0  0  0  0  0  0  # atno 8009 bound_to 7997
  154.4019  140.1336  156.4092 H   0  0  0  0  0  0  0  0  0  0  0  0  # atno 8010 bound_to 7997
  140.5625  143.9311  150.6653 H   0  0  0  0  0  0  0  0  0  0  0  0  # atno 10167 bound_to 10162
  156.5959  130.4811  149.6260 H   0  0  0  0  0  0  0  0  0  0  0  0  # atno 10718 bound_to 10713
  153.2102  135.4391  155.0371 H   0  0  0  0  0  0  0  0  0  0  0  0  # atno 10763 bound_to 10752
  154.8196  135.3331  154.7080 H   0  0  0  0  0  0  0  0  0  0  0  0  # atno 10764 bound_to 10752
  153.7518  135.6997  153.4999 H   0  0  0  0  0  0  0  0  0  0  0  0  # atno 10765 bound_to 10752
  140.7753  133.8406  155.9243 H   0  0  0  0  0  0  0  0  0  0  0  0  # atno 11005 bound_to 11000
  146.2975  139.7324  142.9116 LP  0  0  0  0  0  0  0  0  0  0  0  0  # atno 17320 bound_to 7965
  145.4007  141.0385  143.3072 LP  0  0  0  0  0  0  0  0  0  0  0  0  # atno 17321 bound_to 7965
  140.2765  143.3419  152.1190 LP  0  0  0  0  0  0  0  0  0  0  0  0  # atno 17342 bound_to 10162
  139.5077  144.6837  151.5944 LP  0  0  0  0  0  0  0  0  0  0  0  0  # atno 17343 bound_to 10162
  156.2510  130.6907  151.1645 LP  0  0  0  0  0  0  0  0  0  0  0  0  # atno 17370 bound_to 10713
  157.7292  131.0626  150.5785 LP  0  0  0  0  0  0  0  0  0  0  0  0  # atno 17371 bound_to 10713
  140.9535  134.1748  157.4710 LP  0  0  0  0  0  0  0  0  0  0  0  0  # atno 17394 bound_to 11000
  139.8750  134.9918  156.5566 LP  0  0  0  0  0  0  0  0  0  0  0  0  # atno 17395 bound_to 11000

$$$$
