AV-unprocessed.smi:927|AV-procd|sdf|4190|dock8
  -GOLD-   22720 2 93D 1   1.00000     0.00000
 Structure written by MMmdl.
 20 20  0  0  0  0  0  0  0  0  1 V2000
  143.2510  134.4510  147.9042 N   0  0  0  0  0  0  0  0  0  0  0  0
  143.8518  133.3957  148.7353 C   0  0  0  0  0  0  0  0  0  0  0  0
  143.5248  133.5528  150.2310 C   0  0  1  0  0  0  0  0  0  0  0  0
  142.3477  132.8205  150.5089 O   0  0  0  0  0  0  0  0  0  0  0  0
  144.6826  133.0775  151.0954 C   0  0  0  0  0  0  0  0  0  0  0  0
  145.9781  133.6179  150.9428 C   0  0  0  0  0  0  0  0  0  0  0  0
  147.0095  133.1439  151.7776 C   0  0  0  0  0  0  0  0  0  0  0  0
  146.8232  132.1966  152.7215 N   0  0  0  0  0  0  0  0  0  0  0  0
  145.5822  131.6844  152.8645 C   0  0  0  0  0  0  0  0  0  0  0  0
  144.4824  132.0882  152.0812 C   0  0  0  0  0  0  0  0  0  0  0  0
  142.7880  134.0453  147.0922 H   0  0  0  0  0  0  0  0  0  0  0  0
  142.5415  134.9585  148.4308 H   0  0  0  0  0  0  0  0  0  0  0  0
  143.5459  132.4104  148.3812 H   0  0  0  0  0  0  0  0  0  0  0  0
  144.9341  133.4382  148.6099 H   0  0  0  0  0  0  0  0  0  0  0  0
  143.3295  134.6023  150.4562 H   0  0  0  0  0  0  0  0  0  0  0  0
  141.6191  133.4217  150.5259 H   0  0  0  0  0  0  0  0  0  0  0  0
  146.1792  134.3799  150.2042 H   0  0  0  0  0  0  0  0  0  0  0  0
  148.0109  133.5377  151.6854 H   0  0  0  0  0  0  0  0  0  0  0  0
  145.4609  130.9298  153.6275 H   0  0  0  0  0  0  0  0  0  0  0  0
  143.5093  131.6467  152.2383 H   0  0  0  0  0  0  0  0  0  0  0  0
  1  2  1  0  0  0  0
  1 11  1  0  0  0  0
  1 12  1  0  0  0  0
  2  3  1  0  0  0  0
  2 13  1  0  0  0  0
  2 14  1  0  0  0  0
  3  4  1  0  0  0  0
  3  5  1  0  0  0  0
  3 15  1  0  0  0  0
  4 16  1  0  0  0  0
  5 10  1  0  0  0  0
  5  6  2  0  0  0  0
  6  7  1  0  0  0  0
  6 17  1  0  0  0  0
  7  8  2  0  0  0  0
  7 18  1  0  0  0  0
  8  9  1  0  0  0  0
  9 10  2  0  0  0  0
  9 19  1  0  0  0  0
 10 20  1  0  0  0  0
M  END
> <s_m_source_file>
AV-unprocessed.smi

> <i_m_source_file_index>
927

> <i_lp_mmshare_version>
43012

> <i_f3d_flags>
0

> <s_epik_input>
W05IMl1bQ0gyXVtDQEhdKFtPSF0pYzFbY0hdW2NIXW5bY0hdW2NIXTE=

> <s_epik_cmdline>
J2VwaWtfcHl0aG9uJywgJy1waCcsICc3LjAnLCAnLXRuJywgJzgnLCAnLW1hJywgJzIwMCcsICctbWV0YWxfYmluZGluZycsICctaW1hZScsICc8aW5maWxlLm1hZT4nLCAnLW9tYWUnLCAnPG91dGZpbGUubWFlPic=

> <r_epik_Ionization_Penalty>
2.24668

> <r_epik_Ionization_Penalty_Charging>
0

> <r_epik_Ionization_Penalty_Neutral>
2.24668

> <r_epik_State_Penalty>
2.36938

> <r_epik_Charging_Adjusted_Penalty>
2.36938

> <i_epik_Tot_Q>
0

> <i_epik_Tot_abs_Q>
0

> <r_epik_Metal_State_Penalty>
2.3492

> <b_epik_Metal_Only>
0

> <s_lp_Force_Field>
OPLS_2005

> <r_lp_Energy>
12.0252

> <b_lp_Chiralities_Consistent>
1

> <s_lp_Variant>
AV-unprocessed.smi:927-4

> <Gold.Version>
5.8.1

> <Gold.Id.Protein>
6NUR|6NUR_protein|mol2

> <Gold.PLP.Fitness>
35.6536

> <Gold.PLP.PLP>
-22.8340

> <Gold.PLP.part.hbond>
-5.7957

> <Gold.PLP.part.metal>
0.0000

> <Gold.PLP.part.buried>
-0.1239

> <Gold.PLP.part.nonpolar>
-16.2623

> <Gold.PLP.part.repulsive>
0.1458

> <Gold.PLP.ligand.clash>
0.0000

> <Gold.PLP.ligand.torsion>
0.4553

> <Gold.PLP.Chemscore.Hbond>
3.5760

> <Gold.PLP.Chemscore.CHOScore>
1.0000

> <Gold.PLP.Chemscore.Metal>
0.0000

> <Gold.Chemscore.Hbonds>
donor molecule, donor type, donor heavy atom, donor atom, acceptor molecule, acceptor atom, score
      L1  H     1    11       P1 10195  1.00
      L1  H     1    12       P1 10186  0.70
      L1  H     4    16       P1 10186  0.69
      L1  C     7    18       P1  7948  0.08
      L1  C     9    19       P1 10956  0.07

> <Gold.PLP.Chemscore.Internal.Correction>
0.0021

> <Gold.Rescore>
     Score         DG    S(hbond)    S(metal)    S(lipo)     H(rot)  DE(clash)    DE(int)     intcor
     17.11     -18.41       3.11        0.00      62.04       1.85       0.67       0.63       ----

> <Gold.Chemscore.Fitness>
17.1123

> <Gold.Chemscore.DG>
-18.4146

> <Gold.Chemscore.ZeroCoef>
-5.4800

> <Gold.Chemscore.Hbond>
3.1140

> <Gold.Chemscore.Metal>
0.0000

> <Gold.Chemscore.Lipo>
62.0362

> <Gold.Chemscore.Internal_Hbond>
0.0000

> <Gold.Chemscore.DEClash>
0.6746

> <Gold.Chemscore.DEInternal>
0.6277

> <Gold.Chemscore.Rot>
1.8455

> <Gold.Chemscore.Internal.Correction>
   9.000000E+99

> <Gold.Chemscore.Hbonds>
donor molecule, donor type, donor heavy atom, donor atom, acceptor molecule, acceptor atom, score
      L1  H     1    11       P1 10195  0.81
      L1  H     1    12       P1 10186  0.67
      L1  H     4    16       P1 10186  0.62

> <Gold.Chemscore.Hbond.Weighted>
-10.4009

> <Gold.Chemscore.Metal.Weighted>
-0.0000

> <Gold.Chemscore.Lipo.Weighted>
-7.2582

> <Gold.Chemscore.Internal_Hbond.Weighted>
0.0000

> <Gold.Chemscore.DEClash.Weighted>
0.6746

> <Gold.Chemscore.DEInternal.Weighted>
0.6277

> <Gold.Chemscore.Rot.Weighted>
4.7245

> <Gold.Chemscore.Internal.Correction.Weighted>
   9.000000E+99

> <Gold.Protein.RotatedTorsions>
[ 6907 6896 6895 6894 ] final -140.74 input  -60.11 | X-H torsion
[ 7974 7965 7964 7962 ] final   32.61 input  175.53 | X-H torsion
[ 8008 7997 7996 7995 ] final  -19.86 input   59.86 | X-H torsion
[ 10167 10162 10161 10158 ] final   20.42 input  -65.29 | X-H torsion
[ 10718 10713 10712 10709 ] final  -65.48 input   66.30 | X-H torsion
[ 10763 10752 10751 10750 ] final  114.39 input  -60.55 | X-H torsion
[ 11005 11000 10999 10996 ] final -167.19 input  -57.11 | X-H torsion

> <Gold.Protein.ActiveResidues>
 VAL166  LYS551  ARG553  GLY616  TRP617  ASP618  TYR619  PRO620  LYS621  CYS622 
 ASP623  PHE694  ASN695  SER759  ASP760  ASP761  ALA762  ILE779  LEU786  VAL792 
 PHE793  MET794  SER795  GLU796  ALA797  LYS798  CYS799  TRP800  GLU811  SER814 

> <Gold.Protein.RotatedAtoms>
  151.0646  133.5516  159.2631 H   0  0  0  0  0  0  0  0  0  0  0  0  # atno 6907 bound_to 6896
  151.2478  135.0611  159.9060 H   0  0  0  0  0  0  0  0  0  0  0  0  # atno 6908 bound_to 6896
  152.5403  134.0411  159.8121 H   0  0  0  0  0  0  0  0  0  0  0  0  # atno 6909 bound_to 6896
  146.1475  139.6504  142.9121 H   0  0  0  0  0  0  0  0  0  0  0  0  # atno 7974 bound_to 7965
  154.4808  140.2077  155.9767 H   0  0  0  0  0  0  0  0  0  0  0  0  # atno 8008 bound_to 7997
  156.1162  140.3221  155.8112 H   0  0  0  0  0  0  0  0  0  0  0  0  # atno 8009 bound_to 7997
  155.4548  140.0519  157.2988 H   0  0  0  0  0  0  0  0  0  0  0  0  # atno 8010 bound_to 7997
  140.5505  143.9517  150.6575 H   0  0  0  0  0  0  0  0  0  0  0  0  # atno 10167 bound_to 10162
  156.0667  130.4248  150.1570 H   0  0  0  0  0  0  0  0  0  0  0  0  # atno 10718 bound_to 10713
  153.5066  135.3627  155.2566 H   0  0  0  0  0  0  0  0  0  0  0  0  # atno 10763 bound_to 10752
  154.8744  135.4012  154.3417 H   0  0  0  0  0  0  0  0  0  0  0  0  # atno 10764 bound_to 10752
  153.4063  135.7076  153.6457 H   0  0  0  0  0  0  0  0  0  0  0  0  # atno 10765 bound_to 10752
  140.5560  134.5381  157.5133 H   0  0  0  0  0  0  0  0  0  0  0  0  # atno 11005 bound_to 11000
  145.4903  141.0438  143.2597 LP  0  0  0  0  0  0  0  0  0  0  0  0  # atno 17320 bound_to 7965
  144.7864  139.6419  143.7132 LP  0  0  0  0  0  0  0  0  0  0  0  0  # atno 17321 bound_to 7965
  140.2942  143.3304  152.1034 LP  0  0  0  0  0  0  0  0  0  0  0  0  # atno 17342 bound_to 10162
  139.5025  144.6737  151.6181 LP  0  0  0  0  0  0  0  0  0  0  0  0  # atno 17343 bound_to 10162
  156.9628  130.9810  151.3475 LP  0  0  0  0  0  0  0  0  0  0  0  0  # atno 17370 bound_to 10713
  157.5713  130.8312  149.8396 LP  0  0  0  0  0  0  0  0  0  0  0  0  # atno 17371 bound_to 10713
  139.9431  134.7750  156.0628 LP  0  0  0  0  0  0  0  0  0  0  0  0  # atno 17394 bound_to 11000
  141.1143  133.6633  156.3055 LP  0  0  0  0  0  0  0  0  0  0  0  0  # atno 17395 bound_to 11000

$$$$
