AV-unprocessed.smi:52|AV-procd|sdf|512|dock10
  -GOLD-   2262016383D 1   1.00000     0.00000
 Structure written by MMmdl.
 26 27  0  0  0  0  0  0  0  0  2 V2000
  152.2200  137.4552  154.0657 O   0  0  0  0  0  0  0  0  0  0  0  0
  152.5963  138.4501  154.7244 C   0  0  0  0  0  0  0  0  0  0  0  0
  153.7923  138.6080  155.0551 O   0  5  0  0  0  0  0  0  0  0  0  0
  151.5933  139.4716  155.1239 C   0  0  0  0  0  0  0  0  0  0  0  0
  150.2862  139.5426  154.7121 C   0  0  0  0  0  0  0  0  0  0  0  0
  149.6877  140.6255  155.2971 O   0  0  0  0  0  0  0  0  0  0  0  0
  150.6708  141.1819  156.0556 C   0  0  0  0  0  0  0  0  0  0  0  0
  150.3679  142.4165  156.8389 C   0  0  0  0  0  0  0  0  0  0  0  0
  151.4718  142.8341  157.6967 N   0  0  0  0  0  0  0  0  0  0  0  0
  151.5109  144.2647  157.9538 C   0  0  0  0  0  0  0  0  0  0  0  0
  152.3586  144.4583  159.2191 C   0  0  0  0  0  0  0  0  0  0  0  0
  152.4221  143.0550  159.8442 C   0  0  1  0  0  0  0  0  0  0  0  0
  152.0987  143.0514  161.2186 O   0  0  0  0  0  0  0  0  0  0  0  0
  151.4195  142.2470  159.0189 C   0  0  0  0  0  0  0  0  0  0  0  0
  151.8304  140.5314  155.9908 N   0  0  0  0  0  0  0  0  0  0  0  0
  153.4228  142.6412  159.7113 H   0  0  0  0  0  0  0  0  0  0  0  0
  149.6759  138.9434  154.0527 H   0  0  0  0  0  0  0  0  0  0  0  0
  150.0975  143.2159  156.1475 H   0  0  0  0  0  0  0  0  0  0  0  0
  149.4860  142.2183  157.4493 H   0  0  0  0  0  0  0  0  0  0  0  0
  151.9116  144.8130  157.1005 H   0  0  0  0  0  0  0  0  0  0  0  0
  150.5022  144.6373  158.1406 H   0  0  0  0  0  0  0  0  0  0  0  0
  153.3602  144.8130  158.9734 H   0  0  0  0  0  0  0  0  0  0  0  0
  151.8976  145.1929  159.8806 H   0  0  0  0  0  0  0  0  0  0  0  0
  151.1583  143.0170  161.3055 H   0  0  0  0  0  0  0  0  0  0  0  0
  150.4164  142.3597  159.4346 H   0  0  0  0  0  0  0  0  0  0  0  0
  151.6571  141.1828  158.9988 H   0  0  0  0  0  0  0  0  0  0  0  0
  1  2  2  0  0  0  0
  2  3  1  0  0  0  0
  2  4  1  0  0  0  0
  4 15  1  0  0  0  0
  4  5  2  0  0  0  0
  5  6  1  0  0  0  0
  5 17  1  0  0  0  0
  6  7  1  0  0  0  0
  7  8  1  0  0  0  0
  7 15  2  0  0  0  0
  8  9  1  0  0  0  0
  8 18  1  0  0  0  0
  8 19  1  0  0  0  0
  9 14  1  0  0  0  0
  9 10  1  0  0  0  0
 10 11  1  0  0  0  0
 10 20  1  0  0  0  0
 10 21  1  0  0  0  0
 11 12  1  0  0  0  0
 11 22  1  0  0  0  0
 11 23  1  0  0  0  0
 12 16  1  0  0  0  0
 12 13  1  0  0  0  0
 12 14  1  0  0  0  0
 13 24  1  0  0  0  0
 14 25  1  0  0  0  0
 14 26  1  0  0  0  0
M  CHG  1   3  -1
M  END
> <s_m_source_file>
AV-unprocessed.smi

> <i_m_source_file_index>
52

> <i_lp_mmshare_version>
43012

> <i_f3d_flags>
0

> <s_epik_input>
Tz1DKFtPSF0pYzFbY0hdb2MobjEpW0NIMl1OMltDSDJdW0NIMl1bQ0BIXShbT0hdKVtDSDJdMg==

> <s_epik_cmdline>
J2VwaWtfcHl0aG9uJywgJy1waCcsICc3LjAnLCAnLXRuJywgJzgnLCAnLW1hJywgJzIwMCcsICctbWV0YWxfYmluZGluZycsICctaW1hZScsICc8aW5maWxlLm1hZT4nLCAnLW9tYWUnLCAnPG91dGZpbGUubWFlPic=

> <r_epik_Ionization_Penalty>
1.6537

> <r_epik_Ionization_Penalty_Charging>
0.000221913

> <r_epik_Ionization_Penalty_Neutral>
1.65348

> <r_epik_State_Penalty>
1.75577

> <r_epik_Charging_Adjusted_Penalty>
1.75599

> <i_epik_Tot_Q>
-1

> <i_epik_Tot_abs_Q>
1

> <r_epik_Metal_State_Penalty>
1.75577

> <b_epik_Metal_Only>
0

> <s_lp_Force_Field>
OPLS_2005

> <r_lp_Energy>
35.559

> <b_lp_Chiralities_Consistent>
1

> <s_lp_Variant>
AV-unprocessed.smi:52-6

> <Gold.Version>
5.8.1

> <Gold.Id.Protein>
6NUR|6NUR_protein|mol2

> <Gold.PLP.Fitness>
42.0284

> <Gold.PLP.PLP>
-33.3594

> <Gold.PLP.part.hbond>
-2.1247

> <Gold.PLP.part.metal>
0.0000

> <Gold.PLP.part.buried>
-1.4094

> <Gold.PLP.part.nonpolar>
-28.8160

> <Gold.PLP.part.repulsive>
0.4103

> <Gold.PLP.ligand.clash>
0.0000

> <Gold.PLP.ligand.torsion>
0.4185

> <Gold.PLP.Chemscore.Hbond>
3.1680

> <Gold.PLP.Chemscore.CHOScore>
0.0000

> <Gold.PLP.Chemscore.Metal>
0.0000

> <Gold.Chemscore.Hbonds>
donor molecule, donor type, donor heavy atom, donor atom, acceptor molecule, acceptor atom, score
      P1  H  7997  8008       L1     3  1.41
      P1  H 10752 10765       L1     1  1.70

> <Gold.PLP.Chemscore.Internal.Correction>
0.0021

> <Gold.Rescore>
     Score         DG    S(hbond)    S(metal)    S(lipo)     H(rot)  DE(clash)    DE(int)     intcor
     13.25     -13.72       1.49        0.00      70.55       1.95       0.02       0.45       ----

> <Gold.Chemscore.Fitness>
13.2487

> <Gold.Chemscore.DG>
-13.7204

> <Gold.Chemscore.ZeroCoef>
-5.4800

> <Gold.Chemscore.Hbond>
1.4901

> <Gold.Chemscore.Metal>
0.0000

> <Gold.Chemscore.Lipo>
70.5530

> <Gold.Chemscore.Internal_Hbond>
0.0000

> <Gold.Chemscore.DEClash>
0.0237

> <Gold.Chemscore.DEInternal>
0.4480

> <Gold.Chemscore.Rot>
1.9497

> <Gold.Chemscore.Internal.Correction>
   9.000000E+99

> <Gold.Chemscore.Hbonds>
donor molecule, donor type, donor heavy atom, donor atom, acceptor molecule, acceptor atom, score
      P1  H  7997  8008       L1     3  0.69
      P1  H 10752 10765       L1     1  0.83

> <Gold.Chemscore.Hbond.Weighted>
-4.9769

> <Gold.Chemscore.Metal.Weighted>
-0.0000

> <Gold.Chemscore.Lipo.Weighted>
-8.2547

> <Gold.Chemscore.Internal_Hbond.Weighted>
0.0000

> <Gold.Chemscore.DEClash.Weighted>
0.0237

> <Gold.Chemscore.DEInternal.Weighted>
0.4480

> <Gold.Chemscore.Rot.Weighted>
4.9912

> <Gold.Chemscore.Internal.Correction.Weighted>
   9.000000E+99

> <Gold.Protein.RotatedTorsions>
[ 6907 6896 6895 6894 ] final   70.65 input  -60.11 | X-H torsion
[ 7974 7965 7964 7962 ] final  177.52 input  175.53 | X-H torsion
[ 8008 7997 7996 7995 ] final  -29.35 input   59.86 | X-H torsion
[ 10167 10162 10161 10158 ] final   76.55 input  -65.29 | X-H torsion
[ 10718 10713 10712 10709 ] final -178.96 input   66.30 | X-H torsion
[ 10763 10752 10751 10750 ] final  143.76 input  -60.55 | X-H torsion
[ 11005 11000 10999 10996 ] final -136.53 input  -57.11 | X-H torsion

> <Gold.Protein.ActiveResidues>
 VAL166  LYS551  ARG553  GLY616  TRP617  ASP618  TYR619  PRO620  LYS621  CYS622 
 ASP623  PHE694  ASN695  SER759  ASP760  ASP761  ALA762  ILE779  LEU786  VAL792 
 PHE793  MET794  SER795  GLU796  ALA797  LYS798  CYS799  TRP800  GLU811  SER814 

> <Gold.Protein.RotatedAtoms>
  152.4762  134.4838  159.9673 H   0  0  0  0  0  0  0  0  0  0  0  0  # atno 6907 bound_to 6896
  151.4853  133.3531  159.2852 H   0  0  0  0  0  0  0  0  0  0  0  0  # atno 6908 bound_to 6896
  150.8802  134.8219  159.7281 H   0  0  0  0  0  0  0  0  0  0  0  0  # atno 6909 bound_to 6896
  144.7168  140.0260  143.6439 H   0  0  0  0  0  0  0  0  0  0  0  0  # atno 7974 bound_to 7965
  154.4294  140.1821  156.1233 H   0  0  0  0  0  0  0  0  0  0  0  0  # atno 8008 bound_to 7997
  156.0125  140.3349  155.6930 H   0  0  0  0  0  0  0  0  0  0  0  0  # atno 8009 bound_to 7997
  155.6090  140.0648  157.2702 H   0  0  0  0  0  0  0  0  0  0  0  0  # atno 8010 bound_to 7997
  139.9910  144.5757  150.7818 H   0  0  0  0  0  0  0  0  0  0  0  0  # atno 10167 bound_to 10162
  156.8521  130.9722  151.3091 H   0  0  0  0  0  0  0  0  0  0  0  0  # atno 10718 bound_to 10713
  153.9777  135.2944  155.3422 H   0  0  0  0  0  0  0  0  0  0  0  0  # atno 10763 bound_to 10752
  154.7287  135.5077  153.8931 H   0  0  0  0  0  0  0  0  0  0  0  0  # atno 10764 bound_to 10752
  153.0869  135.6696  154.0044 H   0  0  0  0  0  0  0  0  0  0  0  0  # atno 10765 bound_to 10752
  140.8797  134.1948  157.4599 H   0  0  0  0  0  0  0  0  0  0  0  0  # atno 11005 bound_to 11000
  146.0142  139.3195  143.0852 LP  0  0  0  0  0  0  0  0  0  0  0  0  # atno 17320 bound_to 7965
  145.8646  140.9455  143.0682 LP  0  0  0  0  0  0  0  0  0  0  0  0  # atno 17321 bound_to 7965
  140.7454  143.2876  151.3421 LP  0  0  0  0  0  0  0  0  0  0  0  0  # atno 17342 bound_to 10162
  139.6340  144.0666  152.2500 LP  0  0  0  0  0  0  0  0  0  0  0  0  # atno 17343 bound_to 10162
  157.6297  130.8720  149.9253 LP  0  0  0  0  0  0  0  0  0  0  0  0  # atno 17370 bound_to 10713
  156.0822  130.3672  150.0557 LP  0  0  0  0  0  0  0  0  0  0  0  0  # atno 17371 bound_to 10713
  139.8718  134.9811  156.5104 LP  0  0  0  0  0  0  0  0  0  0  0  0  # atno 17394 bound_to 11000
  140.8476  133.8157  155.9137 LP  0  0  0  0  0  0  0  0  0  0  0  0  # atno 17395 bound_to 11000

$$$$
