AV-unprocessed.smi:288|AV-procd|sdf|2210|dock2
  -GOLD-   2262022 43D 1   1.00000     0.00000
 Structure written by MMmdl.
 33 34  0  0  0  0  0  0  0  0  1 V2000
  152.8424  139.8428  156.8504 O   0  0  0  0  0  0  0  0  0  0  0  0
  151.7323  140.1080  156.3856 C   0  0  0  0  0  0  0  0  0  0  0  0
  151.2181  139.5250  155.1512 C   0  0  0  0  0  0  0  0  0  0  0  0
  151.9831  138.6696  154.4519 F   0  0  0  0  0  0  0  0  0  0  0  0
  149.9827  139.8284  154.6972 C   0  0  0  0  0  0  0  0  0  0  0  0
  149.1276  140.6964  155.3570 N   0  0  0  0  0  0  0  0  0  0  0  0
  147.7442  141.0148  154.8313 C   0  0  1  0  0  0  0  0  0  0  0  0
  147.8351  141.7300  153.4713 C   0  0  0  0  0  0  0  0  0  0  0  0
  146.8668  140.9389  152.6156 C   0  0  0  0  0  0  0  0  0  0  0  0
  146.9644  139.5524  153.2344 C   0  0  0  0  0  0  0  0  0  0  0  0
  147.0278  139.8297  154.6276 O   0  0  0  0  0  0  0  0  0  0  0  0
  149.5429  141.3081  156.5598 C   0  0  0  0  0  0  0  0  0  0  0  0
  148.7901  142.0701  157.1711 O   0  0  0  0  0  0  0  0  0  0  0  0
  150.8428  141.0045  157.0278 N   0  0  0  0  0  0  0  0  0  0  0  0
  151.2821  141.6195  158.2697 C   0  0  0  0  0  0  0  0  0  0  0  0
  151.0992  143.1538  158.2895 C   0  0  2  0  0  0  0  0  0  0  0  0
  151.3654  143.6562  156.9941 O   0  0  0  0  0  0  0  0  0  0  0  0
  152.0606  143.8482  159.2739 C   0  0  0  0  0  0  0  0  0  0  0  0
  153.3258  143.5892  158.9422 F   0  0  0  0  0  0  0  0  0  0  0  0
  151.8837  145.1681  159.2104 F   0  0  0  0  0  0  0  0  0  0  0  0
  151.8350  143.4479  160.5261 F   0  0  0  0  0  0  0  0  0  0  0  0
  149.6661  139.3597  153.7783 H   0  0  0  0  0  0  0  0  0  0  0  0
  147.2536  141.5990  155.6119 H   0  0  0  0  0  0  0  0  0  0  0  0
  147.5709  142.7839  153.5635 H   0  0  0  0  0  0  0  0  0  0  0  0
  148.8473  141.6507  153.0706 H   0  0  0  0  0  0  0  0  0  0  0  0
  145.8554  141.3307  152.7319 H   0  0  0  0  0  0  0  0  0  0  0  0
  147.1213  140.9533  151.5554 H   0  0  0  0  0  0  0  0  0  0  0  0
  146.1117  138.9190  152.9898 H   0  0  0  0  0  0  0  0  0  0  0  0
  147.8745  139.0465  152.9094 H   0  0  0  0  0  0  0  0  0  0  0  0
  150.7093  141.1424  159.0664 H   0  0  0  0  0  0  0  0  0  0  0  0
  152.3114  141.3170  158.4700 H   0  0  0  0  0  0  0  0  0  0  0  0
  150.0750  143.4143  158.5601 H   0  0  0  0  0  0  0  0  0  0  0  0
  150.5640  144.0088  156.6384 H   0  0  0  0  0  0  0  0  0  0  0  0
  1  2  2  0  0  0  0
  2 14  1  0  0  0  0
  2  3  1  0  0  0  0
  3  4  1  0  0  0  0
  3  5  2  0  0  0  0
  5  6  1  0  0  0  0
  5 22  1  0  0  0  0
  6  7  1  0  0  0  0
  6 12  1  0  0  0  0
  7 11  1  0  0  0  0
  7  8  1  0  0  0  0
  7 23  1  0  0  0  0
  8  9  1  0  0  0  0
  8 24  1  0  0  0  0
  8 25  1  0  0  0  0
  9 10  1  0  0  0  0
  9 26  1  0  0  0  0
  9 27  1  0  0  0  0
 10 11  1  0  0  0  0
 10 28  1  0  0  0  0
 10 29  1  0  0  0  0
 12 13  2  0  0  0  0
 12 14  1  0  0  0  0
 14 15  1  0  0  0  0
 15 16  1  0  0  0  0
 15 30  1  0  0  0  0
 15 31  1  0  0  0  0
 16 17  1  0  0  0  0
 16 18  1  0  0  0  0
 16 32  1  0  0  0  0
 17 33  1  0  0  0  0
 18 19  1  0  0  0  0
 18 20  1  0  0  0  0
 18 21  1  0  0  0  0
M  END
> <s_m_source_file>
AV-unprocessed.smi

> <i_m_source_file_index>
288

> <i_lp_mmshare_version>
43012

> <i_f3d_flags>
0

> <s_epik_input>
TzFbQ0gyXVtDSDJdW0NIMl1bQ0BIXTFuKFtjSF1jKEYpYzI9TyljKD1PKW4yW0NIMl1bQ0BIXShbT0hdKUMoRikoRilG

> <s_epik_cmdline>
J2VwaWtfcHl0aG9uJywgJy1waCcsICc3LjAnLCAnLXRuJywgJzgnLCAnLW1hJywgJzIwMCcsICctbWV0YWxfYmluZGluZycsICctaW1hZScsICc8aW5maWxlLm1hZT4nLCAnLW9tYWUnLCAnPG91dGZpbGUubWFlPic=

> <r_lp_tautomer_probability>
1

> <r_epik_Ionization_Penalty>
0.000551119

> <r_epik_Ionization_Penalty_Charging>
2.51184e-08

> <r_epik_Ionization_Penalty_Neutral>
0.000551094

> <r_epik_State_Penalty>
0.000345115

> <r_epik_Charging_Adjusted_Penalty>
0.00034514

> <i_epik_Tot_Q>
0

> <i_epik_Tot_abs_Q>
0

> <r_epik_Metal_State_Penalty>
-0

> <b_epik_Metal_Only>
0

> <s_epik_Chemistry_Notes>
This compound contains an acetal/aminal-like group ( X-CH(R)-Y where X, Y are N, S, or O) that may be acid/base labile, releasing an aldehyde.

> <s_lp_Force_Field>
OPLS_2005

> <r_lp_Energy>
35.1555

> <b_lp_Chiralities_Consistent>
1

> <s_lp_Variant>
AV-unprocessed.smi:288-2

> <Gold.Version>
5.8.1

> <Gold.Id.Protein>
6NUR|6NUR_protein|mol2

> <Gold.PLP.Fitness>
49.1800

> <Gold.PLP.PLP>
-42.3868

> <Gold.PLP.part.hbond>
-2.0000

> <Gold.PLP.part.metal>
0.0000

> <Gold.PLP.part.buried>
-1.2468

> <Gold.PLP.part.nonpolar>
-37.0226

> <Gold.PLP.part.repulsive>
0.3445

> <Gold.PLP.ligand.clash>
0.0000

> <Gold.PLP.ligand.torsion>
0.3888

> <Gold.PLP.Chemscore.Hbond>
2.0000

> <Gold.PLP.Chemscore.CHOScore>
0.5200

> <Gold.PLP.Chemscore.Metal>
0.0000

> <Gold.Chemscore.Hbonds>
donor molecule, donor type, donor heavy atom, donor atom, acceptor molecule, acceptor atom, score
      L1  H    17    33       P1  8028  0.96
      P1  H  7997  8009       L1     1  1.00
      L1  C     5    22       P1  7957  0.57

> <Gold.PLP.Chemscore.Internal.Correction>
0.0108

> <Gold.Rescore>
     Score         DG    S(hbond)    S(metal)    S(lipo)     H(rot)  DE(clash)    DE(int)     intcor
      9.97     -13.12       1.99        0.00      64.58       2.57       0.09       3.05       ----

> <Gold.Chemscore.Fitness>
9.9735

> <Gold.Chemscore.DG>
-13.1161

> <Gold.Chemscore.ZeroCoef>
-5.4800

> <Gold.Chemscore.Hbond>
1.9903

> <Gold.Chemscore.Metal>
0.0000

> <Gold.Chemscore.Lipo>
64.5837

> <Gold.Chemscore.Internal_Hbond>
0.0000

> <Gold.Chemscore.DEClash>
0.0946

> <Gold.Chemscore.DEInternal>
3.0481

> <Gold.Chemscore.Rot>
2.5656

> <Gold.Chemscore.Internal.Correction>
   9.000000E+99

> <Gold.Chemscore.Hbonds>
donor molecule, donor type, donor heavy atom, donor atom, acceptor molecule, acceptor atom, score
      L1  H    17    33       P1  8028  0.90
      P1  H  7997  8009       L1     1  0.96

> <Gold.Chemscore.Hbond.Weighted>
-6.6477

> <Gold.Chemscore.Metal.Weighted>
-0.0000

> <Gold.Chemscore.Lipo.Weighted>
-7.5563

> <Gold.Chemscore.Internal_Hbond.Weighted>
0.0000

> <Gold.Chemscore.DEClash.Weighted>
0.0946

> <Gold.Chemscore.DEInternal.Weighted>
3.0481

> <Gold.Chemscore.Rot.Weighted>
6.5679

> <Gold.Chemscore.Internal.Correction.Weighted>
   9.000000E+99

> <Gold.Protein.RotatedTorsions>
[ 6907 6896 6895 6894 ] final  156.01 input  -60.11 | X-H torsion
[ 7974 7965 7964 7962 ] final  145.69 input  175.53 | X-H torsion
[ 8008 7997 7996 7995 ] final  176.98 input   59.86 | X-H torsion
[ 10167 10162 10161 10158 ] final   16.21 input  -65.29 | X-H torsion
[ 10718 10713 10712 10709 ] final   63.12 input   66.30 | X-H torsion
[ 10763 10752 10751 10750 ] final  124.79 input  -60.55 | X-H torsion
[ 11005 11000 10999 10996 ] final  114.04 input  -57.11 | X-H torsion

> <Gold.Protein.ActiveResidues>
 VAL166  LYS551  ARG553  GLY616  TRP617  ASP618  TYR619  PRO620  LYS621  CYS622 
 ASP623  PHE694  ASN695  SER759  ASP760  ASP761  ALA762  ILE779  LEU786  VAL792 
 PHE793  MET794  SER795  GLU796  ALA797  LYS798  CYS799  TRP800  GLU811  SER814 

> <Gold.Protein.RotatedAtoms>
  152.0359  133.3957  159.4316 H   0  0  0  0  0  0  0  0  0  0  0  0  # atno 6907 bound_to 6896
  150.6879  134.3469  159.4901 H   0  0  0  0  0  0  0  0  0  0  0  0  # atno 6908 bound_to 6896
  152.1261  134.9169  160.0611 H   0  0  0  0  0  0  0  0  0  0  0  0  # atno 6909 bound_to 6896
  144.8732  139.5814  143.5877 H   0  0  0  0  0  0  0  0  0  0  0  0  # atno 7974 bound_to 7965
  156.0707  140.1370  156.9832 H   0  0  0  0  0  0  0  0  0  0  0  0  # atno 8008 bound_to 7997
  154.4530  140.0972  156.6726 H   0  0  0  0  0  0  0  0  0  0  0  0  # atno 8009 bound_to 7997
  155.5233  140.3457  155.4413 H   0  0  0  0  0  0  0  0  0  0  0  0  # atno 8010 bound_to 7997
  140.5813  143.8975  150.6792 H   0  0  0  0  0  0  0  0  0  0  0  0  # atno 10167 bound_to 10162
  157.5949  130.9088  149.9675 H   0  0  0  0  0  0  0  0  0  0  0  0  # atno 10718 bound_to 10713
  153.6671  135.3336  155.3143 H   0  0  0  0  0  0  0  0  0  0  0  0  # atno 10763 bound_to 10752
  154.8500  135.4377  154.1744 H   0  0  0  0  0  0  0  0  0  0  0  0  # atno 10764 bound_to 10752
  153.2726  135.7001  153.7541 H   0  0  0  0  0  0  0  0  0  0  0  0  # atno 10765 bound_to 10752
  139.8969  134.9561  156.6831 H   0  0  0  0  0  0  0  0  0  0  0  0  # atno 11005 bound_to 11000
  146.2944  139.7235  142.9137 LP  0  0  0  0  0  0  0  0  0  0  0  0  # atno 17320 bound_to 7965
  145.4092  141.0394  143.3027 LP  0  0  0  0  0  0  0  0  0  0  0  0  # atno 17321 bound_to 7965
  140.2475  143.3618  152.1434 LP  0  0  0  0  0  0  0  0  0  0  0  0  # atno 17342 bound_to 10162
  139.5171  144.6988  151.5554 LP  0  0  0  0  0  0  0  0  0  0  0  0  # atno 17343 bound_to 10162
  156.1010  130.3656  150.0219 LP  0  0  0  0  0  0  0  0  0  0  0  0  # atno 17370 bound_to 10713
  156.8334  130.9400  151.3636 LP  0  0  0  0  0  0  0  0  0  0  0  0  # atno 17371 bound_to 10713
  140.7284  133.9080  155.8194 LP  0  0  0  0  0  0  0  0  0  0  0  0  # atno 17394 bound_to 11000
  141.0173  134.0938  157.4158 LP  0  0  0  0  0  0  0  0  0  0  0  0  # atno 17395 bound_to 11000

$$$$
