AV-unprocessed.smi:1558|AV-procd|sdf|6272|dock9
  -GOLD-   22720 6463D 1   1.00000     0.00000
 Structure written by MMmdl.
 36 37  0  0  0  0  0  0  0  0  1 V2000
  143.6490  133.6783  147.8099 N   0  0  0  0  0  0  0  0  0  0  0  0
  143.7794  132.7071  148.7175 C   0  0  0  0  0  0  0  0  0  0  0  0
  142.9055  131.8640  148.9081 O   0  0  0  0  0  0  0  0  0  0  0  0
  145.0763  132.6774  149.5281 C   0  0  0  0  0  0  0  0  0  0  0  0
  145.0901  133.7251  150.5336 N   0  0  0  0  0  0  0  0  0  0  0  0
  145.2104  135.0882  150.3439 C   0  0  0  0  0  0  0  0  0  0  0  0
  145.1673  135.6414  151.5922 C   0  0  0  0  0  0  0  0  0  0  0  0
  145.2481  137.0040  151.9751 N   0  0  0  0  0  0  0  0  0  0  0  0
  145.9479  137.5229  152.9970 C   0  0  0  0  0  0  0  0  0  0  0  0
  146.6521  136.8759  153.7723 O   0  0  0  0  0  0  0  0  0  0  0  0
  145.7893  138.8519  153.0698 N   0  0  0  0  0  0  0  0  0  0  0  0
  146.4180  139.7261  154.0550 C   0  0  0  0  0  0  0  0  0  0  0  0
  147.9247  139.8907  153.7939 C   0  0  2  0  0  0  0  0  0  0  0  0
  148.7931  138.7081  154.2232 C   0  0  0  0  0  0  0  0  0  0  0  0
  150.1420  139.3696  154.3864 C   0  0  0  0  0  0  0  0  0  0  0  0
  149.7609  140.7237  154.9800 C   0  0  0  0  0  0  0  0  0  0  0  0
  148.4344  140.9965  154.5327 O   0  0  0  0  0  0  0  0  0  0  0  0
  145.0219  134.5544  152.4925 C   0  0  0  0  0  0  0  0  0  0  0  0
  144.9763  133.3997  151.8458 N   0  0  0  0  0  0  0  0  0  0  0  0
  142.8077  133.7333  147.2541 H   0  0  0  0  0  0  0  0  0  0  0  0
  144.3885  134.3535  147.6815 H   0  0  0  0  0  0  0  0  0  0  0  0
  145.1872  131.7056  150.0123 H   0  0  0  0  0  0  0  0  0  0  0  0
  145.9385  132.8079  148.8727 H   0  0  0  0  0  0  0  0  0  0  0  0
  145.3112  135.5223  149.3604 H   0  0  0  0  0  0  0  0  0  0  0  0
  144.7166  137.6514  151.4116 H   0  0  0  0  0  0  0  0  0  0  0  0
  145.1905  139.2957  152.3890 H   0  0  0  0  0  0  0  0  0  0  0  0
  145.9319  140.6998  153.9894 H   0  0  0  0  0  0  0  0  0  0  0  0
  146.2417  139.3666  155.0702 H   0  0  0  0  0  0  0  0  0  0  0  0
  148.0988  140.0983  152.7366 H   0  0  0  0  0  0  0  0  0  0  0  0
  148.4549  138.3087  155.1804 H   0  0  0  0  0  0  0  0  0  0  0  0
  148.7997  137.8963  153.4953 H   0  0  0  0  0  0  0  0  0  0  0  0
  150.8258  138.8027  155.0191 H   0  0  0  0  0  0  0  0  0  0  0  0
  150.6106  139.5053  153.4108 H   0  0  0  0  0  0  0  0  0  0  0  0
  149.7546  140.6763  156.0693 H   0  0  0  0  0  0  0  0  0  0  0  0
  150.4504  141.5130  154.6798 H   0  0  0  0  0  0  0  0  0  0  0  0
  144.9497  134.5636  153.5699 H   0  0  0  0  0  0  0  0  0  0  0  0
  1  2  1  0  0  0  0
  1 20  1  0  0  0  0
  1 21  1  0  0  0  0
  2  3  2  0  0  0  0
  2  4  1  0  0  0  0
  4  5  1  0  0  0  0
  4 22  1  0  0  0  0
  4 23  1  0  0  0  0
  5 19  1  0  0  0  0
  5  6  1  0  0  0  0
  6  7  2  0  0  0  0
  6 24  1  0  0  0  0
  7  8  1  0  0  0  0
  7 18  1  0  0  0  0
  8  9  1  0  0  0  0
  8 25  1  0  0  0  0
  9 10  2  0  0  0  0
  9 11  1  0  0  0  0
 11 12  1  0  0  0  0
 11 26  1  0  0  0  0
 12 13  1  0  0  0  0
 12 27  1  0  0  0  0
 12 28  1  0  0  0  0
 13 17  1  0  0  0  0
 13 14  1  0  0  0  0
 13 29  1  0  0  0  0
 14 15  1  0  0  0  0
 14 30  1  0  0  0  0
 14 31  1  0  0  0  0
 15 16  1  0  0  0  0
 15 32  1  0  0  0  0
 15 33  1  0  0  0  0
 16 17  1  0  0  0  0
 16 34  1  0  0  0  0
 16 35  1  0  0  0  0
 18 19  2  0  0  0  0
 18 36  1  0  0  0  0
M  END
> <s_m_source_file>
AV-unprocessed.smi

> <i_m_source_file_index>
1558

> <i_lp_mmshare_version>
43012

> <i_f3d_flags>
0

> <s_epik_input>
W05IMl1DKD1PKVtDSDJdbjFbY0hdYyhbY0hdbjEpW05IXUMoPU8pW05IXVtDSDJdW0NAQEhdMltDSDJdW0NIMl1bQ0gyXU8y

> <s_epik_cmdline>
J2VwaWtfcHl0aG9uJywgJy1waCcsICc3LjAnLCAnLXRuJywgJzgnLCAnLW1hJywgJzIwMCcsICctbWV0YWxfYmluZGluZycsICctaW1hZScsICc8aW5maWxlLm1hZT4nLCAnLW9tYWUnLCAnPG91dGZpbGUubWFlPic=

> <r_lp_tautomer_probability>
1

> <r_epik_Ionization_Penalty>
4.01684e-05

> <r_epik_Ionization_Penalty_Charging>
0

> <r_epik_Ionization_Penalty_Neutral>
4.01684e-05

> <r_epik_State_Penalty>
-0

> <r_epik_Charging_Adjusted_Penalty>
0

> <i_epik_Tot_Q>
0

> <i_epik_Tot_abs_Q>
0

> <r_epik_Metal_State_Penalty>
-0

> <b_epik_Metal_Only>
0

> <s_lp_Force_Field>
OPLS_2005

> <r_lp_Energy>
20.4808

> <b_lp_Chiralities_Consistent>
1

> <s_lp_Variant>
AV-unprocessed.smi:1558-1

> <Gold.Version>
5.8.1

> <Gold.Id.Protein>
6NUR|6NUR_protein|mol2

> <Gold.PLP.Fitness>
43.6548

> <Gold.PLP.PLP>
-28.3830

> <Gold.PLP.part.hbond>
-5.2903

> <Gold.PLP.part.metal>
0.0000

> <Gold.PLP.part.buried>
-1.9245

> <Gold.PLP.part.nonpolar>
-24.9378

> <Gold.PLP.part.repulsive>
4.1134

> <Gold.PLP.ligand.clash>
0.0000

> <Gold.PLP.ligand.torsion>
0.8275

> <Gold.PLP.Chemscore.Hbond>
4.6462

> <Gold.PLP.Chemscore.CHOScore>
0.9898

> <Gold.PLP.Chemscore.Metal>
0.0000

> <Gold.Chemscore.Hbonds>
donor molecule, donor type, donor heavy atom, donor atom, acceptor molecule, acceptor atom, score
      L1  H     1    20       P1 10195  0.92
      L1  H     1    21       P1  7921  1.00
      L1  H     8    25       P1 10171  0.98
      L1  H    11    26       P1 10175  0.72
      P1  H 10785 10796       L1     3  1.00
      L1  C     6    24       P1  7921  1.00

> <Gold.PLP.Chemscore.Internal.Correction>
0.0186

> <Gold.Rescore>
     Score         DG    S(hbond)    S(metal)    S(lipo)     H(rot)  DE(clash)    DE(int)     intcor
     16.27     -21.16       4.44        0.00      58.11       2.33       2.72       2.17       ----

> <Gold.Chemscore.Fitness>
16.2656

> <Gold.Chemscore.DG>
-21.1552

> <Gold.Chemscore.ZeroCoef>
-5.4800

> <Gold.Chemscore.Hbond>
4.4437

> <Gold.Chemscore.Metal>
0.0000

> <Gold.Chemscore.Lipo>
58.1083

> <Gold.Chemscore.Internal_Hbond>
0.0000

> <Gold.Chemscore.DEClash>
2.7164

> <Gold.Chemscore.DEInternal>
2.1733

> <Gold.Chemscore.Rot>
2.3303

> <Gold.Chemscore.Internal.Correction>
   9.000000E+99

> <Gold.Chemscore.Hbonds>
donor molecule, donor type, donor heavy atom, donor atom, acceptor molecule, acceptor atom, score
      L1  H     1    20       P1 10195  0.81
      L1  H     1    21       P1  7921  0.96
      L1  H     8    25       P1 10171  0.92
      L1  H    11    26       P1 10175  0.72
      P1  H 10785 10796       L1     3  0.98

> <Gold.Chemscore.Hbond.Weighted>
-14.8421

> <Gold.Chemscore.Metal.Weighted>
-0.0000

> <Gold.Chemscore.Lipo.Weighted>
-6.7987

> <Gold.Chemscore.Internal_Hbond.Weighted>
0.0000

> <Gold.Chemscore.DEClash.Weighted>
2.7164

> <Gold.Chemscore.DEInternal.Weighted>
2.1733

> <Gold.Chemscore.Rot.Weighted>
5.9656

> <Gold.Chemscore.Internal.Correction.Weighted>
   9.000000E+99

> <Gold.Protein.RotatedTorsions>
[ 6907 6896 6895 6894 ] final   75.91 input  -60.11 | X-H torsion
[ 7974 7965 7964 7962 ] final -150.63 input  175.53 | X-H torsion
[ 8008 7997 7996 7995 ] final  -41.69 input   59.86 | X-H torsion
[ 10167 10162 10161 10158 ] final    1.80 input  -65.29 | X-H torsion
[ 10718 10713 10712 10709 ] final   34.89 input   66.30 | X-H torsion
[ 10763 10752 10751 10750 ] final  -43.21 input  -60.55 | X-H torsion
[ 11005 11000 10999 10996 ] final  -73.61 input  -57.11 | X-H torsion

> <Gold.Protein.ActiveResidues>
 VAL166  LYS551  ARG553  GLY616  TRP617  ASP618  TYR619  PRO620  LYS621  CYS622 
 ASP623  PHE694  ASN695  SER759  ASP760  ASP761  ALA762  ILE779  LEU786  VAL792 
 PHE793  MET794  SER795  GLU796  ALA797  LYS798  CYS799  TRP800  GLU811  SER814 

> <Gold.Protein.RotatedAtoms>
  152.5048  134.4049  159.9428 H   0  0  0  0  0  0  0  0  0  0  0  0  # atno 6907 bound_to 6896
  151.4014  133.3750  159.2740 H   0  0  0  0  0  0  0  0  0  0  0  0  # atno 6908 bound_to 6896
  150.9359  134.8792  159.7640 H   0  0  0  0  0  0  0  0  0  0  0  0  # atno 6909 bound_to 6896
  144.7896  140.4906  143.5782 H   0  0  0  0  0  0  0  0  0  0  0  0  # atno 7974 bound_to 7965
  154.4002  140.1493  156.3232 H   0  0  0  0  0  0  0  0  0  0  0  0  # atno 8008 bound_to 7997
  155.8510  140.3458  155.5672 H   0  0  0  0  0  0  0  0  0  0  0  0  # atno 8009 bound_to 7997
  155.7984  140.0866  157.1961 H   0  0  0  0  0  0  0  0  0  0  0  0  # atno 8010 bound_to 7997
  140.6665  143.7164  150.7838 H   0  0  0  0  0  0  0  0  0  0  0  0  # atno 10167 bound_to 10162
  157.3159  130.7423  149.6754 H   0  0  0  0  0  0  0  0  0  0  0  0  # atno 10718 bound_to 10713
  153.9918  135.6704  153.4754 H   0  0  0  0  0  0  0  0  0  0  0  0  # atno 10763 bound_to 10752
  153.0701  135.4979  154.8283 H   0  0  0  0  0  0  0  0  0  0  0  0  # atno 10764 bound_to 10752
  154.7104  135.3096  154.9168 H   0  0  0  0  0  0  0  0  0  0  0  0  # atno 10765 bound_to 10752
  141.1625  133.6884  156.7238 H   0  0  0  0  0  0  0  0  0  0  0  0  # atno 11005 bound_to 11000
  145.5829  139.1490  143.3225 LP  0  0  0  0  0  0  0  0  0  0  0  0  # atno 17320 bound_to 7965
  146.2143  140.5958  142.9045 LP  0  0  0  0  0  0  0  0  0  0  0  0  # atno 17321 bound_to 7965
  140.0842  143.4939  152.2514 LP  0  0  0  0  0  0  0  0  0  0  0  0  # atno 17342 bound_to 10162
  139.5916  144.7552  151.3386 LP  0  0  0  0  0  0  0  0  0  0  0  0  # atno 17343 bound_to 10162
  155.9681  130.4237  150.4576 LP  0  0  0  0  0  0  0  0  0  0  0  0  # atno 17370 bound_to 10713
  157.2583  131.0561  151.2336 LP  0  0  0  0  0  0  0  0  0  0  0  0  # atno 17371 bound_to 10713
  140.2796  134.8327  157.3921 LP  0  0  0  0  0  0  0  0  0  0  0  0  # atno 17394 bound_to 11000
  140.1445  134.4928  155.8006 LP  0  0  0  0  0  0  0  0  0  0  0  0  # atno 17395 bound_to 11000

$$$$
