AV-unprocessed.smi:2441|AV-procd|sdf|9619|dock5
  -GOLD-   2272013253D 1   1.00000     0.00000
 Structure written by MMmdl.
 40 41  0  0  0  0  0  0  0  0  1 V2000
  143.6888  136.2408  152.2644 C   0  0  0  0  0  0  0  0  0  0  0  0
  144.4969  135.0021  151.8390 C   0  0  2  0  0  0  0  0  0  0  0  0
  143.5776  133.7673  151.7414 C   0  0  0  0  0  0  0  0  0  0  0  0
  144.3484  132.5083  151.3171 C   0  0  0  0  0  0  0  0  0  0  0  0
  145.5170  132.2305  152.2718 C   0  0  0  0  0  0  0  0  0  0  0  0
  146.4518  133.4449  152.3610 C   0  0  0  0  0  0  0  0  0  0  0  0
  145.6940  134.7193  152.7822 C   0  0  1  0  0  0  0  0  0  0  0  0
  146.6300  135.8431  152.7833 N   0  0  0  0  0  0  0  0  0  0  0  0
  146.4607  137.0107  153.4208 C   0  0  0  0  0  0  0  0  0  0  0  0
  145.4634  137.2818  154.0890 O   0  0  0  0  0  0  0  0  0  0  0  0
  147.5266  137.8116  153.2373 N   0  0  0  0  0  0  0  0  0  0  0  0
  147.7489  139.1205  153.6997 C   0  0  0  0  0  0  0  0  0  0  0  0
  146.9291  140.1730  153.4529 C   0  0  0  0  0  0  0  0  0  0  0  0
  147.2399  141.4888  153.9563 C   0  0  0  0  0  0  0  0  0  0  0  0
  148.3661  141.6486  154.6646 C   0  0  0  0  0  0  0  0  0  0  0  0
  149.2369  140.5781  154.9230 N   0  0  0  0  0  0  0  0  0  0  0  0
  150.4284  140.9038  155.7119 C   0  0  0  0  0  0  0  0  0  0  0  0
  148.9905  139.3087  154.4767 C   0  0  0  0  0  0  0  0  0  0  0  0
  149.7657  138.3798  154.7156 O   0  0  0  0  0  0  0  0  0  0  0  0
  143.2955  136.1261  153.2748 H   0  0  0  0  0  0  0  0  0  0  0  0
  142.8435  136.4054  151.5959 H   0  0  0  0  0  0  0  0  0  0  0  0
  144.2963  137.1456  152.2450 H   0  0  0  0  0  0  0  0  0  0  0  0
  144.8916  135.1966  150.8404 H   0  0  0  0  0  0  0  0  0  0  0  0
  143.0975  133.5900  152.7047 H   0  0  0  0  0  0  0  0  0  0  0  0
  142.7743  133.9564  151.0286 H   0  0  0  0  0  0  0  0  0  0  0  0
  143.6757  131.6508  151.2937 H   0  0  0  0  0  0  0  0  0  0  0  0
  144.7261  132.6341  150.3016 H   0  0  0  0  0  0  0  0  0  0  0  0
  145.1331  131.9895  153.2639 H   0  0  0  0  0  0  0  0  0  0  0  0
  146.0739  131.3564  151.9338 H   0  0  0  0  0  0  0  0  0  0  0  0
  147.2540  133.2366  153.0703 H   0  0  0  0  0  0  0  0  0  0  0  0
  146.9297  133.6019  151.3928 H   0  0  0  0  0  0  0  0  0  0  0  0
  145.3011  134.5545  153.7874 H   0  0  0  0  0  0  0  0  0  0  0  0
  147.4836  135.7148  152.2600 H   0  0  0  0  0  0  0  0  0  0  0  0
  148.2998  137.4144  152.7233 H   0  0  0  0  0  0  0  0  0  0  0  0
  146.0331  140.0714  152.8624 H   0  0  0  0  0  0  0  0  0  0  0  0
  146.5809  142.3235  153.7672 H   0  0  0  0  0  0  0  0  0  0  0  0
  148.6743  142.5981  155.0789 H   0  0  0  0  0  0  0  0  0  0  0  0
  151.1356  140.0808  155.8188 H   0  0  0  0  0  0  0  0  0  0  0  0
  150.1349  141.2151  156.7151 H   0  0  0  0  0  0  0  0  0  0  0  0
  150.9689  141.7307  155.2497 H   0  0  0  0  0  0  0  0  0  0  0  0
  1  2  1  0  0  0  0
  1 20  1  0  0  0  0
  1 21  1  0  0  0  0
  1 22  1  0  0  0  0
  2  7  1  0  0  0  0
  2  3  1  0  0  0  0
  2 23  1  0  0  0  0
  3  4  1  0  0  0  0
  3 24  1  0  0  0  0
  3 25  1  0  0  0  0
  4  5  1  0  0  0  0
  4 26  1  0  0  0  0
  4 27  1  0  0  0  0
  5  6  1  0  0  0  0
  5 28  1  0  0  0  0
  5 29  1  0  0  0  0
  6  7  1  0  0  0  0
  6 30  1  0  0  0  0
  6 31  1  0  0  0  0
  7  8  1  0  0  0  0
  7 32  1  0  0  0  0
  8  9  1  0  0  0  0
  8 33  1  0  0  0  0
  9 10  2  0  0  0  0
  9 11  1  0  0  0  0
 11 12  1  0  0  0  0
 11 34  1  0  0  0  0
 12 18  1  0  0  0  0
 12 13  2  0  0  0  0
 13 14  1  0  0  0  0
 13 35  1  0  0  0  0
 14 15  2  0  0  0  0
 14 36  1  0  0  0  0
 15 16  1  0  0  0  0
 15 37  1  0  0  0  0
 16 17  1  0  0  0  0
 16 18  1  0  0  0  0
 17 38  1  0  0  0  0
 17 39  1  0  0  0  0
 17 40  1  0  0  0  0
 18 19  2  0  0  0  0
M  END
> <s_m_source_file>
AV-unprocessed.smi

> <i_m_source_file_index>
2441

> <i_lp_mmshare_version>
43012

> <i_f3d_flags>
0

> <s_epik_input>
W0NIM11bQ0BASF0xW0NIMl1bQ0gyXVtDSDJdW0NIMl1bQ0BIXTFbTkhdQyg9TylbTkhdYzJbY0hdW2NIXVtjSF1uKFtDSDNdKWMyPU8=

> <s_epik_cmdline>
J2VwaWtfcHl0aG9uJywgJy1waCcsICc3LjAnLCAnLXRuJywgJzgnLCAnLW1hJywgJzIwMCcsICctbWV0YWxfYmluZGluZycsICctaW1hZScsICc8aW5maWxlLm1hZT4nLCAnLW9tYWUnLCAnPG91dGZpbGUubWFlPic=

> <r_lp_tautomer_probability>
1

> <r_epik_Ionization_Penalty>
2.64999e-05

> <r_epik_Ionization_Penalty_Charging>
5.09663e-06

> <r_epik_Ionization_Penalty_Neutral>
2.14032e-05

> <r_epik_State_Penalty>
-0

> <r_epik_Charging_Adjusted_Penalty>
5.09663e-06

> <i_epik_Tot_Q>
0

> <i_epik_Tot_abs_Q>
0

> <r_epik_Metal_State_Penalty>
-0

> <b_epik_Metal_Only>
0

> <s_lp_Force_Field>
OPLS_2005

> <r_lp_Energy>
23.8871

> <b_lp_Chiralities_Consistent>
1

> <s_lp_Variant>
AV-unprocessed.smi:2441-1

> <Gold.Version>
5.8.1

> <Gold.Id.Protein>
6NUR|6NUR_protein|mol2

> <Gold.PLP.Fitness>
39.6049

> <Gold.PLP.PLP>
-32.1202

> <Gold.PLP.part.hbond>
-1.7198

> <Gold.PLP.part.metal>
0.0000

> <Gold.PLP.part.buried>
-2.7617

> <Gold.PLP.part.nonpolar>
-28.1252

> <Gold.PLP.part.repulsive>
0.3375

> <Gold.PLP.ligand.clash>
0.0051

> <Gold.PLP.ligand.torsion>
0.7571

> <Gold.PLP.Chemscore.Hbond>
2.0000

> <Gold.PLP.Chemscore.CHOScore>
1.0000

> <Gold.PLP.Chemscore.Metal>
0.0000

> <Gold.Chemscore.Hbonds>
donor molecule, donor type, donor heavy atom, donor atom, acceptor molecule, acceptor atom, score
      L1  H     8    33       P1  7948  1.00
      L1  H    11    34       P1  7948  1.00
      L1  C    15    37       P1  8028  1.00

> <Gold.PLP.Chemscore.Internal.Correction>
0.0040

> <Gold.Rescore>
     Score         DG    S(hbond)    S(metal)    S(lipo)     H(rot)  DE(clash)    DE(int)     intcor
     15.13     -17.09       1.96        0.00      65.12       1.00       0.00       1.96       ----

> <Gold.Chemscore.Fitness>
15.1308

> <Gold.Chemscore.DG>
-17.0868

> <Gold.Chemscore.ZeroCoef>
-5.4800

> <Gold.Chemscore.Hbond>
1.9604

> <Gold.Chemscore.Metal>
0.0000

> <Gold.Chemscore.Lipo>
65.1186

> <Gold.Chemscore.Internal_Hbond>
0.0000

> <Gold.Chemscore.DEClash>
0.0000

> <Gold.Chemscore.DEInternal>
1.9559

> <Gold.Chemscore.Rot>
1.0000

> <Gold.Chemscore.Internal.Correction>
   9.000000E+99

> <Gold.Chemscore.Hbonds>
donor molecule, donor type, donor heavy atom, donor atom, acceptor molecule, acceptor atom, score
      L1  H     8    33       P1  7948  0.93
      L1  H    11    34       P1  7948  0.95

> <Gold.Chemscore.Hbond.Weighted>
-6.5479

> <Gold.Chemscore.Metal.Weighted>
-0.0000

> <Gold.Chemscore.Lipo.Weighted>
-7.6189

> <Gold.Chemscore.Internal_Hbond.Weighted>
0.0000

> <Gold.Chemscore.DEClash.Weighted>
0.0000

> <Gold.Chemscore.DEInternal.Weighted>
1.9559

> <Gold.Chemscore.Rot.Weighted>
2.5600

> <Gold.Chemscore.Internal.Correction.Weighted>
   9.000000E+99

> <Gold.Protein.RotatedTorsions>
[ 6907 6896 6895 6894 ] final   41.53 input  -60.11 | X-H torsion
[ 7974 7965 7964 7962 ] final  -94.79 input  175.53 | X-H torsion
[ 8008 7997 7996 7995 ] final   95.84 input   59.86 | X-H torsion
[ 10167 10162 10161 10158 ] final   38.77 input  -65.29 | X-H torsion
[ 10718 10713 10712 10709 ] final  119.95 input   66.30 | X-H torsion
[ 10763 10752 10751 10750 ] final -140.21 input  -60.55 | X-H torsion
[ 11005 11000 10999 10996 ] final   88.08 input  -57.11 | X-H torsion

> <Gold.Protein.ActiveResidues>
 VAL166  LYS551  ARG553  GLY616  TRP617  ASP618  TYR619  PRO620  LYS621  CYS622 
 ASP623  PHE694  ASN695  SER759  ASP760  ASP761  ALA762  ILE779  LEU786  VAL792 
 PHE793  MET794  SER795  GLU796  ALA797  LYS798  CYS799  TRP800  GLU811  SER814 

> <Gold.Protein.RotatedAtoms>
  152.1965  134.8626  160.0512 H   0  0  0  0  0  0  0  0  0  0  0  0  # atno 6907 bound_to 6896
  151.9495  133.3657  159.4003 H   0  0  0  0  0  0  0  0  0  0  0  0  # atno 6908 bound_to 6896
  150.6945  134.4278  159.5278 H   0  0  0  0  0  0  0  0  0  0  0  0  # atno 6909 bound_to 6896
  145.3686  140.9502  143.2460 H   0  0  0  0  0  0  0  0  0  0  0  0  # atno 7974 bound_to 7965
  156.0732  140.3281  155.7601 H   0  0  0  0  0  0  0  0  0  0  0  0  # atno 8008 bound_to 7997
  155.5272  140.0590  157.2913 H   0  0  0  0  0  0  0  0  0  0  0  0  # atno 8009 bound_to 7997
  154.4541  140.1933  156.0448 H   0  0  0  0  0  0  0  0  0  0  0  0  # atno 8010 bound_to 7997
  140.3904  144.1859  150.6131 H   0  0  0  0  0  0  0  0  0  0  0  0  # atno 10167 bound_to 10162
  157.5926  131.1062  150.7967 H   0  0  0  0  0  0  0  0  0  0  0  0  # atno 10718 bound_to 10713
  154.8586  135.3560  154.5671 H   0  0  0  0  0  0  0  0  0  0  0  0  # atno 10763 bound_to 10752
  153.6284  135.7003  153.5289 H   0  0  0  0  0  0  0  0  0  0  0  0  # atno 10764 bound_to 10752
  153.3070  135.4190  155.1262 H   0  0  0  0  0  0  0  0  0  0  0  0  # atno 10765 bound_to 10752
  139.8904  134.8464  156.2949 H   0  0  0  0  0  0  0  0  0  0  0  0  # atno 11005 bound_to 11000
  144.8593  139.5201  143.6820 LP  0  0  0  0  0  0  0  0  0  0  0  0  # atno 17320 bound_to 7965
  146.2895  139.7100  142.9171 LP  0  0  0  0  0  0  0  0  0  0  0  0  # atno 17321 bound_to 7965
  140.4845  143.2368  151.8908 LP  0  0  0  0  0  0  0  0  0  0  0  0  # atno 17342 bound_to 10162
  139.4789  144.5233  151.8770 LP  0  0  0  0  0  0  0  0  0  0  0  0  # atno 17343 bound_to 10162
  156.8386  130.5040  149.5323 LP  0  0  0  0  0  0  0  0  0  0  0  0  # atno 17370 bound_to 10713
  156.0983  130.5949  150.9850 LP  0  0  0  0  0  0  0  0  0  0  0  0  # atno 17371 bound_to 10713
  140.9951  133.7185  156.0874 LP  0  0  0  0  0  0  0  0  0  0  0  0  # atno 17394 bound_to 11000
  140.7573  134.3979  157.5532 LP  0  0  0  0  0  0  0  0  0  0  0  0  # atno 17395 bound_to 11000

$$$$
