AV-unprocessed.smi:163|AV-procd|sdf|1381|dock2
  -GOLD-   2262019113D 1   1.00000     0.00000
 Structure written by MMmdl.
 48 51  0  0  0  0  0  0  0  0  1 V2000
  147.7046  137.1742  161.0444 N   0  0  0  0  0  0  0  0  0  0  0  0
  147.5246  136.1805  161.6098 C   0  0  0  0  0  0  0  0  0  0  0  0
  147.2927  134.9179  162.3310 C   0  0  0  0  0  0  0  0  0  0  0  0
  146.3553  133.9524  161.5938 C   0  0  0  0  0  0  0  0  0  0  0  0
  145.2682  133.6734  162.1013 O   0  0  0  0  0  0  0  0  0  0  0  0
  146.7548  133.4393  160.4066 N   0  0  0  0  0  0  0  0  0  0  0  0
  145.9506  132.5592  159.5505 C   0  0  0  0  0  0  0  0  0  0  0  0
  145.6010  133.3081  158.2514 C   0  0  0  0  0  0  0  0  0  0  0  0
  146.8128  133.8133  157.6025 N   0  0  0  0  0  0  0  0  0  0  0  0
  146.6623  134.2211  156.3159 C   0  0  0  0  0  0  0  0  0  0  0  0
  146.3354  135.5147  156.0512 N   0  0  0  0  0  0  0  0  0  0  0  0
  146.1782  135.9290  154.7906 C   0  0  0  0  0  0  0  0  0  0  0  0
  146.3027  135.2300  153.6610 N   0  0  0  0  0  0  0  0  0  0  0  0
  146.6415  133.9340  153.9170 C   0  0  0  0  0  0  0  0  0  0  0  0
  146.8380  133.3515  155.2016 C   0  0  0  0  0  0  0  0  0  0  0  0
  147.1848  132.0125  155.0624 N   0  0  0  0  0  0  0  0  0  0  0  0
  147.1804  131.8125  153.7732 C   0  0  0  0  0  0  0  0  0  0  0  0
  146.8737  132.9155  153.0089 N   0  0  0  0  0  0  0  0  0  0  0  0
  146.7968  132.9760  151.5570 C   0  0  0  0  0  0  0  0  0  0  0  0
  145.8850  131.8933  150.9257 C   0  0  2  0  0  0  0  0  0  0  0  0
  146.4815  130.6214  151.1037 O   0  0  0  0  0  0  0  0  0  0  0  0
  145.5957  132.1083  149.4389 C   0  0  0  0  0  0  0  0  0  0  0  0
  144.2401  132.7985  149.4555 C   0  0  0  0  0  0  0  0  0  0  0  0
  143.5614  132.1044  150.4872 O   0  0  0  0  0  0  0  0  0  0  0  0
  144.4773  131.9005  151.5568 C   0  0  0  0  0  0  0  0  0  0  0  0
  147.7221  134.5752  158.4636 C   0  0  0  0  0  0  0  0  0  0  0  0
  148.0224  133.8019  159.7613 C   0  0  0  0  0  0  0  0  0  0  0  0
  148.2650  134.4491  162.4845 H   0  0  0  0  0  0  0  0  0  0  0  0
  146.8762  135.1729  163.3059 H   0  0  0  0  0  0  0  0  0  0  0  0
  146.5303  131.6648  159.3176 H   0  0  0  0  0  0  0  0  0  0  0  0
  145.0380  132.2011  160.0236 H   0  0  0  0  0  0  0  0  0  0  0  0
  145.0412  132.6434  157.5958 H   0  0  0  0  0  0  0  0  0  0  0  0
  144.9456  134.1514  158.4734 H   0  0  0  0  0  0  0  0  0  0  0  0
  145.9148  136.9696  154.6702 H   0  0  0  0  0  0  0  0  0  0  0  0
  147.4090  130.8493  153.3399 H   0  0  0  0  0  0  0  0  0  0  0  0
  146.4453  133.9707  151.2792 H   0  0  0  0  0  0  0  0  0  0  0  0
  147.8086  132.8909  151.1586 H   0  0  0  0  0  0  0  0  0  0  0  0
  147.2604  130.5793  150.5700 H   0  0  0  0  0  0  0  0  0  0  0  0
  146.3533  132.6812  148.9064 H   0  0  0  0  0  0  0  0  0  0  0  0
  145.4919  131.1520  148.9234 H   0  0  0  0  0  0  0  0  0  0  0  0
  144.3377  133.8536  149.7168 H   0  0  0  0  0  0  0  0  0  0  0  0
  143.7142  132.7223  148.5036 H   0  0  0  0  0  0  0  0  0  0  0  0
  144.2367  130.9755  152.0829 H   0  0  0  0  0  0  0  0  0  0  0  0
  144.3653  132.7179  152.2707 H   0  0  0  0  0  0  0  0  0  0  0  0
  148.6557  134.7761  157.9364 H   0  0  0  0  0  0  0  0  0  0  0  0
  147.2704  135.5395  158.7021 H   0  0  0  0  0  0  0  0  0  0  0  0
  148.6724  134.3977  160.4033 H   0  0  0  0  0  0  0  0  0  0  0  0
  148.5796  132.8920  159.5336 H   0  0  0  0  0  0  0  0  0  0  0  0
  1  2  3  0  0  0  0
  2  3  1  0  0  0  0
  3  4  1  0  0  0  0
  3 28  1  0  0  0  0
  3 29  1  0  0  0  0
  4  5  2  0  0  0  0
  4  6  1  0  0  0  0
  6 27  1  0  0  0  0
  6  7  1  0  0  0  0
  7  8  1  0  0  0  0
  7 30  1  0  0  0  0
  7 31  1  0  0  0  0
  8  9  1  0  0  0  0
  8 32  1  0  0  0  0
  8 33  1  0  0  0  0
  9 10  1  0  0  0  0
  9 26  1  0  0  0  0
 10 15  1  0  0  0  0
 10 11  2  0  0  0  0
 11 12  1  0  0  0  0
 12 13  2  0  0  0  0
 12 34  1  0  0  0  0
 13 14  1  0  0  0  0
 14 18  1  0  0  0  0
 14 15  2  0  0  0  0
 15 16  1  0  0  0  0
 16 17  2  0  0  0  0
 17 18  1  0  0  0  0
 17 35  1  0  0  0  0
 18 19  1  0  0  0  0
 19 20  1  0  0  0  0
 19 36  1  0  0  0  0
 19 37  1  0  0  0  0
 20 25  1  0  0  0  0
 20 21  1  0  0  0  0
 20 22  1  0  0  0  0
 21 38  1  0  0  0  0
 22 23  1  0  0  0  0
 22 39  1  0  0  0  0
 22 40  1  0  0  0  0
 23 24  1  0  0  0  0
 23 41  1  0  0  0  0
 23 42  1  0  0  0  0
 24 25  1  0  0  0  0
 25 43  1  0  0  0  0
 25 44  1  0  0  0  0
 26 27  1  0  0  0  0
 26 45  1  0  0  0  0
 26 46  1  0  0  0  0
 27 47  1  0  0  0  0
 27 48  1  0  0  0  0
M  END
> <s_m_source_file>
AV-unprocessed.smi

> <i_m_source_file_index>
163

> <i_lp_mmshare_version>
43012

> <i_f3d_flags>
0

> <s_epik_input>
TiNDW0NIMl1DKD1PKU4xW0NIMl1bQ0gyXU4oW0NIMl1bQ0gyXTEpYyhuW2NIXW4yKWMoYzIzKW5bY0hdbjNbQ0gyXVtDQEBdNChbT0hdKVtDSDJdW0NIMl1PW0NIMl00

> <s_epik_cmdline>
J2VwaWtfcHl0aG9uJywgJy1waCcsICc3LjAnLCAnLXRuJywgJzgnLCAnLW1hJywgJzIwMCcsICctbWV0YWxfYmluZGluZycsICctaW1hZScsICc8aW5maWxlLm1hZT4nLCAnLW9tYWUnLCAnPG91dGZpbGUubWFlPic=

> <r_lp_tautomer_probability>
1

> <r_epik_Ionization_Penalty>
0.000981096

> <r_epik_Ionization_Penalty_Charging>
0

> <r_epik_Ionization_Penalty_Neutral>
0.000981096

> <r_epik_State_Penalty>
0.000482875

> <r_epik_Charging_Adjusted_Penalty>
0.000482875

> <i_epik_Tot_Q>
0

> <i_epik_Tot_abs_Q>
0

> <r_epik_Metal_State_Penalty>
-0

> <b_epik_Metal_Only>
0

> <s_lp_Force_Field>
OPLS_2005

> <r_lp_Energy>
51.4692

> <b_lp_Chiralities_Consistent>
1

> <s_lp_Variant>
AV-unprocessed.smi:163-2

> <Gold.Version>
5.8.1

> <Gold.Id.Protein>
6NUR|6NUR_protein|mol2

> <Gold.PLP.Fitness>
43.6677

> <Gold.PLP.PLP>
-35.8466

> <Gold.PLP.part.hbond>
-3.0000

> <Gold.PLP.part.metal>
0.0000

> <Gold.PLP.part.buried>
-6.0479

> <Gold.PLP.part.nonpolar>
-26.7500

> <Gold.PLP.part.repulsive>
0.3821

> <Gold.PLP.ligand.clash>
0.0000

> <Gold.PLP.ligand.torsion>
0.5627

> <Gold.PLP.Chemscore.Hbond>
2.8080

> <Gold.PLP.Chemscore.CHOScore>
0.0000

> <Gold.PLP.Chemscore.Metal>
0.0000

> <Gold.Chemscore.Hbonds>
donor molecule, donor type, donor heavy atom, donor atom, acceptor molecule, acceptor atom, score
      L1  H    21    38       P1 10747  1.00
      P1  H  6931  6943       L1     1  0.91
      P1  H  6934  6947       L1     1  0.88

> <Gold.PLP.Chemscore.Internal.Correction>
0.5226

> <Gold.Rescore>
     Score         DG    S(hbond)    S(metal)    S(lipo)     H(rot)  DE(clash)    DE(int)     intcor
     13.80     -15.40       2.73        0.00      66.56       2.72       0.03       1.57       ----

> <Gold.Chemscore.Fitness>
13.8044

> <Gold.Chemscore.DG>
-15.4019

> <Gold.Chemscore.ZeroCoef>
-5.4800

> <Gold.Chemscore.Hbond>
2.7261

> <Gold.Chemscore.Metal>
0.0000

> <Gold.Chemscore.Lipo>
66.5618

> <Gold.Chemscore.Internal_Hbond>
0.0000

> <Gold.Chemscore.DEClash>
0.0266

> <Gold.Chemscore.DEInternal>
1.5709

> <Gold.Chemscore.Rot>
2.7230

> <Gold.Chemscore.Internal.Correction>
   9.000000E+99

> <Gold.Chemscore.Hbonds>
donor molecule, donor type, donor heavy atom, donor atom, acceptor molecule, acceptor atom, score
      L1  H    21    38       P1 10747  0.98
      P1  H  6931  6943       L1     1  0.73
      P1  H  6934  6947       L1     1  0.86

> <Gold.Chemscore.Hbond.Weighted>
-9.1051

> <Gold.Chemscore.Metal.Weighted>
-0.0000

> <Gold.Chemscore.Lipo.Weighted>
-7.7877

> <Gold.Chemscore.Internal_Hbond.Weighted>
0.0000

> <Gold.Chemscore.DEClash.Weighted>
0.0266

> <Gold.Chemscore.DEInternal.Weighted>
1.5709

> <Gold.Chemscore.Rot.Weighted>
6.9709

> <Gold.Chemscore.Internal.Correction.Weighted>
   9.000000E+99

> <Gold.Protein.RotatedTorsions>
[ 6907 6896 6895 6894 ] final   38.52 input  -60.11 | X-H torsion
[ 7974 7965 7964 7962 ] final  143.61 input  175.53 | X-H torsion
[ 8008 7997 7996 7995 ] final  -53.83 input   59.86 | X-H torsion
[ 10167 10162 10161 10158 ] final  158.37 input  -65.29 | X-H torsion
[ 10718 10713 10712 10709 ] final -142.33 input   66.30 | X-H torsion
[ 10763 10752 10751 10750 ] final  -47.45 input  -60.55 | X-H torsion
[ 11005 11000 10999 10996 ] final  -28.28 input  -57.11 | X-H torsion

> <Gold.Protein.ActiveResidues>
 VAL166  LYS551  ARG553  GLY616  TRP617  ASP618  TYR619  PRO620  LYS621  CYS622 
 ASP623  PHE694  ASN695  SER759  ASP760  ASP761  ALA762  ILE779  LEU786  VAL792 
 PHE793  MET794  SER795  GLU796  ALA797  LYS798  CYS799  TRP800  GLU811  SER814 

> <Gold.Protein.RotatedAtoms>
  152.1575  134.8939  160.0543 H   0  0  0  0  0  0  0  0  0  0  0  0  # atno 6907 bound_to 6896
  151.9947  133.3798  159.4166 H   0  0  0  0  0  0  0  0  0  0  0  0  # atno 6908 bound_to 6896
  150.6883  134.3821  159.5082 H   0  0  0  0  0  0  0  0  0  0  0  0  # atno 6909 bound_to 6896
  144.8906  139.5564  143.5800 H   0  0  0  0  0  0  0  0  0  0  0  0  # atno 7974 bound_to 7965
  154.4144  140.1190  156.5218 H   0  0  0  0  0  0  0  0  0  0  0  0  # atno 8008 bound_to 7997
  155.6695  140.3496  155.4793 H   0  0  0  0  0  0  0  0  0  0  0  0  # atno 8009 bound_to 7997
  155.9645  140.1129  157.0857 H   0  0  0  0  0  0  0  0  0  0  0  0  # atno 8010 bound_to 7997
  139.4826  144.4831  151.8416 H   0  0  0  0  0  0  0  0  0  0  0  0  # atno 10167 bound_to 10162
  156.3447  130.7656  151.1798 H   0  0  0  0  0  0  0  0  0  0  0  0  # atno 10718 bound_to 10713
  154.0616  135.6617  153.4812 H   0  0  0  0  0  0  0  0  0  0  0  0  # atno 10763 bound_to 10752
  153.0424  135.5136  154.7653 H   0  0  0  0  0  0  0  0  0  0  0  0  # atno 10764 bound_to 10752
  154.6691  135.3027  154.9732 H   0  0  0  0  0  0  0  0  0  0  0  0  # atno 10765 bound_to 10752
  140.9194  133.7409  156.0780 H   0  0  0  0  0  0  0  0  0  0  0  0  # atno 11005 bound_to 11000
  146.3051  139.7554  142.9062 LP  0  0  0  0  0  0  0  0  0  0  0  0  # atno 17320 bound_to 7965
  145.3790  141.0355  143.3188 LP  0  0  0  0  0  0  0  0  0  0  0  0  # atno 17321 bound_to 7965
  140.4308  144.2118  150.5888 LP  0  0  0  0  0  0  0  0  0  0  0  0  # atno 17342 bound_to 10162
  140.4781  143.2389  151.8994 LP  0  0  0  0  0  0  0  0  0  0  0  0  # atno 17343 bound_to 10162
  157.7452  131.0444  150.4794 LP  0  0  0  0  0  0  0  0  0  0  0  0  # atno 17370 bound_to 10713
  156.4980  130.4110  149.6369 LP  0  0  0  0  0  0  0  0  0  0  0  0  # atno 17371 bound_to 10713
  140.8007  134.3512  157.5440 LP  0  0  0  0  0  0  0  0  0  0  0  0  # atno 17394 bound_to 11000
  139.8772  134.9196  156.3231 LP  0  0  0  0  0  0  0  0  0  0  0  0  # atno 17395 bound_to 11000

$$$$
