AV-unprocessed.smi:693|AV-procd|sdf|3373|dock9
  -GOLD-   22720 0353D 1   1.00000     0.00000
 Structure written by MMmdl.
 46 47  0  0  0  0  0  0  0  0  1 V2000
  152.0165  145.6142  160.0711 C   0  0  0  0  0  0  0  0  0  0  0  0
  151.9970  144.3028  159.3140 C   0  0  0  0  0  0  0  0  0  0  0  0
  151.5068  144.2488  157.9927 C   0  0  0  0  0  0  0  0  0  0  0  0
  151.5065  143.0075  157.3272 C   0  0  0  0  0  0  0  0  0  0  0  0
  151.9939  141.8724  158.0068 C   0  0  0  0  0  0  0  0  0  0  0  0
  152.0218  140.5130  157.3369 C   0  0  0  0  0  0  0  0  0  0  0  0
  151.4132  139.4185  158.2280 C   0  0  0  0  0  0  0  0  0  0  0  0
  152.3818  138.9131  159.1939 N   0  0  0  0  0  0  0  0  0  0  0  0
  152.1857  137.8617  160.0080 C   0  0  0  0  0  0  0  0  0  0  0  0
  151.1416  137.2076  159.9898 O   0  0  0  0  0  0  0  0  0  0  0  0
  153.2340  137.5644  160.8175 N   0  0  0  0  0  0  0  0  0  0  0  0
  154.4225  138.4021  161.0458 C   0  0  0  0  0  0  0  0  0  0  0  0
  154.2931  139.0636  162.4278 C   0  0  0  0  0  0  0  0  0  0  0  0
  154.1062  138.0066  163.5333 C   0  0  0  0  0  0  0  0  0  0  0  0
  152.9806  136.9952  163.1976 C   0  0  2  0  0  0  0  0  0  0  0  0
  152.8700  135.8359  164.2142 C   0  0  0  0  0  0  0  0  0  0  0  0
  154.1515  135.0070  164.3511 C   0  0  0  0  0  0  0  0  0  0  0  0
  154.7276  134.9723  165.5552 N   0  0  0  0  0  0  0  0  0  0  0  0
  154.6044  134.3873  163.3911 O   0  0  0  0  0  0  0  0  0  0  0  0
  153.1860  136.4458  161.7679 C   0  0  0  0  0  0  0  0  0  0  0  0
  152.4622  142.0342  159.3277 C   0  0  0  0  0  0  0  0  0  0  0  0
  152.4662  143.2203  159.9732 N   0  0  0  0  0  0  0  0  0  0  0  0
  152.5187  146.3831  159.4835 H   0  0  0  0  0  0  0  0  0  0  0  0
  152.5402  145.5193  161.0234 H   0  0  0  0  0  0  0  0  0  0  0  0
  150.9983  145.9464  160.2736 H   0  0  0  0  0  0  0  0  0  0  0  0
  151.1403  145.1374  157.5000 H   0  0  0  0  0  0  0  0  0  0  0  0
  151.1408  142.9306  156.3137 H   0  0  0  0  0  0  0  0  0  0  0  0
  151.4807  140.5783  156.3922 H   0  0  0  0  0  0  0  0  0  0  0  0
  153.0523  140.2602  157.0841 H   0  0  0  0  0  0  0  0  0  0  0  0
  150.5610  139.8179  158.7781 H   0  0  0  0  0  0  0  0  0  0  0  0
  151.0318  138.5969  157.6190 H   0  0  0  0  0  0  0  0  0  0  0  0
  153.2654  139.3982  159.2526 H   0  0  0  0  0  0  0  0  0  0  0  0
  155.3150  137.7753  161.0159 H   0  0  0  0  0  0  0  0  0  0  0  0
  154.5817  139.1649  160.2838 H   0  0  0  0  0  0  0  0  0  0  0  0
  155.1745  139.6696  162.6382 H   0  0  0  0  0  0  0  0  0  0  0  0
  153.4414  139.7453  162.4268 H   0  0  0  0  0  0  0  0  0  0  0  0
  155.0447  137.4675  163.6691 H   0  0  0  0  0  0  0  0  0  0  0  0
  153.9039  138.5142  164.4762 H   0  0  0  0  0  0  0  0  0  0  0  0
  152.0324  137.5363  163.2053 H   0  0  0  0  0  0  0  0  0  0  0  0
  152.6066  136.2332  165.1958 H   0  0  0  0  0  0  0  0  0  0  0  0
  152.0536  135.1700  163.9321 H   0  0  0  0  0  0  0  0  0  0  0  0
  155.5721  134.4373  165.6963 H   0  0  0  0  0  0  0  0  0  0  0  0
  154.3133  135.4805  166.3231 H   0  0  0  0  0  0  0  0  0  0  0  0
  152.4008  135.7301  161.5204 H   0  0  0  0  0  0  0  0  0  0  0  0
  154.1191  135.8828  161.7111 H   0  0  0  0  0  0  0  0  0  0  0  0
  152.8478  141.1904  159.8810 H   0  0  0  0  0  0  0  0  0  0  0  0
  1  2  1  0  0  0  0
  1 23  1  0  0  0  0
  1 24  1  0  0  0  0
  1 25  1  0  0  0  0
  2 22  1  0  0  0  0
  2  3  2  0  0  0  0
  3  4  1  0  0  0  0
  3 26  1  0  0  0  0
  4  5  2  0  0  0  0
  4 27  1  0  0  0  0
  5  6  1  0  0  0  0
  5 21  1  0  0  0  0
  6  7  1  0  0  0  0
  6 28  1  0  0  0  0
  6 29  1  0  0  0  0
  7  8  1  0  0  0  0
  7 30  1  0  0  0  0
  7 31  1  0  0  0  0
  8  9  1  0  0  0  0
  8 32  1  0  0  0  0
  9 10  2  0  0  0  0
  9 11  1  0  0  0  0
 11 20  1  0  0  0  0
 11 12  1  0  0  0  0
 12 13  1  0  0  0  0
 12 33  1  0  0  0  0
 12 34  1  0  0  0  0
 13 14  1  0  0  0  0
 13 35  1  0  0  0  0
 13 36  1  0  0  0  0
 14 15  1  0  0  0  0
 14 37  1  0  0  0  0
 14 38  1  0  0  0  0
 15 16  1  0  0  0  0
 15 20  1  0  0  0  0
 15 39  1  0  0  0  0
 16 17  1  0  0  0  0
 16 40  1  0  0  0  0
 16 41  1  0  0  0  0
 17 18  1  0  0  0  0
 17 19  2  0  0  0  0
 18 42  1  0  0  0  0
 18 43  1  0  0  0  0
 20 44  1  0  0  0  0
 20 45  1  0  0  0  0
 21 22  2  0  0  0  0
 21 46  1  0  0  0  0
M  END
> <s_m_source_file>
AV-unprocessed.smi

> <i_m_source_file_index>
693

> <i_lp_mmshare_version>
43012

> <i_f3d_flags>
0

> <s_epik_input>
W0NIM11jMVtjSF1bY0hdYyhbY0hdbjEpW0NIMl1bQ0gyXVtOSF1DKD1PKU4yW0NIMl1bQ0gyXVtDSDJdW0NASF0oW0NIMl0yKVtDSDJdQyg9TylbTkgyXQ==

> <s_epik_cmdline>
J2VwaWtfcHl0aG9uJywgJy1waCcsICc3LjAnLCAnLXRuJywgJzgnLCAnLW1hJywgJzIwMCcsICctbWV0YWxfYmluZGluZycsICctaW1hZScsICc8aW5maWxlLm1hZT4nLCAnLW9tYWUnLCAnPG91dGZpbGUubWFlPic=

> <r_epik_Ionization_Penalty>
0.056948

> <r_epik_Ionization_Penalty_Charging>
0

> <r_epik_Ionization_Penalty_Neutral>
0.056948

> <r_epik_State_Penalty>
0.0490937

> <r_epik_Charging_Adjusted_Penalty>
0.0490937

> <i_epik_Tot_Q>
0

> <i_epik_Tot_abs_Q>
0

> <r_epik_Metal_State_Penalty>
0.0447689

> <b_epik_Metal_Only>
0

> <s_lp_Force_Field>
OPLS_2005

> <r_lp_Energy>
26.3335

> <b_lp_Chiralities_Consistent>
1

> <s_lp_Variant>
AV-unprocessed.smi:693-2

> <Gold.Version>
5.8.1

> <Gold.Id.Protein>
6NUR|6NUR_protein|mol2

> <Gold.PLP.Fitness>
46.7775

> <Gold.PLP.PLP>
-44.2925

> <Gold.PLP.part.hbond>
-1.9768

> <Gold.PLP.part.metal>
0.0000

> <Gold.PLP.part.buried>
-6.2385

> <Gold.PLP.part.nonpolar>
-36.8213

> <Gold.PLP.part.repulsive>
0.1242

> <Gold.PLP.ligand.clash>
0.0000

> <Gold.PLP.ligand.torsion>
0.2904

> <Gold.PLP.Chemscore.Hbond>
1.0000

> <Gold.PLP.Chemscore.CHOScore>
0.0000

> <Gold.PLP.Chemscore.Metal>
0.0000

> <Gold.Chemscore.Hbonds>
donor molecule, donor type, donor heavy atom, donor atom, acceptor molecule, acceptor atom, score
      P1  H  6896  6908       L1    10  0.88

> <Gold.PLP.Chemscore.Internal.Correction>
0.0657

> <Gold.Rescore>
     Score         DG    S(hbond)    S(metal)    S(lipo)     H(rot)  DE(clash)    DE(int)     intcor
     16.34     -16.75       1.00        0.00     117.07       2.25       0.00       0.41       ----

> <Gold.Chemscore.Fitness>
16.3421

> <Gold.Chemscore.DG>
-16.7497

> <Gold.Chemscore.ZeroCoef>
-5.4800

> <Gold.Chemscore.Hbond>
0.9987

> <Gold.Chemscore.Metal>
0.0000

> <Gold.Chemscore.Lipo>
117.0682

> <Gold.Chemscore.Internal_Hbond>
0.0000

> <Gold.Chemscore.DEClash>
0.0000

> <Gold.Chemscore.DEInternal>
0.4075

> <Gold.Chemscore.Rot>
2.2512

> <Gold.Chemscore.Internal.Correction>
   9.000000E+99

> <Gold.Chemscore.Hbonds>
donor molecule, donor type, donor heavy atom, donor atom, acceptor molecule, acceptor atom, score
      P1  H  6896  6908       L1    10  0.62

> <Gold.Chemscore.Hbond.Weighted>
-3.3358

> <Gold.Chemscore.Metal.Weighted>
-0.0000

> <Gold.Chemscore.Lipo.Weighted>
-13.6970

> <Gold.Chemscore.Internal_Hbond.Weighted>
0.0000

> <Gold.Chemscore.DEClash.Weighted>
0.0000

> <Gold.Chemscore.DEInternal.Weighted>
0.4075

> <Gold.Chemscore.Rot.Weighted>
5.7631

> <Gold.Chemscore.Internal.Correction.Weighted>
   9.000000E+99

> <Gold.Protein.RotatedTorsions>
[ 6907 6896 6895 6894 ] final -118.54 input  -60.11 | X-H torsion
[ 7974 7965 7964 7962 ] final    8.18 input  175.53 | X-H torsion
[ 8008 7997 7996 7995 ] final  -60.29 input   59.86 | X-H torsion
[ 10167 10162 10161 10158 ] final -175.06 input  -65.29 | X-H torsion
[ 10718 10713 10712 10709 ] final   76.90 input   66.30 | X-H torsion
[ 10763 10752 10751 10750 ] final   54.47 input  -60.55 | X-H torsion
[ 11005 11000 10999 10996 ] final  -39.28 input  -57.11 | X-H torsion

> <Gold.Protein.ActiveResidues>
 VAL166  LYS551  ARG553  GLY616  TRP617  ASP618  TYR619  PRO620  LYS621  CYS622 
 ASP623  PHE694  ASN695  SER759  ASP760  ASP761  ALA762  ILE779  LEU786  VAL792 
 PHE793  MET794  SER795  GLU796  ALA797  LYS798  CYS799  TRP800  GLU811  SER814 

> <Gold.Protein.RotatedAtoms>
  150.8228  133.8223  159.3131 H   0  0  0  0  0  0  0  0  0  0  0  0  # atno 6907 bound_to 6896
  151.5976  135.1048  160.0062 H   0  0  0  0  0  0  0  0  0  0  0  0  # atno 6908 bound_to 6896
  152.4316  133.7247  159.6609 H   0  0  0  0  0  0  0  0  0  0  0  0  # atno 6909 bound_to 6896
  146.2419  139.9972  142.8419 H   0  0  0  0  0  0  0  0  0  0  0  0  # atno 7974 bound_to 7965
  154.4392  140.1043  156.6250 H   0  0  0  0  0  0  0  0  0  0  0  0  # atno 8008 bound_to 7997
  155.5667  140.3488  155.4486 H   0  0  0  0  0  0  0  0  0  0  0  0  # atno 8009 bound_to 7997
  156.0420  140.1284  157.0134 H   0  0  0  0  0  0  0  0  0  0  0  0  # atno 8010 bound_to 7997
  139.5601  144.1892  152.1224 H   0  0  0  0  0  0  0  0  0  0  0  0  # atno 10167 bound_to 10162
  157.6691  130.9796  150.1564 H   0  0  0  0  0  0  0  0  0  0  0  0  # atno 10718 bound_to 10713
  152.9805  135.5744  154.4909 H   0  0  0  0  0  0  0  0  0  0  0  0  # atno 10763 bound_to 10752
  154.4443  135.2776  155.1827 H   0  0  0  0  0  0  0  0  0  0  0  0  # atno 10764 bound_to 10752
  154.3482  135.6215  153.5683 H   0  0  0  0  0  0  0  0  0  0  0  0  # atno 10765 bound_to 10752
  141.0090  133.6917  156.2166 H   0  0  0  0  0  0  0  0  0  0  0  0  # atno 11005 bound_to 11000
  145.1448  140.9591  143.4467 LP  0  0  0  0  0  0  0  0  0  0  0  0  # atno 17320 bound_to 7965
  145.0261  139.3381  143.6048 LP  0  0  0  0  0  0  0  0  0  0  0  0  # atno 17321 bound_to 7965
  140.1403  144.5208  150.6748 LP  0  0  0  0  0  0  0  0  0  0  0  0  # atno 17342 bound_to 10162
  140.6879  143.2360  151.5210 LP  0  0  0  0  0  0  0  0  0  0  0  0  # atno 17343 bound_to 10162
  156.2350  130.3685  149.8401 LP  0  0  0  0  0  0  0  0  0  0  0  0  # atno 17370 bound_to 10713
  156.6217  130.8629  151.3477 LP  0  0  0  0  0  0  0  0  0  0  0  0  # atno 17371 bound_to 10713
  140.6765  134.4813  157.5588 LP  0  0  0  0  0  0  0  0  0  0  0  0  # atno 17394 bound_to 11000
  139.9079  134.8408  156.1636 LP  0  0  0  0  0  0  0  0  0  0  0  0  # atno 17395 bound_to 11000

$$$$
