AV-unprocessed.smi:155|AV-procd|sdf|1280|dock8
  -GOLD-   2262018553D 1   1.00000     0.00000
 Structure written by MMmdl.
 64 67  0  0  0  0  0  0  0  0  3 V2000
  143.8339  133.1978  151.5688 C   0  0  0  0  0  0  0  0  0  0  0  0
  144.0330  133.7372  152.9332 N   0  3  0  0  0  0  0  0  0  0  0  0
  143.3971  135.0670  153.0787 C   0  0  0  0  0  0  0  0  0  0  0  0
  145.4653  133.7063  153.3371 C   0  0  0  0  0  0  0  0  0  0  0  0
  145.6942  133.9504  154.8475 C   0  0  0  0  0  0  0  0  0  0  0  0
  147.1066  133.7772  155.2829 N   0  3  1  0  0  0  0  0  0  0  0  0
  147.3464  132.5125  156.0283 C   0  0  0  0  0  0  0  0  0  0  0  0
  148.2010  132.7827  157.2792 C   0  0  0  0  0  0  0  0  0  0  0  0
  149.6723  133.1242  156.9772 C   0  0  0  0  0  0  0  0  0  0  0  0
  149.8223  134.2225  156.0233 N   0  0  0  0  0  0  0  0  0  0  0  0
  149.7492  135.5331  156.4089 C   0  0  0  0  0  0  0  0  0  0  0  0
  148.8781  135.8495  157.4056 N   0  0  0  0  0  0  0  0  0  0  0  0
  148.7602  137.1015  157.8516 C   0  0  0  0  0  0  0  0  0  0  0  0
  149.4182  138.1885  157.4547 N   0  0  0  0  0  0  0  0  0  0  0  0
  150.2897  137.8971  156.4488 C   0  0  0  0  0  0  0  0  0  0  0  0
  150.5219  136.6120  155.8721 C   0  0  0  0  0  0  0  0  0  0  0  0
  151.5050  136.7269  154.8941 N   0  0  0  0  0  0  0  0  0  0  0  0
  151.8235  137.9909  154.8864 C   0  0  0  0  0  0  0  0  0  0  0  0
  151.1326  138.7698  155.7834 N   0  0  0  0  0  0  0  0  0  0  0  0
  151.2828  140.2026  155.9845 C   0  0  0  0  0  0  0  0  0  0  0  0
  150.1290  141.0557  155.4071 C   0  0  2  0  0  0  0  0  0  0  0  0
  149.7911  142.1164  156.2795 O   0  0  0  0  0  0  0  0  0  0  0  0
  148.8608  140.2697  155.0023 C   0  0  2  0  0  0  0  0  0  0  0  0
  149.0734  139.1388  153.9910 C   0  0  0  0  0  0  0  0  0  0  0  0
  147.6916  139.0059  153.3921 C   0  0  0  0  0  0  0  0  0  0  0  0
  147.2449  140.4630  153.3257 C   0  0  0  0  0  0  0  0  0  0  0  0
  147.8400  141.0996  154.4519 O   0  0  0  0  0  0  0  0  0  0  0  0
  149.5723  133.8735  154.6210 C   0  0  0  0  0  0  0  0  0  0  0  0
  148.0939  134.0164  154.1922 C   0  0  0  0  0  0  0  0  0  0  0  0
  144.3488  133.8102  150.8274 H   0  0  0  0  0  0  0  0  0  0  0  0
  142.7738  133.1717  151.3132 H   0  0  0  0  0  0  0  0  0  0  0  0
  144.2118  132.1775  151.4933 H   0  0  0  0  0  0  0  0  0  0  0  0
  143.9339  135.8225  152.5041 H   0  0  0  0  0  0  0  0  0  0  0  0
  143.3640  135.3819  154.1197 H   0  0  0  0  0  0  0  0  0  0  0  0
  142.3657  135.0454  152.7249 H   0  0  0  0  0  0  0  0  0  0  0  0
  145.8425  132.7037  153.1305 H   0  0  0  0  0  0  0  0  0  0  0  0
  146.0544  134.3691  152.7043 H   0  0  0  0  0  0  0  0  0  0  0  0
  145.3400  134.9565  155.0756 H   0  0  0  0  0  0  0  0  0  0  0  0
  145.0691  133.2737  155.4319 H   0  0  0  0  0  0  0  0  0  0  0  0
  146.4042  132.0814  156.3674 H   0  0  0  0  0  0  0  0  0  0  0  0
  147.8014  131.7557  155.3874 H   0  0  0  0  0  0  0  0  0  0  0  0
  147.7394  133.5769  157.8655 H   0  0  0  0  0  0  0  0  0  0  0  0
  148.1822  131.8984  157.9167 H   0  0  0  0  0  0  0  0  0  0  0  0
  150.2288  133.3223  157.8917 H   0  0  0  0  0  0  0  0  0  0  0  0
  150.1542  132.2416  156.5552 H   0  0  0  0  0  0  0  0  0  0  0  0
  148.0391  137.2529  158.6414 H   0  0  0  0  0  0  0  0  0  0  0  0
  152.5654  138.3949  154.2126 H   0  0  0  0  0  0  0  0  0  0  0  0
  151.3820  140.3866  157.0549 H   0  0  0  0  0  0  0  0  0  0  0  0
  152.2272  140.5129  155.5361 H   0  0  0  0  0  0  0  0  0  0  0  0
  150.5111  141.5301  154.5027 H   0  0  0  0  0  0  0  0  0  0  0  0
  149.3698  142.7975  155.7781 H   0  0  0  0  0  0  0  0  0  0  0  0
  148.4317  139.8289  155.9034 H   0  0  0  0  0  0  0  0  0  0  0  0
  149.7814  139.4254  153.2124 H   0  0  0  0  0  0  0  0  0  0  0  0
  149.4305  138.2176  154.4520 H   0  0  0  0  0  0  0  0  0  0  0  0
  147.6894  138.5146  152.4188 H   0  0  0  0  0  0  0  0  0  0  0  0
  147.0429  138.4422  154.0638 H   0  0  0  0  0  0  0  0  0  0  0  0
  147.6266  140.9361  152.4202 H   0  0  0  0  0  0  0  0  0  0  0  0
  146.1601  140.5702  153.3327 H   0  0  0  0  0  0  0  0  0  0  0  0
  150.2215  134.4426  153.9546 H   0  0  0  0  0  0  0  0  0  0  0  0
  149.8727  132.8354  154.4751 H   0  0  0  0  0  0  0  0  0  0  0  0
  147.8939  133.3513  153.3511 H   0  0  0  0  0  0  0  0  0  0  0  0
  147.9586  135.0292  153.8170 H   0  0  0  0  0  0  0  0  0  0  0  0
  143.5407  133.1066  153.5502 H   0  0  0  0  0  0  0  0  0  0  0  0
  147.2649  134.5036  155.9660 H   0  0  0  0  0  0  0  0  0  0  0  0
  1  2  1  0  0  0  0
  1 30  1  0  0  0  0
  1 31  1  0  0  0  0
  1 32  1  0  0  0  0
  2  3  1  0  0  0  0
  2  4  1  0  0  0  0
  2 63  1  0  0  0  0
  3 33  1  0  0  0  0
  3 34  1  0  0  0  0
  3 35  1  0  0  0  0
  4  5  1  0  0  0  0
  4 36  1  0  0  0  0
  4 37  1  0  0  0  0
  5  6  1  0  0  0  0
  5 38  1  0  0  0  0
  5 39  1  0  0  0  0
  6 29  1  0  0  0  0
  6  7  1  0  0  0  0
  6 64  1  0  0  0  0
  7  8  1  0  0  0  0
  7 40  1  0  0  0  0
  7 41  1  0  0  0  0
  8  9  1  0  0  0  0
  8 42  1  0  0  0  0
  8 43  1  0  0  0  0
  9 10  1  0  0  0  0
  9 44  1  0  0  0  0
  9 45  1  0  0  0  0
 10 11  1  0  0  0  0
 10 28  1  0  0  0  0
 11 16  1  0  0  0  0
 11 12  2  0  0  0  0
 12 13  1  0  0  0  0
 13 14  2  0  0  0  0
 13 46  1  0  0  0  0
 14 15  1  0  0  0  0
 15 19  1  0  0  0  0
 15 16  2  0  0  0  0
 16 17  1  0  0  0  0
 17 18  2  0  0  0  0
 18 19  1  0  0  0  0
 18 47  1  0  0  0  0
 19 20  1  0  0  0  0
 20 21  1  0  0  0  0
 20 48  1  0  0  0  0
 20 49  1  0  0  0  0
 21 22  1  0  0  0  0
 21 23  1  0  0  0  0
 21 50  1  0  0  0  0
 22 51  1  0  0  0  0
 23 27  1  0  0  0  0
 23 24  1  0  0  0  0
 23 52  1  0  0  0  0
 24 25  1  0  0  0  0
 24 53  1  0  0  0  0
 24 54  1  0  0  0  0
 25 26  1  0  0  0  0
 25 55  1  0  0  0  0
 25 56  1  0  0  0  0
 26 27  1  0  0  0  0
 26 57  1  0  0  0  0
 26 58  1  0  0  0  0
 28 29  1  0  0  0  0
 28 59  1  0  0  0  0
 28 60  1  0  0  0  0
 29 61  1  0  0  0  0
 29 62  1  0  0  0  0
M  CHG  1   2   1
M  CHG  1   6   1
M  END
> <s_m_source_file>
AV-unprocessed.smi

> <i_m_source_file_index>
155

> <i_lp_mmshare_version>
43012

> <i_f3d_flags>
0

> <s_epik_input>
W0NIM11OKFtDSDNdKVtDSDJdW0NIMl1OMVtDSDJdW0NIMl1bQ0gyXU4oW0NIMl1bQ0gyXTEpYyhuW2NIXW4yKWMoYzIzKW5bY0hdbjNbQ0gyXVtDQEhdKFtPSF0pW0NAQEhdNFtDSDJdW0NIMl1bQ0gyXU80

> <s_epik_cmdline>
J2VwaWtfcHl0aG9uJywgJy1waCcsICc3LjAnLCAnLXRuJywgJzgnLCAnLW1hJywgJzIwMCcsICctbWV0YWxfYmluZGluZycsICctaW1hZScsICc8aW5maWxlLm1hZT4nLCAnLW9tYWUnLCAnPG91dGZpbGUubWFlPic=

> <r_lp_tautomer_probability>
1

> <r_epik_Ionization_Penalty>
3.0333

> <r_epik_Ionization_Penalty_Charging>
3.03317

> <r_epik_Ionization_Penalty_Neutral>
0.000131872

> <r_epik_State_Penalty>
1.99939

> <r_epik_Charging_Adjusted_Penalty>
5.03256

> <i_epik_Tot_Q>
2

> <i_epik_Tot_abs_Q>
2

> <r_epik_Metal_State_Penalty>
2.00021

> <b_epik_Metal_Only>
0

> <s_lp_Force_Field>
OPLS_2005

> <r_lp_Energy>
60.5665

> <b_lp_Chiralities_Consistent>
1

> <s_lp_Variant>
AV-unprocessed.smi:155-14

> <Gold.Version>
5.8.1

> <Gold.Id.Protein>
6NUR|6NUR_protein|mol2

> <Gold.PLP.Fitness>
45.2001

> <Gold.PLP.PLP>
-37.2949

> <Gold.PLP.part.hbond>
-3.0000

> <Gold.PLP.part.metal>
0.0000

> <Gold.PLP.part.buried>
-1.7696

> <Gold.PLP.part.nonpolar>
-32.2394

> <Gold.PLP.part.repulsive>
0.9282

> <Gold.PLP.ligand.clash>
0.0000

> <Gold.PLP.ligand.torsion>
2.2073

> <Gold.PLP.Chemscore.Hbond>
4.0000

> <Gold.PLP.Chemscore.CHOScore>
0.0000

> <Gold.PLP.Chemscore.Metal>
0.0000

> <Gold.Chemscore.Hbonds>
donor molecule, donor type, donor heavy atom, donor atom, acceptor molecule, acceptor atom, score
      L1  H     2    63       P1 10957  2.00
      L1  H    22    51       P1  8028  0.94
      P1  H 10752 10764       L1    17  1.00

> <Gold.PLP.Chemscore.Internal.Correction>
0.3198

> <Gold.Rescore>
     Score         DG    S(hbond)    S(metal)    S(lipo)     H(rot)  DE(clash)    DE(int)     intcor
     11.68     -16.73       2.90        0.00      73.59       2.75       0.57       4.48       ----

> <Gold.Chemscore.Fitness>
11.6791

> <Gold.Chemscore.DG>
-16.7285

> <Gold.Chemscore.ZeroCoef>
-5.4800

> <Gold.Chemscore.Hbond>
2.8974

> <Gold.Chemscore.Metal>
0.0000

> <Gold.Chemscore.Lipo>
73.5862

> <Gold.Chemscore.Internal_Hbond>
0.0000

> <Gold.Chemscore.DEClash>
0.5701

> <Gold.Chemscore.DEInternal>
4.4794

> <Gold.Chemscore.Rot>
2.7493

> <Gold.Chemscore.Internal.Correction>
   9.000000E+99

> <Gold.Chemscore.Hbonds>
donor molecule, donor type, donor heavy atom, donor atom, acceptor molecule, acceptor atom, score
      L1  H     2    63       P1 10957  0.89
      L1  H    22    51       P1  8028  0.89
      P1  H 10752 10764       L1    17  0.85

> <Gold.Chemscore.Hbond.Weighted>
-9.6772

> <Gold.Chemscore.Metal.Weighted>
-0.0000

> <Gold.Chemscore.Lipo.Weighted>
-8.6096

> <Gold.Chemscore.Internal_Hbond.Weighted>
0.0000

> <Gold.Chemscore.DEClash.Weighted>
0.5701

> <Gold.Chemscore.DEInternal.Weighted>
4.4794

> <Gold.Chemscore.Rot.Weighted>
7.0383

> <Gold.Chemscore.Internal.Correction.Weighted>
   9.000000E+99

> <Gold.Protein.RotatedTorsions>
[ 6907 6896 6895 6894 ] final  -91.71 input  -60.11 | X-H torsion
[ 7974 7965 7964 7962 ] final    2.29 input  175.53 | X-H torsion
[ 8008 7997 7996 7995 ] final -142.96 input   59.86 | X-H torsion
[ 10167 10162 10161 10158 ] final  158.48 input  -65.29 | X-H torsion
[ 10718 10713 10712 10709 ] final   65.85 input   66.30 | X-H torsion
[ 10763 10752 10751 10750 ] final  -62.39 input  -60.55 | X-H torsion
[ 11005 11000 10999 10996 ] final  178.15 input  -57.11 | X-H torsion

> <Gold.Protein.ActiveResidues>
 VAL166  LYS551  ARG553  GLY616  TRP617  ASP618  TYR619  PRO620  LYS621  CYS622 
 ASP623  PHE694  ASN695  SER759  ASP760  ASP761  ALA762  ILE779  LEU786  VAL792 
 PHE793  MET794  SER795  GLU796  ALA797  LYS798  CYS799  TRP800  GLU811  SER814 

> <Gold.Protein.RotatedAtoms>
  150.6896  134.2235  159.4405 H   0  0  0  0  0  0  0  0  0  0  0  0  # atno 6907 bound_to 6896
  152.0190  134.9831  160.0579 H   0  0  0  0  0  0  0  0  0  0  0  0  # atno 6908 bound_to 6896
  152.1416  133.4432  159.4806 H   0  0  0  0  0  0  0  0  0  0  0  0  # atno 6909 bound_to 6896
  146.2443  140.0859  142.8354 H   0  0  0  0  0  0  0  0  0  0  0  0  # atno 7974 bound_to 7965
  155.5028  140.0577  157.2936 H   0  0  0  0  0  0  0  0  0  0  0  0  # atno 8008 bound_to 7997
  154.4581  140.1983  156.0272 H   0  0  0  0  0  0  0  0  0  0  0  0  # atno 8009 bound_to 7997
  156.0837  140.3243  155.7731 H   0  0  0  0  0  0  0  0  0  0  0  0  # atno 8010 bound_to 7997
  139.4827  144.4820  151.8431 H   0  0  0  0  0  0  0  0  0  0  0  0  # atno 10167 bound_to 10162
  157.6132  130.9236  150.0031 H   0  0  0  0  0  0  0  0  0  0  0  0  # atno 10718 bound_to 10713
  154.2991  135.6238  153.5417 H   0  0  0  0  0  0  0  0  0  0  0  0  # atno 10763 bound_to 10752
  152.9843  135.5674  154.5304 H   0  0  0  0  0  0  0  0  0  0  0  0  # atno 10764 bound_to 10752
  154.4931  135.2868  155.1457 H   0  0  0  0  0  0  0  0  0  0  0  0  # atno 10765 bound_to 10752
  140.3920  134.6854  157.4513 H   0  0  0  0  0  0  0  0  0  0  0  0  # atno 11005 bound_to 11000
  145.0693  140.9144  143.4892 LP  0  0  0  0  0  0  0  0  0  0  0  0  # atno 17320 bound_to 7965
  145.0989  139.2836  143.5696 LP  0  0  0  0  0  0  0  0  0  0  0  0  # atno 17321 bound_to 7965
  140.4297  144.2133  150.5888 LP  0  0  0  0  0  0  0  0  0  0  0  0  # atno 17342 bound_to 10162
  140.4792  143.2385  151.8980 LP  0  0  0  0  0  0  0  0  0  0  0  0  # atno 17343 bound_to 10162
  156.1243  130.3645  149.9836 LP  0  0  0  0  0  0  0  0  0  0  0  0  # atno 17370 bound_to 10713
  156.7910  130.9256  151.3646 LP  0  0  0  0  0  0  0  0  0  0  0  0  # atno 17371 bound_to 10713
  140.0400  134.6282  155.8993 LP  0  0  0  0  0  0  0  0  0  0  0  0  # atno 17394 bound_to 11000
  141.1887  133.6563  156.5338 LP  0  0  0  0  0  0  0  0  0  0  0  0  # atno 17395 bound_to 11000

$$$$
