AV-unprocessed.smi:327|AV-procd|sdf|2346|dock5
  -GOLD-   2262022253D 1   1.00000     0.00000
 Structure written by MMmdl.
 47 48  0  0  0  0  0  0  0  0  1 V2000
  144.4385  141.1766  157.3098 C   0  0  0  0  0  0  0  0  0  0  0  0
  145.3646  141.3023  156.2454 O   0  0  0  0  0  0  0  0  0  0  0  0
  146.5170  140.4965  156.4285 C   0  0  0  0  0  0  0  0  0  0  0  0
  147.4118  140.5705  155.1806 C   0  0  0  0  0  0  0  0  0  0  0  0
  148.6180  139.7471  155.3240 N   0  0  0  0  0  0  0  0  0  0  0  0
  149.6503  140.3783  155.9983 N   0  0  0  0  0  0  0  0  0  0  0  0
  150.7762  139.7679  156.1838 C   0  0  0  0  0  0  0  0  0  0  0  0
  151.9141  140.4175  156.8917 C   0  0  0  0  0  0  0  0  0  0  0  0
  153.0576  139.9611  156.8416 O   0  0  0  0  0  0  0  0  0  0  0  0
  151.6021  141.5343  157.5742 N   0  0  0  0  0  0  0  0  0  0  0  0
  152.5376  142.3751  158.3172 C   0  0  0  0  0  0  0  0  0  0  0  0
  152.6821  141.8208  159.7514 C   0  0  0  0  0  0  0  0  0  0  0  0
  153.4317  142.7290  160.7468 C   0  0  0  0  0  0  0  0  0  0  0  0
  152.5196  143.4906  161.7305 C   0  0  0  0  0  0  0  0  0  0  0  0
  151.6417  144.6142  161.1423 C   0  0  0  0  0  0  0  0  0  0  0  0
  150.5011  144.1302  160.2239 C   0  0  0  0  0  0  0  0  0  0  0  0
  150.7592  144.2843  158.7127 C   0  0  0  0  0  0  0  0  0  0  0  0
  152.1518  143.8684  158.1980 C   0  0  0  0  0  0  0  0  0  0  0  0
  150.9770  138.4135  155.6973 C   0  0  0  0  0  0  0  0  0  0  0  0
  149.9632  137.8125  155.0370 C   0  0  0  0  0  0  0  0  0  0  0  0
  148.6830  138.4834  154.8057 C   0  0  0  0  0  0  0  0  0  0  0  0
  147.7506  137.9579  154.1982 O   0  0  0  0  0  0  0  0  0  0  0  0
  143.5782  141.8194  157.1243 H   0  0  0  0  0  0  0  0  0  0  0  0
  144.8847  141.4771  158.2588 H   0  0  0  0  0  0  0  0  0  0  0  0
  144.0789  140.1509  157.4007 H   0  0  0  0  0  0  0  0  0  0  0  0
  147.0702  140.8153  157.3135 H   0  0  0  0  0  0  0  0  0  0  0  0
  146.2116  139.4622  156.5938 H   0  0  0  0  0  0  0  0  0  0  0  0
  146.8455  140.2173  154.3171 H   0  0  0  0  0  0  0  0  0  0  0  0
  147.6569  141.6096  154.9547 H   0  0  0  0  0  0  0  0  0  0  0  0
  150.6381  141.8349  157.5611 H   0  0  0  0  0  0  0  0  0  0  0  0
  153.5220  142.2749  157.8564 H   0  0  0  0  0  0  0  0  0  0  0  0
  151.7159  141.5307  160.1618 H   0  0  0  0  0  0  0  0  0  0  0  0
  153.2315  140.8813  159.6760 H   0  0  0  0  0  0  0  0  0  0  0  0
  154.0774  142.0889  161.3491 H   0  0  0  0  0  0  0  0  0  0  0  0
  154.1132  143.4081  160.2348 H   0  0  0  0  0  0  0  0  0  0  0  0
  151.8885  142.7797  162.2652 H   0  0  0  0  0  0  0  0  0  0  0  0
  153.1583  143.9378  162.4930 H   0  0  0  0  0  0  0  0  0  0  0  0
  151.1834  145.1296  161.9870 H   0  0  0  0  0  0  0  0  0  0  0  0
  152.2522  145.3721  160.6515 H   0  0  0  0  0  0  0  0  0  0  0  0
  150.2229  143.1056  160.4656 H   0  0  0  0  0  0  0  0  0  0  0  0
  149.6077  144.7115  160.4553 H   0  0  0  0  0  0  0  0  0  0  0  0
  149.9851  143.7497  158.1612 H   0  0  0  0  0  0  0  0  0  0  0  0
  150.6209  145.3355  158.4575 H   0  0  0  0  0  0  0  0  0  0  0  0
  152.9186  144.4910  158.6555 H   0  0  0  0  0  0  0  0  0  0  0  0
  152.1966  144.1381  157.1420 H   0  0  0  0  0  0  0  0  0  0  0  0
  151.9111  137.8936  155.8542 H   0  0  0  0  0  0  0  0  0  0  0  0
  150.0995  136.8065  154.6683 H   0  0  0  0  0  0  0  0  0  0  0  0
  1  2  1  0  0  0  0
  1 23  1  0  0  0  0
  1 24  1  0  0  0  0
  1 25  1  0  0  0  0
  2  3  1  0  0  0  0
  3  4  1  0  0  0  0
  3 26  1  0  0  0  0
  3 27  1  0  0  0  0
  4  5  1  0  0  0  0
  4 28  1  0  0  0  0
  4 29  1  0  0  0  0
  5 21  1  0  0  0  0
  5  6  1  0  0  0  0
  6  7  2  0  0  0  0
  7  8  1  0  0  0  0
  7 19  1  0  0  0  0
  8  9  2  0  0  0  0
  8 10  1  0  0  0  0
 10 11  1  0  0  0  0
 10 30  1  0  0  0  0
 11 18  1  0  0  0  0
 11 12  1  0  0  0  0
 11 31  1  0  0  0  0
 12 13  1  0  0  0  0
 12 32  1  0  0  0  0
 12 33  1  0  0  0  0
 13 14  1  0  0  0  0
 13 34  1  0  0  0  0
 13 35  1  0  0  0  0
 14 15  1  0  0  0  0
 14 36  1  0  0  0  0
 14 37  1  0  0  0  0
 15 16  1  0  0  0  0
 15 38  1  0  0  0  0
 15 39  1  0  0  0  0
 16 17  1  0  0  0  0
 16 40  1  0  0  0  0
 16 41  1  0  0  0  0
 17 18  1  0  0  0  0
 17 42  1  0  0  0  0
 17 43  1  0  0  0  0
 18 44  1  0  0  0  0
 18 45  1  0  0  0  0
 19 20  2  0  0  0  0
 19 46  1  0  0  0  0
 20 21  1  0  0  0  0
 20 47  1  0  0  0  0
 21 22  2  0  0  0  0
M  END
> <s_m_source_file>
AV-unprocessed.smi

> <i_m_source_file_index>
327

> <i_lp_mmshare_version>
43012

> <i_f3d_flags>
0

> <s_epik_input>
W0NIM11PW0NIMl1bQ0gyXW4xbmMoW2NIXVtjSF1jMT1PKUMoPU8pW05IXVtDSF0yW0NIMl1bQ0gyXVtDSDJdW0NIMl1bQ0gyXVtDSDJdW0NIMl0y

> <s_epik_cmdline>
J2VwaWtfcHl0aG9uJywgJy1waCcsICc3LjAnLCAnLXRuJywgJzgnLCAnLW1hJywgJzIwMCcsICctbWV0YWxfYmluZGluZycsICctaW1hZScsICc8aW5maWxlLm1hZT4nLCAnLW9tYWUnLCAnPG91dGZpbGUubWFlPic=

> <r_lp_tautomer_probability>
1

> <r_epik_Ionization_Penalty>
5.81787e-07

> <r_epik_Ionization_Penalty_Charging>
6.75108e-09

> <r_epik_Ionization_Penalty_Neutral>
5.75036e-07

> <r_epik_State_Penalty>
-0

> <r_epik_Charging_Adjusted_Penalty>
6.75108e-09

> <i_epik_Tot_Q>
0

> <i_epik_Tot_abs_Q>
0

> <r_epik_Metal_State_Penalty>
-0

> <b_epik_Metal_Only>
0

> <s_lp_Force_Field>
OPLS_2005

> <r_lp_Energy>
41.0284

> <b_lp_Chiralities_Consistent>
1

> <s_lp_Variant>
AV-unprocessed.smi:327-1

> <Gold.Version>
5.8.1

> <Gold.Id.Protein>
6NUR|6NUR_protein|mol2

> <Gold.PLP.Fitness>
46.1019

> <Gold.PLP.PLP>
-44.6185

> <Gold.PLP.part.hbond>
-1.0000

> <Gold.PLP.part.metal>
0.0000

> <Gold.PLP.part.buried>
-5.7727

> <Gold.PLP.part.nonpolar>
-38.9811

> <Gold.PLP.part.repulsive>
1.4747

> <Gold.PLP.ligand.clash>
0.0000

> <Gold.PLP.ligand.torsion>
0.7832

> <Gold.PLP.Chemscore.Hbond>
1.0000

> <Gold.PLP.Chemscore.CHOScore>
0.0000

> <Gold.PLP.Chemscore.Metal>
0.0000

> <Gold.Chemscore.Hbonds>
donor molecule, donor type, donor heavy atom, donor atom, acceptor molecule, acceptor atom, score
      P1  H  7997  8009       L1     9  0.63

> <Gold.PLP.Chemscore.Internal.Correction>
0.0498

> <Gold.Rescore>
     Score         DG    S(hbond)    S(metal)    S(lipo)     H(rot)  DE(clash)    DE(int)     intcor
     17.52     -18.97       0.99        0.00     120.47       1.53       0.76       0.69       ----

> <Gold.Chemscore.Fitness>
17.5152

> <Gold.Chemscore.DG>
-18.9680

> <Gold.Chemscore.ZeroCoef>
-5.4800

> <Gold.Chemscore.Hbond>
0.9896

> <Gold.Chemscore.Metal>
0.0000

> <Gold.Chemscore.Lipo>
120.4705

> <Gold.Chemscore.Internal_Hbond>
0.0000

> <Gold.Chemscore.DEClash>
0.7608

> <Gold.Chemscore.DEInternal>
0.6920

> <Gold.Chemscore.Rot>
1.5283

> <Gold.Chemscore.Internal.Correction>
   9.000000E+99

> <Gold.Chemscore.Hbonds>
donor molecule, donor type, donor heavy atom, donor atom, acceptor molecule, acceptor atom, score
      P1  H  7997  8009       L1     9  0.63

> <Gold.Chemscore.Hbond.Weighted>
-3.3054

> <Gold.Chemscore.Metal.Weighted>
-0.0000

> <Gold.Chemscore.Lipo.Weighted>
-14.0950

> <Gold.Chemscore.Internal_Hbond.Weighted>
0.0000

> <Gold.Chemscore.DEClash.Weighted>
0.7608

> <Gold.Chemscore.DEInternal.Weighted>
0.6920

> <Gold.Chemscore.Rot.Weighted>
3.9124

> <Gold.Chemscore.Internal.Correction.Weighted>
   9.000000E+99

> <Gold.Protein.RotatedTorsions>
[ 6907 6896 6895 6894 ] final   30.48 input  -60.11 | X-H torsion
[ 7974 7965 7964 7962 ] final -127.89 input  175.53 | X-H torsion
[ 8008 7997 7996 7995 ] final  163.63 input   59.86 | X-H torsion
[ 10167 10162 10161 10158 ] final -115.46 input  -65.29 | X-H torsion
[ 10718 10713 10712 10709 ] final  -60.27 input   66.30 | X-H torsion
[ 10763 10752 10751 10750 ] final   29.40 input  -60.55 | X-H torsion
[ 11005 11000 10999 10996 ] final  176.15 input  -57.11 | X-H torsion

> <Gold.Protein.ActiveResidues>
 VAL166  LYS551  ARG553  GLY616  TRP617  ASP618  TYR619  PRO620  LYS621  CYS622 
 ASP623  PHE694  ASN695  SER759  ASP760  ASP761  ALA762  ILE779  LEU786  VAL792 
 PHE793  MET794  SER795  GLU796  ALA797  LYS798  CYS799  TRP800  GLU811  SER814 

> <Gold.Protein.RotatedAtoms>
  152.0466  134.9679  160.0574 H   0  0  0  0  0  0  0  0  0  0  0  0  # atno 6907 bound_to 6896
  152.1097  133.4289  159.4633 H   0  0  0  0  0  0  0  0  0  0  0  0  # atno 6908 bound_to 6896
  150.6843  134.2582  159.4582 H   0  0  0  0  0  0  0  0  0  0  0  0  # atno 6909 bound_to 6896
  144.9726  140.7560  143.4661 H   0  0  0  0  0  0  0  0  0  0  0  0  # atno 7974 bound_to 7965
  156.1942  140.1718  156.8031 H   0  0  0  0  0  0  0  0  0  0  0  0  # atno 8008 bound_to 7997
  154.5509  140.0718  156.8697 H   0  0  0  0  0  0  0  0  0  0  0  0  # atno 8009 bound_to 7997
  155.3031  140.3363  155.4249 H   0  0  0  0  0  0  0  0  0  0  0  0  # atno 8010 bound_to 7997
  140.0899  143.4710  152.1876 H   0  0  0  0  0  0  0  0  0  0  0  0  # atno 10167 bound_to 10162
  156.1002  130.4187  150.0831 H   0  0  0  0  0  0  0  0  0  0  0  0  # atno 10718 bound_to 10713
  153.0432  135.6490  154.0885 H   0  0  0  0  0  0  0  0  0  0  0  0  # atno 10763 bound_to 10752
  154.0588  135.2889  155.3330 H   0  0  0  0  0  0  0  0  0  0  0  0  # atno 10764 bound_to 10752
  154.6671  135.5370  153.8156 H   0  0  0  0  0  0  0  0  0  0  0  0  # atno 10765 bound_to 10752
  140.3700  134.7038  157.4386 H   0  0  0  0  0  0  0  0  0  0  0  0  # atno 11005 bound_to 11000
  145.2537  139.2021  143.4929 LP  0  0  0  0  0  0  0  0  0  0  0  0  # atno 17320 bound_to 7965
  146.3386  140.2455  142.8597 LP  0  0  0  0  0  0  0  0  0  0  0  0  # atno 17321 bound_to 7965
  139.5731  144.7473  151.3838 LP  0  0  0  0  0  0  0  0  0  0  0  0  # atno 17342 bound_to 10162
  140.7034  143.7575  150.7441 LP  0  0  0  0  0  0  0  0  0  0  0  0  # atno 17343 bound_to 10162
  156.8820  130.9560  151.3598 LP  0  0  0  0  0  0  0  0  0  0  0  0  # atno 17370 bound_to 10713
  157.6171  130.8626  149.9046 LP  0  0  0  0  0  0  0  0  0  0  0  0  # atno 17371 bound_to 10713
  140.0559  134.6064  155.8806 LP  0  0  0  0  0  0  0  0  0  0  0  0  # atno 17394 bound_to 11000
  141.1957  133.6588  156.5658 LP  0  0  0  0  0  0  0  0  0  0  0  0  # atno 17395 bound_to 11000

$$$$
