AV-unprocessed.smi:1648|AV-procd|sdf|6629|dock1
  -GOLD-   22720 7323D 1   1.00000     0.00000
 Structure written by MMmdl.
 42 42  0  0  0  0  0  0  0  0  2 V2000
  150.4987  138.0937  154.8187 C   0  0  0  0  0  0  0  0  0  0  0  0
  149.0230  137.7948  155.0898 C   0  0  0  0  0  0  0  0  0  0  0  0
  148.4860  138.2639  156.0905 O   0  0  0  0  0  0  0  0  0  0  0  0
  148.3392  137.0199  154.2299 N   0  0  0  0  0  0  0  0  0  0  0  0
  146.9312  136.6222  154.3144 C   0  0  2  0  0  0  0  0  0  0  0  0
  146.8453  135.0903  154.1746 C   0  0  0  0  0  0  0  0  0  0  0  0
  146.3312  134.4074  155.0620 O   0  0  0  0  0  0  0  0  0  0  0  0
  147.3766  134.5647  153.0595 N   0  0  0  0  0  0  0  0  0  0  0  0
  147.4214  133.1418  152.7378 C   0  0  1  0  0  0  0  0  0  0  0  0
  148.4234  132.4437  153.6710 C   0  0  0  0  0  0  0  0  0  0  0  0
  146.0011  132.5393  152.8098 C   0  0  0  0  0  0  0  0  0  0  0  0
  145.2635  132.6558  151.5489 N   0  0  0  0  0  0  0  0  0  0  0  0
  145.6221  132.1591  150.3218 C   0  0  0  0  0  0  0  0  0  0  0  0
  144.6218  132.5092  149.4515 C   0  0  0  0  0  0  0  0  0  0  0  0
  143.6941  133.1998  150.1844 N   0  3  0  0  0  0  0  0  0  0  0  0
  144.0852  133.2862  151.4600 C   0  0  0  0  0  0  0  0  0  0  0  0
  146.1490  137.3026  153.1517 C   0  0  0  0  0  0  0  0  0  0  0  0
  146.5726  138.7723  152.9592 C   0  0  0  0  0  0  0  0  0  0  0  0
  144.6174  137.2403  153.3327 C   0  0  0  0  0  0  0  0  0  0  0  0
  151.0873  137.1762  154.8354 H   0  0  0  0  0  0  0  0  0  0  0  0
  150.9004  138.7622  155.5810 H   0  0  0  0  0  0  0  0  0  0  0  0
  150.6274  138.5773  153.8502 H   0  0  0  0  0  0  0  0  0  0  0  0
  148.8540  136.6494  153.4441 H   0  0  0  0  0  0  0  0  0  0  0  0
  146.5011  136.9392  155.2660 H   0  0  0  0  0  0  0  0  0  0  0  0
  147.7796  135.1984  152.3842 H   0  0  0  0  0  0  0  0  0  0  0  0
  147.7966  133.0303  151.7186 H   0  0  0  0  0  0  0  0  0  0  0  0
  148.5477  131.3926  153.4107 H   0  0  0  0  0  0  0  0  0  0  0  0
  148.0994  132.4941  154.7110 H   0  0  0  0  0  0  0  0  0  0  0  0
  149.4073  132.9097  153.6063 H   0  0  0  0  0  0  0  0  0  0  0  0
  146.0468  131.4817  153.0745 H   0  0  0  0  0  0  0  0  0  0  0  0
  145.4087  133.0318  153.5824 H   0  0  0  0  0  0  0  0  0  0  0  0
  146.5386  131.6093  150.1624 H   0  0  0  0  0  0  0  0  0  0  0  0
  144.5030  132.3216  148.3942 H   0  0  0  0  0  0  0  0  0  0  0  0
  143.5545  133.7704  152.2606 H   0  0  0  0  0  0  0  0  0  0  0  0
  146.3854  136.7799  152.2229 H   0  0  0  0  0  0  0  0  0  0  0  0
  146.3923  139.3563  153.8622 H   0  0  0  0  0  0  0  0  0  0  0  0
  146.0142  139.2384  152.1468 H   0  0  0  0  0  0  0  0  0  0  0  0
  147.6296  138.8650  152.7089 H   0  0  0  0  0  0  0  0  0  0  0  0
  144.3124  137.7022  154.2722 H   0  0  0  0  0  0  0  0  0  0  0  0
  144.2413  136.2173  153.3258 H   0  0  0  0  0  0  0  0  0  0  0  0
  144.1063  137.7660  152.5256 H   0  0  0  0  0  0  0  0  0  0  0  0
  142.8341  133.5877  149.8167 H   0  0  0  0  0  0  0  0  0  0  0  0
  1  2  1  0  0  0  0
  1 20  1  0  0  0  0
  1 21  1  0  0  0  0
  1 22  1  0  0  0  0
  2  3  2  0  0  0  0
  2  4  1  0  0  0  0
  4  5  1  0  0  0  0
  4 23  1  0  0  0  0
  5  6  1  0  0  0  0
  5 17  1  0  0  0  0
  5 24  1  0  0  0  0
  6  7  2  0  0  0  0
  6  8  1  0  0  0  0
  8  9  1  0  0  0  0
  8 25  1  0  0  0  0
  9 10  1  0  0  0  0
  9 11  1  0  0  0  0
  9 26  1  0  0  0  0
 10 27  1  0  0  0  0
 10 28  1  0  0  0  0
 10 29  1  0  0  0  0
 11 12  1  0  0  0  0
 11 30  1  0  0  0  0
 11 31  1  0  0  0  0
 12 16  1  0  0  0  0
 12 13  1  0  0  0  0
 13 14  2  0  0  0  0
 13 32  1  0  0  0  0
 14 15  1  0  0  0  0
 14 33  1  0  0  0  0
 15 16  2  0  0  0  0
 15 42  1  0  0  0  0
 16 34  1  0  0  0  0
 17 18  1  0  0  0  0
 17 19  1  0  0  0  0
 17 35  1  0  0  0  0
 18 36  1  0  0  0  0
 18 37  1  0  0  0  0
 18 38  1  0  0  0  0
 19 39  1  0  0  0  0
 19 40  1  0  0  0  0
 19 41  1  0  0  0  0
M  CHG  1  15   1
M  END
> <s_m_source_file>
AV-unprocessed.smi

> <i_m_source_file_index>
1648

> <i_lp_mmshare_version>
43012

> <i_f3d_flags>
0

> <s_epik_input>
W0NIM11DKD1PKVtOSF1bQ0BASF0oW0NIXShbQ0gzXSlbQ0gzXSlDKD1PKVtOSF1bQ0BIXShbQ0gzXSlbQ0gyXW4xW2NIXVtjSF1uW2NIXTE=

> <s_epik_cmdline>
J2VwaWtfcHl0aG9uJywgJy1waCcsICc3LjAnLCAnLXRuJywgJzgnLCAnLW1hJywgJzIwMCcsICctbWV0YWxfYmluZGluZycsICctaW1hZScsICc8aW5maWxlLm1hZT4nLCAnLW9tYWUnLCAnPG91dGZpbGUubWFlPic=

> <r_lp_tautomer_probability>
1

> <r_epik_Ionization_Penalty>
0.251562

> <r_epik_Ionization_Penalty_Charging>
0

> <r_epik_Ionization_Penalty_Neutral>
0.251562

> <r_epik_State_Penalty>
0.242926

> <r_epik_Charging_Adjusted_Penalty>
0.242926

> <i_epik_Tot_Q>
1

> <i_epik_Tot_abs_Q>
1

> <r_epik_Metal_State_Penalty>
0.53388

> <b_epik_Metal_Only>
0

> <s_lp_Force_Field>
OPLS_2005

> <r_lp_Energy>
11.8238

> <b_lp_Chiralities_Consistent>
1

> <s_lp_Variant>
AV-unprocessed.smi:1648-3

> <Gold.Version>
5.8.1

> <Gold.Id.Protein>
6NUR|6NUR_protein|mol2

> <Gold.PLP.Fitness>
41.9651

> <Gold.PLP.PLP>
-28.2904

> <Gold.PLP.part.hbond>
-2.6104

> <Gold.PLP.part.metal>
0.0000

> <Gold.PLP.part.buried>
-3.0319

> <Gold.PLP.part.nonpolar>
-22.6903

> <Gold.PLP.part.repulsive>
0.0990

> <Gold.PLP.ligand.clash>
0.0000

> <Gold.PLP.ligand.torsion>
0.7517

> <Gold.PLP.Chemscore.Hbond>
3.9920

> <Gold.PLP.Chemscore.CHOScore>
0.9879

> <Gold.PLP.Chemscore.Metal>
0.0000

> <Gold.Chemscore.Hbonds>
donor molecule, donor type, donor heavy atom, donor atom, acceptor molecule, acceptor atom, score
      L1  H     4    23       P1  7948  1.00
      L1  H     8    25       P1  7948  1.00
      L1  H    15    42       P1 10186  2.00
      L1  C    13    32       P1 10747  0.97

> <Gold.PLP.Chemscore.Internal.Correction>
0.2384

> <Gold.Rescore>
     Score         DG    S(hbond)    S(metal)    S(lipo)     H(rot)  DE(clash)    DE(int)     intcor
     13.49     -15.20       2.87        0.00      58.37       2.61       0.00       1.71       ----

> <Gold.Chemscore.Fitness>
13.4852

> <Gold.Chemscore.DG>
-15.1991

> <Gold.Chemscore.ZeroCoef>
-5.4800

> <Gold.Chemscore.Hbond>
2.8685

> <Gold.Chemscore.Metal>
0.0000

> <Gold.Chemscore.Lipo>
58.3662

> <Gold.Chemscore.Internal_Hbond>
0.0000

> <Gold.Chemscore.DEClash>
0.0009

> <Gold.Chemscore.DEInternal>
1.7130

> <Gold.Chemscore.Rot>
2.6135

> <Gold.Chemscore.Internal.Correction>
   9.000000E+99

> <Gold.Chemscore.Hbonds>
donor molecule, donor type, donor heavy atom, donor atom, acceptor molecule, acceptor atom, score
      L1  H     4    23       P1  7948  0.96
      L1  H     8    25       P1  7948  0.95
      L1  H    15    42       P1 10186  0.93

> <Gold.Chemscore.Hbond.Weighted>
-9.5809

> <Gold.Chemscore.Metal.Weighted>
-0.0000

> <Gold.Chemscore.Lipo.Weighted>
-6.8288

> <Gold.Chemscore.Internal_Hbond.Weighted>
0.0000

> <Gold.Chemscore.DEClash.Weighted>
0.0009

> <Gold.Chemscore.DEInternal.Weighted>
1.7130

> <Gold.Chemscore.Rot.Weighted>
6.6906

> <Gold.Chemscore.Internal.Correction.Weighted>
   9.000000E+99

> <Gold.Protein.RotatedTorsions>
[ 6907 6896 6895 6894 ] final -115.61 input  -60.11 | X-H torsion
[ 7974 7965 7964 7962 ] final   27.94 input  175.53 | X-H torsion
[ 8008 7997 7996 7995 ] final -124.96 input   59.86 | X-H torsion
[ 10167 10162 10161 10158 ] final   32.25 input  -65.29 | X-H torsion
[ 10718 10713 10712 10709 ] final   53.25 input   66.30 | X-H torsion
[ 10763 10752 10751 10750 ] final  166.25 input  -60.55 | X-H torsion
[ 11005 11000 10999 10996 ] final -178.12 input  -57.11 | X-H torsion

> <Gold.Protein.ActiveResidues>
 VAL166  LYS551  ARG553  GLY616  TRP617  ASP618  TYR619  PRO620  LYS621  CYS622 
 ASP623  PHE694  ASN695  SER759  ASP760  ASP761  ALA762  ILE779  LEU786  VAL792 
 PHE793  MET794  SER795  GLU796  ALA797  LYS798  CYS799  TRP800  GLU811  SER814 

> <Gold.Protein.RotatedAtoms>
  150.7991  133.8635  159.3238 H   0  0  0  0  0  0  0  0  0  0  0  0  # atno 6907 bound_to 6896
  151.6452  135.1006  160.0159 H   0  0  0  0  0  0  0  0  0  0  0  0  # atno 6908 bound_to 6896
  152.4076  133.6874  159.6405 H   0  0  0  0  0  0  0  0  0  0  0  0  # atno 6909 bound_to 6896
  146.1756  139.7123  142.8936 H   0  0  0  0  0  0  0  0  0  0  0  0  # atno 7974 bound_to 7965
  155.2054  140.0417  157.2924 H   0  0  0  0  0  0  0  0  0  0  0  0  # atno 8008 bound_to 7997
  154.6047  140.2461  155.7718 H   0  0  0  0  0  0  0  0  0  0  0  0  # atno 8009 bound_to 7997
  156.2342  140.2927  156.0279 H   0  0  0  0  0  0  0  0  0  0  0  0  # atno 8010 bound_to 7997
  140.4515  144.1041  150.6193 H   0  0  0  0  0  0  0  0  0  0  0  0  # atno 10167 bound_to 10162
  157.5150  130.8526  149.8483 H   0  0  0  0  0  0  0  0  0  0  0  0  # atno 10718 bound_to 10713
  154.3362  135.2754  155.2446 H   0  0  0  0  0  0  0  0  0  0  0  0  # atno 10763 bound_to 10752
  154.4736  135.5876  153.6343 H   0  0  0  0  0  0  0  0  0  0  0  0  # atno 10764 bound_to 10752
  152.9861  135.6094  154.3559 H   0  0  0  0  0  0  0  0  0  0  0  0  # atno 10765 bound_to 10752
  140.4333  134.6499  157.4722 H   0  0  0  0  0  0  0  0  0  0  0  0  # atno 11005 bound_to 11000
  145.4219  141.0407  143.2959 LP  0  0  0  0  0  0  0  0  0  0  0  0  # atno 17320 bound_to 7965
  144.8232  139.5756  143.6977 LP  0  0  0  0  0  0  0  0  0  0  0  0  # atno 17321 bound_to 7965
  140.4201  143.2615  151.9725 LP  0  0  0  0  0  0  0  0  0  0  0  0  # atno 17342 bound_to 10162
  139.4797  144.5838  151.7888 LP  0  0  0  0  0  0  0  0  0  0  0  0  # atno 17343 bound_to 10162
  156.0314  130.3763  150.1677 LP  0  0  0  0  0  0  0  0  0  0  0  0  # atno 17370 bound_to 10713
  156.9866  130.9880  151.3425 LP  0  0  0  0  0  0  0  0  0  0  0  0  # atno 17371 bound_to 10713
  140.0119  134.6677  155.9367 LP  0  0  0  0  0  0  0  0  0  0  0  0  # atno 17394 bound_to 11000
  141.1736  133.6539  156.4745 LP  0  0  0  0  0  0  0  0  0  0  0  0  # atno 17395 bound_to 11000

$$$$
