AV-unprocessed.smi:2616|AV-procd|sdf|10216|dock7
  -GOLD-   2272014223D 1   1.00000     0.00000
 Structure written by MMmdl.
 26 27  0  0  0  0  0  0  0  0  2 V2000
  151.0672  139.1211  154.4888 O   0  0  0  0  0  0  0  0  0  0  0  0
  151.7441  138.5788  155.3888 C   0  0  0  0  0  0  0  0  0  0  0  0
  152.1345  137.3946  155.2680 O   0  5  0  0  0  0  0  0  0  0  0  0
  152.1102  139.3334  156.6526 C   0  0  0  0  0  0  0  0  0  0  0  0
  152.9355  138.6555  157.4878 N   0  0  0  0  0  0  0  0  0  0  0  0
  153.3286  139.2231  158.6405 C   0  0  0  0  0  0  0  0  0  0  0  0
  152.9268  140.5061  159.0399 C   0  0  0  0  0  0  0  0  0  0  0  0
  153.4908  141.1463  160.5452 Cl  0  0  0  0  0  0  0  0  0  0  0  0
  152.0675  141.2402  158.1931 C   0  0  0  0  0  0  0  0  0  0  0  0
  151.6744  142.5239  158.6100 N   0  0  0  0  0  0  0  0  0  0  0  0
  152.5149  143.6408  158.2041 C   0  0  0  0  0  0  0  0  0  0  0  0
  152.1745  144.8736  159.0592 C   0  0  0  0  0  0  0  0  0  0  0  0
  150.7769  145.1456  158.9779 O   0  0  0  0  0  0  0  0  0  0  0  0
  149.9869  144.0664  159.4734 C   0  0  0  0  0  0  0  0  0  0  0  0
  150.2463  142.8039  158.6334 C   0  0  0  0  0  0  0  0  0  0  0  0
  151.6428  140.6495  156.9682 C   0  0  0  0  0  0  0  0  0  0  0  0
  150.5869  141.5435  155.9160 Cl  0  0  0  0  0  0  0  0  0  0  0  0
  153.9848  138.6332  159.2635 H   0  0  0  0  0  0  0  0  0  0  0  0
  153.5675  143.3795  158.3191 H   0  0  0  0  0  0  0  0  0  0  0  0
  152.3509  143.8706  157.1518 H   0  0  0  0  0  0  0  0  0  0  0  0
  152.4629  144.7157  160.0996 H   0  0  0  0  0  0  0  0  0  0  0  0
  152.7283  145.7425  158.7037 H   0  0  0  0  0  0  0  0  0  0  0  0
  150.2186  143.8874  160.5246 H   0  0  0  0  0  0  0  0  0  0  0  0
  148.9336  144.3419  159.4222 H   0  0  0  0  0  0  0  0  0  0  0  0
  149.8780  142.9581  157.6198 H   0  0  0  0  0  0  0  0  0  0  0  0
  149.7046  141.9542  159.0505 H   0  0  0  0  0  0  0  0  0  0  0  0
  1  2  2  0  0  0  0
  2  3  1  0  0  0  0
  2  4  1  0  0  0  0
  4 16  1  0  0  0  0
  4  5  2  0  0  0  0
  5  6  1  0  0  0  0
  6  7  2  0  0  0  0
  6 18  1  0  0  0  0
  7  8  1  0  0  0  0
  7  9  1  0  0  0  0
  9 10  1  0  0  0  0
  9 16  2  0  0  0  0
 10 15  1  0  0  0  0
 10 11  1  0  0  0  0
 11 12  1  0  0  0  0
 11 19  1  0  0  0  0
 11 20  1  0  0  0  0
 12 13  1  0  0  0  0
 12 21  1  0  0  0  0
 12 22  1  0  0  0  0
 13 14  1  0  0  0  0
 14 15  1  0  0  0  0
 14 23  1  0  0  0  0
 14 24  1  0  0  0  0
 15 25  1  0  0  0  0
 15 26  1  0  0  0  0
 16 17  1  0  0  0  0
M  CHG  1   3  -1
M  END
> <s_m_source_file>
AV-unprocessed.smi

> <i_m_source_file_index>
2616

> <i_lp_mmshare_version>
43012

> <i_f3d_flags>
0

> <s_epik_input>
Tz1DKFtPSF0pYzFuW2NIXWMoQ2wpYyhjMUNsKU4yW0NIMl1bQ0gyXU9bQ0gyXVtDSDJdMg==

> <s_epik_cmdline>
J2VwaWtfcHl0aG9uJywgJy1waCcsICc3LjAnLCAnLXRuJywgJzgnLCAnLW1hJywgJzIwMCcsICctbWV0YWxfYmluZGluZycsICctaW1hZScsICc8aW5maWxlLm1hZT4nLCAnLW9tYWUnLCAnPG91dGZpbGUubWFlPic=

> <r_epik_Ionization_Penalty>
0.00232884

> <r_epik_Ionization_Penalty_Charging>
7.03121e-06

> <r_epik_Ionization_Penalty_Neutral>
0.00232181

> <r_epik_State_Penalty>
0.00160212

> <r_epik_Charging_Adjusted_Penalty>
0.00160915

> <i_epik_Tot_Q>
-1

> <i_epik_Tot_abs_Q>
1

> <r_epik_Metal_State_Penalty>
-0

> <b_epik_Metal_Only>
0

> <s_lp_Force_Field>
OPLS_2005

> <r_lp_Energy>
33.645

> <b_lp_Chiralities_Consistent>
1

> <s_lp_Variant>
AV-unprocessed.smi:2616-1

> <Gold.Version>
5.8.1

> <Gold.Id.Protein>
6NUR|6NUR_protein|mol2

> <Gold.PLP.Fitness>
38.6437

> <Gold.PLP.PLP>
-31.7771

> <Gold.PLP.part.hbond>
-2.5995

> <Gold.PLP.part.metal>
0.0000

> <Gold.PLP.part.buried>
-5.0442

> <Gold.PLP.part.nonpolar>
-24.5998

> <Gold.PLP.part.repulsive>
0.3738

> <Gold.PLP.ligand.clash>
0.0000

> <Gold.PLP.ligand.torsion>
0.4376

> <Gold.PLP.Chemscore.Hbond>
2.4227

> <Gold.PLP.Chemscore.CHOScore>
0.0000

> <Gold.PLP.Chemscore.Metal>
0.0000

> <Gold.Chemscore.Hbonds>
donor molecule, donor type, donor heavy atom, donor atom, acceptor molecule, acceptor atom, score
      P1  H  7989  7998       L1     1  0.88
      P1  H 10752 10763       L1     3  1.43

> <Gold.PLP.Chemscore.Internal.Correction>
0.4736

> <Gold.Rescore>
     Score         DG    S(hbond)    S(metal)    S(lipo)     H(rot)  DE(clash)    DE(int)     intcor
     16.74     -18.63       1.63        0.00      87.74       1.00       0.22       1.67       ----

> <Gold.Chemscore.Fitness>
16.7370

> <Gold.Chemscore.DG>
-18.6265

> <Gold.Chemscore.ZeroCoef>
-5.4800

> <Gold.Chemscore.Hbond>
1.6289

> <Gold.Chemscore.Metal>
0.0000

> <Gold.Chemscore.Lipo>
87.7444

> <Gold.Chemscore.Internal_Hbond>
0.0000

> <Gold.Chemscore.DEClash>
0.2213

> <Gold.Chemscore.DEInternal>
1.6682

> <Gold.Chemscore.Rot>
1.0000

> <Gold.Chemscore.Internal.Correction>
   9.000000E+99

> <Gold.Chemscore.Hbonds>
donor molecule, donor type, donor heavy atom, donor atom, acceptor molecule, acceptor atom, score
      P1  H  7989  7998       L1     1  0.85
      P1  H 10752 10763       L1     3  0.69

> <Gold.Chemscore.Hbond.Weighted>
-5.4404

> <Gold.Chemscore.Metal.Weighted>
-0.0000

> <Gold.Chemscore.Lipo.Weighted>
-10.2661

> <Gold.Chemscore.Internal_Hbond.Weighted>
0.0000

> <Gold.Chemscore.DEClash.Weighted>
0.2213

> <Gold.Chemscore.DEInternal.Weighted>
1.6682

> <Gold.Chemscore.Rot.Weighted>
2.5600

> <Gold.Chemscore.Internal.Correction.Weighted>
   9.000000E+99

> <Gold.Protein.RotatedTorsions>
[ 6907 6896 6895 6894 ] final   20.76 input  -60.11 | X-H torsion
[ 7974 7965 7964 7962 ] final  146.75 input  175.53 | X-H torsion
[ 8008 7997 7996 7995 ] final  -79.30 input   59.86 | X-H torsion
[ 10167 10162 10161 10158 ] final  -28.33 input  -65.29 | X-H torsion
[ 10718 10713 10712 10709 ] final   -4.56 input   66.30 | X-H torsion
[ 10763 10752 10751 10750 ] final   61.67 input  -60.55 | X-H torsion
[ 11005 11000 10999 10996 ] final  134.72 input  -57.11 | X-H torsion

> <Gold.Protein.ActiveResidues>
 VAL166  LYS551  ARG553  GLY616  TRP617  ASP618  TYR619  PRO620  LYS621  CYS622 
 ASP623  PHE694  ASN695  SER759  ASP760  ASP761  ALA762  ILE779  LEU786  VAL792 
 PHE793  MET794  SER795  GLU796  ALA797  LYS798  CYS799  TRP800  GLU811  SER814 

> <Gold.Protein.RotatedAtoms>
  151.9013  135.0377  160.0506 H   0  0  0  0  0  0  0  0  0  0  0  0  # atno 6907 bound_to 6896
  152.2356  133.5089  159.5249 H   0  0  0  0  0  0  0  0  0  0  0  0  # atno 6908 bound_to 6896
  150.7038  134.1074  159.4030 H   0  0  0  0  0  0  0  0  0  0  0  0  # atno 6909 bound_to 6896
  144.8646  139.5943  143.5915 H   0  0  0  0  0  0  0  0  0  0  0  0  # atno 7974 bound_to 7965
  154.5772  140.0680  156.9051 H   0  0  0  0  0  0  0  0  0  0  0  0  # atno 8008 bound_to 7997
  155.2528  140.3353  155.4262 H   0  0  0  0  0  0  0  0  0  0  0  0  # atno 8009 bound_to 7997
  156.2162  140.1779  156.7567 H   0  0  0  0  0  0  0  0  0  0  0  0  # atno 8010 bound_to 7997
  140.7270  143.4019  151.1250 H   0  0  0  0  0  0  0  0  0  0  0  0  # atno 10167 bound_to 10162
  156.7594  130.5265  149.5788 H   0  0  0  0  0  0  0  0  0  0  0  0  # atno 10718 bound_to 10713
  152.9958  135.5492  154.6071 H   0  0  0  0  0  0  0  0  0  0  0  0  # atno 10763 bound_to 10752
  154.5400  135.2819  155.1106 H   0  0  0  0  0  0  0  0  0  0  0  0  # atno 10764 bound_to 10752
  154.2388  135.6420  153.5252 H   0  0  0  0  0  0  0  0  0  0  0  0  # atno 10765 bound_to 10752
  139.9933  134.9507  156.9907 H   0  0  0  0  0  0  0  0  0  0  0  0  # atno 11005 bound_to 11000
  146.2886  139.7074  142.9177 LP  0  0  0  0  0  0  0  0  0  0  0  0  # atno 17320 bound_to 7965
  145.4246  141.0410  143.2944 LP  0  0  0  0  0  0  0  0  0  0  0  0  # atno 17321 bound_to 7965
  139.7640  143.8593  152.3106 LP  0  0  0  0  0  0  0  0  0  0  0  0  # atno 17342 bound_to 10162
  139.8488  144.7174  150.9239 LP  0  0  0  0  0  0  0  0  0  0  0  0  # atno 17343 bound_to 10162
  156.1349  130.6204  151.0386 LP  0  0  0  0  0  0  0  0  0  0  0  0  # atno 17370 bound_to 10713
  157.6741  131.0854  150.7538 LP  0  0  0  0  0  0  0  0  0  0  0  0  # atno 17371 bound_to 10713
  140.4866  134.1235  155.7225 LP  0  0  0  0  0  0  0  0  0  0  0  0  # atno 17394 bound_to 11000
  141.1584  133.8839  157.1915 LP  0  0  0  0  0  0  0  0  0  0  0  0  # atno 17395 bound_to 11000

$$$$
