AV-unprocessed.smi:72|AV-procd|sdf|698|dock5
  -GOLD-   2262017 13D 1   1.00000     0.00000
 Structure written by MMmdl.
 30 31  0  0  0  0  0  0  0  0  2 V2000
  144.4046  140.7581  155.2373 N   0  0  0  0  0  0  0  0  0  0  0  0
  145.7330  140.4222  155.0808 C   0  0  0  0  0  0  0  0  0  0  0  0
  146.1634  140.0777  153.8119 N   0  3  0  0  0  0  0  0  0  0  0  0
  147.4156  139.7236  153.4938 C   0  0  0  0  0  0  0  0  0  0  0  0
  148.3316  139.6915  154.4389 N   0  0  0  0  0  0  0  0  0  0  0  0
  149.7501  139.3028  154.1131 C   0  0  1  0  0  0  0  0  0  0  0  0
  150.5926  140.0984  154.8903 O   0  0  0  0  0  0  0  0  0  0  0  0
  151.6084  139.2918  155.4765 C   0  0  1  0  0  0  0  0  0  0  0  0
  152.2127  139.9753  156.7160 C   0  0  0  0  0  0  0  0  0  0  0  0
  153.2476  139.1815  157.2552 O   0  0  0  0  0  0  0  0  0  0  0  0
  150.9274  137.9326  155.6898 C   0  0  1  0  0  0  0  0  0  0  0  0
  150.1691  137.9270  156.8885 O   0  0  0  0  0  0  0  0  0  0  0  0
  150.0493  137.8265  154.4485 C   0  0  1  0  0  0  0  0  0  0  0  0
  148.9213  136.9898  154.6423 O   0  0  0  0  0  0  0  0  0  0  0  0
  147.9888  140.0385  155.7712 C   0  0  0  0  0  0  0  0  0  0  0  0
  148.8400  140.0325  156.6593 O   0  0  0  0  0  0  0  0  0  0  0  0
  146.6515  140.3902  156.0065 N   0  0  0  0  0  0  0  0  0  0  0  0
  149.9141  139.5449  153.0622 H   0  0  0  0  0  0  0  0  0  0  0  0
  152.3886  139.1729  154.7220 H   0  0  0  0  0  0  0  0  0  0  0  0
  151.6521  137.1192  155.7409 H   0  0  0  0  0  0  0  0  0  0  0  0
  150.6410  137.4264  153.6241 H   0  0  0  0  0  0  0  0  0  0  0  0
  144.0030  141.0226  156.1260 H   0  0  0  0  0  0  0  0  0  0  0  0
  143.7315  140.7703  154.4845 H   0  0  0  0  0  0  0  0  0  0  0  0
  147.6564  139.4688  152.4699 H   0  0  0  0  0  0  0  0  0  0  0  0
  152.6317  140.9426  156.4377 H   0  0  0  0  0  0  0  0  0  0  0  0
  151.4584  140.1656  157.4798 H   0  0  0  0  0  0  0  0  0  0  0  0
  152.8646  138.5331  157.8267 H   0  0  0  0  0  0  0  0  0  0  0  0
  150.3186  138.7460  157.3371 H   0  0  0  0  0  0  0  0  0  0  0  0
  148.6052  136.7140  153.7953 H   0  0  0  0  0  0  0  0  0  0  0  0
  145.4780  140.0959  153.0703 H   0  0  0  0  0  0  0  0  0  0  0  0
  1  2  1  0  0  0  0
  1 22  1  0  0  0  0
  1 23  1  0  0  0  0
  2 17  2  0  0  0  0
  2  3  1  0  0  0  0
  3  4  2  0  0  0  0
  3 30  1  0  0  0  0
  4  5  1  0  0  0  0
  4 24  1  0  0  0  0
  5  6  1  0  0  0  0
  5 15  1  0  0  0  0
  6 18  1  0  0  0  0
  6 13  1  0  0  0  0
  6  7  1  0  0  0  0
  7  8  1  0  0  0  0
  8 19  1  0  0  0  0
  8  9  1  0  0  0  0
  8 11  1  0  0  0  0
  9 10  1  0  0  0  0
  9 25  1  0  0  0  0
  9 26  1  0  0  0  0
 10 27  1  0  0  0  0
 11 20  1  0  0  0  0
 11 12  1  0  0  0  0
 11 13  1  0  0  0  0
 12 28  1  0  0  0  0
 13 21  1  0  0  0  0
 13 14  1  0  0  0  0
 14 29  1  0  0  0  0
 15 16  2  0  0  0  0
 15 17  1  0  0  0  0
M  CHG  1   3   1
M  END
> <s_m_source_file>
AV-unprocessed.smi

> <i_m_source_file_index>
72

> <i_lp_mmshare_version>
43012

> <i_f3d_flags>
0

> <s_epik_input>
W05IMl1jMW5bY0hdbihjKD1PKW4xKVtDQEBIXTJPW0NASF0oW0NIMl1bT0hdKVtDQEBIXShbT0hdKVtDQEhdMltPSF0=

> <s_epik_cmdline>
J2VwaWtfcHl0aG9uJywgJy1waCcsICc3LjAnLCAnLXRuJywgJzgnLCAnLW1hJywgJzIwMCcsICctbWV0YWxfYmluZGluZycsICctaW1hZScsICc8aW5maWxlLm1hZT4nLCAnLW9tYWUnLCAnPG91dGZpbGUubWFlPic=

> <r_lp_tautomer_probability>
4.77166e-05

> <r_epik_Ionization_Penalty>
0.104979

> <r_epik_Ionization_Penalty_Charging>
0.0999619

> <r_epik_Ionization_Penalty_Neutral>
0.00501745

> <r_epik_State_Penalty>
2.51541

> <r_epik_Charging_Adjusted_Penalty>
2.61537

> <i_epik_Tot_Q>
1

> <i_epik_Tot_abs_Q>
1

> <r_epik_Metal_State_Penalty>
3.53763

> <b_epik_Metal_Only>
0

> <s_epik_Chemistry_Notes>
This compound contains an acetal/aminal-like group ( X-CH(R)-Y where X, Y are N, S, or O) that may be acid/base labile, releasing an aldehyde.

> <s_lp_Force_Field>
OPLS_2005

> <r_lp_Energy>
38.8596

> <b_lp_Chiralities_Consistent>
1

> <s_lp_Variant>
AV-unprocessed.smi:72-36

> <Gold.Version>
5.8.1

> <Gold.Id.Protein>
6NUR|6NUR_protein|mol2

> <Gold.PLP.Fitness>
36.3064

> <Gold.PLP.PLP>
-17.7656

> <Gold.PLP.part.hbond>
-5.0000

> <Gold.PLP.part.metal>
0.0000

> <Gold.PLP.part.buried>
0.3810

> <Gold.PLP.part.nonpolar>
-13.5168

> <Gold.PLP.part.repulsive>
0.0925

> <Gold.PLP.ligand.clash>
0.3602

> <Gold.PLP.ligand.torsion>
0.6381

> <Gold.PLP.Chemscore.Hbond>
5.7173

> <Gold.PLP.Chemscore.CHOScore>
1.0000

> <Gold.PLP.Chemscore.Metal>
0.0000

> <Gold.Chemscore.Hbonds>
donor molecule, donor type, donor heavy atom, donor atom, acceptor molecule, acceptor atom, score
      L1  H     1    23       P1 10175  0.82
      L1  H     3    30       P1 10175  1.98
      L1  H    14    29       P1  7948  0.99
      P1  H  7989  7998       L1     7  0.86
      P1  H  7997  8010       L1    10  1.00
      L1  C     4    24       P1  7957  1.00

> <Gold.PLP.Chemscore.Internal.Correction>
0.0252

> <Gold.Rescore>
     Score         DG    S(hbond)    S(metal)    S(lipo)     H(rot)  DE(clash)    DE(int)     intcor
      5.99     -10.21       3.66        0.00      25.32       4.08       0.00       4.21       ----

> <Gold.Chemscore.Fitness>
5.9933

> <Gold.Chemscore.DG>
-10.2109

> <Gold.Chemscore.ZeroCoef>
-5.4800

> <Gold.Chemscore.Hbond>
3.6553

> <Gold.Chemscore.Metal>
0.0000

> <Gold.Chemscore.Lipo>
25.3228

> <Gold.Chemscore.Internal_Hbond>
0.0000

> <Gold.Chemscore.DEClash>
0.0030

> <Gold.Chemscore.DEInternal>
4.2146

> <Gold.Chemscore.Rot>
4.0783

> <Gold.Chemscore.Internal.Correction>
   9.000000E+99

> <Gold.Chemscore.Hbonds>
donor molecule, donor type, donor heavy atom, donor atom, acceptor molecule, acceptor atom, score
      L1  H     1    23       P1 10175  0.75
      L1  H     3    30       P1 10175  0.94
      L1  H    14    29       P1  7948  0.88
      P1  H  7989  7998       L1     7  0.04
      P1  H  7997  8010       L1    10  0.29

> <Gold.Chemscore.Hbond.Weighted>
-12.2086

> <Gold.Chemscore.Metal.Weighted>
-0.0000

> <Gold.Chemscore.Lipo.Weighted>
-2.9628

> <Gold.Chemscore.Internal_Hbond.Weighted>
0.0000

> <Gold.Chemscore.DEClash.Weighted>
0.0030

> <Gold.Chemscore.DEInternal.Weighted>
4.2146

> <Gold.Chemscore.Rot.Weighted>
10.4404

> <Gold.Chemscore.Internal.Correction.Weighted>
   9.000000E+99

> <Gold.Protein.RotatedTorsions>
[ 6907 6896 6895 6894 ] final  117.76 input  -60.11 | X-H torsion
[ 7974 7965 7964 7962 ] final    0.65 input  175.53 | X-H torsion
[ 8008 7997 7996 7995 ] final   43.85 input   59.86 | X-H torsion
[ 10167 10162 10161 10158 ] final  112.64 input  -65.29 | X-H torsion
[ 10718 10713 10712 10709 ] final   75.92 input   66.30 | X-H torsion
[ 10763 10752 10751 10750 ] final   26.75 input  -60.55 | X-H torsion
[ 11005 11000 10999 10996 ] final  -18.41 input  -57.11 | X-H torsion

> <Gold.Protein.ActiveResidues>
 VAL166  LYS551  ARG553  GLY616  TRP617  ASP618  TYR619  PRO620  LYS621  CYS622 
 ASP623  PHE694  ASN695  SER759  ASP760  ASP761  ALA762  ILE779  LEU786  VAL792 
 PHE793  MET794  SER795  GLU796  ALA797  LYS798  CYS799  TRP800  GLU811  SER814 

> <Gold.Protein.RotatedAtoms>
  152.4589  133.7781  159.6835 H   0  0  0  0  0  0  0  0  0  0  0  0  # atno 6907 bound_to 6896
  150.8526  133.7754  159.3026 H   0  0  0  0  0  0  0  0  0  0  0  0  # atno 6908 bound_to 6896
  151.5344  135.1071  159.9963 H   0  0  0  0  0  0  0  0  0  0  0  0  # atno 6909 bound_to 6896
  146.2436  140.1106  142.8344 H   0  0  0  0  0  0  0  0  0  0  0  0  # atno 7974 bound_to 7965
  155.3095  140.3390  155.4244 H   0  0  0  0  0  0  0  0  0  0  0  0  # atno 8008 bound_to 7997
  156.1962  140.1716  156.8031 H   0  0  0  0  0  0  0  0  0  0  0  0  # atno 8009 bound_to 7997
  154.5502  140.0707  156.8639 H   0  0  0  0  0  0  0  0  0  0  0  0  # atno 8010 bound_to 7997
  139.6521  144.7128  151.2028 H   0  0  0  0  0  0  0  0  0  0  0  0  # atno 10167 bound_to 10162
  157.6653  130.9749  150.1422 H   0  0  0  0  0  0  0  0  0  0  0  0  # atno 10718 bound_to 10713
  153.0602  135.6553  154.0482 H   0  0  0  0  0  0  0  0  0  0  0  0  # atno 10763 bound_to 10752
  154.0151  135.2925  155.3389 H   0  0  0  0  0  0  0  0  0  0  0  0  # atno 10764 bound_to 10752
  154.6936  135.5273  153.8495 H   0  0  0  0  0  0  0  0  0  0  0  0  # atno 10765 bound_to 10752
  140.8265  133.8028  155.9714 H   0  0  0  0  0  0  0  0  0  0  0  0  # atno 11005 bound_to 11000
  145.0490  140.9003  143.5007 LP  0  0  0  0  0  0  0  0  0  0  0  0  # atno 17320 bound_to 7965
  145.1201  139.2699  143.5593 LP  0  0  0  0  0  0  0  0  0  0  0  0  # atno 17321 bound_to 7965
  140.7542  143.6133  150.8584 LP  0  0  0  0  0  0  0  0  0  0  0  0  # atno 17342 bound_to 10162
  139.9782  143.5980  152.2951 LP  0  0  0  0  0  0  0  0  0  0  0  0  # atno 17343 bound_to 10162
  156.2242  130.3676  149.8520 LP  0  0  0  0  0  0  0  0  0  0  0  0  # atno 17370 bound_to 10713
  156.6364  130.8687  151.3505 LP  0  0  0  0  0  0  0  0  0  0  0  0  # atno 17371 bound_to 10713
  140.9043  134.2339  157.5023 LP  0  0  0  0  0  0  0  0  0  0  0  0  # atno 17394 bound_to 11000
  139.8706  134.9721  156.4761 LP  0  0  0  0  0  0  0  0  0  0  0  0  # atno 17395 bound_to 11000

$$$$
