AV-unprocessed.smi:1488|AV-procd|sdf|6024|dock8
  -GOLD-   22720 6123D 1   1.00000     0.00000
 Structure written by MMmdl.
 36 37  0  0  0  0  0  0  0  0  1 V2000
  153.6340  137.5815  157.0499 C   0  0  0  0  0  0  0  0  0  0  0  0
  152.6645  138.0762  156.0320 C   0  0  0  0  0  0  0  0  0  0  0  0
  151.6333  137.4791  155.3627 C   0  0  0  0  0  0  0  0  0  0  0  0
  151.1348  138.5267  154.5437 C   0  0  0  0  0  0  0  0  0  0  0  0
  150.0371  138.3094  153.6728 N   0  0  0  0  0  0  0  0  0  0  0  0
  148.8111  138.8540  153.7489 C   0  0  0  0  0  0  0  0  0  0  0  0
  148.4383  139.6461  154.6149 O   0  0  0  0  0  0  0  0  0  0  0  0
  148.0251  138.4201  152.7534 N   0  0  0  0  0  0  0  0  0  0  0  0
  146.6298  138.8039  152.5450 C   0  0  2  0  0  0  0  0  0  0  0  0
  145.6872  138.0463  153.5034 C   0  0  0  0  0  0  0  0  0  0  0  0
  145.5949  136.5480  153.1650 C   0  0  0  0  0  0  0  0  0  0  0  0
  145.1693  136.3165  151.6994 C   0  0  2  0  0  0  0  0  0  0  0  0
  145.0662  134.8156  151.3579 C   0  0  0  0  0  0  0  0  0  0  0  0
  144.5194  134.6397  150.1545 F   0  0  0  0  0  0  0  0  0  0  0  0
  146.2782  134.2606  151.3659 F   0  0  0  0  0  0  0  0  0  0  0  0
  144.3170  134.1913  152.2667 F   0  0  0  0  0  0  0  0  0  0  0  0
  146.1265  137.0604  150.7439 C   0  0  0  0  0  0  0  0  0  0  0  0
  146.2239  138.5595  151.0796 C   0  0  0  0  0  0  0  0  0  0  0  0
  151.8006  139.6608  154.6992 N   0  0  0  0  0  0  0  0  0  0  0  0
  152.7849  139.3777  155.6534 O   0  0  0  0  0  0  0  0  0  0  0  0
  153.2699  136.6692  157.5226 H   0  0  0  0  0  0  0  0  0  0  0  0
  153.7912  138.3261  157.8305 H   0  0  0  0  0  0  0  0  0  0  0  0
  154.5979  137.3637  156.5902 H   0  0  0  0  0  0  0  0  0  0  0  0
  151.2939  136.4574  155.4475 H   0  0  0  0  0  0  0  0  0  0  0  0
  150.2036  137.6705  152.9095 H   0  0  0  0  0  0  0  0  0  0  0  0
  148.4181  137.7696  152.0889 H   0  0  0  0  0  0  0  0  0  0  0  0
  146.5409  139.8739  152.7418 H   0  0  0  0  0  0  0  0  0  0  0  0
  146.0084  138.1757  154.5377 H   0  0  0  0  0  0  0  0  0  0  0  0
  144.6905  138.4850  153.4432 H   0  0  0  0  0  0  0  0  0  0  0  0
  146.5575  136.0710  153.3521 H   0  0  0  0  0  0  0  0  0  0  0  0
  144.8832  136.0721  153.8403 H   0  0  0  0  0  0  0  0  0  0  0  0
  144.1752  136.7481  151.5728 H   0  0  0  0  0  0  0  0  0  0  0  0
  147.1185  136.6101  150.7901 H   0  0  0  0  0  0  0  0  0  0  0  0
  145.7887  136.9458  149.7138 H   0  0  0  0  0  0  0  0  0  0  0  0
  145.2564  139.0281  150.8942 H   0  0  0  0  0  0  0  0  0  0  0  0
  146.9294  139.0479  150.4059 H   0  0  0  0  0  0  0  0  0  0  0  0
  1  2  1  0  0  0  0
  1 21  1  0  0  0  0
  1 22  1  0  0  0  0
  1 23  1  0  0  0  0
  2 20  1  0  0  0  0
  2  3  2  0  0  0  0
  3  4  1  0  0  0  0
  3 24  1  0  0  0  0
  4  5  1  0  0  0  0
  4 19  2  0  0  0  0
  5  6  1  0  0  0  0
  5 25  1  0  0  0  0
  6  7  2  0  0  0  0
  6  8  1  0  0  0  0
  8  9  1  0  0  0  0
  8 26  1  0  0  0  0
  9 18  1  0  0  0  0
  9 10  1  0  0  0  0
  9 27  1  0  0  0  0
 10 11  1  0  0  0  0
 10 28  1  0  0  0  0
 10 29  1  0  0  0  0
 11 12  1  0  0  0  0
 11 30  1  0  0  0  0
 11 31  1  0  0  0  0
 12 13  1  0  0  0  0
 12 17  1  0  0  0  0
 12 32  1  0  0  0  0
 13 14  1  0  0  0  0
 13 15  1  0  0  0  0
 13 16  1  0  0  0  0
 17 18  1  0  0  0  0
 17 33  1  0  0  0  0
 17 34  1  0  0  0  0
 18 35  1  0  0  0  0
 18 36  1  0  0  0  0
 19 20  1  0  0  0  0
M  END
> <s_m_source_file>
AV-unprocessed.smi

> <i_m_source_file_index>
1488

> <i_lp_mmshare_version>
43012

> <i_f3d_flags>
0

> <s_epik_input>
W0NIM11jMVtjSF1jKG5vMSlbTkhdQyg9TylbTkhdW0NAQEhdMltDSDJdW0NIMl1bQ0BASF0oQyhGKShGKUYpW0NIMl1bQ0gyXTI=

> <s_epik_cmdline>
J2VwaWtfcHl0aG9uJywgJy1waCcsICc3LjAnLCAnLXRuJywgJzgnLCAnLW1hJywgJzIwMCcsICctbWV0YWxfYmluZGluZycsICctaW1hZScsICc8aW5maWxlLm1hZT4nLCAnLW9tYWUnLCAnPG91dGZpbGUubWFlPic=

> <r_lp_tautomer_probability>
1

> <r_epik_Ionization_Penalty>
2.30349e-05

> <r_epik_Ionization_Penalty_Charging>
0

> <r_epik_Ionization_Penalty_Neutral>
2.30349e-05

> <r_epik_State_Penalty>
-0

> <r_epik_Charging_Adjusted_Penalty>
0

> <i_epik_Tot_Q>
0

> <i_epik_Tot_abs_Q>
0

> <r_epik_Metal_State_Penalty>
-0

> <b_epik_Metal_Only>
0

> <s_lp_Force_Field>
OPLS_2005

> <r_lp_Energy>
6.9589

> <b_lp_Chiralities_Consistent>
1

> <s_lp_Variant>
AV-unprocessed.smi:1488-2

> <Gold.Version>
5.8.1

> <Gold.Id.Protein>
6NUR|6NUR_protein|mol2

> <Gold.PLP.Fitness>
39.8046

> <Gold.PLP.PLP>
-31.5746

> <Gold.PLP.part.hbond>
-5.8365

> <Gold.PLP.part.metal>
0.0000

> <Gold.PLP.part.buried>
4.2017

> <Gold.PLP.part.nonpolar>
-31.6098

> <Gold.PLP.part.repulsive>
0.2911

> <Gold.PLP.ligand.clash>
0.0000

> <Gold.PLP.ligand.torsion>
0.9779

> <Gold.PLP.Chemscore.Hbond>
3.3884

> <Gold.PLP.Chemscore.CHOScore>
0.0000

> <Gold.PLP.Chemscore.Metal>
0.0000

> <Gold.Chemscore.Hbonds>
donor molecule, donor type, donor heavy atom, donor atom, acceptor molecule, acceptor atom, score
      L1  H     5    25       P1  7948  0.38
      L1  H     8    26       P1  7948  0.94
      P1  H  7989  7998       L1    19  1.00
      P1  H  7997  8010       L1    20  1.00

> <Gold.PLP.Chemscore.Internal.Correction>
0.0205

> <Gold.Rescore>
     Score         DG    S(hbond)    S(metal)    S(lipo)     H(rot)  DE(clash)    DE(int)     intcor
     16.74     -19.41       3.02        0.00      54.70       1.00       1.85       0.82       ----

> <Gold.Chemscore.Fitness>
16.7357

> <Gold.Chemscore.DG>
-19.4072

> <Gold.Chemscore.ZeroCoef>
-5.4800

> <Gold.Chemscore.Hbond>
3.0202

> <Gold.Chemscore.Metal>
0.0000

> <Gold.Chemscore.Lipo>
54.7001

> <Gold.Chemscore.Internal_Hbond>
0.0000

> <Gold.Chemscore.DEClash>
1.8525

> <Gold.Chemscore.DEInternal>
0.8190

> <Gold.Chemscore.Rot>
1.0000

> <Gold.Chemscore.Internal.Correction>
   9.000000E+99

> <Gold.Chemscore.Hbonds>
donor molecule, donor type, donor heavy atom, donor atom, acceptor molecule, acceptor atom, score
      L1  H     5    25       P1  7948  0.04
      L1  H     8    26       P1  7948  0.90
      P1  H  7989  7998       L1    19  0.92
      P1  H  7997  8010       L1    20  0.88

> <Gold.Chemscore.Hbond.Weighted>
-10.0873

> <Gold.Chemscore.Metal.Weighted>
-0.0000

> <Gold.Chemscore.Lipo.Weighted>
-6.3999

> <Gold.Chemscore.Internal_Hbond.Weighted>
0.0000

> <Gold.Chemscore.DEClash.Weighted>
1.8525

> <Gold.Chemscore.DEInternal.Weighted>
0.8190

> <Gold.Chemscore.Rot.Weighted>
2.5600

> <Gold.Chemscore.Internal.Correction.Weighted>
   9.000000E+99

> <Gold.Protein.RotatedTorsions>
[ 6907 6896 6895 6894 ] final    6.10 input  -60.11 | X-H torsion
[ 7974 7965 7964 7962 ] final -166.50 input  175.53 | X-H torsion
[ 8008 7997 7996 7995 ] final   88.03 input   59.86 | X-H torsion
[ 10167 10162 10161 10158 ] final   32.46 input  -65.29 | X-H torsion
[ 10718 10713 10712 10709 ] final -161.18 input   66.30 | X-H torsion
[ 10763 10752 10751 10750 ] final  -20.54 input  -60.55 | X-H torsion
[ 11005 11000 10999 10996 ] final   -8.69 input  -57.11 | X-H torsion

> <Gold.Protein.ActiveResidues>
 VAL166  LYS551  ARG553  GLY616  TRP617  ASP618  TYR619  PRO620  LYS621  CYS622 
 ASP623  PHE694  ASN695  SER759  ASP760  ASP761  ALA762  ILE779  LEU786  VAL792 
 PHE793  MET794  SER795  GLU796  ALA797  LYS798  CYS799  TRP800  GLU811  SER814 

> <Gold.Protein.RotatedAtoms>
  151.6682  135.0980  160.0192 H   0  0  0  0  0  0  0  0  0  0  0  0  # atno 6907 bound_to 6896
  152.3907  133.6671  159.6244 H   0  0  0  0  0  0  0  0  0  0  0  0  # atno 6908 bound_to 6896
  150.7823  133.8876  159.3345 H   0  0  0  0  0  0  0  0  0  0  0  0  # atno 6909 bound_to 6896
  144.7244  140.2657  143.6258 H   0  0  0  0  0  0  0  0  0  0  0  0  # atno 7974 bound_to 7965
  155.9827  140.3376  155.6678 H   0  0  0  0  0  0  0  0  0  0  0  0  # atno 8008 bound_to 7997
  155.6527  140.0707  157.2599 H   0  0  0  0  0  0  0  0  0  0  0  0  # atno 8009 bound_to 7997
  154.4196  140.1722  156.1679 H   0  0  0  0  0  0  0  0  0  0  0  0  # atno 8010 bound_to 7997
  140.4496  144.1067  150.6189 H   0  0  0  0  0  0  0  0  0  0  0  0  # atno 10167 bound_to 10162
  156.5927  130.8777  151.2894 H   0  0  0  0  0  0  0  0  0  0  0  0  # atno 10718 bound_to 10713
  153.6221  135.6992  153.5307 H   0  0  0  0  0  0  0  0  0  0  0  0  # atno 10763 bound_to 10752
  153.2929  135.4151  155.1183 H   0  0  0  0  0  0  0  0  0  0  0  0  # atno 10764 bound_to 10752
  154.8541  135.3630  154.5762 H   0  0  0  0  0  0  0  0  0  0  0  0  # atno 10765 bound_to 10752
  140.7261  133.8787  155.8857 H   0  0  0  0  0  0  0  0  0  0  0  0  # atno 11005 bound_to 11000
  145.8092  139.1996  143.2003 LP  0  0  0  0  0  0  0  0  0  0  0  0  # atno 17320 bound_to 7965
  146.0610  140.7970  142.9734 LP  0  0  0  0  0  0  0  0  0  0  0  0  # atno 17321 bound_to 7965
  140.4222  143.2606  151.9700 LP  0  0  0  0  0  0  0  0  0  0  0  0  # atno 17342 bound_to 10162
  139.4795  144.5820  151.7916 LP  0  0  0  0  0  0  0  0  0  0  0  0  # atno 17343 bound_to 10162
  157.7300  130.9678  150.1811 LP  0  0  0  0  0  0  0  0  0  0  0  0  # atno 17370 bound_to 10713
  156.2536  130.3703  149.8205 LP  0  0  0  0  0  0  0  0  0  0  0  0  # atno 17371 bound_to 10713
  140.9961  134.1213  157.4362 LP  0  0  0  0  0  0  0  0  0  0  0  0  # atno 17394 bound_to 11000
  139.8837  135.0055  156.6316 LP  0  0  0  0  0  0  0  0  0  0  0  0  # atno 17395 bound_to 11000

$$$$
