AV-unprocessed.smi:2408|AV-procd|sdf|9520|dock9
  -GOLD-   2272013153D 1   1.00000     0.00000
 Structure written by MMmdl.
 47 49  0  0  0  0  0  0  0  0  1 V2000
  150.4992  138.2320  154.1922 C   0  0  0  0  0  0  0  0  0  0  0  0
  149.5688  139.4304  154.2624 C   0  0  0  0  0  0  0  0  0  0  0  0
  150.1025  140.5486  154.8029 N   0  0  0  0  0  0  0  0  0  0  0  0
  149.3262  141.6486  154.8922 C   0  0  0  0  0  0  0  0  0  0  0  0
  147.9884  141.6854  154.4565 C   0  0  0  0  0  0  0  0  0  0  0  0
  147.4341  140.5207  153.8933 C   0  0  0  0  0  0  0  0  0  0  0  0
  148.2395  139.3620  153.7777 C   0  0  0  0  0  0  0  0  0  0  0  0
  147.7550  138.1369  153.2428 N   0  0  0  0  0  0  0  0  0  0  0  0
  146.4895  137.6865  153.2362 C   0  0  0  0  0  0  0  0  0  0  0  0
  145.5250  138.2797  153.7190 O   0  0  0  0  0  0  0  0  0  0  0  0
  146.3983  136.5095  152.5920 N   0  0  0  0  0  0  0  0  0  0  0  0
  145.1856  135.7147  152.3208 C   0  0  0  0  0  0  0  0  0  0  0  0
  143.9061  136.3159  152.9715 C   0  0  0  0  0  0  0  0  0  0  0  0
  143.3625  135.7336  153.9112 O   0  0  0  0  0  0  0  0  0  0  0  0
  143.4154  137.4598  152.4666 N   0  0  0  0  0  0  0  0  0  0  0  0
  142.2386  138.1575  152.9594 C   0  0  0  0  0  0  0  0  0  0  0  0
  141.0620  137.2442  153.2322 C   0  0  0  0  0  0  0  0  0  0  0  0
  139.6494  137.7790  153.2045 C   0  0  0  0  0  0  0  0  0  0  0  0
  140.2707  137.3564  154.5143 C   0  0  0  0  0  0  0  0  0  0  0  0
  144.9785  135.6589  150.7873 C   0  0  0  0  0  0  0  0  0  0  0  0
  144.4579  134.2583  150.4718 C   0  0  0  0  0  0  0  0  0  0  0  0
  145.1992  133.3661  151.4575 C   0  0  0  0  0  0  0  0  0  0  0  0
  145.3879  134.2181  152.7188 C   0  0  0  0  0  0  0  0  0  0  0  0
  150.6044  137.8929  153.1614 H   0  0  0  0  0  0  0  0  0  0  0  0
  150.1032  137.4092  154.7879 H   0  0  0  0  0  0  0  0  0  0  0  0
  151.4942  138.4733  154.5687 H   0  0  0  0  0  0  0  0  0  0  0  0
  149.7830  142.5240  155.3295 H   0  0  0  0  0  0  0  0  0  0  0  0
  147.3993  142.5850  154.5565 H   0  0  0  0  0  0  0  0  0  0  0  0
  146.4028  140.5301  153.5742 H   0  0  0  0  0  0  0  0  0  0  0  0
  148.4261  137.5931  152.7204 H   0  0  0  0  0  0  0  0  0  0  0  0
  147.2579  136.1205  152.2338 H   0  0  0  0  0  0  0  0  0  0  0  0
  143.9087  137.8853  151.6953 H   0  0  0  0  0  0  0  0  0  0  0  0
  142.4970  138.7007  153.8698 H   0  0  0  0  0  0  0  0  0  0  0  0
  141.9287  138.9002  152.2227 H   0  0  0  0  0  0  0  0  0  0  0  0
  141.1877  136.2398  152.8312 H   0  0  0  0  0  0  0  0  0  0  0  0
  139.5134  138.8453  153.0347 H   0  0  0  0  0  0  0  0  0  0  0  0
  138.8775  137.1372  152.7844 H   0  0  0  0  0  0  0  0  0  0  0  0
  139.9160  136.4325  154.9660 H   0  0  0  0  0  0  0  0  0  0  0  0
  140.5465  138.1422  155.2150 H   0  0  0  0  0  0  0  0  0  0  0  0
  144.3043  136.4307  150.4115 H   0  0  0  0  0  0  0  0  0  0  0  0
  145.9286  135.8001  150.2687 H   0  0  0  0  0  0  0  0  0  0  0  0
  143.3844  134.2076  150.6587 H   0  0  0  0  0  0  0  0  0  0  0  0
  144.6293  133.9698  149.4343 H   0  0  0  0  0  0  0  0  0  0  0  0
  144.6688  132.4344  151.6571 H   0  0  0  0  0  0  0  0  0  0  0  0
  146.1755  133.1067  151.0458 H   0  0  0  0  0  0  0  0  0  0  0  0
  146.3747  134.0185  153.1375 H   0  0  0  0  0  0  0  0  0  0  0  0
  144.6762  133.9021  153.4830 H   0  0  0  0  0  0  0  0  0  0  0  0
  1  2  1  0  0  0  0
  1 24  1  0  0  0  0
  1 25  1  0  0  0  0
  1 26  1  0  0  0  0
  2  7  1  0  0  0  0
  2  3  2  0  0  0  0
  3  4  1  0  0  0  0
  4  5  2  0  0  0  0
  4 27  1  0  0  0  0
  5  6  1  0  0  0  0
  5 28  1  0  0  0  0
  6  7  2  0  0  0  0
  6 29  1  0  0  0  0
  7  8  1  0  0  0  0
  8  9  1  0  0  0  0
  8 30  1  0  0  0  0
  9 10  2  0  0  0  0
  9 11  1  0  0  0  0
 11 12  1  0  0  0  0
 11 31  1  0  0  0  0
 12 23  1  0  0  0  0
 12 13  1  0  0  0  0
 12 20  1  0  0  0  0
 13 14  2  0  0  0  0
 13 15  1  0  0  0  0
 15 16  1  0  0  0  0
 15 32  1  0  0  0  0
 16 17  1  0  0  0  0
 16 33  1  0  0  0  0
 16 34  1  0  0  0  0
 17 19  1  0  0  0  0
 17 18  1  0  0  0  0
 17 35  1  0  0  0  0
 18 19  1  0  0  0  0
 18 36  1  0  0  0  0
 18 37  1  0  0  0  0
 19 38  1  0  0  0  0
 19 39  1  0  0  0  0
 20 21  1  0  0  0  0
 20 40  1  0  0  0  0
 20 41  1  0  0  0  0
 21 22  1  0  0  0  0
 21 42  1  0  0  0  0
 21 43  1  0  0  0  0
 22 23  1  0  0  0  0
 22 44  1  0  0  0  0
 22 45  1  0  0  0  0
 23 46  1  0  0  0  0
 23 47  1  0  0  0  0
M  END
> <s_m_source_file>
AV-unprocessed.smi

> <i_m_source_file_index>
2408

> <i_lp_mmshare_version>
43012

> <i_f3d_flags>
0

> <s_epik_input>
W0NIM11jMW5bY0hdW2NIXVtjSF1jMVtOSF1DKD1PKVtOSF1DMihbQ0gyXVtDSDJdW0NIMl1bQ0gyXTIpQyg9TylbTkhdW0NIMl1bQ0hdM1tDSDJdW0NIMl0z

> <s_epik_cmdline>
J2VwaWtfcHl0aG9uJywgJy1waCcsICc3LjAnLCAnLXRuJywgJzgnLCAnLW1hJywgJzIwMCcsICctbWV0YWxfYmluZGluZycsICctaW1hZScsICc8aW5maWxlLm1hZT4nLCAnLW9tYWUnLCAnPG91dGZpbGUubWFlPic=

> <r_epik_Ionization_Penalty>
0.0173464

> <r_epik_Ionization_Penalty_Charging>
0

> <r_epik_Ionization_Penalty_Neutral>
0.0173464

> <r_epik_State_Penalty>
0.0137159

> <r_epik_Charging_Adjusted_Penalty>
0.0137159

> <i_epik_Tot_Q>
0

> <i_epik_Tot_abs_Q>
0

> <r_epik_Metal_State_Penalty>
0.0133255

> <b_epik_Metal_Only>
0

> <s_lp_Force_Field>
OPLS_2005

> <r_lp_Energy>
32.4155

> <b_lp_Chiralities_Consistent>
1

> <s_lp_Variant>
AV-unprocessed.smi:2408-1

> <Gold.Version>
5.8.1

> <Gold.Id.Protein>
6NUR|6NUR_protein|mol2

> <Gold.PLP.Fitness>
47.1932

> <Gold.PLP.PLP>
-37.8270

> <Gold.PLP.part.hbond>
-5.0000

> <Gold.PLP.part.metal>
0.0000

> <Gold.PLP.part.buried>
-0.5265

> <Gold.PLP.part.nonpolar>
-32.9309

> <Gold.PLP.part.repulsive>
0.5676

> <Gold.PLP.ligand.clash>
3.4812

> <Gold.PLP.ligand.torsion>
1.1880

> <Gold.PLP.Chemscore.Hbond>
3.8720

> <Gold.PLP.Chemscore.CHOScore>
0.9906

> <Gold.PLP.Chemscore.Metal>
0.0000

> <Gold.Chemscore.Hbonds>
donor molecule, donor type, donor heavy atom, donor atom, acceptor molecule, acceptor atom, score
      L1  H     8    30       P1  7948  1.00
      L1  H    11    31       P1  7948  1.00
      L1  H    15    32       P1 10171  0.96
      P1  H  7989  7998       L1     3  0.91
      L1  C     4    27       P1  8028  0.99

> <Gold.PLP.Chemscore.Internal.Correction>
0.6358

> <Gold.Rescore>
     Score         DG    S(hbond)    S(metal)    S(lipo)     H(rot)  DE(clash)    DE(int)     intcor
     16.08     -23.15       3.17        0.00      95.24       1.59       1.80       5.27       ----

> <Gold.Chemscore.Fitness>
16.0752

> <Gold.Chemscore.DG>
-23.1451

> <Gold.Chemscore.ZeroCoef>
-5.4800

> <Gold.Chemscore.Hbond>
3.1745

> <Gold.Chemscore.Metal>
0.0000

> <Gold.Chemscore.Lipo>
95.2425

> <Gold.Chemscore.Internal_Hbond>
0.0000

> <Gold.Chemscore.DEClash>
1.8004

> <Gold.Chemscore.DEInternal>
5.2695

> <Gold.Chemscore.Rot>
1.5941

> <Gold.Chemscore.Internal.Correction>
   9.000000E+99

> <Gold.Chemscore.Hbonds>
donor molecule, donor type, donor heavy atom, donor atom, acceptor molecule, acceptor atom, score
      L1  H     8    30       P1  7948  0.98
      L1  H    11    31       P1  7948  0.97
      L1  H    15    32       P1 10171  0.88
      P1  H  7989  7998       L1     3  0.15

> <Gold.Chemscore.Hbond.Weighted>
-10.6027

> <Gold.Chemscore.Metal.Weighted>
-0.0000

> <Gold.Chemscore.Lipo.Weighted>
-11.1434

> <Gold.Chemscore.Internal_Hbond.Weighted>
0.0000

> <Gold.Chemscore.DEClash.Weighted>
1.8004

> <Gold.Chemscore.DEInternal.Weighted>
5.2695

> <Gold.Chemscore.Rot.Weighted>
4.0809

> <Gold.Chemscore.Internal.Correction.Weighted>
   9.000000E+99

> <Gold.Protein.RotatedTorsions>
[ 6907 6896 6895 6894 ] final  160.57 input  -60.11 | X-H torsion
[ 7974 7965 7964 7962 ] final -130.32 input  175.53 | X-H torsion
[ 8008 7997 7996 7995 ] final  -86.68 input   59.86 | X-H torsion
[ 10167 10162 10161 10158 ] final  112.70 input  -65.29 | X-H torsion
[ 10718 10713 10712 10709 ] final  112.41 input   66.30 | X-H torsion
[ 10763 10752 10751 10750 ] final  -56.55 input  -60.55 | X-H torsion
[ 11005 11000 10999 10996 ] final   22.58 input  -57.11 | X-H torsion

> <Gold.Protein.ActiveResidues>
 VAL166  LYS551  ARG553  GLY616  TRP617  ASP618  TYR619  PRO620  LYS621  CYS622 
 ASP623  PHE694  ASN695  SER759  ASP760  ASP761  ALA762  ILE779  LEU786  VAL792 
 PHE793  MET794  SER795  GLU796  ALA797  LYS798  CYS799  TRP800  GLU811  SER814 

> <Gold.Protein.RotatedAtoms>
  151.9686  133.3718  159.4062 H   0  0  0  0  0  0  0  0  0  0  0  0  # atno 6907 bound_to 6896
  150.6952  134.4164  159.5194 H   0  0  0  0  0  0  0  0  0  0  0  0  # atno 6908 bound_to 6896
  152.1865  134.8709  160.0572 H   0  0  0  0  0  0  0  0  0  0  0  0  # atno 6909 bound_to 6896
  144.9486  140.7319  143.4802 H   0  0  0  0  0  0  0  0  0  0  0  0  # atno 7974 bound_to 7965
  154.6546  140.0575  156.9994 H   0  0  0  0  0  0  0  0  0  0  0  0  # atno 8008 bound_to 7997
  155.1320  140.3257  155.4453 H   0  0  0  0  0  0  0  0  0  0  0  0  # atno 8009 bound_to 7997
  156.2591  140.1979  156.6439 H   0  0  0  0  0  0  0  0  0  0  0  0  # atno 8010 bound_to 7997
  139.6516  144.7128  151.2037 H   0  0  0  0  0  0  0  0  0  0  0  0  # atno 10167 bound_to 10162
  157.6394  131.0967  150.6891 H   0  0  0  0  0  0  0  0  0  0  0  0  # atno 10718 bound_to 10713
  154.2084  135.6399  153.5108 H   0  0  0  0  0  0  0  0  0  0  0  0  # atno 10763 bound_to 10752
  152.9995  135.5468  154.6241 H   0  0  0  0  0  0  0  0  0  0  0  0  # atno 10764 bound_to 10752
  154.5672  135.2914  155.0836 H   0  0  0  0  0  0  0  0  0  0  0  0  # atno 10765 bound_to 10752
  140.3790  134.1941  155.7664 H   0  0  0  0  0  0  0  0  0  0  0  0  # atno 11005 bound_to 11000
  145.2879  139.1894  143.4756 LP  0  0  0  0  0  0  0  0  0  0  0  0  # atno 17320 bound_to 7965
  146.3313  140.2851  142.8612 LP  0  0  0  0  0  0  0  0  0  0  0  0  # atno 17321 bound_to 7965
  140.7540  143.6141  150.8577 LP  0  0  0  0  0  0  0  0  0  0  0  0  # atno 17342 bound_to 10162
  139.9789  143.5973  152.2949 LP  0  0  0  0  0  0  0  0  0  0  0  0  # atno 17343 bound_to 10162
  156.7217  130.4682  149.5521 LP  0  0  0  0  0  0  0  0  0  0  0  0  # atno 17370 bound_to 10713
  156.1661  130.6406  151.0779 LP  0  0  0  0  0  0  0  0  0  0  0  0  # atno 17371 bound_to 10713
  141.1930  133.8161  157.0818 LP  0  0  0  0  0  0  0  0  0  0  0  0  # atno 17394 bound_to 11000
  140.0493  134.9814  157.1107 LP  0  0  0  0  0  0  0  0  0  0  0  0  # atno 17395 bound_to 11000

$$$$
