AV-unprocessed.smi:40|AV-procd|sdf|369|dock8
  -GOLD-   2262016213D 1   1.00000     0.00000
 Structure written by MMmdl.
 47 48  0  0  0  0  0  0  0  0  1 V2000
  151.7849  144.9871  160.0655 C   0  0  0  0  0  0  0  0  0  0  0  0
  152.4143  143.8673  159.2298 C   0  0  0  0  0  0  0  0  0  0  0  0
  153.0610  142.7771  160.0961 C   0  0  0  0  0  0  0  0  0  0  0  0
  153.3072  141.4768  159.3197 C   0  0  0  0  0  0  0  0  0  0  0  0
  152.0033  140.8535  158.7978 C   0  0  0  0  0  0  0  0  0  0  0  0
  152.2648  139.6304  158.1235 O   0  0  0  0  0  0  0  0  0  0  0  0
  151.2519  138.8472  157.6891 C   0  0  0  0  0  0  0  0  0  0  0  0
  150.0635  139.1648  157.7248 O   0  0  0  0  0  0  0  0  0  0  0  0
  151.7566  137.6026  157.1461 N   0  0  0  0  0  0  0  0  0  0  0  0
  151.0219  136.5954  156.6271 C   0  0  0  0  0  0  0  0  0  0  0  0
  151.1321  135.4073  157.1922 N   0  0  0  0  0  0  0  0  0  0  0  0
  150.4376  134.3023  156.7774 C   0  0  0  0  0  0  0  0  0  0  0  0
  150.5543  133.2279  157.3651 O   0  0  0  0  0  0  0  0  0  0  0  0
  149.5778  134.4536  155.6644 N   0  0  0  0  0  0  0  0  0  0  0  0
  148.7755  133.2648  155.1924 C   0  0  2  0  0  0  0  0  0  0  0  0
  149.6448  132.3383  154.6029 O   0  0  0  0  0  0  0  0  0  0  0  0
  149.1708  131.9509  153.3166 C   0  0  1  0  0  0  0  0  0  0  0  0
  148.3851  130.6340  153.4535 C   0  0  0  0  0  0  0  0  0  0  0  0
  148.3582  133.1655  152.8560 C   0  0  1  0  0  0  0  0  0  0  0  0
  147.4167  132.8985  151.8343 O   0  0  0  0  0  0  0  0  0  0  0  0
  147.7443  133.7081  154.1404 C   0  0  1  0  0  0  0  0  0  0  0  0
  146.4659  133.1648  154.4148 O   0  0  0  0  0  0  0  0  0  0  0  0
  149.4521  135.6931  155.0546 C   0  0  0  0  0  0  0  0  0  0  0  0
  150.1411  136.7709  155.4856 C   0  0  0  0  0  0  0  0  0  0  0  0
  150.0129  137.9540  154.8597 F   0  0  0  0  0  0  0  0  0  0  0  0
  148.3353  132.8128  156.0828 H   0  0  0  0  0  0  0  0  0  0  0  0
  150.0191  131.7859  152.6514 H   0  0  0  0  0  0  0  0  0  0  0  0
  149.0576  133.9101  152.4730 H   0  0  0  0  0  0  0  0  0  0  0  0
  147.6520  134.7949  154.1114 H   0  0  0  0  0  0  0  0  0  0  0  0
  151.3388  145.7470  159.4235 H   0  0  0  0  0  0  0  0  0  0  0  0
  152.5302  145.4772  160.6926 H   0  0  0  0  0  0  0  0  0  0  0  0
  151.0006  144.5995  160.7163 H   0  0  0  0  0  0  0  0  0  0  0  0
  151.6493  143.4223  158.5923 H   0  0  0  0  0  0  0  0  0  0  0  0
  153.1622  144.2954  158.5615 H   0  0  0  0  0  0  0  0  0  0  0  0
  154.0073  143.1444  160.4957 H   0  0  0  0  0  0  0  0  0  0  0  0
  152.4220  142.5698  160.9555 H   0  0  0  0  0  0  0  0  0  0  0  0
  153.9736  141.6749  158.4793 H   0  0  0  0  0  0  0  0  0  0  0  0
  153.8239  140.7638  159.9632 H   0  0  0  0  0  0  0  0  0  0  0  0
  151.2884  140.7070  159.6089 H   0  0  0  0  0  0  0  0  0  0  0  0
  151.5329  141.5340  158.0877 H   0  0  0  0  0  0  0  0  0  0  0  0
  152.7557  137.4784  157.2213 H   0  0  0  0  0  0  0  0  0  0  0  0
  147.9979  130.3019  152.4901 H   0  0  0  0  0  0  0  0  0  0  0  0
  147.5429  130.7272  154.1384 H   0  0  0  0  0  0  0  0  0  0  0  0
  149.0296  129.8422  153.8359 H   0  0  0  0  0  0  0  0  0  0  0  0
  147.8512  132.4060  151.1545 H   0  0  0  0  0  0  0  0  0  0  0  0
  145.9178  133.2918  153.6550 H   0  0  0  0  0  0  0  0  0  0  0  0
  148.7896  135.8192  154.2108 H   0  0  0  0  0  0  0  0  0  0  0  0
  1  2  1  0  0  0  0
  1 30  1  0  0  0  0
  1 31  1  0  0  0  0
  1 32  1  0  0  0  0
  2  3  1  0  0  0  0
  2 33  1  0  0  0  0
  2 34  1  0  0  0  0
  3  4  1  0  0  0  0
  3 35  1  0  0  0  0
  3 36  1  0  0  0  0
  4  5  1  0  0  0  0
  4 37  1  0  0  0  0
  4 38  1  0  0  0  0
  5  6  1  0  0  0  0
  5 39  1  0  0  0  0
  5 40  1  0  0  0  0
  6  7  1  0  0  0  0
  7  8  2  0  0  0  0
  7  9  1  0  0  0  0
  9 10  1  0  0  0  0
  9 41  1  0  0  0  0
 10 24  1  0  0  0  0
 10 11  2  0  0  0  0
 11 12  1  0  0  0  0
 12 13  2  0  0  0  0
 12 14  1  0  0  0  0
 14 15  1  0  0  0  0
 14 23  1  0  0  0  0
 15 26  1  0  0  0  0
 15 21  1  0  0  0  0
 15 16  1  0  0  0  0
 16 17  1  0  0  0  0
 17 27  1  0  0  0  0
 17 18  1  0  0  0  0
 17 19  1  0  0  0  0
 18 42  1  0  0  0  0
 18 43  1  0  0  0  0
 18 44  1  0  0  0  0
 19 28  1  0  0  0  0
 19 20  1  0  0  0  0
 19 21  1  0  0  0  0
 20 45  1  0  0  0  0
 21 29  1  0  0  0  0
 21 22  1  0  0  0  0
 22 46  1  0  0  0  0
 23 24  2  0  0  0  0
 23 47  1  0  0  0  0
 24 25  1  0  0  0  0
M  END
> <s_m_source_file>
AV-unprocessed.smi

> <i_m_source_file_index>
40

> <i_lp_mmshare_version>
43012

> <i_f3d_flags>
0

> <s_epik_input>
W0NIM11bQ0gyXVtDSDJdW0NIMl1bQ0gyXU9DKD1PKVtOSF1jMW5jKD1PKW4oW2NIXWMxRilbQ0BASF0yT1tDQEhdKFtDSDNdKVtDQEBIXShbT0hdKVtDQEhdMltPSF0=

> <s_epik_cmdline>
J2VwaWtfcHl0aG9uJywgJy1waCcsICc3LjAnLCAnLXRuJywgJzgnLCAnLW1hJywgJzIwMCcsICctbWV0YWxfYmluZGluZycsICctaW1hZScsICc8aW5maWxlLm1hZT4nLCAnLW9tYWUnLCAnPG91dGZpbGUubWFlPic=

> <r_lp_tautomer_probability>
1

> <r_epik_Ionization_Penalty>
2.29506e-06

> <r_epik_Ionization_Penalty_Charging>
8.26867e-09

> <r_epik_Ionization_Penalty_Neutral>
2.2868e-06

> <r_epik_State_Penalty>
-0

> <r_epik_Charging_Adjusted_Penalty>
8.26867e-09

> <i_epik_Tot_Q>
0

> <i_epik_Tot_abs_Q>
0

> <r_epik_Metal_State_Penalty>
-0

> <b_epik_Metal_Only>
0

> <s_epik_Chemistry_Notes>
This compound has an ester and may undergo hydrolysis at high or low pH. This compound contains an acetal/aminal-like group ( X-CH(R)-Y where X, Y are N, S, or O) that may be acid/base labile, releasing an aldehyde.

> <s_lp_Force_Field>
OPLS_2005

> <r_lp_Energy>
36.9864

> <b_lp_Chiralities_Consistent>
1

> <s_lp_Variant>
AV-unprocessed.smi:40-3

> <Gold.Version>
5.8.1

> <Gold.Id.Protein>
6NUR|6NUR_protein|mol2

> <Gold.PLP.Fitness>
47.1347

> <Gold.PLP.PLP>
-39.8261

> <Gold.PLP.part.hbond>
-3.0000

> <Gold.PLP.part.metal>
0.0000

> <Gold.PLP.part.buried>
-5.4486

> <Gold.PLP.part.nonpolar>
-31.6693

> <Gold.PLP.part.repulsive>
0.0908

> <Gold.PLP.ligand.clash>
0.0000

> <Gold.PLP.ligand.torsion>
0.8355

> <Gold.PLP.Chemscore.Hbond>
1.9760

> <Gold.PLP.Chemscore.CHOScore>
1.0000

> <Gold.PLP.Chemscore.Metal>
0.0000

> <Gold.Chemscore.Hbonds>
donor molecule, donor type, donor heavy atom, donor atom, acceptor molecule, acceptor atom, score
      L1  H    20    45       P1 10747  0.83
      P1  H  6896  6907       L1    13  0.99
      L1  C    23    47       P1  7948  1.00

> <Gold.PLP.Chemscore.Internal.Correction>
0.0515

> <Gold.Rescore>
     Score         DG    S(hbond)    S(metal)    S(lipo)     H(rot)  DE(clash)    DE(int)     intcor
     10.99     -12.18       1.82        0.00      86.01       3.70       0.18       1.01       ----

> <Gold.Chemscore.Fitness>
10.9931

> <Gold.Chemscore.DG>
-12.1760

> <Gold.Chemscore.ZeroCoef>
-5.4800

> <Gold.Chemscore.Hbond>
1.8246

> <Gold.Chemscore.Metal>
0.0000

> <Gold.Chemscore.Lipo>
86.0085

> <Gold.Chemscore.Internal_Hbond>
0.0000

> <Gold.Chemscore.DEClash>
0.1763

> <Gold.Chemscore.DEInternal>
1.0067

> <Gold.Chemscore.Rot>
3.6957

> <Gold.Chemscore.Internal.Correction>
   9.000000E+99

> <Gold.Chemscore.Hbonds>
donor molecule, donor type, donor heavy atom, donor atom, acceptor molecule, acceptor atom, score
      L1  H    20    45       P1 10747  0.80
      P1  H  6896  6907       L1    13  0.73

> <Gold.Chemscore.Hbond.Weighted>
-6.0940

> <Gold.Chemscore.Metal.Weighted>
-0.0000

> <Gold.Chemscore.Lipo.Weighted>
-10.0630

> <Gold.Chemscore.Internal_Hbond.Weighted>
0.0000

> <Gold.Chemscore.DEClash.Weighted>
0.1763

> <Gold.Chemscore.DEInternal.Weighted>
1.0067

> <Gold.Chemscore.Rot.Weighted>
9.4610

> <Gold.Chemscore.Internal.Correction.Weighted>
   9.000000E+99

> <Gold.Protein.RotatedTorsions>
[ 6907 6896 6895 6894 ] final -146.14 input  -60.11 | X-H torsion
[ 7974 7965 7964 7962 ] final -160.26 input  175.53 | X-H torsion
[ 8008 7997 7996 7995 ] final   -7.47 input   59.86 | X-H torsion
[ 10167 10162 10161 10158 ] final -101.98 input  -65.29 | X-H torsion
[ 10718 10713 10712 10709 ] final -135.98 input   66.30 | X-H torsion
[ 10763 10752 10751 10750 ] final  140.85 input  -60.55 | X-H torsion
[ 11005 11000 10999 10996 ] final  164.46 input  -57.11 | X-H torsion

> <Gold.Protein.ActiveResidues>
 VAL166  LYS551  ARG553  GLY616  TRP617  ASP618  TYR619  PRO620  LYS621  CYS622 
 ASP623  PHE694  ASN695  SER759  ASP760  ASP761  ALA762  ILE779  LEU786  VAL792 
 PHE793  MET794  SER795  GLU796  ALA797  LYS798  CYS799  TRP800  GLU811  SER814 

> <Gold.Protein.RotatedAtoms>
  151.1376  133.4994  159.2597 H   0  0  0  0  0  0  0  0  0  0  0  0  # atno 6907 bound_to 6896
  151.1690  135.0308  159.8753 H   0  0  0  0  0  0  0  0  0  0  0  0  # atno 6908 bound_to 6896
  152.5461  134.1241  159.8464 H   0  0  0  0  0  0  0  0  0  0  0  0  # atno 6909 bound_to 6896
  144.7434  140.3567  143.6104 H   0  0  0  0  0  0  0  0  0  0  0  0  # atno 7974 bound_to 7965
  154.5835  140.2406  155.8020 H   0  0  0  0  0  0  0  0  0  0  0  0  # atno 8008 bound_to 7997
  156.2196  140.3001  155.9877 H   0  0  0  0  0  0  0  0  0  0  0  0  # atno 8009 bound_to 7997
  155.2499  140.0410  157.2976 H   0  0  0  0  0  0  0  0  0  0  0  0  # atno 8010 bound_to 7997
  140.2355  143.3576  152.0849 H   0  0  0  0  0  0  0  0  0  0  0  0  # atno 10167 bound_to 10162
  156.2721  130.7271  151.1241 H   0  0  0  0  0  0  0  0  0  0  0  0  # atno 10718 bound_to 10713
  153.9295  135.2992  155.3446 H   0  0  0  0  0  0  0  0  0  0  0  0  # atno 10763 bound_to 10752
  154.7534  135.4969  153.9334 H   0  0  0  0  0  0  0  0  0  0  0  0  # atno 10764 bound_to 10752
  153.1099  135.6756  153.9623 H   0  0  0  0  0  0  0  0  0  0  0  0  # atno 10765 bound_to 10752
  140.2462  134.8013  157.3458 H   0  0  0  0  0  0  0  0  0  0  0  0  # atno 11005 bound_to 11000
  145.7219  139.1712  143.2479 LP  0  0  0  0  0  0  0  0  0  0  0  0  # atno 17320 bound_to 7965
  146.1270  140.7235  142.9430 LP  0  0  0  0  0  0  0  0  0  0  0  0  # atno 17321 bound_to 7965
  139.5095  144.6868  151.5865 LP  0  0  0  0  0  0  0  0  0  0  0  0  # atno 17342 bound_to 10162
  140.6153  143.9360  150.6484 LP  0  0  0  0  0  0  0  0  0  0  0  0  # atno 17343 bound_to 10162
  157.7287  131.0630  150.5807 LP  0  0  0  0  0  0  0  0  0  0  0  0  # atno 17370 bound_to 10713
  156.5905  130.4328  149.5939 LP  0  0  0  0  0  0  0  0  0  0  0  0  # atno 17371 bound_to 10713
  140.1604  134.4736  155.7899 LP  0  0  0  0  0  0  0  0  0  0  0  0  # atno 17394 bound_to 11000
  141.2206  133.6899  156.7534 LP  0  0  0  0  0  0  0  0  0  0  0  0  # atno 17395 bound_to 11000

$$$$
