AV-unprocessed.smi:1113|AV-procd|sdf|4798|dock3
  -GOLD-   22720 3343D 1   1.00000     0.00000
 Structure written by MMmdl.
 40 41  0  0  0  0  0  0  0  0  1 V2000
  145.9304  134.5190  151.4351 C   0  0  0  0  0  0  0  0  0  0  0  0
  145.0102  135.7043  151.1162 C   0  0  2  0  0  0  0  0  0  0  0  0
  145.4777  136.2952  149.9206 O   0  0  0  0  0  0  0  0  0  0  0  0
  145.0263  136.7624  152.2364 C   0  0  0  0  0  0  0  0  0  0  0  0
  146.3869  137.0984  152.6426 N   0  0  0  0  0  0  0  0  0  0  0  0
  146.7120  138.0141  153.5657 C   0  0  0  0  0  0  0  0  0  0  0  0
  145.8807  138.6723  154.1909 O   0  0  0  0  0  0  0  0  0  0  0  0
  148.0454  138.1243  153.6902 N   0  0  0  0  0  0  0  0  0  0  0  0
  148.7869  138.9727  154.5558 C   0  0  0  0  0  0  0  0  0  0  0  0
  148.2886  139.5090  155.7669 C   0  0  0  0  0  0  0  0  0  0  0  0
  149.1319  140.3217  156.5486 C   0  0  0  0  0  0  0  0  0  0  0  0
  150.4462  140.5679  156.1018 C   0  0  0  0  0  0  0  0  0  0  0  0
  151.2890  141.3750  156.8789 N   0  0  0  0  0  0  0  0  0  0  0  0
  150.8112  142.7450  157.0204 C   0  0  0  0  0  0  0  0  0  0  0  0
  151.8505  143.5894  157.7782 C   0  0  0  0  0  0  0  0  0  0  0  0
  152.1364  142.9812  159.0347 O   0  0  0  0  0  0  0  0  0  0  0  0
  152.6733  141.6698  158.8839 C   0  0  0  0  0  0  0  0  0  0  0  0
  151.6540  140.7761  158.1567 C   0  0  0  0  0  0  0  0  0  0  0  0
  150.9333  140.0485  154.9502 N   0  0  0  0  0  0  0  0  0  0  0  0
  150.1201  139.2698  154.2059 C   0  0  0  0  0  0  0  0  0  0  0  0
  145.6065  134.0074  152.3419 H   0  0  0  0  0  0  0  0  0  0  0  0
  146.9609  134.8425  151.5861 H   0  0  0  0  0  0  0  0  0  0  0  0
  145.9247  133.7874  150.6263 H   0  0  0  0  0  0  0  0  0  0  0  0
  143.9987  135.3293  150.9539 H   0  0  0  0  0  0  0  0  0  0  0  0
  145.5165  135.6292  149.2517 H   0  0  0  0  0  0  0  0  0  0  0  0
  144.5268  137.6723  151.8988 H   0  0  0  0  0  0  0  0  0  0  0  0
  144.4656  136.4166  153.1058 H   0  0  0  0  0  0  0  0  0  0  0  0
  147.1346  136.6110  152.1706 H   0  0  0  0  0  0  0  0  0  0  0  0
  148.5968  137.5761  153.0463 H   0  0  0  0  0  0  0  0  0  0  0  0
  147.2897  139.3036  156.1190 H   0  0  0  0  0  0  0  0  0  0  0  0
  148.7751  140.7432  157.4770 H   0  0  0  0  0  0  0  0  0  0  0  0
  150.6247  143.1753  156.0356 H   0  0  0  0  0  0  0  0  0  0  0  0
  149.8639  142.7524  157.5613 H   0  0  0  0  0  0  0  0  0  0  0  0
  152.7675  143.6924  157.1955 H   0  0  0  0  0  0  0  0  0  0  0  0
  151.4665  144.5951  157.9488 H   0  0  0  0  0  0  0  0  0  0  0  0
  153.6154  141.7123  158.3347 H   0  0  0  0  0  0  0  0  0  0  0  0
  152.8969  141.2611  159.8692 H   0  0  0  0  0  0  0  0  0  0  0  0
  150.7641  140.6519  158.7755 H   0  0  0  0  0  0  0  0  0  0  0  0
  152.0752  139.7835  157.9925 H   0  0  0  0  0  0  0  0  0  0  0  0
  150.5497  138.8740  153.2972 H   0  0  0  0  0  0  0  0  0  0  0  0
  1  2  1  0  0  0  0
  1 21  1  0  0  0  0
  1 22  1  0  0  0  0
  1 23  1  0  0  0  0
  2  3  1  0  0  0  0
  2  4  1  0  0  0  0
  2 24  1  0  0  0  0
  3 25  1  0  0  0  0
  4  5  1  0  0  0  0
  4 26  1  0  0  0  0
  4 27  1  0  0  0  0
  5  6  1  0  0  0  0
  5 28  1  0  0  0  0
  6  7  2  0  0  0  0
  6  8  1  0  0  0  0
  8  9  1  0  0  0  0
  8 29  1  0  0  0  0
  9 20  1  0  0  0  0
  9 10  2  0  0  0  0
 10 11  1  0  0  0  0
 10 30  1  0  0  0  0
 11 12  2  0  0  0  0
 11 31  1  0  0  0  0
 12 13  1  0  0  0  0
 12 19  1  0  0  0  0
 13 18  1  0  0  0  0
 13 14  1  0  0  0  0
 14 15  1  0  0  0  0
 14 32  1  0  0  0  0
 14 33  1  0  0  0  0
 15 16  1  0  0  0  0
 15 34  1  0  0  0  0
 15 35  1  0  0  0  0
 16 17  1  0  0  0  0
 17 18  1  0  0  0  0
 17 36  1  0  0  0  0
 17 37  1  0  0  0  0
 18 38  1  0  0  0  0
 18 39  1  0  0  0  0
 19 20  2  0  0  0  0
 20 40  1  0  0  0  0
M  END
> <s_m_source_file>
AV-unprocessed.smi

> <i_m_source_file_index>
1113

> <i_lp_mmshare_version>
43012

> <i_f3d_flags>
0

> <s_epik_input>
W0NIM11bQ0BIXShbT0hdKVtDSDJdW05IXUMoPU8pW05IXWMxW2NIXVtjSF1jKG5bY0hdMSlOMltDSDJdW0NIMl1PW0NIMl1bQ0gyXTI=

> <s_epik_cmdline>
J2VwaWtfcHl0aG9uJywgJy1waCcsICc3LjAnLCAnLXRuJywgJzgnLCAnLW1hJywgJzIwMCcsICctbWV0YWxfYmluZGluZycsICctaW1hZScsICc8aW5maWxlLm1hZT4nLCAnLW9tYWUnLCAnPG91dGZpbGUubWFlPic=

> <r_lp_tautomer_probability>
1

> <r_epik_Ionization_Penalty>
0.00204837

> <r_epik_Ionization_Penalty_Charging>
0

> <r_epik_Ionization_Penalty_Neutral>
0.00204837

> <r_epik_State_Penalty>
0.00137592

> <r_epik_Charging_Adjusted_Penalty>
0.00137592

> <i_epik_Tot_Q>
0

> <i_epik_Tot_abs_Q>
0

> <r_epik_Metal_State_Penalty>
-0

> <b_epik_Metal_Only>
0

> <s_lp_Force_Field>
OPLS_2005

> <r_lp_Energy>
20.5006

> <b_lp_Chiralities_Consistent>
1

> <s_lp_Variant>
AV-unprocessed.smi:1113-1

> <Gold.Version>
5.8.1

> <Gold.Id.Protein>
6NUR|6NUR_protein|mol2

> <Gold.PLP.Fitness>
43.7294

> <Gold.PLP.PLP>
-30.8326

> <Gold.PLP.part.hbond>
-5.0000

> <Gold.PLP.part.metal>
0.0000

> <Gold.PLP.part.buried>
-5.6864

> <Gold.PLP.part.nonpolar>
-21.2173

> <Gold.PLP.part.repulsive>
0.2281

> <Gold.PLP.ligand.clash>
0.0000

> <Gold.PLP.ligand.torsion>
0.2424

> <Gold.PLP.Chemscore.Hbond>
3.6500

> <Gold.PLP.Chemscore.CHOScore>
0.7697

> <Gold.PLP.Chemscore.Metal>
0.0000

> <Gold.Chemscore.Hbonds>
donor molecule, donor type, donor heavy atom, donor atom, acceptor molecule, acceptor atom, score
      L1  H     3    25       P1  7921  1.00
      L1  H     5    28       P1  7948  1.00
      L1  H     8    29       P1  7948  1.00
      P1  H  7989  7998       L1    19  0.65
      L1  C    20    40       P1  7957  0.57

> <Gold.PLP.Chemscore.Internal.Correction>
0.1223

> <Gold.Rescore>
     Score         DG    S(hbond)    S(metal)    S(lipo)     H(rot)  DE(clash)    DE(int)     intcor
     17.33     -18.33       3.01        0.00      69.52       2.08       0.03       0.97       ----

> <Gold.Chemscore.Fitness>
17.3254

> <Gold.Chemscore.DG>
-18.3309

> <Gold.Chemscore.ZeroCoef>
-5.4800

> <Gold.Chemscore.Hbond>
3.0064

> <Gold.Chemscore.Metal>
0.0000

> <Gold.Chemscore.Lipo>
69.5217

> <Gold.Chemscore.Internal_Hbond>
0.0000

> <Gold.Chemscore.DEClash>
0.0348

> <Gold.Chemscore.DEInternal>
0.9708

> <Gold.Chemscore.Rot>
2.0799

> <Gold.Chemscore.Internal.Correction>
   9.000000E+99

> <Gold.Chemscore.Hbonds>
donor molecule, donor type, donor heavy atom, donor atom, acceptor molecule, acceptor atom, score
      L1  H     3    25       P1  7921  0.98
      L1  H     5    28       P1  7948  0.98
      L1  H     8    29       P1  7948  0.99
      P1  H  7989  7998       L1    19  0.06

> <Gold.Chemscore.Hbond.Weighted>
-10.0415

> <Gold.Chemscore.Metal.Weighted>
-0.0000

> <Gold.Chemscore.Lipo.Weighted>
-8.1340

> <Gold.Chemscore.Internal_Hbond.Weighted>
0.0000

> <Gold.Chemscore.DEClash.Weighted>
0.0348

> <Gold.Chemscore.DEInternal.Weighted>
0.9708

> <Gold.Chemscore.Rot.Weighted>
5.3246

> <Gold.Chemscore.Internal.Correction.Weighted>
   9.000000E+99

> <Gold.Protein.RotatedTorsions>
[ 6907 6896 6895 6894 ] final  -93.08 input  -60.11 | X-H torsion
[ 7974 7965 7964 7962 ] final  144.29 input  175.53 | X-H torsion
[ 8008 7997 7996 7995 ] final  -16.47 input   59.86 | X-H torsion
[ 10167 10162 10161 10158 ] final  -81.95 input  -65.29 | X-H torsion
[ 10718 10713 10712 10709 ] final  -74.21 input   66.30 | X-H torsion
[ 10763 10752 10751 10750 ] final   34.69 input  -60.55 | X-H torsion
[ 11005 11000 10999 10996 ] final  144.41 input  -57.11 | X-H torsion

> <Gold.Protein.ActiveResidues>
 VAL166  LYS551  ARG553  GLY616  TRP617  ASP618  TYR619  PRO620  LYS621  CYS622 
 ASP623  PHE694  ASN695  SER759  ASP760  ASP761  ALA762  ILE779  LEU786  VAL792 
 PHE793  MET794  SER795  GLU796  ALA797  LYS798  CYS799  TRP800  GLU811  SER814 

> <Gold.Protein.RotatedAtoms>
  150.6916  134.2022  159.4326 H   0  0  0  0  0  0  0  0  0  0  0  0  # atno 6907 bound_to 6896
  151.9988  134.9937  160.0573 H   0  0  0  0  0  0  0  0  0  0  0  0  # atno 6908 bound_to 6896
  152.1598  133.4540  159.4892 H   0  0  0  0  0  0  0  0  0  0  0  0  # atno 6909 bound_to 6896
  144.8848  139.5645  143.5826 H   0  0  0  0  0  0  0  0  0  0  0  0  # atno 7974 bound_to 7965
  154.5051  140.2169  155.9268 H   0  0  0  0  0  0  0  0  0  0  0  0  # atno 8008 bound_to 7997
  156.1483  140.3166  155.8573 H   0  0  0  0  0  0  0  0  0  0  0  0  # atno 8009 bound_to 7997
  155.3988  140.0483  157.3028 H   0  0  0  0  0  0  0  0  0  0  0  0  # atno 8010 bound_to 7997
  140.4365  143.2530  151.8686 H   0  0  0  0  0  0  0  0  0  0  0  0  # atno 10167 bound_to 10162
  156.0251  130.4412  150.2858 H   0  0  0  0  0  0  0  0  0  0  0  0  # atno 10718 bound_to 10713
  153.0152  135.6353  154.1709 H   0  0  0  0  0  0  0  0  0  0  0  0  # atno 10763 bound_to 10752
  154.1449  135.2832  155.3153 H   0  0  0  0  0  0  0  0  0  0  0  0  # atno 10764 bound_to 10752
  154.6097  135.5560  153.7521 H   0  0  0  0  0  0  0  0  0  0  0  0  # atno 10765 bound_to 10752
  140.0630  134.9194  157.1216 H   0  0  0  0  0  0  0  0  0  0  0  0  # atno 11005 bound_to 11000
  146.3017  139.7449  142.9086 LP  0  0  0  0  0  0  0  0  0  0  0  0  # atno 17320 bound_to 7965
  145.3889  141.0369  143.3135 LP  0  0  0  0  0  0  0  0  0  0  0  0  # atno 17321 bound_to 7965
  139.4787  144.5277  151.8711 LP  0  0  0  0  0  0  0  0  0  0  0  0  # atno 17342 bound_to 10162
  140.4368  144.2041  150.5889 LP  0  0  0  0  0  0  0  0  0  0  0  0  # atno 17343 bound_to 10162
  157.0962  131.0183  151.3103 LP  0  0  0  0  0  0  0  0  0  0  0  0  # atno 17370 bound_to 10713
  157.4816  130.7768  149.7419 LP  0  0  0  0  0  0  0  0  0  0  0  0  # atno 17371 bound_to 10713
  140.3741  134.2358  155.7175 LP  0  0  0  0  0  0  0  0  0  0  0  0  # atno 17394 bound_to 11000
  141.1981  133.8043  157.0598 LP  0  0  0  0  0  0  0  0  0  0  0  0  # atno 17395 bound_to 11000

$$$$
