AV-unprocessed.smi:2243|AV-procd|sdf|9064|dock1
  -GOLD-   2272012273D 1   1.00000     0.00000
 Structure written by MMmdl.
 35 36  0  0  0  0  0  0  0  0  2 V2000
  146.8075  141.5492  153.9237 C   0  0  0  0  0  0  0  0  0  0  0  0
  147.6738  140.3078  153.6490 C   0  0  2  0  0  0  0  0  0  0  0  0
  146.7988  139.1344  153.6643 N   0  0  0  0  0  0  0  0  0  0  0  0
  146.5733  138.3063  152.6322 C   0  0  0  0  0  0  0  0  0  0  0  0
  147.0942  138.4312  151.5235 O   0  0  0  0  0  0  0  0  0  0  0  0
  145.7149  137.3295  152.9628 N   0  0  0  0  0  0  0  0  0  0  0  0
  145.2713  136.2964  152.1052 C   0  0  0  0  0  0  0  0  0  0  0  0
  146.0825  135.4287  151.5019 N   0  3  0  0  0  0  0  0  0  0  0  0
  145.3242  134.5672  150.7483 C   0  0  0  0  0  0  0  0  0  0  0  0
  144.0201  134.9610  150.9298 C   0  0  0  0  0  0  0  0  0  0  0  0
  143.9707  136.0471  151.7806 O   0  0  0  0  0  0  0  0  0  0  0  0
  148.8376  140.1343  154.6614 C   0  0  0  0  0  0  0  0  0  0  0  0
  149.5897  141.4543  154.9295 C   0  0  0  0  0  0  0  0  0  0  0  0
  150.7855  141.2383  155.8714 C   0  0  0  0  0  0  0  0  0  0  0  0
  151.6652  140.2628  155.3272 O   0  0  0  0  0  0  0  0  0  0  0  0
  151.0496  138.9890  155.1862 C   0  0  0  0  0  0  0  0  0  0  0  0
  149.8698  139.0806  154.2052 C   0  0  0  0  0  0  0  0  0  0  0  0
  147.3715  142.4726  153.7954 H   0  0  0  0  0  0  0  0  0  0  0  0
  146.4061  141.5391  154.9375 H   0  0  0  0  0  0  0  0  0  0  0  0
  145.9641  141.5980  153.2337 H   0  0  0  0  0  0  0  0  0  0  0  0
  148.1096  140.4302  152.6558 H   0  0  0  0  0  0  0  0  0  0  0  0
  146.3236  138.9460  154.5350 H   0  0  0  0  0  0  0  0  0  0  0  0
  147.0919  135.3779  151.5618 H   0  0  0  0  0  0  0  0  0  0  0  0
  145.7786  133.7757  150.1698 H   0  0  0  0  0  0  0  0  0  0  0  0
  143.0728  134.6026  150.5539 H   0  0  0  0  0  0  0  0  0  0  0  0
  148.4143  139.7938  155.6078 H   0  0  0  0  0  0  0  0  0  0  0  0
  149.9445  141.8756  153.9881 H   0  0  0  0  0  0  0  0  0  0  0  0
  148.9262  142.1955  155.3739 H   0  0  0  0  0  0  0  0  0  0  0  0
  151.3336  142.1721  155.9981 H   0  0  0  0  0  0  0  0  0  0  0  0
  150.4498  140.9299  156.8628 H   0  0  0  0  0  0  0  0  0  0  0  0
  151.7906  138.2807  154.8148 H   0  0  0  0  0  0  0  0  0  0  0  0
  150.7191  138.6220  156.1594 H   0  0  0  0  0  0  0  0  0  0  0  0
  149.4087  138.0969  154.1181 H   0  0  0  0  0  0  0  0  0  0  0  0
  150.2438  139.3377  153.2132 H   0  0  0  0  0  0  0  0  0  0  0  0
  145.3488  137.3246  153.9033 H   0  0  0  0  0  0  0  0  0  0  0  0
  1  2  1  0  0  0  0
  1 18  1  0  0  0  0
  1 19  1  0  0  0  0
  1 20  1  0  0  0  0
  2  3  1  0  0  0  0
  2 12  1  0  0  0  0
  2 21  1  0  0  0  0
  3 22  1  0  0  0  0
  3  4  1  0  0  0  0
  4  6  1  0  0  0  0
  4  5  2  0  0  0  0
  6  7  1  0  0  0  0
  6 35  1  0  0  0  0
  7 11  1  0  0  0  0
  7  8  2  0  0  0  0
  8 23  1  0  0  0  0
  8  9  1  0  0  0  0
  9 24  1  0  0  0  0
  9 10  2  0  0  0  0
 10 25  1  0  0  0  0
 10 11  1  0  0  0  0
 12 17  1  0  0  0  0
 12 13  1  0  0  0  0
 12 26  1  0  0  0  0
 13 14  1  0  0  0  0
 13 27  1  0  0  0  0
 13 28  1  0  0  0  0
 14 15  1  0  0  0  0
 14 29  1  0  0  0  0
 14 30  1  0  0  0  0
 15 16  1  0  0  0  0
 16 17  1  0  0  0  0
 16 31  1  0  0  0  0
 16 32  1  0  0  0  0
 17 33  1  0  0  0  0
 17 34  1  0  0  0  0
M  CHG  1   8   1
M  END
> <s_m_source_file>
AV-unprocessed.smi

> <i_m_source_file_index>
2243

> <i_lp_mmshare_version>
43012

> <i_f3d_flags>
0

> <s_epik_input>
W0NIMl0xW0NIMl1PW0NIMl1bQ0gyXVtDSF0xW0NASF0oW0NIM10pW05IXUMoPU8pW05IXWMybltjSF1bY0hdbzI=

> <s_epik_cmdline>
J2VwaWtfcHl0aG9uJywgJy1waCcsICc3LjAnLCAnLXRuJywgJzgnLCAnLW1hJywgJzIwMCcsICctbWV0YWxfYmluZGluZycsICctaW1hZScsICc8aW5maWxlLm1hZT4nLCAnLW9tYWUnLCAnPG91dGZpbGUubWFlPic=

> <r_epik_Ionization_Penalty>
6.61405

> <r_epik_Ionization_Penalty_Charging>
6.55981

> <r_epik_Ionization_Penalty_Neutral>
0.0542461

> <r_epik_State_Penalty>
1.79186

> <r_epik_Charging_Adjusted_Penalty>
8.35167

> <i_epik_Tot_Q>
1

> <i_epik_Tot_abs_Q>
1

> <r_epik_Metal_State_Penalty>
1.80655

> <b_epik_Metal_Only>
0

> <s_lp_Force_Field>
OPLS_2005

> <r_lp_Energy>
19.6033

> <b_lp_Chiralities_Consistent>
1

> <s_lp_Variant>
AV-unprocessed.smi:2243-3

> <Gold.Version>
5.8.1

> <Gold.Id.Protein>
6NUR|6NUR_protein|mol2

> <Gold.PLP.Fitness>
42.0355

> <Gold.PLP.PLP>
-28.8087

> <Gold.PLP.part.hbond>
-3.0000

> <Gold.PLP.part.metal>
0.0000

> <Gold.PLP.part.buried>
-3.5057

> <Gold.PLP.part.nonpolar>
-26.6941

> <Gold.PLP.part.repulsive>
3.3338

> <Gold.PLP.ligand.clash>
0.0000

> <Gold.PLP.ligand.torsion>
0.7144

> <Gold.PLP.Chemscore.Hbond>
3.8800

> <Gold.PLP.Chemscore.CHOScore>
1.0000

> <Gold.PLP.Chemscore.Metal>
0.0000

> <Gold.Chemscore.Hbonds>
donor molecule, donor type, donor heavy atom, donor atom, acceptor molecule, acceptor atom, score
      L1  H     8    23       P1  7948  2.00
      P1  H  7954  7966       L1     5  1.00
      P1  H  7989  7998       L1    15  0.79
      L1  C    10    25       P1 10186  1.00

> <Gold.PLP.Chemscore.Internal.Correction>
0.0157

> <Gold.Rescore>
     Score         DG    S(hbond)    S(metal)    S(lipo)     H(rot)  DE(clash)    DE(int)     intcor
     13.86     -16.01       2.00        0.00      62.15       1.33       1.51       0.64       ----

> <Gold.Chemscore.Fitness>
13.8636

> <Gold.Chemscore.DG>
-16.0149

> <Gold.Chemscore.ZeroCoef>
-5.4800

> <Gold.Chemscore.Hbond>
1.9979

> <Gold.Chemscore.Metal>
0.0000

> <Gold.Chemscore.Lipo>
62.1548

> <Gold.Chemscore.Internal_Hbond>
0.0000

> <Gold.Chemscore.DEClash>
1.5066

> <Gold.Chemscore.DEInternal>
0.6446

> <Gold.Chemscore.Rot>
1.3321

> <Gold.Chemscore.Internal.Correction>
   9.000000E+99

> <Gold.Chemscore.Hbonds>
donor molecule, donor type, donor heavy atom, donor atom, acceptor molecule, acceptor atom, score
      L1  H     8    23       P1  7948  0.89
      P1  H  7954  7966       L1     5  0.93
      P1  H  7989  7998       L1    15  0.05

> <Gold.Chemscore.Hbond.Weighted>
-6.6730

> <Gold.Chemscore.Metal.Weighted>
-0.0000

> <Gold.Chemscore.Lipo.Weighted>
-7.2721

> <Gold.Chemscore.Internal_Hbond.Weighted>
0.0000

> <Gold.Chemscore.DEClash.Weighted>
1.5066

> <Gold.Chemscore.DEInternal.Weighted>
0.6446

> <Gold.Chemscore.Rot.Weighted>
3.4103

> <Gold.Chemscore.Internal.Correction.Weighted>
   9.000000E+99

> <Gold.Protein.RotatedTorsions>
[ 6907 6896 6895 6894 ] final  157.56 input  -60.11 | X-H torsion
[ 7974 7965 7964 7962 ] final -134.48 input  175.53 | X-H torsion
[ 8008 7997 7996 7995 ] final -105.62 input   59.86 | X-H torsion
[ 10167 10162 10161 10158 ] final  139.56 input  -65.29 | X-H torsion
[ 10718 10713 10712 10709 ] final  -74.28 input   66.30 | X-H torsion
[ 10763 10752 10751 10750 ] final   38.32 input  -60.55 | X-H torsion
[ 11005 11000 10999 10996 ] final -147.91 input  -57.11 | X-H torsion

> <Gold.Protein.ActiveResidues>
 VAL166  LYS551  ARG553  GLY616  TRP617  ASP618  TYR619  PRO620  LYS621  CYS622 
 ASP623  PHE694  ASN695  SER759  ASP760  ASP761  ALA762  ILE779  LEU786  VAL792 
 PHE793  MET794  SER795  GLU796  ALA797  LYS798  CYS799  TRP800  GLU811  SER814 

> <Gold.Protein.RotatedAtoms>
  152.0132  133.3869  159.4228 H   0  0  0  0  0  0  0  0  0  0  0  0  # atno 6907 bound_to 6896
  150.6897  134.3707  159.5000 H   0  0  0  0  0  0  0  0  0  0  0  0  # atno 6908 bound_to 6896
  152.1470  134.9017  160.0601 H   0  0  0  0  0  0  0  0  0  0  0  0  # atno 6909 bound_to 6896
  144.9099  140.6881  143.5032 H   0  0  0  0  0  0  0  0  0  0  0  0  # atno 7974 bound_to 7965
  154.9026  140.0412  157.1901 H   0  0  0  0  0  0  0  0  0  0  0  0  # atno 8008 bound_to 7997
  154.8428  140.2917  155.5627 H   0  0  0  0  0  0  0  0  0  0  0  0  # atno 8009 bound_to 7997
  156.2993  140.2479  156.3374 H   0  0  0  0  0  0  0  0  0  0  0  0  # atno 8010 bound_to 7997
  139.5075  144.6287  151.5872 H   0  0  0  0  0  0  0  0  0  0  0  0  # atno 10167 bound_to 10162
  156.0248  130.4413  150.2869 H   0  0  0  0  0  0  0  0  0  0  0  0  # atno 10718 bound_to 10713
  153.0005  135.6252  154.2286 H   0  0  0  0  0  0  0  0  0  0  0  0  # atno 10763 bound_to 10752
  154.2029  135.2803  155.2986 H   0  0  0  0  0  0  0  0  0  0  0  0  # atno 10764 bound_to 10752
  154.5669  135.5688  153.7118 H   0  0  0  0  0  0  0  0  0  0  0  0  # atno 10765 bound_to 10752
  140.7667  134.3236  157.5086 H   0  0  0  0  0  0  0  0  0  0  0  0  # atno 11005 bound_to 11000
  145.3472  139.1716  143.4454 LP  0  0  0  0  0  0  0  0  0  0  0  0  # atno 17320 bound_to 7965
  146.3153  140.3520  142.8657 LP  0  0  0  0  0  0  0  0  0  0  0  0  # atno 17321 bound_to 7965
  140.6012  143.9606  150.6388 LP  0  0  0  0  0  0  0  0  0  0  0  0  # atno 17342 bound_to 10162
  140.2818  143.3384  152.1144 LP  0  0  0  0  0  0  0  0  0  0  0  0  # atno 17343 bound_to 10162
  157.0972  131.0186  151.3099 LP  0  0  0  0  0  0  0  0  0  0  0  0  # atno 17370 bound_to 10713
  157.4808  130.7764  149.7412 LP  0  0  0  0  0  0  0  0  0  0  0  0  # atno 17371 bound_to 10713
  139.8762  134.9235  156.3328 LP  0  0  0  0  0  0  0  0  0  0  0  0  # atno 17394 bound_to 11000
  140.9612  133.7387  156.0404 LP  0  0  0  0  0  0  0  0  0  0  0  0  # atno 17395 bound_to 11000

$$$$
