AV-unprocessed.smi:119|AV-procd|sdf|1135|dock9
  -GOLD-   2262018263D 1   1.00000     0.00000
 Structure written by MMmdl.
 51 54  0  0  0  0  0  0  0  0  1 V2000
  147.4886  136.8751  162.9077 C   0  0  0  0  0  0  0  0  0  0  0  0
  148.4534  135.8001  162.3821 C   0  0  2  0  0  0  0  0  0  0  0  0
  148.8776  136.0110  160.9147 C   0  0  0  0  0  0  0  0  0  0  0  0
  147.7499  135.9363  159.8653 C   0  0  0  0  0  0  0  0  0  0  0  0
  147.2072  134.5810  159.7042 N   0  0  0  0  0  0  0  0  0  0  0  0
  147.7187  133.6628  158.8429 C   0  0  0  0  0  0  0  0  0  0  0  0
  147.2627  132.5189  158.7633 O   0  0  0  0  0  0  0  0  0  0  0  0
  148.9041  134.0555  157.9329 C   0  0  0  0  0  0  0  0  0  0  0  0
  148.9977  133.2429  156.6994 N   0  0  0  0  0  0  0  0  0  0  0  0
  150.0280  132.2763  156.6032 C   0  0  0  0  0  0  0  0  0  0  0  0
  150.8389  132.1138  157.5166 O   0  0  0  0  0  0  0  0  0  0  0  0
  150.0486  131.5010  155.3688 C   0  0  0  0  0  0  0  0  0  0  0  0
  151.0014  130.5715  155.1839 F   0  0  0  0  0  0  0  0  0  0  0  0
  149.1284  131.7030  154.4029 C   0  0  0  0  0  0  0  0  0  0  0  0
  148.1189  132.6452  154.5116 N   0  0  0  0  0  0  0  0  0  0  0  0
  147.0462  132.8401  153.4581 C   0  0  1  0  0  0  0  0  0  0  0  0
  147.5430  133.1455  152.0424 C   0  0  0  0  0  0  0  0  0  0  0  0
  146.3200  132.7422  151.2516 C   0  0  0  0  0  0  0  0  0  0  0  0
  145.8759  131.4859  152.0011 C   0  0  0  0  0  0  0  0  0  0  0  0
  146.3156  131.6554  153.3482 O   0  0  0  0  0  0  0  0  0  0  0  0
  148.0351  133.4358  155.6800 C   0  0  0  0  0  0  0  0  0  0  0  0
  147.1383  134.2726  155.8086 O   0  0  0  0  0  0  0  0  0  0  0  0
  146.0929  134.2443  160.5193 C   0  0  0  0  0  0  0  0  0  0  0  0
  144.8135  134.1346  159.9297 C   0  0  0  0  0  0  0  0  0  0  0  0
  143.6950  133.8012  160.7166 C   0  0  0  0  0  0  0  0  0  0  0  0
  143.8485  133.5748  162.0973 C   0  0  0  0  0  0  0  0  0  0  0  0
  145.1204  133.6827  162.6912 C   0  0  0  0  0  0  0  0  0  0  0  0
  146.2428  134.0215  161.9094 C   0  0  0  0  0  0  0  0  0  0  0  0
  147.8220  134.1258  162.6975 S   0  0  0  0  0  0  0  0  0  0  0  0
  147.9006  137.8745  162.7656 H   0  0  0  0  0  0  0  0  0  0  0  0
  147.3059  136.7439  163.9745 H   0  0  0  0  0  0  0  0  0  0  0  0
  146.5222  136.8394  162.4054 H   0  0  0  0  0  0  0  0  0  0  0  0
  149.3626  135.8766  162.9793 H   0  0  0  0  0  0  0  0  0  0  0  0
  149.3495  136.9909  160.8354 H   0  0  0  0  0  0  0  0  0  0  0  0
  149.6612  135.2944  160.6687 H   0  0  0  0  0  0  0  0  0  0  0  0
  146.9414  136.6140  160.1407 H   0  0  0  0  0  0  0  0  0  0  0  0
  148.1087  136.3308  158.9152 H   0  0  0  0  0  0  0  0  0  0  0  0
  148.8166  135.1143  157.6871 H   0  0  0  0  0  0  0  0  0  0  0  0
  149.8371  133.9866  158.4917 H   0  0  0  0  0  0  0  0  0  0  0  0
  149.2229  131.0963  153.5181 H   0  0  0  0  0  0  0  0  0  0  0  0
  146.4084  133.6422  153.8361 H   0  0  0  0  0  0  0  0  0  0  0  0
  147.8315  134.1906  151.9288 H   0  0  0  0  0  0  0  0  0  0  0  0
  148.3641  132.4896  151.7558 H   0  0  0  0  0  0  0  0  0  0  0  0
  145.5542  133.5164  151.3208 H   0  0  0  0  0  0  0  0  0  0  0  0
  146.5287  132.5588  150.1972 H   0  0  0  0  0  0  0  0  0  0  0  0
  144.7970  131.3367  151.9520 H   0  0  0  0  0  0  0  0  0  0  0  0
  146.3604  130.6005  151.5881 H   0  0  0  0  0  0  0  0  0  0  0  0
  144.6879  134.3052  158.8702 H   0  0  0  0  0  0  0  0  0  0  0  0
  142.7199  133.7172  160.2600 H   0  0  0  0  0  0  0  0  0  0  0  0
  142.9907  133.3164  162.7005 H   0  0  0  0  0  0  0  0  0  0  0  0
  145.2325  133.5049  163.7507 H   0  0  0  0  0  0  0  0  0  0  0  0
  1  2  1  0  0  0  0
  1 30  1  0  0  0  0
  1 31  1  0  0  0  0
  1 32  1  0  0  0  0
  2 29  1  0  0  0  0
  2  3  1  0  0  0  0
  2 33  1  0  0  0  0
  3  4  1  0  0  0  0
  3 34  1  0  0  0  0
  3 35  1  0  0  0  0
  4  5  1  0  0  0  0
  4 36  1  0  0  0  0
  4 37  1  0  0  0  0
  5  6  1  0  0  0  0
  5 23  1  0  0  0  0
  6  7  2  0  0  0  0
  6  8  1  0  0  0  0
  8  9  1  0  0  0  0
  8 38  1  0  0  0  0
  8 39  1  0  0  0  0
  9 21  1  0  0  0  0
  9 10  1  0  0  0  0
 10 11  2  0  0  0  0
 10 12  1  0  0  0  0
 12 13  1  0  0  0  0
 12 14  2  0  0  0  0
 14 15  1  0  0  0  0
 14 40  1  0  0  0  0
 15 16  1  0  0  0  0
 15 21  1  0  0  0  0
 16 20  1  0  0  0  0
 16 17  1  0  0  0  0
 16 41  1  0  0  0  0
 17 18  1  0  0  0  0
 17 42  1  0  0  0  0
 17 43  1  0  0  0  0
 18 19  1  0  0  0  0
 18 44  1  0  0  0  0
 18 45  1  0  0  0  0
 19 20  1  0  0  0  0
 19 46  1  0  0  0  0
 19 47  1  0  0  0  0
 21 22  2  0  0  0  0
 23 28  2  0  0  0  0
 23 24  1  0  0  0  0
 24 25  2  0  0  0  0
 24 48  1  0  0  0  0
 25 26  1  0  0  0  0
 25 49  1  0  0  0  0
 26 27  2  0  0  0  0
 26 50  1  0  0  0  0
 27 28  1  0  0  0  0
 27 51  1  0  0  0  0
 28 29  1  0  0  0  0
M  END
> <s_m_source_file>
AV-unprocessed.smi

> <i_m_source_file_index>
119

> <i_lp_mmshare_version>
43012

> <i_f3d_flags>
0

> <s_epik_input>
W2NIXTFbY0hdW2NIXVtjSF1jKGMxMilTW0NASF0oW0NIM10pW0NIMl1bQ0gyXU4yQyg9TylbQ0gyXW4zYyg9TyljKEYpW2NIXW4oYzM9TylbQ0BASF00W0NIMl1bQ0gyXVtDSDJdTzQ=

> <s_epik_cmdline>
J2VwaWtfcHl0aG9uJywgJy1waCcsICc3LjAnLCAnLXRuJywgJzgnLCAnLW1hJywgJzIwMCcsICctbWV0YWxfYmluZGluZycsICctaW1hZScsICc8aW5maWxlLm1hZT4nLCAnLW9tYWUnLCAnPG91dGZpbGUubWFlPic=

> <r_lp_tautomer_probability>
1

> <r_epik_Ionization_Penalty>
1.68882e-06

> <r_epik_Ionization_Penalty_Charging>
3.67303e-09

> <r_epik_Ionization_Penalty_Neutral>
1.68515e-06

> <r_epik_State_Penalty>
-0

> <r_epik_Charging_Adjusted_Penalty>
3.67303e-09

> <i_epik_Tot_Q>
0

> <i_epik_Tot_abs_Q>
0

> <r_epik_Metal_State_Penalty>
-0

> <b_epik_Metal_Only>
0

> <s_epik_Chemistry_Notes>
This compound contains an acetal/aminal-like group ( X-CH(R)-Y where X, Y are N, S, or O) that may be acid/base labile, releasing an aldehyde.

> <s_lp_Force_Field>
OPLS_2005

> <r_lp_Energy>
51.5083

> <b_lp_Chiralities_Consistent>
1

> <s_lp_Variant>
AV-unprocessed.smi:119-3

> <Gold.Version>
5.8.1

> <Gold.Id.Protein>
6NUR|6NUR_protein|mol2

> <Gold.PLP.Fitness>
43.3502

> <Gold.PLP.PLP>
-41.3655

> <Gold.PLP.part.hbond>
-1.0000

> <Gold.PLP.part.metal>
0.0000

> <Gold.PLP.part.buried>
-3.9834

> <Gold.PLP.part.nonpolar>
-36.3001

> <Gold.PLP.part.repulsive>
0.1646

> <Gold.PLP.ligand.clash>
0.0000

> <Gold.PLP.ligand.torsion>
0.5162

> <Gold.PLP.Chemscore.Hbond>
1.0000

> <Gold.PLP.Chemscore.CHOScore>
0.0000

> <Gold.PLP.Chemscore.Metal>
0.0000

> <Gold.Chemscore.Hbonds>
donor molecule, donor type, donor heavy atom, donor atom, acceptor molecule, acceptor atom, score
      P1  H  6896  6908       L1    11  0.63

> <Gold.PLP.Chemscore.Internal.Correction>
0.0171

> <Gold.Rescore>
     Score         DG    S(hbond)    S(metal)    S(lipo)     H(rot)  DE(clash)    DE(int)     intcor
     16.50     -17.23       1.00        0.00     105.32       1.53       0.16       0.57       ----

> <Gold.Chemscore.Fitness>
16.4981

> <Gold.Chemscore.DG>
-17.2276

> <Gold.Chemscore.ZeroCoef>
-5.4800

> <Gold.Chemscore.Hbond>
0.9979

> <Gold.Chemscore.Metal>
0.0000

> <Gold.Chemscore.Lipo>
105.3223

> <Gold.Chemscore.Internal_Hbond>
0.0000

> <Gold.Chemscore.DEClash>
0.1611

> <Gold.Chemscore.DEInternal>
0.5685

> <Gold.Chemscore.Rot>
1.5266

> <Gold.Chemscore.Internal.Correction>
   9.000000E+99

> <Gold.Chemscore.Hbonds>
donor molecule, donor type, donor heavy atom, donor atom, acceptor molecule, acceptor atom, score
      P1  H  6896  6908       L1    11  0.62

> <Gold.Chemscore.Hbond.Weighted>
-3.3330

> <Gold.Chemscore.Metal.Weighted>
-0.0000

> <Gold.Chemscore.Lipo.Weighted>
-12.3227

> <Gold.Chemscore.Internal_Hbond.Weighted>
0.0000

> <Gold.Chemscore.DEClash.Weighted>
0.1611

> <Gold.Chemscore.DEInternal.Weighted>
0.5685

> <Gold.Chemscore.Rot.Weighted>
3.9081

> <Gold.Chemscore.Internal.Correction.Weighted>
   9.000000E+99

> <Gold.Protein.RotatedTorsions>
[ 6907 6896 6895 6894 ] final   93.42 input  -60.11 | X-H torsion
[ 7974 7965 7964 7962 ] final  125.29 input  175.53 | X-H torsion
[ 8008 7997 7996 7995 ] final -179.17 input   59.86 | X-H torsion
[ 10167 10162 10161 10158 ] final  -21.73 input  -65.29 | X-H torsion
[ 10718 10713 10712 10709 ] final  166.60 input   66.30 | X-H torsion
[ 10763 10752 10751 10750 ] final  110.29 input  -60.55 | X-H torsion
[ 11005 11000 10999 10996 ] final -166.34 input  -57.11 | X-H torsion

> <Gold.Protein.ActiveResidues>
 VAL166  LYS551  ARG553  GLY616  TRP617  ASP618  TYR619  PRO620  LYS621  CYS622 
 ASP623  PHE694  ASN695  SER759  ASP760  ASP761  ALA762  ILE779  LEU786  VAL792 
 PHE793  MET794  SER795  GLU796  ALA797  LYS798  CYS799  TRP800  GLU811  SER814 

> <Gold.Protein.RotatedAtoms>
  152.5452  134.1350  159.8454 H   0  0  0  0  0  0  0  0  0  0  0  0  # atno 6907 bound_to 6896
  151.1392  133.4976  159.2604 H   0  0  0  0  0  0  0  0  0  0  0  0  # atno 6908 bound_to 6896
  151.1592  135.0275  159.8757 H   0  0  0  0  0  0  0  0  0  0  0  0  # atno 6909 bound_to 6896
  145.0747  139.3703  143.4940 H   0  0  0  0  0  0  0  0  0  0  0  0  # atno 7974 bound_to 7965
  156.0273  140.1274  157.0295 H   0  0  0  0  0  0  0  0  0  0  0  0  # atno 8008 bound_to 7997
  154.4335  140.1056  156.6120 H   0  0  0  0  0  0  0  0  0  0  0  0  # atno 8009 bound_to 7997
  155.5857  140.3468  155.4555 H   0  0  0  0  0  0  0  0  0  0  0  0  # atno 8010 bound_to 7997
  140.7283  143.4600  151.0393 H   0  0  0  0  0  0  0  0  0  0  0  0  # atno 10167 bound_to 10162
  157.0635  131.0346  151.2638 H   0  0  0  0  0  0  0  0  0  0  0  0  # atno 10718 bound_to 10713
  153.4469  135.3753  155.2261 H   0  0  0  0  0  0  0  0  0  0  0  0  # atno 10763 bound_to 10752
  154.8755  135.3876  154.4086 H   0  0  0  0  0  0  0  0  0  0  0  0  # atno 10764 bound_to 10752
  153.4639  135.7087  153.6097 H   0  0  0  0  0  0  0  0  0  0  0  0  # atno 10765 bound_to 10752
  140.5655  134.5290  157.5152 H   0  0  0  0  0  0  0  0  0  0  0  0  # atno 11005 bound_to 11000
  146.3530  140.0509  142.8636 LP  0  0  0  0  0  0  0  0  0  0  0  0  # atno 17320 bound_to 7965
  145.1250  140.9485  143.4578 LP  0  0  0  0  0  0  0  0  0  0  0  0  # atno 17321 bound_to 7965
  139.8284  143.7725  152.3179 LP  0  0  0  0  0  0  0  0  0  0  0  0  # atno 17342 bound_to 10162
  139.7832  144.7437  151.0059 LP  0  0  0  0  0  0  0  0  0  0  0  0  # atno 17343 bound_to 10162
  157.4935  130.7837  149.7532 LP  0  0  0  0  0  0  0  0  0  0  0  0  # atno 17370 bound_to 10713
  155.9971  130.3902  150.2752 LP  0  0  0  0  0  0  0  0  0  0  0  0  # atno 17371 bound_to 10713
  139.9387  134.7827  156.0735 LP  0  0  0  0  0  0  0  0  0  0  0  0  # atno 17394 bound_to 11000
  141.1088  133.6650  156.2929 LP  0  0  0  0  0  0  0  0  0  0  0  0  # atno 17395 bound_to 11000

$$$$
