AV-unprocessed.smi:475|AV-procd|sdf|2668|dock7
  -GOLD-   2262023 83D 1   1.00000     0.00000
 Structure written by MMmdl.
 40 42  0  0  0  0  0  0  0  0  2 V2000
  147.9286  141.7720  154.0998 C   0  0  0  0  0  0  0  0  0  0  0  0
  149.2740  141.3369  154.0170 O   0  0  0  0  0  0  0  0  0  0  0  0
  150.0112  141.6205  155.1949 C   0  0  0  0  0  0  0  0  0  0  0  0
  149.4768  140.7782  156.3622 C   0  0  0  0  0  0  0  0  0  0  0  0
  150.4877  140.5738  157.4104 N   0  0  0  0  0  0  0  0  0  0  0  0
  150.8815  139.4320  158.0397 C   0  0  0  0  0  0  0  0  0  0  0  0
  150.2469  137.8124  157.7511 S   0  0  0  0  0  0  0  0  0  0  0  0
  149.2210  137.4266  159.2017 C   0  0  0  0  0  0  0  0  0  0  0  0
  149.0188  135.9217  159.4074 C   0  0  0  0  0  0  0  0  0  0  0  0
  149.3549  135.1123  158.5418 O   0  0  0  0  0  0  0  0  0  0  0  0
  148.4089  135.4993  160.6641 C   0  0  0  0  0  0  0  0  0  0  0  0
  147.9889  136.1925  161.7676 C   0  0  0  0  0  0  0  0  0  0  0  0
  147.4671  135.2484  162.7023 C   0  0  0  0  0  0  0  0  0  0  0  0
  147.5798  134.0019  162.1501 C   0  0  0  0  0  0  0  0  0  0  0  0
  148.1553  134.1649  160.9082 N   0  0  0  0  0  0  0  0  0  0  0  0
  151.8543  139.7655  158.9323 N   0  3  0  0  0  0  0  0  0  0  0  0
  152.0904  141.1400  158.8716 C   0  0  0  0  0  0  0  0  0  0  0  0
  152.9802  141.9425  159.5792 C   0  0  0  0  0  0  0  0  0  0  0  0
  152.9734  143.3188  159.2713 C   0  0  0  0  0  0  0  0  0  0  0  0
  152.1073  143.8482  158.2926 C   0  0  0  0  0  0  0  0  0  0  0  0
  151.2085  143.0253  157.5826 C   0  0  0  0  0  0  0  0  0  0  0  0
  151.2184  141.6658  157.8945 C   0  0  0  0  0  0  0  0  0  0  0  0
  148.3633  133.4146  160.2642 H   0  0  0  0  0  0  0  0  0  0  0  0
  147.4089  141.5325  153.1721 H   0  0  0  0  0  0  0  0  0  0  0  0
  147.8713  142.8510  154.2490 H   0  0  0  0  0  0  0  0  0  0  0  0
  147.4034  141.2765  154.9173 H   0  0  0  0  0  0  0  0  0  0  0  0
  151.0677  141.4002  155.0359 H   0  0  0  0  0  0  0  0  0  0  0  0
  149.9322  142.6815  155.4372 H   0  0  0  0  0  0  0  0  0  0  0  0
  148.5890  141.2338  156.8006 H   0  0  0  0  0  0  0  0  0  0  0  0
  149.1692  139.7958  156.0025 H   0  0  0  0  0  0  0  0  0  0  0  0
  149.6875  137.8510  160.0909 H   0  0  0  0  0  0  0  0  0  0  0  0
  148.2465  137.9007  159.0834 H   0  0  0  0  0  0  0  0  0  0  0  0
  148.0481  137.2634  161.8952 H   0  0  0  0  0  0  0  0  0  0  0  0
  147.0528  135.4608  163.6768 H   0  0  0  0  0  0  0  0  0  0  0  0
  147.3078  133.0240  162.5193 H   0  0  0  0  0  0  0  0  0  0  0  0
  153.6466  141.5392  160.3275 H   0  0  0  0  0  0  0  0  0  0  0  0
  153.6477  143.9815  159.7945 H   0  0  0  0  0  0  0  0  0  0  0  0
  152.1328  144.9075  158.0808 H   0  0  0  0  0  0  0  0  0  0  0  0
  150.5537  143.4412  156.8314 H   0  0  0  0  0  0  0  0  0  0  0  0
  152.3218  139.1014  159.5355 H   0  0  0  0  0  0  0  0  0  0  0  0
  1  2  1  0  0  0  0
  1 24  1  0  0  0  0
  1 25  1  0  0  0  0
  1 26  1  0  0  0  0
  2  3  1  0  0  0  0
  3  4  1  0  0  0  0
  3 27  1  0  0  0  0
  3 28  1  0  0  0  0
  4  5  1  0  0  0  0
  4 29  1  0  0  0  0
  4 30  1  0  0  0  0
  5 22  1  0  0  0  0
  5  6  1  0  0  0  0
  6  7  1  0  0  0  0
  6 16  2  0  0  0  0
  7  8  1  0  0  0  0
  8  9  1  0  0  0  0
  8 31  1  0  0  0  0
  8 32  1  0  0  0  0
  9 10  2  0  0  0  0
  9 11  1  0  0  0  0
 11 15  1  0  0  0  0
 11 12  2  0  0  0  0
 12 13  1  0  0  0  0
 12 33  1  0  0  0  0
 13 14  2  0  0  0  0
 13 34  1  0  0  0  0
 14 15  1  0  0  0  0
 14 35  1  0  0  0  0
 15 23  1  0  0  0  0
 16 17  1  0  0  0  0
 16 40  1  0  0  0  0
 17 22  2  0  0  0  0
 17 18  1  0  0  0  0
 18 19  2  0  0  0  0
 18 36  1  0  0  0  0
 19 20  1  0  0  0  0
 19 37  1  0  0  0  0
 20 21  2  0  0  0  0
 20 38  1  0  0  0  0
 21 22  1  0  0  0  0
 21 39  1  0  0  0  0
M  CHG  1  16   1
M  END
> <s_m_source_file>
AV-unprocessed.smi

> <i_m_source_file_index>
475

> <i_lp_mmshare_version>
43012

> <i_f3d_flags>
0

> <s_epik_input>
W2NIXTFbY0hdW2NIXVtjSF1jKGMxMiluKFtDSDJdW0NIMl1PW0NIM10pYyhuMilTW0NIMl1DKD1PKWMzW2NIXVtjSF1bY0hdW25IXTM=

> <s_epik_cmdline>
J2VwaWtfcHl0aG9uJywgJy1waCcsICc3LjAnLCAnLXRuJywgJzgnLCAnLW1hJywgJzIwMCcsICctbWV0YWxfYmluZGluZycsICctaW1hZScsICc8aW5maWxlLm1hZT4nLCAnLW9tYWUnLCAnPG91dGZpbGUubWFlPic=

> <r_lp_tautomer_probability>
0.9999

> <r_epik_Ionization_Penalty>
2.12955

> <r_epik_Ionization_Penalty_Charging>
2.12955

> <r_epik_Ionization_Penalty_Neutral>
1.90655e-06

> <r_epik_State_Penalty>
2.26782

> <r_epik_Charging_Adjusted_Penalty>
4.39737

> <i_epik_Tot_Q>
1

> <i_epik_Tot_abs_Q>
1

> <r_epik_Metal_State_Penalty>
2.28582

> <b_epik_Metal_Only>
0

> <s_lp_Force_Field>
OPLS_2005

> <r_lp_Energy>
16.0961

> <b_lp_Chiralities_Consistent>
1

> <s_lp_Variant>
AV-unprocessed.smi:475-2

> <Gold.Version>
5.8.1

> <Gold.Id.Protein>
6NUR|6NUR_protein|mol2

> <Gold.PLP.Fitness>
51.4140

> <Gold.PLP.PLP>
-47.4850

> <Gold.PLP.part.hbond>
-2.9156

> <Gold.PLP.part.metal>
0.0000

> <Gold.PLP.part.buried>
-4.6235

> <Gold.PLP.part.nonpolar>
-40.8690

> <Gold.PLP.part.repulsive>
0.3987

> <Gold.PLP.ligand.clash>
0.0000

> <Gold.PLP.ligand.torsion>
0.6276

> <Gold.PLP.Chemscore.Hbond>
1.6864

> <Gold.PLP.Chemscore.CHOScore>
0.0000

> <Gold.PLP.Chemscore.Metal>
0.0000

> <Gold.Chemscore.Hbonds>
donor molecule, donor type, donor heavy atom, donor atom, acceptor molecule, acceptor atom, score
      P1  H  6896  6907       L1    10  1.00
      P1  H  8011  8017       L1     2  0.58

> <Gold.PLP.Chemscore.Internal.Correction>
0.1249

> <Gold.Rescore>
     Score         DG    S(hbond)    S(metal)    S(lipo)     H(rot)  DE(clash)    DE(int)     intcor
     17.63     -18.12       1.24        0.00     118.52       2.10       0.01       0.48       ----

> <Gold.Chemscore.Fitness>
17.6288

> <Gold.Chemscore.DG>
-18.1178

> <Gold.Chemscore.ZeroCoef>
-5.4800

> <Gold.Chemscore.Hbond>
1.2450

> <Gold.Chemscore.Metal>
0.0000

> <Gold.Chemscore.Lipo>
118.5243

> <Gold.Chemscore.Internal_Hbond>
0.0000

> <Gold.Chemscore.DEClash>
0.0069

> <Gold.Chemscore.DEInternal>
0.4821

> <Gold.Chemscore.Rot>
2.1046

> <Gold.Chemscore.Internal.Correction>
   9.000000E+99

> <Gold.Chemscore.Hbonds>
donor molecule, donor type, donor heavy atom, donor atom, acceptor molecule, acceptor atom, score
      P1  H  6896  6907       L1    10  0.25
      P1  H  8011  8017       L1     2  0.09

> <Gold.Chemscore.Hbond.Weighted>
-4.1582

> <Gold.Chemscore.Metal.Weighted>
-0.0000

> <Gold.Chemscore.Lipo.Weighted>
-13.8673

> <Gold.Chemscore.Internal_Hbond.Weighted>
0.0000

> <Gold.Chemscore.DEClash.Weighted>
0.0069

> <Gold.Chemscore.DEInternal.Weighted>
0.4821

> <Gold.Chemscore.Rot.Weighted>
5.3878

> <Gold.Chemscore.Internal.Correction.Weighted>
   9.000000E+99

> <Gold.Protein.RotatedTorsions>
[ 6907 6896 6895 6894 ] final  -92.13 input  -60.11 | X-H torsion
[ 7974 7965 7964 7962 ] final   92.59 input  175.53 | X-H torsion
[ 8008 7997 7996 7995 ] final   -1.39 input   59.86 | X-H torsion
[ 10167 10162 10161 10158 ] final -145.23 input  -65.29 | X-H torsion
[ 10718 10713 10712 10709 ] final -176.03 input   66.30 | X-H torsion
[ 10763 10752 10751 10750 ] final   78.83 input  -60.55 | X-H torsion
[ 11005 11000 10999 10996 ] final  128.37 input  -57.11 | X-H torsion

> <Gold.Protein.ActiveResidues>
 VAL166  LYS551  ARG553  GLY616  TRP617  ASP618  TYR619  PRO620  LYS621  CYS622 
 ASP623  PHE694  ASN695  SER759  ASP760  ASP761  ALA762  ILE779  LEU786  VAL792 
 PHE793  MET794  SER795  GLU796  ALA797  LYS798  CYS799  TRP800  GLU811  SER814 

> <Gold.Protein.RotatedAtoms>
  150.6902  134.2169  159.4381 H   0  0  0  0  0  0  0  0  0  0  0  0  # atno 6907 bound_to 6896
  152.0128  134.9864  160.0578 H   0  0  0  0  0  0  0  0  0  0  0  0  # atno 6908 bound_to 6896
  152.1472  133.4465  159.4833 H   0  0  0  0  0  0  0  0  0  0  0  0  # atno 6909 bound_to 6896
  145.4902  139.2276  143.2834 H   0  0  0  0  0  0  0  0  0  0  0  0  # atno 7974 bound_to 7965
  154.6473  140.2560  155.7253 H   0  0  0  0  0  0  0  0  0  0  0  0  # atno 8008 bound_to 7997
  156.2558  140.2875  156.0813 H   0  0  0  0  0  0  0  0  0  0  0  0  # atno 8009 bound_to 7997
  155.1504  140.0382  157.2810 H   0  0  0  0  0  0  0  0  0  0  0  0  # atno 8010 bound_to 7997
  139.7825  143.8081  152.2640 H   0  0  0  0  0  0  0  0  0  0  0  0  # atno 10167 bound_to 10162
  156.8087  130.9578  151.3116 H   0  0  0  0  0  0  0  0  0  0  0  0  # atno 10718 bound_to 10713
  153.0905  135.4862  154.8680 H   0  0  0  0  0  0  0  0  0  0  0  0  # atno 10763 bound_to 10752
  154.7263  135.3050  154.8968 H   0  0  0  0  0  0  0  0  0  0  0  0  # atno 10764 bound_to 10752
  153.9617  135.6811  153.4798 H   0  0  0  0  0  0  0  0  0  0  0  0  # atno 10765 bound_to 10752
  139.9557  134.9613  156.8991 H   0  0  0  0  0  0  0  0  0  0  0  0  # atno 11005 bound_to 11000
  146.2289  140.5695  142.8984 LP  0  0  0  0  0  0  0  0  0  0  0  0  # atno 17320 bound_to 7965
  144.7838  140.5895  143.6587 LP  0  0  0  0  0  0  0  0  0  0  0  0  # atno 17321 bound_to 7965
  139.8148  144.7321  150.9650 LP  0  0  0  0  0  0  0  0  0  0  0  0  # atno 17342 bound_to 10162
  140.7819  143.4216  151.0833 LP  0  0  0  0  0  0  0  0  0  0  0  0  # atno 17343 bound_to 10162
  157.6517  130.8890  149.9646 LP  0  0  0  0  0  0  0  0  0  0  0  0  # atno 17370 bound_to 10713
  156.1058  130.3653  150.0137 LP  0  0  0  0  0  0  0  0  0  0  0  0  # atno 17371 bound_to 10713
  140.5615  134.0530  155.7400 LP  0  0  0  0  0  0  0  0  0  0  0  0  # atno 17394 bound_to 11000
  141.1228  133.9434  157.2696 LP  0  0  0  0  0  0  0  0  0  0  0  0  # atno 17395 bound_to 11000

$$$$
