AV-unprocessed.smi:801|AV-procd|sdf|3790|dock10
  -GOLD-   22720 1223D 1   1.00000     0.00000
 Structure written by MMmdl.
 43 44  0  0  0  0  0  0  0  0  2 V2000
  152.0758  144.3914  158.4388 C   0  0  0  0  0  0  0  0  0  0  0  0
  151.5353  143.4660  159.3653 O   0  0  0  0  0  0  0  0  0  0  0  0
  152.5267  142.8968  160.2034 C   0  0  0  0  0  0  0  0  0  0  0  0
  153.5428  142.1440  159.3319 C   0  0  0  0  0  0  0  0  0  0  0  0
  153.4249  140.6808  159.5106 N   0  0  0  0  0  0  0  0  0  0  0  0
  154.5813  139.9280  159.8491 C   0  0  0  0  0  0  0  0  0  0  0  0
  155.8154  140.5938  159.9429 N   0  0  0  0  0  0  0  0  0  0  0  0
  156.9126  140.3061  159.2195 C   0  0  0  0  0  0  0  0  0  0  0  0
  158.1695  141.0917  159.5759 C   0  0  0  0  0  0  0  0  0  0  0  0
  156.9495  139.4615  158.3246 O   0  0  0  0  0  0  0  0  0  0  0  0
  154.5062  138.5770  160.0236 C   0  0  0  0  0  0  0  0  0  0  0  0
  155.6428  137.8135  160.3033 N   0  0  0  0  0  0  0  0  0  0  0  0
  155.8234  136.3870  160.5275 C   0  0  0  0  0  0  0  0  0  0  0  0
  155.3447  135.9238  161.8927 C   0  0  0  0  0  0  0  0  0  0  0  0
  155.4627  134.5689  162.2740 C   0  0  0  0  0  0  0  0  0  0  0  0
  155.0118  134.1457  163.5397 C   0  0  0  0  0  0  0  0  0  0  0  0
  154.4369  135.0737  164.4293 C   0  0  0  0  0  0  0  0  0  0  0  0
  154.3106  136.4242  164.0514 C   0  0  0  0  0  0  0  0  0  0  0  0
  154.7611  136.8477  162.7857 C   0  0  0  0  0  0  0  0  0  0  0  0
  153.1869  137.9358  159.8754 C   0  0  0  0  0  0  0  0  0  0  0  0
  153.0369  136.7290  160.0613 O   0  0  0  0  0  0  0  0  0  0  0  0
  152.1337  138.7196  159.5232 N   0  5  0  0  0  0  0  0  0  0  0  0
  152.2214  140.0636  159.3246 C   0  0  0  0  0  0  0  0  0  0  0  0
  151.2458  140.7323  158.9805 O   0  0  0  0  0  0  0  0  0  0  0  0
  151.2770  144.7980  157.8186 H   0  0  0  0  0  0  0  0  0  0  0  0
  152.8020  143.9126  157.7806 H   0  0  0  0  0  0  0  0  0  0  0  0
  152.5617  145.2235  158.9503 H   0  0  0  0  0  0  0  0  0  0  0  0
  153.0275  143.6793  160.7758 H   0  0  0  0  0  0  0  0  0  0  0  0
  152.0607  142.2146  160.9160 H   0  0  0  0  0  0  0  0  0  0  0  0
  153.4167  142.4249  158.2864 H   0  0  0  0  0  0  0  0  0  0  0  0
  154.5500  142.4920  159.5669 H   0  0  0  0  0  0  0  0  0  0  0  0
  155.9208  141.2270  160.7218 H   0  0  0  0  0  0  0  0  0  0  0  0
  158.5003  140.8397  160.5838 H   0  0  0  0  0  0  0  0  0  0  0  0
  157.9751  142.1637  159.5325 H   0  0  0  0  0  0  0  0  0  0  0  0
  158.9796  140.8635  158.8824 H   0  0  0  0  0  0  0  0  0  0  0  0
  156.5014  138.3385  160.3804 H   0  0  0  0  0  0  0  0  0  0  0  0
  155.2882  135.8382  159.7516 H   0  0  0  0  0  0  0  0  0  0  0  0
  156.8809  136.1371  160.4364 H   0  0  0  0  0  0  0  0  0  0  0  0
  155.8981  133.8481  161.5971 H   0  0  0  0  0  0  0  0  0  0  0  0
  155.1055  133.1089  163.8272 H   0  0  0  0  0  0  0  0  0  0  0  0
  154.0909  134.7495  165.3996 H   0  0  0  0  0  0  0  0  0  0  0  0
  153.8678  137.1359  164.7325 H   0  0  0  0  0  0  0  0  0  0  0  0
  154.6585  137.8856  162.5042 H   0  0  0  0  0  0  0  0  0  0  0  0
  1  2  1  0  0  0  0
  1 25  1  0  0  0  0
  1 26  1  0  0  0  0
  1 27  1  0  0  0  0
  2  3  1  0  0  0  0
  3  4  1  0  0  0  0
  3 28  1  0  0  0  0
  3 29  1  0  0  0  0
  4  5  1  0  0  0  0
  4 30  1  0  0  0  0
  4 31  1  0  0  0  0
  5 23  1  0  0  0  0
  5  6  1  0  0  0  0
  6  7  1  0  0  0  0
  6 11  2  0  0  0  0
  7  8  1  0  0  0  0
  7 32  1  0  0  0  0
  8  9  1  0  0  0  0
  8 10  2  0  0  0  0
  9 33  1  0  0  0  0
  9 34  1  0  0  0  0
  9 35  1  0  0  0  0
 11 12  1  0  0  0  0
 11 20  1  0  0  0  0
 12 13  1  0  0  0  0
 12 36  1  0  0  0  0
 13 14  1  0  0  0  0
 13 37  1  0  0  0  0
 13 38  1  0  0  0  0
 14 19  1  0  0  0  0
 14 15  2  0  0  0  0
 15 16  1  0  0  0  0
 15 39  1  0  0  0  0
 16 17  2  0  0  0  0
 16 40  1  0  0  0  0
 17 18  1  0  0  0  0
 17 41  1  0  0  0  0
 18 19  2  0  0  0  0
 18 42  1  0  0  0  0
 19 43  1  0  0  0  0
 20 21  2  0  0  0  0
 20 22  1  0  0  0  0
 22 23  1  0  0  0  0
 23 24  2  0  0  0  0
M  CHG  1  22  -1
M  END
> <s_m_source_file>
AV-unprocessed.smi

> <i_m_source_file_index>
801

> <i_lp_mmshare_version>
43012

> <i_f3d_flags>
0

> <s_epik_input>
W0NIM11PW0NIMl1bQ0gyXW4xYyhbTkhdQyg9TylbQ0gzXSljKGMoPU8pW25IXWMxPU8pW05IXVtDSDJdYzJbY0hdW2NIXVtjSF1bY0hdW2NIXTI=

> <s_epik_cmdline>
J2VwaWtfcHl0aG9uJywgJy1waCcsICc3LjAnLCAnLXRuJywgJzgnLCAnLW1hJywgJzIwMCcsICctbWV0YWxfYmluZGluZycsICctaW1hZScsICc8aW5maWxlLm1hZT4nLCAnLW9tYWUnLCAnPG91dGZpbGUubWFlPic=

> <r_lp_tautomer_probability>
0.999901

> <r_epik_Ionization_Penalty>
3.93073

> <r_epik_Ionization_Penalty_Charging>
1.379e-07

> <r_epik_Ionization_Penalty_Neutral>
3.93073

> <r_epik_State_Penalty>
3.9304

> <r_epik_Charging_Adjusted_Penalty>
3.9304

> <i_epik_Tot_Q>
-1

> <i_epik_Tot_abs_Q>
1

> <r_epik_Metal_State_Penalty>
0.600886

> <b_epik_Metal_Only>
1

> <s_lp_Force_Field>
OPLS_2005

> <r_lp_Energy>
31.5589

> <b_lp_Chiralities_Consistent>
1

> <s_lp_Variant>
AV-unprocessed.smi:801-2

> <Gold.Version>
5.8.1

> <Gold.Id.Protein>
6NUR|6NUR_protein|mol2

> <Gold.PLP.Fitness>
48.0098

> <Gold.PLP.PLP>
-42.9061

> <Gold.PLP.part.hbond>
-2.1349

> <Gold.PLP.part.metal>
0.0000

> <Gold.PLP.part.buried>
-5.9541

> <Gold.PLP.part.nonpolar>
-35.8351

> <Gold.PLP.part.repulsive>
0.1711

> <Gold.PLP.ligand.clash>
0.0006

> <Gold.PLP.ligand.torsion>
1.0117

> <Gold.PLP.Chemscore.Hbond>
2.0000

> <Gold.PLP.Chemscore.CHOScore>
0.0000

> <Gold.PLP.Chemscore.Metal>
0.0000

> <Gold.Chemscore.Hbonds>
donor molecule, donor type, donor heavy atom, donor atom, acceptor molecule, acceptor atom, score
      P1  H  6896  6907       L1    21  1.00
      P1  H  7997  8010       L1    10  1.00

> <Gold.PLP.Chemscore.Internal.Correction>
1.1278

> <Gold.Rescore>
     Score         DG    S(hbond)    S(metal)    S(lipo)     H(rot)  DE(clash)    DE(int)     intcor
     15.83     -18.54       2.00        0.00      98.00       1.98       0.03       2.67       ----

> <Gold.Chemscore.Fitness>
15.8340

> <Gold.Chemscore.DG>
-18.5361

> <Gold.Chemscore.ZeroCoef>
-5.4800

> <Gold.Chemscore.Hbond>
1.9954

> <Gold.Chemscore.Metal>
0.0000

> <Gold.Chemscore.Lipo>
98.0034

> <Gold.Chemscore.Internal_Hbond>
0.0000

> <Gold.Chemscore.DEClash>
0.0320

> <Gold.Chemscore.DEInternal>
2.6700

> <Gold.Chemscore.Rot>
1.9824

> <Gold.Chemscore.Internal.Correction>
   9.000000E+99

> <Gold.Chemscore.Hbonds>
donor molecule, donor type, donor heavy atom, donor atom, acceptor molecule, acceptor atom, score
      P1  H  6896  6907       L1    21  0.99
      P1  H  7997  8010       L1    10  0.50

> <Gold.Chemscore.Hbond.Weighted>
-6.6646

> <Gold.Chemscore.Metal.Weighted>
-0.0000

> <Gold.Chemscore.Lipo.Weighted>
-11.4664

> <Gold.Chemscore.Internal_Hbond.Weighted>
0.0000

> <Gold.Chemscore.DEClash.Weighted>
0.0320

> <Gold.Chemscore.DEInternal.Weighted>
2.6700

> <Gold.Chemscore.Rot.Weighted>
5.0749

> <Gold.Chemscore.Internal.Correction.Weighted>
   9.000000E+99

> <Gold.Protein.RotatedTorsions>
[ 6907 6896 6895 6894 ] final   30.17 input  -60.11 | X-H torsion
[ 7974 7965 7964 7962 ] final   72.43 input  175.53 | X-H torsion
[ 8008 7997 7996 7995 ] final  -57.00 input   59.86 | X-H torsion
[ 10167 10162 10161 10158 ] final  -23.73 input  -65.29 | X-H torsion
[ 10718 10713 10712 10709 ] final   17.24 input   66.30 | X-H torsion
[ 10763 10752 10751 10750 ] final   12.59 input  -60.55 | X-H torsion
[ 11005 11000 10999 10996 ] final  -69.24 input  -57.11 | X-H torsion

> <Gold.Protein.ActiveResidues>
 VAL166  LYS551  ARG553  GLY616  TRP617  ASP618  TYR619  PRO620  LYS621  CYS622 
 ASP623  PHE694  ASN695  SER759  ASP760  ASP761  ALA762  ILE779  LEU786  VAL792 
 PHE793  MET794  SER795  GLU796  ALA797  LYS798  CYS799  TRP800  GLU811  SER814 

> <Gold.Protein.RotatedAtoms>
  152.0421  134.9705  160.0573 H   0  0  0  0  0  0  0  0  0  0  0  0  # atno 6907 bound_to 6896
  152.1140  133.4311  159.4652 H   0  0  0  0  0  0  0  0  0  0  0  0  # atno 6908 bound_to 6896
  150.6845  134.2533  159.4563 H   0  0  0  0  0  0  0  0  0  0  0  0  # atno 6909 bound_to 6896
  145.7535  139.2770  143.1417 H   0  0  0  0  0  0  0  0  0  0  0  0  # atno 7974 bound_to 7965
  154.4251  140.1117  156.5728 H   0  0  0  0  0  0  0  0  0  0  0  0  # atno 8008 bound_to 7997
  155.6194  140.3495  155.4628 H   0  0  0  0  0  0  0  0  0  0  0  0  # atno 8009 bound_to 7997
  156.0036  140.1204  157.0513 H   0  0  0  0  0  0  0  0  0  0  0  0  # atno 8010 bound_to 7997
  140.7288  143.4417  151.0647 H   0  0  0  0  0  0  0  0  0  0  0  0  # atno 10167 bound_to 10162
  157.0793  130.6381  149.5823 H   0  0  0  0  0  0  0  0  0  0  0  0  # atno 10718 bound_to 10713
  153.1807  135.6827  153.8482 H   0  0  0  0  0  0  0  0  0  0  0  0  # atno 10763 bound_to 10752
  153.7815  135.3182  155.3367 H   0  0  0  0  0  0  0  0  0  0  0  0  # atno 10764 bound_to 10752
  154.8058  135.4749  154.0483 H   0  0  0  0  0  0  0  0  0  0  0  0  # atno 10765 bound_to 10752
  141.1550  133.6759  156.6569 H   0  0  0  0  0  0  0  0  0  0  0  0  # atno 11005 bound_to 11000
  146.0333  140.8236  142.9865 LP  0  0  0  0  0  0  0  0  0  0  0  0  # atno 17320 bound_to 7965
  144.6845  140.2802  143.7293 LP  0  0  0  0  0  0  0  0  0  0  0  0  # atno 17321 bound_to 7965
  139.8085  143.7984  152.3169 LP  0  0  0  0  0  0  0  0  0  0  0  0  # atno 17342 bound_to 10162
  139.8026  144.7368  150.9805 LP  0  0  0  0  0  0  0  0  0  0  0  0  # atno 17343 bound_to 10162
  155.9928  130.4987  150.7354 LP  0  0  0  0  0  0  0  0  0  0  0  0  # atno 17370 bound_to 10713
  157.4813  131.0902  151.0533 LP  0  0  0  0  0  0  0  0  0  0  0  0  # atno 17371 bound_to 10713
  140.3277  134.7955  157.4302 LP  0  0  0  0  0  0  0  0  0  0  0  0  # atno 17394 bound_to 11000
  140.1043  134.5431  155.8324 LP  0  0  0  0  0  0  0  0  0  0  0  0  # atno 17395 bound_to 11000

$$$$
