AV-unprocessed.smi:1098|AV-procd|sdf|4754|dock1
  -GOLD-   22720 3293D 1   1.00000     0.00000
 Structure written by MMmdl.
 43 44  0  0  0  0  0  0  0  0  2 V2000
  152.1898  143.3990  158.8305 C   0  0  0  0  0  0  0  0  0  0  0  0
  151.3749  142.1929  158.3559 C   0  0  0  0  0  0  0  0  0  0  0  0
  151.0345  142.2792  156.5740 S   0  0  0  0  0  0  0  0  0  0  0  0
  150.5629  140.6591  156.0463 C   0  0  0  0  0  0  0  0  0  0  0  0
  150.3991  139.6248  156.9875 C   0  0  0  0  0  0  0  0  0  0  0  0
  150.0226  138.3506  156.5211 C   0  0  0  0  0  0  0  0  0  0  0  0
  149.8186  138.1630  155.1318 C   0  0  0  0  0  0  0  0  0  0  0  0
  149.4565  136.9254  154.5339 N   0  0  0  0  0  0  0  0  0  0  0  0
  149.1161  135.7718  155.1340 C   0  0  0  0  0  0  0  0  0  0  0  0
  149.0354  135.5963  156.3491 O   0  0  0  0  0  0  0  0  0  0  0  0
  148.8476  134.8169  154.2317 N   0  0  0  0  0  0  0  0  0  0  0  0
  148.4533  133.4439  154.5468 C   0  0  2  0  0  0  0  0  0  0  0  0
  148.4523  132.5771  153.2746 C   0  0  0  0  0  0  0  0  0  0  0  0
  147.2796  132.9229  152.3383 C   0  0  0  0  0  0  0  0  0  0  0  0
  145.9805  132.8276  153.0493 N   0  3  2  0  0  0  0  0  0  0  0  0
  144.8279  133.0327  152.1460 C   0  0  0  0  0  0  0  0  0  0  0  0
  145.9311  133.7140  154.2382 C   0  0  0  0  0  0  0  0  0  0  0  0
  147.0674  133.3832  155.2217 C   0  0  0  0  0  0  0  0  0  0  0  0
  150.0264  139.2698  154.2808 C   0  0  0  0  0  0  0  0  0  0  0  0
  150.3854  140.4952  154.7182 N   0  0  0  0  0  0  0  0  0  0  0  0
  152.3964  143.3317  159.8990 H   0  0  0  0  0  0  0  0  0  0  0  0
  151.6521  144.3312  158.6532 H   0  0  0  0  0  0  0  0  0  0  0  0
  153.1459  143.4574  158.3092 H   0  0  0  0  0  0  0  0  0  0  0  0
  151.9173  141.2710  158.5689 H   0  0  0  0  0  0  0  0  0  0  0  0
  150.4299  142.1465  158.8979 H   0  0  0  0  0  0  0  0  0  0  0  0
  150.5615  139.8005  158.0407 H   0  0  0  0  0  0  0  0  0  0  0  0
  149.9134  137.5480  157.2335 H   0  0  0  0  0  0  0  0  0  0  0  0
  149.4037  136.9344  153.5258 H   0  0  0  0  0  0  0  0  0  0  0  0
  148.9401  135.0524  153.2543 H   0  0  0  0  0  0  0  0  0  0  0  0
  149.1960  133.0330  155.2333 H   0  0  0  0  0  0  0  0  0  0  0  0
  149.3996  132.6804  152.7436 H   0  0  0  0  0  0  0  0  0  0  0  0
  148.3796  131.5265  153.5597 H   0  0  0  0  0  0  0  0  0  0  0  0
  147.4013  133.9284  151.9323 H   0  0  0  0  0  0  0  0  0  0  0  0
  147.2813  132.2383  151.4892 H   0  0  0  0  0  0  0  0  0  0  0  0
  144.8306  134.0410  151.7300 H   0  0  0  0  0  0  0  0  0  0  0  0
  143.8890  132.8855  152.6808 H   0  0  0  0  0  0  0  0  0  0  0  0
  144.8542  132.3212  151.3198 H   0  0  0  0  0  0  0  0  0  0  0  0
  145.9942  134.7565  153.9225 H   0  0  0  0  0  0  0  0  0  0  0  0
  144.9713  133.5946  154.7420 H   0  0  0  0  0  0  0  0  0  0  0  0
  146.9103  132.3795  155.6192 H   0  0  0  0  0  0  0  0  0  0  0  0
  147.0258  134.0539  156.0804 H   0  0  0  0  0  0  0  0  0  0  0  0
  149.8962  139.1714  153.2129 H   0  0  0  0  0  0  0  0  0  0  0  0
  145.9086  131.8804  153.3930 H   0  0  0  0  0  0  0  0  0  0  0  0
  1  2  1  0  0  0  0
  1 21  1  0  0  0  0
  1 22  1  0  0  0  0
  1 23  1  0  0  0  0
  2  3  1  0  0  0  0
  2 24  1  0  0  0  0
  2 25  1  0  0  0  0
  3  4  1  0  0  0  0
  4 20  1  0  0  0  0
  4  5  2  0  0  0  0
  5  6  1  0  0  0  0
  5 26  1  0  0  0  0
  6  7  2  0  0  0  0
  6 27  1  0  0  0  0
  7  8  1  0  0  0  0
  7 19  1  0  0  0  0
  8  9  1  0  0  0  0
  8 28  1  0  0  0  0
  9 10  2  0  0  0  0
  9 11  1  0  0  0  0
 11 12  1  0  0  0  0
 11 29  1  0  0  0  0
 12 18  1  0  0  0  0
 12 13  1  0  0  0  0
 12 30  1  0  0  0  0
 13 14  1  0  0  0  0
 13 31  1  0  0  0  0
 13 32  1  0  0  0  0
 14 15  1  0  0  0  0
 14 33  1  0  0  0  0
 14 34  1  0  0  0  0
 15 16  1  0  0  0  0
 15 17  1  0  0  0  0
 15 43  1  0  0  0  0
 16 35  1  0  0  0  0
 16 36  1  0  0  0  0
 16 37  1  0  0  0  0
 17 18  1  0  0  0  0
 17 38  1  0  0  0  0
 17 39  1  0  0  0  0
 18 40  1  0  0  0  0
 18 41  1  0  0  0  0
 19 20  2  0  0  0  0
 19 42  1  0  0  0  0
M  CHG  1  15   1
M  END
> <s_m_source_file>
AV-unprocessed.smi

> <i_m_source_file_index>
1098

> <i_lp_mmshare_version>
43012

> <i_f3d_flags>
0

> <s_epik_input>
W0NIM11bQ0gyXVNjMVtjSF1bY0hdYyhbY0hdbjEpW05IXUMoPU8pW05IXVtDSF0yW0NIMl1bQ0gyXU4oW0NIM10pW0NIMl1bQ0gyXTI=

> <s_epik_cmdline>
J2VwaWtfcHl0aG9uJywgJy1waCcsICc3LjAnLCAnLXRuJywgJzgnLCAnLW1hJywgJzIwMCcsICctbWV0YWxfYmluZGluZycsICctaW1hZScsICc8aW5maWxlLm1hZT4nLCAnLW9tYWUnLCAnPG91dGZpbGUubWFlPic=

> <r_lp_tautomer_probability>
1

> <r_epik_Ionization_Penalty>
0.00403107

> <r_epik_Ionization_Penalty_Charging>
0.00366825

> <r_epik_Ionization_Penalty_Neutral>
0.000362818

> <r_epik_State_Penalty>
-0

> <r_epik_Charging_Adjusted_Penalty>
0.00366825

> <i_epik_Tot_Q>
1

> <i_epik_Tot_abs_Q>
1

> <r_epik_Metal_State_Penalty>
-0

> <b_epik_Metal_Only>
0

> <s_lp_Force_Field>
OPLS_2005

> <r_lp_Energy>
17.2639

> <b_lp_Chiralities_Consistent>
1

> <s_lp_Variant>
AV-unprocessed.smi:1098-2

> <Gold.Version>
5.8.1

> <Gold.Id.Protein>
6NUR|6NUR_protein|mol2

> <Gold.PLP.Fitness>
41.1504

> <Gold.PLP.PLP>
-29.4895

> <Gold.PLP.part.hbond>
-3.0000

> <Gold.PLP.part.metal>
0.0000

> <Gold.PLP.part.buried>
-3.5608

> <Gold.PLP.part.nonpolar>
-22.9647

> <Gold.PLP.part.repulsive>
0.1383

> <Gold.PLP.ligand.clash>
0.0000

> <Gold.PLP.ligand.torsion>
0.1750

> <Gold.PLP.Chemscore.Hbond>
3.0000

> <Gold.PLP.Chemscore.CHOScore>
1.0000

> <Gold.PLP.Chemscore.Metal>
0.0000

> <Gold.Chemscore.Hbonds>
donor molecule, donor type, donor heavy atom, donor atom, acceptor molecule, acceptor atom, score
      L1  H     8    28       P1  7948  1.00
      L1  H    11    29       P1  7948  1.00
      P1  H  7989  7998       L1    20  0.94
      L1  C    19    42       P1  7957  1.00

> <Gold.PLP.Chemscore.Internal.Correction>
0.0108

> <Gold.Rescore>
     Score         DG    S(hbond)    S(metal)    S(lipo)     H(rot)  DE(clash)    DE(int)     intcor
     16.47     -18.24       2.09        0.00      78.06       1.30       0.35       1.42       ----

> <Gold.Chemscore.Fitness>
16.4697

> <Gold.Chemscore.DG>
-18.2399

> <Gold.Chemscore.ZeroCoef>
-5.4800

> <Gold.Chemscore.Hbond>
2.0851

> <Gold.Chemscore.Metal>
0.0000

> <Gold.Chemscore.Lipo>
78.0634

> <Gold.Chemscore.Internal_Hbond>
0.0000

> <Gold.Chemscore.DEClash>
0.3498

> <Gold.Chemscore.DEInternal>
1.4204

> <Gold.Chemscore.Rot>
1.3038

> <Gold.Chemscore.Internal.Correction>
   9.000000E+99

> <Gold.Chemscore.Hbonds>
donor molecule, donor type, donor heavy atom, donor atom, acceptor molecule, acceptor atom, score
      L1  H     8    28       P1  7948  0.91
      L1  H    11    29       P1  7948  0.29
      P1  H  7989  7998       L1    20  0.20

> <Gold.Chemscore.Hbond.Weighted>
-6.9643

> <Gold.Chemscore.Metal.Weighted>
-0.0000

> <Gold.Chemscore.Lipo.Weighted>
-9.1334

> <Gold.Chemscore.Internal_Hbond.Weighted>
0.0000

> <Gold.Chemscore.DEClash.Weighted>
0.3498

> <Gold.Chemscore.DEInternal.Weighted>
1.4204

> <Gold.Chemscore.Rot.Weighted>
3.3378

> <Gold.Chemscore.Internal.Correction.Weighted>
   9.000000E+99

> <Gold.Protein.RotatedTorsions>
[ 6907 6896 6895 6894 ] final   38.90 input  -60.11 | X-H torsion
[ 7974 7965 7964 7962 ] final -175.72 input  175.53 | X-H torsion
[ 8008 7997 7996 7995 ] final -146.53 input   59.86 | X-H torsion
[ 10167 10162 10161 10158 ] final -158.89 input  -65.29 | X-H torsion
[ 10718 10713 10712 10709 ] final  130.33 input   66.30 | X-H torsion
[ 10763 10752 10751 10750 ] final  -34.04 input  -60.55 | X-H torsion
[ 11005 11000 10999 10996 ] final   27.86 input  -57.11 | X-H torsion

> <Gold.Protein.ActiveResidues>
 VAL166  LYS551  ARG553  GLY616  TRP617  ASP618  TYR619  PRO620  LYS621  CYS622 
 ASP623  PHE694  ASN695  SER759  ASP760  ASP761  ALA762  ILE779  LEU786  VAL792 
 PHE793  MET794  SER795  GLU796  ALA797  LYS798  CYS799  TRP800  GLU811  SER814 

> <Gold.Protein.RotatedAtoms>
  152.1626  134.8900  160.0540 H   0  0  0  0  0  0  0  0  0  0  0  0  # atno 6907 bound_to 6896
  151.9890  133.3779  159.4145 H   0  0  0  0  0  0  0  0  0  0  0  0  # atno 6908 bound_to 6896
  150.6890  134.3880  159.5107 H   0  0  0  0  0  0  0  0  0  0  0  0  # atno 6909 bound_to 6896
  144.7127  140.1278  143.6401 H   0  0  0  0  0  0  0  0  0  0  0  0  # atno 7974 bound_to 7965
  155.5609  140.0625  157.2829 H   0  0  0  0  0  0  0  0  0  0  0  0  # atno 8008 bound_to 7997
  154.4390  140.1886  156.0827 H   0  0  0  0  0  0  0  0  0  0  0  0  # atno 8009 bound_to 7997
  156.0447  140.3291  155.7287 H   0  0  0  0  0  0  0  0  0  0  0  0  # atno 8010 bound_to 7997
  139.6657  143.9833  152.2253 H   0  0  0  0  0  0  0  0  0  0  0  0  # atno 10167 bound_to 10162
  157.5072  131.1096  150.9345 H   0  0  0  0  0  0  0  0  0  0  0  0  # atno 10718 bound_to 10713
  153.8401  135.6858  153.4804 H   0  0  0  0  0  0  0  0  0  0  0  0  # atno 10763 bound_to 10752
  153.1459  135.4638  154.9563 H   0  0  0  0  0  0  0  0  0  0  0  0  # atno 10764 bound_to 10752
  154.7849  135.3281  154.7855 H   0  0  0  0  0  0  0  0  0  0  0  0  # atno 10765 bound_to 10752
  140.3218  134.2535  155.7716 H   0  0  0  0  0  0  0  0  0  0  0  0  # atno 11005 bound_to 11000
  145.9313  139.2608  143.1323 LP  0  0  0  0  0  0  0  0  0  0  0  0  # atno 17320 bound_to 7965
  145.9519  140.8902  143.0254 LP  0  0  0  0  0  0  0  0  0  0  0  0  # atno 17321 bound_to 7965
  139.9584  144.6574  150.8103 LP  0  0  0  0  0  0  0  0  0  0  0  0  # atno 17342 bound_to 10162
  140.7598  143.3137  151.2783 LP  0  0  0  0  0  0  0  0  0  0  0  0  # atno 17343 bound_to 10162
  156.9997  130.5595  149.5310 LP  0  0  0  0  0  0  0  0  0  0  0  0  # atno 17370 bound_to 10713
  156.0265  130.5359  150.8422 LP  0  0  0  0  0  0  0  0  0  0  0  0  # atno 17371 bound_to 10713
  141.2085  133.7776  157.0057 LP  0  0  0  0  0  0  0  0  0  0  0  0  # atno 17394 bound_to 11000
  140.0936  134.9578  157.1814 LP  0  0  0  0  0  0  0  0  0  0  0  0  # atno 17395 bound_to 11000

$$$$
