AV-unprocessed.smi:3112|AV-procd|sdf|11840|dock2
  -GOLD-   2272017213D 1   1.00000     0.00000
 Structure written by MMmdl.
 37 37  0  0  0  0  0  0  0  0  2 V2000
  145.0384  134.9868  151.5223 C   0  0  0  0  0  0  0  0  0  0  0  0
  145.6185  135.9690  152.5490 C   0  0  0  0  0  0  0  0  0  0  0  0
  145.8293  137.3878  151.9903 C   0  0  2  0  0  0  0  0  0  0  0  0
  146.6884  137.3172  150.8687 O   0  0  0  0  0  0  0  0  0  0  0  0
  146.4628  138.3264  153.0295 C   0  0  0  0  0  0  0  0  0  0  0  0
  147.9361  138.2117  153.0255 N   0  3  0  0  0  0  0  0  0  0  0  0
  148.6063  138.7052  154.2515 C   0  0  2  0  0  0  0  0  0  0  0  0
  147.8485  138.1600  155.4732 C   0  0  0  0  0  0  0  0  0  0  0  0
  148.6907  140.2551  154.2409 C   0  0  1  0  0  0  0  0  0  0  0  0
  147.3597  140.9416  154.6020 C   0  0  0  0  0  0  0  0  0  0  0  0
  149.7511  140.7312  155.1230 N   0  0  0  0  0  0  0  0  0  0  0  0
  149.6892  141.6819  156.1233 C   0  0  0  0  0  0  0  0  0  0  0  0
  150.9254  141.7509  156.6988 C   0  0  0  0  0  0  0  0  0  0  0  0
  151.6869  140.7873  155.9816 C   0  0  0  0  0  0  0  0  0  0  0  0
  150.9797  140.1730  155.0479 N   0  0  0  0  0  0  0  0  0  0  0  0
  144.8793  134.0069  151.9727 H   0  0  0  0  0  0  0  0  0  0  0  0
  145.7089  134.8542  150.6731 H   0  0  0  0  0  0  0  0  0  0  0  0
  144.0785  135.3359  151.1410 H   0  0  0  0  0  0  0  0  0  0  0  0
  144.9341  136.0171  153.3969 H   0  0  0  0  0  0  0  0  0  0  0  0
  146.5583  135.5773  152.9408 H   0  0  0  0  0  0  0  0  0  0  0  0
  144.8686  137.7945  151.6711 H   0  0  0  0  0  0  0  0  0  0  0  0
  147.4071  136.7376  151.0717 H   0  0  0  0  0  0  0  0  0  0  0  0
  146.2035  139.3615  152.8026 H   0  0  0  0  0  0  0  0  0  0  0  0
  146.0698  138.1101  154.0238 H   0  0  0  0  0  0  0  0  0  0  0  0
  148.1782  137.2379  152.9025 H   0  0  0  0  0  0  0  0  0  0  0  0
  149.6196  138.3008  154.2902 H   0  0  0  0  0  0  0  0  0  0  0  0
  148.3682  138.3840  156.4043 H   0  0  0  0  0  0  0  0  0  0  0  0
  147.7504  137.0750  155.4193 H   0  0  0  0  0  0  0  0  0  0  0  0
  146.8443  138.5802  155.5390 H   0  0  0  0  0  0  0  0  0  0  0  0
  148.9454  140.5728  153.2276 H   0  0  0  0  0  0  0  0  0  0  0  0
  146.5939  140.7554  153.8494 H   0  0  0  0  0  0  0  0  0  0  0  0
  147.4828  142.0233  154.6659 H   0  0  0  0  0  0  0  0  0  0  0  0
  146.9749  140.5937  155.5610 H   0  0  0  0  0  0  0  0  0  0  0  0
  148.7810  142.2238  156.3428 H   0  0  0  0  0  0  0  0  0  0  0  0
  151.2383  142.3908  157.5105 H   0  0  0  0  0  0  0  0  0  0  0  0
  152.7232  140.5130  156.1145 H   0  0  0  0  0  0  0  0  0  0  0  0
  148.2895  138.7302  152.2344 H   0  0  0  0  0  0  0  0  0  0  0  0
  1  2  1  0  0  0  0
  1 16  1  0  0  0  0
  1 17  1  0  0  0  0
  1 18  1  0  0  0  0
  2  3  1  0  0  0  0
  2 19  1  0  0  0  0
  2 20  1  0  0  0  0
  3  4  1  0  0  0  0
  3  5  1  0  0  0  0
  3 21  1  0  0  0  0
  4 22  1  0  0  0  0
  5  6  1  0  0  0  0
  5 23  1  0  0  0  0
  5 24  1  0  0  0  0
  6  7  1  0  0  0  0
  6 25  1  0  0  0  0
  6 37  1  0  0  0  0
  7  8  1  0  0  0  0
  7  9  1  0  0  0  0
  7 26  1  0  0  0  0
  8 27  1  0  0  0  0
  8 28  1  0  0  0  0
  8 29  1  0  0  0  0
  9 10  1  0  0  0  0
  9 11  1  0  0  0  0
  9 30  1  0  0  0  0
 10 31  1  0  0  0  0
 10 32  1  0  0  0  0
 10 33  1  0  0  0  0
 11 15  1  0  0  0  0
 11 12  1  0  0  0  0
 12 13  2  0  0  0  0
 12 34  1  0  0  0  0
 13 14  1  0  0  0  0
 13 35  1  0  0  0  0
 14 15  2  0  0  0  0
 14 36  1  0  0  0  0
M  CHG  1   6   1
M  END
> <s_m_source_file>
AV-unprocessed.smi

> <i_m_source_file_index>
3112

> <i_lp_mmshare_version>
43012

> <i_f3d_flags>
0

> <s_epik_input>
W0NIM11bQ0gyXVtDQEhdKFtPSF0pW0NIMl1bTkhdW0NASF0oW0NIM10pW0NASF0oW0NIM10pbjFbY0hdW2NIXVtjSF1uMQ==

> <s_epik_cmdline>
J2VwaWtfcHl0aG9uJywgJy1waCcsICc3LjAnLCAnLXRuJywgJzgnLCAnLW1hJywgJzIwMCcsICctbWV0YWxfYmluZGluZycsICctaW1hZScsICc8aW5maWxlLm1hZT4nLCAnLW9tYWUnLCAnPG91dGZpbGUubWFlPic=

> <r_lp_tautomer_probability>
1

> <r_epik_Ionization_Penalty>
0.0154842

> <r_epik_Ionization_Penalty_Charging>
0.0154724

> <r_epik_Ionization_Penalty_Neutral>
1.17979e-05

> <r_epik_State_Penalty>
0.0121607

> <r_epik_Charging_Adjusted_Penalty>
0.0276331

> <i_epik_Tot_Q>
1

> <i_epik_Tot_abs_Q>
1

> <r_epik_Metal_State_Penalty>
0.0121863

> <b_epik_Metal_Only>
0

> <s_lp_Force_Field>
OPLS_2005

> <r_lp_Energy>
12.9231

> <b_lp_Chiralities_Consistent>
1

> <s_lp_Variant>
AV-unprocessed.smi:3112-5

> <Gold.Version>
5.8.1

> <Gold.Id.Protein>
6NUR|6NUR_protein|mol2

> <Gold.PLP.Fitness>
46.5997

> <Gold.PLP.PLP>
-31.1371

> <Gold.PLP.part.hbond>
-5.4384

> <Gold.PLP.part.metal>
0.0000

> <Gold.PLP.part.buried>
0.7350

> <Gold.PLP.part.nonpolar>
-25.5994

> <Gold.PLP.part.repulsive>
0.1093

> <Gold.PLP.ligand.clash>
0.0000

> <Gold.PLP.ligand.torsion>
0.9607

> <Gold.PLP.Chemscore.Hbond>
5.0000

> <Gold.PLP.Chemscore.CHOScore>
0.7499

> <Gold.PLP.Chemscore.Metal>
0.0000

> <Gold.Chemscore.Hbonds>
donor molecule, donor type, donor heavy atom, donor atom, acceptor molecule, acceptor atom, score
      L1  H     4    22       P1  7948  1.00
      L1  H     6    25       P1  7948  1.60
      L1  H     6    37       P1  7957  0.78
      P1  H  7989  7998       L1    15  1.00
      L1  C    12    34       P1  8028  0.58

> <Gold.PLP.Chemscore.Internal.Correction>
0.1345

> <Gold.Rescore>
     Score         DG    S(hbond)    S(metal)    S(lipo)     H(rot)  DE(clash)    DE(int)     intcor
     17.83     -18.69       3.78        0.00      57.62       2.41       0.05       0.81       ----

> <Gold.Chemscore.Fitness>
17.8282

> <Gold.Chemscore.DG>
-18.6888

> <Gold.Chemscore.ZeroCoef>
-5.4800

> <Gold.Chemscore.Hbond>
3.7826

> <Gold.Chemscore.Metal>
0.0000

> <Gold.Chemscore.Lipo>
57.6208

> <Gold.Chemscore.Internal_Hbond>
0.0000

> <Gold.Chemscore.DEClash>
0.0460

> <Gold.Chemscore.DEInternal>
0.8147

> <Gold.Chemscore.Rot>
2.4089

> <Gold.Chemscore.Internal.Correction>
   9.000000E+99

> <Gold.Chemscore.Hbonds>
donor molecule, donor type, donor heavy atom, donor atom, acceptor molecule, acceptor atom, score
      L1  H     4    22       P1  7948  0.99
      L1  H     6    25       P1  7948  0.79
      L1  H     6    37       P1  7957  0.73
      P1  H  7989  7998       L1    15  0.16

> <Gold.Chemscore.Hbond.Weighted>
-12.6339

> <Gold.Chemscore.Metal.Weighted>
-0.0000

> <Gold.Chemscore.Lipo.Weighted>
-6.7416

> <Gold.Chemscore.Internal_Hbond.Weighted>
0.0000

> <Gold.Chemscore.DEClash.Weighted>
0.0460

> <Gold.Chemscore.DEInternal.Weighted>
0.8147

> <Gold.Chemscore.Rot.Weighted>
6.1667

> <Gold.Chemscore.Internal.Correction.Weighted>
   9.000000E+99

> <Gold.Protein.RotatedTorsions>
[ 6907 6896 6895 6894 ] final  103.50 input  -60.11 | X-H torsion
[ 7974 7965 7964 7962 ] final  128.53 input  175.53 | X-H torsion
[ 8008 7997 7996 7995 ] final   75.90 input   59.86 | X-H torsion
[ 10167 10162 10161 10158 ] final  126.64 input  -65.29 | X-H torsion
[ 10718 10713 10712 10709 ] final   30.69 input   66.30 | X-H torsion
[ 10763 10752 10751 10750 ] final  -28.96 input  -60.55 | X-H torsion
[ 11005 11000 10999 10996 ] final   47.38 input  -57.11 | X-H torsion

> <Gold.Protein.ActiveResidues>
 VAL166  LYS551  ARG553  GLY616  TRP617  ASP618  TYR619  PRO620  LYS621  CYS622 
 ASP623  PHE694  ASN695  SER759  ASP760  ASP761  ALA762  ILE779  LEU786  VAL792 
 PHE793  MET794  SER795  GLU796  ALA797  LYS798  CYS799  TRP800  GLU811  SER814 

> <Gold.Protein.RotatedAtoms>
  152.5293  133.9817  159.7809 H   0  0  0  0  0  0  0  0  0  0  0  0  # atno 6907 bound_to 6896
  151.0069  133.5994  159.2694 H   0  0  0  0  0  0  0  0  0  0  0  0  # atno 6908 bound_to 6896
  151.3083  135.0794  159.9316 H   0  0  0  0  0  0  0  0  0  0  0  0  # atno 6909 bound_to 6896
  145.0385  139.3984  143.5114 H   0  0  0  0  0  0  0  0  0  0  0  0  # atno 7974 bound_to 7965
  155.8196  140.3470  155.5506 H   0  0  0  0  0  0  0  0  0  0  0  0  # atno 8008 bound_to 7997
  155.8356  140.0933  157.1786 H   0  0  0  0  0  0  0  0  0  0  0  0  # atno 8009 bound_to 7997
  154.4004  140.1404  156.3654 H   0  0  0  0  0  0  0  0  0  0  0  0  # atno 8010 bound_to 7997
  139.5620  144.6888  151.4015 H   0  0  0  0  0  0  0  0  0  0  0  0  # atno 10167 bound_to 10162
  157.2628  130.7170  149.6463 H   0  0  0  0  0  0  0  0  0  0  0  0  # atno 10718 bound_to 10713
  153.7569  135.6922  153.4934 H   0  0  0  0  0  0  0  0  0  0  0  0  # atno 10763 bound_to 10752
  153.1965  135.4452  155.0213 H   0  0  0  0  0  0  0  0  0  0  0  0  # atno 10764 bound_to 10752
  154.8167  135.3402  154.7086 H   0  0  0  0  0  0  0  0  0  0  0  0  # atno 10765 bound_to 10752
  140.1285  134.4737  155.8540 H   0  0  0  0  0  0  0  0  0  0  0  0  # atno 11005 bound_to 11000
  146.3507  139.9973  142.8679 LP  0  0  0  0  0  0  0  0  0  0  0  0  # atno 17320 bound_to 7965
  145.1678  140.9706  143.4339 LP  0  0  0  0  0  0  0  0  0  0  0  0  # atno 17321 bound_to 7965
  140.6901  143.7882  150.7243 LP  0  0  0  0  0  0  0  0  0  0  0  0  # atno 17342 bound_to 10162
  140.1361  143.4482  152.2223 LP  0  0  0  0  0  0  0  0  0  0  0  0  # atno 17343 bound_to 10162
  155.9664  130.4392  150.5248 LP  0  0  0  0  0  0  0  0  0  0  0  0  # atno 17370 bound_to 10713
  157.3156  131.0672  151.1969 LP  0  0  0  0  0  0  0  0  0  0  0  0  # atno 17371 bound_to 10713
  141.2166  133.6787  156.7023 LP  0  0  0  0  0  0  0  0  0  0  0  0  # atno 17394 bound_to 11000
  140.2873  134.8269  157.3986 LP  0  0  0  0  0  0  0  0  0  0  0  0  # atno 17395 bound_to 11000

$$$$
