AV-unprocessed.smi:893|AV-procd|sdf|4068|dock8
  -GOLD-   22720 1553D 1   1.00000     0.00000
 Structure written by MMmdl.
 26 27  0  0  0  0  0  0  0  0  2 V2000
  149.6532  138.4323  157.5602 C   0  0  0  0  0  0  0  0  0  0  0  0
  150.1246  139.7166  158.2610 C   0  0  0  0  0  0  0  0  0  0  0  0
  151.0606  140.6017  157.4016 C   0  0  1  0  0  0  0  0  0  0  0  0
  151.5245  141.8450  158.1407 C   0  0  0  0  0  0  0  0  0  0  0  0
  152.3036  141.9312  159.3328 C   0  0  0  0  0  0  0  0  0  0  0  0
  152.5328  143.1765  159.7161 N   0  0  0  0  0  0  0  0  0  0  0  0
  151.9152  143.9309  158.7858 N   0  0  0  0  0  0  0  0  0  0  0  0
  151.9664  145.3735  158.8881 C   0  0  0  0  0  0  0  0  0  0  0  0
  151.2980  143.1577  157.8273 C   0  0  0  0  0  0  0  0  0  0  0  0
  152.1691  139.8221  156.8870 N   0  0  0  0  0  0  0  0  0  0  0  0
  152.1717  139.7944  155.5555 C   0  0  0  0  0  0  0  0  0  0  0  0
  153.0380  139.1942  154.9238 O   0  0  0  0  0  0  0  0  0  0  0  0
  151.1246  140.4928  155.0746 N   0  5  0  0  0  0  0  0  0  0  0  0
  150.3890  141.0094  156.0832 C   0  0  0  0  0  0  0  0  0  0  0  0
  149.3591  141.6828  156.0473 O   0  0  0  0  0  0  0  0  0  0  0  0
  149.0045  137.8524  158.2168 H   0  0  0  0  0  0  0  0  0  0  0  0
  150.4939  137.7961  157.2832 H   0  0  0  0  0  0  0  0  0  0  0  0
  149.0890  138.6564  156.6547 H   0  0  0  0  0  0  0  0  0  0  0  0
  149.2456  140.2907  158.5591 H   0  0  0  0  0  0  0  0  0  0  0  0
  150.6284  139.4435  159.1894 H   0  0  0  0  0  0  0  0  0  0  0  0
  152.7079  141.1267  159.9296 H   0  0  0  0  0  0  0  0  0  0  0  0
  151.4342  145.8269  158.0514 H   0  0  0  0  0  0  0  0  0  0  0  0
  153.0042  145.7078  158.8708 H   0  0  0  0  0  0  0  0  0  0  0  0
  151.5013  145.6940  159.8207 H   0  0  0  0  0  0  0  0  0  0  0  0
  150.7551  143.5979  157.0037 H   0  0  0  0  0  0  0  0  0  0  0  0
  152.8519  139.3688  157.4759 H   0  0  0  0  0  0  0  0  0  0  0  0
  1  2  1  0  0  0  0
  1 16  1  0  0  0  0
  1 17  1  0  0  0  0
  1 18  1  0  0  0  0
  2  3  1  0  0  0  0
  2 19  1  0  0  0  0
  2 20  1  0  0  0  0
  3 14  1  0  0  0  0
  3  4  1  0  0  0  0
  3 10  1  0  0  0  0
  4  9  2  0  0  0  0
  4  5  1  0  0  0  0
  5  6  2  0  0  0  0
  5 21  1  0  0  0  0
  6  7  1  0  0  0  0
  7  8  1  0  0  0  0
  7  9  1  0  0  0  0
  8 22  1  0  0  0  0
  8 23  1  0  0  0  0
  8 24  1  0  0  0  0
  9 25  1  0  0  0  0
 10 11  1  0  0  0  0
 10 26  1  0  0  0  0
 11 12  2  0  0  0  0
 11 13  1  0  0  0  0
 13 14  1  0  0  0  0
 14 15  2  0  0  0  0
M  CHG  1  13  -1
M  END
> <s_m_source_file>
AV-unprocessed.smi

> <i_m_source_file_index>
893

> <i_lp_mmshare_version>
43012

> <i_f3d_flags>
0

> <s_epik_input>
Tz1DMVtOSF1DKD1PKVtOSF1bQ0BAXTEoW0NIMl1bQ0gzXSljMltjSF1ubihbQ0gzXSlbY0hdMg==

> <s_epik_cmdline>
J2VwaWtfcHl0aG9uJywgJy1waCcsICc3LjAnLCAnLXRuJywgJzgnLCAnLW1hJywgJzIwMCcsICctbWV0YWxfYmluZGluZycsICctaW1hZScsICc8aW5maWxlLm1hZT4nLCAnLW9tYWUnLCAnPG91dGZpbGUubWFlPic=

> <r_lp_tautomer_probability>
1

> <r_epik_Ionization_Penalty>
1.92579

> <r_epik_Ionization_Penalty_Charging>
1.92573

> <r_epik_Ionization_Penalty_Neutral>
5.85665e-05

> <r_epik_State_Penalty>
2.04887

> <r_epik_Charging_Adjusted_Penalty>
3.97461

> <i_epik_Tot_Q>
-1

> <i_epik_Tot_abs_Q>
1

> <r_epik_Metal_State_Penalty>
0.530533

> <b_epik_Metal_Only>
0

> <s_lp_Force_Field>
OPLS_2005

> <r_lp_Energy>
5.94643

> <b_lp_Chiralities_Consistent>
1

> <s_lp_Variant>
AV-unprocessed.smi:893-3

> <Gold.Version>
5.8.1

> <Gold.Id.Protein>
6NUR|6NUR_protein|mol2

> <Gold.PLP.Fitness>
37.3936

> <Gold.PLP.PLP>
-28.7788

> <Gold.PLP.part.hbond>
-2.5024

> <Gold.PLP.part.metal>
0.0000

> <Gold.PLP.part.buried>
-3.7005

> <Gold.PLP.part.nonpolar>
-22.3246

> <Gold.PLP.part.repulsive>
0.3084

> <Gold.PLP.ligand.clash>
0.0000

> <Gold.PLP.ligand.torsion>
0.0748

> <Gold.PLP.Chemscore.Hbond>
1.8920

> <Gold.PLP.Chemscore.CHOScore>
0.9878

> <Gold.PLP.Chemscore.Metal>
0.0000

> <Gold.Chemscore.Hbonds>
donor molecule, donor type, donor heavy atom, donor atom, acceptor molecule, acceptor atom, score
      P1  H  7989  7998       L1    13  0.99
      P1  H  7997  8010       L1    12  0.80
      L1  C     9    25       P1  8028  0.96

> <Gold.PLP.Chemscore.Internal.Correction>
0.1250

> <Gold.Rescore>
     Score         DG    S(hbond)    S(metal)    S(lipo)     H(rot)  DE(clash)    DE(int)     intcor
     10.36     -11.39       0.97        0.00      50.92       1.28       0.03       1.00       ----

> <Gold.Chemscore.Fitness>
10.3576

> <Gold.Chemscore.DG>
-11.3875

> <Gold.Chemscore.ZeroCoef>
-5.4800

> <Gold.Chemscore.Hbond>
0.9664

> <Gold.Chemscore.Metal>
0.0000

> <Gold.Chemscore.Lipo>
50.9230

> <Gold.Chemscore.Internal_Hbond>
0.0000

> <Gold.Chemscore.DEClash>
0.0323

> <Gold.Chemscore.DEInternal>
0.9976

> <Gold.Chemscore.Rot>
1.2805

> <Gold.Chemscore.Internal.Correction>
   9.000000E+99

> <Gold.Chemscore.Hbonds>
donor molecule, donor type, donor heavy atom, donor atom, acceptor molecule, acceptor atom, score
      P1  H  7989  7998       L1    13  0.33
      P1  H  7997  8010       L1    12  0.13

> <Gold.Chemscore.Hbond.Weighted>
-3.2277

> <Gold.Chemscore.Metal.Weighted>
-0.0000

> <Gold.Chemscore.Lipo.Weighted>
-5.9580

> <Gold.Chemscore.Internal_Hbond.Weighted>
0.0000

> <Gold.Chemscore.DEClash.Weighted>
0.0323

> <Gold.Chemscore.DEInternal.Weighted>
0.9976

> <Gold.Chemscore.Rot.Weighted>
3.2782

> <Gold.Chemscore.Internal.Correction.Weighted>
   9.000000E+99

> <Gold.Protein.RotatedTorsions>
[ 6907 6896 6895 6894 ] final   55.60 input  -60.11 | X-H torsion
[ 7974 7965 7964 7962 ] final   61.78 input  175.53 | X-H torsion
[ 8008 7997 7996 7995 ] final  124.08 input   59.86 | X-H torsion
[ 10167 10162 10161 10158 ] final -177.98 input  -65.29 | X-H torsion
[ 10718 10713 10712 10709 ] final -126.52 input   66.30 | X-H torsion
[ 10763 10752 10751 10750 ] final   15.17 input  -60.55 | X-H torsion
[ 11005 11000 10999 10996 ] final    3.16 input  -57.11 | X-H torsion

> <Gold.Protein.ActiveResidues>
 VAL166  LYS551  ARG553  GLY616  TRP617  ASP618  TYR619  PRO620  LYS621  CYS622 
 ASP623  PHE694  ASN695  SER759  ASP760  ASP761  ALA762  ILE779  LEU786  VAL792 
 PHE793  MET794  SER795  GLU796  ALA797  LYS798  CYS799  TRP800  GLU811  SER814 

> <Gold.Protein.RotatedAtoms>
  152.3554  134.6947  160.0223 H   0  0  0  0  0  0  0  0  0  0  0  0  # atno 6907 bound_to 6896
  151.7287  133.3311  159.3342 H   0  0  0  0  0  0  0  0  0  0  0  0  # atno 6908 bound_to 6896
  150.7568  134.6316  159.6234 H   0  0  0  0  0  0  0  0  0  0  0  0  # atno 6909 bound_to 6896
  145.8808  139.3442  143.0707 H   0  0  0  0  0  0  0  0  0  0  0  0  # atno 7974 bound_to 7965
  156.2789  140.2748  156.1730 H   0  0  0  0  0  0  0  0  0  0  0  0  # atno 8008 bound_to 7997
  155.0635  140.0387  157.2602 H   0  0  0  0  0  0  0  0  0  0  0  0  # atno 8009 bound_to 7997
  154.7098  140.2666  155.6646 H   0  0  0  0  0  0  0  0  0  0  0  0  # atno 8010 bound_to 7997
  139.5454  144.2249  152.0978 H   0  0  0  0  0  0  0  0  0  0  0  0  # atno 10167 bound_to 10162
  156.1773  130.6708  151.0259 H   0  0  0  0  0  0  0  0  0  0  0  0  # atno 10718 bound_to 10713
  153.1551  135.6785  153.8825 H   0  0  0  0  0  0  0  0  0  0  0  0  # atno 10763 bound_to 10752
  153.8239  135.3126  155.3414 H   0  0  0  0  0  0  0  0  0  0  0  0  # atno 10764 bound_to 10752
  154.7891  135.4845  154.0100 H   0  0  0  0  0  0  0  0  0  0  0  0  # atno 10765 bound_to 10752
  140.5963  133.9877  155.8111 H   0  0  0  0  0  0  0  0  0  0  0  0  # atno 11005 bound_to 11000
  145.9026  140.9233  143.0495 LP  0  0  0  0  0  0  0  0  0  0  0  0  # atno 17320 bound_to 7965
  144.6727  140.1052  143.7458 LP  0  0  0  0  0  0  0  0  0  0  0  0  # atno 17321 bound_to 7965
  140.1735  144.4913  150.6566 LP  0  0  0  0  0  0  0  0  0  0  0  0  # atno 17342 bound_to 10162
  140.6700  143.2282  151.5648 LP  0  0  0  0  0  0  0  0  0  0  0  0  # atno 17343 bound_to 10162
  157.6844  131.0829  150.7282 LP  0  0  0  0  0  0  0  0  0  0  0  0  # atno 17370 bound_to 10713
  156.7340  130.4718  149.5493 LP  0  0  0  0  0  0  0  0  0  0  0  0  # atno 17371 bound_to 10713
  141.0902  133.9928  157.3249 LP  0  0  0  0  0  0  0  0  0  0  0  0  # atno 17394 bound_to 11000
  139.9252  135.0201  156.8208 LP  0  0  0  0  0  0  0  0  0  0  0  0  # atno 17395 bound_to 11000

$$$$
