AV-unprocessed.smi:3068|AV-procd|sdf|11705|dock10
  -GOLD-   2272017113D 1   1.00000     0.00000
 Structure written by MMmdl.
 40 42  0  0  0  0  0  0  0  0  2 V2000
  151.4759  137.3879  154.3307 N   0  0  0  0  0  0  0  0  0  0  0  0
  150.6512  138.1978  154.2718 C   0  0  0  0  0  0  0  0  0  0  0  0
  149.6136  139.2183  154.1962 C   0  0  0  0  0  0  0  0  0  0  0  0
  150.0079  140.5003  154.3751 N   0  0  0  0  0  0  0  0  0  0  0  0
  149.0558  141.4550  154.3108 C   0  0  0  0  0  0  0  0  0  0  0  0
  147.7057  141.1348  154.0695 C   0  0  0  0  0  0  0  0  0  0  0  0
  147.3031  139.8587  153.8911 N   0  0  0  0  0  0  0  0  0  0  0  0
  148.2501  138.8890  153.9519 C   0  0  0  0  0  0  0  0  0  0  0  0
  147.8472  137.5535  153.7646 N   0  0  0  0  0  0  0  0  0  0  0  0
  146.4471  137.1515  153.8296 C   0  0  0  0  0  0  0  0  0  0  0  0
  146.0193  136.3141  152.6125 C   0  0  1  0  0  0  0  0  0  0  0  0
  146.4279  134.8382  152.7682 C   0  0  0  0  0  0  0  0  0  0  0  0
  145.9423  134.0393  151.6196 N   0  3  1  0  0  0  0  0  0  0  0  0
  146.3519  132.6150  151.7073 C   0  0  0  0  0  0  0  0  0  0  0  0
  145.9148  131.8361  150.4567 C   0  0  0  0  0  0  0  0  0  0  0  0
  144.4019  131.9632  150.2362 C   0  0  0  0  0  0  0  0  0  0  0  0
  144.0017  133.4436  150.1767 C   0  0  0  0  0  0  0  0  0  0  0  0
  144.4747  134.2020  151.4327 C   0  0  2  0  0  0  0  0  0  0  0  0
  144.1186  135.6994  151.3506 C   0  0  0  0  0  0  0  0  0  0  0  0
  144.6010  136.3752  152.5047 O   0  0  0  0  0  0  0  0  0  0  0  0
  149.3720  142.4778  154.4534 H   0  0  0  0  0  0  0  0  0  0  0  0
  146.9483  141.9030  154.0198 H   0  0  0  0  0  0  0  0  0  0  0  0
  148.5495  136.8318  153.6819 H   0  0  0  0  0  0  0  0  0  0  0  0
  146.2714  136.5984  154.7530 H   0  0  0  0  0  0  0  0  0  0  0  0
  145.8335  138.0503  153.8947 H   0  0  0  0  0  0  0  0  0  0  0  0
  146.4753  136.7194  151.7074 H   0  0  0  0  0  0  0  0  0  0  0  0
  147.5139  134.7594  152.8317 H   0  0  0  0  0  0  0  0  0  0  0  0
  146.0215  134.4301  153.6951 H   0  0  0  0  0  0  0  0  0  0  0  0
  147.4357  132.5532  151.8143 H   0  0  0  0  0  0  0  0  0  0  0  0
  145.9180  132.1634  152.6010 H   0  0  0  0  0  0  0  0  0  0  0  0
  146.4471  132.2157  149.5835 H   0  0  0  0  0  0  0  0  0  0  0  0
  146.1908  130.7858  150.5555 H   0  0  0  0  0  0  0  0  0  0  0  0
  144.1116  131.4569  149.3151 H   0  0  0  0  0  0  0  0  0  0  0  0
  143.8670  131.4679  151.0477 H   0  0  0  0  0  0  0  0  0  0  0  0
  144.4329  133.9000  149.2843 H   0  0  0  0  0  0  0  0  0  0  0  0
  142.9192  133.5276  150.0732 H   0  0  0  0  0  0  0  0  0  0  0  0
  143.9739  133.7784  152.3054 H   0  0  0  0  0  0  0  0  0  0  0  0
  144.5339  136.1557  150.4503 H   0  0  0  0  0  0  0  0  0  0  0  0
  143.0370  135.8272  151.3002 H   0  0  0  0  0  0  0  0  0  0  0  0
  146.3837  134.4188  150.7943 H   0  0  0  0  0  0  0  0  0  0  0  0
  1  2  3  0  0  0  0
  2  3  1  0  0  0  0
  3  8  1  0  0  0  0
  3  4  2  0  0  0  0
  4  5  1  0  0  0  0
  5  6  2  0  0  0  0
  5 21  1  0  0  0  0
  6  7  1  0  0  0  0
  6 22  1  0  0  0  0
  7  8  2  0  0  0  0
  8  9  1  0  0  0  0
  9 10  1  0  0  0  0
  9 23  1  0  0  0  0
 10 11  1  0  0  0  0
 10 24  1  0  0  0  0
 10 25  1  0  0  0  0
 11 20  1  0  0  0  0
 11 12  1  0  0  0  0
 11 26  1  0  0  0  0
 12 13  1  0  0  0  0
 12 27  1  0  0  0  0
 12 28  1  0  0  0  0
 13 18  1  0  0  0  0
 13 14  1  0  0  0  0
 13 40  1  0  0  0  0
 14 15  1  0  0  0  0
 14 29  1  0  0  0  0
 14 30  1  0  0  0  0
 15 16  1  0  0  0  0
 15 31  1  0  0  0  0
 15 32  1  0  0  0  0
 16 17  1  0  0  0  0
 16 33  1  0  0  0  0
 16 34  1  0  0  0  0
 17 18  1  0  0  0  0
 17 35  1  0  0  0  0
 17 36  1  0  0  0  0
 18 19  1  0  0  0  0
 18 37  1  0  0  0  0
 19 20  1  0  0  0  0
 19 38  1  0  0  0  0
 19 39  1  0  0  0  0
M  CHG  1  13   1
M  END
> <s_m_source_file>
AV-unprocessed.smi

> <i_m_source_file_index>
3068

> <i_lp_mmshare_version>
43012

> <i_f3d_flags>
0

> <s_epik_input>
TiNDYzFuW2NIXVtjSF1uYzFbTkhdW0NIMl1bQ0BIXShbQ0gyXTIpT1tDSDJdW0NAQEhdKE4yMylbQ0gyXVtDSDJdW0NIMl1bQ0gyXTM=

> <s_epik_cmdline>
J2VwaWtfcHl0aG9uJywgJy1waCcsICc3LjAnLCAnLXRuJywgJzgnLCAnLW1hJywgJzIwMCcsICctbWV0YWxfYmluZGluZycsICctaW1hZScsICc8aW5maWxlLm1hZT4nLCAnLW9tYWUnLCAnPG91dGZpbGUubWFlPic=

> <r_epik_Ionization_Penalty>
0.0804321

> <r_epik_Ionization_Penalty_Charging>
0.0803403

> <r_epik_Ionization_Penalty_Neutral>
9.17277e-05

> <r_epik_State_Penalty>
0.0711481

> <r_epik_Charging_Adjusted_Penalty>
0.151488

> <i_epik_Tot_Q>
1

> <i_epik_Tot_abs_Q>
1

> <r_epik_Metal_State_Penalty>
0.0711481

> <b_epik_Metal_Only>
0

> <s_lp_Force_Field>
OPLS_2005

> <r_lp_Energy>
36.4506

> <b_lp_Chiralities_Consistent>
1

> <s_lp_Variant>
AV-unprocessed.smi:3068-8

> <Gold.Version>
5.8.1

> <Gold.Id.Protein>
6NUR|6NUR_protein|mol2

> <Gold.PLP.Fitness>
40.3837

> <Gold.PLP.PLP>
-32.3304

> <Gold.PLP.part.hbond>
-3.0000

> <Gold.PLP.part.metal>
0.0000

> <Gold.PLP.part.buried>
-2.4744

> <Gold.PLP.part.nonpolar>
-28.0026

> <Gold.PLP.part.repulsive>
0.5811

> <Gold.PLP.ligand.clash>
0.0000

> <Gold.PLP.ligand.torsion>
0.2986

> <Gold.PLP.Chemscore.Hbond>
2.1982

> <Gold.PLP.Chemscore.CHOScore>
0.6850

> <Gold.PLP.Chemscore.Metal>
0.0000

> <Gold.Chemscore.Hbonds>
donor molecule, donor type, donor heavy atom, donor atom, acceptor molecule, acceptor atom, score
      L1  H     9    23       P1  7948  0.34
      P1  H  7989  7998       L1     4  0.83
      P1  H 10752 10763       L1     1  0.42
      L1  C     5    21       P1  8028  0.89

> <Gold.PLP.Chemscore.Internal.Correction>
0.0007

> <Gold.Rescore>
     Score         DG    S(hbond)    S(metal)    S(lipo)     H(rot)  DE(clash)    DE(int)     intcor
     16.63     -17.22       1.85        0.00      76.44       1.32       0.27       0.32       ----

> <Gold.Chemscore.Fitness>
16.6295

> <Gold.Chemscore.DG>
-17.2154

> <Gold.Chemscore.ZeroCoef>
-5.4800

> <Gold.Chemscore.Hbond>
1.8470

> <Gold.Chemscore.Metal>
0.0000

> <Gold.Chemscore.Lipo>
76.4424

> <Gold.Chemscore.Internal_Hbond>
0.0000

> <Gold.Chemscore.DEClash>
0.2687

> <Gold.Chemscore.DEInternal>
0.3173

> <Gold.Chemscore.Rot>
1.3193

> <Gold.Chemscore.Internal.Correction>
   9.000000E+99

> <Gold.Chemscore.Hbonds>
donor molecule, donor type, donor heavy atom, donor atom, acceptor molecule, acceptor atom, score
      L1  H     9    23       P1  7948  0.34
      P1  H  7989  7998       L1     4  0.63
      P1  H 10752 10763       L1     1  0.41

> <Gold.Chemscore.Hbond.Weighted>
-6.1690

> <Gold.Chemscore.Metal.Weighted>
-0.0000

> <Gold.Chemscore.Lipo.Weighted>
-8.9438

> <Gold.Chemscore.Internal_Hbond.Weighted>
0.0000

> <Gold.Chemscore.DEClash.Weighted>
0.2687

> <Gold.Chemscore.DEInternal.Weighted>
0.3173

> <Gold.Chemscore.Rot.Weighted>
3.3774

> <Gold.Chemscore.Internal.Correction.Weighted>
   9.000000E+99

> <Gold.Protein.RotatedTorsions>
[ 6907 6896 6895 6894 ] final   -2.50 input  -60.11 | X-H torsion
[ 7974 7965 7964 7962 ] final   10.83 input  175.53 | X-H torsion
[ 8008 7997 7996 7995 ] final  -37.24 input   59.86 | X-H torsion
[ 10167 10162 10161 10158 ] final   92.55 input  -65.29 | X-H torsion
[ 10718 10713 10712 10709 ] final -157.95 input   66.30 | X-H torsion
[ 10763 10752 10751 10750 ] final   44.76 input  -60.55 | X-H torsion
[ 11005 11000 10999 10996 ] final -125.08 input  -57.11 | X-H torsion

> <Gold.Protein.ActiveResidues>
 VAL166  LYS551  ARG553  GLY616  TRP617  ASP618  TYR619  PRO620  LYS621  CYS622 
 ASP623  PHE694  ASN695  SER759  ASP760  ASP761  ALA762  ILE779  LEU786  VAL792 
 PHE793  MET794  SER795  GLU796  ALA797  LYS798  CYS799  TRP800  GLU811  SER814 

> <Gold.Protein.RotatedAtoms>
  151.5289  135.1068  159.9897 H   0  0  0  0  0  0  0  0  0  0  0  0  # atno 6907 bound_to 6896
  152.4587  133.7773  159.6842 H   0  0  0  0  0  0  0  0  0  0  0  0  # atno 6908 bound_to 6896
  150.8541  133.7677  159.3040 H   0  0  0  0  0  0  0  0  0  0  0  0  # atno 6909 bound_to 6896
  146.2381  139.9575  142.8462 H   0  0  0  0  0  0  0  0  0  0  0  0  # atno 7974 bound_to 7965
  154.4057  140.1609  156.2505 H   0  0  0  0  0  0  0  0  0  0  0  0  # atno 8008 bound_to 7997
  155.9123  140.3426  155.6085 H   0  0  0  0  0  0  0  0  0  0  0  0  # atno 8009 bound_to 7997
  155.7321  140.0782  157.2274 H   0  0  0  0  0  0  0  0  0  0  0  0  # atno 8010 bound_to 7997
  139.8266  144.6707  150.9452 H   0  0  0  0  0  0  0  0  0  0  0  0  # atno 10167 bound_to 10162
  156.5474  130.8590  151.2769 H   0  0  0  0  0  0  0  0  0  0  0  0  # atno 10718 bound_to 10713
  152.9835  135.6061  154.3326 H   0  0  0  0  0  0  0  0  0  0  0  0  # atno 10763 bound_to 10752
  154.3028  135.2772  155.2605 H   0  0  0  0  0  0  0  0  0  0  0  0  # atno 10764 bound_to 10752
  154.4849  135.5907  153.6473 H   0  0  0  0  0  0  0  0  0  0  0  0  # atno 10765 bound_to 10752
  140.9791  134.0699  157.3785 H   0  0  0  0  0  0  0  0  0  0  0  0  # atno 11005 bound_to 11000
  145.1802  140.9763  143.4270 LP  0  0  0  0  0  0  0  0  0  0  0  0  # atno 17320 bound_to 7965
  144.9949  139.3654  143.6196 LP  0  0  0  0  0  0  0  0  0  0  0  0  # atno 17321 bound_to 7965
  140.7810  143.4041  151.1101 LP  0  0  0  0  0  0  0  0  0  0  0  0  # atno 17342 bound_to 10162
  139.7697  143.8512  152.3118 LP  0  0  0  0  0  0  0  0  0  0  0  0  # atno 17343 bound_to 10162
  157.7394  130.9831  150.2311 LP  0  0  0  0  0  0  0  0  0  0  0  0  # atno 17370 bound_to 10713
  156.2916  130.3746  149.7836 LP  0  0  0  0  0  0  0  0  0  0  0  0  # atno 17371 bound_to 10713
  139.8942  135.0135  156.6941 LP  0  0  0  0  0  0  0  0  0  0  0  0  # atno 17394 bound_to 11000
  140.7214  133.9137  155.8149 LP  0  0  0  0  0  0  0  0  0  0  0  0  # atno 17395 bound_to 11000

$$$$
