AV-unprocessed.smi:224|AV-procd|sdf|1722|dock10
  -GOLD-   2262020203D 1   1.00000     0.00000
 Structure written by MMmdl.
 56 59  0  0  0  0  0  0  0  0  2 V2000
  152.5953  144.4802  158.7526 C   0  0  0  0  0  0  0  0  0  0  0  0
  151.1941  144.8557  158.2477 C   0  0  1  0  0  0  0  0  0  0  0  0
  151.2455  144.9300  156.8384 O   0  0  0  0  0  0  0  0  0  0  0  0
  150.1146  143.8234  158.6392 C   0  0  0  0  0  0  0  0  0  0  0  0
  149.9247  142.7493  157.6209 N   0  3  1  0  0  0  0  0  0  0  0  0
  151.1791  141.9710  157.4081 C   0  0  0  0  0  0  0  0  0  0  0  0
  151.0185  140.8943  156.3259 C   0  0  0  0  0  0  0  0  0  0  0  0
  149.9013  140.0176  156.6464 N   0  0  0  0  0  0  0  0  0  0  0  0
  150.1750  138.9411  157.4323 C   0  0  0  0  0  0  0  0  0  0  0  0
  151.4661  138.6325  157.7286 N   0  0  0  0  0  0  0  0  0  0  0  0
  151.7535  137.5710  158.4873 C   0  0  0  0  0  0  0  0  0  0  0  0
  150.9172  136.6976  159.0490 N   0  0  0  0  0  0  0  0  0  0  0  0
  149.6186  137.0079  158.7732 C   0  0  0  0  0  0  0  0  0  0  0  0
  149.1635  138.0995  157.9795 C   0  0  0  0  0  0  0  0  0  0  0  0
  147.7742  138.0954  157.9296 N   0  0  0  0  0  0  0  0  0  0  0  0
  147.4297  137.0565  158.6401 C   0  0  0  0  0  0  0  0  0  0  0  0
  148.4745  136.3510  159.1927 N   0  0  0  0  0  0  0  0  0  0  0  0
  148.3821  135.1621  160.0274 C   0  0  0  0  0  0  0  0  0  0  0  0
  147.3768  135.2994  161.1959 C   0  0  2  0  0  0  0  0  0  0  0  0
  146.0593  135.3202  160.6744 O   0  0  0  0  0  0  0  0  0  0  0  0
  147.5888  136.5676  162.0130 C   0  0  0  0  0  0  0  0  0  0  0  0
  147.0785  136.1686  163.3910 C   0  0  0  0  0  0  0  0  0  0  0  0
  147.5400  134.8354  163.5268 O   0  0  0  0  0  0  0  0  0  0  0  0
  147.4639  134.1859  162.2606 C   0  0  0  0  0  0  0  0  0  0  0  0
  148.6431  140.7361  156.8237 C   0  0  0  0  0  0  0  0  0  0  0  0
  148.7454  141.8609  157.8834 C   0  0  2  0  0  0  0  0  0  0  0  0
  147.4050  142.6238  157.9024 C   0  0  0  0  0  0  0  0  0  0  0  0
  152.6290  144.4501  159.8419 H   0  0  0  0  0  0  0  0  0  0  0  0
  153.3383  145.2082  158.4249 H   0  0  0  0  0  0  0  0  0  0  0  0
  152.9034  143.5015  158.3831 H   0  0  0  0  0  0  0  0  0  0  0  0
  150.9344  145.8520  158.6025 H   0  0  0  0  0  0  0  0  0  0  0  0
  150.4513  144.5599  156.4836 H   0  0  0  0  0  0  0  0  0  0  0  0
  150.3547  143.3644  159.6000 H   0  0  0  0  0  0  0  0  0  0  0  0
  149.1940  144.3791  158.7983 H   0  0  0  0  0  0  0  0  0  0  0  0
  151.9945  142.6273  157.1098 H   0  0  0  0  0  0  0  0  0  0  0  0
  151.4784  141.5043  158.3481 H   0  0  0  0  0  0  0  0  0  0  0  0
  150.8242  141.3632  155.3605 H   0  0  0  0  0  0  0  0  0  0  0  0
  151.9532  140.3469  156.2153 H   0  0  0  0  0  0  0  0  0  0  0  0
  152.8035  137.3965  158.6707 H   0  0  0  0  0  0  0  0  0  0  0  0
  146.3959  136.7776  158.7832 H   0  0  0  0  0  0  0  0  0  0  0  0
  148.1045  134.3218  159.3895 H   0  0  0  0  0  0  0  0  0  0  0  0
  149.3770  134.9352  160.4127 H   0  0  0  0  0  0  0  0  0  0  0  0
  145.7988  136.2204  160.5525 H   0  0  0  0  0  0  0  0  0  0  0  0
  148.6525  136.7999  162.0822 H   0  0  0  0  0  0  0  0  0  0  0  0
  147.0836  137.4438  161.6044 H   0  0  0  0  0  0  0  0  0  0  0  0
  147.4599  136.8092  164.1862 H   0  0  0  0  0  0  0  0  0  0  0  0
  145.9881  136.1850  163.4257 H   0  0  0  0  0  0  0  0  0  0  0  0
  146.6046  133.5142  162.2300 H   0  0  0  0  0  0  0  0  0  0  0  0
  148.3594  133.5760  162.1473 H   0  0  0  0  0  0  0  0  0  0  0  0
  148.3741  141.1689  155.8592 H   0  0  0  0  0  0  0  0  0  0  0  0
  147.8380  140.0422  157.0703 H   0  0  0  0  0  0  0  0  0  0  0  0
  148.8901  141.4031  158.8627 H   0  0  0  0  0  0  0  0  0  0  0  0
  146.5662  141.9277  157.9345 H   0  0  0  0  0  0  0  0  0  0  0  0
  147.2844  143.2394  157.0104 H   0  0  0  0  0  0  0  0  0  0  0  0
  147.2941  143.2635  158.7765 H   0  0  0  0  0  0  0  0  0  0  0  0
  149.7251  143.2165  156.7479 H   0  0  0  0  0  0  0  0  0  0  0  0
  1  2  1  0  0  0  0
  1 28  1  0  0  0  0
  1 29  1  0  0  0  0
  1 30  1  0  0  0  0
  2  3  1  0  0  0  0
  2  4  1  0  0  0  0
  2 31  1  0  0  0  0
  3 32  1  0  0  0  0
  4  5  1  0  0  0  0
  4 33  1  0  0  0  0
  4 34  1  0  0  0  0
  5 26  1  0  0  0  0
  5  6  1  0  0  0  0
  5 56  1  0  0  0  0
  6  7  1  0  0  0  0
  6 35  1  0  0  0  0
  6 36  1  0  0  0  0
  7  8  1  0  0  0  0
  7 37  1  0  0  0  0
  7 38  1  0  0  0  0
  8  9  1  0  0  0  0
  8 25  1  0  0  0  0
  9 14  1  0  0  0  0
  9 10  2  0  0  0  0
 10 11  1  0  0  0  0
 11 12  2  0  0  0  0
 11 39  1  0  0  0  0
 12 13  1  0  0  0  0
 13 17  1  0  0  0  0
 13 14  2  0  0  0  0
 14 15  1  0  0  0  0
 15 16  2  0  0  0  0
 16 17  1  0  0  0  0
 16 40  1  0  0  0  0
 17 18  1  0  0  0  0
 18 19  1  0  0  0  0
 18 41  1  0  0  0  0
 18 42  1  0  0  0  0
 19 24  1  0  0  0  0
 19 20  1  0  0  0  0
 19 21  1  0  0  0  0
 20 43  1  0  0  0  0
 21 22  1  0  0  0  0
 21 44  1  0  0  0  0
 21 45  1  0  0  0  0
 22 23  1  0  0  0  0
 22 46  1  0  0  0  0
 22 47  1  0  0  0  0
 23 24  1  0  0  0  0
 24 48  1  0  0  0  0
 24 49  1  0  0  0  0
 25 26  1  0  0  0  0
 25 50  1  0  0  0  0
 25 51  1  0  0  0  0
 26 27  1  0  0  0  0
 26 52  1  0  0  0  0
 27 53  1  0  0  0  0
 27 54  1  0  0  0  0
 27 55  1  0  0  0  0
M  CHG  1   5   1
M  END
> <s_m_source_file>
AV-unprocessed.smi

> <i_m_source_file_index>
224

> <i_lp_mmshare_version>
43012

> <i_f3d_flags>
0

> <s_epik_input>
W0NIM11bQ0BIXShbT0hdKVtDSDJdTjFbQ0gyXVtDSDJdTihbQ0gyXVtDQEhdMVtDSDNdKWMobltjSF1uMiljKGMyMyluW2NIXW4zW0NIMl1bQ0BAXTQoW09IXSlbQ0gyXVtDSDJdT1tDSDJdNA==

> <s_epik_cmdline>
J2VwaWtfcHl0aG9uJywgJy1waCcsICc3LjAnLCAnLXRuJywgJzgnLCAnLW1hJywgJzIwMCcsICctbWV0YWxfYmluZGluZycsICctaW1hZScsICc8aW5maWxlLm1hZT4nLCAnLW9tYWUnLCAnPG91dGZpbGUubWFlPic=

> <r_lp_tautomer_probability>
1

> <r_epik_Ionization_Penalty>
0.00516958

> <r_epik_Ionization_Penalty_Charging>
0.00509693

> <r_epik_Ionization_Penalty_Neutral>
7.26542e-05

> <r_epik_State_Penalty>
-0

> <r_epik_Charging_Adjusted_Penalty>
0.00509693

> <i_epik_Tot_Q>
1

> <i_epik_Tot_abs_Q>
1

> <r_epik_Metal_State_Penalty>
-0

> <b_epik_Metal_Only>
0

> <s_lp_Force_Field>
OPLS_2005

> <r_lp_Energy>
50.435

> <b_lp_Chiralities_Consistent>
1

> <s_lp_Variant>
AV-unprocessed.smi:224-16

> <Gold.Version>
5.8.1

> <Gold.Id.Protein>
6NUR|6NUR_protein|mol2

> <Gold.PLP.Fitness>
51.0055

> <Gold.PLP.PLP>
-40.6520

> <Gold.PLP.part.hbond>
-4.5481

> <Gold.PLP.part.metal>
0.0000

> <Gold.PLP.part.buried>
-4.2098

> <Gold.PLP.part.nonpolar>
-31.9408

> <Gold.PLP.part.repulsive>
0.0599

> <Gold.PLP.ligand.clash>
0.0000

> <Gold.PLP.ligand.torsion>
1.0509

> <Gold.PLP.Chemscore.Hbond>
3.9585

> <Gold.PLP.Chemscore.CHOScore>
0.0000

> <Gold.PLP.Chemscore.Metal>
0.0000

> <Gold.Chemscore.Hbonds>
donor molecule, donor type, donor heavy atom, donor atom, acceptor molecule, acceptor atom, score
      L1  H     3    32       P1  8028  0.99
      L1  H     5    56       P1  8028  1.98
      P1  H  6896  6909       L1    12  0.91

> <Gold.PLP.Chemscore.Internal.Correction>
0.5798

> <Gold.Rescore>
     Score         DG    S(hbond)    S(metal)    S(lipo)     H(rot)  DE(clash)    DE(int)     intcor
     12.40     -17.10       2.73        0.00      94.85       3.36       1.49       3.21       ----

> <Gold.Chemscore.Fitness>
12.3979

> <Gold.Chemscore.DG>
-17.0955

> <Gold.Chemscore.ZeroCoef>
-5.4800

> <Gold.Chemscore.Hbond>
2.7312

> <Gold.Chemscore.Metal>
0.0000

> <Gold.Chemscore.Lipo>
94.8525

> <Gold.Chemscore.Internal_Hbond>
0.0000

> <Gold.Chemscore.DEClash>
1.4870

> <Gold.Chemscore.DEInternal>
3.2106

> <Gold.Chemscore.Rot>
3.3611

> <Gold.Chemscore.Internal.Correction>
   9.000000E+99

> <Gold.Chemscore.Hbonds>
donor molecule, donor type, donor heavy atom, donor atom, acceptor molecule, acceptor atom, score
      L1  H     3    32       P1  8028  0.92
      L1  H     5    56       P1  8028  0.89
      P1  H  6896  6909       L1    12  0.58

> <Gold.Chemscore.Hbond.Weighted>
-9.1223

> <Gold.Chemscore.Metal.Weighted>
-0.0000

> <Gold.Chemscore.Lipo.Weighted>
-11.0977

> <Gold.Chemscore.Internal_Hbond.Weighted>
0.0000

> <Gold.Chemscore.DEClash.Weighted>
1.4870

> <Gold.Chemscore.DEInternal.Weighted>
3.2106

> <Gold.Chemscore.Rot.Weighted>
8.6045

> <Gold.Chemscore.Internal.Correction.Weighted>
   9.000000E+99

> <Gold.Protein.RotatedTorsions>
[ 6907 6896 6895 6894 ] final   78.92 input  -60.11 | X-H torsion
[ 7974 7965 7964 7962 ] final  136.37 input  175.53 | X-H torsion
[ 8008 7997 7996 7995 ] final  -73.26 input   59.86 | X-H torsion
[ 10167 10162 10161 10158 ] final   63.95 input  -65.29 | X-H torsion
[ 10718 10713 10712 10709 ] final  -24.80 input   66.30 | X-H torsion
[ 10763 10752 10751 10750 ] final -147.06 input  -60.55 | X-H torsion
[ 11005 11000 10999 10996 ] final   18.30 input  -57.11 | X-H torsion

> <Gold.Protein.ActiveResidues>
 VAL166  LYS551  ARG553  GLY616  TRP617  ASP618  TYR619  PRO620  LYS621  CYS622 
 ASP623  PHE694  ASN695  SER759  ASP760  ASP761  ALA762  ILE779  LEU786  VAL792 
 PHE793  MET794  SER795  GLU796  ALA797  LYS798  CYS799  TRP800  GLU811  SER814 

> <Gold.Protein.RotatedAtoms>
  152.5178  134.3591  159.9278 H   0  0  0  0  0  0  0  0  0  0  0  0  # atno 6907 bound_to 6896
  151.3543  133.3907  159.2691 H   0  0  0  0  0  0  0  0  0  0  0  0  # atno 6908 bound_to 6896
  150.9702  134.9095  159.7841 H   0  0  0  0  0  0  0  0  0  0  0  0  # atno 6909 bound_to 6896
  144.9571  139.4752  143.5497 H   0  0  0  0  0  0  0  0  0  0  0  0  # atno 7974 bound_to 7965
  154.5233  140.0782  156.8212 H   0  0  0  0  0  0  0  0  0  0  0  0  # atno 8008 bound_to 7997
  155.3529  140.3413  155.4221 H   0  0  0  0  0  0  0  0  0  0  0  0  # atno 8009 bound_to 7997
  156.1704  140.1618  156.8443 H   0  0  0  0  0  0  0  0  0  0  0  0  # atno 8010 bound_to 7997
  140.1275  144.4674  150.6884 H   0  0  0  0  0  0  0  0  0  0  0  0  # atno 10167 bound_to 10162
  156.4729  130.4528  149.6858 H   0  0  0  0  0  0  0  0  0  0  0  0  # atno 10718 bound_to 10713
  154.8305  135.3370  154.6759 H   0  0  0  0  0  0  0  0  0  0  0  0  # atno 10763 bound_to 10752
  153.7380  135.6947  153.4978 H   0  0  0  0  0  0  0  0  0  0  0  0  # atno 10764 bound_to 10752
  153.2264  135.4431  155.0499 H   0  0  0  0  0  0  0  0  0  0  0  0  # atno 10765 bound_to 10752
  140.4264  134.1466  155.7677 H   0  0  0  0  0  0  0  0  0  0  0  0  # atno 11005 bound_to 11000
  146.3341  139.8696  142.8842 LP  0  0  0  0  0  0  0  0  0  0  0  0  # atno 17320 bound_to 7965
  145.2755  141.0122  143.3747 LP  0  0  0  0  0  0  0  0  0  0  0  0  # atno 17321 bound_to 7965
  140.6836  143.2339  151.5318 LP  0  0  0  0  0  0  0  0  0  0  0  0  # atno 17342 bound_to 10162
  139.5537  144.2330  152.1575 LP  0  0  0  0  0  0  0  0  0  0  0  0  # atno 17343 bound_to 10162
  156.3600  130.7476  151.2447 LP  0  0  0  0  0  0  0  0  0  0  0  0  # atno 17370 bound_to 10713
  157.7490  131.0353  150.4356 LP  0  0  0  0  0  0  0  0  0  0  0  0  # atno 17371 bound_to 10713
  141.1763  133.8506  157.1408 LP  0  0  0  0  0  0  0  0  0  0  0  0  # atno 17394 bound_to 11000
  140.0165  134.9965  157.0503 LP  0  0  0  0  0  0  0  0  0  0  0  0  # atno 17395 bound_to 11000

$$$$
