AV-unprocessed.smi:2519|AV-procd|sdf|9906|dock10
  -GOLD-   2272013543D 1   1.00000     0.00000
 Structure written by MMmdl.
 43 44  0  0  0  0  0  0  0  0  1 V2000
  147.6412  127.5886  151.5128 C   0  0  0  0  0  0  0  0  0  0  0  0
  147.3020  128.9866  151.2985 N   0  0  0  0  0  0  0  0  0  0  0  0
  146.3298  129.6430  151.9531 C   0  0  0  0  0  0  0  0  0  0  0  0
  145.6177  129.1105  152.8058 O   0  0  0  0  0  0  0  0  0  0  0  0
  146.1339  131.0869  151.5696 C   0  0  0  0  0  0  0  0  0  0  0  0
  145.3338  131.4213  150.4542 C   0  0  0  0  0  0  0  0  0  0  0  0
  145.1653  132.7780  150.1254 C   0  0  0  0  0  0  0  0  0  0  0  0
  145.7985  133.7539  150.9168 C   0  0  0  0  0  0  0  0  0  0  0  0
  146.5838  133.3478  152.0168 C   0  0  0  0  0  0  0  0  0  0  0  0
  147.1898  134.4019  152.7488 N   0  0  0  0  0  0  0  0  0  0  0  0
  147.3365  134.5151  154.0842 C   0  0  0  0  0  0  0  0  0  0  0  0
  146.8857  133.7213  154.9084 O   0  0  0  0  0  0  0  0  0  0  0  0
  148.0318  135.5994  154.4739 N   0  0  0  0  0  0  0  0  0  0  0  0
  148.3767  136.0298  155.8332 C   0  0  1  0  0  0  0  0  0  0  0  0
  149.1934  134.9314  156.5405 C   0  0  0  0  0  0  0  0  0  0  0  0
  150.6098  134.7944  155.9560 C   0  0  0  0  0  0  0  0  0  0  0  0
  151.3568  136.1373  155.9736 C   0  0  0  0  0  0  0  0  0  0  0  0
  150.5687  137.2395  155.2352 C   0  0  2  0  0  0  0  0  0  0  0  0
  151.3182  138.5878  155.2356 C   0  0  0  0  0  0  0  0  0  0  0  0
  152.4798  138.4857  154.5891 F   0  0  0  0  0  0  0  0  0  0  0  0
  150.5760  139.5235  154.6432 F   0  0  0  0  0  0  0  0  0  0  0  0
  151.5548  138.9770  156.4884 F   0  0  0  0  0  0  0  0  0  0  0  0
  149.1512  137.3680  155.8363 C   0  0  0  0  0  0  0  0  0  0  0  0
  146.7360  132.0371  152.3249 N   0  0  0  0  0  0  0  0  0  0  0  0
  148.4606  127.3010  150.8541 H   0  0  0  0  0  0  0  0  0  0  0  0
  146.7877  126.9445  151.2977 H   0  0  0  0  0  0  0  0  0  0  0  0
  147.9558  127.4192  152.5433 H   0  0  0  0  0  0  0  0  0  0  0  0
  147.8383  129.4970  150.6108 H   0  0  0  0  0  0  0  0  0  0  0  0
  144.8553  130.6592  149.8562 H   0  0  0  0  0  0  0  0  0  0  0  0
  144.5608  133.0662  149.2781 H   0  0  0  0  0  0  0  0  0  0  0  0
  145.6818  134.8007  150.6765 H   0  0  0  0  0  0  0  0  0  0  0  0
  147.5951  135.1398  152.1921 H   0  0  0  0  0  0  0  0  0  0  0  0
  148.3540  136.2068  153.7342 H   0  0  0  0  0  0  0  0  0  0  0  0
  147.4503  136.1582  156.3955 H   0  0  0  0  0  0  0  0  0  0  0  0
  149.2702  135.1715  157.6019 H   0  0  0  0  0  0  0  0  0  0  0  0
  148.6709  133.9755  156.4845 H   0  0  0  0  0  0  0  0  0  0  0  0
  151.1724  134.0520  156.5226 H   0  0  0  0  0  0  0  0  0  0  0  0
  150.5539  134.4202  154.9330 H   0  0  0  0  0  0  0  0  0  0  0  0
  151.5344  136.4390  157.0064 H   0  0  0  0  0  0  0  0  0  0  0  0
  152.3387  136.0087  155.5176 H   0  0  0  0  0  0  0  0  0  0  0  0
  150.4647  136.9314  154.1936 H   0  0  0  0  0  0  0  0  0  0  0  0
  148.5873  138.1338  155.3038 H   0  0  0  0  0  0  0  0  0  0  0  0
  149.2308  137.7231  156.8646 H   0  0  0  0  0  0  0  0  0  0  0  0
  1  2  1  0  0  0  0
  1 25  1  0  0  0  0
  1 26  1  0  0  0  0
  1 27  1  0  0  0  0
  2  3  1  0  0  0  0
  2 28  1  0  0  0  0
  3  4  2  0  0  0  0
  3  5  1  0  0  0  0
  5 24  1  0  0  0  0
  5  6  2  0  0  0  0
  6  7  1  0  0  0  0
  6 29  1  0  0  0  0
  7  8  2  0  0  0  0
  7 30  1  0  0  0  0
  8  9  1  0  0  0  0
  8 31  1  0  0  0  0
  9 10  1  0  0  0  0
  9 24  2  0  0  0  0
 10 11  1  0  0  0  0
 10 32  1  0  0  0  0
 11 12  2  0  0  0  0
 11 13  1  0  0  0  0
 13 14  1  0  0  0  0
 13 33  1  0  0  0  0
 14 23  1  0  0  0  0
 14 15  1  0  0  0  0
 14 34  1  0  0  0  0
 15 16  1  0  0  0  0
 15 35  1  0  0  0  0
 15 36  1  0  0  0  0
 16 17  1  0  0  0  0
 16 37  1  0  0  0  0
 16 38  1  0  0  0  0
 17 18  1  0  0  0  0
 17 39  1  0  0  0  0
 17 40  1  0  0  0  0
 18 19  1  0  0  0  0
 18 23  1  0  0  0  0
 18 41  1  0  0  0  0
 19 20  1  0  0  0  0
 19 21  1  0  0  0  0
 19 22  1  0  0  0  0
 23 42  1  0  0  0  0
 23 43  1  0  0  0  0
M  END
> <s_m_source_file>
AV-unprocessed.smi

> <i_m_source_file_index>
2519

> <i_lp_mmshare_version>
43012

> <i_f3d_flags>
0

> <s_epik_input>
W0NIM11bTkhdQyg9TyljMVtjSF1bY0hdW2NIXWMobjEpW05IXUMoPU8pW05IXVtDQEBIXTJbQ0gyXVtDSDJdW0NIMl1bQ0BASF0oQyhGKShGKUYpW0NIMl0y

> <s_epik_cmdline>
J2VwaWtfcHl0aG9uJywgJy1waCcsICc3LjAnLCAnLXRuJywgJzgnLCAnLW1hJywgJzIwMCcsICctbWV0YWxfYmluZGluZycsICctaW1hZScsICc8aW5maWxlLm1hZT4nLCAnLW9tYWUnLCAnPG91dGZpbGUubWFlPic=

> <r_lp_tautomer_probability>
1

> <r_epik_Ionization_Penalty>
3.74915e-05

> <r_epik_Ionization_Penalty_Charging>
0

> <r_epik_Ionization_Penalty_Neutral>
3.74915e-05

> <r_epik_State_Penalty>
-0

> <r_epik_Charging_Adjusted_Penalty>
0

> <i_epik_Tot_Q>
0

> <i_epik_Tot_abs_Q>
0

> <r_epik_Metal_State_Penalty>
-0

> <b_epik_Metal_Only>
0

> <s_lp_Force_Field>
OPLS_2005

> <r_lp_Energy>
26.6361

> <b_lp_Chiralities_Consistent>
1

> <s_lp_Variant>
AV-unprocessed.smi:2519-4

> <Gold.Version>
5.8.1

> <Gold.Id.Protein>
6NUR|6NUR_protein|mol2

> <Gold.PLP.Fitness>
41.3635

> <Gold.PLP.PLP>
-36.6082

> <Gold.PLP.part.hbond>
-3.0000

> <Gold.PLP.part.metal>
0.0000

> <Gold.PLP.part.buried>
-2.6077

> <Gold.PLP.part.nonpolar>
-30.9108

> <Gold.PLP.part.repulsive>
0.4150

> <Gold.PLP.ligand.clash>
0.0000

> <Gold.PLP.ligand.torsion>
1.8347

> <Gold.PLP.Chemscore.Hbond>
2.8000

> <Gold.PLP.Chemscore.CHOScore>
0.0000

> <Gold.PLP.Chemscore.Metal>
0.0000

> <Gold.Chemscore.Hbonds>
donor molecule, donor type, donor heavy atom, donor atom, acceptor molecule, acceptor atom, score
      L1  H     2    28       P1 10747  0.98
      L1  H    10    32       P1  7948  0.99
      L1  H    13    33       P1  7948  0.86

> <Gold.PLP.Chemscore.Internal.Correction>
0.0247

> <Gold.Rescore>
     Score         DG    S(hbond)    S(metal)    S(lipo)     H(rot)  DE(clash)    DE(int)     intcor
     16.57     -19.26       2.37        0.00      71.85       1.00       0.22       2.47       ----

> <Gold.Chemscore.Fitness>
16.5695

> <Gold.Chemscore.DG>
-19.2589

> <Gold.Chemscore.ZeroCoef>
-5.4800

> <Gold.Chemscore.Hbond>
2.3750

> <Gold.Chemscore.Metal>
0.0000

> <Gold.Chemscore.Lipo>
71.8507

> <Gold.Chemscore.Internal_Hbond>
0.0000

> <Gold.Chemscore.DEClash>
0.2161

> <Gold.Chemscore.DEInternal>
2.4733

> <Gold.Chemscore.Rot>
1.0000

> <Gold.Chemscore.Internal.Correction>
   9.000000E+99

> <Gold.Chemscore.Hbonds>
donor molecule, donor type, donor heavy atom, donor atom, acceptor molecule, acceptor atom, score
      L1  H     2    28       P1 10747  0.73
      L1  H    10    32       P1  7948  0.92
      L1  H    13    33       P1  7948  0.84

> <Gold.Chemscore.Hbond.Weighted>
-7.9324

> <Gold.Chemscore.Metal.Weighted>
-0.0000

> <Gold.Chemscore.Lipo.Weighted>
-8.4065

> <Gold.Chemscore.Internal_Hbond.Weighted>
0.0000

> <Gold.Chemscore.DEClash.Weighted>
0.2161

> <Gold.Chemscore.DEInternal.Weighted>
2.4733

> <Gold.Chemscore.Rot.Weighted>
2.5600

> <Gold.Chemscore.Internal.Correction.Weighted>
   9.000000E+99

> <Gold.Protein.RotatedTorsions>
[ 6907 6896 6895 6894 ] final   65.50 input  -60.11 | X-H torsion
[ 7974 7965 7964 7962 ] final  -46.88 input  175.53 | X-H torsion
[ 8008 7997 7996 7995 ] final  -20.52 input   59.86 | X-H torsion
[ 10167 10162 10161 10158 ] final  -74.81 input  -65.29 | X-H torsion
[ 10718 10713 10712 10709 ] final  -78.24 input   66.30 | X-H torsion
[ 10763 10752 10751 10750 ] final  105.87 input  -60.55 | X-H torsion
[ 11005 11000 10999 10996 ] final -103.39 input  -57.11 | X-H torsion

> <Gold.Protein.ActiveResidues>
 VAL166  LYS551  ARG553  GLY616  TRP617  ASP618  TYR619  PRO620  LYS621  CYS622 
 ASP623  PHE694  ASN695  SER759  ASP760  ASP761  ALA762  ILE779  LEU786  VAL792 
 PHE793  MET794  SER795  GLU796  ALA797  LYS798  CYS799  TRP800  GLU811  SER814 

> <Gold.Protein.RotatedAtoms>
  152.4412  134.5587  159.9887 H   0  0  0  0  0  0  0  0  0  0  0  0  # atno 6907 bound_to 6896
  151.5684  133.3387  159.2992 H   0  0  0  0  0  0  0  0  0  0  0  0  # atno 6908 bound_to 6896
  150.8319  134.7609  159.6924 H   0  0  0  0  0  0  0  0  0  0  0  0  # atno 6909 bound_to 6896
  145.9673  140.7419  142.9428 H   0  0  0  0  0  0  0  0  0  0  0  0  # atno 7974 bound_to 7965
  154.4764  140.2059  155.9867 H   0  0  0  0  0  0  0  0  0  0  0  0  # atno 8008 bound_to 7997
  156.1096  140.3231  155.8024 H   0  0  0  0  0  0  0  0  0  0  0  0  # atno 8009 bound_to 7997
  155.4658  140.0527  157.2976 H   0  0  0  0  0  0  0  0  0  0  0  0  # atno 8010 bound_to 7997
  140.4996  143.2364  151.7774 H   0  0  0  0  0  0  0  0  0  0  0  0  # atno 10167 bound_to 10162
  156.0123  130.4513  150.3467 H   0  0  0  0  0  0  0  0  0  0  0  0  # atno 10718 bound_to 10713
  153.3852  135.3896  155.1885 H   0  0  0  0  0  0  0  0  0  0  0  0  # atno 10763 bound_to 10752
  154.8712  135.3735  154.4807 H   0  0  0  0  0  0  0  0  0  0  0  0  # atno 10764 bound_to 10752
  153.5288  135.7086  153.5755 H   0  0  0  0  0  0  0  0  0  0  0  0  # atno 10765 bound_to 10752
  141.1148  133.8636  157.1480 H   0  0  0  0  0  0  0  0  0  0  0  0  # atno 11005 bound_to 11000
  144.6828  140.2690  143.7308 LP  0  0  0  0  0  0  0  0  0  0  0  0  # atno 17320 bound_to 7965
  145.7956  139.1944  143.2078 LP  0  0  0  0  0  0  0  0  0  0  0  0  # atno 17321 bound_to 7965
  139.4869  144.4540  151.9620 LP  0  0  0  0  0  0  0  0  0  0  0  0  # atno 17342 bound_to 10162
  140.3629  144.2951  150.5931 LP  0  0  0  0  0  0  0  0  0  0  0  0  # atno 17343 bound_to 10162
  157.1561  131.0333  151.2863 LP  0  0  0  0  0  0  0  0  0  0  0  0  # atno 17370 bound_to 10713
  157.4351  130.7512  149.7022 LP  0  0  0  0  0  0  0  0  0  0  0  0  # atno 17371 bound_to 10713
  140.0063  135.0007  157.0299 LP  0  0  0  0  0  0  0  0  0  0  0  0  # atno 17394 bound_to 11000
  140.4677  134.1419  155.7199 LP  0  0  0  0  0  0  0  0  0  0  0  0  # atno 17395 bound_to 11000

$$$$
