AV-unprocessed.smi:2519|AV-procd|sdf|9906|dock2
  -GOLD-   2272013543D 1   1.00000     0.00000
 Structure written by MMmdl.
 43 44  0  0  0  0  0  0  0  0  1 V2000
  149.3952  131.7111  157.0042 C   0  0  0  0  0  0  0  0  0  0  0  0
  149.0827  132.8256  157.8849 N   0  0  0  0  0  0  0  0  0  0  0  0
  148.4523  132.7093  159.0655 C   0  0  0  0  0  0  0  0  0  0  0  0
  148.0670  131.6297  159.5166 O   0  0  0  0  0  0  0  0  0  0  0  0
  148.2148  133.9938  159.8166 C   0  0  0  0  0  0  0  0  0  0  0  0
  147.3936  134.0005  160.9663 C   0  0  0  0  0  0  0  0  0  0  0  0
  147.1962  135.2138  161.6490 C   0  0  0  0  0  0  0  0  0  0  0  0
  147.8217  136.3772  161.1642 C   0  0  0  0  0  0  0  0  0  0  0  0
  148.6286  136.2972  160.0092 C   0  0  0  0  0  0  0  0  0  0  0  0
  149.2090  137.5230  159.5912 N   0  0  0  0  0  0  0  0  0  0  0  0
  150.4003  137.7220  158.9923 C   0  0  0  0  0  0  0  0  0  0  0  0
  151.2296  136.8409  158.7718 O   0  0  0  0  0  0  0  0  0  0  0  0
  150.6358  138.9996  158.6413 N   0  0  0  0  0  0  0  0  0  0  0  0
  151.8149  139.5678  157.9787 C   0  0  1  0  0  0  0  0  0  0  0  0
  151.4268  140.1091  156.5894 C   0  0  0  0  0  0  0  0  0  0  0  0
  150.5588  141.3758  156.6820 C   0  0  0  0  0  0  0  0  0  0  0  0
  151.2400  142.4625  157.5288 C   0  0  0  0  0  0  0  0  0  0  0  0
  151.6007  141.9469  158.9377 C   0  0  2  0  0  0  0  0  0  0  0  0
  152.2721  143.0359  159.7997 C   0  0  0  0  0  0  0  0  0  0  0  0
  152.6624  142.5388  160.9737 F   0  0  0  0  0  0  0  0  0  0  0  0
  153.3358  143.5295  159.1656 F   0  0  0  0  0  0  0  0  0  0  0  0
  151.4176  144.0356  160.0175 F   0  0  0  0  0  0  0  0  0  0  0  0
  152.4756  140.6782  158.8279 C   0  0  0  0  0  0  0  0  0  0  0  0
  148.8132  135.1212  159.3620 N   0  0  0  0  0  0  0  0  0  0  0  0
  149.9031  132.0756  156.1114 H   0  0  0  0  0  0  0  0  0  0  0  0
  148.4860  131.1950  156.6934 H   0  0  0  0  0  0  0  0  0  0  0  0
  150.0506  130.9952  157.5018 H   0  0  0  0  0  0  0  0  0  0  0  0
  149.3628  133.7493  157.5863 H   0  0  0  0  0  0  0  0  0  0  0  0
  146.9198  133.0980  161.3247 H   0  0  0  0  0  0  0  0  0  0  0  0
  146.5732  135.2523  162.5303 H   0  0  0  0  0  0  0  0  0  0  0  0
  147.6783  137.3183  161.6751 H   0  0  0  0  0  0  0  0  0  0  0  0
  148.6362  138.3428  159.7270 H   0  0  0  0  0  0  0  0  0  0  0  0
  149.9091  139.6621  158.8713 H   0  0  0  0  0  0  0  0  0  0  0  0
  152.5385  138.7658  157.8239 H   0  0  0  0  0  0  0  0  0  0  0  0
  152.3346  140.3420  156.0309 H   0  0  0  0  0  0  0  0  0  0  0  0
  150.9080  139.3406  156.0149 H   0  0  0  0  0  0  0  0  0  0  0  0
  150.3585  141.7596  155.6814 H   0  0  0  0  0  0  0  0  0  0  0  0
  149.5885  141.1294  157.1149 H   0  0  0  0  0  0  0  0  0  0  0  0
  152.1409  142.8064  157.0194 H   0  0  0  0  0  0  0  0  0  0  0  0
  150.5799  143.3270  157.6032 H   0  0  0  0  0  0  0  0  0  0  0  0
  150.6709  141.6710  159.4378 H   0  0  0  0  0  0  0  0  0  0  0  0
  152.7160  140.3026  159.8225 H   0  0  0  0  0  0  0  0  0  0  0  0
  153.4317  140.9426  158.3743 H   0  0  0  0  0  0  0  0  0  0  0  0
  1  2  1  0  0  0  0
  1 25  1  0  0  0  0
  1 26  1  0  0  0  0
  1 27  1  0  0  0  0
  2  3  1  0  0  0  0
  2 28  1  0  0  0  0
  3  4  2  0  0  0  0
  3  5  1  0  0  0  0
  5 24  1  0  0  0  0
  5  6  2  0  0  0  0
  6  7  1  0  0  0  0
  6 29  1  0  0  0  0
  7  8  2  0  0  0  0
  7 30  1  0  0  0  0
  8  9  1  0  0  0  0
  8 31  1  0  0  0  0
  9 10  1  0  0  0  0
  9 24  2  0  0  0  0
 10 11  1  0  0  0  0
 10 32  1  0  0  0  0
 11 12  2  0  0  0  0
 11 13  1  0  0  0  0
 13 14  1  0  0  0  0
 13 33  1  0  0  0  0
 14 23  1  0  0  0  0
 14 15  1  0  0  0  0
 14 34  1  0  0  0  0
 15 16  1  0  0  0  0
 15 35  1  0  0  0  0
 15 36  1  0  0  0  0
 16 17  1  0  0  0  0
 16 37  1  0  0  0  0
 16 38  1  0  0  0  0
 17 18  1  0  0  0  0
 17 39  1  0  0  0  0
 17 40  1  0  0  0  0
 18 19  1  0  0  0  0
 18 23  1  0  0  0  0
 18 41  1  0  0  0  0
 19 20  1  0  0  0  0
 19 21  1  0  0  0  0
 19 22  1  0  0  0  0
 23 42  1  0  0  0  0
 23 43  1  0  0  0  0
M  END
> <s_m_source_file>
AV-unprocessed.smi

> <i_m_source_file_index>
2519

> <i_lp_mmshare_version>
43012

> <i_f3d_flags>
0

> <s_epik_input>
W0NIM11bTkhdQyg9TyljMVtjSF1bY0hdW2NIXWMobjEpW05IXUMoPU8pW05IXVtDQEBIXTJbQ0gyXVtDSDJdW0NIMl1bQ0BASF0oQyhGKShGKUYpW0NIMl0y

> <s_epik_cmdline>
J2VwaWtfcHl0aG9uJywgJy1waCcsICc3LjAnLCAnLXRuJywgJzgnLCAnLW1hJywgJzIwMCcsICctbWV0YWxfYmluZGluZycsICctaW1hZScsICc8aW5maWxlLm1hZT4nLCAnLW9tYWUnLCAnPG91dGZpbGUubWFlPic=

> <r_lp_tautomer_probability>
1

> <r_epik_Ionization_Penalty>
3.74915e-05

> <r_epik_Ionization_Penalty_Charging>
0

> <r_epik_Ionization_Penalty_Neutral>
3.74915e-05

> <r_epik_State_Penalty>
-0

> <r_epik_Charging_Adjusted_Penalty>
0

> <i_epik_Tot_Q>
0

> <i_epik_Tot_abs_Q>
0

> <r_epik_Metal_State_Penalty>
-0

> <b_epik_Metal_Only>
0

> <s_lp_Force_Field>
OPLS_2005

> <r_lp_Energy>
26.6361

> <b_lp_Chiralities_Consistent>
1

> <s_lp_Variant>
AV-unprocessed.smi:2519-4

> <Gold.Version>
5.8.1

> <Gold.Id.Protein>
6NUR|6NUR_protein|mol2

> <Gold.PLP.Fitness>
42.9400

> <Gold.PLP.PLP>
-40.5990

> <Gold.PLP.part.hbond>
-2.0000

> <Gold.PLP.part.metal>
0.0000

> <Gold.PLP.part.buried>
-5.9798

> <Gold.PLP.part.nonpolar>
-35.0116

> <Gold.PLP.part.repulsive>
1.5641

> <Gold.PLP.ligand.clash>
0.0000

> <Gold.PLP.ligand.torsion>
0.3443

> <Gold.PLP.Chemscore.Hbond>
1.0000

> <Gold.PLP.Chemscore.CHOScore>
0.0000

> <Gold.PLP.Chemscore.Metal>
0.0000

> <Gold.Chemscore.Hbonds>
donor molecule, donor type, donor heavy atom, donor atom, acceptor molecule, acceptor atom, score
      P1  H  6896  6907       L1    24  0.95

> <Gold.PLP.Chemscore.Internal.Correction>
0.0296

> <Gold.Rescore>
     Score         DG    S(hbond)    S(metal)    S(lipo)     H(rot)  DE(clash)    DE(int)     intcor
     12.69     -14.21       0.62        0.00      78.85       1.00       0.17       1.36       ----

> <Gold.Chemscore.Fitness>
12.6904

> <Gold.Chemscore.DG>
-14.2121

> <Gold.Chemscore.ZeroCoef>
-5.4800

> <Gold.Chemscore.Hbond>
0.6189

> <Gold.Chemscore.Metal>
0.0000

> <Gold.Chemscore.Lipo>
78.8463

> <Gold.Chemscore.Internal_Hbond>
0.0000

> <Gold.Chemscore.DEClash>
0.1664

> <Gold.Chemscore.DEInternal>
1.3553

> <Gold.Chemscore.Rot>
1.0000

> <Gold.Chemscore.Internal.Correction>
   9.000000E+99

> <Gold.Chemscore.Hbonds>
donor molecule, donor type, donor heavy atom, donor atom, acceptor molecule, acceptor atom, score
      P1  H  6896  6907       L1    24  0.14

> <Gold.Chemscore.Hbond.Weighted>
-2.0671

> <Gold.Chemscore.Metal.Weighted>
-0.0000

> <Gold.Chemscore.Lipo.Weighted>
-9.2250

> <Gold.Chemscore.Internal_Hbond.Weighted>
0.0000

> <Gold.Chemscore.DEClash.Weighted>
0.1664

> <Gold.Chemscore.DEInternal.Weighted>
1.3553

> <Gold.Chemscore.Rot.Weighted>
2.5600

> <Gold.Chemscore.Internal.Correction.Weighted>
   9.000000E+99

> <Gold.Protein.RotatedTorsions>
[ 6907 6896 6895 6894 ] final  -68.72 input  -60.11 | X-H torsion
[ 7974 7965 7964 7962 ] final -165.93 input  175.53 | X-H torsion
[ 8008 7997 7996 7995 ] final  103.34 input   59.86 | X-H torsion
[ 10167 10162 10161 10158 ] final -149.11 input  -65.29 | X-H torsion
[ 10718 10713 10712 10709 ] final -141.03 input   66.30 | X-H torsion
[ 10763 10752 10751 10750 ] final  -57.01 input  -60.55 | X-H torsion
[ 11005 11000 10999 10996 ] final  147.69 input  -57.11 | X-H torsion

> <Gold.Protein.ActiveResidues>
 VAL166  LYS551  ARG553  GLY616  TRP617  ASP618  TYR619  PRO620  LYS621  CYS622 
 ASP623  PHE694  ASN695  SER759  ASP760  ASP761  ALA762  ILE779  LEU786  VAL792 
 PHE793  MET794  SER795  GLU796  ALA797  LYS798  CYS799  TRP800  GLU811  SER814 

> <Gold.Protein.RotatedAtoms>
  150.7342  134.5699  159.5884 H   0  0  0  0  0  0  0  0  0  0  0  0  # atno 6907 bound_to 6896
  152.3140  134.7459  160.0338 H   0  0  0  0  0  0  0  0  0  0  0  0  # atno 6908 bound_to 6896
  151.7997  133.3333  159.3560 H   0  0  0  0  0  0  0  0  0  0  0  0  # atno 6909 bound_to 6896
  144.7258  140.2741  143.6246 H   0  0  0  0  0  0  0  0  0  0  0  0  # atno 7974 bound_to 7965
  156.1475  140.3166  155.8594 H   0  0  0  0  0  0  0  0  0  0  0  0  # atno 8008 bound_to 7997
  155.4035  140.0501  157.3052 H   0  0  0  0  0  0  0  0  0  0  0  0  # atno 8009 bound_to 7997
  154.5029  140.2136  155.9321 H   0  0  0  0  0  0  0  0  0  0  0  0  # atno 8010 bound_to 7997
  139.7472  143.8573  152.2577 H   0  0  0  0  0  0  0  0  0  0  0  0  # atno 10167 bound_to 10162
  156.3292  130.7577  151.1691 H   0  0  0  0  0  0  0  0  0  0  0  0  # atno 10718 bound_to 10713
  154.2156  135.6387  153.5129 H   0  0  0  0  0  0  0  0  0  0  0  0  # atno 10763 bound_to 10752
  152.9980  135.5484  154.6168 H   0  0  0  0  0  0  0  0  0  0  0  0  # atno 10764 bound_to 10752
  154.5616  135.2909  155.0887 H   0  0  0  0  0  0  0  0  0  0  0  0  # atno 10765 bound_to 10752
  140.0897  134.9048  157.1631 H   0  0  0  0  0  0  0  0  0  0  0  0  # atno 11005 bound_to 11000
  145.8013  139.1965  143.2046 LP  0  0  0  0  0  0  0  0  0  0  0  0  # atno 17320 bound_to 7965
  146.0674  140.7906  142.9705 LP  0  0  0  0  0  0  0  0  0  0  0  0  # atno 17321 bound_to 7965
  139.8540  144.7150  150.9179 LP  0  0  0  0  0  0  0  0  0  0  0  0  # atno 17342 bound_to 10162
  140.7793  143.3874  151.1369 LP  0  0  0  0  0  0  0  0  0  0  0  0  # atno 17343 bound_to 10162
  157.7427  131.0486  150.5003 LP  0  0  0  0  0  0  0  0  0  0  0  0  # atno 17370 bound_to 10713
  156.5166  130.4152  149.6272 LP  0  0  0  0  0  0  0  0  0  0  0  0  # atno 17371 bound_to 10713
  140.3370  134.2747  155.7218 LP  0  0  0  0  0  0  0  0  0  0  0  0  # atno 17394 bound_to 11000
  141.2074  133.7807  157.0122 LP  0  0  0  0  0  0  0  0  0  0  0  0  # atno 17395 bound_to 11000

$$$$
