AV-unprocessed.smi:1451|AV-procd|sdf|5900|dock5
  -GOLD-   22720 5583D 1   1.00000     0.00000
 Structure written by MMmdl.
 47 48  0  0  0  0  0  0  0  0  2 V2000
  145.6949  136.5371  162.0171 C   0  0  0  0  0  0  0  0  0  0  0  0
  146.9918  135.7865  162.3673 C   0  0  1  0  0  0  0  0  0  0  0  0
  146.9563  134.3070  161.9417 C   0  0  0  0  0  0  0  0  0  0  0  0
  147.1027  134.1631  160.4205 C   0  0  0  0  0  0  0  0  0  0  0  0
  148.3548  134.8965  159.9153 C   0  0  0  0  0  0  0  0  0  0  0  0
  148.3349  136.3255  160.3185 N   0  3  2  0  0  0  0  0  0  0  0  0
  149.4480  137.1033  159.7145 C   0  0  0  0  0  0  0  0  0  0  0  0
  149.4017  137.1298  158.1743 C   0  0  0  0  0  0  0  0  0  0  0  0
  150.0948  138.3004  157.6441 N   0  0  0  0  0  0  0  0  0  0  0  0
  151.3543  138.6699  157.9346 C   0  0  0  0  0  0  0  0  0  0  0  0
  152.0972  137.9998  158.6499 O   0  0  0  0  0  0  0  0  0  0  0  0
  151.8639  140.0120  157.3828 C   0  0  0  0  0  0  0  0  0  0  0  0
  152.3712  140.9433  158.4063 N   0  0  0  0  0  0  0  0  0  0  0  0
  151.7134  142.1847  158.5126 C   0  0  0  0  0  0  0  0  0  0  0  0
  152.0745  143.1324  159.3977 C   0  0  0  0  0  0  0  0  0  0  0  0
  151.3722  144.4801  159.4407 C   0  0  0  0  0  0  0  0  0  0  0  0
  150.0794  144.3478  159.7376 F   0  0  0  0  0  0  0  0  0  0  0  0
  151.9332  145.2709  160.3564 F   0  0  0  0  0  0  0  0  0  0  0  0
  151.4716  145.0837  158.2572 F   0  0  0  0  0  0  0  0  0  0  0  0
  153.2053  142.8216  160.2508 C   0  0  0  0  0  0  0  0  0  0  0  0
  153.8550  141.6453  160.1514 C   0  0  0  0  0  0  0  0  0  0  0  0
  153.4517  140.6255  159.1805 C   0  0  0  0  0  0  0  0  0  0  0  0
  154.0530  139.5583  159.0626 O   0  0  0  0  0  0  0  0  0  0  0  0
  148.2442  136.4827  161.7950 C   0  0  0  0  0  0  0  0  0  0  0  0
  145.5421  136.6094  160.9403 H   0  0  0  0  0  0  0  0  0  0  0  0
  145.7119  137.5518  162.4152 H   0  0  0  0  0  0  0  0  0  0  0  0
  144.8250  136.0361  162.4423 H   0  0  0  0  0  0  0  0  0  0  0  0
  147.0739  135.8087  163.4549 H   0  0  0  0  0  0  0  0  0  0  0  0
  147.7729  133.7731  162.4295 H   0  0  0  0  0  0  0  0  0  0  0  0
  146.0355  133.8313  162.2809 H   0  0  0  0  0  0  0  0  0  0  0  0
  147.1569  133.1080  160.1513 H   0  0  0  0  0  0  0  0  0  0  0  0
  146.2172  134.5597  159.9232 H   0  0  0  0  0  0  0  0  0  0  0  0
  149.2560  134.4194  160.3037 H   0  0  0  0  0  0  0  0  0  0  0  0
  148.3962  134.8188  158.8282 H   0  0  0  0  0  0  0  0  0  0  0  0
  149.4635  138.1163  160.1187 H   0  0  0  0  0  0  0  0  0  0  0  0
  150.3947  136.6456  160.0049 H   0  0  0  0  0  0  0  0  0  0  0  0
  149.8110  136.2054  157.7648 H   0  0  0  0  0  0  0  0  0  0  0  0
  148.3642  137.1678  157.8414 H   0  0  0  0  0  0  0  0  0  0  0  0
  149.5616  138.9008  157.0313 H   0  0  0  0  0  0  0  0  0  0  0  0
  152.6555  139.8030  156.6613 H   0  0  0  0  0  0  0  0  0  0  0  0
  151.0649  140.4681  156.7958 H   0  0  0  0  0  0  0  0  0  0  0  0
  150.9002  142.3233  157.8144 H   0  0  0  0  0  0  0  0  0  0  0  0
  153.5375  143.5403  160.9857 H   0  0  0  0  0  0  0  0  0  0  0  0
  154.6924  141.4470  160.8045 H   0  0  0  0  0  0  0  0  0  0  0  0
  148.2271  137.5384  162.0654 H   0  0  0  0  0  0  0  0  0  0  0  0
  149.1412  136.0618  162.2519 H   0  0  0  0  0  0  0  0  0  0  0  0
  147.4843  136.7115  159.9345 H   0  0  0  0  0  0  0  0  0  0  0  0
  1  2  1  0  0  0  0
  1 25  1  0  0  0  0
  1 26  1  0  0  0  0
  1 27  1  0  0  0  0
  2 24  1  0  0  0  0
  2  3  1  0  0  0  0
  2 28  1  0  0  0  0
  3  4  1  0  0  0  0
  3 29  1  0  0  0  0
  3 30  1  0  0  0  0
  4  5  1  0  0  0  0
  4 31  1  0  0  0  0
  4 32  1  0  0  0  0
  5  6  1  0  0  0  0
  5 33  1  0  0  0  0
  5 34  1  0  0  0  0
  6  7  1  0  0  0  0
  6 24  1  0  0  0  0
  6 47  1  0  0  0  0
  7  8  1  0  0  0  0
  7 35  1  0  0  0  0
  7 36  1  0  0  0  0
  8  9  1  0  0  0  0
  8 37  1  0  0  0  0
  8 38  1  0  0  0  0
  9 10  1  0  0  0  0
  9 39  1  0  0  0  0
 10 11  2  0  0  0  0
 10 12  1  0  0  0  0
 12 13  1  0  0  0  0
 12 40  1  0  0  0  0
 12 41  1  0  0  0  0
 13 22  1  0  0  0  0
 13 14  1  0  0  0  0
 14 15  2  0  0  0  0
 14 42  1  0  0  0  0
 15 16  1  0  0  0  0
 15 20  1  0  0  0  0
 16 17  1  0  0  0  0
 16 18  1  0  0  0  0
 16 19  1  0  0  0  0
 20 21  2  0  0  0  0
 20 43  1  0  0  0  0
 21 22  1  0  0  0  0
 21 44  1  0  0  0  0
 22 23  2  0  0  0  0
 24 45  1  0  0  0  0
 24 46  1  0  0  0  0
M  CHG  1   6   1
M  END
> <s_m_source_file>
AV-unprocessed.smi

> <i_m_source_file_index>
1451

> <i_lp_mmshare_version>
43012

> <i_f3d_flags>
0

> <s_epik_input>
W0NIM11bQ0BASF0xW0NIMl1bQ0gyXVtDSDJdTihbQ0gyXTEpW0NIMl1bQ0gyXVtOSF1DKD1PKVtDSDJdbjJbY0hdYyhDKEYpKEYpRilbY0hdW2NIXWMyPU8=

> <s_epik_cmdline>
J2VwaWtfcHl0aG9uJywgJy1waCcsICc3LjAnLCAnLXRuJywgJzgnLCAnLW1hJywgJzIwMCcsICctbWV0YWxfYmluZGluZycsICctaW1hZScsICc8aW5maWxlLm1hZT4nLCAnLW9tYWUnLCAnPG91dGZpbGUubWFlPic=

> <r_lp_tautomer_probability>
1

> <r_epik_Ionization_Penalty>
0.00192452

> <r_epik_Ionization_Penalty_Charging>
0.00192444

> <r_epik_Ionization_Penalty_Neutral>
8.16761e-08

> <r_epik_State_Penalty>
0.00131115

> <r_epik_Charging_Adjusted_Penalty>
0.00323559

> <i_epik_Tot_Q>
1

> <i_epik_Tot_abs_Q>
1

> <r_epik_Metal_State_Penalty>
-0

> <b_epik_Metal_Only>
0

> <s_lp_Force_Field>
OPLS_2005

> <r_lp_Energy>
37.139

> <b_lp_Chiralities_Consistent>
1

> <s_lp_Variant>
AV-unprocessed.smi:1451-2

> <Gold.Version>
5.8.1

> <Gold.Id.Protein>
6NUR|6NUR_protein|mol2

> <Gold.PLP.Fitness>
51.3282

> <Gold.PLP.PLP>
-48.8702

> <Gold.PLP.part.hbond>
-1.0000

> <Gold.PLP.part.metal>
0.0000

> <Gold.PLP.part.buried>
-3.2759

> <Gold.PLP.part.nonpolar>
-43.4419

> <Gold.PLP.part.repulsive>
0.2648

> <Gold.PLP.ligand.clash>
0.0000

> <Gold.PLP.ligand.torsion>
0.2172

> <Gold.PLP.Chemscore.Hbond>
0.9500

> <Gold.PLP.Chemscore.CHOScore>
0.0000

> <Gold.PLP.Chemscore.Metal>
0.0000

> <Gold.Chemscore.Hbonds>
donor molecule, donor type, donor heavy atom, donor atom, acceptor molecule, acceptor atom, score
      P1  H  7997  8009       L1    23  0.78

> <Gold.PLP.Chemscore.Internal.Correction>
0.0424

> <Gold.Rescore>
     Score         DG    S(hbond)    S(metal)    S(lipo)     H(rot)  DE(clash)    DE(int)     intcor
     10.95     -15.35       0.84        0.00     105.78       2.08       0.96       3.43       ----

> <Gold.Chemscore.Fitness>
10.9501

> <Gold.Chemscore.DG>
-15.3450

> <Gold.Chemscore.ZeroCoef>
-5.4800

> <Gold.Chemscore.Hbond>
0.8393

> <Gold.Chemscore.Metal>
0.0000

> <Gold.Chemscore.Lipo>
105.7838

> <Gold.Chemscore.Internal_Hbond>
0.0000

> <Gold.Chemscore.DEClash>
0.9631

> <Gold.Chemscore.DEInternal>
3.4318

> <Gold.Chemscore.Rot>
2.0762

> <Gold.Chemscore.Internal.Correction>
   9.000000E+99

> <Gold.Chemscore.Hbonds>
donor molecule, donor type, donor heavy atom, donor atom, acceptor molecule, acceptor atom, score
      P1  H  7997  8009       L1    23  0.11

> <Gold.Chemscore.Hbond.Weighted>
-2.8033

> <Gold.Chemscore.Metal.Weighted>
-0.0000

> <Gold.Chemscore.Lipo.Weighted>
-12.3767

> <Gold.Chemscore.Internal_Hbond.Weighted>
0.0000

> <Gold.Chemscore.DEClash.Weighted>
0.9631

> <Gold.Chemscore.DEInternal.Weighted>
3.4318

> <Gold.Chemscore.Rot.Weighted>
5.3150

> <Gold.Chemscore.Internal.Correction.Weighted>
   9.000000E+99

> <Gold.Protein.RotatedTorsions>
[ 6907 6896 6895 6894 ] final  134.57 input  -60.11 | X-H torsion
[ 7974 7965 7964 7962 ] final   67.59 input  175.53 | X-H torsion
[ 8008 7997 7996 7995 ] final  129.69 input   59.86 | X-H torsion
[ 10167 10162 10161 10158 ] final -140.15 input  -65.29 | X-H torsion
[ 10718 10713 10712 10709 ] final   33.32 input   66.30 | X-H torsion
[ 10763 10752 10751 10750 ] final  164.92 input  -60.55 | X-H torsion
[ 11005 11000 10999 10996 ] final   83.71 input  -57.11 | X-H torsion

> <Gold.Protein.ActiveResidues>
 VAL166  LYS551  ARG553  GLY616  TRP617  ASP618  TYR619  PRO620  LYS621  CYS622 
 ASP623  PHE694  ASN695  SER759  ASP760  ASP761  ALA762  ILE779  LEU786  VAL792 
 PHE793  MET794  SER795  GLU796  ALA797  LYS798  CYS799  TRP800  GLU811  SER814 

> <Gold.Protein.RotatedAtoms>
  152.3098  133.5741  159.5673 H   0  0  0  0  0  0  0  0  0  0  0  0  # atno 6907 bound_to 6896
  150.7317  134.0168  159.3697 H   0  0  0  0  0  0  0  0  0  0  0  0  # atno 6908 bound_to 6896
  151.8062  135.0695  160.0458 H   0  0  0  0  0  0  0  0  0  0  0  0  # atno 6909 bound_to 6896
  145.8128  139.3042  143.1089 H   0  0  0  0  0  0  0  0  0  0  0  0  # atno 7974 bound_to 7965
  156.2941  140.2614  156.2639 H   0  0  0  0  0  0  0  0  0  0  0  0  # atno 8008 bound_to 7997
  154.9761  140.0390  157.2275 H   0  0  0  0  0  0  0  0  0  0  0  0  # atno 8009 bound_to 7997
  154.7814  140.2796  155.6065 H   0  0  0  0  0  0  0  0  0  0  0  0  # atno 8010 bound_to 7997
  139.8310  143.7447  152.2666 H   0  0  0  0  0  0  0  0  0  0  0  0  # atno 10167 bound_to 10162
  157.2964  130.7328  149.6641 H   0  0  0  0  0  0  0  0  0  0  0  0  # atno 10718 bound_to 10713
  154.3162  135.2756  155.2542 H   0  0  0  0  0  0  0  0  0  0  0  0  # atno 10763 bound_to 10752
  154.4915  135.5832  153.6466 H   0  0  0  0  0  0  0  0  0  0  0  0  # atno 10764 bound_to 10752
  152.9882  135.6136  154.3343 H   0  0  0  0  0  0  0  0  0  0  0  0  # atno 10765 bound_to 10752
  139.9022  134.8164  156.2346 H   0  0  0  0  0  0  0  0  0  0  0  0  # atno 11005 bound_to 11000
  145.9759  140.8722  143.0139 LP  0  0  0  0  0  0  0  0  0  0  0  0  # atno 17320 bound_to 7965
  144.6755  140.2011  143.7387 LP  0  0  0  0  0  0  0  0  0  0  0  0  # atno 17321 bound_to 7965
  139.7655  144.7493  151.0301 LP  0  0  0  0  0  0  0  0  0  0  0  0  # atno 17342 bound_to 10162
  140.7806  143.4703  151.0155 LP  0  0  0  0  0  0  0  0  0  0  0  0  # atno 17343 bound_to 10162
  155.9669  130.4293  150.4827 LP  0  0  0  0  0  0  0  0  0  0  0  0  # atno 17370 bound_to 10713
  157.2800  131.0605  151.2204 LP  0  0  0  0  0  0  0  0  0  0  0  0  # atno 17371 bound_to 10713
  141.0323  133.6982  156.1452 LP  0  0  0  0  0  0  0  0  0  0  0  0  # atno 17394 bound_to 11000
  140.7078  134.4495  157.5583 LP  0  0  0  0  0  0  0  0  0  0  0  0  # atno 17395 bound_to 11000

$$$$
