AV-unprocessed.smi:2493|AV-procd|sdf|9820|dock2
  -GOLD-   2272013453D 1   1.00000     0.00000
 Structure written by MMmdl.
 41 42  0  0  0  0  0  0  0  0  1 V2000
  149.5838  141.2804  158.2575 C   0  0  0  0  0  0  0  0  0  0  0  0
  150.7972  142.1437  157.8398 C   0  0  0  0  0  0  0  0  0  0  0  0
  150.9699  142.0779  156.2953 C   0  0  0  0  0  0  0  0  0  0  0  0
  149.7117  142.1863  155.5576 N   0  0  0  0  0  0  0  0  0  0  0  0
  149.2774  141.3350  154.6147 C   0  0  0  0  0  0  0  0  0  0  0  0
  149.9118  140.3473  154.2437 O   0  0  0  0  0  0  0  0  0  0  0  0
  147.9193  141.6503  153.9874 C   0  0  0  0  0  0  0  0  0  0  0  0
  147.4546  140.4916  153.1469 C   0  0  0  0  0  0  0  0  0  0  0  0
  146.6519  140.5294  151.9679 C   0  0  0  0  0  0  0  0  0  0  0  0
  146.5263  139.2182  151.6072 C   0  0  0  0  0  0  0  0  0  0  0  0
  147.2215  138.4873  152.5412 N   0  0  0  0  0  0  0  0  0  0  0  0
  147.7915  139.2544  153.4891 N   0  0  0  0  0  0  0  0  0  0  0  0
  150.4830  143.6129  158.2363 C   0  0  0  0  0  0  0  0  0  0  0  0
  151.6876  144.5652  158.3585 C   0  0  0  0  0  0  0  0  0  0  0  0
  152.2954  144.5772  159.7716 C   0  0  0  0  0  0  0  0  0  0  0  0
  153.0870  143.3139  160.1380 C   0  0  0  0  0  0  0  0  0  0  0  0
  152.3002  141.9995  159.9963 C   0  0  0  0  0  0  0  0  0  0  0  0
  152.0769  141.5900  158.5284 C   0  0  0  0  0  0  0  0  0  0  0  0
  147.3130  137.4812  152.5454 H   0  0  0  0  0  0  0  0  0  0  0  0
  148.6746  141.6056  157.7504 H   0  0  0  0  0  0  0  0  0  0  0  0
  149.3972  141.3410  159.3298 H   0  0  0  0  0  0  0  0  0  0  0  0
  149.7288  140.2261  158.0222 H   0  0  0  0  0  0  0  0  0  0  0  0
  151.6736  142.8406  155.9571 H   0  0  0  0  0  0  0  0  0  0  0  0
  151.4178  141.1250  156.0130 H   0  0  0  0  0  0  0  0  0  0  0  0
  149.1163  142.9673  155.7930 H   0  0  0  0  0  0  0  0  0  0  0  0
  147.1969  141.8812  154.7721 H   0  0  0  0  0  0  0  0  0  0  0  0
  148.0071  142.5491  153.3760 H   0  0  0  0  0  0  0  0  0  0  0  0
  146.2362  141.3898  151.4649 H   0  0  0  0  0  0  0  0  0  0  0  0
  146.0095  138.7535  150.7805 H   0  0  0  0  0  0  0  0  0  0  0  0
  149.7861  144.0291  157.5075 H   0  0  0  0  0  0  0  0  0  0  0  0
  149.9317  143.6378  159.1772 H   0  0  0  0  0  0  0  0  0  0  0  0
  152.4472  144.3512  157.6063 H   0  0  0  0  0  0  0  0  0  0  0  0
  151.3380  145.5759  158.1448 H   0  0  0  0  0  0  0  0  0  0  0  0
  152.9635  145.4348  159.8575 H   0  0  0  0  0  0  0  0  0  0  0  0
  151.5089  144.7435  160.5090 H   0  0  0  0  0  0  0  0  0  0  0  0
  153.9965  143.2648  159.5383 H   0  0  0  0  0  0  0  0  0  0  0  0
  153.4221  143.4103  161.1712 H   0  0  0  0  0  0  0  0  0  0  0  0
  152.8869  141.2153  160.4758 H   0  0  0  0  0  0  0  0  0  0  0  0
  151.3606  142.0424  160.5473 H   0  0  0  0  0  0  0  0  0  0  0  0
  152.0568  140.5004  158.4783 H   0  0  0  0  0  0  0  0  0  0  0  0
  152.9598  141.8726  157.9531 H   0  0  0  0  0  0  0  0  0  0  0  0
  1  2  1  0  0  0  0
  1 20  1  0  0  0  0
  1 21  1  0  0  0  0
  1 22  1  0  0  0  0
  2 18  1  0  0  0  0
  2  3  1  0  0  0  0
  2 13  1  0  0  0  0
  3  4  1  0  0  0  0
  3 23  1  0  0  0  0
  3 24  1  0  0  0  0
  4  5  1  0  0  0  0
  4 25  1  0  0  0  0
  5  6  2  0  0  0  0
  5  7  1  0  0  0  0
  7 26  1  0  0  0  0
  7 27  1  0  0  0  0
  7  8  1  0  0  0  0
  8 12  2  0  0  0  0
  8  9  1  0  0  0  0
  9 10  2  0  0  0  0
  9 28  1  0  0  0  0
 10 11  1  0  0  0  0
 10 29  1  0  0  0  0
 11 12  1  0  0  0  0
 11 19  1  0  0  0  0
 13 14  1  0  0  0  0
 13 30  1  0  0  0  0
 13 31  1  0  0  0  0
 14 15  1  0  0  0  0
 14 32  1  0  0  0  0
 14 33  1  0  0  0  0
 15 16  1  0  0  0  0
 15 34  1  0  0  0  0
 15 35  1  0  0  0  0
 16 17  1  0  0  0  0
 16 36  1  0  0  0  0
 16 37  1  0  0  0  0
 17 18  1  0  0  0  0
 17 38  1  0  0  0  0
 17 39  1  0  0  0  0
 18 40  1  0  0  0  0
 18 41  1  0  0  0  0
M  END
> <s_m_source_file>
AV-unprocessed.smi

> <i_m_source_file_index>
2493

> <i_lp_mmshare_version>
43012

> <i_f3d_flags>
0

> <s_epik_input>
W0NIMl0xW0NIMl1bQ0gyXVtDSDJdW0NIMl1bQ0gyXUMxKFtDSDNdKVtDSDJdW05IXUMoPU8pW0NIMl1jMltjSF1bY0hdbltuSF0y

> <s_epik_cmdline>
J2VwaWtfcHl0aG9uJywgJy1waCcsICc3LjAnLCAnLXRuJywgJzgnLCAnLW1hJywgJzIwMCcsICctbWV0YWxfYmluZGluZycsICctaW1hZScsICc8aW5maWxlLm1hZT4nLCAnLW9tYWUnLCAnPG91dGZpbGUubWFlPic=

> <r_lp_tautomer_probability>
0.5

> <r_epik_Ionization_Penalty>
1.58956e-05

> <r_epik_Ionization_Penalty_Charging>
0

> <r_epik_Ionization_Penalty_Neutral>
1.58956e-05

> <r_epik_State_Penalty>
0.41068

> <r_epik_Charging_Adjusted_Penalty>
0.41068

> <i_epik_Tot_Q>
0

> <i_epik_Tot_abs_Q>
0

> <r_epik_Metal_State_Penalty>
0.410685

> <b_epik_Metal_Only>
0

> <s_lp_Force_Field>
OPLS_2005

> <r_lp_Energy>
20.7964

> <b_lp_Chiralities_Consistent>
1

> <s_lp_Variant>
AV-unprocessed.smi:2493-2

> <Gold.Version>
5.8.1

> <Gold.Id.Protein>
6NUR|6NUR_protein|mol2

> <Gold.PLP.Fitness>
50.0197

> <Gold.PLP.PLP>
-41.3636

> <Gold.PLP.part.hbond>
-3.7357

> <Gold.PLP.part.metal>
0.0000

> <Gold.PLP.part.buried>
-0.0320

> <Gold.PLP.part.nonpolar>
-39.1476

> <Gold.PLP.part.repulsive>
1.4033

> <Gold.PLP.ligand.clash>
0.0000

> <Gold.PLP.ligand.torsion>
0.6934

> <Gold.PLP.Chemscore.Hbond>
2.3360

> <Gold.PLP.Chemscore.CHOScore>
1.0000

> <Gold.PLP.Chemscore.Metal>
0.0000

> <Gold.Chemscore.Hbonds>
donor molecule, donor type, donor heavy atom, donor atom, acceptor molecule, acceptor atom, score
      L1  H     4    25       P1  8028  0.91
      L1  H    11    19       P1  7948  0.38
      P1  H  7989  7998       L1     6  0.85
      L1  C    10    29       P1 10171  1.00

> <Gold.PLP.Chemscore.Internal.Correction>
0.0348

> <Gold.Rescore>
     Score         DG    S(hbond)    S(metal)    S(lipo)     H(rot)  DE(clash)    DE(int)     intcor
     17.95     -20.86       1.67        0.00     120.17       1.66       1.34       1.57       ----

> <Gold.Chemscore.Fitness>
17.9488

> <Gold.Chemscore.DG>
-20.8552

> <Gold.Chemscore.ZeroCoef>
-5.4800

> <Gold.Chemscore.Hbond>
1.6656

> <Gold.Chemscore.Metal>
0.0000

> <Gold.Chemscore.Lipo>
120.1689

> <Gold.Chemscore.Internal_Hbond>
0.0000

> <Gold.Chemscore.DEClash>
1.3403

> <Gold.Chemscore.DEInternal>
1.5662

> <Gold.Chemscore.Rot>
1.6592

> <Gold.Chemscore.Internal.Correction>
   9.000000E+99

> <Gold.Chemscore.Hbonds>
donor molecule, donor type, donor heavy atom, donor atom, acceptor molecule, acceptor atom, score
      L1  H     4    25       P1  8028  0.90
      L1  H    11    19       P1  7948  0.39
      P1  H  7989  7998       L1     6  0.61

> <Gold.Chemscore.Hbond.Weighted>
-5.5630

> <Gold.Chemscore.Metal.Weighted>
-0.0000

> <Gold.Chemscore.Lipo.Weighted>
-14.0598

> <Gold.Chemscore.Internal_Hbond.Weighted>
0.0000

> <Gold.Chemscore.DEClash.Weighted>
1.3403

> <Gold.Chemscore.DEInternal.Weighted>
1.5662

> <Gold.Chemscore.Rot.Weighted>
4.2475

> <Gold.Chemscore.Internal.Correction.Weighted>
   9.000000E+99

> <Gold.Protein.RotatedTorsions>
[ 6907 6896 6895 6894 ] final  108.83 input  -60.11 | X-H torsion
[ 7974 7965 7964 7962 ] final   85.13 input  175.53 | X-H torsion
[ 8008 7997 7996 7995 ] final  -67.40 input   59.86 | X-H torsion
[ 10167 10162 10161 10158 ] final  -29.01 input  -65.29 | X-H torsion
[ 10718 10713 10712 10709 ] final   48.53 input   66.30 | X-H torsion
[ 10763 10752 10751 10750 ] final  173.76 input  -60.55 | X-H torsion
[ 11005 11000 10999 10996 ] final  105.42 input  -57.11 | X-H torsion

> <Gold.Protein.ActiveResidues>
 VAL166  LYS551  ARG553  GLY616  TRP617  ASP618  TYR619  PRO620  LYS621  CYS622 
 ASP623  PHE694  ASN695  SER759  ASP760  ASP761  ALA762  ILE779  LEU786  VAL792 
 PHE793  MET794  SER795  GLU796  ALA797  LYS798  CYS799  TRP800  GLU811  SER814 

> <Gold.Protein.RotatedAtoms>
  152.5095  133.9033  159.7451 H   0  0  0  0  0  0  0  0  0  0  0  0  # atno 6907 bound_to 6896
  150.9443  133.6612  159.2791 H   0  0  0  0  0  0  0  0  0  0  0  0  # atno 6908 bound_to 6896
  151.3912  135.0961  159.9579 H   0  0  0  0  0  0  0  0  0  0  0  0  # atno 6909 bound_to 6896
  145.5895  139.2336  143.2307 H   0  0  0  0  0  0  0  0  0  0  0  0  # atno 7974 bound_to 7965
  154.4798  140.0893  156.7349 H   0  0  0  0  0  0  0  0  0  0  0  0  # atno 8008 bound_to 7997
  155.4501  140.3457  155.4281 H   0  0  0  0  0  0  0  0  0  0  0  0  # atno 8009 bound_to 7997
  156.1173  140.1464  156.9243 H   0  0  0  0  0  0  0  0  0  0  0  0  # atno 8010 bound_to 7997
  140.7264  143.3963  151.1342 H   0  0  0  0  0  0  0  0  0  0  0  0  # atno 10167 bound_to 10162
  157.4696  130.8247  149.7973 H   0  0  0  0  0  0  0  0  0  0  0  0  # atno 10718 bound_to 10713
  154.4445  135.2763  155.1824 H   0  0  0  0  0  0  0  0  0  0  0  0  # atno 10763 bound_to 10752
  154.3677  135.6115  153.5727 H   0  0  0  0  0  0  0  0  0  0  0  0  # atno 10764 bound_to 10752
  152.9843  135.5850  154.4778 H   0  0  0  0  0  0  0  0  0  0  0  0  # atno 10765 bound_to 10752
  139.8802  134.9335  156.5511 H   0  0  0  0  0  0  0  0  0  0  0  0  # atno 11005 bound_to 11000
  146.1657  140.6722  142.9256 LP  0  0  0  0  0  0  0  0  0  0  0  0  # atno 17320 bound_to 7965
  144.7357  140.4802  143.6905 LP  0  0  0  0  0  0  0  0  0  0  0  0  # atno 17321 bound_to 7965
  139.7576  143.8684  152.3092 LP  0  0  0  0  0  0  0  0  0  0  0  0  # atno 17342 bound_to 10162
  139.8559  144.7141  150.9158 LP  0  0  0  0  0  0  0  0  0  0  0  0  # atno 17343 bound_to 10162
  156.0067  130.3852  150.2408 LP  0  0  0  0  0  0  0  0  0  0  0  0  # atno 17370 bound_to 10713
  157.0589  131.0084  151.3229 LP  0  0  0  0  0  0  0  0  0  0  0  0  # atno 17371 bound_to 10713
  140.8239  133.8331  155.8921 LP  0  0  0  0  0  0  0  0  0  0  0  0  # atno 17394 bound_to 11000
  140.9392  134.1923  157.4810 LP  0  0  0  0  0  0  0  0  0  0  0  0  # atno 17395 bound_to 11000

$$$$
