AV-unprocessed.smi:20|AV-procd|sdf|113|dock9
  -GOLD-   2262015283D 1   1.00000     0.00000
 Structure written by MMmdl.
 57 61  0  0  0  0  0  0  0  0  1 V2000
  146.0822  131.6432  153.4871 O   0  0  0  0  0  0  0  0  0  0  0  0
  147.1760  132.2026  153.4740 C   0  0  0  0  0  0  0  0  0  0  0  0
  147.7611  132.9402  154.6661 C   0  0  0  0  0  0  0  0  0  0  0  0
  149.2491  133.1235  154.2808 C   0  0  2  0  0  0  0  0  0  0  0  0
  150.1345  131.9861  154.8571 C   0  0  0  0  0  0  0  0  0  0  0  0
  150.3381  132.1214  156.3763 C   0  0  0  0  0  0  0  0  0  0  0  0
  150.8590  133.5184  156.7408 C   0  0  0  0  0  0  0  0  0  0  0  0
  149.9931  134.5539  156.1811 N   0  0  0  0  0  0  0  0  0  0  0  0
  150.1281  135.7788  156.7506 C   0  0  0  0  0  0  0  0  0  0  0  0
  149.5915  136.0207  157.9770 N   0  0  0  0  0  0  0  0  0  0  0  0
  149.7134  137.2252  158.5423 C   0  0  0  0  0  0  0  0  0  0  0  0
  150.3211  138.3130  158.0657 N   0  0  0  0  0  0  0  0  0  0  0  0
  150.8655  138.0770  156.8378 C   0  0  0  0  0  0  0  0  0  0  0  0
  150.8178  136.8508  156.1161 C   0  0  0  0  0  0  0  0  0  0  0  0
  151.4971  136.9857  154.9111 N   0  0  0  0  0  0  0  0  0  0  0  0
  151.9114  138.2231  154.9149 C   0  0  0  0  0  0  0  0  0  0  0  0
  151.5586  138.9576  156.0247 N   0  0  0  0  0  0  0  0  0  0  0  0
  151.8992  140.3457  156.2921 C   0  0  0  0  0  0  0  0  0  0  0  0
  151.1594  140.9593  157.5122 C   0  0  2  0  0  0  0  0  0  0  0  0
  149.9472  141.7856  157.0212 C   0  0  0  0  0  0  0  0  0  0  0  0
  150.3266  142.6972  156.0102 O   0  0  0  0  0  0  0  0  0  0  0  0
  152.0851  141.8260  158.4142 C   0  0  2  0  0  0  0  0  0  0  0  0
  152.5650  141.1813  159.7045 C   0  0  0  0  0  0  0  0  0  0  0  0
  152.9925  142.3843  160.5342 C   0  0  0  0  0  0  0  0  0  0  0  0
  152.0782  143.4155  160.1925 O   0  0  0  0  0  0  0  0  0  0  0  0
  151.4171  143.0912  158.9737 C   0  0  0  0  0  0  0  0  0  0  0  0
  149.8146  134.4907  154.7290 C   0  0  0  0  0  0  0  0  0  0  0  0
  149.2115  133.0204  152.7372 C   0  0  0  0  0  0  0  0  0  0  0  0
  148.0138  132.2588  152.4417 N   0  0  0  0  0  0  0  0  0  0  0  0
  147.2483  133.8976  154.7645 H   0  0  0  0  0  0  0  0  0  0  0  0
  147.6117  132.3810  155.5891 H   0  0  0  0  0  0  0  0  0  0  0  0
  149.7104  131.0083  154.6247 H   0  0  0  0  0  0  0  0  0  0  0  0
  151.1145  132.0124  154.3786 H   0  0  0  0  0  0  0  0  0  0  0  0
  149.4021  131.9336  156.9024 H   0  0  0  0  0  0  0  0  0  0  0  0
  151.0387  131.3628  156.7258 H   0  0  0  0  0  0  0  0  0  0  0  0
  150.9407  133.6015  157.8241 H   0  0  0  0  0  0  0  0  0  0  0  0
  151.8655  133.6533  156.3421 H   0  0  0  0  0  0  0  0  0  0  0  0
  149.2558  137.3342  159.5145 H   0  0  0  0  0  0  0  0  0  0  0  0
  152.4880  138.6377  154.1007 H   0  0  0  0  0  0  0  0  0  0  0  0
  152.9780  140.4329  156.4257 H   0  0  0  0  0  0  0  0  0  0  0  0
  151.6646  140.8981  155.3821 H   0  0  0  0  0  0  0  0  0  0  0  0
  150.7638  140.1487  158.1258 H   0  0  0  0  0  0  0  0  0  0  0  0
  149.1758  141.1474  156.5923 H   0  0  0  0  0  0  0  0  0  0  0  0
  149.4879  142.3295  157.8472 H   0  0  0  0  0  0  0  0  0  0  0  0
  149.7238  143.4254  156.0196 H   0  0  0  0  0  0  0  0  0  0  0  0
  152.9631  142.1272  157.8402 H   0  0  0  0  0  0  0  0  0  0  0  0
  151.7495  140.6523  160.1993 H   0  0  0  0  0  0  0  0  0  0  0  0
  153.3923  140.4884  159.5602 H   0  0  0  0  0  0  0  0  0  0  0  0
  152.9861  142.1798  161.6049 H   0  0  0  0  0  0  0  0  0  0  0  0
  153.9978  142.7012  160.2536 H   0  0  0  0  0  0  0  0  0  0  0  0
  151.4693  143.9279  158.2769 H   0  0  0  0  0  0  0  0  0  0  0  0
  150.3660  142.9082  159.2008 H   0  0  0  0  0  0  0  0  0  0  0  0
  150.7795  134.6662  154.2508 H   0  0  0  0  0  0  0  0  0  0  0  0
  149.1479  135.2884  154.3974 H   0  0  0  0  0  0  0  0  0  0  0  0
  149.1132  134.0029  152.2729 H   0  0  0  0  0  0  0  0  0  0  0  0
  150.0974  132.5428  152.3174 H   0  0  0  0  0  0  0  0  0  0  0  0
  147.8382  131.8391  151.5402 H   0  0  0  0  0  0  0  0  0  0  0  0
  1  2  2  0  0  0  0
  2 29  1  0  0  0  0
  2  3  1  0  0  0  0
  3  4  1  0  0  0  0
  3 30  1  0  0  0  0
  3 31  1  0  0  0  0
  4 27  1  0  0  0  0
  4  5  1  0  0  0  0
  4 28  1  0  0  0  0
  5  6  1  0  0  0  0
  5 32  1  0  0  0  0
  5 33  1  0  0  0  0
  6  7  1  0  0  0  0
  6 34  1  0  0  0  0
  6 35  1  0  0  0  0
  7  8  1  0  0  0  0
  7 36  1  0  0  0  0
  7 37  1  0  0  0  0
  8  9  1  0  0  0  0
  8 27  1  0  0  0  0
  9 14  1  0  0  0  0
  9 10  2  0  0  0  0
 10 11  1  0  0  0  0
 11 12  2  0  0  0  0
 11 38  1  0  0  0  0
 12 13  1  0  0  0  0
 13 17  1  0  0  0  0
 13 14  2  0  0  0  0
 14 15  1  0  0  0  0
 15 16  2  0  0  0  0
 16 17  1  0  0  0  0
 16 39  1  0  0  0  0
 17 18  1  0  0  0  0
 18 19  1  0  0  0  0
 18 40  1  0  0  0  0
 18 41  1  0  0  0  0
 19 20  1  0  0  0  0
 19 22  1  0  0  0  0
 19 42  1  0  0  0  0
 20 21  1  0  0  0  0
 20 43  1  0  0  0  0
 20 44  1  0  0  0  0
 21 45  1  0  0  0  0
 22 26  1  0  0  0  0
 22 23  1  0  0  0  0
 22 46  1  0  0  0  0
 23 24  1  0  0  0  0
 23 47  1  0  0  0  0
 23 48  1  0  0  0  0
 24 25  1  0  0  0  0
 24 49  1  0  0  0  0
 24 50  1  0  0  0  0
 25 26  1  0  0  0  0
 26 51  1  0  0  0  0
 26 52  1  0  0  0  0
 27 53  1  0  0  0  0
 27 54  1  0  0  0  0
 28 29  1  0  0  0  0
 28 55  1  0  0  0  0
 28 56  1  0  0  0  0
 29 57  1  0  0  0  0
M  END
> <s_m_source_file>
AV-unprocessed.smi

> <i_m_source_file_index>
20

> <i_lp_mmshare_version>
43012

> <i_f3d_flags>
0

> <s_epik_input>
W0NIMl0xW05IXUMoPU8pW0NIMl1bQ0BAXTEyW0NIMl1bQ0gyXVtDSDJdTihbQ0gyXTIpYyhuW2NIXW4zKWMoYzM0KW5bY0hdbjRbQ0gyXVtDQEhdKFtDSDJdW09IXSlbQ0BASF01W0NIMl1bQ0gyXU9bQ0gyXTU=

> <s_epik_cmdline>
J2VwaWtfcHl0aG9uJywgJy1waCcsICc3LjAnLCAnLXRuJywgJzgnLCAnLW1hJywgJzIwMCcsICctbWV0YWxfYmluZGluZycsICctaW1hZScsICc8aW5maWxlLm1hZT4nLCAnLW9tYWUnLCAnPG91dGZpbGUubWFlPic=

> <r_lp_tautomer_probability>
1

> <r_epik_Ionization_Penalty>
0.0019697

> <r_epik_Ionization_Penalty_Charging>
0

> <r_epik_Ionization_Penalty_Neutral>
0.0019697

> <r_epik_State_Penalty>
0.00113613

> <r_epik_Charging_Adjusted_Penalty>
0.00113613

> <i_epik_Tot_Q>
0

> <i_epik_Tot_abs_Q>
0

> <r_epik_Metal_State_Penalty>
-0

> <b_epik_Metal_Only>
0

> <s_lp_Force_Field>
OPLS_2005

> <r_lp_Energy>
60.2496

> <b_lp_Chiralities_Consistent>
1

> <s_lp_Variant>
AV-unprocessed.smi:20-1

> <Gold.Version>
5.8.1

> <Gold.Id.Protein>
6NUR|6NUR_protein|mol2

> <Gold.PLP.Fitness>
48.6644

> <Gold.PLP.PLP>
-42.7802

> <Gold.PLP.part.hbond>
-4.0000

> <Gold.PLP.part.metal>
0.0000

> <Gold.PLP.part.buried>
-8.6382

> <Gold.PLP.part.nonpolar>
-31.2163

> <Gold.PLP.part.repulsive>
0.3195

> <Gold.PLP.ligand.clash>
0.0000

> <Gold.PLP.ligand.torsion>
2.4869

> <Gold.PLP.Chemscore.Hbond>
3.4745

> <Gold.PLP.Chemscore.CHOScore>
0.0000

> <Gold.PLP.Chemscore.Metal>
0.0000

> <Gold.Chemscore.Hbonds>
donor molecule, donor type, donor heavy atom, donor atom, acceptor molecule, acceptor atom, score
      L1  H    21    45       P1  8028  1.00
      L1  H    29    57       P1 10747  0.66
      P1  H  6896  6907       L1    10  0.13
      P1  H 10752 10765       L1    15  0.98

> <Gold.PLP.Chemscore.Internal.Correction>
0.4346

> <Gold.Rescore>
     Score         DG    S(hbond)    S(metal)    S(lipo)     H(rot)  DE(clash)    DE(int)     intcor
     13.60     -19.11       2.86        0.00      94.96       2.74       0.41       5.11       ----

> <Gold.Chemscore.Fitness>
13.5971

> <Gold.Chemscore.DG>
-19.1116

> <Gold.Chemscore.ZeroCoef>
-5.4800

> <Gold.Chemscore.Hbond>
2.8562

> <Gold.Chemscore.Metal>
0.0000

> <Gold.Chemscore.Lipo>
94.9588

> <Gold.Chemscore.Internal_Hbond>
0.0000

> <Gold.Chemscore.DEClash>
0.4094

> <Gold.Chemscore.DEInternal>
5.1051

> <Gold.Chemscore.Rot>
2.7415

> <Gold.Chemscore.Internal.Correction>
   9.000000E+99

> <Gold.Chemscore.Hbonds>
donor molecule, donor type, donor heavy atom, donor atom, acceptor molecule, acceptor atom, score
      L1  H    21    45       P1  8028  0.98
      L1  H    29    57       P1 10747  0.63
      P1  H  6896  6907       L1    10  0.03
      P1  H 10752 10765       L1    15  0.67

> <Gold.Chemscore.Hbond.Weighted>
-9.5396

> <Gold.Chemscore.Metal.Weighted>
-0.0000

> <Gold.Chemscore.Lipo.Weighted>
-11.1102

> <Gold.Chemscore.Internal_Hbond.Weighted>
0.0000

> <Gold.Chemscore.DEClash.Weighted>
0.4094

> <Gold.Chemscore.DEInternal.Weighted>
5.1051

> <Gold.Chemscore.Rot.Weighted>
7.0182

> <Gold.Chemscore.Internal.Correction.Weighted>
   9.000000E+99

> <Gold.Protein.RotatedTorsions>
[ 6907 6896 6895 6894 ] final  -63.52 input  -60.11 | X-H torsion
[ 7974 7965 7964 7962 ] final -176.43 input  175.53 | X-H torsion
[ 8008 7997 7996 7995 ] final -110.38 input   59.86 | X-H torsion
[ 10167 10162 10161 10158 ] final  -34.68 input  -65.29 | X-H torsion
[ 10718 10713 10712 10709 ] final   46.06 input   66.30 | X-H torsion
[ 10763 10752 10751 10750 ] final -173.05 input  -60.55 | X-H torsion
[ 11005 11000 10999 10996 ] final  -58.37 input  -57.11 | X-H torsion

> <Gold.Protein.ActiveResidues>
 VAL166  LYS551  ARG553  GLY616  TRP617  ASP618  TYR619  PRO620  LYS621  CYS622 
 ASP623  PHE694  ASN695  SER759  ASP760  ASP761  ALA762  ILE779  LEU786  VAL792 
 PHE793  MET794  SER795  GLU796  ALA797  LYS798  CYS799  TRP800  GLU811  SER814 

> <Gold.Protein.RotatedAtoms>
  150.7643  134.6423  159.6243 H   0  0  0  0  0  0  0  0  0  0  0  0  # atno 6907 bound_to 6896
  152.3667  134.6790  160.0198 H   0  0  0  0  0  0  0  0  0  0  0  0  # atno 6908 bound_to 6896
  151.7163  133.3277  159.3340 H   0  0  0  0  0  0  0  0  0  0  0  0  # atno 6909 bound_to 6896
  144.7127  140.1171  143.6407 H   0  0  0  0  0  0  0  0  0  0  0  0  # atno 7974 bound_to 7965
  154.9737  140.0397  157.2246 H   0  0  0  0  0  0  0  0  0  0  0  0  # atno 8008 bound_to 7997
  154.7777  140.2813  155.6065 H   0  0  0  0  0  0  0  0  0  0  0  0  # atno 8009 bound_to 7997
  156.2931  140.2597  156.2595 H   0  0  0  0  0  0  0  0  0  0  0  0  # atno 8010 bound_to 7997
  140.7181  143.3531  151.2115 H   0  0  0  0  0  0  0  0  0  0  0  0  # atno 10167 bound_to 10162
  157.4442  130.8099  149.7724 H   0  0  0  0  0  0  0  0  0  0  0  0  # atno 10718 bound_to 10713
  154.6123  135.2866  155.0418 H   0  0  0  0  0  0  0  0  0  0  0  0  # atno 10763 bound_to 10752
  154.1643  135.6483  153.4997 H   0  0  0  0  0  0  0  0  0  0  0  0  # atno 10764 bound_to 10752
  153.0200  135.5386  154.6881 H   0  0  0  0  0  0  0  0  0  0  0  0  # atno 10765 bound_to 10752
  141.1204  133.6612  156.4910 H   0  0  0  0  0  0  0  0  0  0  0  0  # atno 11005 bound_to 11000
  145.9404  139.2665  143.1272 LP  0  0  0  0  0  0  0  0  0  0  0  0  # atno 17320 bound_to 7965
  145.9430  140.8966  143.0298 LP  0  0  0  0  0  0  0  0  0  0  0  0  # atno 17321 bound_to 7965
  139.7066  143.9445  152.2929 LP  0  0  0  0  0  0  0  0  0  0  0  0  # atno 17342 bound_to 10162
  139.9156  144.6830  150.8516 LP  0  0  0  0  0  0  0  0  0  0  0  0  # atno 17343 bound_to 10162
  155.9960  130.3908  150.2794 LP  0  0  0  0  0  0  0  0  0  0  0  0  # atno 17370 bound_to 10713
  157.0961  131.0183  151.3103 LP  0  0  0  0  0  0  0  0  0  0  0  0  # atno 17371 bound_to 10713
  140.4523  134.6917  157.5045 LP  0  0  0  0  0  0  0  0  0  0  0  0  # atno 17394 bound_to 11000
  140.0158  134.6622  155.9313 LP  0  0  0  0  0  0  0  0  0  0  0  0  # atno 17395 bound_to 11000

$$$$
