AV-unprocessed.smi:278|AV-procd|sdf|2088|dock10
  -GOLD-   2262021363D 1   1.00000     0.00000
 Structure written by MMmdl.
 50 54  0  0  0  0  0  0  0  0  1 V2000
  149.4749  143.6147  159.5102 O   0  0  0  0  0  0  0  0  0  0  0  0
  150.7559  144.3338  159.5902 S   0  0  0  0  0  0  0  0  0  0  0  0
  150.7998  145.8017  159.5105 O   0  0  0  0  0  0  0  0  0  0  0  0
  151.6535  143.7912  161.0960 C   0  0  0  0  0  0  0  0  0  0  0  0
  153.0213  143.2819  160.6216 C   0  0  0  0  0  0  0  0  0  0  0  0
  152.8882  142.7377  159.1874 C   0  0  1  0  0  0  0  0  0  0  0  0
  152.1984  141.3718  159.1036 C   0  0  0  0  0  0  0  0  0  0  0  0
  151.5285  141.3552  157.8098 N   0  0  0  0  0  0  0  0  0  0  0  0
  150.6451  140.3713  157.4950 C   0  0  0  0  0  0  0  0  0  0  0  0
  150.2647  139.4953  158.4636 N   0  0  0  0  0  0  0  0  0  0  0  0
  149.3866  138.5245  158.1973 C   0  0  0  0  0  0  0  0  0  0  0  0
  148.7761  138.2461  157.0448 N   0  0  0  0  0  0  0  0  0  0  0  0
  149.1655  139.1062  156.0617 C   0  0  0  0  0  0  0  0  0  0  0  0
  150.0889  140.1831  156.1947 C   0  0  0  0  0  0  0  0  0  0  0  0
  150.2391  140.8212  154.9672 N   0  0  0  0  0  0  0  0  0  0  0  0
  149.4421  140.1719  154.1638 C   0  0  0  0  0  0  0  0  0  0  0  0
  148.7525  139.1317  154.7420 N   0  0  0  0  0  0  0  0  0  0  0  0
  147.7947  138.2530  154.0947 C   0  0  0  0  0  0  0  0  0  0  0  0
  146.6248  139.0310  153.4599 C   0  0  1  0  0  0  0  0  0  0  0  0
  147.0993  139.7391  152.3302 O   0  0  0  0  0  0  0  0  0  0  0  0
  145.4734  138.1065  153.0238 C   0  0  2  0  0  0  0  0  0  0  0  0
  144.9742  137.1602  154.1185 C   0  0  0  0  0  0  0  0  0  0  0  0
  144.3746  136.0377  153.3041 C   0  0  0  0  0  0  0  0  0  0  0  0
  145.3677  135.9319  152.1517 C   0  0  0  0  0  0  0  0  0  0  0  0
  145.8995  137.2420  151.9718 O   0  0  0  0  0  0  0  0  0  0  0  0
  151.3043  142.7170  157.3404 C   0  0  0  0  0  0  0  0  0  0  0  0
  151.9583  143.6409  158.3767 C   0  0  1  0  0  0  0  0  0  0  0  0
  153.8628  142.6737  158.7013 H   0  0  0  0  0  0  0  0  0  0  0  0
  152.4905  144.4736  157.9162 H   0  0  0  0  0  0  0  0  0  0  0  0
  151.7284  144.6140  161.8072 H   0  0  0  0  0  0  0  0  0  0  0  0
  151.0791  142.9875  161.5572 H   0  0  0  0  0  0  0  0  0  0  0  0
  153.7191  144.1199  160.6093 H   0  0  0  0  0  0  0  0  0  0  0  0
  153.4340  142.5383  161.3040 H   0  0  0  0  0  0  0  0  0  0  0  0
  152.9168  140.5557  159.1897 H   0  0  0  0  0  0  0  0  0  0  0  0
  151.4583  141.2584  159.8971 H   0  0  0  0  0  0  0  0  0  0  0  0
  149.1350  137.8807  159.0273 H   0  0  0  0  0  0  0  0  0  0  0  0
  149.3292  140.4400  153.1232 H   0  0  0  0  0  0  0  0  0  0  0  0
  148.3158  137.6621  153.3402 H   0  0  0  0  0  0  0  0  0  0  0  0
  147.4236  137.5492  154.8407 H   0  0  0  0  0  0  0  0  0  0  0  0
  146.2452  139.7599  154.1773 H   0  0  0  0  0  0  0  0  0  0  0  0
  148.0147  139.5348  152.2135 H   0  0  0  0  0  0  0  0  0  0  0  0
  144.6341  138.6952  152.6495 H   0  0  0  0  0  0  0  0  0  0  0  0
  145.8077  136.7839  154.7139 H   0  0  0  0  0  0  0  0  0  0  0  0
  144.2570  137.6293  154.7925 H   0  0  0  0  0  0  0  0  0  0  0  0
  144.2677  135.1081  153.8638 H   0  0  0  0  0  0  0  0  0  0  0  0
  143.3922  136.3295  152.9307 H   0  0  0  0  0  0  0  0  0  0  0  0
  146.1862  135.2609  152.4152 H   0  0  0  0  0  0  0  0  0  0  0  0
  144.9057  135.5597  151.2370 H   0  0  0  0  0  0  0  0  0  0  0  0
  151.7956  142.8316  156.3739 H   0  0  0  0  0  0  0  0  0  0  0  0
  150.2474  142.9460  157.2042 H   0  0  0  0  0  0  0  0  0  0  0  0
  1  2  2  0  0  0  0
  2 27  1  0  0  0  0
  2  3  2  0  0  0  0
  2  4  1  0  0  0  0
  4  5  1  0  0  0  0
  4 30  1  0  0  0  0
  4 31  1  0  0  0  0
  5  6  1  0  0  0  0
  5 32  1  0  0  0  0
  5 33  1  0  0  0  0
  6 28  1  0  0  0  0
  6 27  1  0  0  0  0
  6  7  1  0  0  0  0
  7  8  1  0  0  0  0
  7 34  1  0  0  0  0
  7 35  1  0  0  0  0
  8  9  1  0  0  0  0
  8 26  1  0  0  0  0
  9 14  1  0  0  0  0
  9 10  2  0  0  0  0
 10 11  1  0  0  0  0
 11 12  2  0  0  0  0
 11 36  1  0  0  0  0
 12 13  1  0  0  0  0
 13 17  1  0  0  0  0
 13 14  2  0  0  0  0
 14 15  1  0  0  0  0
 15 16  2  0  0  0  0
 16 17  1  0  0  0  0
 16 37  1  0  0  0  0
 17 18  1  0  0  0  0
 18 19  1  0  0  0  0
 18 38  1  0  0  0  0
 18 39  1  0  0  0  0
 19 20  1  0  0  0  0
 19 21  1  0  0  0  0
 19 40  1  0  0  0  0
 20 41  1  0  0  0  0
 21 25  1  0  0  0  0
 21 22  1  0  0  0  0
 21 42  1  0  0  0  0
 22 23  1  0  0  0  0
 22 43  1  0  0  0  0
 22 44  1  0  0  0  0
 23 24  1  0  0  0  0
 23 45  1  0  0  0  0
 23 46  1  0  0  0  0
 24 25  1  0  0  0  0
 24 47  1  0  0  0  0
 24 48  1  0  0  0  0
 26 27  1  0  0  0  0
 26 49  1  0  0  0  0
 26 50  1  0  0  0  0
 27 29  1  0  0  0  0
M  END
> <s_m_source_file>
AV-unprocessed.smi

> <i_m_source_file_index>
278

> <i_lp_mmshare_version>
43012

> <i_f3d_flags>
0

> <s_epik_input>
W0NIMl0xW0NIMl1TKD1PKSg9TylbQ0BASF0oW0NAQEhdMTIpW0NIMl1OKFtDSDJdMiljKG5bY0hdbjMpYyhjMzQpbltjSF1uNFtDSDJdW0NASF0oW09IXSlbQ0BASF01W0NIMl1bQ0gyXVtDSDJdTzU=

> <s_epik_cmdline>
J2VwaWtfcHl0aG9uJywgJy1waCcsICc3LjAnLCAnLXRuJywgJzgnLCAnLW1hJywgJzIwMCcsICctbWV0YWxfYmluZGluZycsICctaW1hZScsICc8aW5maWxlLm1hZT4nLCAnLW9tYWUnLCAnPG91dGZpbGUubWFlPic=

> <r_lp_tautomer_probability>
1

> <r_epik_Ionization_Penalty>
0.000636766

> <r_epik_Ionization_Penalty_Charging>
0

> <r_epik_Ionization_Penalty_Neutral>
0.000636766

> <r_epik_State_Penalty>
0.000329976

> <r_epik_Charging_Adjusted_Penalty>
0.000329976

> <i_epik_Tot_Q>
0

> <i_epik_Tot_abs_Q>
0

> <r_epik_Metal_State_Penalty>
-0

> <b_epik_Metal_Only>
0

> <s_lp_Force_Field>
OPLS_2005

> <r_lp_Energy>
48.1975

> <b_lp_Chiralities_Consistent>
1

> <s_lp_Variant>
AV-unprocessed.smi:278-2

> <Gold.Version>
5.8.1

> <Gold.Id.Protein>
6NUR|6NUR_protein|mol2

> <Gold.PLP.Fitness>
44.3922

> <Gold.PLP.PLP>
-37.8909

> <Gold.PLP.part.hbond>
-4.6514

> <Gold.PLP.part.metal>
0.0000

> <Gold.PLP.part.buried>
-3.1354

> <Gold.PLP.part.nonpolar>
-31.4623

> <Gold.PLP.part.repulsive>
0.7046

> <Gold.PLP.ligand.clash>
0.0000

> <Gold.PLP.ligand.torsion>
0.4901

> <Gold.PLP.Chemscore.Hbond>
1.3953

> <Gold.PLP.Chemscore.CHOScore>
1.0000

> <Gold.PLP.Chemscore.Metal>
0.0000

> <Gold.Chemscore.Hbonds>
donor molecule, donor type, donor heavy atom, donor atom, acceptor molecule, acceptor atom, score
      L1  H    20    41       P1  7957  0.83
      P1  H  7989  7998       L1    15  0.36
      L1  C    16    37       P1  7957  0.98

> <Gold.PLP.Chemscore.Internal.Correction>
0.2955

> <Gold.Rescore>
     Score         DG    S(hbond)    S(metal)    S(lipo)     H(rot)  DE(clash)    DE(int)     intcor
     12.84     -14.02       1.03        0.00      90.38       2.13       0.68       0.51       ----

> <Gold.Chemscore.Fitness>
12.8409

> <Gold.Chemscore.DG>
-14.0249

> <Gold.Chemscore.ZeroCoef>
-5.4800

> <Gold.Chemscore.Hbond>
1.0283

> <Gold.Chemscore.Metal>
0.0000

> <Gold.Chemscore.Lipo>
90.3841

> <Gold.Chemscore.Internal_Hbond>
0.0000

> <Gold.Chemscore.DEClash>
0.6776

> <Gold.Chemscore.DEInternal>
0.5065

> <Gold.Chemscore.Rot>
2.1346

> <Gold.Chemscore.Internal.Correction>
   9.000000E+99

> <Gold.Chemscore.Hbonds>
donor molecule, donor type, donor heavy atom, donor atom, acceptor molecule, acceptor atom, score
      L1  H    20    41       P1  7957  0.82
      P1  H  6933  6944       L1     1  0.01
      P1  H  7989  7998       L1    15  0.01

> <Gold.Chemscore.Hbond.Weighted>
-3.4346

> <Gold.Chemscore.Metal.Weighted>
-0.0000

> <Gold.Chemscore.Lipo.Weighted>
-10.5749

> <Gold.Chemscore.Internal_Hbond.Weighted>
0.0000

> <Gold.Chemscore.DEClash.Weighted>
0.6776

> <Gold.Chemscore.DEInternal.Weighted>
0.5065

> <Gold.Chemscore.Rot.Weighted>
5.4646

> <Gold.Chemscore.Internal.Correction.Weighted>
   9.000000E+99

> <Gold.Protein.RotatedTorsions>
[ 6907 6896 6895 6894 ] final  114.87 input  -60.11 | X-H torsion
[ 7974 7965 7964 7962 ] final  -91.20 input  175.53 | X-H torsion
[ 8008 7997 7996 7995 ] final -119.52 input   59.86 | X-H torsion
[ 10167 10162 10161 10158 ] final  -18.46 input  -65.29 | X-H torsion
[ 10718 10713 10712 10709 ] final  -76.21 input   66.30 | X-H torsion
[ 10763 10752 10751 10750 ] final   -4.56 input  -60.55 | X-H torsion
[ 11005 11000 10999 10996 ] final  -97.15 input  -57.11 | X-H torsion

> <Gold.Protein.ActiveResidues>
 VAL166  LYS551  ARG553  GLY616  TRP617  ASP618  TYR619  PRO620  LYS621  CYS622 
 ASP623  PHE694  ASN695  SER759  ASP760  ASP761  ALA762  ILE779  LEU786  VAL792 
 PHE793  MET794  SER795  GLU796  ALA797  LYS798  CYS799  TRP800  GLU811  SER814 

> <Gold.Protein.RotatedAtoms>
  152.4776  133.8176  159.7035 H   0  0  0  0  0  0  0  0  0  0  0  0  # atno 6907 bound_to 6896
  150.8803  133.7372  159.2940 H   0  0  0  0  0  0  0  0  0  0  0  0  # atno 6908 bound_to 6896
  151.4878  135.1059  159.9847 H   0  0  0  0  0  0  0  0  0  0  0  0  # atno 6909 bound_to 6896
  145.4164  140.9548  143.2205 H   0  0  0  0  0  0  0  0  0  0  0  0  # atno 7974 bound_to 7965
  155.1171  140.0398  157.2740 H   0  0  0  0  0  0  0  0  0  0  0  0  # atno 8008 bound_to 7997
  154.6642  140.2597  155.7051 H   0  0  0  0  0  0  0  0  0  0  0  0  # atno 8009 bound_to 7997
  156.2632  140.2811  156.1125 H   0  0  0  0  0  0  0  0  0  0  0  0  # atno 8010 bound_to 7997
  140.7259  143.4914  150.9987 H   0  0  0  0  0  0  0  0  0  0  0  0  # atno 10167 bound_to 10162
  156.0182  130.4460  150.3159 H   0  0  0  0  0  0  0  0  0  0  0  0  # atno 10718 bound_to 10713
  153.3866  135.7000  153.6526 H   0  0  0  0  0  0  0  0  0  0  0  0  # atno 10763 bound_to 10752
  153.5115  135.3631  155.2589 H   0  0  0  0  0  0  0  0  0  0  0  0  # atno 10764 bound_to 10752
  154.8698  135.4136  154.3174 H   0  0  0  0  0  0  0  0  0  0  0  0  # atno 10765 bound_to 10752
  141.1388  133.8150  157.0667 H   0  0  0  0  0  0  0  0  0  0  0  0  # atno 11005 bound_to 11000
  144.8275  139.5685  143.6959 LP  0  0  0  0  0  0  0  0  0  0  0  0  # atno 17320 bound_to 7965
  146.2679  139.6564  142.9316 LP  0  0  0  0  0  0  0  0  0  0  0  0  # atno 17321 bound_to 7965
  139.8619  143.7304  152.3173 LP  0  0  0  0  0  0  0  0  0  0  0  0  # atno 17342 bound_to 10162
  139.7522  144.7531  151.0489 LP  0  0  0  0  0  0  0  0  0  0  0  0  # atno 17343 bound_to 10162
  157.1260  131.0259  151.2989 LP  0  0  0  0  0  0  0  0  0  0  0  0  # atno 17370 bound_to 10713
  157.4589  130.7642  149.7218 LP  0  0  0  0  0  0  0  0  0  0  0  0  # atno 17371 bound_to 10713
  140.0537  134.9792  157.1182 LP  0  0  0  0  0  0  0  0  0  0  0  0  # atno 17394 bound_to 11000
  140.3952  134.2142  155.7165 LP  0  0  0  0  0  0  0  0  0  0  0  0  # atno 17395 bound_to 11000

$$$$
