AV-unprocessed.smi:2129|AV-procd|sdf|8683|dock10
  -GOLD-   2272011433D 1   1.00000     0.00000
 Structure written by MMmdl.
 34 34  0  0  0  0  0  0  0  0  1 V2000
  152.7489  143.1228  160.7387 C   0  0  0  0  0  0  0  0  0  0  0  0
  152.2441  142.5929  159.3847 C   0  0  0  0  0  0  0  0  0  0  0  0
  151.6191  143.6530  158.4370 C   0  0  0  0  0  0  0  0  0  0  0  0
  150.4790  144.4024  159.1538 C   0  0  0  0  0  0  0  0  0  0  0  0
  152.6896  144.6880  158.0274 C   0  0  0  0  0  0  0  0  0  0  0  0
  151.0328  143.0293  157.2452 N   0  0  0  0  0  0  0  0  0  0  0  0
  150.1460  142.0180  157.1683 C   0  0  0  0  0  0  0  0  0  0  0  0
  149.6987  141.4339  158.1538 O   0  0  0  0  0  0  0  0  0  0  0  0
  149.6683  141.5888  155.7701 C   0  0  0  0  0  0  0  0  0  0  0  0
  150.2662  140.3379  155.2738 N   0  0  0  0  0  0  0  0  0  0  0  0
  151.5369  139.9601  155.6838 C   0  0  0  0  0  0  0  0  0  0  0  0
  152.1536  138.8327  155.2566 C   0  0  0  0  0  0  0  0  0  0  0  0
  151.4881  137.9378  154.3159 C   0  0  0  0  0  0  0  0  0  0  0  0
  151.9638  136.8957  153.8711 O   0  0  0  0  0  0  0  0  0  0  0  0
  150.2117  138.3526  153.9264 N   0  0  0  0  0  0  0  0  0  0  0  0
  149.5707  139.5132  154.3620 C   0  0  0  0  0  0  0  0  0  0  0  0
  148.4463  139.7910  153.9472 O   0  0  0  0  0  0  0  0  0  0  0  0
  149.7126  137.7648  153.2744 H   0  0  0  0  0  0  0  0  0  0  0  0
  153.1527  142.3076  161.3390 H   0  0  0  0  0  0  0  0  0  0  0  0
  151.9488  143.5852  161.3168 H   0  0  0  0  0  0  0  0  0  0  0  0
  153.5440  143.8576  160.6153 H   0  0  0  0  0  0  0  0  0  0  0  0
  153.0721  142.1001  158.8739 H   0  0  0  0  0  0  0  0  0  0  0  0
  151.5185  141.8028  159.5801 H   0  0  0  0  0  0  0  0  0  0  0  0
  150.8264  144.8643  160.0786 H   0  0  0  0  0  0  0  0  0  0  0  0
  149.6514  143.7394  159.4076 H   0  0  0  0  0  0  0  0  0  0  0  0
  150.0712  145.1954  158.5254 H   0  0  0  0  0  0  0  0  0  0  0  0
  153.0573  145.2354  158.8960 H   0  0  0  0  0  0  0  0  0  0  0  0
  152.2885  145.4200  157.3253 H   0  0  0  0  0  0  0  0  0  0  0  0
  153.5551  144.2218  157.5568 H   0  0  0  0  0  0  0  0  0  0  0  0
  151.3221  143.4307  156.3651 H   0  0  0  0  0  0  0  0  0  0  0  0
  148.5821  141.4938  155.8022 H   0  0  0  0  0  0  0  0  0  0  0  0
  149.8597  142.4033  155.0688 H   0  0  0  0  0  0  0  0  0  0  0  0
  152.0695  140.5962  156.3765 H   0  0  0  0  0  0  0  0  0  0  0  0
  153.1456  138.5930  155.6115 H   0  0  0  0  0  0  0  0  0  0  0  0
  1  2  1  0  0  0  0
  1 19  1  0  0  0  0
  1 20  1  0  0  0  0
  1 21  1  0  0  0  0
  2  3  1  0  0  0  0
  2 22  1  0  0  0  0
  2 23  1  0  0  0  0
  3  4  1  0  0  0  0
  3  5  1  0  0  0  0
  3  6  1  0  0  0  0
  4 24  1  0  0  0  0
  4 25  1  0  0  0  0
  4 26  1  0  0  0  0
  5 27  1  0  0  0  0
  5 28  1  0  0  0  0
  5 29  1  0  0  0  0
  6  7  1  0  0  0  0
  6 30  1  0  0  0  0
  7  8  2  0  0  0  0
  7  9  1  0  0  0  0
  9 10  1  0  0  0  0
  9 31  1  0  0  0  0
  9 32  1  0  0  0  0
 10 16  1  0  0  0  0
 10 11  1  0  0  0  0
 11 12  2  0  0  0  0
 11 33  1  0  0  0  0
 12 13  1  0  0  0  0
 12 34  1  0  0  0  0
 13 14  2  0  0  0  0
 13 15  1  0  0  0  0
 15 18  1  0  0  0  0
 15 16  1  0  0  0  0
 16 17  2  0  0  0  0
M  END
> <s_m_source_file>
AV-unprocessed.smi

> <i_m_source_file_index>
2129

> <i_lp_mmshare_version>
43012

> <i_f3d_flags>
0

> <s_epik_input>
W0NIM11bQ0gyXUMoW0NIM10pKFtDSDNdKVtOSF1DKD1PKVtDSDJdbjFbY0hdW2NIXWMoPU8pW25IXWMxPU8=

> <s_epik_cmdline>
J2VwaWtfcHl0aG9uJywgJy1waCcsICc3LjAnLCAnLXRuJywgJzgnLCAnLW1hJywgJzIwMCcsICctbWV0YWxfYmluZGluZycsICctaW1hZScsICc8aW5maWxlLm1hZT4nLCAnLW9tYWUnLCAnPG91dGZpbGUubWFlPic=

> <r_lp_tautomer_probability>
0.999537

> <r_epik_Ionization_Penalty>
0.00293907

> <r_epik_Ionization_Penalty_Charging>
0.00293905

> <r_epik_Ionization_Penalty_Neutral>
1.95902e-08

> <r_epik_State_Penalty>
0.0020607

> <r_epik_Charging_Adjusted_Penalty>
0.00499975

> <i_epik_Tot_Q>
0

> <i_epik_Tot_abs_Q>
0

> <r_epik_Metal_State_Penalty>
0.360223

> <b_epik_Metal_Only>
0

> <s_lp_Force_Field>
OPLS_2005

> <r_lp_Energy>
5.65175

> <b_lp_Chiralities_Consistent>
1

> <s_lp_Variant>
AV-unprocessed.smi:2129-1

> <Gold.Version>
5.8.1

> <Gold.Id.Protein>
6NUR|6NUR_protein|mol2

> <Gold.PLP.Fitness>
40.7382

> <Gold.PLP.PLP>
-37.1321

> <Gold.PLP.part.hbond>
-2.2241

> <Gold.PLP.part.metal>
0.0000

> <Gold.PLP.part.buried>
-6.0325

> <Gold.PLP.part.nonpolar>
-33.6659

> <Gold.PLP.part.repulsive>
3.5524

> <Gold.PLP.ligand.clash>
0.0000

> <Gold.PLP.ligand.torsion>
0.6804

> <Gold.PLP.Chemscore.Hbond>
1.6500

> <Gold.PLP.Chemscore.CHOScore>
0.0000

> <Gold.PLP.Chemscore.Metal>
0.0000

> <Gold.Chemscore.Hbonds>
donor molecule, donor type, donor heavy atom, donor atom, acceptor molecule, acceptor atom, score
      L1  H    15    18       P1  7948  0.63
      P1  H 10752 10763       L1    14  0.99

> <Gold.PLP.Chemscore.Internal.Correction>
0.0170

> <Gold.Rescore>
     Score         DG    S(hbond)    S(metal)    S(lipo)     H(rot)  DE(clash)    DE(int)     intcor
     13.99     -16.24       1.91        0.00      79.97       1.95       1.74       0.51       ----

> <Gold.Chemscore.Fitness>
13.9895

> <Gold.Chemscore.DG>
-16.2371

> <Gold.Chemscore.ZeroCoef>
-5.4800

> <Gold.Chemscore.Hbond>
1.9128

> <Gold.Chemscore.Metal>
0.0000

> <Gold.Chemscore.Lipo>
79.9657

> <Gold.Chemscore.Internal_Hbond>
0.0000

> <Gold.Chemscore.DEClash>
1.7373

> <Gold.Chemscore.DEInternal>
0.5103

> <Gold.Chemscore.Rot>
1.9483

> <Gold.Chemscore.Internal.Correction>
   9.000000E+99

> <Gold.Chemscore.Hbonds>
donor molecule, donor type, donor heavy atom, donor atom, acceptor molecule, acceptor atom, score
      L1  H    15    18       P1  7948  0.47
      P1  H 10752 10763       L1    14  0.94

> <Gold.Chemscore.Hbond.Weighted>
-6.3888

> <Gold.Chemscore.Metal.Weighted>
-0.0000

> <Gold.Chemscore.Lipo.Weighted>
-9.3560

> <Gold.Chemscore.Internal_Hbond.Weighted>
0.0000

> <Gold.Chemscore.DEClash.Weighted>
1.7373

> <Gold.Chemscore.DEInternal.Weighted>
0.5103

> <Gold.Chemscore.Rot.Weighted>
4.9876

> <Gold.Chemscore.Internal.Correction.Weighted>
   9.000000E+99

> <Gold.Protein.RotatedTorsions>
[ 6907 6896 6895 6894 ] final   80.74 input  -60.11 | X-H torsion
[ 7974 7965 7964 7962 ] final   66.03 input  175.53 | X-H torsion
[ 8008 7997 7996 7995 ] final   66.08 input   59.86 | X-H torsion
[ 10167 10162 10161 10158 ] final   36.60 input  -65.29 | X-H torsion
[ 10718 10713 10712 10709 ] final  -87.39 input   66.30 | X-H torsion
[ 10763 10752 10751 10750 ] final   13.79 input  -60.55 | X-H torsion
[ 11005 11000 10999 10996 ] final   75.68 input  -57.11 | X-H torsion

> <Gold.Protein.ActiveResidues>
 VAL166  LYS551  ARG553  GLY616  TRP617  ASP618  TYR619  PRO620  LYS621  CYS622 
 ASP623  PHE694  ASN695  SER759  ASP760  ASP761  ALA762  ILE779  LEU786  VAL792 
 PHE793  MET794  SER795  GLU796  ALA797  LYS798  CYS799  TRP800  GLU811  SER814 

> <Gold.Protein.RotatedAtoms>
  152.5245  134.3311  159.9183 H   0  0  0  0  0  0  0  0  0  0  0  0  # atno 6907 bound_to 6896
  151.3260  133.4013  159.2666 H   0  0  0  0  0  0  0  0  0  0  0  0  # atno 6908 bound_to 6896
  150.9919  134.9269  159.7962 H   0  0  0  0  0  0  0  0  0  0  0  0  # atno 6909 bound_to 6896
  145.8314  139.3141  143.0985 H   0  0  0  0  0  0  0  0  0  0  0  0  # atno 7974 bound_to 7965
  155.6718  140.3497  155.4821 H   0  0  0  0  0  0  0  0  0  0  0  0  # atno 8008 bound_to 7997
  155.9682  140.1150  157.0859 H   0  0  0  0  0  0  0  0  0  0  0  0  # atno 8009 bound_to 7997
  154.4159  140.1162  156.5257 H   0  0  0  0  0  0  0  0  0  0  0  0  # atno 8010 bound_to 7997
  140.4112  144.1590  150.6139 H   0  0  0  0  0  0  0  0  0  0  0  0  # atno 10167 bound_to 10162
  155.9985  130.4798  150.4860 H   0  0  0  0  0  0  0  0  0  0  0  0  # atno 10718 bound_to 10713
  153.1685  135.6808  153.8640 H   0  0  0  0  0  0  0  0  0  0  0  0  # atno 10763 bound_to 10752
  153.8012  135.3155  155.3391 H   0  0  0  0  0  0  0  0  0  0  0  0  # atno 10764 bound_to 10752
  154.7982  135.4794  154.0303 H   0  0  0  0  0  0  0  0  0  0  0  0  # atno 10765 bound_to 10752
  139.9333  134.7538  156.1301 H   0  0  0  0  0  0  0  0  0  0  0  0  # atno 11005 bound_to 11000
  145.9566  140.8868  143.0232 LP  0  0  0  0  0  0  0  0  0  0  0  0  # atno 17320 bound_to 7965
  144.6739  140.1754  143.7410 LP  0  0  0  0  0  0  0  0  0  0  0  0  # atno 17321 bound_to 7965
  140.4636  143.2439  151.9186 LP  0  0  0  0  0  0  0  0  0  0  0  0  # atno 17342 bound_to 10162
  139.4782  144.5442  151.8482 LP  0  0  0  0  0  0  0  0  0  0  0  0  # atno 17343 bound_to 10162
  157.2860  131.0616  151.2165 LP  0  0  0  0  0  0  0  0  0  0  0  0  # atno 17370 bound_to 10713
  157.3195  130.6930  149.6261 LP  0  0  0  0  0  0  0  0  0  0  0  0  # atno 17371 bound_to 10713
  141.0933  133.6705  156.2589 LP  0  0  0  0  0  0  0  0  0  0  0  0  # atno 17394 bound_to 11000
  140.6144  134.5425  157.5538 LP  0  0  0  0  0  0  0  0  0  0  0  0  # atno 17395 bound_to 11000

$$$$
