AV-unprocessed.smi:155|AV-procd|sdf|1282|dock1
  -GOLD-   2262018553D 1   1.00000     0.00000
 Structure written by MMmdl.
 64 67  0  0  0  0  0  0  0  0  3 V2000
  146.0258  132.1702  149.6706 C   0  0  0  0  0  0  0  0  0  0  0  0
  146.8954  131.8840  150.8361 N   0  3  0  0  0  0  0  0  0  0  0  0
  146.3170  130.8218  151.6898 C   0  0  0  0  0  0  0  0  0  0  0  0
  147.2535  133.0967  151.6173 C   0  0  0  0  0  0  0  0  0  0  0  0
  148.6023  132.9541  152.3555 C   0  0  0  0  0  0  0  0  0  0  0  0
  148.6875  133.7963  153.5789 N   0  3  1  0  0  0  0  0  0  0  0  0
  147.3743  133.9680  154.2675 C   0  0  0  0  0  0  0  0  0  0  0  0
  147.4730  134.5455  155.6947 C   0  0  0  0  0  0  0  0  0  0  0  0
  148.2515  135.8681  155.7861 C   0  0  0  0  0  0  0  0  0  0  0  0
  149.6063  135.7869  155.2369 N   0  0  0  0  0  0  0  0  0  0  0  0
  150.2872  136.9593  155.2404 C   0  0  0  0  0  0  0  0  0  0  0  0
  151.4611  137.0002  154.5594 N   0  0  0  0  0  0  0  0  0  0  0  0
  152.1827  138.1246  154.5258 C   0  0  0  0  0  0  0  0  0  0  0  0
  151.9172  139.3034  155.0916 N   0  0  0  0  0  0  0  0  0  0  0  0
  150.7348  139.2714  155.7696 C   0  0  0  0  0  0  0  0  0  0  0  0
  149.8630  138.1524  155.8960 C   0  0  0  0  0  0  0  0  0  0  0  0
  148.7494  138.5093  156.6496 N   0  0  0  0  0  0  0  0  0  0  0  0
  148.9558  139.7610  156.9572 C   0  0  0  0  0  0  0  0  0  0  0  0
  150.1232  140.2978  156.4656 N   0  0  0  0  0  0  0  0  0  0  0  0
  150.6002  141.6574  156.6450 C   0  0  0  0  0  0  0  0  0  0  0  0
  150.8170  142.0089  158.1321 C   0  0  1  0  0  0  0  0  0  0  0  0
  152.0729  141.5346  158.5769 O   0  0  0  0  0  0  0  0  0  0  0  0
  150.7080  143.5141  158.4515 C   0  0  2  0  0  0  0  0  0  0  0  0
  151.9073  144.3402  157.9821 C   0  0  0  0  0  0  0  0  0  0  0  0
  151.8246  145.5427  158.8941 C   0  0  0  0  0  0  0  0  0  0  0  0
  151.3946  144.9026  160.2103 C   0  0  0  0  0  0  0  0  0  0  0  0
  150.6282  143.7542  159.8562 O   0  0  0  0  0  0  0  0  0  0  0  0
  150.3766  134.5428  155.3216 C   0  0  0  0  0  0  0  0  0  0  0  0
  149.7887  133.3746  154.4900 C   0  0  0  0  0  0  0  0  0  0  0  0
  145.0757  132.6023  149.9879 H   0  0  0  0  0  0  0  0  0  0  0  0
  145.8117  131.2540  149.1188 H   0  0  0  0  0  0  0  0  0  0  0  0
  146.4985  132.8602  148.9728 H   0  0  0  0  0  0  0  0  0  0  0  0
  145.3843  131.1538  152.1486 H   0  0  0  0  0  0  0  0  0  0  0  0
  147.0092  130.5409  152.4846 H   0  0  0  0  0  0  0  0  0  0  0  0
  146.1092  129.9249  151.1049 H   0  0  0  0  0  0  0  0  0  0  0  0
  147.2604  133.9676  150.9597 H   0  0  0  0  0  0  0  0  0  0  0  0
  146.4691  133.2714  152.3542 H   0  0  0  0  0  0  0  0  0  0  0  0
  148.7894  131.9106  152.6128 H   0  0  0  0  0  0  0  0  0  0  0  0
  149.4034  133.2559  151.6822 H   0  0  0  0  0  0  0  0  0  0  0  0
  146.7460  134.6258  153.6670 H   0  0  0  0  0  0  0  0  0  0  0  0
  146.8642  133.0049  154.3187 H   0  0  0  0  0  0  0  0  0  0  0  0
  146.4639  134.7107  156.0732 H   0  0  0  0  0  0  0  0  0  0  0  0
  147.9079  133.8124  156.3749 H   0  0  0  0  0  0  0  0  0  0  0  0
  147.6894  136.6376  155.2553 H   0  0  0  0  0  0  0  0  0  0  0  0
  148.3097  136.1878  156.8275 H   0  0  0  0  0  0  0  0  0  0  0  0
  153.1040  138.0734  153.9641 H   0  0  0  0  0  0  0  0  0  0  0  0
  148.2550  140.3327  157.5486 H   0  0  0  0  0  0  0  0  0  0  0  0
  151.5275  141.7742  156.0827 H   0  0  0  0  0  0  0  0  0  0  0  0
  149.8744  142.3326  156.1913 H   0  0  0  0  0  0  0  0  0  0  0  0
  150.0723  141.4839  158.7318 H   0  0  0  0  0  0  0  0  0  0  0  0
  151.9258  140.8558  159.2175 H   0  0  0  0  0  0  0  0  0  0  0  0
  149.8131  143.9341  157.9880 H   0  0  0  0  0  0  0  0  0  0  0  0
  152.8443  143.8097  158.1546 H   0  0  0  0  0  0  0  0  0  0  0  0
  151.8545  144.6015  156.9247 H   0  0  0  0  0  0  0  0  0  0  0  0
  152.7639  146.0908  158.9717 H   0  0  0  0  0  0  0  0  0  0  0  0
  151.0546  146.2294  158.5391 H   0  0  0  0  0  0  0  0  0  0  0  0
  152.2665  144.5728  160.7767 H   0  0  0  0  0  0  0  0  0  0  0  0
  150.8221  145.5865  160.8372 H   0  0  0  0  0  0  0  0  0  0  0  0
  151.3891  134.7261  154.9594 H   0  0  0  0  0  0  0  0  0  0  0  0
  150.4747  134.2474  156.3670 H   0  0  0  0  0  0  0  0  0  0  0  0
  149.4400  132.5704  155.1398 H   0  0  0  0  0  0  0  0  0  0  0  0
  150.6097  132.9412  153.9179 H   0  0  0  0  0  0  0  0  0  0  0  0
  147.7586  131.5055  150.4724 H   0  0  0  0  0  0  0  0  0  0  0  0
  148.9605  134.7164  153.2627 H   0  0  0  0  0  0  0  0  0  0  0  0
  1  2  1  0  0  0  0
  1 30  1  0  0  0  0
  1 31  1  0  0  0  0
  1 32  1  0  0  0  0
  2  3  1  0  0  0  0
  2  4  1  0  0  0  0
  2 63  1  0  0  0  0
  3 33  1  0  0  0  0
  3 34  1  0  0  0  0
  3 35  1  0  0  0  0
  4  5  1  0  0  0  0
  4 36  1  0  0  0  0
  4 37  1  0  0  0  0
  5  6  1  0  0  0  0
  5 38  1  0  0  0  0
  5 39  1  0  0  0  0
  6 29  1  0  0  0  0
  6  7  1  0  0  0  0
  6 64  1  0  0  0  0
  7  8  1  0  0  0  0
  7 40  1  0  0  0  0
  7 41  1  0  0  0  0
  8  9  1  0  0  0  0
  8 42  1  0  0  0  0
  8 43  1  0  0  0  0
  9 10  1  0  0  0  0
  9 44  1  0  0  0  0
  9 45  1  0  0  0  0
 10 11  1  0  0  0  0
 10 28  1  0  0  0  0
 11 16  1  0  0  0  0
 11 12  2  0  0  0  0
 12 13  1  0  0  0  0
 13 14  2  0  0  0  0
 13 46  1  0  0  0  0
 14 15  1  0  0  0  0
 15 19  1  0  0  0  0
 15 16  2  0  0  0  0
 16 17  1  0  0  0  0
 17 18  2  0  0  0  0
 18 19  1  0  0  0  0
 18 47  1  0  0  0  0
 19 20  1  0  0  0  0
 20 21  1  0  0  0  0
 20 48  1  0  0  0  0
 20 49  1  0  0  0  0
 21 22  1  0  0  0  0
 21 23  1  0  0  0  0
 21 50  1  0  0  0  0
 22 51  1  0  0  0  0
 23 27  1  0  0  0  0
 23 24  1  0  0  0  0
 23 52  1  0  0  0  0
 24 25  1  0  0  0  0
 24 53  1  0  0  0  0
 24 54  1  0  0  0  0
 25 26  1  0  0  0  0
 25 55  1  0  0  0  0
 25 56  1  0  0  0  0
 26 27  1  0  0  0  0
 26 57  1  0  0  0  0
 26 58  1  0  0  0  0
 28 29  1  0  0  0  0
 28 59  1  0  0  0  0
 28 60  1  0  0  0  0
 29 61  1  0  0  0  0
 29 62  1  0  0  0  0
M  CHG  1   2   1
M  CHG  1   6   1
M  END
> <s_m_source_file>
AV-unprocessed.smi

> <i_m_source_file_index>
155

> <i_lp_mmshare_version>
43012

> <i_f3d_flags>
0

> <s_epik_input>
W0NIM11OKFtDSDNdKVtDSDJdW0NIMl1OMVtDSDJdW0NIMl1bQ0gyXU4oW0NIMl1bQ0gyXTEpYyhuW2NIXW4yKWMoYzIzKW5bY0hdbjNbQ0gyXVtDQEhdKFtPSF0pW0NAQEhdNFtDSDJdW0NIMl1bQ0gyXU80

> <s_epik_cmdline>
J2VwaWtfcHl0aG9uJywgJy1waCcsICc3LjAnLCAnLXRuJywgJzgnLCAnLW1hJywgJzIwMCcsICctbWV0YWxfYmluZGluZycsICctaW1hZScsICc8aW5maWxlLm1hZT4nLCAnLW9tYWUnLCAnPG91dGZpbGUubWFlPic=

> <r_lp_tautomer_probability>
1

> <r_epik_Ionization_Penalty>
3.0333

> <r_epik_Ionization_Penalty_Charging>
3.03317

> <r_epik_Ionization_Penalty_Neutral>
0.000131872

> <r_epik_State_Penalty>
1.99939

> <r_epik_Charging_Adjusted_Penalty>
5.03256

> <i_epik_Tot_Q>
2

> <i_epik_Tot_abs_Q>
2

> <r_epik_Metal_State_Penalty>
2.00021

> <b_epik_Metal_Only>
0

> <s_lp_Force_Field>
OPLS_2005

> <r_lp_Energy>
68.073

> <b_lp_Chiralities_Consistent>
1

> <s_lp_Variant>
AV-unprocessed.smi:155-16

> <Gold.Version>
5.8.1

> <Gold.Id.Protein>
6NUR|6NUR_protein|mol2

> <Gold.PLP.Fitness>
62.9161

> <Gold.PLP.PLP>
-50.5816

> <Gold.PLP.part.hbond>
-3.9541

> <Gold.PLP.part.metal>
0.0000

> <Gold.PLP.part.buried>
-8.2453

> <Gold.PLP.part.nonpolar>
-38.8093

> <Gold.PLP.part.repulsive>
0.5075

> <Gold.PLP.ligand.clash>
0.0000

> <Gold.PLP.ligand.torsion>
1.3408

> <Gold.PLP.Chemscore.Hbond>
4.6661

> <Gold.PLP.Chemscore.CHOScore>
0.0000

> <Gold.PLP.Chemscore.Metal>
0.0000

> <Gold.Chemscore.Hbonds>
donor molecule, donor type, donor heavy atom, donor atom, acceptor molecule, acceptor atom, score
      L1  H     2    63       P1 10747  0.65
      L1  H     6    64       P1  7948  1.60
      P1  H  7989  7998       L1    14  0.47
      P1  H 10752 10765       L1    12  1.00

> <Gold.PLP.Chemscore.Internal.Correction>
1.0178

> <Gold.Rescore>
     Score         DG    S(hbond)    S(metal)    S(lipo)     H(rot)  DE(clash)    DE(int)     intcor
     14.90     -18.23       1.91        0.00     114.59       2.75       0.59       2.73       ----

> <Gold.Chemscore.Fitness>
14.9041

> <Gold.Chemscore.DG>
-18.2253

> <Gold.Chemscore.ZeroCoef>
-5.4800

> <Gold.Chemscore.Hbond>
1.9093

> <Gold.Chemscore.Metal>
0.0000

> <Gold.Chemscore.Lipo>
114.5852

> <Gold.Chemscore.Internal_Hbond>
0.0000

> <Gold.Chemscore.DEClash>
0.5895

> <Gold.Chemscore.DEInternal>
2.7317

> <Gold.Chemscore.Rot>
2.7493

> <Gold.Chemscore.Internal.Correction>
   9.000000E+99

> <Gold.Chemscore.Hbonds>
donor molecule, donor type, donor heavy atom, donor atom, acceptor molecule, acceptor atom, score
      L1  H     2    63       P1 10747  0.65
      L1  H     6    64       P1  7948  0.11
      P1  H  7989  7998       L1    14  0.17
      P1  H 10752 10765       L1    12  0.25

> <Gold.Chemscore.Hbond.Weighted>
-6.3771

> <Gold.Chemscore.Metal.Weighted>
-0.0000

> <Gold.Chemscore.Lipo.Weighted>
-13.4065

> <Gold.Chemscore.Internal_Hbond.Weighted>
0.0000

> <Gold.Chemscore.DEClash.Weighted>
0.5895

> <Gold.Chemscore.DEInternal.Weighted>
2.7317

> <Gold.Chemscore.Rot.Weighted>
7.0383

> <Gold.Chemscore.Internal.Correction.Weighted>
   9.000000E+99

> <Gold.Protein.RotatedTorsions>
[ 6907 6896 6895 6894 ] final -124.12 input  -60.11 | X-H torsion
[ 7974 7965 7964 7962 ] final  168.72 input  175.53 | X-H torsion
[ 8008 7997 7996 7995 ] final  167.91 input   59.86 | X-H torsion
[ 10167 10162 10161 10158 ] final  -71.08 input  -65.29 | X-H torsion
[ 10718 10713 10712 10709 ] final   92.22 input   66.30 | X-H torsion
[ 10763 10752 10751 10750 ] final  166.60 input  -60.55 | X-H torsion
[ 11005 11000 10999 10996 ] final  -14.01 input  -57.11 | X-H torsion

> <Gold.Protein.ActiveResidues>
 VAL166  LYS551  ARG553  GLY616  TRP617  ASP618  TYR619  PRO620  LYS621  CYS622 
 ASP623  PHE694  ASN695  SER759  ASP760  ASP761  ALA762  ILE779  LEU786  VAL792 
 PHE793  MET794  SER795  GLU796  ALA797  LYS798  CYS799  TRP800  GLU811  SER814 

> <Gold.Protein.RotatedAtoms>
  150.8737  133.7469  159.2953 H   0  0  0  0  0  0  0  0  0  0  0  0  # atno 6907 bound_to 6896
  151.5073  135.1062  159.9854 H   0  0  0  0  0  0  0  0  0  0  0  0  # atno 6908 bound_to 6896
  152.4713  133.7990  159.6998 H   0  0  0  0  0  0  0  0  0  0  0  0  # atno 6909 bound_to 6896
  144.7379  139.8949  143.6405 H   0  0  0  0  0  0  0  0  0  0  0  0  # atno 7974 bound_to 7965
  156.1592  140.1604  156.8640 H   0  0  0  0  0  0  0  0  0  0  0  0  # atno 8008 bound_to 7997
  154.5145  140.0793  156.8089 H   0  0  0  0  0  0  0  0  0  0  0  0  # atno 8009 bound_to 7997
  155.3741  140.3402  155.4246 H   0  0  0  0  0  0  0  0  0  0  0  0  # atno 8010 bound_to 7997
  140.5302  143.2322  151.7276 H   0  0  0  0  0  0  0  0  0  0  0  0  # atno 10167 bound_to 10162
  157.6959  131.0435  150.3848 H   0  0  0  0  0  0  0  0  0  0  0  0  # atno 10718 bound_to 10713
  154.3414  135.2754  155.2420 H   0  0  0  0  0  0  0  0  0  0  0  0  # atno 10763 bound_to 10752
  154.4689  135.5888  153.6311 H   0  0  0  0  0  0  0  0  0  0  0  0  # atno 10764 bound_to 10752
  152.9857  135.6083  154.3615 H   0  0  0  0  0  0  0  0  0  0  0  0  # atno 10765 bound_to 10752
  140.7820  133.8355  155.9300 H   0  0  0  0  0  0  0  0  0  0  0  0  # atno 11005 bound_to 11000
  146.1114  139.4120  143.0285 LP  0  0  0  0  0  0  0  0  0  0  0  0  # atno 17320 bound_to 7965
  145.7437  140.9998  143.1287 LP  0  0  0  0  0  0  0  0  0  0  0  0  # atno 17321 bound_to 7965
  139.4951  144.4126  152.0064 LP  0  0  0  0  0  0  0  0  0  0  0  0  # atno 17342 bound_to 10162
  140.3228  144.3408  150.6005 LP  0  0  0  0  0  0  0  0  0  0  0  0  # atno 17343 bound_to 10162
  156.4258  130.3962  149.6794 LP  0  0  0  0  0  0  0  0  0  0  0  0  # atno 17370 bound_to 10713
  156.4029  130.7683  151.2692 LP  0  0  0  0  0  0  0  0  0  0  0  0  # atno 17371 bound_to 10713
  140.9473  134.1823  157.4754 LP  0  0  0  0  0  0  0  0  0  0  0  0  # atno 17394 bound_to 11000
  139.8741  134.9895  156.5462 LP  0  0  0  0  0  0  0  0  0  0  0  0  # atno 17395 bound_to 11000

$$$$
