AV-unprocessed.smi:2377|AV-procd|sdf|9446|dock6
  -GOLD-   2272013 73D 1   1.00000     0.00000
 Structure written by MMmdl.
 24 24  0  0  0  0  0  0  0  0  2 V2000
  147.1795  139.0102  153.2078 C   0  0  0  0  0  0  0  0  0  0  0  0
  148.5766  138.5424  153.1486 N   0  3  0  0  0  0  0  0  0  0  0  0
  149.3385  138.7717  154.3927 C   0  0  0  0  0  0  0  0  0  0  0  0
  150.2418  140.0127  154.2819 C   0  0  1  0  0  0  0  0  0  0  0  0
  149.4811  141.0850  153.7594 O   0  0  0  0  0  0  0  0  0  0  0  0
  150.8612  140.3615  155.6257 C   0  0  0  0  0  0  0  0  0  0  0  0
  150.4112  141.4671  156.3805 C   0  0  0  0  0  0  0  0  0  0  0  0
  151.0174  141.7357  157.6227 C   0  0  0  0  0  0  0  0  0  0  0  0
  152.0498  140.8842  158.0634 C   0  0  0  0  0  0  0  0  0  0  0  0
  152.4863  139.8215  157.3540 N   0  0  0  0  0  0  0  0  0  0  0  0
  151.9010  139.5717  156.1635 C   0  0  0  0  0  0  0  0  0  0  0  0
  146.6796  138.8123  152.2595 H   0  0  0  0  0  0  0  0  0  0  0  0
  147.1381  140.0832  153.3980 H   0  0  0  0  0  0  0  0  0  0  0  0
  146.6313  138.4950  153.9973 H   0  0  0  0  0  0  0  0  0  0  0  0
  148.5789  137.5527  152.9470 H   0  0  0  0  0  0  0  0  0  0  0  0
  148.6477  138.8767  155.2309 H   0  0  0  0  0  0  0  0  0  0  0  0
  149.9487  137.8890  154.5904 H   0  0  0  0  0  0  0  0  0  0  0  0
  151.0468  139.8099  153.5739 H   0  0  0  0  0  0  0  0  0  0  0  0
  148.5836  140.8013  153.6676 H   0  0  0  0  0  0  0  0  0  0  0  0
  149.6142  142.0994  156.0175 H   0  0  0  0  0  0  0  0  0  0  0  0
  150.6988  142.5744  158.2241 H   0  0  0  0  0  0  0  0  0  0  0  0
  152.5364  141.0602  159.0114 H   0  0  0  0  0  0  0  0  0  0  0  0
  152.2740  138.7125  155.6257 H   0  0  0  0  0  0  0  0  0  0  0  0
  149.0481  139.0258  152.3969 H   0  0  0  0  0  0  0  0  0  0  0  0
  1  2  1  0  0  0  0
  1 12  1  0  0  0  0
  1 13  1  0  0  0  0
  1 14  1  0  0  0  0
  2  3  1  0  0  0  0
  2 15  1  0  0  0  0
  2 24  1  0  0  0  0
  3  4  1  0  0  0  0
  3 16  1  0  0  0  0
  3 17  1  0  0  0  0
  4  5  1  0  0  0  0
  4  6  1  0  0  0  0
  4 18  1  0  0  0  0
  5 19  1  0  0  0  0
  6 11  1  0  0  0  0
  6  7  2  0  0  0  0
  7  8  1  0  0  0  0
  7 20  1  0  0  0  0
  8  9  2  0  0  0  0
  8 21  1  0  0  0  0
  9 10  1  0  0  0  0
  9 22  1  0  0  0  0
 10 11  2  0  0  0  0
 11 23  1  0  0  0  0
M  CHG  1   2   1
M  END
> <s_m_source_file>
AV-unprocessed.smi

> <i_m_source_file_index>
2377

> <i_lp_mmshare_version>
43012

> <i_f3d_flags>
0

> <s_epik_input>
W0NIM11bTkhdW0NIMl1bQ0BIXShbT0hdKWMxW2NIXVtjSF1bY0hdbltjSF0x

> <s_epik_cmdline>
J2VwaWtfcHl0aG9uJywgJy1waCcsICc3LjAnLCAnLXRuJywgJzgnLCAnLW1hJywgJzIwMCcsICctbWV0YWxfYmluZGluZycsICctaW1hZScsICc8aW5maWxlLm1hZT4nLCAnLW9tYWUnLCAnPG91dGZpbGUubWFlPic=

> <r_epik_Ionization_Penalty>
0.00990913

> <r_epik_Ionization_Penalty_Charging>
0.00939893

> <r_epik_Ionization_Penalty_Neutral>
0.000510194

> <r_epik_State_Penalty>
0.00713549

> <r_epik_Charging_Adjusted_Penalty>
0.0165344

> <i_epik_Tot_Q>
1

> <i_epik_Tot_abs_Q>
1

> <r_epik_Metal_State_Penalty>
0.00716299

> <b_epik_Metal_Only>
0

> <s_lp_Force_Field>
OPLS_2005

> <r_lp_Energy>
6.48909

> <b_lp_Chiralities_Consistent>
1

> <s_lp_Variant>
AV-unprocessed.smi:2377-2

> <Gold.Version>
5.8.1

> <Gold.Id.Protein>
6NUR|6NUR_protein|mol2

> <Gold.PLP.Fitness>
37.0503

> <Gold.PLP.PLP>
-23.6552

> <Gold.PLP.part.hbond>
-6.0000

> <Gold.PLP.part.metal>
0.0000

> <Gold.PLP.part.buried>
1.9067

> <Gold.PLP.part.nonpolar>
-18.7367

> <Gold.PLP.part.repulsive>
0.0687

> <Gold.PLP.ligand.clash>
0.0000

> <Gold.PLP.ligand.torsion>
0.6982

> <Gold.PLP.Chemscore.Hbond>
4.9280

> <Gold.PLP.Chemscore.CHOScore>
0.0000

> <Gold.PLP.Chemscore.Metal>
0.0000

> <Gold.Chemscore.Hbonds>
donor molecule, donor type, donor heavy atom, donor atom, acceptor molecule, acceptor atom, score
      L1  H     2    15       P1  7948  1.95
      L1  H     2    24       P1  7957  1.00
      P1  H  7997  8009       L1    10  0.98
      P1  H  8011  8017       L1     5  0.94

> <Gold.PLP.Chemscore.Internal.Correction>
0.0075

> <Gold.Rescore>
     Score         DG    S(hbond)    S(metal)    S(lipo)     H(rot)  DE(clash)    DE(int)     intcor
     15.77     -18.25       3.45        0.00      55.32       2.03       1.75       0.74       ----

> <Gold.Chemscore.Fitness>
15.7667

> <Gold.Chemscore.DG>
-18.2505

> <Gold.Chemscore.ZeroCoef>
-5.4800

> <Gold.Chemscore.Hbond>
3.4451

> <Gold.Chemscore.Metal>
0.0000

> <Gold.Chemscore.Lipo>
55.3155

> <Gold.Chemscore.Internal_Hbond>
0.0000

> <Gold.Chemscore.DEClash>
1.7485

> <Gold.Chemscore.DEInternal>
0.7353

> <Gold.Chemscore.Rot>
2.0344

> <Gold.Chemscore.Internal.Correction>
   9.000000E+99

> <Gold.Chemscore.Hbonds>
donor molecule, donor type, donor heavy atom, donor atom, acceptor molecule, acceptor atom, score
      L1  H     2    15       P1  7948  0.92
      L1  H     2    24       P1  7957  0.98
      P1  H  7997  8009       L1    10  0.25
      P1  H  8011  8017       L1     5  0.54

> <Gold.Chemscore.Hbond.Weighted>
-11.5065

> <Gold.Chemscore.Metal.Weighted>
-0.0000

> <Gold.Chemscore.Lipo.Weighted>
-6.4719

> <Gold.Chemscore.Internal_Hbond.Weighted>
0.0000

> <Gold.Chemscore.DEClash.Weighted>
1.7485

> <Gold.Chemscore.DEInternal.Weighted>
0.7353

> <Gold.Chemscore.Rot.Weighted>
5.2080

> <Gold.Chemscore.Internal.Correction.Weighted>
   9.000000E+99

> <Gold.Protein.RotatedTorsions>
[ 6907 6896 6895 6894 ] final  -51.39 input  -60.11 | X-H torsion
[ 7974 7965 7964 7962 ] final -148.58 input  175.53 | X-H torsion
[ 8008 7997 7996 7995 ] final  169.31 input   59.86 | X-H torsion
[ 10167 10162 10161 10158 ] final -111.97 input  -65.29 | X-H torsion
[ 10718 10713 10712 10709 ] final   25.80 input   66.30 | X-H torsion
[ 10763 10752 10751 10750 ] final   51.02 input  -60.55 | X-H torsion
[ 11005 11000 10999 10996 ] final  -53.17 input  -57.11 | X-H torsion

> <Gold.Protein.ActiveResidues>
 VAL166  LYS551  ARG553  GLY616  TRP617  ASP618  TYR619  PRO620  LYS621  CYS622 
 ASP623  PHE694  ASN695  SER759  ASP760  ASP761  ALA762  ILE779  LEU786  VAL792 
 PHE793  MET794  SER795  GLU796  ALA797  LYS798  CYS799  TRP800  GLU811  SER814 

> <Gold.Protein.RotatedAtoms>
  150.8616  134.7969  159.7086 H   0  0  0  0  0  0  0  0  0  0  0  0  # atno 6907 bound_to 6896
  152.4651  134.5091  159.9758 H   0  0  0  0  0  0  0  0  0  0  0  0  # atno 6908 bound_to 6896
  151.5194  133.3431  159.2934 H   0  0  0  0  0  0  0  0  0  0  0  0  # atno 6909 bound_to 6896
  144.8020  140.5178  143.5700 H   0  0  0  0  0  0  0  0  0  0  0  0  # atno 7974 bound_to 7965
  156.1469  140.1567  156.8832 H   0  0  0  0  0  0  0  0  0  0  0  0  # atno 8008 bound_to 7997
  154.5036  140.0819  156.7886 H   0  0  0  0  0  0  0  0  0  0  0  0  # atno 8009 bound_to 7997
  155.3971  140.3412  155.4257 H   0  0  0  0  0  0  0  0  0  0  0  0  # atno 8010 bound_to 7997
  140.1278  143.4387  152.1648 H   0  0  0  0  0  0  0  0  0  0  0  0  # atno 10167 bound_to 10162
  157.1983  130.6878  149.6178 H   0  0  0  0  0  0  0  0  0  0  0  0  # atno 10718 bound_to 10713
  152.9785  135.5859  154.4348 H   0  0  0  0  0  0  0  0  0  0  0  0  # atno 10763 bound_to 10752
  154.3956  135.2768  155.2130 H   0  0  0  0  0  0  0  0  0  0  0  0  # atno 10764 bound_to 10752
  154.3983  135.6109  153.5936 H   0  0  0  0  0  0  0  0  0  0  0  0  # atno 10765 bound_to 10752
  141.0962  133.6624  156.4132 H   0  0  0  0  0  0  0  0  0  0  0  0  # atno 11005 bound_to 11000
  145.5529  139.1477  143.3384 LP  0  0  0  0  0  0  0  0  0  0  0  0  # atno 17320 bound_to 7965
  146.2304  140.5667  142.8978 LP  0  0  0  0  0  0  0  0  0  0  0  0  # atno 17321 bound_to 7965
  139.5535  144.7355  151.4363 LP  0  0  0  0  0  0  0  0  0  0  0  0  # atno 17342 bound_to 10162
  140.6835  143.8028  150.7153 LP  0  0  0  0  0  0  0  0  0  0  0  0  # atno 17343 bound_to 10162
  155.9703  130.4591  150.6025 LP  0  0  0  0  0  0  0  0  0  0  0  0  # atno 17370 bound_to 10713
  157.3792  131.0778  151.1491 LP  0  0  0  0  0  0  0  0  0  0  0  0  # atno 17371 bound_to 10713
  140.5134  134.6373  157.5292 LP  0  0  0  0  0  0  0  0  0  0  0  0  # atno 17394 bound_to 11000
  139.9799  134.7154  155.9878 LP  0  0  0  0  0  0  0  0  0  0  0  0  # atno 17395 bound_to 11000

$$$$
