AV-unprocessed.smi:1056|AV-procd|sdf|4643|dock9
  -GOLD-   22720 3153D 1   1.00000     0.00000
 Structure written by MMmdl.
 44 46  0  0  0  0  0  0  0  0  3 V2000
  152.4565  143.0965  160.8001 C   0  0  0  0  0  0  0  0  0  0  0  0
  152.1053  142.3404  159.5309 C   0  0  0  0  0  0  0  0  0  0  0  0
  152.8042  141.1511  159.2242 C   0  0  0  0  0  0  0  0  0  0  0  0
  152.5082  140.4182  158.0543 C   0  0  0  0  0  0  0  0  0  0  0  0
  153.0587  139.2470  157.5628 N   0  0  0  0  0  0  0  0  0  0  0  0
  152.3632  139.0720  156.4431 C   0  0  0  0  0  0  0  0  0  0  0  0
  151.4301  139.9972  156.1469 N   0  0  0  0  0  0  0  0  0  0  0  0
  150.5562  140.0241  154.9880 C   0  0  0  0  0  0  0  0  0  0  0  0
  149.6197  138.8026  154.9329 C   0  0  1  0  0  0  0  0  0  0  0  0
  148.7683  138.9177  153.8091 O   0  0  0  0  0  0  0  0  0  0  0  0
  150.4062  137.4821  154.8244 C   0  0  0  0  0  0  0  0  0  0  0  0
  149.5145  136.3104  154.6389 N   0  3  2  0  0  0  0  0  0  0  0  0
  148.2645  136.3800  155.4403 C   0  0  0  0  0  0  0  0  0  0  0  0
  147.2660  135.3097  154.9612 C   0  0  0  0  0  0  0  0  0  0  0  0
  147.9356  134.0091  154.8382 N   0  5  0  0  0  0  0  0  0  0  0  0
  149.2783  133.7985  154.6662 C   0  0  0  0  0  0  0  0  0  0  0  0
  149.8048  132.7138  154.4290 O   0  0  0  0  0  0  0  0  0  0  0  0
  150.2258  135.0171  154.8356 C   0  0  0  0  0  0  0  0  0  0  0  0
  151.4859  140.9120  157.1925 C   0  0  0  0  0  0  0  0  0  0  0  0
  150.7827  142.0935  157.4866 C   0  0  0  0  0  0  0  0  0  0  0  0
  151.0916  142.8137  158.6596 C   0  0  0  0  0  0  0  0  0  0  0  0
  150.3285  144.0896  158.9684 C   0  0  0  0  0  0  0  0  0  0  0  0
  153.2472  142.5937  161.3577 H   0  0  0  0  0  0  0  0  0  0  0  0
  151.5861  143.1747  161.4520 H   0  0  0  0  0  0  0  0  0  0  0  0
  152.8032  144.1023  160.5619 H   0  0  0  0  0  0  0  0  0  0  0  0
  153.5763  140.7903  159.8879 H   0  0  0  0  0  0  0  0  0  0  0  0
  152.5464  138.2251  155.7978 H   0  0  0  0  0  0  0  0  0  0  0  0
  149.9788  140.9499  155.0037 H   0  0  0  0  0  0  0  0  0  0  0  0
  151.1812  140.0604  154.0949 H   0  0  0  0  0  0  0  0  0  0  0  0
  148.9979  138.8012  155.8274 H   0  0  0  0  0  0  0  0  0  0  0  0
  149.2928  139.1468  153.0567 H   0  0  0  0  0  0  0  0  0  0  0  0
  151.0999  137.5579  153.9853 H   0  0  0  0  0  0  0  0  0  0  0  0
  151.0205  137.3239  155.7122 H   0  0  0  0  0  0  0  0  0  0  0  0
  148.5017  136.2345  156.4956 H   0  0  0  0  0  0  0  0  0  0  0  0
  147.7978  137.3608  155.3589 H   0  0  0  0  0  0  0  0  0  0  0  0
  146.4218  135.2707  155.6492 H   0  0  0  0  0  0  0  0  0  0  0  0
  146.8538  135.6237  154.0020 H   0  0  0  0  0  0  0  0  0  0  0  0
  151.0415  134.9363  154.1157 H   0  0  0  0  0  0  0  0  0  0  0  0
  150.6662  134.9826  155.8332 H   0  0  0  0  0  0  0  0  0  0  0  0
  150.0127  142.4427  156.8147 H   0  0  0  0  0  0  0  0  0  0  0  0
  149.5921  144.3101  158.1952 H   0  0  0  0  0  0  0  0  0  0  0  0
  151.0112  144.9371  159.0317 H   0  0  0  0  0  0  0  0  0  0  0  0
  149.8002  143.9984  159.9176 H   0  0  0  0  0  0  0  0  0  0  0  0
  149.2294  136.3181  153.6699 H   0  0  0  0  0  0  0  0  0  0  0  0
  1  2  1  0  0  0  0
  1 23  1  0  0  0  0
  1 24  1  0  0  0  0
  1 25  1  0  0  0  0
  2 21  1  0  0  0  0
  2  3  2  0  0  0  0
  3  4  1  0  0  0  0
  3 26  1  0  0  0  0
  4 19  2  0  0  0  0
  4  5  1  0  0  0  0
  5  6  2  0  0  0  0
  6  7  1  0  0  0  0
  6 27  1  0  0  0  0
  7  8  1  0  0  0  0
  7 19  1  0  0  0  0
  8  9  1  0  0  0  0
  8 28  1  0  0  0  0
  8 29  1  0  0  0  0
  9 10  1  0  0  0  0
  9 11  1  0  0  0  0
  9 30  1  0  0  0  0
 10 31  1  0  0  0  0
 11 12  1  0  0  0  0
 11 32  1  0  0  0  0
 11 33  1  0  0  0  0
 12 18  1  0  0  0  0
 12 13  1  0  0  0  0
 12 44  1  0  0  0  0
 13 14  1  0  0  0  0
 13 34  1  0  0  0  0
 13 35  1  0  0  0  0
 14 15  1  0  0  0  0
 14 36  1  0  0  0  0
 14 37  1  0  0  0  0
 15 16  1  0  0  0  0
 16 17  2  0  0  0  0
 16 18  1  0  0  0  0
 18 38  1  0  0  0  0
 18 39  1  0  0  0  0
 19 20  1  0  0  0  0
 20 21  2  0  0  0  0
 20 40  1  0  0  0  0
 21 22  1  0  0  0  0
 22 41  1  0  0  0  0
 22 42  1  0  0  0  0
 22 43  1  0  0  0  0
M  CHG  1  12   1
M  CHG  1  15  -1
M  END
> <s_m_source_file>
AV-unprocessed.smi

> <i_m_source_file_index>
1056

> <i_lp_mmshare_version>
43012

> <i_f3d_flags>
0

> <s_epik_input>
W0NIM11jKFtjSF0xKWMoW0NIM10pW2NIXWMoYzEyKW4oW2NIXW4yKVtDSDJdW0NASF0oW09IXSlbQ0gyXU4zW0NIMl1bQ0gyXVtOSF1DKD1PKVtDSDJdMw==

> <s_epik_cmdline>
J2VwaWtfcHl0aG9uJywgJy1waCcsICc3LjAnLCAnLXRuJywgJzgnLCAnLW1hJywgJzIwMCcsICctbWV0YWxfYmluZGluZycsICctaW1hZScsICc8aW5maWxlLm1hZT4nLCAnLW9tYWUnLCAnPG91dGZpbGUubWFlPic=

> <r_epik_Ionization_Penalty>
5.13411

> <r_epik_Ionization_Penalty_Charging>
5.04792

> <r_epik_Ionization_Penalty_Neutral>
0.0861879

> <r_epik_State_Penalty>
5.18224

> <r_epik_Charging_Adjusted_Penalty>
10.2302

> <i_epik_Tot_Q>
0

> <i_epik_Tot_abs_Q>
2

> <r_epik_Metal_State_Penalty>
1.33873

> <b_epik_Metal_Only>
1

> <s_lp_Force_Field>
OPLS_2005

> <r_lp_Energy>
15.7703

> <b_lp_Chiralities_Consistent>
1

> <s_lp_Variant>
AV-unprocessed.smi:1056-14

> <Gold.Version>
5.8.1

> <Gold.Id.Protein>
6NUR|6NUR_protein|mol2

> <Gold.PLP.Fitness>
49.2254

> <Gold.PLP.PLP>
-37.6223

> <Gold.PLP.part.hbond>
-3.0000

> <Gold.PLP.part.metal>
0.0000

> <Gold.PLP.part.buried>
-0.5646

> <Gold.PLP.part.nonpolar>
-32.7960

> <Gold.PLP.part.repulsive>
0.2173

> <Gold.PLP.ligand.clash>
0.1233

> <Gold.PLP.ligand.torsion>
0.1667

> <Gold.PLP.Chemscore.Hbond>
4.0000

> <Gold.PLP.Chemscore.CHOScore>
0.0000

> <Gold.PLP.Chemscore.Metal>
0.0000

> <Gold.Chemscore.Hbonds>
donor molecule, donor type, donor heavy atom, donor atom, acceptor molecule, acceptor atom, score
      L1  H    10    31       P1  7957  0.80
      L1  H    12    44       P1  7948  2.00
      P1  H  7997  8010       L1     5  0.75

> <Gold.PLP.Chemscore.Internal.Correction>
0.0599

> <Gold.Rescore>
     Score         DG    S(hbond)    S(metal)    S(lipo)     H(rot)  DE(clash)    DE(int)     intcor
     15.67     -18.36       2.06        0.00     101.98       2.31       1.45       1.24       ----

> <Gold.Chemscore.Fitness>
15.6728

> <Gold.Chemscore.DG>
-18.3599

> <Gold.Chemscore.ZeroCoef>
-5.4800

> <Gold.Chemscore.Hbond>
2.0581

> <Gold.Chemscore.Metal>
0.0000

> <Gold.Chemscore.Lipo>
101.9771

> <Gold.Chemscore.Internal_Hbond>
0.0000

> <Gold.Chemscore.DEClash>
1.4472

> <Gold.Chemscore.DEInternal>
1.2398

> <Gold.Chemscore.Rot>
2.3147

> <Gold.Chemscore.Internal.Correction>
   9.000000E+99

> <Gold.Chemscore.Hbonds>
donor molecule, donor type, donor heavy atom, donor atom, acceptor molecule, acceptor atom, score
      L1  H    10    31       P1  7957  0.77
      L1  H    12    44       P1  7948  0.93
      P1  H  7997  8010       L1     5  0.06

> <Gold.Chemscore.Hbond.Weighted>
-6.8742

> <Gold.Chemscore.Metal.Weighted>
-0.0000

> <Gold.Chemscore.Lipo.Weighted>
-11.9313

> <Gold.Chemscore.Internal_Hbond.Weighted>
0.0000

> <Gold.Chemscore.DEClash.Weighted>
1.4472

> <Gold.Chemscore.DEInternal.Weighted>
1.2398

> <Gold.Chemscore.Rot.Weighted>
5.9256

> <Gold.Chemscore.Internal.Correction.Weighted>
   9.000000E+99

> <Gold.Protein.RotatedTorsions>
[ 6907 6896 6895 6894 ] final  -46.65 input  -60.11 | X-H torsion
[ 7974 7965 7964 7962 ] final  134.31 input  175.53 | X-H torsion
[ 8008 7997 7996 7995 ] final   28.63 input   59.86 | X-H torsion
[ 10167 10162 10161 10158 ] final  -29.08 input  -65.29 | X-H torsion
[ 10718 10713 10712 10709 ] final -161.84 input   66.30 | X-H torsion
[ 10763 10752 10751 10750 ] final   65.86 input  -60.55 | X-H torsion
[ 11005 11000 10999 10996 ] final -111.89 input  -57.11 | X-H torsion

> <Gold.Protein.ActiveResidues>
 VAL166  LYS551  ARG553  GLY616  TRP617  ASP618  TYR619  PRO620  LYS621  CYS622 
 ASP623  PHE694  ASN695  SER759  ASP760  ASP761  ALA762  ILE779  LEU786  VAL792 
 PHE793  MET794  SER795  GLU796  ALA797  LYS798  CYS799  TRP800  GLU811  SER814 

> <Gold.Protein.RotatedAtoms>
  150.9090  134.8506  159.7411 H   0  0  0  0  0  0  0  0  0  0  0  0  # atno 6907 bound_to 6896
  152.4934  134.4388  159.9546 H   0  0  0  0  0  0  0  0  0  0  0  0  # atno 6908 bound_to 6896
  151.4432  133.3598  159.2820 H   0  0  0  0  0  0  0  0  0  0  0  0  # atno 6909 bound_to 6896
  144.9777  139.4538  143.5402 H   0  0  0  0  0  0  0  0  0  0  0  0  # atno 7974 bound_to 7965
  155.0617  140.3191  155.4658 H   0  0  0  0  0  0  0  0  0  0  0  0  # atno 8008 bound_to 7997
  156.2811  140.2127  156.5689 H   0  0  0  0  0  0  0  0  0  0  0  0  # atno 8009 bound_to 7997
  154.7126  140.0496  157.0552 H   0  0  0  0  0  0  0  0  0  0  0  0  # atno 8010 bound_to 7997
  140.7264  143.3958  151.1350 H   0  0  0  0  0  0  0  0  0  0  0  0  # atno 10167 bound_to 10162
  156.6020  130.8814  151.2916 H   0  0  0  0  0  0  0  0  0  0  0  0  # atno 10718 bound_to 10713
  153.0114  135.5341  154.6733 H   0  0  0  0  0  0  0  0  0  0  0  0  # atno 10763 bound_to 10752
  154.5912  135.2859  155.0636 H   0  0  0  0  0  0  0  0  0  0  0  0  # atno 10764 bound_to 10752
  154.1728  135.6529  153.5066 H   0  0  0  0  0  0  0  0  0  0  0  0  # atno 10765 bound_to 10752
  141.0707  133.9384  157.2489 H   0  0  0  0  0  0  0  0  0  0  0  0  # atno 11005 bound_to 11000
  146.3400  139.9030  142.8791 LP  0  0  0  0  0  0  0  0  0  0  0  0  # atno 17320 bound_to 7965
  145.2466  141.0029  143.3905 LP  0  0  0  0  0  0  0  0  0  0  0  0  # atno 17321 bound_to 7965
  139.7570  143.8693  152.3091 LP  0  0  0  0  0  0  0  0  0  0  0  0  # atno 17342 bound_to 10162
  139.8565  144.7138  150.9150 LP  0  0  0  0  0  0  0  0  0  0  0  0  # atno 17343 bound_to 10162
  157.7277  130.9647  150.1710 LP  0  0  0  0  0  0  0  0  0  0  0  0  # atno 17370 bound_to 10713
  156.2461  130.3696  149.8283 LP  0  0  0  0  0  0  0  0  0  0  0  0  # atno 17371 bound_to 10713
  139.9521  135.0173  156.9024 LP  0  0  0  0  0  0  0  0  0  0  0  0  # atno 17394 bound_to 11000
  140.5678  134.0472  155.7420 LP  0  0  0  0  0  0  0  0  0  0  0  0  # atno 17395 bound_to 11000

$$$$
