AV-unprocessed.smi:3122|AV-procd|sdf|11898|dock8
  -GOLD-   2272017283D 1   1.00000     0.00000
 Structure written by MMmdl.
 29 30  0  0  0  0  0  0  0  0  1 V2000
  154.2061  140.1612  160.8781 C   0  0  0  0  0  0  0  0  0  0  0  0
  153.5836  141.5076  160.4795 C   0  0  0  0  0  0  0  0  0  0  0  0
  153.0538  142.2853  161.6925 C   0  0  0  0  0  0  0  0  0  0  0  0
  152.5311  141.3511  159.4274 C   0  0  0  0  0  0  0  0  0  0  0  0
  151.2808  141.8222  159.4497 N   0  0  0  0  0  0  0  0  0  0  0  0
  150.7415  141.5177  158.2204 N   0  0  0  0  0  0  0  0  0  0  0  0
  151.7108  140.8990  157.5401 C   0  0  0  0  0  0  0  0  0  0  0  0
  151.6753  140.4181  156.1252 C   0  0  2  0  0  0  0  0  0  0  0  0
  150.3053  140.6548  155.4611 C   0  0  0  0  0  0  0  0  0  0  0  0
  150.2934  140.0939  154.1109 N   0  0  0  0  0  0  0  0  0  0  0  0
  150.6646  138.6794  154.1223 C   0  0  0  0  0  0  0  0  0  0  0  0
  152.0200  138.4858  154.8261 C   0  0  0  0  0  0  0  0  0  0  0  0
  151.9550  139.0207  156.1437 O   0  0  0  0  0  0  0  0  0  0  0  0
  152.8744  140.8009  158.2338 O   0  0  0  0  0  0  0  0  0  0  0  0
  154.6253  139.6515  160.0100 H   0  0  0  0  0  0  0  0  0  0  0  0
  153.4672  139.4982  161.3297 H   0  0  0  0  0  0  0  0  0  0  0  0
  155.0120  140.2995  161.5993 H   0  0  0  0  0  0  0  0  0  0  0  0
  154.3820  142.1059  160.0389 H   0  0  0  0  0  0  0  0  0  0  0  0
  152.6832  143.2672  161.3962 H   0  0  0  0  0  0  0  0  0  0  0  0
  153.8375  142.4386  162.4347 H   0  0  0  0  0  0  0  0  0  0  0  0
  152.2346  141.7527  162.1772 H   0  0  0  0  0  0  0  0  0  0  0  0
  152.4586  140.9388  155.5715 H   0  0  0  0  0  0  0  0  0  0  0  0
  149.5206  140.1911  156.0603 H   0  0  0  0  0  0  0  0  0  0  0  0
  150.0841  141.7218  155.4251 H   0  0  0  0  0  0  0  0  0  0  0  0
  149.3681  140.1994  153.7069 H   0  0  0  0  0  0  0  0  0  0  0  0
  149.8988  138.0989  154.6381 H   0  0  0  0  0  0  0  0  0  0  0  0
  150.7138  138.2969  153.1028 H   0  0  0  0  0  0  0  0  0  0  0  0
  152.2612  137.4247  154.8890 H   0  0  0  0  0  0  0  0  0  0  0  0
  152.8248  138.9624  154.2640 H   0  0  0  0  0  0  0  0  0  0  0  0
  1  2  1  0  0  0  0
  1 15  1  0  0  0  0
  1 16  1  0  0  0  0
  1 17  1  0  0  0  0
  2  3  1  0  0  0  0
  2  4  1  0  0  0  0
  2 18  1  0  0  0  0
  3 19  1  0  0  0  0
  3 20  1  0  0  0  0
  3 21  1  0  0  0  0
  4 14  1  0  0  0  0
  4  5  2  0  0  0  0
  5  6  1  0  0  0  0
  6  7  2  0  0  0  0
  7  8  1  0  0  0  0
  7 14  1  0  0  0  0
  8 13  1  0  0  0  0
  8  9  1  0  0  0  0
  8 22  1  0  0  0  0
  9 10  1  0  0  0  0
  9 23  1  0  0  0  0
  9 24  1  0  0  0  0
 10 11  1  0  0  0  0
 10 25  1  0  0  0  0
 11 12  1  0  0  0  0
 11 26  1  0  0  0  0
 11 27  1  0  0  0  0
 12 13  1  0  0  0  0
 12 28  1  0  0  0  0
 12 29  1  0  0  0  0
M  END
> <s_m_source_file>
AV-unprocessed.smi

> <i_m_source_file_index>
3122

> <i_lp_mmshare_version>
43012

> <i_f3d_flags>
0

> <s_epik_input>
W0NIM11bQ0hdKFtDSDNdKWMxbm5jKG8xKVtDQEBIXTJbQ0gyXVtOSF1bQ0gyXVtDSDJdTzI=

> <s_epik_cmdline>
J2VwaWtfcHl0aG9uJywgJy1waCcsICc3LjAnLCAnLXRuJywgJzgnLCAnLW1hJywgJzIwMCcsICctbWV0YWxfYmluZGluZycsICctaW1hZScsICc8aW5maWxlLm1hZT4nLCAnLW9tYWUnLCAnPG91dGZpbGUubWFlPic=

> <r_lp_tautomer_probability>
1

> <r_epik_Ionization_Penalty>
1.64488

> <r_epik_Ionization_Penalty_Charging>
0

> <r_epik_Ionization_Penalty_Neutral>
1.64488

> <r_epik_State_Penalty>
1.74649

> <r_epik_Charging_Adjusted_Penalty>
1.74649

> <i_epik_Tot_Q>
0

> <i_epik_Tot_abs_Q>
0

> <r_epik_Metal_State_Penalty>
1.74649

> <b_epik_Metal_Only>
0

> <s_lp_Force_Field>
OPLS_2005

> <r_lp_Energy>
11.6401

> <b_lp_Chiralities_Consistent>
1

> <s_lp_Variant>
AV-unprocessed.smi:3122-3

> <Gold.Version>
5.8.1

> <Gold.Id.Protein>
6NUR|6NUR_protein|mol2

> <Gold.PLP.Fitness>
34.4367

> <Gold.PLP.PLP>
-30.2999

> <Gold.PLP.part.hbond>
-3.5802

> <Gold.PLP.part.metal>
0.0000

> <Gold.PLP.part.buried>
-2.6753

> <Gold.PLP.part.nonpolar>
-23.0984

> <Gold.PLP.part.repulsive>
0.0255

> <Gold.PLP.ligand.clash>
0.0000

> <Gold.PLP.ligand.torsion>
0.0670

> <Gold.PLP.Chemscore.Hbond>
1.3801

> <Gold.PLP.Chemscore.CHOScore>
0.0000

> <Gold.PLP.Chemscore.Metal>
0.0000

> <Gold.Chemscore.Hbonds>
donor molecule, donor type, donor heavy atom, donor atom, acceptor molecule, acceptor atom, score
      P1  H  7989  7998       L1    10  1.00
      P1  H  7997  8008       L1    14  0.37

> <Gold.PLP.Chemscore.Internal.Correction>
0.1306

> <Gold.Rescore>
     Score         DG    S(hbond)    S(metal)    S(lipo)     H(rot)  DE(clash)    DE(int)     intcor
     11.37     -11.46       0.77        0.00      56.21       1.24       0.00       0.09       ----

> <Gold.Chemscore.Fitness>
11.3694

> <Gold.Chemscore.DG>
-11.4642

> <Gold.Chemscore.ZeroCoef>
-5.4800

> <Gold.Chemscore.Hbond>
0.7747

> <Gold.Chemscore.Metal>
0.0000

> <Gold.Chemscore.Lipo>
56.2112

> <Gold.Chemscore.Internal_Hbond>
0.0000

> <Gold.Chemscore.DEClash>
0.0000

> <Gold.Chemscore.DEInternal>
0.0947

> <Gold.Chemscore.Rot>
1.2422

> <Gold.Chemscore.Internal.Correction>
   9.000000E+99

> <Gold.Chemscore.Hbonds>
donor molecule, donor type, donor heavy atom, donor atom, acceptor molecule, acceptor atom, score
      P1  H  7989  7998       L1    10  0.12
      P1  H  7997  8008       L1    14  0.29

> <Gold.Chemscore.Hbond.Weighted>
-2.5874

> <Gold.Chemscore.Metal.Weighted>
-0.0000

> <Gold.Chemscore.Lipo.Weighted>
-6.5767

> <Gold.Chemscore.Internal_Hbond.Weighted>
0.0000

> <Gold.Chemscore.DEClash.Weighted>
0.0000

> <Gold.Chemscore.DEInternal.Weighted>
0.0947

> <Gold.Chemscore.Rot.Weighted>
3.1799

> <Gold.Chemscore.Internal.Correction.Weighted>
   9.000000E+99

> <Gold.Protein.RotatedTorsions>
[ 6907 6896 6895 6894 ] final  136.80 input  -60.11 | X-H torsion
[ 7974 7965 7964 7962 ] final  -77.31 input  175.53 | X-H torsion
[ 8008 7997 7996 7995 ] final  -78.62 input   59.86 | X-H torsion
[ 10167 10162 10161 10158 ] final   95.05 input  -65.29 | X-H torsion
[ 10718 10713 10712 10709 ] final  175.07 input   66.30 | X-H torsion
[ 10763 10752 10751 10750 ] final  -72.32 input  -60.55 | X-H torsion
[ 11005 11000 10999 10996 ] final  -65.34 input  -57.11 | X-H torsion

> <Gold.Protein.ActiveResidues>
 VAL166  LYS551  ARG553  GLY616  TRP617  ASP618  TYR619  PRO620  LYS621  CYS622 
 ASP623  PHE694  ASN695  SER759  ASP760  ASP761  ALA762  ILE779  LEU786  VAL792 
 PHE793  MET794  SER795  GLU796  ALA797  LYS798  CYS799  TRP800  GLU811  SER814 

> <Gold.Protein.RotatedAtoms>
  152.2852  133.5508  159.5522 H   0  0  0  0  0  0  0  0  0  0  0  0  # atno 6907 bound_to 6896
  150.7212  134.0507  159.3806 H   0  0  0  0  0  0  0  0  0  0  0  0  # atno 6908 bound_to 6896
  151.8416  135.0588  160.0499 H   0  0  0  0  0  0  0  0  0  0  0  0  # atno 6909 bound_to 6896
  145.6014  140.9408  143.1239 H   0  0  0  0  0  0  0  0  0  0  0  0  # atno 7974 bound_to 7965
  154.5706  140.0691  156.8959 H   0  0  0  0  0  0  0  0  0  0  0  0  # atno 8008 bound_to 7997
  155.2641  140.3360  155.4252 H   0  0  0  0  0  0  0  0  0  0  0  0  # atno 8009 bound_to 7997
  156.2115  140.1761  156.7669 H   0  0  0  0  0  0  0  0  0  0  0  0  # atno 8010 bound_to 7997
  139.8025  144.6807  150.9746 H   0  0  0  0  0  0  0  0  0  0  0  0  # atno 10167 bound_to 10162
  156.9402  130.9999  151.2970 H   0  0  0  0  0  0  0  0  0  0  0  0  # atno 10718 bound_to 10713
  154.4440  135.5934  153.6148 H   0  0  0  0  0  0  0  0  0  0  0  0  # atno 10763 bound_to 10752
  152.9808  135.6005  154.3687 H   0  0  0  0  0  0  0  0  0  0  0  0  # atno 10764 bound_to 10752
  154.3540  135.2841  155.2335 H   0  0  0  0  0  0  0  0  0  0  0  0  # atno 10765 bound_to 10752
  141.1451  133.6680  156.5971 H   0  0  0  0  0  0  0  0  0  0  0  0  # atno 11005 bound_to 11000
  144.7308  139.7731  143.7348 LP  0  0  0  0  0  0  0  0  0  0  0  0  # atno 17320 bound_to 7965
  146.1573  139.4676  143.0010 LP  0  0  0  0  0  0  0  0  0  0  0  0  # atno 17321 bound_to 7965
  140.7820  143.4267  151.0758 LP  0  0  0  0  0  0  0  0  0  0  0  0  # atno 17342 bound_to 10162
  139.7938  143.8181  152.3155 LP  0  0  0  0  0  0  0  0  0  0  0  0  # atno 17343 bound_to 10162
  157.5790  130.8363  149.8495 LP  0  0  0  0  0  0  0  0  0  0  0  0  # atno 17370 bound_to 10713
  156.0408  130.3739  150.1442 LP  0  0  0  0  0  0  0  0  0  0  0  0  # atno 17371 bound_to 10713
  140.3717  134.7600  157.4603 LP  0  0  0  0  0  0  0  0  0  0  0  0  # atno 17394 bound_to 11000
  140.0705  134.5869  155.8647 LP  0  0  0  0  0  0  0  0  0  0  0  0  # atno 17395 bound_to 11000

$$$$
