AV-unprocessed.smi:1427|AV-procd|sdf|5810|dock1
  -GOLD-   22720 5463D 1   1.00000     0.00000
 Structure written by MMmdl.
 33 34  0  0  0  0  0  0  0  0  1 V2000
  150.6375  141.8469  155.8786 C   0  0  0  0  0  0  0  0  0  0  0  0
  151.4756  141.1966  156.9876 C   0  0  1  0  0  0  0  0  0  0  0  0
  150.9426  141.5670  158.3878 C   0  0  0  0  0  0  0  0  0  0  0  0
  151.3242  142.9088  158.7941 N   0  0  0  0  0  0  0  0  0  0  0  0
  151.1874  144.0875  158.0920 C   0  0  0  0  0  0  0  0  0  0  0  0
  151.7048  145.0848  158.8680 C   0  0  0  0  0  0  0  0  0  0  0  0
  152.1373  144.4090  160.0431 C   0  0  0  0  0  0  0  0  0  0  0  0
  151.9045  143.1073  159.9980 N   0  0  0  0  0  0  0  0  0  0  0  0
  151.4741  139.7462  156.7998 N   0  0  0  0  0  0  0  0  0  0  0  0
  152.1025  139.0836  155.8156 C   0  0  0  0  0  0  0  0  0  0  0  0
  152.7447  139.6427  154.9249 O   0  0  0  0  0  0  0  0  0  0  0  0
  152.0148  137.5526  155.8766 C   0  0  2  0  0  0  0  0  0  0  0  0
  151.0054  137.0100  154.8406 C   0  0  0  0  0  0  0  0  0  0  0  0
  150.1987  135.9263  155.5674 C   0  0  0  0  0  0  0  0  0  0  0  0
  150.4985  136.2023  157.0297 C   0  0  0  0  0  0  0  0  0  0  0  0
  149.9018  135.6626  157.9583 O   0  0  0  0  0  0  0  0  0  0  0  0
  151.4776  137.0975  157.1489 N   0  0  0  0  0  0  0  0  0  0  0  0
  150.6476  142.9337  155.9667 H   0  0  0  0  0  0  0  0  0  0  0  0
  149.5979  141.5196  155.9207 H   0  0  0  0  0  0  0  0  0  0  0  0
  151.0275  141.5945  154.8920 H   0  0  0  0  0  0  0  0  0  0  0  0
  152.4913  141.5843  156.8904 H   0  0  0  0  0  0  0  0  0  0  0  0
  149.8533  141.5145  158.3979 H   0  0  0  0  0  0  0  0  0  0  0  0
  151.2939  140.8521  159.1340 H   0  0  0  0  0  0  0  0  0  0  0  0
  150.7449  144.1166  157.1072 H   0  0  0  0  0  0  0  0  0  0  0  0
  151.7676  146.1363  158.6314 H   0  0  0  0  0  0  0  0  0  0  0  0
  152.6102  144.8224  160.9216 H   0  0  0  0  0  0  0  0  0  0  0  0
  150.9818  139.2011  157.4928 H   0  0  0  0  0  0  0  0  0  0  0  0
  152.9992  137.1026  155.7358 H   0  0  0  0  0  0  0  0  0  0  0  0
  150.3236  137.7878  154.4903 H   0  0  0  0  0  0  0  0  0  0  0  0
  151.5131  136.6111  153.9617 H   0  0  0  0  0  0  0  0  0  0  0  0
  149.1310  135.9937  155.3560 H   0  0  0  0  0  0  0  0  0  0  0  0
  150.5476  134.9263  155.3084 H   0  0  0  0  0  0  0  0  0  0  0  0
  151.8253  137.4379  158.0336 H   0  0  0  0  0  0  0  0  0  0  0  0
  1  2  1  0  0  0  0
  1 18  1  0  0  0  0
  1 19  1  0  0  0  0
  1 20  1  0  0  0  0
  2  3  1  0  0  0  0
  2  9  1  0  0  0  0
  2 21  1  0  0  0  0
  3  4  1  0  0  0  0
  3 22  1  0  0  0  0
  3 23  1  0  0  0  0
  4  8  1  0  0  0  0
  4  5  1  0  0  0  0
  5  6  2  0  0  0  0
  5 24  1  0  0  0  0
  6  7  1  0  0  0  0
  6 25  1  0  0  0  0
  7  8  2  0  0  0  0
  7 26  1  0  0  0  0
  9 10  1  0  0  0  0
  9 27  1  0  0  0  0
 10 11  2  0  0  0  0
 10 12  1  0  0  0  0
 12 17  1  0  0  0  0
 12 13  1  0  0  0  0
 12 28  1  0  0  0  0
 13 14  1  0  0  0  0
 13 29  1  0  0  0  0
 13 30  1  0  0  0  0
 14 15  1  0  0  0  0
 14 31  1  0  0  0  0
 14 32  1  0  0  0  0
 15 16  2  0  0  0  0
 15 17  1  0  0  0  0
 17 33  1  0  0  0  0
M  END
> <s_m_source_file>
AV-unprocessed.smi

> <i_m_source_file_index>
1427

> <i_lp_mmshare_version>
43012

> <i_f3d_flags>
0

> <s_epik_input>
bjFbY0hdW2NIXVtjSF1uMVtDSDJdW0NAQEhdKFtDSDNdKVtOSF1DKD1PKVtDQEBIXTJbQ0gyXVtDSDJdQyg9TylbTkhdMg==

> <s_epik_cmdline>
J2VwaWtfcHl0aG9uJywgJy1waCcsICc3LjAnLCAnLXRuJywgJzgnLCAnLW1hJywgJzIwMCcsICctbWV0YWxfYmluZGluZycsICctaW1hZScsICc8aW5maWxlLm1hZT4nLCAnLW9tYWUnLCAnPG91dGZpbGUubWFlPic=

> <r_lp_tautomer_probability>
1

> <r_epik_Ionization_Penalty>
0.000310707

> <r_epik_Ionization_Penalty_Charging>
0

> <r_epik_Ionization_Penalty_Neutral>
0.000310707

> <r_epik_State_Penalty>
-0

> <r_epik_Charging_Adjusted_Penalty>
0

> <i_epik_Tot_Q>
0

> <i_epik_Tot_abs_Q>
0

> <r_epik_Metal_State_Penalty>
-0

> <b_epik_Metal_Only>
0

> <s_lp_Force_Field>
OPLS_2005

> <r_lp_Energy>
14.2046

> <b_lp_Chiralities_Consistent>
1

> <s_lp_Variant>
AV-unprocessed.smi:1427-2

> <Gold.Version>
5.8.1

> <Gold.Id.Protein>
6NUR|6NUR_protein|mol2

> <Gold.PLP.Fitness>
40.6050

> <Gold.PLP.PLP>
-32.1602

> <Gold.PLP.part.hbond>
-2.9577

> <Gold.PLP.part.metal>
0.0000

> <Gold.PLP.part.buried>
-6.3018

> <Gold.PLP.part.nonpolar>
-23.7497

> <Gold.PLP.part.repulsive>
0.2185

> <Gold.PLP.ligand.clash>
0.0000

> <Gold.PLP.ligand.torsion>
0.7320

> <Gold.PLP.Chemscore.Hbond>
2.2808

> <Gold.PLP.Chemscore.CHOScore>
1.0000

> <Gold.PLP.Chemscore.Metal>
0.0000

> <Gold.Chemscore.Hbonds>
donor molecule, donor type, donor heavy atom, donor atom, acceptor molecule, acceptor atom, score
      P1  H  6896  6907       L1    16  0.87
      P1  H  7989  7998       L1    11  0.37
      P1  H  7997  8008       L1    11  0.99
      L1  C     5    24       P1  8028  1.00

> <Gold.PLP.Chemscore.Internal.Correction>
0.0666

> <Gold.Rescore>
     Score         DG    S(hbond)    S(metal)    S(lipo)     H(rot)  DE(clash)    DE(int)     intcor
     14.43     -15.07       1.90        0.00      69.03       1.88       0.00       0.64       ----

> <Gold.Chemscore.Fitness>
14.4320

> <Gold.Chemscore.DG>
-15.0728

> <Gold.Chemscore.ZeroCoef>
-5.4800

> <Gold.Chemscore.Hbond>
1.8965

> <Gold.Chemscore.Metal>
0.0000

> <Gold.Chemscore.Lipo>
69.0290

> <Gold.Chemscore.Internal_Hbond>
0.0000

> <Gold.Chemscore.DEClash>
0.0000

> <Gold.Chemscore.DEInternal>
0.6408

> <Gold.Chemscore.Rot>
1.8821

> <Gold.Chemscore.Internal.Correction>
   9.000000E+99

> <Gold.Chemscore.Hbonds>
donor molecule, donor type, donor heavy atom, donor atom, acceptor molecule, acceptor atom, score
      P1  H  6896  6907       L1    16  0.81
      P1  H  7989  7998       L1    11  0.36
      P1  H  7997  8008       L1    11  0.32

> <Gold.Chemscore.Hbond.Weighted>
-6.3344

> <Gold.Chemscore.Metal.Weighted>
-0.0000

> <Gold.Chemscore.Lipo.Weighted>
-8.0764

> <Gold.Chemscore.Internal_Hbond.Weighted>
0.0000

> <Gold.Chemscore.DEClash.Weighted>
0.0000

> <Gold.Chemscore.DEInternal.Weighted>
0.6408

> <Gold.Chemscore.Rot.Weighted>
4.8181

> <Gold.Chemscore.Internal.Correction.Weighted>
   9.000000E+99

> <Gold.Protein.RotatedTorsions>
[ 6907 6896 6895 6894 ] final  -71.15 input  -60.11 | X-H torsion
[ 7974 7965 7964 7962 ] final  126.14 input  175.53 | X-H torsion
[ 8008 7997 7996 7995 ] final  -16.85 input   59.86 | X-H torsion
[ 10167 10162 10161 10158 ] final -153.30 input  -65.29 | X-H torsion
[ 10718 10713 10712 10709 ] final    1.57 input   66.30 | X-H torsion
[ 10763 10752 10751 10750 ] final   50.43 input  -60.55 | X-H torsion
[ 11005 11000 10999 10996 ] final  141.43 input  -57.11 | X-H torsion

> <Gold.Protein.ActiveResidues>
 VAL166  LYS551  ARG553  GLY616  TRP617  ASP618  TYR619  PRO620  LYS621  CYS622 
 ASP623  PHE694  ASN695  SER759  ASP760  ASP761  ALA762  ILE779  LEU786  VAL792 
 PHE793  MET794  SER795  GLU796  ALA797  LYS798  CYS799  TRP800  GLU811  SER814 

> <Gold.Protein.RotatedAtoms>
  150.7225  134.5350  159.5718 H   0  0  0  0  0  0  0  0  0  0  0  0  # atno 6907 bound_to 6896
  152.2874  134.7757  160.0394 H   0  0  0  0  0  0  0  0  0  0  0  0  # atno 6908 bound_to 6896
  151.8383  133.3384  159.3671 H   0  0  0  0  0  0  0  0  0  0  0  0  # atno 6909 bound_to 6896
  145.0651  139.3774  143.4986 H   0  0  0  0  0  0  0  0  0  0  0  0  # atno 7974 bound_to 7965
  154.5022  140.2158  155.9323 H   0  0  0  0  0  0  0  0  0  0  0  0  # atno 8008 bound_to 7997
  156.1448  140.3173  155.8520 H   0  0  0  0  0  0  0  0  0  0  0  0  # atno 8009 bound_to 7997
  155.4051  140.0487  157.3025 H   0  0  0  0  0  0  0  0  0  0  0  0  # atno 8010 bound_to 7997
  139.7109  143.9111  152.2467 H   0  0  0  0  0  0  0  0  0  0  0  0  # atno 10167 bound_to 10162
  156.8502  130.5551  149.5670 H   0  0  0  0  0  0  0  0  0  0  0  0  # atno 10718 bound_to 10713
  152.9785  135.5879  154.4251 H   0  0  0  0  0  0  0  0  0  0  0  0  # atno 10763 bound_to 10752
  154.3870  135.2767  155.2179 H   0  0  0  0  0  0  0  0  0  0  0  0  # atno 10764 bound_to 10752
  154.4068  135.6091  153.5983 H   0  0  0  0  0  0  0  0  0  0  0  0  # atno 10765 bound_to 10752
  140.0401  134.9309  157.0826 H   0  0  0  0  0  0  0  0  0  0  0  0  # atno 11005 bound_to 11000
  146.3526  140.0368  142.8646 LP  0  0  0  0  0  0  0  0  0  0  0  0  # atno 17320 bound_to 7965
  145.1361  140.9545  143.4516 LP  0  0  0  0  0  0  0  0  0  0  0  0  # atno 17321 bound_to 7965
  139.8980  144.6928  150.8697 LP  0  0  0  0  0  0  0  0  0  0  0  0  # atno 17342 bound_to 10162
  140.7733  143.3536  151.1966 LP  0  0  0  0  0  0  0  0  0  0  0  0  # atno 17343 bound_to 10162
  156.0832  130.5837  150.9601 LP  0  0  0  0  0  0  0  0  0  0  0  0  # atno 17370 bound_to 10713
  157.6308  131.0921  150.8446 LP  0  0  0  0  0  0  0  0  0  0  0  0  # atno 17371 bound_to 10713
  140.4083  134.2008  155.7163 LP  0  0  0  0  0  0  0  0  0  0  0  0  # atno 17394 bound_to 11000
  141.1878  133.8273  157.1018 LP  0  0  0  0  0  0  0  0  0  0  0  0  # atno 17395 bound_to 11000

$$$$
