AV-unprocessed.smi:2259|AV-procd|sdf|9131|dock1
  -GOLD-   2272012333D 1   1.00000     0.00000
 Structure written by MMmdl.
 39 40  0  0  0  0  0  0  0  0  1 V2000
  151.8799  144.2901  160.5346 C   0  0  0  0  0  0  0  0  0  0  0  0
  151.8055  143.2370  159.4433 C   0  0  0  0  0  0  0  0  0  0  0  0
  150.9656  143.5402  158.3682 N   0  0  0  0  0  0  0  0  0  0  0  0
  150.8462  142.7058  157.3881 C   0  0  0  0  0  0  0  0  0  0  0  0
  151.5450  141.4862  157.3656 N   0  0  0  0  0  0  0  0  0  0  0  0
  151.3248  140.6192  156.1932 C   0  0  0  0  0  0  0  0  0  0  0  0
  150.0931  141.0283  155.3511 C   0  0  1  0  0  0  0  0  0  0  0  0
  150.2284  140.4008  154.0922 O   0  0  0  0  0  0  0  0  0  0  0  0
  148.7478  140.5977  155.9636 C   0  0  0  0  0  0  0  0  0  0  0  0
  147.7238  140.7807  154.9952 O   0  0  0  0  0  0  0  0  0  0  0  0
  146.8119  141.7956  155.1915 C   0  0  0  0  0  0  0  0  0  0  0  0
  146.2466  142.3782  154.0387 C   0  0  0  0  0  0  0  0  0  0  0  0
  145.3062  143.4212  154.1433 C   0  0  0  0  0  0  0  0  0  0  0  0
  144.9198  143.8972  155.4116 C   0  0  0  0  0  0  0  0  0  0  0  0
  143.9499  144.9740  155.5230 C   0  0  0  0  0  0  0  0  0  0  0  0
  143.1779  145.8314  155.6115 N   0  0  0  0  0  0  0  0  0  0  0  0
  145.4784  143.3244  156.5714 C   0  0  0  0  0  0  0  0  0  0  0  0
  146.4179  142.2800  156.4647 C   0  0  0  0  0  0  0  0  0  0  0  0
  152.3678  141.1041  158.3850 C   0  0  0  0  0  0  0  0  0  0  0  0
  152.9555  140.0210  158.3704 O   0  0  0  0  0  0  0  0  0  0  0  0
  152.5014  142.0683  159.4891 C   0  0  0  0  0  0  0  0  0  0  0  0
  153.4308  141.6844  160.6339 C   0  0  0  0  0  0  0  0  0  0  0  0
  151.5480  143.8762  161.4872 H   0  0  0  0  0  0  0  0  0  0  0  0
  151.2453  145.1468  160.3041 H   0  0  0  0  0  0  0  0  0  0  0  0
  152.9021  144.6525  160.6472 H   0  0  0  0  0  0  0  0  0  0  0  0
  150.2063  142.8995  156.5256 H   0  0  0  0  0  0  0  0  0  0  0  0
  152.2190  140.6532  155.5673 H   0  0  0  0  0  0  0  0  0  0  0  0
  151.2339  139.5699  156.4818 H   0  0  0  0  0  0  0  0  0  0  0  0
  150.0965  142.1075  155.1954 H   0  0  0  0  0  0  0  0  0  0  0  0
  150.3535  139.4742  154.2283 H   0  0  0  0  0  0  0  0  0  0  0  0
  148.7934  139.5644  156.3127 H   0  0  0  0  0  0  0  0  0  0  0  0
  148.5125  141.2302  156.8195 H   0  0  0  0  0  0  0  0  0  0  0  0
  146.5364  142.0201  153.0615 H   0  0  0  0  0  0  0  0  0  0  0  0
  144.8855  143.8512  153.2456 H   0  0  0  0  0  0  0  0  0  0  0  0
  145.1904  143.6818  157.5498 H   0  0  0  0  0  0  0  0  0  0  0  0
  146.8226  141.8685  157.3767 H   0  0  0  0  0  0  0  0  0  0  0  0
  153.0889  140.7608  161.1016 H   0  0  0  0  0  0  0  0  0  0  0  0
  153.4905  142.4432  161.4126 H   0  0  0  0  0  0  0  0  0  0  0  0
  154.4416  141.5204  160.2584 H   0  0  0  0  0  0  0  0  0  0  0  0
  1  2  1  0  0  0  0
  1 23  1  0  0  0  0
  1 24  1  0  0  0  0
  1 25  1  0  0  0  0
  2 21  2  0  0  0  0
  2  3  1  0  0  0  0
  3  4  2  0  0  0  0
  4  5  1  0  0  0  0
  4 26  1  0  0  0  0
  5  6  1  0  0  0  0
  5 19  1  0  0  0  0
  6  7  1  0  0  0  0
  6 27  1  0  0  0  0
  6 28  1  0  0  0  0
  7  8  1  0  0  0  0
  7  9  1  0  0  0  0
  7 29  1  0  0  0  0
  8 30  1  0  0  0  0
  9 10  1  0  0  0  0
  9 31  1  0  0  0  0
  9 32  1  0  0  0  0
 10 11  1  0  0  0  0
 11 18  1  0  0  0  0
 11 12  2  0  0  0  0
 12 13  1  0  0  0  0
 12 33  1  0  0  0  0
 13 14  2  0  0  0  0
 13 34  1  0  0  0  0
 14 15  1  0  0  0  0
 14 17  1  0  0  0  0
 15 16  3  0  0  0  0
 17 18  2  0  0  0  0
 17 35  1  0  0  0  0
 18 36  1  0  0  0  0
 19 20  2  0  0  0  0
 19 21  1  0  0  0  0
 21 22  1  0  0  0  0
 22 37  1  0  0  0  0
 22 38  1  0  0  0  0
 22 39  1  0  0  0  0
M  END
> <s_m_source_file>
AV-unprocessed.smi

> <i_m_source_file_index>
2259

> <i_lp_mmshare_version>
43012

> <i_f3d_flags>
0

> <s_epik_input>
W0NIM11jMW5bY0hdbihjKD1PKWMxW0NIM10pW0NIMl1bQ0BIXShbT0hdKVtDSDJdT2MyW2NIXVtjSF1jKEMjTilbY0hdW2NIXTI=

> <s_epik_cmdline>
J2VwaWtfcHl0aG9uJywgJy1waCcsICc3LjAnLCAnLXRuJywgJzgnLCAnLW1hJywgJzIwMCcsICctbWV0YWxfYmluZGluZycsICctaW1hZScsICc8aW5maWxlLm1hZT4nLCAnLW9tYWUnLCAnPG91dGZpbGUubWFlPic=

> <r_lp_tautomer_probability>
1

> <r_epik_Ionization_Penalty>
3.47921e-05

> <r_epik_Ionization_Penalty_Charging>
7.82631e-08

> <r_epik_Ionization_Penalty_Neutral>
3.47138e-05

> <r_epik_State_Penalty>
-0

> <r_epik_Charging_Adjusted_Penalty>
7.82631e-08

> <i_epik_Tot_Q>
0

> <i_epik_Tot_abs_Q>
0

> <r_epik_Metal_State_Penalty>
-0

> <b_epik_Metal_Only>
0

> <s_lp_Force_Field>
OPLS_2005

> <r_lp_Energy>
23.7996

> <b_lp_Chiralities_Consistent>
1

> <s_lp_Variant>
AV-unprocessed.smi:2259-2

> <Gold.Version>
5.8.1

> <Gold.Id.Protein>
6NUR|6NUR_protein|mol2

> <Gold.PLP.Fitness>
50.6367

> <Gold.PLP.PLP>
-44.1850

> <Gold.PLP.part.hbond>
-2.9538

> <Gold.PLP.part.metal>
0.0000

> <Gold.PLP.part.buried>
-6.3521

> <Gold.PLP.part.nonpolar>
-33.1851

> <Gold.PLP.part.repulsive>
0.2227

> <Gold.PLP.ligand.clash>
0.2112

> <Gold.PLP.ligand.torsion>
1.1142

> <Gold.PLP.Chemscore.Hbond>
1.8960

> <Gold.PLP.Chemscore.CHOScore>
1.0000

> <Gold.PLP.Chemscore.Metal>
0.0000

> <Gold.Chemscore.Hbonds>
donor molecule, donor type, donor heavy atom, donor atom, acceptor molecule, acceptor atom, score
      P1  H  7989  7998       L1     8  0.86
      P1  H  7997  8010       L1    20  0.80
      L1  C     4    26       P1  8028  1.00

> <Gold.PLP.Chemscore.Internal.Correction>
0.2033

> <Gold.Rescore>
     Score         DG    S(hbond)    S(metal)    S(lipo)     H(rot)  DE(clash)    DE(int)     intcor
     12.32     -13.32       1.32        0.00      87.58       2.66       0.06       0.94       ----

> <Gold.Chemscore.Fitness>
12.3249

> <Gold.Chemscore.DG>
-13.3207

> <Gold.Chemscore.ZeroCoef>
-5.4800

> <Gold.Chemscore.Hbond>
1.3156

> <Gold.Chemscore.Metal>
0.0000

> <Gold.Chemscore.Lipo>
87.5789

> <Gold.Chemscore.Internal_Hbond>
0.0000

> <Gold.Chemscore.DEClash>
0.0595

> <Gold.Chemscore.DEInternal>
0.9363

> <Gold.Chemscore.Rot>
2.6563

> <Gold.Chemscore.Internal.Correction>
   9.000000E+99

> <Gold.Chemscore.Hbonds>
donor molecule, donor type, donor heavy atom, donor atom, acceptor molecule, acceptor atom, score
      P1  H  7989  7998       L1     8  0.22
      P1  H  7997  8010       L1    20  0.60

> <Gold.Chemscore.Hbond.Weighted>
-4.3942

> <Gold.Chemscore.Metal.Weighted>
-0.0000

> <Gold.Chemscore.Lipo.Weighted>
-10.2467

> <Gold.Chemscore.Internal_Hbond.Weighted>
0.0000

> <Gold.Chemscore.DEClash.Weighted>
0.0595

> <Gold.Chemscore.DEInternal.Weighted>
0.9363

> <Gold.Chemscore.Rot.Weighted>
6.8002

> <Gold.Chemscore.Internal.Correction.Weighted>
   9.000000E+99

> <Gold.Protein.RotatedTorsions>
[ 6907 6896 6895 6894 ] final   34.37 input  -60.11 | X-H torsion
[ 7974 7965 7964 7962 ] final   90.69 input  175.53 | X-H torsion
[ 8008 7997 7996 7995 ] final   37.14 input   59.86 | X-H torsion
[ 10167 10162 10161 10158 ] final    2.26 input  -65.29 | X-H torsion
[ 10718 10713 10712 10709 ] final    7.66 input   66.30 | X-H torsion
[ 10763 10752 10751 10750 ] final -165.70 input  -60.55 | X-H torsion
[ 11005 11000 10999 10996 ] final  -56.99 input  -57.11 | X-H torsion

> <Gold.Protein.ActiveResidues>
 VAL166  LYS551  ARG553  GLY616  TRP617  ASP618  TYR619  PRO620  LYS621  CYS622 
 ASP623  PHE694  ASN695  SER759  ASP760  ASP761  ALA762  ILE779  LEU786  VAL792 
 PHE793  MET794  SER795  GLU796  ALA797  LYS798  CYS799  TRP800  GLU811  SER814 

> <Gold.Protein.RotatedAtoms>
  152.1015  134.9338  160.0569 H   0  0  0  0  0  0  0  0  0  0  0  0  # atno 6907 bound_to 6896
  152.0551  133.4032  159.4402 H   0  0  0  0  0  0  0  0  0  0  0  0  # atno 6908 bound_to 6896
  150.6839  134.3184  159.4819 H   0  0  0  0  0  0  0  0  0  0  0  0  # atno 6909 bound_to 6896
  145.5156  139.2278  143.2700 H   0  0  0  0  0  0  0  0  0  0  0  0  # atno 7974 bound_to 7965
  155.1988  140.3314  155.4346 H   0  0  0  0  0  0  0  0  0  0  0  0  # atno 8008 bound_to 7997
  156.2414  140.1897  156.7026 H   0  0  0  0  0  0  0  0  0  0  0  0  # atno 8009 bound_to 7997
  154.6155  140.0603  156.9535 H   0  0  0  0  0  0  0  0  0  0  0  0  # atno 8010 bound_to 7997
  140.6643  143.7220  150.7798 H   0  0  0  0  0  0  0  0  0  0  0  0  # atno 10167 bound_to 10162
  156.9402  130.5858  149.5652 H   0  0  0  0  0  0  0  0  0  0  0  0  # atno 10718 bound_to 10713
  154.6906  135.2970  154.9485 H   0  0  0  0  0  0  0  0  0  0  0  0  # atno 10763 bound_to 10752
  154.0449  135.6652  153.4798 H   0  0  0  0  0  0  0  0  0  0  0  0  # atno 10764 bound_to 10752
  153.0609  135.5116  154.7997 H   0  0  0  0  0  0  0  0  0  0  0  0  # atno 10765 bound_to 10752
  141.1145  133.6610  156.4703 H   0  0  0  0  0  0  0  0  0  0  0  0  # atno 11005 bound_to 11000
  146.2139  140.5965  142.9047 LP  0  0  0  0  0  0  0  0  0  0  0  0  # atno 17320 bound_to 7965
  144.7703  140.5624  143.6674 LP  0  0  0  0  0  0  0  0  0  0  0  0  # atno 17321 bound_to 7965
  140.0894  143.4892  152.2487 LP  0  0  0  0  0  0  0  0  0  0  0  0  # atno 17342 bound_to 10162
  139.5887  144.7541  151.3455 LP  0  0  0  0  0  0  0  0  0  0  0  0  # atno 17343 bound_to 10162
  156.0408  130.5490  150.8765 LP  0  0  0  0  0  0  0  0  0  0  0  0  # atno 17370 bound_to 10713
  157.5790  131.0946  150.9301 LP  0  0  0  0  0  0  0  0  0  0  0  0  # atno 17371 bound_to 10713
  140.4684  134.6776  157.5118 LP  0  0  0  0  0  0  0  0  0  0  0  0  # atno 17394 bound_to 11000
  140.0058  134.6765  155.9457 LP  0  0  0  0  0  0  0  0  0  0  0  0  # atno 17395 bound_to 11000

$$$$
