AV-unprocessed.smi:3158|AV-procd|sdf|12045|dock3
  -GOLD-   2272017473D 1   1.00000     0.00000
 Structure written by MMmdl.
 39 39  0  0  0  0  0  0  0  0  1 V2000
  146.5783  142.7118  152.9066 C   0  0  0  0  0  0  0  0  0  0  0  0
  147.8627  142.3175  153.6502 C   0  0  0  0  0  0  0  0  0  0  0  0
  147.9208  140.8291  154.0417 C   0  0  2  0  0  0  0  0  0  0  0  0
  149.2736  140.4646  154.6739 C   0  0  0  0  0  0  0  0  0  0  0  0
  147.6770  139.9893  152.8718 N   0  0  0  0  0  0  0  0  0  0  0  0
  146.6094  139.1964  152.6886 C   0  0  0  0  0  0  0  0  0  0  0  0
  145.6954  139.0915  153.5072 O   0  0  0  0  0  0  0  0  0  0  0  0
  146.5905  138.3620  151.3967 C   0  0  2  0  0  0  0  0  0  0  0  0
  146.5853  139.2725  150.1582 C   0  0  0  0  0  0  0  0  0  0  0  0
  145.4566  137.4225  151.3277 N   0  0  0  0  0  0  0  0  0  0  0  0
  145.7481  136.1763  150.6275 C   0  0  0  0  0  0  0  0  0  0  0  0
  144.4760  135.3204  150.5574 C   0  0  0  0  0  0  0  0  0  0  0  0
  144.7764  133.9110  150.7159 N   0  0  0  0  0  0  0  0  0  0  0  0
  143.9092  132.8400  150.6737 C   0  0  0  0  0  0  0  0  0  0  0  0
  144.6481  131.7110  150.8835 C   0  0  0  0  0  0  0  0  0  0  0  0
  145.9739  132.2005  151.0479 C   0  0  0  0  0  0  0  0  0  0  0  0
  146.0474  133.5181  150.9480 N   0  0  0  0  0  0  0  0  0  0  0  0
  146.5679  143.7810  152.6946 H   0  0  0  0  0  0  0  0  0  0  0  0
  145.6938  142.4834  153.5015 H   0  0  0  0  0  0  0  0  0  0  0  0
  146.4875  142.1872  151.9552 H   0  0  0  0  0  0  0  0  0  0  0  0
  148.7272  142.5720  153.0354 H   0  0  0  0  0  0  0  0  0  0  0  0
  147.9426  142.9273  154.5509 H   0  0  0  0  0  0  0  0  0  0  0  0
  147.1384  140.6482  154.7814 H   0  0  0  0  0  0  0  0  0  0  0  0
  149.4657  141.0665  155.5624 H   0  0  0  0  0  0  0  0  0  0  0  0
  150.0953  140.6294  153.9761 H   0  0  0  0  0  0  0  0  0  0  0  0
  149.3001  139.4174  154.9771 H   0  0  0  0  0  0  0  0  0  0  0  0
  148.3823  140.0024  152.1493 H   0  0  0  0  0  0  0  0  0  0  0  0
  147.5104  137.7753  151.3611 H   0  0  0  0  0  0  0  0  0  0  0  0
  147.4265  139.9668  150.1725 H   0  0  0  0  0  0  0  0  0  0  0  0
  145.6686  139.8602  150.0930 H   0  0  0  0  0  0  0  0  0  0  0  0
  146.6653  138.6850  149.2429 H   0  0  0  0  0  0  0  0  0  0  0  0
  145.0850  137.2219  152.2454 H   0  0  0  0  0  0  0  0  0  0  0  0
  146.1080  136.3951  149.6211 H   0  0  0  0  0  0  0  0  0  0  0  0
  146.5303  135.6176  151.1430 H   0  0  0  0  0  0  0  0  0  0  0  0
  143.7744  135.6131  151.3399 H   0  0  0  0  0  0  0  0  0  0  0  0
  143.9660  135.4645  149.6032 H   0  0  0  0  0  0  0  0  0  0  0  0
  142.8508  132.9692  150.5010 H   0  0  0  0  0  0  0  0  0  0  0  0
  144.2955  130.6910  150.9159 H   0  0  0  0  0  0  0  0  0  0  0  0
  146.8790  131.6419  151.2359 H   0  0  0  0  0  0  0  0  0  0  0  0
  1  2  1  0  0  0  0
  1 18  1  0  0  0  0
  1 19  1  0  0  0  0
  1 20  1  0  0  0  0
  2  3  1  0  0  0  0
  2 21  1  0  0  0  0
  2 22  1  0  0  0  0
  3  4  1  0  0  0  0
  3  5  1  0  0  0  0
  3 23  1  0  0  0  0
  4 24  1  0  0  0  0
  4 25  1  0  0  0  0
  4 26  1  0  0  0  0
  5  6  1  0  0  0  0
  5 27  1  0  0  0  0
  6  7  2  0  0  0  0
  6  8  1  0  0  0  0
  8  9  1  0  0  0  0
  8 10  1  0  0  0  0
  8 28  1  0  0  0  0
  9 29  1  0  0  0  0
  9 30  1  0  0  0  0
  9 31  1  0  0  0  0
 10 11  1  0  0  0  0
 10 32  1  0  0  0  0
 11 12  1  0  0  0  0
 11 33  1  0  0  0  0
 11 34  1  0  0  0  0
 12 13  1  0  0  0  0
 12 35  1  0  0  0  0
 12 36  1  0  0  0  0
 13 17  1  0  0  0  0
 13 14  1  0  0  0  0
 14 15  2  0  0  0  0
 14 37  1  0  0  0  0
 15 16  1  0  0  0  0
 15 38  1  0  0  0  0
 16 17  2  0  0  0  0
 16 39  1  0  0  0  0
M  END
> <s_m_source_file>
AV-unprocessed.smi

> <i_m_source_file_index>
3158

> <i_lp_mmshare_version>
43012

> <i_f3d_flags>
0

> <s_epik_input>
W0NIM11bQ0gyXVtDQEhdKFtDSDNdKVtOSF1DKD1PKVtDQEhdKFtDSDNdKVtOSF1bQ0gyXVtDSDJdbjFbY0hdW2NIXVtjSF1uMQ==

> <s_epik_cmdline>
J2VwaWtfcHl0aG9uJywgJy1waCcsICc3LjAnLCAnLXRuJywgJzgnLCAnLW1hJywgJzIwMCcsICctbWV0YWxfYmluZGluZycsICctaW1hZScsICc8aW5maWxlLm1hZT4nLCAnLW9tYWUnLCAnPG91dGZpbGUubWFlPic=

> <r_lp_tautomer_probability>
1

> <r_epik_Ionization_Penalty>
0.724013

> <r_epik_Ionization_Penalty_Charging>
0

> <r_epik_Ionization_Penalty_Neutral>
0.724013

> <r_epik_State_Penalty>
0.74758

> <r_epik_Charging_Adjusted_Penalty>
0.74758

> <i_epik_Tot_Q>
0

> <i_epik_Tot_abs_Q>
0

> <r_epik_Metal_State_Penalty>
0.746846

> <b_epik_Metal_Only>
0

> <s_lp_Force_Field>
OPLS_2005

> <r_lp_Energy>
5.18205

> <b_lp_Chiralities_Consistent>
1

> <s_lp_Variant>
AV-unprocessed.smi:3158-5

> <Gold.Version>
5.8.1

> <Gold.Id.Protein>
6NUR|6NUR_protein|mol2

> <Gold.PLP.Fitness>
43.6003

> <Gold.PLP.PLP>
-35.7956

> <Gold.PLP.part.hbond>
-2.0000

> <Gold.PLP.part.metal>
0.0000

> <Gold.PLP.part.buried>
2.6568

> <Gold.PLP.part.nonpolar>
-35.8655

> <Gold.PLP.part.repulsive>
0.4515

> <Gold.PLP.ligand.clash>
0.0000

> <Gold.PLP.ligand.torsion>
0.7254

> <Gold.PLP.Chemscore.Hbond>
1.0000

> <Gold.PLP.Chemscore.CHOScore>
2.0000

> <Gold.PLP.Chemscore.Metal>
0.0000

> <Gold.Chemscore.Hbonds>
donor molecule, donor type, donor heavy atom, donor atom, acceptor molecule, acceptor atom, score
      L1  H     5    27       P1  7957  1.00
      L1  C    14    37       P1 10186  1.00
      L1  C    16    39       P1 10747  1.00

> <Gold.PLP.Chemscore.Internal.Correction>
0.2555

> <Gold.Rescore>
     Score         DG    S(hbond)    S(metal)    S(lipo)     H(rot)  DE(clash)    DE(int)     intcor
     12.27     -14.27       1.00        0.00      93.05       2.12       1.14       0.86       ----

> <Gold.Chemscore.Fitness>
12.2699

> <Gold.Chemscore.DG>
-14.2708

> <Gold.Chemscore.ZeroCoef>
-5.4800

> <Gold.Chemscore.Hbond>
1.0000

> <Gold.Chemscore.Metal>
0.0000

> <Gold.Chemscore.Lipo>
93.0484

> <Gold.Chemscore.Internal_Hbond>
0.0000

> <Gold.Chemscore.DEClash>
1.1367

> <Gold.Chemscore.DEInternal>
0.8642

> <Gold.Chemscore.Rot>
2.1234

> <Gold.Chemscore.Internal.Correction>
   9.000000E+99

> <Gold.Chemscore.Hbonds>
donor molecule, donor type, donor heavy atom, donor atom, acceptor molecule, acceptor atom, score
      L1  H     5    27       P1  7957  0.96

> <Gold.Chemscore.Hbond.Weighted>
-3.3400

> <Gold.Chemscore.Metal.Weighted>
-0.0000

> <Gold.Chemscore.Lipo.Weighted>
-10.8867

> <Gold.Chemscore.Internal_Hbond.Weighted>
0.0000

> <Gold.Chemscore.DEClash.Weighted>
1.1367

> <Gold.Chemscore.DEInternal.Weighted>
0.8642

> <Gold.Chemscore.Rot.Weighted>
5.4359

> <Gold.Chemscore.Internal.Correction.Weighted>
   9.000000E+99

> <Gold.Protein.RotatedTorsions>
[ 6907 6896 6895 6894 ] final -136.61 input  -60.11 | X-H torsion
[ 7974 7965 7964 7962 ] final  -49.83 input  175.53 | X-H torsion
[ 8008 7997 7996 7995 ] final -174.28 input   59.86 | X-H torsion
[ 10167 10162 10161 10158 ] final   40.58 input  -65.29 | X-H torsion
[ 10718 10713 10712 10709 ] final  -36.92 input   66.30 | X-H torsion
[ 10763 10752 10751 10750 ] final    3.53 input  -60.55 | X-H torsion
[ 11005 11000 10999 10996 ] final -174.89 input  -57.11 | X-H torsion

> <Gold.Protein.ActiveResidues>
 VAL166  LYS551  ARG553  GLY616  TRP617  ASP618  TYR619  PRO620  LYS621  CYS622 
 ASP623  PHE694  ASN695  SER759  ASP760  ASP761  ALA762  ILE779  LEU786  VAL792 
 PHE793  MET794  SER795  GLU796  ALA797  LYS798  CYS799  TRP800  GLU811  SER814 

> <Gold.Protein.RotatedAtoms>
  151.0122  133.5955  159.2681 H   0  0  0  0  0  0  0  0  0  0  0  0  # atno 6907 bound_to 6896
  151.3102  135.0791  159.9279 H   0  0  0  0  0  0  0  0  0  0  0  0  # atno 6908 bound_to 6896
  152.5302  133.9788  159.7851 H   0  0  0  0  0  0  0  0  0  0  0  0  # atno 6909 bound_to 6896
  145.9364  140.7703  142.9574 H   0  0  0  0  0  0  0  0  0  0  0  0  # atno 7974 bound_to 7965
  155.9681  140.1157  157.0837 H   0  0  0  0  0  0  0  0  0  0  0  0  # atno 8008 bound_to 7997
  154.4149  140.1168  156.5336 H   0  0  0  0  0  0  0  0  0  0  0  0  # atno 8009 bound_to 7997
  155.6633  140.3473  155.4793 H   0  0  0  0  0  0  0  0  0  0  0  0  # atno 8010 bound_to 7997
  140.3728  144.2083  150.6132 H   0  0  0  0  0  0  0  0  0  0  0  0  # atno 10167 bound_to 10162
  156.3213  130.4266  149.7958 H   0  0  0  0  0  0  0  0  0  0  0  0  # atno 10718 bound_to 10713
  153.2822  135.6941  153.7375 H   0  0  0  0  0  0  0  0  0  0  0  0  # atno 10763 bound_to 10752
  153.6358  135.3402  155.3057 H   0  0  0  0  0  0  0  0  0  0  0  0  # atno 10764 bound_to 10752
  154.8498  135.4420  154.1878 H   0  0  0  0  0  0  0  0  0  0  0  0  # atno 10765 bound_to 10752
  140.4694  134.6179  157.4876 H   0  0  0  0  0  0  0  0  0  0  0  0  # atno 11005 bound_to 11000
  144.6772  140.2209  143.7366 LP  0  0  0  0  0  0  0  0  0  0  0  0  # atno 17320 bound_to 7965
  145.8358  139.2107  143.1856 LP  0  0  0  0  0  0  0  0  0  0  0  0  # atno 17321 bound_to 7965
  140.5016  143.2316  151.8670 LP  0  0  0  0  0  0  0  0  0  0  0  0  # atno 17342 bound_to 10162
  139.4802  144.5053  151.9006 LP  0  0  0  0  0  0  0  0  0  0  0  0  # atno 17343 bound_to 10162
  156.5265  130.8238  151.3222 LP  0  0  0  0  0  0  0  0  0  0  0  0  # atno 17370 bound_to 10713
  157.7412  130.9865  150.2430 LP  0  0  0  0  0  0  0  0  0  0  0  0  # atno 17371 bound_to 10713
  139.9894  134.7009  155.9715 LP  0  0  0  0  0  0  0  0  0  0  0  0  # atno 17394 bound_to 11000
  141.1584  133.6541  156.4237 LP  0  0  0  0  0  0  0  0  0  0  0  0  # atno 17395 bound_to 11000

$$$$
