AV-unprocessed.smi:3148|AV-procd|sdf|11995|dock1
  -GOLD-   2272017403D 1   1.00000     0.00000
 Structure written by MMmdl.
 35 37  0  0  0  0  0  0  0  0  2 V2000
  154.0111  141.4422  160.6153 C   0  0  0  0  0  0  0  0  0  0  0  0
  153.3306  141.0939  159.4143 O   0  0  0  0  0  0  0  0  0  0  0  0
  152.4544  142.0101  158.8701 C   0  0  0  0  0  0  0  0  0  0  0  0
  152.2609  143.2471  159.5068 C   0  0  0  0  0  0  0  0  0  0  0  0
  151.3565  144.1428  158.9044 C   0  0  0  0  0  0  0  0  0  0  0  0
  151.0668  145.5086  159.4889 C   0  0  0  0  0  0  0  0  0  0  0  0
  150.7152  143.7952  157.7608 N   0  3  0  0  0  0  0  0  0  0  0  0
  150.9452  142.5981  157.2013 C   0  0  0  0  0  0  0  0  0  0  0  0
  150.2717  142.2981  156.0310 N   0  0  0  0  0  0  0  0  0  0  0  0
  150.4152  141.0419  155.3060 C   0  0  2  0  0  0  0  0  0  0  0  0
  149.2296  140.7477  154.3777 C   0  0  0  0  0  0  0  0  0  0  0  0
  148.7670  139.3751  154.8817 C   0  0  1  0  0  0  0  0  0  0  0  0
  149.7762  138.2659  154.5555 C   0  0  0  0  0  0  0  0  0  0  0  0
  150.9030  138.5683  155.5429 C   0  0  0  0  0  0  0  0  0  0  0  0
  150.3777  139.8267  156.2472 C   0  0  2  0  0  0  0  0  0  0  0  0
  148.9900  139.5336  156.2716 O   0  0  0  0  0  0  0  0  0  0  0  0
  151.7940  141.7050  157.7289 N   0  0  0  0  0  0  0  0  0  0  0  0
  154.6548  140.6164  160.9178 H   0  0  0  0  0  0  0  0  0  0  0  0
  153.3111  141.6314  161.4307 H   0  0  0  0  0  0  0  0  0  0  0  0
  154.6435  142.3203  160.4759 H   0  0  0  0  0  0  0  0  0  0  0  0
  152.7868  143.4961  160.4171 H   0  0  0  0  0  0  0  0  0  0  0  0
  151.5507  145.6330  160.4581 H   0  0  0  0  0  0  0  0  0  0  0  0
  149.9936  145.6456  159.6251 H   0  0  0  0  0  0  0  0  0  0  0  0
  151.4322  146.2900  158.8220 H   0  0  0  0  0  0  0  0  0  0  0  0
  149.7643  143.0462  155.5814 H   0  0  0  0  0  0  0  0  0  0  0  0
  151.3570  141.0580  154.7557 H   0  0  0  0  0  0  0  0  0  0  0  0
  148.4297  141.4801  154.4978 H   0  0  0  0  0  0  0  0  0  0  0  0
  149.5146  140.7306  153.3252 H   0  0  0  0  0  0  0  0  0  0  0  0
  147.7380  139.1306  154.6169 H   0  0  0  0  0  0  0  0  0  0  0  0
  149.3506  137.2810  154.7512 H   0  0  0  0  0  0  0  0  0  0  0  0
  150.1030  138.2970  153.5156 H   0  0  0  0  0  0  0  0  0  0  0  0
  151.0184  137.7482  156.2528 H   0  0  0  0  0  0  0  0  0  0  0  0
  151.8636  138.7325  155.0536 H   0  0  0  0  0  0  0  0  0  0  0  0
  150.8255  139.9960  157.2272 H   0  0  0  0  0  0  0  0  0  0  0  0
  150.0644  144.4541  157.3327 H   0  0  0  0  0  0  0  0  0  0  0  0
  1  2  1  0  0  0  0
  1 18  1  0  0  0  0
  1 19  1  0  0  0  0
  1 20  1  0  0  0  0
  2  3  1  0  0  0  0
  3 17  1  0  0  0  0
  3  4  2  0  0  0  0
  4  5  1  0  0  0  0
  4 21  1  0  0  0  0
  5  6  1  0  0  0  0
  5  7  2  0  0  0  0
  6 22  1  0  0  0  0
  6 23  1  0  0  0  0
  6 24  1  0  0  0  0
  7  8  1  0  0  0  0
  7 35  1  0  0  0  0
  8  9  1  0  0  0  0
  8 17  2  0  0  0  0
  9 10  1  0  0  0  0
  9 25  1  0  0  0  0
 10 15  1  0  0  0  0
 10 11  1  0  0  0  0
 10 26  1  0  0  0  0
 11 12  1  0  0  0  0
 11 27  1  0  0  0  0
 11 28  1  0  0  0  0
 12 16  1  0  0  0  0
 12 13  1  0  0  0  0
 12 29  1  0  0  0  0
 13 14  1  0  0  0  0
 13 30  1  0  0  0  0
 13 31  1  0  0  0  0
 14 15  1  0  0  0  0
 14 32  1  0  0  0  0
 14 33  1  0  0  0  0
 15 16  1  0  0  0  0
 15 34  1  0  0  0  0
M  CHG  1   7   1
M  END
> <s_m_source_file>
AV-unprocessed.smi

> <i_m_source_file_index>
3148

> <i_lp_mmshare_version>
43012

> <i_f3d_flags>
0

> <s_epik_input>
W0NIM11PYzFbY0hdYyhbQ0gzXSluYyhuMSlbTkhdW0NASF0oW0NIMl1bQ0BASF0yMylbQ0BASF0oTzMpW0NIMl1bQ0gyXTI=

> <s_epik_cmdline>
J2VwaWtfcHl0aG9uJywgJy1waCcsICc3LjAnLCAnLXRuJywgJzgnLCAnLW1hJywgJzIwMCcsICctbWV0YWxfYmluZGluZycsICctaW1hZScsICc8aW5maWxlLm1hZT4nLCAnLW9tYWUnLCAnPG91dGZpbGUubWFlPic=

> <r_lp_tautomer_probability>
0.999985

> <r_epik_Ionization_Penalty>
1.09461

> <r_epik_Ionization_Penalty_Charging>
1.0946

> <r_epik_Ionization_Penalty_Neutral>
6.69406e-06

> <r_epik_State_Penalty>
1.15119

> <r_epik_Charging_Adjusted_Penalty>
2.24579

> <i_epik_Tot_Q>
1

> <i_epik_Tot_abs_Q>
1

> <r_epik_Metal_State_Penalty>
1.2392

> <b_epik_Metal_Only>
0

> <s_lp_Force_Field>
OPLS_2005

> <r_lp_Energy>
35.8621

> <b_lp_Chiralities_Consistent>
1

> <s_lp_Variant>
AV-unprocessed.smi:3148-5

> <Gold.Version>
5.8.1

> <Gold.Id.Protein>
6NUR|6NUR_protein|mol2

> <Gold.PLP.Fitness>
42.5608

> <Gold.PLP.PLP>
-31.8849

> <Gold.PLP.part.hbond>
-2.0000

> <Gold.PLP.part.metal>
0.0000

> <Gold.PLP.part.buried>
-1.9941

> <Gold.PLP.part.nonpolar>
-28.0246

> <Gold.PLP.part.repulsive>
0.1510

> <Gold.PLP.ligand.clash>
0.0873

> <Gold.PLP.ligand.torsion>
0.2453

> <Gold.PLP.Chemscore.Hbond>
3.7446

> <Gold.PLP.Chemscore.CHOScore>
0.0000

> <Gold.PLP.Chemscore.Metal>
0.0000

> <Gold.Chemscore.Hbonds>
donor molecule, donor type, donor heavy atom, donor atom, acceptor molecule, acceptor atom, score
      L1  H     7    35       P1  8028  1.73
      L1  H     9    25       P1  8028  2.00

> <Gold.PLP.Chemscore.Internal.Correction>
0.0201

> <Gold.Rescore>
     Score         DG    S(hbond)    S(metal)    S(lipo)     H(rot)  DE(clash)    DE(int)     intcor
     14.82     -16.05       1.29        0.00      80.44       1.24       0.04       1.19       ----

> <Gold.Chemscore.Fitness>
14.8207

> <Gold.Chemscore.DG>
-16.0450

> <Gold.Chemscore.ZeroCoef>
-5.4800

> <Gold.Chemscore.Hbond>
1.2939

> <Gold.Chemscore.Metal>
0.0000

> <Gold.Chemscore.Lipo>
80.4396

> <Gold.Chemscore.Internal_Hbond>
0.0000

> <Gold.Chemscore.DEClash>
0.0352

> <Gold.Chemscore.DEInternal>
1.1892

> <Gold.Chemscore.Rot>
1.2376

> <Gold.Chemscore.Internal.Correction>
   9.000000E+99

> <Gold.Chemscore.Hbonds>
donor molecule, donor type, donor heavy atom, donor atom, acceptor molecule, acceptor atom, score
      L1  H     7    35       P1  8028  0.32
      L1  H     9    25       P1  8028  0.95

> <Gold.Chemscore.Hbond.Weighted>
-4.3218

> <Gold.Chemscore.Metal.Weighted>
-0.0000

> <Gold.Chemscore.Lipo.Weighted>
-9.4114

> <Gold.Chemscore.Internal_Hbond.Weighted>
0.0000

> <Gold.Chemscore.DEClash.Weighted>
0.0352

> <Gold.Chemscore.DEInternal.Weighted>
1.1892

> <Gold.Chemscore.Rot.Weighted>
3.1681

> <Gold.Chemscore.Internal.Correction.Weighted>
   9.000000E+99

> <Gold.Protein.RotatedTorsions>
[ 6907 6896 6895 6894 ] final  121.35 input  -60.11 | X-H torsion
[ 7974 7965 7964 7962 ] final -147.69 input  175.53 | X-H torsion
[ 8008 7997 7996 7995 ] final  140.83 input   59.86 | X-H torsion
[ 10167 10162 10161 10158 ] final   -3.65 input  -65.29 | X-H torsion
[ 10718 10713 10712 10709 ] final  -69.01 input   66.30 | X-H torsion
[ 10763 10752 10751 10750 ] final  -83.70 input  -60.55 | X-H torsion
[ 11005 11000 10999 10996 ] final   76.81 input  -57.11 | X-H torsion

> <Gold.Protein.ActiveResidues>
 VAL166  LYS551  ARG553  GLY616  TRP617  ASP618  TYR619  PRO620  LYS621  CYS622 
 ASP623  PHE694  ASN695  SER759  ASP760  ASP761  ALA762  ILE779  LEU786  VAL792 
 PHE793  MET794  SER795  GLU796  ALA797  LYS798  CYS799  TRP800  GLU811  SER814 

> <Gold.Protein.RotatedAtoms>
  152.4329  133.7309  159.6586 H   0  0  0  0  0  0  0  0  0  0  0  0  # atno 6907 bound_to 6896
  150.8209  133.8243  159.3145 H   0  0  0  0  0  0  0  0  0  0  0  0  # atno 6908 bound_to 6896
  151.5926  135.1055  160.0094 H   0  0  0  0  0  0  0  0  0  0  0  0  # atno 6909 bound_to 6896
  144.8077  140.5294  143.5663 H   0  0  0  0  0  0  0  0  0  0  0  0  # atno 7974 bound_to 7965
  156.2974  140.2331  156.4465 H   0  0  0  0  0  0  0  0  0  0  0  0  # atno 8008 bound_to 7997
  154.8140  140.0441  157.1383 H   0  0  0  0  0  0  0  0  0  0  0  0  # atno 8009 bound_to 7997
  154.9391  140.3027  155.5133 H   0  0  0  0  0  0  0  0  0  0  0  0  # atno 8010 bound_to 7997
  140.6898  143.6515  150.8346 H   0  0  0  0  0  0  0  0  0  0  0  0  # atno 10167 bound_to 10162
  156.0476  130.4305  150.2085 H   0  0  0  0  0  0  0  0  0  0  0  0  # atno 10718 bound_to 10713
  154.5908  135.5547  153.7277 H   0  0  0  0  0  0  0  0  0  0  0  0  # atno 10763 bound_to 10752
  153.0116  135.6343  154.1852 H   0  0  0  0  0  0  0  0  0  0  0  0  # atno 10764 bound_to 10752
  154.1792  135.2888  155.3037 H   0  0  0  0  0  0  0  0  0  0  0  0  # atno 10765 bound_to 10752
  139.9282  134.7631  156.1442 H   0  0  0  0  0  0  0  0  0  0  0  0  # atno 11005 bound_to 11000
  145.5398  139.1475  143.3453 LP  0  0  0  0  0  0  0  0  0  0  0  0  # atno 17320 bound_to 7965
  146.2371  140.5538  142.8950 LP  0  0  0  0  0  0  0  0  0  0  0  0  # atno 17321 bound_to 7965
  140.0226  143.5526  152.2794 LP  0  0  0  0  0  0  0  0  0  0  0  0  # atno 17342 bound_to 10162
  139.6290  144.7641  151.2577 LP  0  0  0  0  0  0  0  0  0  0  0  0  # atno 17343 bound_to 10162
  157.0173  130.9969  151.3349 LP  0  0  0  0  0  0  0  0  0  0  0  0  # atno 17370 bound_to 10713
  157.5369  130.8094  149.7982 LP  0  0  0  0  0  0  0  0  0  0  0  0  # atno 17371 bound_to 10713
  141.0853  133.6736  156.2424 LP  0  0  0  0  0  0  0  0  0  0  0  0  # atno 17394 bound_to 11000
  140.6277  134.5296  157.5555 LP  0  0  0  0  0  0  0  0  0  0  0  0  # atno 17395 bound_to 11000

$$$$
