AV-unprocessed.smi:1772|AV-procd|sdf|7162|dock6
  -GOLD-   22720 8403D 1   1.00000     0.00000
 Structure written by MMmdl.
 34 35  0  0  0  0  0  0  0  0  2 V2000
  144.3884  136.5919  152.0293 O   0  0  0  0  0  0  0  0  0  0  0  0
  145.5982  136.4386  151.8630 C   0  0  0  0  0  0  0  0  0  0  0  0
  146.5038  137.3957  152.1105 N   0  0  0  0  0  0  0  0  0  0  0  0
  146.1931  138.7378  152.5926 C   0  0  0  0  0  0  0  0  0  0  0  0
  147.4570  139.5128  153.0143 C   0  0  1  0  0  0  0  0  0  0  0  0
  147.1366  140.9390  153.5017 C   0  0  0  0  0  0  0  0  0  0  0  0
  148.3951  141.5299  154.1453 C   0  0  0  0  0  0  0  0  0  0  0  0
  149.2531  140.1197  154.9387 S   0  0  0  0  0  0  0  0  0  0  0  0
  150.6400  140.0677  154.4526 O   0  0  0  0  0  0  0  0  0  0  0  0
  148.9540  140.1095  156.3785 O   0  0  0  0  0  0  0  0  0  0  0  0
  148.2665  138.8107  154.1180 C   0  0  0  0  0  0  0  0  0  0  0  0
  146.1874  135.3096  151.4320 N   0  0  0  0  0  0  0  0  0  0  0  0
  145.5819  134.0772  151.0627 C   0  0  0  0  0  0  0  0  0  0  0  0
  144.2104  133.9105  151.3576 C   0  0  0  0  0  0  0  0  0  0  0  0
  143.5681  132.7007  151.0233 C   0  0  0  0  0  0  0  0  0  0  0  0
  144.2685  131.7083  150.4341 N   0  3  0  0  0  0  0  0  0  0  0  0
  145.5835  131.8146  150.1462 C   0  0  0  0  0  0  0  0  0  0  0  0
  146.2794  133.0009  150.4569 C   0  0  0  0  0  0  0  0  0  0  0  0
  147.4786  137.1853  151.9523 H   0  0  0  0  0  0  0  0  0  0  0  0
  145.6484  139.2904  151.8251 H   0  0  0  0  0  0  0  0  0  0  0  0
  145.5142  138.6414  153.4404 H   0  0  0  0  0  0  0  0  0  0  0  0
  148.1099  139.6153  152.1461 H   0  0  0  0  0  0  0  0  0  0  0  0
  146.7706  141.5705  152.6918 H   0  0  0  0  0  0  0  0  0  0  0  0
  146.3459  140.8935  154.2520 H   0  0  0  0  0  0  0  0  0  0  0  0
  149.0590  141.9449  153.3864 H   0  0  0  0  0  0  0  0  0  0  0  0
  148.1777  142.3040  154.8815 H   0  0  0  0  0  0  0  0  0  0  0  0
  147.6091  138.3716  154.8689 H   0  0  0  0  0  0  0  0  0  0  0  0
  148.9251  138.0315  153.7336 H   0  0  0  0  0  0  0  0  0  0  0  0
  147.1968  135.3155  151.4214 H   0  0  0  0  0  0  0  0  0  0  0  0
  143.6490  134.7034  151.8305 H   0  0  0  0  0  0  0  0  0  0  0  0
  142.5233  132.4987  151.2098 H   0  0  0  0  0  0  0  0  0  0  0  0
  146.0388  130.9509  149.6839 H   0  0  0  0  0  0  0  0  0  0  0  0
  147.3341  133.0551  150.2349 H   0  0  0  0  0  0  0  0  0  0  0  0
  143.7854  130.8401  150.2010 H   0  0  0  0  0  0  0  0  0  0  0  0
  1  2  2  0  0  0  0
  2  3  1  0  0  0  0
  2 12  1  0  0  0  0
  3  4  1  0  0  0  0
  3 19  1  0  0  0  0
  4  5  1  0  0  0  0
  4 20  1  0  0  0  0
  4 21  1  0  0  0  0
  5 11  1  0  0  0  0
  5  6  1  0  0  0  0
  5 22  1  0  0  0  0
  6  7  1  0  0  0  0
  6 23  1  0  0  0  0
  6 24  1  0  0  0  0
  7  8  1  0  0  0  0
  7 25  1  0  0  0  0
  7 26  1  0  0  0  0
  8  9  2  0  0  0  0
  8 10  2  0  0  0  0
  8 11  1  0  0  0  0
 11 27  1  0  0  0  0
 11 28  1  0  0  0  0
 12 13  1  0  0  0  0
 12 29  1  0  0  0  0
 13 18  1  0  0  0  0
 13 14  2  0  0  0  0
 14 15  1  0  0  0  0
 14 30  1  0  0  0  0
 15 16  2  0  0  0  0
 15 31  1  0  0  0  0
 16 17  1  0  0  0  0
 16 34  1  0  0  0  0
 17 18  2  0  0  0  0
 17 32  1  0  0  0  0
 18 33  1  0  0  0  0
M  CHG  1  16   1
M  END
> <s_m_source_file>
AV-unprocessed.smi

> <i_m_source_file_index>
1772

> <i_lp_mmshare_version>
43012

> <i_f3d_flags>
0

> <s_epik_input>
W2NIXTFbY0hdbltjSF1bY0hdYzFbTkhdQyg9TylbTkhdW0NIMl1bQ0BASF0oW0NIMl0yKVtDSDJdW0NIMl1TMig9Tyk9Tw==

> <s_epik_cmdline>
J2VwaWtfcHl0aG9uJywgJy1waCcsICc3LjAnLCAnLXRuJywgJzgnLCAnLW1hJywgJzIwMCcsICctbWV0YWxfYmluZGluZycsICctaW1hZScsICc8aW5maWxlLm1hZT4nLCAnLW9tYWUnLCAnPG91dGZpbGUubWFlPic=

> <r_epik_Ionization_Penalty>
1.04917

> <r_epik_Ionization_Penalty_Charging>
1.04915

> <r_epik_Ionization_Penalty_Neutral>
1.90771e-05

> <r_epik_State_Penalty>
1.10185

> <r_epik_Charging_Adjusted_Penalty>
2.151

> <i_epik_Tot_Q>
1

> <i_epik_Tot_abs_Q>
1

> <r_epik_Metal_State_Penalty>
1.19638

> <b_epik_Metal_Only>
0

> <s_lp_Force_Field>
OPLS_2005

> <r_lp_Energy>
14.8117

> <b_lp_Chiralities_Consistent>
1

> <s_lp_Variant>
AV-unprocessed.smi:1772-4

> <Gold.Version>
5.8.1

> <Gold.Id.Protein>
6NUR|6NUR_protein|mol2

> <Gold.PLP.Fitness>
41.2880

> <Gold.PLP.PLP>
-32.4250

> <Gold.PLP.part.hbond>
-3.0000

> <Gold.PLP.part.metal>
0.0000

> <Gold.PLP.part.buried>
-3.2754

> <Gold.PLP.part.nonpolar>
-27.7713

> <Gold.PLP.part.repulsive>
1.1981

> <Gold.PLP.ligand.clash>
0.0000

> <Gold.PLP.ligand.torsion>
0.0699

> <Gold.PLP.Chemscore.Hbond>
3.0000

> <Gold.PLP.Chemscore.CHOScore>
0.0000

> <Gold.PLP.Chemscore.Metal>
0.0000

> <Gold.Chemscore.Hbonds>
donor molecule, donor type, donor heavy atom, donor atom, acceptor molecule, acceptor atom, score
      L1  H     3    19       P1  7948  1.00
      L1  H    12    29       P1  7948  1.00
      P1  H  7989  7998       L1     9  1.00

> <Gold.PLP.Chemscore.Internal.Correction>
0.0029

> <Gold.Rescore>
     Score         DG    S(hbond)    S(metal)    S(lipo)     H(rot)  DE(clash)    DE(int)     intcor
     18.29     -20.09       2.95        0.00      69.48       1.32       0.32       1.48       ----

> <Gold.Chemscore.Fitness>
18.2925

> <Gold.Chemscore.DG>
-20.0935

> <Gold.Chemscore.ZeroCoef>
-5.4800

> <Gold.Chemscore.Hbond>
2.9496

> <Gold.Chemscore.Metal>
0.0000

> <Gold.Chemscore.Lipo>
69.4784

> <Gold.Chemscore.Internal_Hbond>
0.0000

> <Gold.Chemscore.DEClash>
0.3240

> <Gold.Chemscore.DEInternal>
1.4769

> <Gold.Chemscore.Rot>
1.3153

> <Gold.Chemscore.Internal.Correction>
   9.000000E+99

> <Gold.Chemscore.Hbonds>
donor molecule, donor type, donor heavy atom, donor atom, acceptor molecule, acceptor atom, score
      L1  H     3    19       P1  7948  0.99
      L1  H    12    29       P1  7948  0.85
      P1  H  7989  7998       L1     9  0.98

> <Gold.Chemscore.Hbond.Weighted>
-9.8518

> <Gold.Chemscore.Metal.Weighted>
-0.0000

> <Gold.Chemscore.Lipo.Weighted>
-8.1290

> <Gold.Chemscore.Internal_Hbond.Weighted>
0.0000

> <Gold.Chemscore.DEClash.Weighted>
0.3240

> <Gold.Chemscore.DEInternal.Weighted>
1.4769

> <Gold.Chemscore.Rot.Weighted>
3.3673

> <Gold.Chemscore.Internal.Correction.Weighted>
   9.000000E+99

> <Gold.Protein.RotatedTorsions>
[ 6907 6896 6895 6894 ] final   25.83 input  -60.11 | X-H torsion
[ 7974 7965 7964 7962 ] final  151.25 input  175.53 | X-H torsion
[ 8008 7997 7996 7995 ] final -131.96 input   59.86 | X-H torsion
[ 10167 10162 10161 10158 ] final   19.76 input  -65.29 | X-H torsion
[ 10718 10713 10712 10709 ] final   56.80 input   66.30 | X-H torsion
[ 10763 10752 10751 10750 ] final  -48.84 input  -60.55 | X-H torsion
[ 11005 11000 10999 10996 ] final  111.46 input  -57.11 | X-H torsion

> <Gold.Protein.ActiveResidues>
 VAL166  LYS551  ARG553  GLY616  TRP617  ASP618  TYR619  PRO620  LYS621  CYS622 
 ASP623  PHE694  ASN695  SER759  ASP760  ASP761  ALA762  ILE779  LEU786  VAL792 
 PHE793  MET794  SER795  GLU796  ALA797  LYS798  CYS799  TRP800  GLU811  SER814 

> <Gold.Protein.RotatedAtoms>
  151.9784  135.0041  160.0555 H   0  0  0  0  0  0  0  0  0  0  0  0  # atno 6907 bound_to 6896
  152.1719  133.4644  159.4921 H   0  0  0  0  0  0  0  0  0  0  0  0  # atno 6908 bound_to 6896
  150.6903  134.1860  159.4310 H   0  0  0  0  0  0  0  0  0  0  0  0  # atno 6909 bound_to 6896
  144.8306  139.6513  143.6060 H   0  0  0  0  0  0  0  0  0  0  0  0  # atno 7974 bound_to 7965
  155.3210  140.0462  157.3039 H   0  0  0  0  0  0  0  0  0  0  0  0  # atno 8008 bound_to 7997
  154.5380  140.2278  155.8656 H   0  0  0  0  0  0  0  0  0  0  0  0  # atno 8009 bound_to 7997
  156.1853  140.3064  155.9234 H   0  0  0  0  0  0  0  0  0  0  0  0  # atno 8010 bound_to 7997
  140.5555  143.9433  150.6606 H   0  0  0  0  0  0  0  0  0  0  0  0  # atno 10167 bound_to 10162
  157.5461  130.8732  149.8894 H   0  0  0  0  0  0  0  0  0  0  0  0  # atno 10718 bound_to 10713
  154.0843  135.6586  153.4842 H   0  0  0  0  0  0  0  0  0  0  0  0  # atno 10763 bound_to 10752
  153.0344  135.5187  154.7443 H   0  0  0  0  0  0  0  0  0  0  0  0  # atno 10764 bound_to 10752
  154.6547  135.3006  154.9911 H   0  0  0  0  0  0  0  0  0  0  0  0  # atno 10765 bound_to 10752
  139.8904  134.9508  156.6436 H   0  0  0  0  0  0  0  0  0  0  0  0  # atno 11005 bound_to 11000
  146.2609  139.6408  142.9363 LP  0  0  0  0  0  0  0  0  0  0  0  0  # atno 17320 bound_to 7965
  145.4905  141.0438  143.2596 LP  0  0  0  0  0  0  0  0  0  0  0  0  # atno 17321 bound_to 7965
  140.2870  143.3350  152.1098 LP  0  0  0  0  0  0  0  0  0  0  0  0  # atno 17342 bound_to 10162
  139.5046  144.6778  151.6084 LP  0  0  0  0  0  0  0  0  0  0  0  0  # atno 17343 bound_to 10162
  156.0537  130.3712  150.1141 LP  0  0  0  0  0  0  0  0  0  0  0  0  # atno 17370 bound_to 10713
  156.9317  130.9716  151.3532 LP  0  0  0  0  0  0  0  0  0  0  0  0  # atno 17371 bound_to 10713
  140.7575  133.8845  155.8393 LP  0  0  0  0  0  0  0  0  0  0  0  0  # atno 17394 bound_to 11000
  140.9950  134.1228  157.4372 LP  0  0  0  0  0  0  0  0  0  0  0  0  # atno 17395 bound_to 11000

$$$$
