AV-unprocessed.smi:2896|AV-procd|sdf|11136|dock4
  -GOLD-   2272016 13D 1   1.00000     0.00000
 Structure written by MMmdl.
 50 51  0  0  0  0  0  0  0  0  2 V2000
  147.5078  134.5100  154.8529 C   0  0  0  0  0  0  0  0  0  0  0  0
  147.8282  133.0129  155.0101 C   0  0  2  0  0  0  0  0  0  0  0  0
  148.4985  132.7677  156.3803 C   0  0  0  0  0  0  0  0  0  0  0  0
  147.5599  132.8747  157.4941 N   0  0  0  0  0  0  0  0  0  0  0  0
  147.7364  133.6131  158.6040 C   0  0  0  0  0  0  0  0  0  0  0  0
  148.7534  134.2834  158.7889 O   0  0  0  0  0  0  0  0  0  0  0  0
  146.6066  133.6190  159.6654 C   0  0  0  0  0  0  0  0  0  0  0  0
  145.2239  133.9573  159.0504 C   0  0  0  0  0  0  0  0  0  0  0  0
  146.4939  132.1898  160.2542 C   0  0  0  0  0  0  0  0  0  0  0  0
  146.9749  134.6768  160.7236 C   0  0  0  0  0  0  0  0  0  0  0  0
  147.1058  134.3124  162.0859 C   0  0  0  0  0  0  0  0  0  0  0  0
  147.4421  135.2907  163.0399 C   0  0  0  0  0  0  0  0  0  0  0  0
  147.6378  136.6127  162.6007 C   0  0  0  0  0  0  0  0  0  0  0  0
  147.5182  136.9856  161.3105 N   0  0  0  0  0  0  0  0  0  0  0  0
  147.1946  136.0402  160.4021 C   0  0  0  0  0  0  0  0  0  0  0  0
  148.6932  132.4980  153.8331 C   0  0  0  0  0  0  0  0  0  0  0  0
  147.9037  132.1618  152.6206 N   0  3  0  0  0  0  0  0  0  0  0  0
  146.8321  131.1772  152.9037 C   0  0  0  0  0  0  0  0  0  0  0  0
  146.0747  130.8170  151.6146 C   0  0  0  0  0  0  0  0  0  0  0  0
  145.5450  131.9988  151.0278 O   0  0  0  0  0  0  0  0  0  0  0  0
  146.5690  132.9171  150.6669 C   0  0  0  0  0  0  0  0  0  0  0  0
  147.3458  133.3474  151.9231 C   0  0  0  0  0  0  0  0  0  0  0  0
  148.4186  135.1091  154.8237 H   0  0  0  0  0  0  0  0  0  0  0  0
  146.9010  134.8710  155.6838 H   0  0  0  0  0  0  0  0  0  0  0  0
  146.9485  134.7089  153.9387 H   0  0  0  0  0  0  0  0  0  0  0  0
  146.8820  132.4722  155.0200 H   0  0  0  0  0  0  0  0  0  0  0  0
  149.0099  131.8035  156.3884 H   0  0  0  0  0  0  0  0  0  0  0  0
  149.2727  133.5170  156.5477 H   0  0  0  0  0  0  0  0  0  0  0  0
  146.6958  132.3589  157.4092 H   0  0  0  0  0  0  0  0  0  0  0  0
  145.1944  134.9423  158.5839 H   0  0  0  0  0  0  0  0  0  0  0  0
  144.4471  133.9480  159.8158 H   0  0  0  0  0  0  0  0  0  0  0  0
  144.9348  133.2292  158.2908 H   0  0  0  0  0  0  0  0  0  0  0  0
  147.4242  131.8488  160.7109 H   0  0  0  0  0  0  0  0  0  0  0  0
  146.2363  131.4639  159.4816 H   0  0  0  0  0  0  0  0  0  0  0  0
  145.7149  132.1331  161.0153 H   0  0  0  0  0  0  0  0  0  0  0  0
  146.9469  133.2932  162.4052 H   0  0  0  0  0  0  0  0  0  0  0  0
  147.5466  135.0333  164.0835 H   0  0  0  0  0  0  0  0  0  0  0  0
  147.8970  137.3905  163.3036 H   0  0  0  0  0  0  0  0  0  0  0  0
  147.1159  136.4087  159.3912 H   0  0  0  0  0  0  0  0  0  0  0  0
  149.4247  133.2688  153.5853 H   0  0  0  0  0  0  0  0  0  0  0  0
  149.2666  131.6163  154.1199 H   0  0  0  0  0  0  0  0  0  0  0  0
  147.2631  130.2745  153.3383 H   0  0  0  0  0  0  0  0  0  0  0  0
  146.1408  131.5901  153.6403 H   0  0  0  0  0  0  0  0  0  0  0  0
  146.7293  130.3056  150.9067 H   0  0  0  0  0  0  0  0  0  0  0  0
  145.2539  130.1354  151.8392 H   0  0  0  0  0  0  0  0  0  0  0  0
  147.2369  132.4660  149.9310 H   0  0  0  0  0  0  0  0  0  0  0  0
  146.1126  133.7857  150.1917 H   0  0  0  0  0  0  0  0  0  0  0  0
  146.6861  133.8941  152.5989 H   0  0  0  0  0  0  0  0  0  0  0  0
  148.1423  134.0308  151.6317 H   0  0  0  0  0  0  0  0  0  0  0  0
  148.5389  131.7105  151.9779 H   0  0  0  0  0  0  0  0  0  0  0  0
  1  2  1  0  0  0  0
  1 23  1  0  0  0  0
  1 24  1  0  0  0  0
  1 25  1  0  0  0  0
  2  3  1  0  0  0  0
  2 16  1  0  0  0  0
  2 26  1  0  0  0  0
  3  4  1  0  0  0  0
  3 27  1  0  0  0  0
  3 28  1  0  0  0  0
  4  5  1  0  0  0  0
  4 29  1  0  0  0  0
  5  6  2  0  0  0  0
  5  7  1  0  0  0  0
  7  8  1  0  0  0  0
  7  9  1  0  0  0  0
  7 10  1  0  0  0  0
  8 30  1  0  0  0  0
  8 31  1  0  0  0  0
  8 32  1  0  0  0  0
  9 33  1  0  0  0  0
  9 34  1  0  0  0  0
  9 35  1  0  0  0  0
 10 15  1  0  0  0  0
 10 11  2  0  0  0  0
 11 12  1  0  0  0  0
 11 36  1  0  0  0  0
 12 13  2  0  0  0  0
 12 37  1  0  0  0  0
 13 14  1  0  0  0  0
 13 38  1  0  0  0  0
 14 15  2  0  0  0  0
 15 39  1  0  0  0  0
 16 17  1  0  0  0  0
 16 40  1  0  0  0  0
 16 41  1  0  0  0  0
 17 22  1  0  0  0  0
 17 18  1  0  0  0  0
 17 50  1  0  0  0  0
 18 19  1  0  0  0  0
 18 42  1  0  0  0  0
 18 43  1  0  0  0  0
 19 20  1  0  0  0  0
 19 44  1  0  0  0  0
 19 45  1  0  0  0  0
 20 21  1  0  0  0  0
 21 22  1  0  0  0  0
 21 46  1  0  0  0  0
 21 47  1  0  0  0  0
 22 48  1  0  0  0  0
 22 49  1  0  0  0  0
M  CHG  1  17   1
M  END
> <s_m_source_file>
AV-unprocessed.smi

> <i_m_source_file_index>
2896

> <i_lp_mmshare_version>
43012

> <i_f3d_flags>
0

> <s_epik_input>
W0NIMl0xW0NIMl1PW0NIMl1bQ0gyXU4xW0NIMl1bQ0BIXShbQ0gzXSlbQ0gyXVtOSF1DKD1PKUMoW0NIM10pKFtDSDNdKWMyW2NIXVtjSF1bY0hdbltjSF0y

> <s_epik_cmdline>
J2VwaWtfcHl0aG9uJywgJy1waCcsICc3LjAnLCAnLXRuJywgJzgnLCAnLW1hJywgJzIwMCcsICctbWV0YWxfYmluZGluZycsICctaW1hZScsICc8aW5maWxlLm1hZT4nLCAnLW9tYWUnLCAnPG91dGZpbGUubWFlPic=

> <r_epik_Ionization_Penalty>
0.378644

> <r_epik_Ionization_Penalty_Charging>
0.372108

> <r_epik_Ionization_Penalty_Neutral>
0.0065361

> <r_epik_State_Penalty>
0.380038

> <r_epik_Charging_Adjusted_Penalty>
0.752147

> <i_epik_Tot_Q>
1

> <i_epik_Tot_abs_Q>
1

> <r_epik_Metal_State_Penalty>
0.375202

> <b_epik_Metal_Only>
0

> <s_lp_Force_Field>
OPLS_2005

> <r_lp_Energy>
28.248

> <b_lp_Chiralities_Consistent>
1

> <s_lp_Variant>
AV-unprocessed.smi:2896-1

> <Gold.Version>
5.8.1

> <Gold.Id.Protein>
6NUR|6NUR_protein|mol2

> <Gold.PLP.Fitness>
41.4481

> <Gold.PLP.PLP>
-33.5549

> <Gold.PLP.part.hbond>
-4.0000

> <Gold.PLP.part.metal>
0.0000

> <Gold.PLP.part.buried>
-2.4615

> <Gold.PLP.part.nonpolar>
-27.3435

> <Gold.PLP.part.repulsive>
0.1260

> <Gold.PLP.ligand.clash>
0.0000

> <Gold.PLP.ligand.torsion>
0.6101

> <Gold.PLP.Chemscore.Hbond>
2.9760

> <Gold.PLP.Chemscore.CHOScore>
0.0000

> <Gold.PLP.Chemscore.Metal>
0.0000

> <Gold.Chemscore.Hbonds>
donor molecule, donor type, donor heavy atom, donor atom, acceptor molecule, acceptor atom, score
      L1  H    17    50       P1 10747  1.00
      P1  H  6896  6908       L1     6  1.00
      P1  H  6934  6947       L1    14  0.78

> <Gold.PLP.Chemscore.Internal.Correction>
0.1853

> <Gold.Rescore>
     Score         DG    S(hbond)    S(metal)    S(lipo)     H(rot)  DE(clash)    DE(int)     intcor
     18.99     -20.82       2.84        0.00      89.05       1.78       0.16       1.67       ----

> <Gold.Chemscore.Fitness>
18.9874

> <Gold.Chemscore.DG>
-20.8192

> <Gold.Chemscore.ZeroCoef>
-5.4800

> <Gold.Chemscore.Hbond>
2.8354

> <Gold.Chemscore.Metal>
0.0000

> <Gold.Chemscore.Lipo>
89.0463

> <Gold.Chemscore.Internal_Hbond>
0.0000

> <Gold.Chemscore.DEClash>
0.1598

> <Gold.Chemscore.DEInternal>
1.6720

> <Gold.Chemscore.Rot>
1.7771

> <Gold.Chemscore.Internal.Correction>
   9.000000E+99

> <Gold.Chemscore.Hbonds>
donor molecule, donor type, donor heavy atom, donor atom, acceptor molecule, acceptor atom, score
      L1  H    17    50       P1 10747  0.96
      P1  H  6896  6908       L1     6  0.97
      P1  H  6934  6947       L1    14  0.70

> <Gold.Chemscore.Hbond.Weighted>
-9.4701

> <Gold.Chemscore.Metal.Weighted>
-0.0000

> <Gold.Chemscore.Lipo.Weighted>
-10.4184

> <Gold.Chemscore.Internal_Hbond.Weighted>
0.0000

> <Gold.Chemscore.DEClash.Weighted>
0.1598

> <Gold.Chemscore.DEInternal.Weighted>
1.6720

> <Gold.Chemscore.Rot.Weighted>
4.5494

> <Gold.Chemscore.Internal.Correction.Weighted>
   9.000000E+99

> <Gold.Protein.RotatedTorsions>
[ 6907 6896 6895 6894 ] final  139.22 input  -60.11 | X-H torsion
[ 7974 7965 7964 7962 ] final   55.11 input  175.53 | X-H torsion
[ 8008 7997 7996 7995 ] final   24.02 input   59.86 | X-H torsion
[ 10167 10162 10161 10158 ] final  130.03 input  -65.29 | X-H torsion
[ 10718 10713 10712 10709 ] final -156.47 input   66.30 | X-H torsion
[ 10763 10752 10751 10750 ] final  -24.26 input  -60.55 | X-H torsion
[ 11005 11000 10999 10996 ] final  128.09 input  -57.11 | X-H torsion

> <Gold.Protein.ActiveResidues>
 VAL166  LYS551  ARG553  GLY616  TRP617  ASP618  TYR619  PRO620  LYS621  CYS622 
 ASP623  PHE694  ASN695  SER759  ASP760  ASP761  ALA762  ILE779  LEU786  VAL792 
 PHE793  MET794  SER795  GLU796  ALA797  LYS798  CYS799  TRP800  GLU811  SER814 

> <Gold.Protein.RotatedAtoms>
  152.2575  133.5268  159.5361 H   0  0  0  0  0  0  0  0  0  0  0  0  # atno 6907 bound_to 6896
  150.7114  134.0876  159.3929 H   0  0  0  0  0  0  0  0  0  0  0  0  # atno 6908 bound_to 6896
  151.8794  135.0459  160.0538 H   0  0  0  0  0  0  0  0  0  0  0  0  # atno 6909 bound_to 6896
  145.9538  139.3996  143.0290 H   0  0  0  0  0  0  0  0  0  0  0  0  # atno 7974 bound_to 7965
  154.9899  140.3112  155.4910 H   0  0  0  0  0  0  0  0  0  0  0  0  # atno 8008 bound_to 7997
  156.2941  140.2251  156.4943 H   0  0  0  0  0  0  0  0  0  0  0  0  # atno 8009 bound_to 7997
  154.7713  140.0452  157.1041 H   0  0  0  0  0  0  0  0  0  0  0  0  # atno 8010 bound_to 7997
  139.5449  144.6764  151.4505 H   0  0  0  0  0  0  0  0  0  0  0  0  # atno 10167 bound_to 10162
  156.5269  130.8503  151.2702 H   0  0  0  0  0  0  0  0  0  0  0  0  # atno 10718 bound_to 10713
  153.6809  135.6967  153.5118 H   0  0  0  0  0  0  0  0  0  0  0  0  # atno 10763 bound_to 10752
  153.2485  135.4282  155.0772 H   0  0  0  0  0  0  0  0  0  0  0  0  # atno 10764 bound_to 10752
  154.8400  135.3525  154.6353 H   0  0  0  0  0  0  0  0  0  0  0  0  # atno 10765 bound_to 10752
  139.9542  134.9616  156.8951 H   0  0  0  0  0  0  0  0  0  0  0  0  # atno 11005 bound_to 11000
  145.8135  140.9714  143.0936 LP  0  0  0  0  0  0  0  0  0  0  0  0  # atno 17320 bound_to 7965
  144.6801  139.9950  143.7484 LP  0  0  0  0  0  0  0  0  0  0  0  0  # atno 17321 bound_to 7965
  140.6694  143.8328  150.6980 LP  0  0  0  0  0  0  0  0  0  0  0  0  # atno 17342 bound_to 10162
  140.1747  143.4165  152.1976 LP  0  0  0  0  0  0  0  0  0  0  0  0  # atno 17343 bound_to 10162
  157.7428  130.9898  150.2543 LP  0  0  0  0  0  0  0  0  0  0  0  0  # atno 17370 bound_to 10713
  156.3096  130.3770  149.7674 LP  0  0  0  0  0  0  0  0  0  0  0  0  # atno 17371 bound_to 10713
  140.5648  134.0500  155.7410 LP  0  0  0  0  0  0  0  0  0  0  0  0  # atno 17394 bound_to 11000
  141.1211  133.9460  157.2728 LP  0  0  0  0  0  0  0  0  0  0  0  0  # atno 17395 bound_to 11000

$$$$
