AV-unprocessed.smi:47|AV-procd|sdf|434|dock1
  -GOLD-   2262016303D 1   1.00000     0.00000
 Structure written by MMmdl.
 32 34  0  0  0  0  0  0  0  0  2 V2000
  145.7480  140.4397  154.8123 O   0  0  0  0  0  0  0  0  0  0  0  0
  147.1413  140.6638  154.8491 C   0  0  2  0  0  0  0  0  0  0  0  0
  147.6818  141.1607  153.5081 C   0  0  0  0  0  0  0  0  0  0  0  0
  149.1075  140.7842  153.5011 N   0  3  0  0  0  0  0  0  0  0  0  0
  149.2964  139.6562  154.4413 C   0  0  1  0  0  0  0  0  0  0  0  0
  150.3263  140.1542  155.4149 C   0  0  0  0  0  0  0  0  0  0  0  0
  151.5285  139.5781  155.5175 N   0  0  0  0  0  0  0  0  0  0  0  0
  152.2524  140.2076  156.4678 N   0  0  0  0  0  0  0  0  0  0  0  0
  151.3984  141.1421  156.8806 C   0  0  0  0  0  0  0  0  0  0  0  0
  151.7537  142.1086  157.9458 C   0  0  0  0  0  0  0  0  0  0  0  0
  152.5522  141.7185  159.0486 C   0  0  0  0  0  0  0  0  0  0  0  0
  152.8903  142.6338  160.0643 C   0  0  0  0  0  0  0  0  0  0  0  0
  152.4344  143.9620  159.9960 C   0  0  0  0  0  0  0  0  0  0  0  0
  151.6413  144.3702  158.9093 C   0  0  0  0  0  0  0  0  0  0  0  0
  151.3056  143.4513  157.8961 C   0  0  0  0  0  0  0  0  0  0  0  0
  150.1761  141.1667  156.2684 N   0  0  0  0  0  0  0  0  0  0  0  0
  147.9266  139.3731  155.0753 C   0  0  0  0  0  0  0  0  0  0  0  0
  147.3753  141.3845  155.6339 H   0  0  0  0  0  0  0  0  0  0  0  0
  149.6782  138.7806  153.9144 H   0  0  0  0  0  0  0  0  0  0  0  0
  145.4562  140.4868  153.9143 H   0  0  0  0  0  0  0  0  0  0  0  0
  147.1909  140.6431  152.6824 H   0  0  0  0  0  0  0  0  0  0  0  0
  147.5452  142.2328  153.3657 H   0  0  0  0  0  0  0  0  0  0  0  0
  149.4103  140.5409  152.5690 H   0  0  0  0  0  0  0  0  0  0  0  0
  152.9183  140.7056  159.1283 H   0  0  0  0  0  0  0  0  0  0  0  0
  153.5005  142.3154  160.8969 H   0  0  0  0  0  0  0  0  0  0  0  0
  152.6923  144.6652  160.7742 H   0  0  0  0  0  0  0  0  0  0  0  0
  151.2881  145.3893  158.8519 H   0  0  0  0  0  0  0  0  0  0  0  0
  150.6933  143.7937  157.0748 H   0  0  0  0  0  0  0  0  0  0  0  0
  147.9825  139.0713  156.1218 H   0  0  0  0  0  0  0  0  0  0  0  0
  147.4480  138.5613  154.5251 H   0  0  0  0  0  0  0  0  0  0  0  0
  149.6503  141.5648  153.8436 H   0  0  0  0  0  0  0  0  0  0  0  0
  151.8820  138.7931  154.9888 H   0  0  0  0  0  0  0  0  0  0  0  0
  1  2  1  0  0  0  0
  1 20  1  0  0  0  0
  2 18  1  0  0  0  0
  2 17  1  0  0  0  0
  2  3  1  0  0  0  0
  3  4  1  0  0  0  0
  3 21  1  0  0  0  0
  3 22  1  0  0  0  0
  4  5  1  0  0  0  0
  4 23  1  0  0  0  0
  4 31  1  0  0  0  0
  5 19  1  0  0  0  0
  5  6  1  0  0  0  0
  5 17  1  0  0  0  0
  6 16  2  0  0  0  0
  6  7  1  0  0  0  0
  7  8  1  0  0  0  0
  7 32  1  0  0  0  0
  8  9  2  0  0  0  0
  9 10  1  0  0  0  0
  9 16  1  0  0  0  0
 10 15  1  0  0  0  0
 10 11  2  0  0  0  0
 11 12  1  0  0  0  0
 11 24  1  0  0  0  0
 12 13  2  0  0  0  0
 12 25  1  0  0  0  0
 13 14  1  0  0  0  0
 13 26  1  0  0  0  0
 14 15  2  0  0  0  0
 14 27  1  0  0  0  0
 15 28  1  0  0  0  0
 17 29  1  0  0  0  0
 17 30  1  0  0  0  0
M  CHG  1   4   1
M  END
> <s_m_source_file>
AV-unprocessed.smi

> <i_m_source_file_index>
47

> <i_lp_mmshare_version>
43012

> <i_f3d_flags>
0

> <s_epik_input>
W09IXVtDQEhdMVtDSDJdW05IXVtDQEBIXShbQ0gyXTEpYzJuW25IXWMobjIpLWMzW2NIXVtjSF1bY0hdW2NIXVtjSF0z

> <s_epik_cmdline>
J2VwaWtfcHl0aG9uJywgJy1waCcsICc3LjAnLCAnLXRuJywgJzgnLCAnLW1hJywgJzIwMCcsICctbWV0YWxfYmluZGluZycsICctaW1hZScsICc8aW5maWxlLm1hZT4nLCAnLW9tYWUnLCAnPG91dGZpbGUubWFlPic=

> <r_epik_Ionization_Penalty>
1.14296

> <r_epik_Ionization_Penalty_Charging>
0.0688988

> <r_epik_Ionization_Penalty_Neutral>
1.07406

> <r_epik_State_Penalty>
1.72347

> <r_epik_Charging_Adjusted_Penalty>
1.79237

> <i_epik_Tot_Q>
1

> <i_epik_Tot_abs_Q>
1

> <r_epik_Metal_State_Penalty>
2.22085

> <b_epik_Metal_Only>
0

> <s_lp_Force_Field>
OPLS_2005

> <r_lp_Energy>
30.3424

> <b_lp_Chiralities_Consistent>
1

> <s_lp_Variant>
AV-unprocessed.smi:47-12

> <Gold.Version>
5.8.1

> <Gold.Id.Protein>
6NUR|6NUR_protein|mol2

> <Gold.PLP.Fitness>
38.9043

> <Gold.PLP.PLP>
-33.5631

> <Gold.PLP.part.hbond>
-2.6462

> <Gold.PLP.part.metal>
0.0000

> <Gold.PLP.part.buried>
-5.4397

> <Gold.PLP.part.nonpolar>
-26.1835

> <Gold.PLP.part.repulsive>
1.0143

> <Gold.PLP.ligand.clash>
0.0000

> <Gold.PLP.ligand.torsion>
0.6177

> <Gold.PLP.Chemscore.Hbond>
2.1863

> <Gold.PLP.Chemscore.CHOScore>
0.0000

> <Gold.PLP.Chemscore.Metal>
0.0000

> <Gold.Chemscore.Hbonds>
donor molecule, donor type, donor heavy atom, donor atom, acceptor molecule, acceptor atom, score
      L1  H     1    20       P1 10175  0.35
      L1  H     4    23       P1  7957  0.94
      P1  H  7997  8009       L1     8  0.88

> <Gold.PLP.Chemscore.Internal.Correction>
0.0176

> <Gold.Rescore>
     Score         DG    S(hbond)    S(metal)    S(lipo)     H(rot)  DE(clash)    DE(int)     intcor
     18.32     -18.62       2.15        0.00      83.78       1.50       0.10       0.20       ----

> <Gold.Chemscore.Fitness>
18.3181

> <Gold.Chemscore.DG>
-18.6197

> <Gold.Chemscore.ZeroCoef>
-5.4800

> <Gold.Chemscore.Hbond>
2.1464

> <Gold.Chemscore.Metal>
0.0000

> <Gold.Chemscore.Lipo>
83.7764

> <Gold.Chemscore.Internal_Hbond>
0.0000

> <Gold.Chemscore.DEClash>
0.0981

> <Gold.Chemscore.DEInternal>
0.2036

> <Gold.Chemscore.Rot>
1.4966

> <Gold.Chemscore.Internal.Correction>
   9.000000E+99

> <Gold.Chemscore.Hbonds>
donor molecule, donor type, donor heavy atom, donor atom, acceptor molecule, acceptor atom, score
      L1  H     1    20       P1 10175  0.34
      L1  H     4    23       P1  7957  0.90
      P1  H  7997  8009       L1     8  0.82

> <Gold.Chemscore.Hbond.Weighted>
-7.1691

> <Gold.Chemscore.Metal.Weighted>
-0.0000

> <Gold.Chemscore.Lipo.Weighted>
-9.8018

> <Gold.Chemscore.Internal_Hbond.Weighted>
0.0000

> <Gold.Chemscore.DEClash.Weighted>
0.0981

> <Gold.Chemscore.DEInternal.Weighted>
0.2036

> <Gold.Chemscore.Rot.Weighted>
3.8312

> <Gold.Chemscore.Internal.Correction.Weighted>
   9.000000E+99

> <Gold.Protein.RotatedTorsions>
[ 6907 6896 6895 6894 ] final   20.07 input  -60.11 | X-H torsion
[ 7974 7965 7964 7962 ] final  -47.02 input  175.53 | X-H torsion
[ 8008 7997 7996 7995 ] final -165.92 input   59.86 | X-H torsion
[ 10167 10162 10161 10158 ] final -109.42 input  -65.29 | X-H torsion
[ 10718 10713 10712 10709 ] final  156.04 input   66.30 | X-H torsion
[ 10763 10752 10751 10750 ] final    5.26 input  -60.55 | X-H torsion
[ 11005 11000 10999 10996 ] final -113.56 input  -57.11 | X-H torsion

> <Gold.Protein.ActiveResidues>
 VAL166  LYS551  ARG553  GLY616  TRP617  ASP618  TYR619  PRO620  LYS621  CYS622 
 ASP623  PHE694  ASN695  SER759  ASP760  ASP761  ALA762  ILE779  LEU786  VAL792 
 PHE793  MET794  SER795  GLU796  ALA797  LYS798  CYS799  TRP800  GLU811  SER814 

> <Gold.Protein.RotatedAtoms>
  151.8906  135.0418  160.0497 H   0  0  0  0  0  0  0  0  0  0  0  0  # atno 6907 bound_to 6896
  152.2439  133.5153  159.5294 H   0  0  0  0  0  0  0  0  0  0  0  0  # atno 6908 bound_to 6896
  150.7062  134.0968  159.3994 H   0  0  0  0  0  0  0  0  0  0  0  0  # atno 6909 bound_to 6896
  145.9659  140.7432  142.9434 H   0  0  0  0  0  0  0  0  0  0  0  0  # atno 7974 bound_to 7965
  155.8566  140.0971  157.1641 H   0  0  0  0  0  0  0  0  0  0  0  0  # atno 8008 bound_to 7997
  154.3988  140.1373  156.3971 H   0  0  0  0  0  0  0  0  0  0  0  0  # atno 8009 bound_to 7997
  155.7903  140.3456  155.5348 H   0  0  0  0  0  0  0  0  0  0  0  0  # atno 8010 bound_to 7997
  140.1555  143.4163  152.1464 H   0  0  0  0  0  0  0  0  0  0  0  0  # atno 10167 bound_to 10162
  157.2103  131.0696  151.1973 H   0  0  0  0  0  0  0  0  0  0  0  0  # atno 10718 bound_to 10713
  153.2614  135.6923  153.7574 H   0  0  0  0  0  0  0  0  0  0  0  0  # atno 10763 bound_to 10752
  153.6632  135.3357  155.3134 H   0  0  0  0  0  0  0  0  0  0  0  0  # atno 10764 bound_to 10752
  154.8432  135.4482  154.1606 H   0  0  0  0  0  0  0  0  0  0  0  0  # atno 10765 bound_to 10752
  141.0606  133.9541  157.2673 H   0  0  0  0  0  0  0  0  0  0  0  0  # atno 11005 bound_to 11000
  144.6825  140.2669  143.7311 LP  0  0  0  0  0  0  0  0  0  0  0  0  # atno 17320 bound_to 7965
  145.7974  139.1951  143.2068 LP  0  0  0  0  0  0  0  0  0  0  0  0  # atno 17321 bound_to 7965
  139.5405  144.7252  151.4748 LP  0  0  0  0  0  0  0  0  0  0  0  0  # atno 17342 bound_to 10162
  140.6676  143.8365  150.6960 LP  0  0  0  0  0  0  0  0  0  0  0  0  # atno 17343 bound_to 10162
  157.3679  130.7165  149.6545 LP  0  0  0  0  0  0  0  0  0  0  0  0  # atno 17370 bound_to 10713
  155.9691  130.4207  150.4435 LP  0  0  0  0  0  0  0  0  0  0  0  0  # atno 17371 bound_to 10713
  139.9429  135.0188  156.8765 LP  0  0  0  0  0  0  0  0  0  0  0  0  # atno 17394 bound_to 11000
  140.5875  134.0293  155.7487 LP  0  0  0  0  0  0  0  0  0  0  0  0  # atno 17395 bound_to 11000

$$$$
