AV-unprocessed.smi:737|AV-procd|sdf|3536|dock1
  -GOLD-   22720 0523D 1   1.00000     0.00000
 Structure written by MMmdl.
 45 47  0  0  0  0  0  0  0  0  1 V2000
  150.2673  135.1564  155.2106 C   0  0  0  0  0  0  0  0  0  0  0  0
  150.0104  136.3274  154.3879 N   0  0  0  0  0  0  0  0  0  0  0  0
  150.7353  137.5114  154.5820 C   0  0  0  0  0  0  0  0  0  0  0  0
  152.0700  137.4577  154.7984 N   0  0  0  0  0  0  0  0  0  0  0  0
  152.7220  138.6127  154.9839 C   0  0  0  0  0  0  0  0  0  0  0  0
  152.2389  139.8650  154.9909 N   0  0  0  0  0  0  0  0  0  0  0  0
  150.9180  139.9295  154.7757 C   0  0  0  0  0  0  0  0  0  0  0  0
  150.1578  141.0857  154.7313 N   0  0  0  0  0  0  0  0  0  0  0  0
  148.9417  140.6011  154.4929 C   0  0  0  0  0  0  0  0  0  0  0  0
  148.8163  139.2645  154.3776 N   0  0  0  0  0  0  0  0  0  0  0  0
  147.5886  138.5329  154.1173 C   0  0  0  0  0  0  0  0  0  0  0  0
  147.1544  138.6115  152.6391 C   0  0  2  0  0  0  0  0  0  0  0  0
  146.9882  139.9464  152.2034 O   0  0  0  0  0  0  0  0  0  0  0  0
  145.8686  137.8270  152.3375 C   0  0  0  0  0  0  0  0  0  0  0  0
  145.9635  136.5213  152.8905 O   0  0  0  0  0  0  0  0  0  0  0  0
  144.8239  135.7743  152.7446 C   0  0  0  0  0  0  0  0  0  0  0  0
  143.6292  136.1498  153.4048 C   0  0  0  0  0  0  0  0  0  0  0  0
  143.5811  137.3802  154.2924 C   0  0  0  0  0  0  0  0  0  0  0  0
  142.4661  135.3692  153.2428 C   0  0  0  0  0  0  0  0  0  0  0  0
  142.4930  134.2140  152.4399 C   0  0  0  0  0  0  0  0  0  0  0  0
  143.6854  133.8294  151.7995 C   0  0  0  0  0  0  0  0  0  0  0  0
  144.8543  134.6027  151.9532 C   0  0  0  0  0  0  0  0  0  0  0  0
  146.1369  134.1714  151.2669 C   0  0  0  0  0  0  0  0  0  0  0  0
  150.1080  138.7738  154.5611 C   0  0  0  0  0  0  0  0  0  0  0  0
  149.6014  134.3446  154.9186 H   0  0  0  0  0  0  0  0  0  0  0  0
  150.0938  135.3775  156.2643 H   0  0  0  0  0  0  0  0  0  0  0  0
  151.2957  134.8153  155.0871 H   0  0  0  0  0  0  0  0  0  0  0  0
  149.2584  136.2991  153.7141 H   0  0  0  0  0  0  0  0  0  0  0  0
  153.7849  138.5238  155.1520 H   0  0  0  0  0  0  0  0  0  0  0  0
  148.0892  141.2579  154.3959 H   0  0  0  0  0  0  0  0  0  0  0  0
  147.7423  137.4912  154.4024 H   0  0  0  0  0  0  0  0  0  0  0  0
  146.8106  138.9120  154.7786 H   0  0  0  0  0  0  0  0  0  0  0  0
  147.9524  138.1931  152.0246 H   0  0  0  0  0  0  0  0  0  0  0  0
  147.6929  140.1595  151.6107 H   0  0  0  0  0  0  0  0  0  0  0  0
  144.9955  138.3576  152.7197 H   0  0  0  0  0  0  0  0  0  0  0  0
  145.7419  137.7478  151.2566 H   0  0  0  0  0  0  0  0  0  0  0  0
  142.8201  137.2717  155.0658 H   0  0  0  0  0  0  0  0  0  0  0  0
  143.3410  138.2633  153.7009 H   0  0  0  0  0  0  0  0  0  0  0  0
  144.5373  137.5468  154.7892 H   0  0  0  0  0  0  0  0  0  0  0  0
  141.5489  135.6525  153.7381 H   0  0  0  0  0  0  0  0  0  0  0  0
  141.5997  133.6186  152.3206 H   0  0  0  0  0  0  0  0  0  0  0  0
  143.6992  132.9369  151.1914 H   0  0  0  0  0  0  0  0  0  0  0  0
  146.0779  133.1343  150.9356 H   0  0  0  0  0  0  0  0  0  0  0  0
  146.9858  134.2580  151.9457 H   0  0  0  0  0  0  0  0  0  0  0  0
  146.3279  134.7973  150.3954 H   0  0  0  0  0  0  0  0  0  0  0  0
  1  2  1  0  0  0  0
  1 25  1  0  0  0  0
  1 26  1  0  0  0  0
  1 27  1  0  0  0  0
  2  3  1  0  0  0  0
  2 28  1  0  0  0  0
  3 24  1  0  0  0  0
  3  4  2  0  0  0  0
  4  5  1  0  0  0  0
  5  6  2  0  0  0  0
  5 29  1  0  0  0  0
  6  7  1  0  0  0  0
  7 24  2  0  0  0  0
  7  8  1  0  0  0  0
  8  9  2  0  0  0  0
  9 10  1  0  0  0  0
  9 30  1  0  0  0  0
 10 11  1  0  0  0  0
 10 24  1  0  0  0  0
 11 12  1  0  0  0  0
 11 31  1  0  0  0  0
 11 32  1  0  0  0  0
 12 13  1  0  0  0  0
 12 14  1  0  0  0  0
 12 33  1  0  0  0  0
 13 34  1  0  0  0  0
 14 15  1  0  0  0  0
 14 35  1  0  0  0  0
 14 36  1  0  0  0  0
 15 16  1  0  0  0  0
 16 22  1  0  0  0  0
 16 17  2  0  0  0  0
 17 18  1  0  0  0  0
 17 19  1  0  0  0  0
 18 37  1  0  0  0  0
 18 38  1  0  0  0  0
 18 39  1  0  0  0  0
 19 20  2  0  0  0  0
 19 40  1  0  0  0  0
 20 21  1  0  0  0  0
 20 41  1  0  0  0  0
 21 22  2  0  0  0  0
 21 42  1  0  0  0  0
 22 23  1  0  0  0  0
 23 43  1  0  0  0  0
 23 44  1  0  0  0  0
 23 45  1  0  0  0  0
M  END
> <s_m_source_file>
AV-unprocessed.smi

> <i_m_source_file_index>
737

> <i_lp_mmshare_version>
43012

> <i_f3d_flags>
0

> <s_epik_input>
bjFbY0hdbmMoW05IXVtDSDNdKWMoYzEyKW4oW2NIXW4yKVtDSDJdW0NASF0oW09IXSlbQ0gyXU9jM2MoW0NIM10pW2NIXVtjSF1bY0hdYzNbQ0gzXQ==

> <s_epik_cmdline>
J2VwaWtfcHl0aG9uJywgJy1waCcsICc3LjAnLCAnLXRuJywgJzgnLCAnLW1hJywgJzIwMCcsICctbWV0YWxfYmluZGluZycsICctaW1hZScsICc8aW5maWxlLm1hZT4nLCAnLW9tYWUnLCAnPG91dGZpbGUubWFlPic=

> <r_lp_tautomer_probability>
1

> <r_epik_Ionization_Penalty>
0.0070961

> <r_epik_Ionization_Penalty_Charging>
0

> <r_epik_Ionization_Penalty_Neutral>
0.0070961

> <r_epik_State_Penalty>
-0

> <r_epik_Charging_Adjusted_Penalty>
0

> <i_epik_Tot_Q>
0

> <i_epik_Tot_abs_Q>
0

> <r_epik_Metal_State_Penalty>
-0

> <b_epik_Metal_Only>
0

> <s_lp_Force_Field>
OPLS_2005

> <r_lp_Energy>
18.2803

> <b_lp_Chiralities_Consistent>
1

> <s_lp_Variant>
AV-unprocessed.smi:737-1

> <Gold.Version>
5.8.1

> <Gold.Id.Protein>
6NUR|6NUR_protein|mol2

> <Gold.PLP.Fitness>
47.7765

> <Gold.PLP.PLP>
-40.9983

> <Gold.PLP.part.hbond>
-5.9114

> <Gold.PLP.part.metal>
0.0000

> <Gold.PLP.part.buried>
-1.1895

> <Gold.PLP.part.nonpolar>
-34.4194

> <Gold.PLP.part.repulsive>
0.6653

> <Gold.PLP.ligand.clash>
0.0000

> <Gold.PLP.ligand.torsion>
0.6386

> <Gold.PLP.Chemscore.Hbond>
2.6400

> <Gold.PLP.Chemscore.CHOScore>
0.0000

> <Gold.PLP.Chemscore.Metal>
0.0000

> <Gold.Chemscore.Hbonds>
donor molecule, donor type, donor heavy atom, donor atom, acceptor molecule, acceptor atom, score
      L1  H     2    28       P1  7948  0.80
      L1  H    13    34       P1  7957  1.00
      P1  H 10752 10765       L1     4  0.80

> <Gold.PLP.Chemscore.Internal.Correction>
0.1353

> <Gold.Rescore>
     Score         DG    S(hbond)    S(metal)    S(lipo)     H(rot)  DE(clash)    DE(int)     intcor
     12.54     -13.58       2.45        0.00      62.98       2.91       0.33       0.71       ----

> <Gold.Chemscore.Fitness>
12.5400

> <Gold.Chemscore.DG>
-13.5826

> <Gold.Chemscore.ZeroCoef>
-5.4800

> <Gold.Chemscore.Hbond>
2.4475

> <Gold.Chemscore.Metal>
0.0000

> <Gold.Chemscore.Lipo>
62.9840

> <Gold.Chemscore.Internal_Hbond>
0.0000

> <Gold.Chemscore.DEClash>
0.3338

> <Gold.Chemscore.DEInternal>
0.7089

> <Gold.Chemscore.Rot>
2.9067

> <Gold.Chemscore.Internal.Correction>
   9.000000E+99

> <Gold.Chemscore.Hbonds>
donor molecule, donor type, donor heavy atom, donor atom, acceptor molecule, acceptor atom, score
      L1  H     2    28       P1  7948  0.72
      L1  H    13    34       P1  7957  0.94
      P1  H 10752 10765       L1     4  0.67

> <Gold.Chemscore.Hbond.Weighted>
-8.1747

> <Gold.Chemscore.Metal.Weighted>
-0.0000

> <Gold.Chemscore.Lipo.Weighted>
-7.3691

> <Gold.Chemscore.Internal_Hbond.Weighted>
0.0000

> <Gold.Chemscore.DEClash.Weighted>
0.3338

> <Gold.Chemscore.DEInternal.Weighted>
0.7089

> <Gold.Chemscore.Rot.Weighted>
7.4412

> <Gold.Chemscore.Internal.Correction.Weighted>
   9.000000E+99

> <Gold.Protein.RotatedTorsions>
[ 6907 6896 6895 6894 ] final -116.01 input  -60.11 | X-H torsion
[ 7974 7965 7964 7962 ] final -172.34 input  175.53 | X-H torsion
[ 8008 7997 7996 7995 ] final  -31.10 input   59.86 | X-H torsion
[ 10167 10162 10161 10158 ] final   65.48 input  -65.29 | X-H torsion
[ 10718 10713 10712 10709 ] final   44.35 input   66.30 | X-H torsion
[ 10763 10752 10751 10750 ] final  165.95 input  -60.55 | X-H torsion
[ 11005 11000 10999 10996 ] final -100.69 input  -57.11 | X-H torsion

> <Gold.Protein.ActiveResidues>
 VAL166  LYS551  ARG553  GLY616  TRP617  ASP618  TYR619  PRO620  LYS621  CYS622 
 ASP623  PHE694  ASN695  SER759  ASP760  ASP761  ALA762  ILE779  LEU786  VAL792 
 PHE793  MET794  SER795  GLU796  ALA797  LYS798  CYS799  TRP800  GLU811  SER814 

> <Gold.Protein.RotatedAtoms>
  150.8023  133.8577  159.3222 H   0  0  0  0  0  0  0  0  0  0  0  0  # atno 6907 bound_to 6896
  151.6385  135.1013  160.0146 H   0  0  0  0  0  0  0  0  0  0  0  0  # atno 6908 bound_to 6896
  152.4111  133.6925  159.6433 H   0  0  0  0  0  0  0  0  0  0  0  0  # atno 6909 bound_to 6896
  144.7147  140.1787  143.6360 H   0  0  0  0  0  0  0  0  0  0  0  0  # atno 7974 bound_to 7965
  154.4226  140.1773  156.1513 H   0  0  0  0  0  0  0  0  0  0  0  0  # atno 8008 bound_to 7997
  155.9912  140.3368  155.6731 H   0  0  0  0  0  0  0  0  0  0  0  0  # atno 8009 bound_to 7997
  155.6369  140.0676  157.2622 H   0  0  0  0  0  0  0  0  0  0  0  0  # atno 8010 bound_to 7997
  140.1109  144.4819  150.6979 H   0  0  0  0  0  0  0  0  0  0  0  0  # atno 10167 bound_to 10162
  157.4259  130.7996  149.7557 H   0  0  0  0  0  0  0  0  0  0  0  0  # atno 10718 bound_to 10713
  154.3317  135.2754  155.2468 H   0  0  0  0  0  0  0  0  0  0  0  0  # atno 10763 bound_to 10752
  154.4777  135.5866  153.6370 H   0  0  0  0  0  0  0  0  0  0  0  0  # atno 10764 bound_to 10752
  152.9866  135.6103  154.3510 H   0  0  0  0  0  0  0  0  0  0  0  0  # atno 10765 bound_to 10752
  141.1261  133.8418  157.1134 H   0  0  0  0  0  0  0  0  0  0  0  0  # atno 11005 bound_to 11000
  145.8876  139.2357  143.1568 LP  0  0  0  0  0  0  0  0  0  0  0  0  # atno 17320 bound_to 7965
  145.9935  140.8582  143.0055 LP  0  0  0  0  0  0  0  0  0  0  0  0  # atno 17321 bound_to 7965
  140.6926  143.2385  151.5089 LP  0  0  0  0  0  0  0  0  0  0  0  0  # atno 17342 bound_to 10162
  139.5620  144.2134  152.1706 LP  0  0  0  0  0  0  0  0  0  0  0  0  # atno 17343 bound_to 10162
  155.9896  130.3950  150.3065 LP  0  0  0  0  0  0  0  0  0  0  0  0  # atno 17370 bound_to 10713
  157.1217  131.0248  151.3006 LP  0  0  0  0  0  0  0  0  0  0  0  0  # atno 17371 bound_to 10713
  140.0261  134.9923  157.0688 LP  0  0  0  0  0  0  0  0  0  0  0  0  # atno 17394 bound_to 11000
  140.4361  134.1730  155.7171 LP  0  0  0  0  0  0  0  0  0  0  0  0  # atno 17395 bound_to 11000

$$$$
