AV-unprocessed.smi:598|AV-procd|sdf|3027|dock3
  -GOLD-   2262023533D 1   1.00000     0.00000
 Structure written by MMmdl.
 43 44  0  0  0  0  0  0  0  0  3 V2000
  150.8654  145.3149  160.0903 C   0  0  0  0  0  0  0  0  0  0  0  0
  151.2925  143.8472  159.9235 C   0  0  2  0  0  0  0  0  0  0  0  0
  152.7254  143.6056  160.4398 C   0  0  0  0  0  0  0  0  0  0  0  0
  153.1054  142.1182  160.3672 C   0  0  0  0  0  0  0  0  0  0  0  0
  152.9145  141.5532  158.9518 C   0  0  0  0  0  0  0  0  0  0  0  0
  151.4799  141.8005  158.4395 C   0  0  2  0  0  0  0  0  0  0  0  0
  151.3112  141.2631  157.0935 N   0  0  0  0  0  0  0  0  0  0  0  0
  151.8420  140.1246  156.6169 C   0  0  0  0  0  0  0  0  0  0  0  0
  152.5631  139.3903  157.2908 O   0  0  0  0  0  0  0  0  0  0  0  0
  151.5282  139.7368  155.1609 C   0  0  0  0  0  0  0  0  0  0  0  0
  150.1232  139.3621  154.9131 N   0  0  0  0  0  0  0  0  0  0  0  0
  149.7550  138.0359  155.2145 C   0  0  0  0  0  0  0  0  0  0  0  0
  148.5069  137.5738  155.0045 C   0  0  0  0  0  0  0  0  0  0  0  0
  148.1504  136.2052  155.3073 N   0  3  0  0  0  0  0  0  0  0  0  0
  149.0167  135.4547  155.7451 O   0  0  0  0  0  0  0  0  0  0  0  0
  146.9954  135.8350  155.1188 O   0  5  0  0  0  0  0  0  0  0  0  0
  147.5314  138.4943  154.4532 C   0  0  0  0  0  0  0  0  0  0  0  0
  147.8779  139.7629  154.1597 C   0  0  0  0  0  0  0  0  0  0  0  0
  149.2388  140.2615  154.3822 C   0  0  0  0  0  0  0  0  0  0  0  0
  149.5664  141.4135  154.0987 O   0  0  0  0  0  0  0  0  0  0  0  0
  151.1072  143.3059  158.4806 C   0  0  2  0  0  0  0  0  0  0  0  0
  151.8379  144.1463  157.4054 C   0  0  0  0  0  0  0  0  0  0  0  0
  151.5405  145.9959  159.5721 H   0  0  0  0  0  0  0  0  0  0  0  0
  150.8633  145.6007  161.1424 H   0  0  0  0  0  0  0  0  0  0  0  0
  149.8589  145.4786  159.7046 H   0  0  0  0  0  0  0  0  0  0  0  0
  150.6250  143.2671  160.5631 H   0  0  0  0  0  0  0  0  0  0  0  0
  153.4384  144.1965  159.8642 H   0  0  0  0  0  0  0  0  0  0  0  0
  152.8109  143.9480  161.4715 H   0  0  0  0  0  0  0  0  0  0  0  0
  154.1392  141.9823  160.6857 H   0  0  0  0  0  0  0  0  0  0  0  0
  152.4905  141.5525  161.0683 H   0  0  0  0  0  0  0  0  0  0  0  0
  153.6402  142.0058  158.2755 H   0  0  0  0  0  0  0  0  0  0  0  0
  153.1316  140.4845  158.9597 H   0  0  0  0  0  0  0  0  0  0  0  0
  150.7894  141.2744  159.1020 H   0  0  0  0  0  0  0  0  0  0  0  0
  150.7329  141.8047  156.4678 H   0  0  0  0  0  0  0  0  0  0  0  0
  151.8077  140.5755  154.5215 H   0  0  0  0  0  0  0  0  0  0  0  0
  152.1981  138.9271  154.8666 H   0  0  0  0  0  0  0  0  0  0  0  0
  150.5561  137.4290  155.6118 H   0  0  0  0  0  0  0  0  0  0  0  0
  146.5163  138.1732  154.2720 H   0  0  0  0  0  0  0  0  0  0  0  0
  147.1354  140.4317  153.7494 H   0  0  0  0  0  0  0  0  0  0  0  0
  150.0433  143.3750  158.2479 H   0  0  0  0  0  0  0  0  0  0  0  0
  152.9171  144.1532  157.5536 H   0  0  0  0  0  0  0  0  0  0  0  0
  151.4987  145.1815  157.4090 H   0  0  0  0  0  0  0  0  0  0  0  0
  151.6484  143.7693  156.4002 H   0  0  0  0  0  0  0  0  0  0  0  0
  1  2  1  0  0  0  0
  1 23  1  0  0  0  0
  1 24  1  0  0  0  0
  1 25  1  0  0  0  0
  2 21  1  0  0  0  0
  2  3  1  0  0  0  0
  2 26  1  0  0  0  0
  3  4  1  0  0  0  0
  3 27  1  0  0  0  0
  3 28  1  0  0  0  0
  4  5  1  0  0  0  0
  4 29  1  0  0  0  0
  4 30  1  0  0  0  0
  5  6  1  0  0  0  0
  5 31  1  0  0  0  0
  5 32  1  0  0  0  0
  6  7  1  0  0  0  0
  6 21  1  0  0  0  0
  6 33  1  0  0  0  0
  7  8  1  0  0  0  0
  7 34  1  0  0  0  0
  8  9  2  0  0  0  0
  8 10  1  0  0  0  0
 10 11  1  0  0  0  0
 10 35  1  0  0  0  0
 10 36  1  0  0  0  0
 11 19  1  0  0  0  0
 11 12  1  0  0  0  0
 12 13  2  0  0  0  0
 12 37  1  0  0  0  0
 13 14  1  0  0  0  0
 13 17  1  0  0  0  0
 14 15  2  0  0  0  0
 14 16  1  0  0  0  0
 17 18  2  0  0  0  0
 17 38  1  0  0  0  0
 18 19  1  0  0  0  0
 18 39  1  0  0  0  0
 19 20  2  0  0  0  0
 21 22  1  0  0  0  0
 21 40  1  0  0  0  0
 22 41  1  0  0  0  0
 22 42  1  0  0  0  0
 22 43  1  0  0  0  0
M  CHG  1  14   1
M  CHG  1  16  -1
M  END
> <s_m_source_file>
AV-unprocessed.smi

> <i_m_source_file_index>
598

> <i_lp_mmshare_version>
43012

> <i_f3d_flags>
0

> <s_epik_input>
W0NIM11bQ0BASF0xW0NIMl1bQ0gyXVtDSDJdW0NASF0oW0NASF0xW0NIM10pW05IXUMoPU8pW0NIMl1uMltjSF1jKFtOK10oPU8pW08tXSlbY0hdW2NIXWMyPU8=

> <s_epik_cmdline>
J2VwaWtfcHl0aG9uJywgJy1waCcsICc3LjAnLCAnLXRuJywgJzgnLCAnLW1hJywgJzIwMCcsICctbWV0YWxfYmluZGluZycsICctaW1hZScsICc8aW5maWxlLm1hZT4nLCAnLW9tYWUnLCAnPG91dGZpbGUubWFlPic=

> <r_lp_tautomer_probability>
1

> <r_epik_Ionization_Penalty>
1.91291e-08

> <r_epik_Ionization_Penalty_Charging>
8.21931e-11

> <r_epik_Ionization_Penalty_Neutral>
1.90469e-08

> <r_epik_State_Penalty>
-0

> <r_epik_Charging_Adjusted_Penalty>
8.21931e-11

> <i_epik_Tot_Q>
0

> <i_epik_Tot_abs_Q>
2

> <r_epik_Metal_State_Penalty>
-0

> <b_epik_Metal_Only>
0

> <s_lp_Force_Field>
OPLS_2005

> <r_lp_Energy>
25.0261

> <b_lp_Chiralities_Consistent>
1

> <s_lp_Variant>
AV-unprocessed.smi:598-7

> <Gold.Version>
5.8.1

> <Gold.Id.Protein>
6NUR|6NUR_protein|mol2

> <Gold.PLP.Fitness>
43.5347

> <Gold.PLP.PLP>
-39.5017

> <Gold.PLP.part.hbond>
-3.0000

> <Gold.PLP.part.metal>
0.0000

> <Gold.PLP.part.buried>
-3.4211

> <Gold.PLP.part.nonpolar>
-33.1917

> <Gold.PLP.part.repulsive>
0.4074

> <Gold.PLP.ligand.clash>
0.0123

> <Gold.PLP.ligand.torsion>
0.6612

> <Gold.PLP.Chemscore.Hbond>
1.7832

> <Gold.PLP.Chemscore.CHOScore>
0.0000

> <Gold.PLP.Chemscore.Metal>
0.0000

> <Gold.Chemscore.Hbonds>
donor molecule, donor type, donor heavy atom, donor atom, acceptor molecule, acceptor atom, score
      P1  H  7989  7998       L1    20  0.14
      P1  H  7997  8009       L1     9  0.98
      P1  H  8011  8017       L1    20  0.67

> <Gold.PLP.Chemscore.Internal.Correction>
0.0183

> <Gold.Rescore>
     Score         DG    S(hbond)    S(metal)    S(lipo)     H(rot)  DE(clash)    DE(int)     intcor
     15.67     -18.10       1.37        0.00     102.35       1.54       0.57       1.86       ----

> <Gold.Chemscore.Fitness>
15.6688

> <Gold.Chemscore.DG>
-18.0954

> <Gold.Chemscore.ZeroCoef>
-5.4800

> <Gold.Chemscore.Hbond>
1.3717

> <Gold.Chemscore.Metal>
0.0000

> <Gold.Chemscore.Lipo>
102.3475

> <Gold.Chemscore.Internal_Hbond>
0.0000

> <Gold.Chemscore.DEClash>
0.5679

> <Gold.Chemscore.DEInternal>
1.8587

> <Gold.Chemscore.Rot>
1.5393

> <Gold.Chemscore.Internal.Correction>
   9.000000E+99

> <Gold.Chemscore.Hbonds>
donor molecule, donor type, donor heavy atom, donor atom, acceptor molecule, acceptor atom, score
      P1  H  7989  7998       L1    20  0.02
      P1  H  7997  8009       L1     9  0.23
      P1  H  8011  8017       L1    20  0.63

> <Gold.Chemscore.Hbond.Weighted>
-4.5814

> <Gold.Chemscore.Metal.Weighted>
-0.0000

> <Gold.Chemscore.Lipo.Weighted>
-11.9747

> <Gold.Chemscore.Internal_Hbond.Weighted>
0.0000

> <Gold.Chemscore.DEClash.Weighted>
0.5679

> <Gold.Chemscore.DEInternal.Weighted>
1.8587

> <Gold.Chemscore.Rot.Weighted>
3.9407

> <Gold.Chemscore.Internal.Correction.Weighted>
   9.000000E+99

> <Gold.Protein.RotatedTorsions>
[ 6907 6896 6895 6894 ] final -100.63 input  -60.11 | X-H torsion
[ 7974 7965 7964 7962 ] final  123.90 input  175.53 | X-H torsion
[ 8008 7997 7996 7995 ] final  176.50 input   59.86 | X-H torsion
[ 10167 10162 10161 10158 ] final   10.85 input  -65.29 | X-H torsion
[ 10718 10713 10712 10709 ] final   78.06 input   66.30 | X-H torsion
[ 10763 10752 10751 10750 ] final -169.18 input  -60.55 | X-H torsion
[ 11005 11000 10999 10996 ] final -144.35 input  -57.11 | X-H torsion

> <Gold.Protein.ActiveResidues>
 VAL166  LYS551  ARG553  GLY616  TRP617  ASP618  TYR619  PRO620  LYS621  CYS622 
 ASP623  PHE694  ASN695  SER759  ASP760  ASP761  ALA762  ILE779  LEU786  VAL792 
 PHE793  MET794  SER795  GLU796  ALA797  LYS798  CYS799  TRP800  GLU811  SER814 

> <Gold.Protein.RotatedAtoms>
  150.7123  134.0858  159.3913 H   0  0  0  0  0  0  0  0  0  0  0  0  # atno 6907 bound_to 6896
  151.8842  135.0439  160.0501 H   0  0  0  0  0  0  0  0  0  0  0  0  # atno 6908 bound_to 6896
  152.2543  133.5206  159.5380 H   0  0  0  0  0  0  0  0  0  0  0  0  # atno 6909 bound_to 6896
  145.0905  139.3590  143.4863 H   0  0  0  0  0  0  0  0  0  0  0  0  # atno 7974 bound_to 7965
  156.0758  140.1382  156.9773 H   0  0  0  0  0  0  0  0  0  0  0  0  # atno 8008 bound_to 7997
  154.4557  140.0962  156.6800 H   0  0  0  0  0  0  0  0  0  0  0  0  # atno 8009 bound_to 7997
  155.5155  140.3455  155.4399 H   0  0  0  0  0  0  0  0  0  0  0  0  # atno 8010 bound_to 7997
  140.6169  143.8289  150.7128 H   0  0  0  0  0  0  0  0  0  0  0  0  # atno 10167 bound_to 10162
  157.6732  130.9851  150.1731 H   0  0  0  0  0  0  0  0  0  0  0  0  # atno 10718 bound_to 10713
  154.6550  135.2917  154.9939 H   0  0  0  0  0  0  0  0  0  0  0  0  # atno 10763 bound_to 10752
  154.1018  135.6575  153.4873 H   0  0  0  0  0  0  0  0  0  0  0  0  # atno 10764 bound_to 10752
  153.0397  135.5244  154.7476 H   0  0  0  0  0  0  0  0  0  0  0  0  # atno 10765 bound_to 10752
  140.8033  134.2831  157.4970 H   0  0  0  0  0  0  0  0  0  0  0  0  # atno 11005 bound_to 11000
  146.3531  140.0738  142.8621 LP  0  0  0  0  0  0  0  0  0  0  0  0  # atno 17320 bound_to 7965
  145.1071  140.9382  143.4678 LP  0  0  0  0  0  0  0  0  0  0  0  0  # atno 17321 bound_to 7965
  140.1870  143.4067  152.1891 LP  0  0  0  0  0  0  0  0  0  0  0  0  # atno 17342 bound_to 10162
  139.5406  144.7252  151.4748 LP  0  0  0  0  0  0  0  0  0  0  0  0  # atno 17343 bound_to 10162
  156.2481  130.3697  149.8262 LP  0  0  0  0  0  0  0  0  0  0  0  0  # atno 17370 bound_to 10713
  156.6043  130.8560  151.3439 LP  0  0  0  0  0  0  0  0  0  0  0  0  # atno 17371 bound_to 10713
  139.8720  134.9442  156.3874 LP  0  0  0  0  0  0  0  0  0  0  0  0  # atno 17394 bound_to 11000
  140.9272  133.7604  155.9980 LP  0  0  0  0  0  0  0  0  0  0  0  0  # atno 17395 bound_to 11000

$$$$
