AV-unprocessed.smi:2567|AV-procd|sdf|10087|dock4
  -GOLD-   2272014113D 1   1.00000     0.00000
 Structure written by MMmdl.
 32 33  0  0  0  0  0  0  0  0  2 V2000
  151.1582  144.5458  159.9359 C   0  0  0  0  0  0  0  0  0  0  0  0
  152.0736  143.7554  158.9857 C   0  0  0  0  0  0  0  0  0  0  0  0
  152.7789  144.7182  158.0091 C   0  0  0  0  0  0  0  0  0  0  0  0
  153.1714  143.0324  159.7916 C   0  0  0  0  0  0  0  0  0  0  0  0
  151.2446  142.7389  158.2071 C   0  0  0  0  0  0  0  0  0  0  0  0
  150.4716  141.7737  158.7421 N   0  5  0  0  0  0  0  0  0  0  0  0
  149.7972  141.1537  157.7961 N   0  0  0  0  0  0  0  0  0  0  0  0
  150.1382  141.7702  156.6552 C   0  0  0  0  0  0  0  0  0  0  0  0
  149.5682  141.4310  155.2922 C   0  0  1  0  0  0  0  0  0  0  0  0
  149.8380  139.9558  154.9320 C   0  0  0  0  0  0  0  0  0  0  0  0
  149.2744  139.6312  153.6214 N   0  0  0  0  0  0  0  0  0  0  0  0
  147.8521  139.9605  153.5608 C   0  0  0  0  0  0  0  0  0  0  0  0
  147.6297  141.4329  153.9452 C   0  0  0  0  0  0  0  0  0  0  0  0
  148.1626  141.6690  155.2433 O   0  0  0  0  0  0  0  0  0  0  0  0
  151.0003  142.7679  156.8985 N   0  0  0  0  0  0  0  0  0  0  0  0
  151.7198  145.2862  160.5060 H   0  0  0  0  0  0  0  0  0  0  0  0
  150.6646  143.8840  160.6484 H   0  0  0  0  0  0  0  0  0  0  0  0
  150.3797  145.0741  159.3846 H   0  0  0  0  0  0  0  0  0  0  0  0
  152.0596  145.2848  157.4169 H   0  0  0  0  0  0  0  0  0  0  0  0
  153.4223  144.1773  157.3141 H   0  0  0  0  0  0  0  0  0  0  0  0
  153.3999  145.4397  158.5406 H   0  0  0  0  0  0  0  0  0  0  0  0
  153.7949  143.7406  160.3380 H   0  0  0  0  0  0  0  0  0  0  0  0
  153.8247  142.4519  159.1394 H   0  0  0  0  0  0  0  0  0  0  0  0
  152.7440  142.3462  160.5234 H   0  0  0  0  0  0  0  0  0  0  0  0
  150.0595  142.0819  154.5661 H   0  0  0  0  0  0  0  0  0  0  0  0
  150.9106  139.7600  154.9334 H   0  0  0  0  0  0  0  0  0  0  0  0
  149.4015  139.3078  155.6935 H   0  0  0  0  0  0  0  0  0  0  0  0
  147.4661  139.7714  152.5590 H   0  0  0  0  0  0  0  0  0  0  0  0
  147.2922  139.3167  154.2404 H   0  0  0  0  0  0  0  0  0  0  0  0
  148.0910  142.1027  153.2176 H   0  0  0  0  0  0  0  0  0  0  0  0
  146.5636  141.6598  153.9555 H   0  0  0  0  0  0  0  0  0  0  0  0
  149.4029  138.6424  153.4343 H   0  0  0  0  0  0  0  0  0  0  0  0
  1  2  1  0  0  0  0
  1 16  1  0  0  0  0
  1 17  1  0  0  0  0
  1 18  1  0  0  0  0
  2  3  1  0  0  0  0
  2  4  1  0  0  0  0
  2  5  1  0  0  0  0
  3 19  1  0  0  0  0
  3 20  1  0  0  0  0
  3 21  1  0  0  0  0
  4 22  1  0  0  0  0
  4 23  1  0  0  0  0
  4 24  1  0  0  0  0
  5 15  2  0  0  0  0
  5  6  1  0  0  0  0
  6  7  1  0  0  0  0
  7  8  2  0  0  0  0
  8  9  1  0  0  0  0
  8 15  1  0  0  0  0
  9 14  1  0  0  0  0
  9 10  1  0  0  0  0
  9 25  1  0  0  0  0
 10 11  1  0  0  0  0
 10 26  1  0  0  0  0
 10 27  1  0  0  0  0
 11 12  1  0  0  0  0
 11 32  1  0  0  0  0
 12 13  1  0  0  0  0
 12 28  1  0  0  0  0
 12 29  1  0  0  0  0
 13 14  1  0  0  0  0
 13 30  1  0  0  0  0
 13 31  1  0  0  0  0
M  CHG  1   6  -1
M  END
> <s_m_source_file>
AV-unprocessed.smi

> <i_m_source_file_index>
2567

> <i_lp_mmshare_version>
43012

> <i_f3d_flags>
0

> <s_epik_input>
W0NIM11DKFtDSDNdKShbQ0gzXSljMW5bbkhdYyhuMSlbQ0BASF0yW0NIMl1bTkhdW0NIMl1bQ0gyXU8y

> <s_epik_cmdline>
J2VwaWtfcHl0aG9uJywgJy1waCcsICc3LjAnLCAnLXRuJywgJzgnLCAnLW1hJywgJzIwMCcsICctbWV0YWxfYmluZGluZycsICctaW1hZScsICc8aW5maWxlLm1hZT4nLCAnLW9tYWUnLCAnPG91dGZpbGUubWFlPic=

> <r_lp_tautomer_probability>
0.948284

> <r_epik_Ionization_Penalty>
17.5852

> <r_epik_Ionization_Penalty_Charging>
16.0119

> <r_epik_Ionization_Penalty_Neutral>
1.5733

> <r_epik_State_Penalty>
6.64574

> <r_epik_Charging_Adjusted_Penalty>
22.6576

> <i_epik_Tot_Q>
-1

> <i_epik_Tot_abs_Q>
1

> <r_epik_Metal_State_Penalty>
2.89273

> <b_epik_Metal_Only>
1

> <s_lp_Force_Field>
OPLS_2005

> <r_lp_Energy>
12.7072

> <b_lp_Chiralities_Consistent>
1

> <s_lp_Variant>
AV-unprocessed.smi:2567-12

> <Gold.Version>
5.8.1

> <Gold.Id.Protein>
6NUR|6NUR_protein|mol2

> <Gold.PLP.Fitness>
32.6741

> <Gold.PLP.PLP>
-32.7570

> <Gold.PLP.part.hbond>
-1.2209

> <Gold.PLP.part.metal>
0.0000

> <Gold.PLP.part.buried>
-4.5724

> <Gold.PLP.part.nonpolar>
-28.2603

> <Gold.PLP.part.repulsive>
0.3850

> <Gold.PLP.ligand.clash>
0.0000

> <Gold.PLP.ligand.torsion>
0.1338

> <Gold.PLP.Chemscore.Hbond>
0.0000

> <Gold.PLP.Chemscore.CHOScore>
0.0000

> <Gold.PLP.Chemscore.Metal>
0.0000

> <Gold.PLP.Chemscore.Internal.Correction>
0.1847

> <Gold.Rescore>
     Score         DG    S(hbond)    S(metal)    S(lipo)     H(rot)  DE(clash)    DE(int)     intcor
     11.30     -11.45       0.00        0.00      77.89       1.23       0.04       0.11       ----

> <Gold.Chemscore.Fitness>
11.3009

> <Gold.Chemscore.DG>
-11.4482

> <Gold.Chemscore.ZeroCoef>
-5.4800

> <Gold.Chemscore.Hbond>
0.0000

> <Gold.Chemscore.Metal>
0.0000

> <Gold.Chemscore.Lipo>
77.8856

> <Gold.Chemscore.Internal_Hbond>
0.0000

> <Gold.Chemscore.DEClash>
0.0423

> <Gold.Chemscore.DEInternal>
0.1051

> <Gold.Chemscore.Rot>
1.2283

> <Gold.Chemscore.Internal.Correction>
   9.000000E+99

> <Gold.Chemscore.Hbond.Weighted>
-0.0000

> <Gold.Chemscore.Metal.Weighted>
-0.0000

> <Gold.Chemscore.Lipo.Weighted>
-9.1126

> <Gold.Chemscore.Internal_Hbond.Weighted>
0.0000

> <Gold.Chemscore.DEClash.Weighted>
0.0423

> <Gold.Chemscore.DEInternal.Weighted>
0.1051

> <Gold.Chemscore.Rot.Weighted>
3.1444

> <Gold.Chemscore.Internal.Correction.Weighted>
   9.000000E+99

> <Gold.Protein.RotatedTorsions>
[ 6907 6896 6895 6894 ] final  178.16 input  -60.11 | X-H torsion
[ 7974 7965 7964 7962 ] final -118.59 input  175.53 | X-H torsion
[ 8008 7997 7996 7995 ] final  -42.29 input   59.86 | X-H torsion
[ 10167 10162 10161 10158 ] final -145.40 input  -65.29 | X-H torsion
[ 10718 10713 10712 10709 ] final   -8.59 input   66.30 | X-H torsion
[ 10763 10752 10751 10750 ] final   83.35 input  -60.55 | X-H torsion
[ 11005 11000 10999 10996 ] final   61.15 input  -57.11 | X-H torsion

> <Gold.Protein.ActiveResidues>
 VAL166  LYS551  ARG553  GLY616  TRP617  ASP618  TYR619  PRO620  LYS621  CYS622 
 ASP623  PHE694  ASN695  SER759  ASP760  ASP761  ALA762  ILE779  LEU786  VAL792 
 PHE793  MET794  SER795  GLU796  ALA797  LYS798  CYS799  TRP800  GLU811  SER814 

> <Gold.Protein.RotatedAtoms>
  151.6924  133.3311  159.3245 H   0  0  0  0  0  0  0  0  0  0  0  0  # atno 6907 bound_to 6896
  150.7773  134.6687  159.6389 H   0  0  0  0  0  0  0  0  0  0  0  0  # atno 6908 bound_to 6896
  152.3819  134.6580  160.0191 H   0  0  0  0  0  0  0  0  0  0  0  0  # atno 6909 bound_to 6896
  145.0721  140.8366  143.4089 H   0  0  0  0  0  0  0  0  0  0  0  0  # atno 7974 bound_to 7965
  154.3999  140.1477  156.3331 H   0  0  0  0  0  0  0  0  0  0  0  0  # atno 8008 bound_to 7997
  155.8425  140.3461  155.5619 H   0  0  0  0  0  0  0  0  0  0  0  0  # atno 8009 bound_to 7997
  155.8072  140.0878  157.1915 H   0  0  0  0  0  0  0  0  0  0  0  0  # atno 8010 bound_to 7997
  139.7809  143.8102  152.2638 H   0  0  0  0  0  0  0  0  0  0  0  0  # atno 10167 bound_to 10162
  156.7003  130.5091  149.5919 H   0  0  0  0  0  0  0  0  0  0  0  0  # atno 10718 bound_to 10713
  153.1283  135.4694  154.9308 H   0  0  0  0  0  0  0  0  0  0  0  0  # atno 10763 bound_to 10752
  154.7641  135.3139  154.8323 H   0  0  0  0  0  0  0  0  0  0  0  0  # atno 10764 bound_to 10752
  153.8872  135.6888  153.4817 H   0  0  0  0  0  0  0  0  0  0  0  0  # atno 10765 bound_to 10752
  140.0181  134.6194  155.9679 H   0  0  0  0  0  0  0  0  0  0  0  0  # atno 11005 bound_to 11000
  145.1280  139.2650  143.5554 LP  0  0  0  0  0  0  0  0  0  0  0  0  # atno 17320 bound_to 7965
  146.3529  140.0922  142.8612 LP  0  0  0  0  0  0  0  0  0  0  0  0  # atno 17321 bound_to 7965
  139.8165  144.7314  150.9629 LP  0  0  0  0  0  0  0  0  0  0  0  0  # atno 17342 bound_to 10162
  140.7818  143.4200  151.0856 LP  0  0  0  0  0  0  0  0  0  0  0  0  # atno 17343 bound_to 10162
  156.1733  130.6451  151.0864 LP  0  0  0  0  0  0  0  0  0  0  0  0  # atno 17370 bound_to 10713
  157.6975  131.0788  150.6923 LP  0  0  0  0  0  0  0  0  0  0  0  0  # atno 17371 bound_to 10713
  141.1756  133.6540  156.4816 LP  0  0  0  0  0  0  0  0  0  0  0  0  # atno 17394 bound_to 11000
  140.4435  134.6994  157.5004 LP  0  0  0  0  0  0  0  0  0  0  0  0  # atno 17395 bound_to 11000

$$$$
