AV-unprocessed.smi:1658|AV-procd|sdf|6648|dock10
  -GOLD-   22720 7353D 1   1.00000     0.00000
 Structure written by MMmdl.
 46 47  0  0  0  0  0  0  0  0  1 V2000
  151.9402  140.8367  158.3042 C   0  0  0  0  0  0  0  0  0  0  0  0
  151.7274  140.9477  156.9012 O   0  0  0  0  0  0  0  0  0  0  0  0
  150.8947  140.0327  156.2902 C   0  0  0  0  0  0  0  0  0  0  0  0
  150.0440  139.2518  157.0979 C   0  0  0  0  0  0  0  0  0  0  0  0
  149.1940  138.3128  156.4830 C   0  0  0  0  0  0  0  0  0  0  0  0
  149.2282  138.1794  155.0749 C   0  0  0  0  0  0  0  0  0  0  0  0
  148.4051  137.2838  154.3414 N   0  0  0  0  0  0  0  0  0  0  0  0
  147.1843  136.8248  154.6647 C   0  0  0  0  0  0  0  0  0  0  0  0
  146.5809  137.0869  155.7050 O   0  0  0  0  0  0  0  0  0  0  0  0
  146.7084  136.0114  153.7121 N   0  0  0  0  0  0  0  0  0  0  0  0
  145.4367  135.2899  153.7560 C   0  0  0  0  0  0  0  0  0  0  0  0
  144.9564  134.8519  152.3418 C   0  0  0  0  0  0  0  0  0  0  0  0
  143.4220  134.6580  152.4434 C   0  0  0  0  0  0  0  0  0  0  0  0
  145.2050  136.0433  151.3853 C   0  0  0  0  0  0  0  0  0  0  0  0
  145.6271  133.5971  151.8970 N   0  0  0  0  0  0  0  0  0  0  0  0
  145.6224  132.5103  152.8835 C   0  0  0  0  0  0  0  0  0  0  0  0
  146.4299  131.2909  152.4064 C   0  0  0  0  0  0  0  0  0  0  0  0
  145.9207  130.8360  151.1587 O   0  0  0  0  0  0  0  0  0  0  0  0
  145.9647  131.8433  150.1560 C   0  0  0  0  0  0  0  0  0  0  0  0
  145.1521  133.0660  150.6137 C   0  0  0  0  0  0  0  0  0  0  0  0
  150.1024  139.0203  154.3558 C   0  0  0  0  0  0  0  0  0  0  0  0
  150.9210  139.9211  154.9389 N   0  0  0  0  0  0  0  0  0  0  0  0
  152.6100  141.6318  158.6313 H   0  0  0  0  0  0  0  0  0  0  0  0
  152.4057  139.8846  158.5631 H   0  0  0  0  0  0  0  0  0  0  0  0
  151.0069  140.9423  158.8591 H   0  0  0  0  0  0  0  0  0  0  0  0
  150.0406  139.3738  158.1709 H   0  0  0  0  0  0  0  0  0  0  0  0
  148.5265  137.7278  157.0968 H   0  0  0  0  0  0  0  0  0  0  0  0
  148.8180  136.9006  153.5036 H   0  0  0  0  0  0  0  0  0  0  0  0
  147.2848  135.8489  152.8994 H   0  0  0  0  0  0  0  0  0  0  0  0
  145.5072  134.4189  154.4101 H   0  0  0  0  0  0  0  0  0  0  0  0
  144.7022  135.9323  154.2409 H   0  0  0  0  0  0  0  0  0  0  0  0
  142.9437  135.5047  152.9375 H   0  0  0  0  0  0  0  0  0  0  0  0
  143.1651  133.7638  153.0126 H   0  0  0  0  0  0  0  0  0  0  0  0
  142.9503  134.5721  151.4645 H   0  0  0  0  0  0  0  0  0  0  0  0
  144.6867  136.9377  151.7328 H   0  0  0  0  0  0  0  0  0  0  0  0
  144.8442  135.8456  150.3761 H   0  0  0  0  0  0  0  0  0  0  0  0
  146.2615  136.3016  151.3153 H   0  0  0  0  0  0  0  0  0  0  0  0
  146.0508  132.8404  153.8280 H   0  0  0  0  0  0  0  0  0  0  0  0
  144.6004  132.1937  153.0913 H   0  0  0  0  0  0  0  0  0  0  0  0
  147.4872  131.5419  152.3069 H   0  0  0  0  0  0  0  0  0  0  0  0
  146.3604  130.4827  153.1345 H   0  0  0  0  0  0  0  0  0  0  0  0
  147.0002  132.1217  149.9532 H   0  0  0  0  0  0  0  0  0  0  0  0
  145.5539  131.4417  149.2297 H   0  0  0  0  0  0  0  0  0  0  0  0
  144.1027  132.7806  150.6890 H   0  0  0  0  0  0  0  0  0  0  0  0
  145.2199  133.8186  149.8307 H   0  0  0  0  0  0  0  0  0  0  0  0
  150.1529  138.9655  153.2779 H   0  0  0  0  0  0  0  0  0  0  0  0
  1  2  1  0  0  0  0
  1 23  1  0  0  0  0
  1 24  1  0  0  0  0
  1 25  1  0  0  0  0
  2  3  1  0  0  0  0
  3 22  1  0  0  0  0
  3  4  2  0  0  0  0
  4  5  1  0  0  0  0
  4 26  1  0  0  0  0
  5  6  2  0  0  0  0
  5 27  1  0  0  0  0
  6  7  1  0  0  0  0
  6 21  1  0  0  0  0
  7  8  1  0  0  0  0
  7 28  1  0  0  0  0
  8  9  2  0  0  0  0
  8 10  1  0  0  0  0
 10 11  1  0  0  0  0
 10 29  1  0  0  0  0
 11 12  1  0  0  0  0
 11 30  1  0  0  0  0
 11 31  1  0  0  0  0
 12 13  1  0  0  0  0
 12 14  1  0  0  0  0
 12 15  1  0  0  0  0
 13 32  1  0  0  0  0
 13 33  1  0  0  0  0
 13 34  1  0  0  0  0
 14 35  1  0  0  0  0
 14 36  1  0  0  0  0
 14 37  1  0  0  0  0
 15 20  1  0  0  0  0
 15 16  1  0  0  0  0
 16 17  1  0  0  0  0
 16 38  1  0  0  0  0
 16 39  1  0  0  0  0
 17 18  1  0  0  0  0
 17 40  1  0  0  0  0
 17 41  1  0  0  0  0
 18 19  1  0  0  0  0
 19 20  1  0  0  0  0
 19 42  1  0  0  0  0
 19 43  1  0  0  0  0
 20 44  1  0  0  0  0
 20 45  1  0  0  0  0
 21 22  2  0  0  0  0
 21 46  1  0  0  0  0
M  END
> <s_m_source_file>
AV-unprocessed.smi

> <i_m_source_file_index>
1658

> <i_lp_mmshare_version>
43012

> <i_f3d_flags>
0

> <s_epik_input>
W0NIM11PYzFbY0hdW2NIXWMoW2NIXW4xKVtOSF1DKD1PKVtOSF1bQ0gyXUMoW0NIM10pKFtDSDNdKU4yW0NIMl1bQ0gyXU9bQ0gyXVtDSDJdMg==

> <s_epik_cmdline>
J2VwaWtfcHl0aG9uJywgJy1waCcsICc3LjAnLCAnLXRuJywgJzgnLCAnLW1hJywgJzIwMCcsICctbWV0YWxfYmluZGluZycsICctaW1hZScsICc8aW5maWxlLm1hZT4nLCAnLW9tYWUnLCAnPG91dGZpbGUubWFlPic=

> <r_lp_tautomer_probability>
1

> <r_epik_Ionization_Penalty>
0.266086

> <r_epik_Ionization_Penalty_Charging>
0

> <r_epik_Ionization_Penalty_Neutral>
0.266086

> <r_epik_State_Penalty>
0.257924

> <r_epik_Charging_Adjusted_Penalty>
0.257924

> <i_epik_Tot_Q>
0

> <i_epik_Tot_abs_Q>
0

> <r_epik_Metal_State_Penalty>
0.257921

> <b_epik_Metal_Only>
0

> <s_lp_Force_Field>
OPLS_2005

> <r_lp_Energy>
44.8547

> <b_lp_Chiralities_Consistent>
1

> <s_lp_Variant>
AV-unprocessed.smi:1658-1

> <Gold.Version>
5.8.1

> <Gold.Id.Protein>
6NUR|6NUR_protein|mol2

> <Gold.PLP.Fitness>
37.6084

> <Gold.PLP.PLP>
-27.3971

> <Gold.PLP.part.hbond>
-3.0000

> <Gold.PLP.part.metal>
0.0000

> <Gold.PLP.part.buried>
-4.9076

> <Gold.PLP.part.nonpolar>
-19.9374

> <Gold.PLP.part.repulsive>
0.2895

> <Gold.PLP.ligand.clash>
0.0000

> <Gold.PLP.ligand.torsion>
0.9084

> <Gold.PLP.Chemscore.Hbond>
2.9920

> <Gold.PLP.Chemscore.CHOScore>
1.0000

> <Gold.PLP.Chemscore.Metal>
0.0000

> <Gold.Chemscore.Hbonds>
donor molecule, donor type, donor heavy atom, donor atom, acceptor molecule, acceptor atom, score
      L1  H     7    28       P1  7948  1.00
      L1  H    10    29       P1  7948  1.00
      P1  H  7989  7998       L1    22  1.00
      L1  C    21    46       P1  7957  1.00

> <Gold.PLP.Chemscore.Internal.Correction>
0.0521

> <Gold.Rescore>
     Score         DG    S(hbond)    S(metal)    S(lipo)     H(rot)  DE(clash)    DE(int)     intcor
     16.56     -18.24       2.67        0.00      70.10       1.70       0.11       1.57       ----

> <Gold.Chemscore.Fitness>
16.5552

> <Gold.Chemscore.DG>
-18.2357

> <Gold.Chemscore.ZeroCoef>
-5.4800

> <Gold.Chemscore.Hbond>
2.6683

> <Gold.Chemscore.Metal>
0.0000

> <Gold.Chemscore.Lipo>
70.1019

> <Gold.Chemscore.Internal_Hbond>
0.0000

> <Gold.Chemscore.DEClash>
0.1117

> <Gold.Chemscore.DEInternal>
1.5688

> <Gold.Chemscore.Rot>
1.7024

> <Gold.Chemscore.Internal.Correction>
   9.000000E+99

> <Gold.Chemscore.Hbonds>
donor molecule, donor type, donor heavy atom, donor atom, acceptor molecule, acceptor atom, score
      L1  H     7    28       P1  7948  1.00
      L1  H    10    29       P1  7948  0.92
      P1  H  7989  7998       L1    22  0.45

> <Gold.Chemscore.Hbond.Weighted>
-8.9121

> <Gold.Chemscore.Metal.Weighted>
-0.0000

> <Gold.Chemscore.Lipo.Weighted>
-8.2019

> <Gold.Chemscore.Internal_Hbond.Weighted>
0.0000

> <Gold.Chemscore.DEClash.Weighted>
0.1117

> <Gold.Chemscore.DEInternal.Weighted>
1.5688

> <Gold.Chemscore.Rot.Weighted>
4.3583

> <Gold.Chemscore.Internal.Correction.Weighted>
   9.000000E+99

> <Gold.Protein.RotatedTorsions>
[ 6907 6896 6895 6894 ] final -101.77 input  -60.11 | X-H torsion
[ 7974 7965 7964 7962 ] final  135.64 input  175.53 | X-H torsion
[ 8008 7997 7996 7995 ] final  -50.78 input   59.86 | X-H torsion
[ 10167 10162 10161 10158 ] final  106.41 input  -65.29 | X-H torsion
[ 10718 10713 10712 10709 ] final -159.38 input   66.30 | X-H torsion
[ 10763 10752 10751 10750 ] final  -36.81 input  -60.55 | X-H torsion
[ 11005 11000 10999 10996 ] final  146.60 input  -57.11 | X-H torsion

> <Gold.Protein.ActiveResidues>
 VAL166  LYS551  ARG553  GLY616  TRP617  ASP618  TYR619  PRO620  LYS621  CYS622 
 ASP623  PHE694  ASN695  SER759  ASP760  ASP761  ALA762  ILE779  LEU786  VAL792 
 PHE793  MET794  SER795  GLU796  ALA797  LYS798  CYS799  TRP800  GLU811  SER814 

> <Gold.Protein.RotatedAtoms>
  150.7168  134.0683  159.3855 H   0  0  0  0  0  0  0  0  0  0  0  0  # atno 6907 bound_to 6896
  151.8665  135.0503  160.0484 H   0  0  0  0  0  0  0  0  0  0  0  0  # atno 6908 bound_to 6896
  152.2677  133.5318  159.5456 H   0  0  0  0  0  0  0  0  0  0  0  0  # atno 6909 bound_to 6896
  144.9643  139.4675  143.5464 H   0  0  0  0  0  0  0  0  0  0  0  0  # atno 7974 bound_to 7965
  154.4069  140.1264  156.4722 H   0  0  0  0  0  0  0  0  0  0  0  0  # atno 8008 bound_to 7997
  155.7167  140.3493  155.4978 H   0  0  0  0  0  0  0  0  0  0  0  0  # atno 8009 bound_to 7997
  155.9251  140.1059  157.1166 H   0  0  0  0  0  0  0  0  0  0  0  0  # atno 8010 bound_to 7997
  139.7011  144.7094  151.1183 H   0  0  0  0  0  0  0  0  0  0  0  0  # atno 10167 bound_to 10162
  156.5673  130.8673  151.2827 H   0  0  0  0  0  0  0  0  0  0  0  0  # atno 10718 bound_to 10713
  153.8859  135.6817  153.4764 H   0  0  0  0  0  0  0  0  0  0  0  0  # atno 10763 bound_to 10752
  153.1208  135.4741  154.9189 H   0  0  0  0  0  0  0  0  0  0  0  0  # atno 10764 bound_to 10752
  154.7646  135.3220  154.8264 H   0  0  0  0  0  0  0  0  0  0  0  0  # atno 10765 bound_to 10752
  140.0807  134.9099  157.1495 H   0  0  0  0  0  0  0  0  0  0  0  0  # atno 11005 bound_to 11000
  146.3363  139.8814  142.8824 LP  0  0  0  0  0  0  0  0  0  0  0  0  # atno 17320 bound_to 7965
  145.2653  141.0091  143.3803 LP  0  0  0  0  0  0  0  0  0  0  0  0  # atno 17321 bound_to 7965
  140.7710  143.5422  150.9299 LP  0  0  0  0  0  0  0  0  0  0  0  0  # atno 17342 bound_to 10162
  139.9104  143.6727  152.3116 LP  0  0  0  0  0  0  0  0  0  0  0  0  # atno 17343 bound_to 10162
  157.7356  130.9764  150.2089 LP  0  0  0  0  0  0  0  0  0  0  0  0  # atno 17370 bound_to 10713
  156.2746  130.3726  149.7997 LP  0  0  0  0  0  0  0  0  0  0  0  0  # atno 17371 bound_to 10713
  140.3492  134.2617  155.7201 LP  0  0  0  0  0  0  0  0  0  0  0  0  # atno 17394 bound_to 11000
  141.2045  133.7883  157.0281 LP  0  0  0  0  0  0  0  0  0  0  0  0  # atno 17395 bound_to 11000

$$$$
