AV-unprocessed.smi:3308|AV-procd|sdf|12710|dock9
  -GOLD-   2272019 43D 1   1.00000     0.00000
 Structure written by MMmdl.
 41 42  0  0  0  0  0  0  0  0  2 V2000
  152.4039  139.0131  155.3443 C   0  0  0  0  0  0  0  0  0  0  0  0
  151.2283  139.9958  155.2302 C   0  0  2  0  0  0  0  0  0  0  0  0
  150.7945  140.4237  156.5800 N   0  3  0  0  0  0  0  0  0  0  0  0
  151.8846  140.8676  157.4753 C   0  0  0  0  0  0  0  0  0  0  0  0
  151.6365  142.2712  158.0448 C   0  0  0  0  0  0  0  0  0  0  0  0
  151.0428  143.1094  157.3643 O   0  0  0  0  0  0  0  0  0  0  0  0
  152.0881  142.5426  159.2863 N   0  0  0  0  0  0  0  0  0  0  0  0
  152.8122  141.5787  160.1127 C   0  0  0  0  0  0  0  0  0  0  0  0
  153.3674  142.3791  161.2909 C   0  0  0  0  0  0  0  0  0  0  0  0
  152.4194  143.5637  161.4172 C   0  0  0  0  0  0  0  0  0  0  0  0
  151.9399  143.8178  159.9875 C   0  0  0  0  0  0  0  0  0  0  0  0
  150.0451  139.4283  154.4026 C   0  0  1  0  0  0  0  0  0  0  0  0
  149.6089  138.0066  154.8173 C   0  0  0  0  0  0  0  0  0  0  0  0
  148.9198  140.3576  154.3815 N   0  0  0  0  0  0  0  0  0  0  0  0
  147.5878  140.0797  154.6109 C   0  0  0  0  0  0  0  0  0  0  0  0
  146.8900  141.2404  154.4379 C   0  0  0  0  0  0  0  0  0  0  0  0
  147.8908  142.1877  154.0862 C   0  0  0  0  0  0  0  0  0  0  0  0
  149.1012  141.6556  154.0429 N   0  0  0  0  0  0  0  0  0  0  0  0
  152.7326  138.6768  154.3605 H   0  0  0  0  0  0  0  0  0  0  0  0
  152.1422  138.1311  155.9291 H   0  0  0  0  0  0  0  0  0  0  0  0
  153.2588  139.4846  155.8302 H   0  0  0  0  0  0  0  0  0  0  0  0
  151.6125  140.8670  154.6961 H   0  0  0  0  0  0  0  0  0  0  0  0
  150.1421  141.1880  156.4732 H   0  0  0  0  0  0  0  0  0  0  0  0
  151.9834  140.1505  158.2910 H   0  0  0  0  0  0  0  0  0  0  0  0
  152.8256  140.8751  156.9243 H   0  0  0  0  0  0  0  0  0  0  0  0
  152.1144  140.8161  160.4621 H   0  0  0  0  0  0  0  0  0  0  0  0
  153.6113  141.0803  159.5616 H   0  0  0  0  0  0  0  0  0  0  0  0
  153.4355  141.7920  162.2071 H   0  0  0  0  0  0  0  0  0  0  0  0
  154.3687  142.7383  161.0494 H   0  0  0  0  0  0  0  0  0  0  0  0
  151.5710  143.2857  162.0440 H   0  0  0  0  0  0  0  0  0  0  0  0
  152.8928  144.4377  161.8654 H   0  0  0  0  0  0  0  0  0  0  0  0
  152.5676  144.5672  159.5037 H   0  0  0  0  0  0  0  0  0  0  0  0
  150.9101  144.1776  159.9806 H   0  0  0  0  0  0  0  0  0  0  0  0
  150.3861  139.3535  153.3688 H   0  0  0  0  0  0  0  0  0  0  0  0
  150.4108  137.2834  154.6708 H   0  0  0  0  0  0  0  0  0  0  0  0
  148.7634  137.6703  154.2160 H   0  0  0  0  0  0  0  0  0  0  0  0
  149.3075  137.9582  155.8641 H   0  0  0  0  0  0  0  0  0  0  0  0
  147.2495  139.0886  154.8757 H   0  0  0  0  0  0  0  0  0  0  0  0
  145.8256  141.3896  154.5436 H   0  0  0  0  0  0  0  0  0  0  0  0
  147.7742  143.2365  153.8570 H   0  0  0  0  0  0  0  0  0  0  0  0
  150.3134  139.6562  157.0268 H   0  0  0  0  0  0  0  0  0  0  0  0
  1  2  1  0  0  0  0
  1 19  1  0  0  0  0
  1 20  1  0  0  0  0
  1 21  1  0  0  0  0
  2  3  1  0  0  0  0
  2 12  1  0  0  0  0
  2 22  1  0  0  0  0
  3  4  1  0  0  0  0
  3 23  1  0  0  0  0
  3 41  1  0  0  0  0
  4  5  1  0  0  0  0
  4 24  1  0  0  0  0
  4 25  1  0  0  0  0
  5  6  2  0  0  0  0
  5  7  1  0  0  0  0
  7 11  1  0  0  0  0
  7  8  1  0  0  0  0
  8  9  1  0  0  0  0
  8 26  1  0  0  0  0
  8 27  1  0  0  0  0
  9 10  1  0  0  0  0
  9 28  1  0  0  0  0
  9 29  1  0  0  0  0
 10 11  1  0  0  0  0
 10 30  1  0  0  0  0
 10 31  1  0  0  0  0
 11 32  1  0  0  0  0
 11 33  1  0  0  0  0
 12 13  1  0  0  0  0
 12 14  1  0  0  0  0
 12 34  1  0  0  0  0
 13 35  1  0  0  0  0
 13 36  1  0  0  0  0
 13 37  1  0  0  0  0
 14 18  1  0  0  0  0
 14 15  1  0  0  0  0
 15 16  2  0  0  0  0
 15 38  1  0  0  0  0
 16 17  1  0  0  0  0
 16 39  1  0  0  0  0
 17 18  2  0  0  0  0
 17 40  1  0  0  0  0
M  CHG  1   3   1
M  END
> <s_m_source_file>
AV-unprocessed.smi

> <i_m_source_file_index>
3308

> <i_lp_mmshare_version>
43012

> <i_f3d_flags>
0

> <s_epik_input>
bjFbY0hdW2NIXVtjSF1uMVtDQEBIXShbQ0gzXSlbQ0BIXShbQ0gzXSlbTkhdW0NIMl1DKD1PKU4yW0NIMl1bQ0gyXVtDSDJdW0NIMl0y

> <s_epik_cmdline>
J2VwaWtfcHl0aG9uJywgJy1waCcsICc3LjAnLCAnLXRuJywgJzgnLCAnLW1hJywgJzIwMCcsICctbWV0YWxfYmluZGluZycsICctaW1hZScsICc8aW5maWxlLm1hZT4nLCAnLW9tYWUnLCAnPG91dGZpbGUubWFlPic=

> <r_lp_tautomer_probability>
1

> <r_epik_Ionization_Penalty>
0.141739

> <r_epik_Ionization_Penalty_Charging>
0.141731

> <r_epik_Ionization_Penalty_Neutral>
8.82171e-06

> <r_epik_State_Penalty>
0.131043

> <r_epik_Charging_Adjusted_Penalty>
0.272773

> <i_epik_Tot_Q>
1

> <i_epik_Tot_abs_Q>
1

> <r_epik_Metal_State_Penalty>
0.131385

> <b_epik_Metal_Only>
0

> <s_lp_Force_Field>
OPLS_2005

> <r_lp_Energy>
34.1001

> <b_lp_Chiralities_Consistent>
1

> <s_lp_Variant>
AV-unprocessed.smi:3308-3

> <Gold.Version>
5.8.1

> <Gold.Id.Protein>
6NUR|6NUR_protein|mol2

> <Gold.PLP.Fitness>
43.3474

> <Gold.PLP.PLP>
-41.3041

> <Gold.PLP.part.hbond>
-1.5473

> <Gold.PLP.part.metal>
0.0000

> <Gold.PLP.part.buried>
-2.5926

> <Gold.PLP.part.nonpolar>
-36.7179

> <Gold.PLP.part.repulsive>
0.3978

> <Gold.PLP.ligand.clash>
0.0000

> <Gold.PLP.ligand.torsion>
0.9957

> <Gold.PLP.Chemscore.Hbond>
0.6080

> <Gold.PLP.Chemscore.CHOScore>
0.6798

> <Gold.PLP.Chemscore.Metal>
0.0000

> <Gold.Chemscore.Hbonds>
donor molecule, donor type, donor heavy atom, donor atom, acceptor molecule, acceptor atom, score
      P1  H  8011  8017       L1    18  0.59
      L1  C    17    40       P1  8028  0.65

> <Gold.PLP.Chemscore.Internal.Correction>
0.1712

> <Gold.Rescore>
     Score         DG    S(hbond)    S(metal)    S(lipo)     H(rot)  DE(clash)    DE(int)     intcor
     11.96     -12.95       0.30        0.00      94.30       1.78       0.05       0.94       ----

> <Gold.Chemscore.Fitness>
11.9620

> <Gold.Chemscore.DG>
-12.9529

> <Gold.Chemscore.ZeroCoef>
-5.4800

> <Gold.Chemscore.Hbond>
0.3010

> <Gold.Chemscore.Metal>
0.0000

> <Gold.Chemscore.Lipo>
94.3037

> <Gold.Chemscore.Internal_Hbond>
0.0000

> <Gold.Chemscore.DEClash>
0.0530

> <Gold.Chemscore.DEInternal>
0.9379

> <Gold.Chemscore.Rot>
1.7836

> <Gold.Chemscore.Internal.Correction>
   9.000000E+99

> <Gold.Chemscore.Hbonds>
donor molecule, donor type, donor heavy atom, donor atom, acceptor molecule, acceptor atom, score
      P1  H  8011  8017       L1    18  0.17

> <Gold.Chemscore.Hbond.Weighted>
-1.0054

> <Gold.Chemscore.Metal.Weighted>
-0.0000

> <Gold.Chemscore.Lipo.Weighted>
-11.0335

> <Gold.Chemscore.Internal_Hbond.Weighted>
0.0000

> <Gold.Chemscore.DEClash.Weighted>
0.0530

> <Gold.Chemscore.DEInternal.Weighted>
0.9379

> <Gold.Chemscore.Rot.Weighted>
4.5660

> <Gold.Chemscore.Internal.Correction.Weighted>
   9.000000E+99

> <Gold.Protein.RotatedTorsions>
[ 6907 6896 6895 6894 ] final  126.78 input  -60.11 | X-H torsion
[ 7974 7965 7964 7962 ] final -163.92 input  175.53 | X-H torsion
[ 8008 7997 7996 7995 ] final   71.59 input   59.86 | X-H torsion
[ 10167 10162 10161 10158 ] final   75.80 input  -65.29 | X-H torsion
[ 10718 10713 10712 10709 ] final -163.25 input   66.30 | X-H torsion
[ 10763 10752 10751 10750 ] final  169.52 input  -60.55 | X-H torsion
[ 11005 11000 10999 10996 ] final  -39.96 input  -57.11 | X-H torsion

> <Gold.Protein.ActiveResidues>
 VAL166  LYS551  ARG553  GLY616  TRP617  ASP618  TYR619  PRO620  LYS621  CYS622 
 ASP623  PHE694  ASN695  SER759  ASP760  ASP761  ALA762  ILE779  LEU786  VAL792 
 PHE793  MET794  SER795  GLU796  ALA797  LYS798  CYS799  TRP800  GLU811  SER814 

> <Gold.Protein.RotatedAtoms>
  152.3873  133.6628  159.6208 H   0  0  0  0  0  0  0  0  0  0  0  0  # atno 6907 bound_to 6896
  150.7789  133.9014  159.3351 H   0  0  0  0  0  0  0  0  0  0  0  0  # atno 6908 bound_to 6896
  151.6808  135.0963  160.0267 H   0  0  0  0  0  0  0  0  0  0  0  0  # atno 6909 bound_to 6896
  144.7312  140.3036  143.6200 H   0  0  0  0  0  0  0  0  0  0  0  0  # atno 7974 bound_to 7965
  155.7561  140.3487  155.5174 H   0  0  0  0  0  0  0  0  0  0  0  0  # atno 8008 bound_to 7997
  155.8958  140.1025  157.1407 H   0  0  0  0  0  0  0  0  0  0  0  0  # atno 8009 bound_to 7997
  154.4038  140.1295  156.4361 H   0  0  0  0  0  0  0  0  0  0  0  0  # atno 8010 bound_to 7997
  139.9991  144.5700  150.7752 H   0  0  0  0  0  0  0  0  0  0  0  0  # atno 10167 bound_to 10162
  156.6220  130.8894  151.2959 H   0  0  0  0  0  0  0  0  0  0  0  0  # atno 10718 bound_to 10713
  154.3844  135.2753  155.2192 H   0  0  0  0  0  0  0  0  0  0  0  0  # atno 10763 bound_to 10752
  154.4285  135.5983  153.6057 H   0  0  0  0  0  0  0  0  0  0  0  0  # atno 10764 bound_to 10752
  152.9833  135.5990  154.4091 H   0  0  0  0  0  0  0  0  0  0  0  0  # atno 10765 bound_to 10752
  141.0140  133.6894  156.2257 H   0  0  0  0  0  0  0  0  0  0  0  0  # atno 11005 bound_to 11000
  145.7735  139.1865  143.2199 LP  0  0  0  0  0  0  0  0  0  0  0  0  # atno 17320 bound_to 7965
  146.0891  140.7676  142.9604 LP  0  0  0  0  0  0  0  0  0  0  0  0  # atno 17321 bound_to 7965
  140.7426  143.2834  151.3534 LP  0  0  0  0  0  0  0  0  0  0  0  0  # atno 17342 bound_to 10162
  139.6285  144.0768  152.2455 LP  0  0  0  0  0  0  0  0  0  0  0  0  # atno 17343 bound_to 10162
  157.7225  130.9577  150.1496 LP  0  0  0  0  0  0  0  0  0  0  0  0  # atno 17370 bound_to 10713
  156.2304  130.3681  149.8452 LP  0  0  0  0  0  0  0  0  0  0  0  0  # atno 17371 bound_to 10713
  140.6686  134.4892  157.5586 LP  0  0  0  0  0  0  0  0  0  0  0  0  # atno 17394 bound_to 11000
  139.9106  134.8353  156.1542 LP  0  0  0  0  0  0  0  0  0  0  0  0  # atno 17395 bound_to 11000

$$$$
