AV-unprocessed.smi:813|AV-procd|sdf|3820|dock5
  -GOLD-   22720 1263D 1   1.00000     0.00000
 Structure written by MMmdl.
 35 36  0  0  0  0  0  0  0  0  2 V2000
  151.4151  139.6322  156.9021 C   0  0  0  0  0  0  0  0  0  0  0  0
  151.3578  139.5679  158.4374 C   0  0  1  0  0  0  0  0  0  0  0  0
  151.8282  138.2473  158.8542 N   0  0  0  0  0  0  0  0  0  0  0  0
  153.0500  137.7395  158.6307 C   0  0  0  0  0  0  0  0  0  0  0  0
  153.8929  138.4081  158.0274 O   0  0  0  0  0  0  0  0  0  0  0  0
  153.2188  136.4894  159.1183 N   0  5  0  0  0  0  0  0  0  0  0  0
  154.4390  135.9281  159.1184 C   0  0  0  0  0  0  0  0  0  0  0  0
  154.6181  134.5993  159.1920 N   0  0  0  0  0  0  0  0  0  0  0  0
  155.9555  134.2266  159.1734 N   0  0  0  0  0  0  0  0  0  0  0  0
  156.7541  135.2892  159.0758 C   0  0  0  0  0  0  0  0  0  0  0  0
  155.9461  136.8406  158.9970 S   0  0  0  0  0  0  0  0  0  0  0  0
  152.2722  140.6658  159.0034 C   0  0  0  0  0  0  0  0  0  0  0  0
  153.2400  140.3763  159.7091 O   0  0  0  0  0  0  0  0  0  0  0  0
  151.9535  141.9267  158.6746 N   0  0  0  0  0  0  0  0  0  0  0  0
  152.6707  143.1186  159.1180 C   0  0  0  0  0  0  0  0  0  0  0  0
  152.6047  143.2767  160.6503 C   0  0  0  0  0  0  0  0  0  0  0  0
  151.6430  144.4357  160.9105 C   0  0  0  0  0  0  0  0  0  0  0  0
  151.8292  145.3500  159.7040 C   0  0  0  0  0  0  0  0  0  0  0  0
  152.0332  144.3920  158.5287 C   0  0  0  0  0  0  0  0  0  0  0  0
  151.0727  140.5999  156.5335 H   0  0  0  0  0  0  0  0  0  0  0  0
  150.7730  138.8706  156.4582 H   0  0  0  0  0  0  0  0  0  0  0  0
  152.4259  139.4698  156.5245 H   0  0  0  0  0  0  0  0  0  0  0  0
  150.3285  139.7187  158.7690 H   0  0  0  0  0  0  0  0  0  0  0  0
  151.1671  137.6630  159.3444 H   0  0  0  0  0  0  0  0  0  0  0  0
  157.8255  135.1585  159.0473 H   0  0  0  0  0  0  0  0  0  0  0  0
  151.1405  142.0715  158.0937 H   0  0  0  0  0  0  0  0  0  0  0  0
  153.7141  143.0547  158.8029 H   0  0  0  0  0  0  0  0  0  0  0  0
  152.2996  142.3679  161.1713 H   0  0  0  0  0  0  0  0  0  0  0  0
  153.5946  143.5412  161.0247 H   0  0  0  0  0  0  0  0  0  0  0  0
  150.6177  144.0640  160.9363 H   0  0  0  0  0  0  0  0  0  0  0  0
  151.8402  144.9405  161.8566 H   0  0  0  0  0  0  0  0  0  0  0  0
  150.9866  146.0254  159.5541 H   0  0  0  0  0  0  0  0  0  0  0  0
  152.7239  145.9587  159.8419 H   0  0  0  0  0  0  0  0  0  0  0  0
  152.6504  144.8360  157.7471 H   0  0  0  0  0  0  0  0  0  0  0  0
  151.0635  144.1667  158.0819 H   0  0  0  0  0  0  0  0  0  0  0  0
  1  2  1  0  0  0  0
  1 20  1  0  0  0  0
  1 21  1  0  0  0  0
  1 22  1  0  0  0  0
  2  3  1  0  0  0  0
  2 12  1  0  0  0  0
  2 23  1  0  0  0  0
  3  4  1  0  0  0  0
  3 24  1  0  0  0  0
  4  5  2  0  0  0  0
  4  6  1  0  0  0  0
  6  7  1  0  0  0  0
  7 11  1  0  0  0  0
  7  8  2  0  0  0  0
  8  9  1  0  0  0  0
  9 10  2  0  0  0  0
 10 11  1  0  0  0  0
 10 25  1  0  0  0  0
 12 13  2  0  0  0  0
 12 14  1  0  0  0  0
 14 15  1  0  0  0  0
 14 26  1  0  0  0  0
 15 19  1  0  0  0  0
 15 16  1  0  0  0  0
 15 27  1  0  0  0  0
 16 17  1  0  0  0  0
 16 28  1  0  0  0  0
 16 29  1  0  0  0  0
 17 18  1  0  0  0  0
 17 30  1  0  0  0  0
 17 31  1  0  0  0  0
 18 19  1  0  0  0  0
 18 32  1  0  0  0  0
 18 33  1  0  0  0  0
 19 34  1  0  0  0  0
 19 35  1  0  0  0  0
M  CHG  1   6  -1
M  END
> <s_m_source_file>
AV-unprocessed.smi

> <i_m_source_file_index>
813

> <i_lp_mmshare_version>
43012

> <i_f3d_flags>
0

> <s_epik_input>
W0NIMl0xW0NIMl1bQ0gyXVtDSDJdW0NIXTFbTkhdQyg9TylbQ0BIXShbQ0gzXSlbTkhdQyg9TylbTkhdYzJubltjSF1zMg==

> <s_epik_cmdline>
J2VwaWtfcHl0aG9uJywgJy1waCcsICc3LjAnLCAnLXRuJywgJzgnLCAnLW1hJywgJzIwMCcsICctbWV0YWxfYmluZGluZycsICctaW1hZScsICc8aW5maWxlLm1hZT4nLCAnLW9tYWUnLCAnPG91dGZpbGUubWFlPic=

> <r_lp_tautomer_probability>
1

> <r_epik_Ionization_Penalty>
3.13682

> <r_epik_Ionization_Penalty_Charging>
3.09647

> <r_epik_Ionization_Penalty_Neutral>
0.0403479

> <r_epik_State_Penalty>
3.09328

> <r_epik_Charging_Adjusted_Penalty>
6.18976

> <i_epik_Tot_Q>
-1

> <i_epik_Tot_abs_Q>
1

> <r_epik_Metal_State_Penalty>
0.461392

> <b_epik_Metal_Only>
1

> <s_lp_Force_Field>
OPLS_2005

> <r_lp_Energy>
15.2454

> <b_lp_Chiralities_Consistent>
1

> <s_lp_Variant>
AV-unprocessed.smi:813-4

> <Gold.Version>
5.8.1

> <Gold.Id.Protein>
6NUR|6NUR_protein|mol2

> <Gold.PLP.Fitness>
40.3151

> <Gold.PLP.PLP>
-31.6393

> <Gold.PLP.part.hbond>
-2.8732

> <Gold.PLP.part.metal>
0.0000

> <Gold.PLP.part.buried>
-5.2052

> <Gold.PLP.part.nonpolar>
-25.1543

> <Gold.PLP.part.repulsive>
0.1786

> <Gold.PLP.ligand.clash>
0.0000

> <Gold.PLP.ligand.torsion>
0.1191

> <Gold.PLP.Chemscore.Hbond>
2.9575

> <Gold.PLP.Chemscore.CHOScore>
0.0000

> <Gold.PLP.Chemscore.Metal>
0.0000

> <Gold.Chemscore.Hbonds>
donor molecule, donor type, donor heavy atom, donor atom, acceptor molecule, acceptor atom, score
      P1  H  6896  6907       L1     6  1.69
      P1  H  7997  8010       L1     5  1.00

> <Gold.PLP.Chemscore.Internal.Correction>
0.0416

> <Gold.Rescore>
     Score         DG    S(hbond)    S(metal)    S(lipo)     H(rot)  DE(clash)    DE(int)     intcor
     11.24     -14.48       1.35        0.00      76.09       1.72       0.00       3.24       ----

> <Gold.Chemscore.Fitness>
11.2397

> <Gold.Chemscore.DG>
-14.4772

> <Gold.Chemscore.ZeroCoef>
-5.4800

> <Gold.Chemscore.Hbond>
1.3461

> <Gold.Chemscore.Metal>
0.0000

> <Gold.Chemscore.Lipo>
76.0918

> <Gold.Chemscore.Internal_Hbond>
0.0000

> <Gold.Chemscore.DEClash>
0.0000

> <Gold.Chemscore.DEInternal>
3.2374

> <Gold.Chemscore.Rot>
1.7194

> <Gold.Chemscore.Internal.Correction>
   9.000000E+99

> <Gold.Chemscore.Hbonds>
donor molecule, donor type, donor heavy atom, donor atom, acceptor molecule, acceptor atom, score
      P1  H  6896  6907       L1     6  0.27
      P1  H  7997  8010       L1     5  0.94

> <Gold.Chemscore.Hbond.Weighted>
-4.4961

> <Gold.Chemscore.Metal.Weighted>
-0.0000

> <Gold.Chemscore.Lipo.Weighted>
-8.9027

> <Gold.Chemscore.Internal_Hbond.Weighted>
0.0000

> <Gold.Chemscore.DEClash.Weighted>
0.0000

> <Gold.Chemscore.DEInternal.Weighted>
3.2374

> <Gold.Chemscore.Rot.Weighted>
4.4016

> <Gold.Chemscore.Internal.Correction.Weighted>
   9.000000E+99

> <Gold.Protein.RotatedTorsions>
[ 6907 6896 6895 6894 ] final   29.15 input  -60.11 | X-H torsion
[ 7974 7965 7964 7962 ] final  -11.32 input  175.53 | X-H torsion
[ 8008 7997 7996 7995 ] final   22.82 input   59.86 | X-H torsion
[ 10167 10162 10161 10158 ] final  144.59 input  -65.29 | X-H torsion
[ 10718 10713 10712 10709 ] final  114.27 input   66.30 | X-H torsion
[ 10763 10752 10751 10750 ] final  -20.09 input  -60.55 | X-H torsion
[ 11005 11000 10999 10996 ] final  -17.70 input  -57.11 | X-H torsion

> <Gold.Protein.ActiveResidues>
 VAL166  LYS551  ARG553  GLY616  TRP617  ASP618  TYR619  PRO620  LYS621  CYS622 
 ASP623  PHE694  ASN695  SER759  ASP760  ASP761  ALA762  ILE779  LEU786  VAL792 
 PHE793  MET794  SER795  GLU796  ALA797  LYS798  CYS799  TRP800  GLU811  SER814 

> <Gold.Protein.RotatedAtoms>
  152.0274  134.9787  160.0571 H   0  0  0  0  0  0  0  0  0  0  0  0  # atno 6907 bound_to 6896
  152.1278  133.4385  159.4714 H   0  0  0  0  0  0  0  0  0  0  0  0  # atno 6908 bound_to 6896
  150.6854  134.2376  159.4503 H   0  0  0  0  0  0  0  0  0  0  0  0  # atno 6909 bound_to 6896
  146.2191  140.2894  142.8367 H   0  0  0  0  0  0  0  0  0  0  0  0  # atno 7974 bound_to 7965
  154.9715  140.3090  155.4986 H   0  0  0  0  0  0  0  0  0  0  0  0  # atno 8008 bound_to 7997
  156.2965  140.2283  156.4747 H   0  0  0  0  0  0  0  0  0  0  0  0  # atno 8009 bound_to 7997
  154.7872  140.0442  157.1162 H   0  0  0  0  0  0  0  0  0  0  0  0  # atno 8010 bound_to 7997
  139.4943  144.5961  151.6580 H   0  0  0  0  0  0  0  0  0  0  0  0  # atno 10167 bound_to 10162
  157.6291  131.0996  150.7161 H   0  0  0  0  0  0  0  0  0  0  0  0  # atno 10718 bound_to 10713
  153.6149  135.6995  153.5332 H   0  0  0  0  0  0  0  0  0  0  0  0  # atno 10763 bound_to 10752
  153.2986  135.4136  155.1231 H   0  0  0  0  0  0  0  0  0  0  0  0  # atno 10764 bound_to 10752
  154.8555  135.3643  154.5688 H   0  0  0  0  0  0  0  0  0  0  0  0  # atno 10765 bound_to 10752
  140.8194  133.8079  155.9644 H   0  0  0  0  0  0  0  0  0  0  0  0  # atno 11005 bound_to 11000
  144.9138  140.7788  143.5791 LP  0  0  0  0  0  0  0  0  0  0  0  0  # atno 17320 bound_to 7965
  145.2826  139.1912  143.4783 LP  0  0  0  0  0  0  0  0  0  0  0  0  # atno 17321 bound_to 7965
  140.5599  144.0285  150.6165 LP  0  0  0  0  0  0  0  0  0  0  0  0  # atno 17342 bound_to 10162
  140.3368  143.3044  152.0630 LP  0  0  0  0  0  0  0  0  0  0  0  0  # atno 17343 bound_to 10162
  156.7504  130.4767  149.5458 LP  0  0  0  0  0  0  0  0  0  0  0  0  # atno 17370 bound_to 10713
  156.1482  130.6291  151.0560 LP  0  0  0  0  0  0  0  0  0  0  0  0  # atno 17371 bound_to 10713
  140.9114  134.2255  157.4983 LP  0  0  0  0  0  0  0  0  0  0  0  0  # atno 17394 bound_to 11000
  139.8709  134.9752  156.4874 LP  0  0  0  0  0  0  0  0  0  0  0  0  # atno 17395 bound_to 11000

$$$$
