AV-unprocessed.smi:241|AV-procd|sdf|1843|dock1
  -GOLD-   2262020463D 1   1.00000     0.00000
 Structure written by MMmdl.
 54 57  0  0  0  0  0  0  0  0  1 V2000
  155.6130  140.6650  160.0496 C   0  0  0  0  0  0  0  0  0  0  0  0
  154.7923  139.8628  159.2196 O   0  0  0  0  0  0  0  0  0  0  0  0
  153.5338  139.5791  159.8109 C   0  0  0  0  0  0  0  0  0  0  0  0
  152.5832  140.7775  159.6244 C   0  0  1  0  0  0  0  0  0  0  0  0
  152.8627  141.9510  160.5759 C   0  0  0  0  0  0  0  0  0  0  0  0
  152.6354  143.2175  159.7332 C   0  0  2  0  0  0  0  0  0  0  0  0
  151.6897  144.1054  160.3111 O   0  0  0  0  0  0  0  0  0  0  0  0
  151.3665  145.2061  159.4766 C   0  0  0  0  0  0  0  0  0  0  0  0
  152.1104  142.7002  158.3922 C   0  0  0  0  0  0  0  0  0  0  0  0
  152.6170  141.3436  158.2787 N   0  0  0  0  0  0  0  0  0  0  0  0
  152.1265  140.6497  157.2202 C   0  0  0  0  0  0  0  0  0  0  0  0
  152.8215  139.6033  156.6991 N   0  0  0  0  0  0  0  0  0  0  0  0
  152.3350  138.9195  155.6597 C   0  0  0  0  0  0  0  0  0  0  0  0
  151.1900  139.1058  155.0010 N   0  0  0  0  0  0  0  0  0  0  0  0
  150.4843  140.1502  155.5220 C   0  0  0  0  0  0  0  0  0  0  0  0
  150.8776  140.9692  156.6181 C   0  0  0  0  0  0  0  0  0  0  0  0
  149.9162  141.9463  156.8472 N   0  0  0  0  0  0  0  0  0  0  0  0
  149.0077  141.7186  155.9381 C   0  0  0  0  0  0  0  0  0  0  0  0
  149.2550  140.6409  155.1178 N   0  0  0  0  0  0  0  0  0  0  0  0
  148.4504  140.1997  154.0169 C   0  0  0  0  0  0  0  0  0  0  0  0
  146.9260  140.3255  154.0501 C   0  0  0  0  0  0  0  0  0  0  0  0
  146.8090  139.0395  153.1997 C   0  0  0  0  0  0  0  0  0  0  0  0
  145.7106  138.0451  153.6140 C   0  0  0  0  0  0  0  0  0  0  0  0
  144.4759  138.6942  153.8342 O   0  0  0  0  0  0  0  0  0  0  0  0
  146.7691  139.2292  151.6688 C   0  0  0  0  0  0  0  0  0  0  0  0
  147.1673  138.0638  150.9761 O   0  0  0  0  0  0  0  0  0  0  0  0
  148.2136  138.7106  153.7533 C   0  0  0  0  0  0  0  0  0  0  0  0
  151.5636  140.4415  159.8196 H   0  0  0  0  0  0  0  0  0  0  0  0
  153.5877  143.7229  159.5616 H   0  0  0  0  0  0  0  0  0  0  0  0
  156.5631  140.8566  159.5510 H   0  0  0  0  0  0  0  0  0  0  0  0
  155.8247  140.1651  160.9956 H   0  0  0  0  0  0  0  0  0  0  0  0
  155.1424  141.6265  160.2585 H   0  0  0  0  0  0  0  0  0  0  0  0
  153.1101  138.6764  159.3698 H   0  0  0  0  0  0  0  0  0  0  0  0
  153.6646  139.3806  160.8756 H   0  0  0  0  0  0  0  0  0  0  0  0
  152.2015  141.9028  161.4419 H   0  0  0  0  0  0  0  0  0  0  0  0
  153.8872  141.9380  160.9490 H   0  0  0  0  0  0  0  0  0  0  0  0
  150.6473  145.8485  159.9845 H   0  0  0  0  0  0  0  0  0  0  0  0
  150.9143  144.8706  158.5425 H   0  0  0  0  0  0  0  0  0  0  0  0
  152.2452  145.8081  159.2423 H   0  0  0  0  0  0  0  0  0  0  0  0
  151.0193  142.6765  158.3881 H   0  0  0  0  0  0  0  0  0  0  0  0
  152.4380  143.3365  157.5701 H   0  0  0  0  0  0  0  0  0  0  0  0
  152.9506  138.1054  155.3066 H   0  0  0  0  0  0  0  0  0  0  0  0
  148.1245  142.3337  155.8443 H   0  0  0  0  0  0  0  0  0  0  0  0
  148.8585  140.6896  153.1314 H   0  0  0  0  0  0  0  0  0  0  0  0
  146.5179  140.2040  155.0554 H   0  0  0  0  0  0  0  0  0  0  0  0
  146.5382  141.2291  153.5794 H   0  0  0  0  0  0  0  0  0  0  0  0
  145.5734  137.2684  152.8611 H   0  0  0  0  0  0  0  0  0  0  0  0
  145.9774  137.5317  154.5380 H   0  0  0  0  0  0  0  0  0  0  0  0
  144.2520  139.1795  153.0542 H   0  0  0  0  0  0  0  0  0  0  0  0
  145.7650  139.4842  151.3293 H   0  0  0  0  0  0  0  0  0  0  0  0
  147.4098  140.0553  151.3588 H   0  0  0  0  0  0  0  0  0  0  0  0
  147.4405  137.4171  151.6088 H   0  0  0  0  0  0  0  0  0  0  0  0
  148.9007  138.2664  153.0322 H   0  0  0  0  0  0  0  0  0  0  0  0
  148.1894  138.1276  154.6759 H   0  0  0  0  0  0  0  0  0  0  0  0
  1  2  1  0  0  0  0
  1 30  1  0  0  0  0
  1 31  1  0  0  0  0
  1 32  1  0  0  0  0
  2  3  1  0  0  0  0
  3  4  1  0  0  0  0
  3 33  1  0  0  0  0
  3 34  1  0  0  0  0
  4 28  1  0  0  0  0
  4 10  1  0  0  0  0
  4  5  1  0  0  0  0
  5  6  1  0  0  0  0
  5 35  1  0  0  0  0
  5 36  1  0  0  0  0
  6 29  1  0  0  0  0
  6  7  1  0  0  0  0
  6  9  1  0  0  0  0
  7  8  1  0  0  0  0
  8 37  1  0  0  0  0
  8 38  1  0  0  0  0
  8 39  1  0  0  0  0
  9 10  1  0  0  0  0
  9 40  1  0  0  0  0
  9 41  1  0  0  0  0
 10 11  1  0  0  0  0
 11 16  1  0  0  0  0
 11 12  2  0  0  0  0
 12 13  1  0  0  0  0
 13 14  2  0  0  0  0
 13 42  1  0  0  0  0
 14 15  1  0  0  0  0
 15 19  1  0  0  0  0
 15 16  2  0  0  0  0
 16 17  1  0  0  0  0
 17 18  2  0  0  0  0
 18 19  1  0  0  0  0
 18 43  1  0  0  0  0
 19 20  1  0  0  0  0
 20 27  1  0  0  0  0
 20 21  1  0  0  0  0
 20 44  1  0  0  0  0
 21 22  1  0  0  0  0
 21 45  1  0  0  0  0
 21 46  1  0  0  0  0
 22 23  1  0  0  0  0
 22 25  1  0  0  0  0
 22 27  1  0  0  0  0
 23 24  1  0  0  0  0
 23 47  1  0  0  0  0
 23 48  1  0  0  0  0
 24 49  1  0  0  0  0
 25 26  1  0  0  0  0
 25 50  1  0  0  0  0
 25 51  1  0  0  0  0
 26 52  1  0  0  0  0
 27 53  1  0  0  0  0
 27 54  1  0  0  0  0
M  END
> <s_m_source_file>
AV-unprocessed.smi

> <i_m_source_file_index>
241

> <i_lp_mmshare_version>
43012

> <i_f3d_flags>
0

> <s_epik_input>
W0NIM11PW0NIMl1bQ0BASF0xW0NIMl1bQ0BASF0oT1tDSDNdKVtDSDJdTjFjKG5bY0hdbjIpYyhjMjMpbltjSF1uM1tDSF0oW0NIMl00KVtDSDJdQzQoW0NIMl1bT0hdKVtDSDJdW09IXQ==

> <s_epik_cmdline>
J2VwaWtfcHl0aG9uJywgJy1waCcsICc3LjAnLCAnLXRuJywgJzgnLCAnLW1hJywgJzIwMCcsICctbWV0YWxfYmluZGluZycsICctaW1hZScsICc8aW5maWxlLm1hZT4nLCAnLW9tYWUnLCAnPG91dGZpbGUubWFlPic=

> <r_lp_tautomer_probability>
1

> <r_epik_Ionization_Penalty>
0.00568677

> <r_epik_Ionization_Penalty_Charging>
0

> <r_epik_Ionization_Penalty_Neutral>
0.00568677

> <r_epik_State_Penalty>
0.00400877

> <r_epik_Charging_Adjusted_Penalty>
0.00400877

> <i_epik_Tot_Q>
0

> <i_epik_Tot_abs_Q>
0

> <r_epik_Metal_State_Penalty>
-0

> <b_epik_Metal_Only>
0

> <s_lp_Force_Field>
OPLS_2005

> <r_lp_Energy>
54.996

> <b_lp_Chiralities_Consistent>
1

> <s_lp_Variant>
AV-unprocessed.smi:241-4

> <Gold.Version>
5.8.1

> <Gold.Id.Protein>
6NUR|6NUR_protein|mol2

> <Gold.PLP.Fitness>
59.5960

> <Gold.PLP.PLP>
-48.1389

> <Gold.PLP.part.hbond>
-5.3915

> <Gold.PLP.part.metal>
0.0000

> <Gold.PLP.part.buried>
-0.8459

> <Gold.PLP.part.nonpolar>
-41.0869

> <Gold.PLP.part.repulsive>
0.2656

> <Gold.PLP.ligand.clash>
0.0000

> <Gold.PLP.ligand.torsion>
1.9477

> <Gold.PLP.Chemscore.Hbond>
4.3360

> <Gold.PLP.Chemscore.CHOScore>
0.5528

> <Gold.PLP.Chemscore.Metal>
0.0000

> <Gold.Chemscore.Hbonds>
donor molecule, donor type, donor heavy atom, donor atom, acceptor molecule, acceptor atom, score
      L1  H    24    49       P1 10175  0.91
      L1  H    26    52       P1  7948  0.70
      P1  H  7954  7966       L1    26  0.88
      P1  H  7997  8009       L1     2  0.75
      P1  H  7997  8010       L1    12  0.85
      L1  C    18    43       P1  8028  0.57

> <Gold.PLP.Chemscore.Internal.Correction>
0.6862

> <Gold.Rescore>
     Score         DG    S(hbond)    S(metal)    S(lipo)     H(rot)  DE(clash)    DE(int)     intcor
     14.32     -18.88       3.19        0.00     110.53       3.97       1.02       3.55       ----

> <Gold.Chemscore.Fitness>
14.3158

> <Gold.Chemscore.DG>
-18.8831

> <Gold.Chemscore.ZeroCoef>
-5.4800

> <Gold.Chemscore.Hbond>
3.1861

> <Gold.Chemscore.Metal>
0.0000

> <Gold.Chemscore.Lipo>
110.5272

> <Gold.Chemscore.Internal_Hbond>
0.0000

> <Gold.Chemscore.DEClash>
1.0211

> <Gold.Chemscore.DEInternal>
3.5462

> <Gold.Chemscore.Rot>
3.9727

> <Gold.Chemscore.Internal.Correction>
   9.000000E+99

> <Gold.Chemscore.Hbonds>
donor molecule, donor type, donor heavy atom, donor atom, acceptor molecule, acceptor atom, score
      L1  H    24    49       P1 10175  0.83
      L1  H    26    52       P1  7948  0.70
      P1  H  7954  7966       L1    26  0.30
      P1  H  7997  8009       L1     2  0.39
      P1  H  7997  8010       L1    12  0.25

> <Gold.Chemscore.Hbond.Weighted>
-10.6417

> <Gold.Chemscore.Metal.Weighted>
-0.0000

> <Gold.Chemscore.Lipo.Weighted>
-12.9317

> <Gold.Chemscore.Internal_Hbond.Weighted>
0.0000

> <Gold.Chemscore.DEClash.Weighted>
1.0211

> <Gold.Chemscore.DEInternal.Weighted>
3.5462

> <Gold.Chemscore.Rot.Weighted>
10.1702

> <Gold.Chemscore.Internal.Correction.Weighted>
   9.000000E+99

> <Gold.Protein.RotatedTorsions>
[ 6907 6896 6895 6894 ] final   37.51 input  -60.11 | X-H torsion
[ 7974 7965 7964 7962 ] final  -35.62 input  175.53 | X-H torsion
[ 8008 7997 7996 7995 ] final   92.48 input   59.86 | X-H torsion
[ 10167 10162 10161 10158 ] final  -60.34 input  -65.29 | X-H torsion
[ 10718 10713 10712 10709 ] final -138.16 input   66.30 | X-H torsion
[ 10763 10752 10751 10750 ] final    4.43 input  -60.55 | X-H torsion
[ 11005 11000 10999 10996 ] final -159.99 input  -57.11 | X-H torsion

> <Gold.Protein.ActiveResidues>
 VAL166  LYS551  ARG553  GLY616  TRP617  ASP618  TYR619  PRO620  LYS621  CYS622 
 ASP623  PHE694  ASN695  SER759  ASP760  ASP761  ALA762  ILE779  LEU786  VAL792 
 PHE793  MET794  SER795  GLU796  ALA797  LYS798  CYS799  TRP800  GLU811  SER814 

> <Gold.Protein.RotatedAtoms>
  152.1441  134.9039  160.0551 H   0  0  0  0  0  0  0  0  0  0  0  0  # atno 6907 bound_to 6896
  152.0096  133.3851  159.4222 H   0  0  0  0  0  0  0  0  0  0  0  0  # atno 6908 bound_to 6896
  150.6868  134.3667  159.5018 H   0  0  0  0  0  0  0  0  0  0  0  0  # atno 6909 bound_to 6896
  146.0731  140.6180  142.8943 H   0  0  0  0  0  0  0  0  0  0  0  0  # atno 7974 bound_to 7965
  156.0358  140.3325  155.7190 H   0  0  0  0  0  0  0  0  0  0  0  0  # atno 8008 bound_to 7997
  155.5817  140.0637  157.2799 H   0  0  0  0  0  0  0  0  0  0  0  0  # atno 8009 bound_to 7997
  154.4372  140.1843  156.0971 H   0  0  0  0  0  0  0  0  0  0  0  0  # atno 8010 bound_to 7997
  140.6077  143.2378  151.5781 H   0  0  0  0  0  0  0  0  0  0  0  0  # atno 10167 bound_to 10162
  156.2962  130.7403  151.1442 H   0  0  0  0  0  0  0  0  0  0  0  0  # atno 10718 bound_to 10713
  153.2713  135.6932  153.7478 H   0  0  0  0  0  0  0  0  0  0  0  0  # atno 10763 bound_to 10752
  153.6500  135.3378  155.3098 H   0  0  0  0  0  0  0  0  0  0  0  0  # atno 10764 bound_to 10752
  154.8465  135.4452  154.1736 H   0  0  0  0  0  0  0  0  0  0  0  0  # atno 10765 bound_to 10752
  140.6365  134.4596  157.5232 H   0  0  0  0  0  0  0  0  0  0  0  0  # atno 11005 bound_to 11000
  144.7244  140.4478  143.6984 LP  0  0  0  0  0  0  0  0  0  0  0  0  # atno 17320 bound_to 7965
  145.6355  139.1542  143.2945 LP  0  0  0  0  0  0  0  0  0  0  0  0  # atno 17321 bound_to 7965
  139.5338  144.2840  152.1206 LP  0  0  0  0  0  0  0  0  0  0  0  0  # atno 17342 bound_to 10162
  140.2033  144.4636  150.6420 LP  0  0  0  0  0  0  0  0  0  0  0  0  # atno 17343 bound_to 10162
  157.7356  131.0571  150.5462 LP  0  0  0  0  0  0  0  0  0  0  0  0  # atno 17370 bound_to 10713
  156.5584  130.4249  149.6074 LP  0  0  0  0  0  0  0  0  0  0  0  0  # atno 17371 bound_to 10713
  139.9096  134.8373  156.1576 LP  0  0  0  0  0  0  0  0  0  0  0  0  # atno 17394 bound_to 11000
  141.0638  133.6829  156.2004 LP  0  0  0  0  0  0  0  0  0  0  0  0  # atno 17395 bound_to 11000

$$$$
