AV-unprocessed.smi:2980|AV-procd|sdf|11372|dock4
  -GOLD-   2272016293D 1   1.00000     0.00000
 Structure written by MMmdl.
 38 39  0  0  0  0  0  0  0  0  1 V2000
  146.5311  142.7548  154.1301 C   0  0  0  0  0  0  0  0  0  0  0  0
  147.3641  141.4881  153.9227 C   0  0  0  0  0  0  0  0  0  0  0  0
  148.7325  141.8008  154.1205 O   0  0  0  0  0  0  0  0  0  0  0  0
  149.1791  141.4943  155.4300 C   0  0  0  0  0  0  0  0  0  0  0  0
  150.6231  141.9826  155.5866 C   0  0  0  0  0  0  0  0  0  0  0  0
  151.1693  141.6512  156.8942 N   0  0  0  0  0  0  0  0  0  0  0  0
  151.3806  140.4290  157.4518 C   0  0  0  0  0  0  0  0  0  0  0  0
  151.0663  139.1341  156.7538 C   0  0  0  0  0  0  0  0  0  0  0  0
  151.8062  138.9560  155.4152 C   0  0  0  0  0  0  0  0  0  0  0  0
  151.0487  138.0928  154.3955 C   0  0  0  0  0  0  0  0  0  0  0  0
  151.9162  137.1210  153.8539 O   0  0  0  0  0  0  0  0  0  0  0  0
  151.8554  140.4412  158.6986 N   0  0  0  0  0  0  0  0  0  0  0  0
  152.0065  141.7881  158.9591 C   0  0  0  0  0  0  0  0  0  0  0  0
  152.4888  142.4528  160.1092 C   0  0  0  0  0  0  0  0  0  0  0  0
  152.5550  143.8611  160.1444 C   0  0  0  0  0  0  0  0  0  0  0  0
  152.1392  144.6227  159.0331 C   0  0  0  0  0  0  0  0  0  0  0  0
  151.6526  143.9797  157.8787 C   0  0  0  0  0  0  0  0  0  0  0  0
  151.5897  142.5733  157.8482 C   0  0  0  0  0  0  0  0  0  0  0  0
  145.4698  142.5508  153.9873 H   0  0  0  0  0  0  0  0  0  0  0  0
  146.8204  143.5331  153.4234 H   0  0  0  0  0  0  0  0  0  0  0  0
  146.6636  143.1501  155.1375 H   0  0  0  0  0  0  0  0  0  0  0  0
  147.0496  140.7160  154.6264 H   0  0  0  0  0  0  0  0  0  0  0  0
  147.2076  141.1016  152.9145 H   0  0  0  0  0  0  0  0  0  0  0  0
  148.5347  141.9765  156.1642 H   0  0  0  0  0  0  0  0  0  0  0  0
  149.1267  140.4176  155.5993 H   0  0  0  0  0  0  0  0  0  0  0  0
  151.2499  141.5185  154.8247 H   0  0  0  0  0  0  0  0  0  0  0  0
  150.6983  143.0558  155.4148 H   0  0  0  0  0  0  0  0  0  0  0  0
  151.3335  138.3180  157.4257 H   0  0  0  0  0  0  0  0  0  0  0  0
  149.9974  139.0371  156.5751 H   0  0  0  0  0  0  0  0  0  0  0  0
  152.0131  139.9359  154.9826 H   0  0  0  0  0  0  0  0  0  0  0  0
  152.7786  138.5023  155.6108 H   0  0  0  0  0  0  0  0  0  0  0  0
  150.2103  137.5846  154.8711 H   0  0  0  0  0  0  0  0  0  0  0  0
  150.6510  138.7013  153.5829 H   0  0  0  0  0  0  0  0  0  0  0  0
  151.6799  136.9767  152.9504 H   0  0  0  0  0  0  0  0  0  0  0  0
  152.8096  141.8775  160.9650 H   0  0  0  0  0  0  0  0  0  0  0  0
  152.9269  144.3593  161.0276 H   0  0  0  0  0  0  0  0  0  0  0  0
  152.1935  145.7010  159.0678 H   0  0  0  0  0  0  0  0  0  0  0  0
  151.3333  144.5615  157.0269 H   0  0  0  0  0  0  0  0  0  0  0  0
  1  2  1  0  0  0  0
  1 19  1  0  0  0  0
  1 20  1  0  0  0  0
  1 21  1  0  0  0  0
  2  3  1  0  0  0  0
  2 22  1  0  0  0  0
  2 23  1  0  0  0  0
  3  4  1  0  0  0  0
  4  5  1  0  0  0  0
  4 24  1  0  0  0  0
  4 25  1  0  0  0  0
  5  6  1  0  0  0  0
  5 26  1  0  0  0  0
  5 27  1  0  0  0  0
  6 18  1  0  0  0  0
  6  7  1  0  0  0  0
  7  8  1  0  0  0  0
  7 12  2  0  0  0  0
  8  9  1  0  0  0  0
  8 28  1  0  0  0  0
  8 29  1  0  0  0  0
  9 10  1  0  0  0  0
  9 30  1  0  0  0  0
  9 31  1  0  0  0  0
 10 11  1  0  0  0  0
 10 32  1  0  0  0  0
 10 33  1  0  0  0  0
 11 34  1  0  0  0  0
 12 13  1  0  0  0  0
 13 18  2  0  0  0  0
 13 14  1  0  0  0  0
 14 15  2  0  0  0  0
 14 35  1  0  0  0  0
 15 16  1  0  0  0  0
 15 36  1  0  0  0  0
 16 17  2  0  0  0  0
 16 37  1  0  0  0  0
 17 18  1  0  0  0  0
 17 38  1  0  0  0  0
M  END
> <s_m_source_file>
AV-unprocessed.smi

> <i_m_source_file_index>
2980

> <i_lp_mmshare_version>
43012

> <i_f3d_flags>
0

> <s_epik_input>
W0NIM11bQ0gyXU9bQ0gyXVtDSDJdbihjKG4xKVtDSDJdW0NIMl1bQ0gyXVtPSF0pYyhjMTIpW2NIXVtjSF1bY0hdW2NIXTI=

> <s_epik_cmdline>
J2VwaWtfcHl0aG9uJywgJy1waCcsICc3LjAnLCAnLXRuJywgJzgnLCAnLW1hJywgJzIwMCcsICctbWV0YWxfYmluZGluZycsICctaW1hZScsICc8aW5maWxlLm1hZT4nLCAnLW9tYWUnLCAnPG91dGZpbGUubWFlPic=

> <r_epik_Ionization_Penalty>
0.173195

> <r_epik_Ionization_Penalty_Charging>
0

> <r_epik_Ionization_Penalty_Neutral>
0.173195

> <r_epik_State_Penalty>
0.162604

> <r_epik_Charging_Adjusted_Penalty>
0.162604

> <i_epik_Tot_Q>
0

> <i_epik_Tot_abs_Q>
0

> <r_epik_Metal_State_Penalty>
0.000187077

> <b_epik_Metal_Only>
0

> <s_lp_Force_Field>
OPLS_2005

> <r_lp_Energy>
8.24734

> <b_lp_Chiralities_Consistent>
1

> <s_lp_Variant>
AV-unprocessed.smi:2980-1

> <Gold.Version>
5.8.1

> <Gold.Id.Protein>
6NUR|6NUR_protein|mol2

> <Gold.PLP.Fitness>
51.0782

> <Gold.PLP.PLP>
-45.3259

> <Gold.PLP.part.hbond>
-3.0000

> <Gold.PLP.part.metal>
0.0000

> <Gold.PLP.part.buried>
-5.6031

> <Gold.PLP.part.nonpolar>
-36.0855

> <Gold.PLP.part.repulsive>
0.1846

> <Gold.PLP.ligand.clash>
0.0000

> <Gold.PLP.ligand.torsion>
0.7928

> <Gold.PLP.Chemscore.Hbond>
2.4288

> <Gold.PLP.Chemscore.CHOScore>
0.0000

> <Gold.PLP.Chemscore.Metal>
0.0000

> <Gold.Chemscore.Hbonds>
donor molecule, donor type, donor heavy atom, donor atom, acceptor molecule, acceptor atom, score
      L1  H    11    34       P1  7949  1.00
      P1  H  8011  8017       L1     3  0.33
      P1  H 10752 10764       L1    11  0.85

> <Gold.PLP.Chemscore.Internal.Correction>
0.0515

> <Gold.Rescore>
     Score         DG    S(hbond)    S(metal)    S(lipo)     H(rot)  DE(clash)    DE(int)     intcor
     16.74     -17.63       1.63        0.00     111.72       2.48       0.03       0.87       ----

> <Gold.Chemscore.Fitness>
16.7353

> <Gold.Chemscore.DG>
-17.6314

> <Gold.Chemscore.ZeroCoef>
-5.4800

> <Gold.Chemscore.Hbond>
1.6266

> <Gold.Chemscore.Metal>
0.0000

> <Gold.Chemscore.Lipo>
111.7233

> <Gold.Chemscore.Internal_Hbond>
0.0000

> <Gold.Chemscore.DEClash>
0.0284

> <Gold.Chemscore.DEInternal>
0.8678

> <Gold.Chemscore.Rot>
2.4817

> <Gold.Chemscore.Internal.Correction>
   9.000000E+99

> <Gold.Chemscore.Hbonds>
donor molecule, donor type, donor heavy atom, donor atom, acceptor molecule, acceptor atom, score
      L1  H    11    34       P1  7949  0.97
      P1  H  8011  8017       L1     3  0.30
      P1  H 10752 10764       L1    11  0.14

> <Gold.Chemscore.Hbond.Weighted>
-5.4329

> <Gold.Chemscore.Metal.Weighted>
-0.0000

> <Gold.Chemscore.Lipo.Weighted>
-13.0716

> <Gold.Chemscore.Internal_Hbond.Weighted>
0.0000

> <Gold.Chemscore.DEClash.Weighted>
0.0284

> <Gold.Chemscore.DEInternal.Weighted>
0.8678

> <Gold.Chemscore.Rot.Weighted>
6.3531

> <Gold.Chemscore.Internal.Correction.Weighted>
   9.000000E+99

> <Gold.Protein.RotatedTorsions>
[ 6907 6896 6895 6894 ] final  -25.05 input  -60.11 | X-H torsion
[ 7974 7965 7964 7962 ] final -123.58 input  175.53 | X-H torsion
[ 8008 7997 7996 7995 ] final -103.90 input   59.86 | X-H torsion
[ 10167 10162 10161 10158 ] final  123.66 input  -65.29 | X-H torsion
[ 10718 10713 10712 10709 ] final   79.67 input   66.30 | X-H torsion
[ 10763 10752 10751 10750 ] final  -93.45 input  -60.55 | X-H torsion
[ 11005 11000 10999 10996 ] final  -93.74 input  -57.11 | X-H torsion

> <Gold.Protein.ActiveResidues>
 VAL166  LYS551  ARG553  GLY616  TRP617  ASP618  TYR619  PRO620  LYS621  CYS622 
 ASP623  PHE694  ASN695  SER759  ASP760  ASP761  ALA762  ILE779  LEU786  VAL792 
 PHE793  MET794  SER795  GLU796  ALA797  LYS798  CYS799  TRP800  GLU811  SER814 

> <Gold.Protein.RotatedAtoms>
  151.1807  135.0360  159.8791 H   0  0  0  0  0  0  0  0  0  0  0  0  # atno 6907 bound_to 6896
  152.5445  134.1066  159.8350 H   0  0  0  0  0  0  0  0  0  0  0  0  # atno 6908 bound_to 6896
  151.1182  133.5076  159.2635 H   0  0  0  0  0  0  0  0  0  0  0  0  # atno 6909 bound_to 6896
  145.0172  140.7957  143.4403 H   0  0  0  0  0  0  0  0  0  0  0  0  # atno 7974 bound_to 7965
  154.8776  140.0420  157.1763 H   0  0  0  0  0  0  0  0  0  0  0  0  # atno 8008 bound_to 7997
  154.8673  140.2953  155.5482 H   0  0  0  0  0  0  0  0  0  0  0  0  # atno 8009 bound_to 7997
  156.2999  140.2436  156.3656 H   0  0  0  0  0  0  0  0  0  0  0  0  # atno 8010 bound_to 7997
  139.5786  144.6975  151.3587 H   0  0  0  0  0  0  0  0  0  0  0  0  # atno 10167 bound_to 10162
  157.6783  130.9925  150.1966 H   0  0  0  0  0  0  0  0  0  0  0  0  # atno 10718 bound_to 10713
  154.6960  135.5194  153.8459 H   0  0  0  0  0  0  0  0  0  0  0  0  # atno 10763 bound_to 10752
  153.0668  135.6587  154.0347 H   0  0  0  0  0  0  0  0  0  0  0  0  # atno 10764 bound_to 10752
  154.0213  135.2993  155.3360 H   0  0  0  0  0  0  0  0  0  0  0  0  # atno 10765 bound_to 10752
  141.1489  133.7908  157.0201 H   0  0  0  0  0  0  0  0  0  0  0  0  # atno 11005 bound_to 11000
  145.1944  139.2284  143.5225 LP  0  0  0  0  0  0  0  0  0  0  0  0  # atno 17320 bound_to 7965
  146.3479  140.1748  142.8589 LP  0  0  0  0  0  0  0  0  0  0  0  0  # atno 17321 bound_to 7965
  140.7067  143.7496  150.7494 LP  0  0  0  0  0  0  0  0  0  0  0  0  # atno 17342 bound_to 10162
  140.1023  143.4777  152.2418 LP  0  0  0  0  0  0  0  0  0  0  0  0  # atno 17343 bound_to 10162
  156.2666  130.3717  149.8075 LP  0  0  0  0  0  0  0  0  0  0  0  0  # atno 17370 bound_to 10713
  156.5804  130.8463  151.3381 LP  0  0  0  0  0  0  0  0  0  0  0  0  # atno 17371 bound_to 10713
  140.0821  134.9642  157.1641 LP  0  0  0  0  0  0  0  0  0  0  0  0  # atno 17394 bound_to 11000
  140.3562  134.2544  155.7192 LP  0  0  0  0  0  0  0  0  0  0  0  0  # atno 17395 bound_to 11000

$$$$
