AV-unprocessed.smi:487|AV-procd|sdf|2700|dock2
  -GOLD-   2262023133D 1   1.00000     0.00000
 Structure written by MMmdl.
 40 41  0  0  0  0  0  0  0  0  2 V2000
  147.7970  142.8511  161.1251 O   0  0  0  0  0  0  0  0  0  0  0  0
  147.6609  143.6824  160.2277 C   0  0  0  0  0  0  0  0  0  0  0  0
  146.3383  144.4621  160.1256 C   0  0  0  0  0  0  0  0  0  0  0  0
  145.1340  143.6247  159.9736 N   0  0  0  0  0  0  0  0  0  0  0  0
  144.9103  142.6274  160.9392 C   0  0  0  0  0  0  0  0  0  0  0  0
  143.8438  141.8074  160.8802 C   0  0  0  0  0  0  0  0  0  0  0  0
  142.9056  141.9736  159.7772 C   0  0  0  0  0  0  0  0  0  0  0  0
  141.9256  141.2345  159.7077 O   0  0  0  0  0  0  0  0  0  0  0  0
  143.1671  142.9542  158.8641 N   0  5  0  0  0  0  0  0  0  0  0  0
  144.2571  143.7795  158.9355 C   0  0  0  0  0  0  0  0  0  0  0  0
  144.4804  144.6504  158.0945 O   0  0  0  0  0  0  0  0  0  0  0  0
  148.6185  143.9390  159.3197 N   0  0  0  0  0  0  0  0  0  0  0  0
  149.9377  143.3154  159.2573 C   0  0  0  0  0  0  0  0  0  0  0  0
  151.0260  144.3866  159.5027 C   0  0  0  0  0  0  0  0  0  0  0  0
  151.9868  144.0790  160.6674 C   0  0  0  0  0  0  0  0  0  0  0  0
  152.5359  142.6414  160.7816 C   0  0  0  0  0  0  0  0  0  0  0  0
  153.1863  142.0530  159.5172 C   0  0  0  0  0  0  0  0  0  0  0  0
  152.2392  141.2523  158.5969 C   0  0  0  0  0  0  0  0  0  0  0  0
  151.5035  142.0841  157.5320 C   0  0  0  0  0  0  0  0  0  0  0  0
  150.0916  142.5808  157.9060 C   0  0  0  0  0  0  0  0  0  0  0  0
  146.2463  145.0859  161.0156 H   0  0  0  0  0  0  0  0  0  0  0  0
  146.4157  145.1670  159.2961 H   0  0  0  0  0  0  0  0  0  0  0  0
  145.6551  142.5671  161.7190 H   0  0  0  0  0  0  0  0  0  0  0  0
  143.6880  141.0446  161.6288 H   0  0  0  0  0  0  0  0  0  0  0  0
  148.4187  144.6437  158.6240 H   0  0  0  0  0  0  0  0  0  0  0  0
  149.9743  142.5759  160.0559 H   0  0  0  0  0  0  0  0  0  0  0  0
  151.6035  144.5631  158.5969 H   0  0  0  0  0  0  0  0  0  0  0  0
  150.5644  145.3539  159.7088 H   0  0  0  0  0  0  0  0  0  0  0  0
  152.8244  144.7750  160.6107 H   0  0  0  0  0  0  0  0  0  0  0  0
  151.4774  144.3139  161.6028 H   0  0  0  0  0  0  0  0  0  0  0  0
  153.2931  142.6593  161.5662 H   0  0  0  0  0  0  0  0  0  0  0  0
  151.7731  141.9611  161.1597 H   0  0  0  0  0  0  0  0  0  0  0  0
  153.7260  142.8210  158.9619 H   0  0  0  0  0  0  0  0  0  0  0  0
  153.9535  141.3558  159.8563 H   0  0  0  0  0  0  0  0  0  0  0  0
  152.8602  140.5343  158.0598 H   0  0  0  0  0  0  0  0  0  0  0  0
  151.5394  140.6466  159.1740 H   0  0  0  0  0  0  0  0  0  0  0  0
  152.1323  142.9124  157.2064 H   0  0  0  0  0  0  0  0  0  0  0  0
  151.3914  141.4635  156.6422 H   0  0  0  0  0  0  0  0  0  0  0  0
  149.4114  141.7281  157.8978 H   0  0  0  0  0  0  0  0  0  0  0  0
  149.7487  143.2344  157.1024 H   0  0  0  0  0  0  0  0  0  0  0  0
  1  2  2  0  0  0  0
  2  3  1  0  0  0  0
  2 12  1  0  0  0  0
  3  4  1  0  0  0  0
  3 21  1  0  0  0  0
  3 22  1  0  0  0  0
  4 10  1  0  0  0  0
  4  5  1  0  0  0  0
  5  6  2  0  0  0  0
  5 23  1  0  0  0  0
  6  7  1  0  0  0  0
  6 24  1  0  0  0  0
  7  8  2  0  0  0  0
  7  9  1  0  0  0  0
  9 10  1  0  0  0  0
 10 11  2  0  0  0  0
 12 13  1  0  0  0  0
 12 25  1  0  0  0  0
 13 20  1  0  0  0  0
 13 14  1  0  0  0  0
 13 26  1  0  0  0  0
 14 15  1  0  0  0  0
 14 27  1  0  0  0  0
 14 28  1  0  0  0  0
 15 16  1  0  0  0  0
 15 29  1  0  0  0  0
 15 30  1  0  0  0  0
 16 17  1  0  0  0  0
 16 31  1  0  0  0  0
 16 32  1  0  0  0  0
 17 18  1  0  0  0  0
 17 33  1  0  0  0  0
 17 34  1  0  0  0  0
 18 19  1  0  0  0  0
 18 35  1  0  0  0  0
 18 36  1  0  0  0  0
 19 20  1  0  0  0  0
 19 37  1  0  0  0  0
 19 38  1  0  0  0  0
 20 39  1  0  0  0  0
 20 40  1  0  0  0  0
M  CHG  1   9  -1
M  END
> <s_m_source_file>
AV-unprocessed.smi

> <i_m_source_file_index>
487

> <i_lp_mmshare_version>
43012

> <i_f3d_flags>
0

> <s_epik_input>
Tz1jMVtuSF1jKD1PKVtjSF1bY0hdbjFbQ0gyXUMoPU8pW05IXVtDSF0yW0NIMl1bQ0gyXVtDSDJdW0NIMl1bQ0gyXVtDSDJdW0NIMl0y

> <s_epik_cmdline>
J2VwaWtfcHl0aG9uJywgJy1waCcsICc3LjAnLCAnLXRuJywgJzgnLCAnLW1hJywgJzIwMCcsICctbWV0YWxfYmluZGluZycsICctaW1hZScsICc8aW5maWxlLm1hZT4nLCAnLW9tYWUnLCAnPG91dGZpbGUubWFlPic=

> <r_lp_tautomer_probability>
0.999537

> <r_epik_Ionization_Penalty>
3.09244

> <r_epik_Ionization_Penalty_Charging>
2.84692e-08

> <r_epik_Ionization_Penalty_Neutral>
3.09244

> <r_epik_State_Penalty>
3.09149

> <r_epik_Charging_Adjusted_Penalty>
3.09149

> <i_epik_Tot_Q>
-1

> <i_epik_Tot_abs_Q>
1

> <r_epik_Metal_State_Penalty>
0.461034

> <b_epik_Metal_Only>
1

> <s_lp_Force_Field>
OPLS_2005

> <r_lp_Energy>
30.2877

> <b_lp_Chiralities_Consistent>
1

> <s_lp_Variant>
AV-unprocessed.smi:487-2

> <Gold.Version>
5.8.1

> <Gold.Id.Protein>
6NUR|6NUR_protein|mol2

> <Gold.PLP.Fitness>
48.1646

> <Gold.PLP.PLP>
-42.2979

> <Gold.PLP.part.hbond>
-3.9121

> <Gold.PLP.part.metal>
0.0000

> <Gold.PLP.part.buried>
-7.6670

> <Gold.PLP.part.nonpolar>
-31.6736

> <Gold.PLP.part.repulsive>
0.4388

> <Gold.PLP.ligand.clash>
0.0000

> <Gold.PLP.ligand.torsion>
0.0370

> <Gold.PLP.Chemscore.Hbond>
1.9760

> <Gold.PLP.Chemscore.CHOScore>
0.0000

> <Gold.PLP.Chemscore.Metal>
0.0000

> <Gold.Chemscore.Hbonds>
donor molecule, donor type, donor heavy atom, donor atom, acceptor molecule, acceptor atom, score
      L1  H    12    25       P1  8029  1.00
      P1  H  6934  6946       L1     1  0.19

> <Gold.PLP.Chemscore.Internal.Correction>
0.0127

> <Gold.Rescore>
     Score         DG    S(hbond)    S(metal)    S(lipo)     H(rot)  DE(clash)    DE(int)     intcor
     17.90     -20.00       1.92        0.00     105.18       1.64       0.18       1.93       ----

> <Gold.Chemscore.Fitness>
17.8986

> <Gold.Chemscore.DG>
-20.0028

> <Gold.Chemscore.ZeroCoef>
-5.4800

> <Gold.Chemscore.Hbond>
1.9237

> <Gold.Chemscore.Metal>
0.0000

> <Gold.Chemscore.Lipo>
105.1773

> <Gold.Chemscore.Internal_Hbond>
0.0000

> <Gold.Chemscore.DEClash>
0.1778

> <Gold.Chemscore.DEInternal>
1.9264

> <Gold.Chemscore.Rot>
1.6438

> <Gold.Chemscore.Internal.Correction>
   9.000000E+99

> <Gold.Chemscore.Hbonds>
donor molecule, donor type, donor heavy atom, donor atom, acceptor molecule, acceptor atom, score
      L1  H    12    25       P1  8029  0.93
      P1  H  6934  6946       L1     1  0.18

> <Gold.Chemscore.Hbond.Weighted>
-6.4251

> <Gold.Chemscore.Metal.Weighted>
-0.0000

> <Gold.Chemscore.Lipo.Weighted>
-12.3057

> <Gold.Chemscore.Internal_Hbond.Weighted>
0.0000

> <Gold.Chemscore.DEClash.Weighted>
0.1778

> <Gold.Chemscore.DEInternal.Weighted>
1.9264

> <Gold.Chemscore.Rot.Weighted>
4.2080

> <Gold.Chemscore.Internal.Correction.Weighted>
   9.000000E+99

> <Gold.Protein.RotatedTorsions>
[ 6907 6896 6895 6894 ] final  -64.42 input  -60.11 | X-H torsion
[ 7974 7965 7964 7962 ] final    2.01 input  175.53 | X-H torsion
[ 8008 7997 7996 7995 ] final  177.36 input   59.86 | X-H torsion
[ 10167 10162 10161 10158 ] final -109.73 input  -65.29 | X-H torsion
[ 10718 10713 10712 10709 ] final   -8.04 input   66.30 | X-H torsion
[ 10763 10752 10751 10750 ] final  160.57 input  -60.55 | X-H torsion
[ 11005 11000 10999 10996 ] final  131.39 input  -57.11 | X-H torsion

> <Gold.Protein.ActiveResidues>
 VAL166  LYS551  ARG553  GLY616  TRP617  ASP618  TYR619  PRO620  LYS621  CYS622 
 ASP623  PHE694  ASN695  SER759  ASP760  ASP761  ALA762  ILE779  LEU786  VAL792 
 PHE793  MET794  SER795  GLU796  ALA797  LYS798  CYS799  TRP800  GLU811  SER814 

> <Gold.Protein.RotatedAtoms>
  150.7586  134.6301  159.6181 H   0  0  0  0  0  0  0  0  0  0  0  0  # atno 6907 bound_to 6896
  152.3581  134.6908  160.0225 H   0  0  0  0  0  0  0  0  0  0  0  0  # atno 6908 bound_to 6896
  151.7307  133.3281  159.3376 H   0  0  0  0  0  0  0  0  0  0  0  0  # atno 6909 bound_to 6896
  146.2442  140.0901  142.8352 H   0  0  0  0  0  0  0  0  0  0  0  0  # atno 7974 bound_to 7965
  156.0665  140.1360  156.9880 H   0  0  0  0  0  0  0  0  0  0  0  0  # atno 8008 bound_to 7997
  154.4509  140.0980  156.6666 H   0  0  0  0  0  0  0  0  0  0  0  0  # atno 8009 bound_to 7997
  155.5296  140.3458  155.4425 H   0  0  0  0  0  0  0  0  0  0  0  0  # atno 8010 bound_to 7997
  140.1521  143.4190  152.1487 H   0  0  0  0  0  0  0  0  0  0  0  0  # atno 10167 bound_to 10162
  156.7084  130.5114  149.5898 H   0  0  0  0  0  0  0  0  0  0  0  0  # atno 10718 bound_to 10713
  154.2494  135.2772  155.2822 H   0  0  0  0  0  0  0  0  0  0  0  0  # atno 10763 bound_to 10752
  154.5478  135.5684  153.6898 H   0  0  0  0  0  0  0  0  0  0  0  0  # atno 10764 bound_to 10752
  152.9983  135.6267  154.2641 H   0  0  0  0  0  0  0  0  0  0  0  0  # atno 10765 bound_to 10752
  139.9727  134.9572  156.9431 H   0  0  0  0  0  0  0  0  0  0  0  0  # atno 11005 bound_to 11000
  145.0658  140.9120  143.4911 LP  0  0  0  0  0  0  0  0  0  0  0  0  # atno 17320 bound_to 7965
  145.1025  139.2813  143.5679 LP  0  0  0  0  0  0  0  0  0  0  0  0  # atno 17321 bound_to 7965
  139.5421  144.7265  151.4701 LP  0  0  0  0  0  0  0  0  0  0  0  0  # atno 17342 bound_to 10162
  140.6696  143.8323  150.6983 LP  0  0  0  0  0  0  0  0  0  0  0  0  # atno 17343 bound_to 10162
  156.1679  130.6417  151.0800 LP  0  0  0  0  0  0  0  0  0  0  0  0  # atno 17370 bound_to 10713
  157.6946  131.0798  150.7008 LP  0  0  0  0  0  0  0  0  0  0  0  0  # atno 17371 bound_to 10713
  140.5259  134.0861  155.7303 LP  0  0  0  0  0  0  0  0  0  0  0  0  # atno 17394 bound_to 11000
  141.1406  133.9145  157.2334 LP  0  0  0  0  0  0  0  0  0  0  0  0  # atno 17395 bound_to 11000

$$$$
