AV-unprocessed.smi:2886|AV-procd|sdf|11097|dock9
  -GOLD-   2272015563D 1   1.00000     0.00000
 Structure written by MMmdl.
 27 29  0  0  0  0  0  0  0  0  2 V2000
  151.3365  139.2206  154.4087 O   0  0  0  0  0  0  0  0  0  0  0  0
  151.6753  139.5664  155.5393 C   0  0  0  0  0  0  0  0  0  0  0  0
  152.6501  138.9107  156.2395 N   0  5  0  0  0  0  0  0  0  0  0  0
  153.0217  139.3614  157.5623 N   0  0  0  0  0  0  0  0  0  0  0  0
  152.4466  140.3631  158.1007 C   0  0  0  0  0  0  0  0  0  0  0  0
  151.3687  141.1215  157.4195 C   0  0  0  0  0  0  0  0  0  0  0  0
  150.7421  142.2139  158.0057 N   0  0  0  0  0  0  0  0  0  0  0  0
  150.9848  142.8086  159.3128 C   0  0  2  0  0  0  0  0  0  0  0  0
  150.2114  144.1096  159.5329 C   0  0  0  0  0  0  0  0  0  0  0  0
  151.3374  145.0752  159.9302 C   0  0  2  0  0  0  0  0  0  0  0  0
  152.1823  145.4841  158.7169 C   0  0  0  0  0  0  0  0  0  0  0  0
  152.9666  144.2031  158.4384 C   0  0  0  0  0  0  0  0  0  0  0  0
  152.4385  143.2615  159.5338 C   0  0  1  0  0  0  0  0  0  0  0  0
  152.2368  144.1934  160.5833 O   0  0  0  0  0  0  0  0  0  0  0  0
  151.0194  140.7174  156.1718 C   0  0  0  0  0  0  0  0  0  0  0  0
  149.7801  141.5484  155.2889 Cl  0  0  0  0  0  0  0  0  0  0  0  0
  152.7322  140.7111  159.0960 H   0  0  0  0  0  0  0  0  0  0  0  0
  149.9262  142.5682  157.5273 H   0  0  0  0  0  0  0  0  0  0  0  0
  150.6996  142.1116  160.1007 H   0  0  0  0  0  0  0  0  0  0  0  0
  149.6699  144.4541  158.6505 H   0  0  0  0  0  0  0  0  0  0  0  0
  149.4937  143.9902  160.3452 H   0  0  0  0  0  0  0  0  0  0  0  0
  151.0056  145.9152  160.5408 H   0  0  0  0  0  0  0  0  0  0  0  0
  151.5707  145.7994  157.8709 H   0  0  0  0  0  0  0  0  0  0  0  0
  152.8604  146.2991  158.9718 H   0  0  0  0  0  0  0  0  0  0  0  0
  152.8102  143.8175  157.4306 H   0  0  0  0  0  0  0  0  0  0  0  0
  154.0351  144.3787  158.5677 H   0  0  0  0  0  0  0  0  0  0  0  0
  153.1195  142.4470  159.7820 H   0  0  0  0  0  0  0  0  0  0  0  0
  1  2  2  0  0  0  0
  2 15  1  0  0  0  0
  2  3  1  0  0  0  0
  3  4  1  0  0  0  0
  4  5  2  0  0  0  0
  5  6  1  0  0  0  0
  5 17  1  0  0  0  0
  6  7  1  0  0  0  0
  6 15  2  0  0  0  0
  7  8  1  0  0  0  0
  7 18  1  0  0  0  0
  8 13  1  0  0  0  0
  8  9  1  0  0  0  0
  8 19  1  0  0  0  0
  9 10  1  0  0  0  0
  9 20  1  0  0  0  0
  9 21  1  0  0  0  0
 10 14  1  0  0  0  0
 10 11  1  0  0  0  0
 10 22  1  0  0  0  0
 11 12  1  0  0  0  0
 11 23  1  0  0  0  0
 11 24  1  0  0  0  0
 12 13  1  0  0  0  0
 12 25  1  0  0  0  0
 12 26  1  0  0  0  0
 13 14  1  0  0  0  0
 13 27  1  0  0  0  0
 15 16  1  0  0  0  0
M  CHG  1   3  -1
M  END
> <s_m_source_file>
AV-unprocessed.smi

> <i_m_source_file_index>
2886

> <i_lp_mmshare_version>
43012

> <i_f3d_flags>
0

> <s_epik_input>
Tz1jMVtuSF1uW2NIXWMoYzFDbClbTkhdW0NASF0oW0NIMl1bQ0BASF0yMylbQ0BASF0oTzMpW0NIMl1bQ0gyXTI=

> <s_epik_cmdline>
J2VwaWtfcHl0aG9uJywgJy1waCcsICc3LjAnLCAnLXRuJywgJzgnLCAnLW1hJywgJzIwMCcsICctbWV0YWxfYmluZGluZycsICctaW1hZScsICc8aW5maWxlLm1hZT4nLCAnLW9tYWUnLCAnPG91dGZpbGUubWFlPic=

> <r_lp_tautomer_probability>
0.986175

> <r_epik_Ionization_Penalty>
3.84253

> <r_epik_Ionization_Penalty_Charging>
0.0129711

> <r_epik_Ionization_Penalty_Neutral>
3.82956

> <r_epik_State_Penalty>
3.8249

> <r_epik_Charging_Adjusted_Penalty>
3.83787

> <i_epik_Tot_Q>
-1

> <i_epik_Tot_abs_Q>
1

> <r_epik_Metal_State_Penalty>
0.57612

> <b_epik_Metal_Only>
1

> <s_lp_Force_Field>
OPLS_2005

> <r_lp_Energy>
60.9826

> <b_lp_Chiralities_Consistent>
1

> <s_lp_Variant>
AV-unprocessed.smi:2886-11

> <Gold.Version>
5.8.1

> <Gold.Id.Protein>
6NUR|6NUR_protein|mol2

> <Gold.PLP.Fitness>
38.9781

> <Gold.PLP.PLP>
-33.4768

> <Gold.PLP.part.hbond>
-3.0000

> <Gold.PLP.part.metal>
0.0000

> <Gold.PLP.part.buried>
-3.0089

> <Gold.PLP.part.nonpolar>
-27.2364

> <Gold.PLP.part.repulsive>
0.2628

> <Gold.PLP.ligand.clash>
0.0000

> <Gold.PLP.ligand.torsion>
0.0289

> <Gold.PLP.Chemscore.Hbond>
1.8500

> <Gold.PLP.Chemscore.CHOScore>
0.0000

> <Gold.PLP.Chemscore.Metal>
0.0000

> <Gold.Chemscore.Hbonds>
donor molecule, donor type, donor heavy atom, donor atom, acceptor molecule, acceptor atom, score
      P1  H  7989  7998       L1     1  0.95
      P1  H  7997  8009       L1     4  0.80

> <Gold.PLP.Chemscore.Internal.Correction>
0.0091

> <Gold.Rescore>
     Score         DG    S(hbond)    S(metal)    S(lipo)     H(rot)  DE(clash)    DE(int)     intcor
     16.92     -17.32       0.95        0.00      96.10       1.00       0.39       0.01       ----

> <Gold.Chemscore.Fitness>
16.9191

> <Gold.Chemscore.DG>
-17.3218

> <Gold.Chemscore.ZeroCoef>
-5.4800

> <Gold.Chemscore.Hbond>
0.9457

> <Gold.Chemscore.Metal>
0.0000

> <Gold.Chemscore.Lipo>
96.0968

> <Gold.Chemscore.Internal_Hbond>
0.0000

> <Gold.Chemscore.DEClash>
0.3934

> <Gold.Chemscore.DEInternal>
0.0093

> <Gold.Chemscore.Rot>
1.0000

> <Gold.Chemscore.Internal.Correction>
   9.000000E+99

> <Gold.Chemscore.Hbonds>
donor molecule, donor type, donor heavy atom, donor atom, acceptor molecule, acceptor atom, score
      P1  H  7989  7998       L1     1  0.21
      P1  H  7997  8009       L1     4  0.04

> <Gold.Chemscore.Hbond.Weighted>
-3.1585

> <Gold.Chemscore.Metal.Weighted>
-0.0000

> <Gold.Chemscore.Lipo.Weighted>
-11.2433

> <Gold.Chemscore.Internal_Hbond.Weighted>
0.0000

> <Gold.Chemscore.DEClash.Weighted>
0.3934

> <Gold.Chemscore.DEInternal.Weighted>
0.0093

> <Gold.Chemscore.Rot.Weighted>
2.5600

> <Gold.Chemscore.Internal.Correction.Weighted>
   9.000000E+99

> <Gold.Protein.RotatedTorsions>
[ 6907 6896 6895 6894 ] final -158.24 input  -60.11 | X-H torsion
[ 7974 7965 7964 7962 ] final   35.19 input  175.53 | X-H torsion
[ 8008 7997 7996 7995 ] final  147.52 input   59.86 | X-H torsion
[ 10167 10162 10161 10158 ] final -104.03 input  -65.29 | X-H torsion
[ 10718 10713 10712 10709 ] final    4.50 input   66.30 | X-H torsion
[ 10763 10752 10751 10750 ] final  -20.12 input  -60.55 | X-H torsion
[ 11005 11000 10999 10996 ] final   30.94 input  -57.11 | X-H torsion

> <Gold.Protein.ActiveResidues>
 VAL166  LYS551  ARG553  GLY616  TRP617  ASP618  TYR619  PRO620  LYS621  CYS622 
 ASP623  PHE694  ASN695  SER759  ASP760  ASP761  ALA762  ILE779  LEU786  VAL792 
 PHE793  MET794  SER795  GLU796  ALA797  LYS798  CYS799  TRP800  GLU811  SER814 

> <Gold.Protein.RotatedAtoms>
  151.3151  133.4063  159.2649 H   0  0  0  0  0  0  0  0  0  0  0  0  # atno 6907 bound_to 6896
  151.0081  134.9376  159.8002 H   0  0  0  0  0  0  0  0  0  0  0  0  # atno 6908 bound_to 6896
  152.5293  134.3116  159.9168 H   0  0  0  0  0  0  0  0  0  0  0  0  # atno 6909 bound_to 6896
  146.1300  139.6173  142.9233 H   0  0  0  0  0  0  0  0  0  0  0  0  # atno 7974 bound_to 7965
  156.2822  140.2153  156.5551 H   0  0  0  0  0  0  0  0  0  0  0  0  # atno 8008 bound_to 7997
  154.7259  140.0499  157.0705 H   0  0  0  0  0  0  0  0  0  0  0  0  # atno 8009 bound_to 7997
  155.0417  140.3146  155.4725 H   0  0  0  0  0  0  0  0  0  0  0  0  # atno 8010 bound_to 7997
  140.2137  143.3728  152.1029 H   0  0  0  0  0  0  0  0  0  0  0  0  # atno 10167 bound_to 10162
  156.8936  130.5696  149.5649 H   0  0  0  0  0  0  0  0  0  0  0  0  # atno 10718 bound_to 10713
  153.6154  135.6994  153.5331 H   0  0  0  0  0  0  0  0  0  0  0  0  # atno 10763 bound_to 10752
  153.2982  135.4137  155.1228 H   0  0  0  0  0  0  0  0  0  0  0  0  # atno 10764 bound_to 10752
  154.8554  135.3642  154.5694 H   0  0  0  0  0  0  0  0  0  0  0  0  # atno 10765 bound_to 10752
  140.2891  134.2885  155.7780 H   0  0  0  0  0  0  0  0  0  0  0  0  # atno 11005 bound_to 11000
  145.5281  141.0428  143.2398 LP  0  0  0  0  0  0  0  0  0  0  0  0  # atno 17320 bound_to 7965
  144.7681  139.6798  143.7206 LP  0  0  0  0  0  0  0  0  0  0  0  0  # atno 17321 bound_to 7965
  139.5170  144.6986  151.5559 LP  0  0  0  0  0  0  0  0  0  0  0  0  # atno 17342 bound_to 10162
  140.6305  143.9085  150.6602 LP  0  0  0  0  0  0  0  0  0  0  0  0  # atno 17343 bound_to 10162
  156.0617  130.5668  150.9206 LP  0  0  0  0  0  0  0  0  0  0  0  0  # atno 17370 bound_to 10713
  157.6069  131.0938  150.8863 LP  0  0  0  0  0  0  0  0  0  0  0  0  # atno 17371 bound_to 10713
  141.2149  133.7574  156.9597 LP  0  0  0  0  0  0  0  0  0  0  0  0  # atno 17394 bound_to 11000
  140.1212  134.9416  157.2206 LP  0  0  0  0  0  0  0  0  0  0  0  0  # atno 17395 bound_to 11000

$$$$
