AV-unprocessed.smi:123|AV-procd|sdf|1145|dock3
  -GOLD-   2262018273D 1   1.00000     0.00000
 Structure written by MMmdl.
 43 45  0  0  0  0  0  0  0  0  1 V2000
  148.3543  136.5981  157.5110 C   0  0  0  0  0  0  0  0  0  0  0  0
  149.8063  136.1156  157.3379 C   0  0  2  0  0  0  0  0  0  0  0  0
  150.6737  137.1969  156.8673 N   0  0  0  0  0  0  0  0  0  0  0  0
  151.9540  137.0871  156.4743 C   0  0  0  0  0  0  0  0  0  0  0  0
  152.5668  136.0183  156.4503 O   0  0  0  0  0  0  0  0  0  0  0  0
  152.6328  138.3977  156.0470 C   0  0  0  0  0  0  0  0  0  0  0  0
  151.8158  139.5999  156.3214 N   0  0  0  0  0  0  0  0  0  0  0  0
  150.9051  140.0451  155.3310 C   0  0  0  0  0  0  0  0  0  0  0  0
  150.7733  139.4401  154.2660 O   0  0  0  0  0  0  0  0  0  0  0  0
  150.1608  141.2557  155.6586 C   0  0  0  0  0  0  0  0  0  0  0  0
  149.2780  141.7535  154.7760 F   0  0  0  0  0  0  0  0  0  0  0  0
  150.3476  141.8895  156.8346 C   0  0  0  0  0  0  0  0  0  0  0  0
  151.2391  141.4426  157.7929 N   0  0  0  0  0  0  0  0  0  0  0  0
  151.4402  142.1876  159.0944 C   0  0  1  0  0  0  0  0  0  0  0  0
  152.8945  142.6554  159.2171 C   0  0  0  0  0  0  0  0  0  0  0  0
  152.8215  144.0481  158.6304 C   0  0  0  0  0  0  0  0  0  0  0  0
  151.4419  144.5040  159.0926 C   0  0  0  0  0  0  0  0  0  0  0  0
  150.6323  143.3299  159.1002 O   0  0  0  0  0  0  0  0  0  0  0  0
  152.0063  140.2835  157.5460 C   0  0  0  0  0  0  0  0  0  0  0  0
  152.8297  139.8859  158.3735 O   0  0  0  0  0  0  0  0  0  0  0  0
  149.9374  134.8739  156.5044 C   0  0  0  0  0  0  0  0  0  0  0  0
  149.7406  134.5923  155.1793 C   0  0  0  0  0  0  0  0  0  0  0  0
  150.0369  133.2114  155.0111 C   0  0  0  0  0  0  0  0  0  0  0  0
  150.3870  132.7488  156.2472 C   0  0  0  0  0  0  0  0  0  0  0  0
  150.3282  133.7478  157.1687 O   0  0  0  0  0  0  0  0  0  0  0  0
  147.7446  135.8319  157.9904 H   0  0  0  0  0  0  0  0  0  0  0  0
  147.8887  136.8367  156.5542 H   0  0  0  0  0  0  0  0  0  0  0  0
  148.3084  137.4908  158.1355 H   0  0  0  0  0  0  0  0  0  0  0  0
  150.1745  135.8711  158.3347 H   0  0  0  0  0  0  0  0  0  0  0  0
  150.2633  138.1193  156.8516 H   0  0  0  0  0  0  0  0  0  0  0  0
  153.6040  138.4596  156.5402 H   0  0  0  0  0  0  0  0  0  0  0  0
  152.8792  138.3318  154.9858 H   0  0  0  0  0  0  0  0  0  0  0  0
  149.7741  142.7856  157.0175 H   0  0  0  0  0  0  0  0  0  0  0  0
  151.1225  141.5066  159.8854 H   0  0  0  0  0  0  0  0  0  0  0  0
  153.1582  142.6993  160.2746 H   0  0  0  0  0  0  0  0  0  0  0  0
  153.5924  141.9916  158.7057 H   0  0  0  0  0  0  0  0  0  0  0  0
  153.6243  144.7006  158.9743 H   0  0  0  0  0  0  0  0  0  0  0  0
  152.8614  144.0016  157.5414 H   0  0  0  0  0  0  0  0  0  0  0  0
  151.4945  144.8968  160.1087 H   0  0  0  0  0  0  0  0  0  0  0  0
  151.0182  145.2774  158.4514 H   0  0  0  0  0  0  0  0  0  0  0  0
  149.4273  135.2952  154.4215 H   0  0  0  0  0  0  0  0  0  0  0  0
  149.9980  132.6303  154.1016 H   0  0  0  0  0  0  0  0  0  0  0  0
  150.6897  131.7852  156.6300 H   0  0  0  0  0  0  0  0  0  0  0  0
  1  2  1  0  0  0  0
  1 26  1  0  0  0  0
  1 27  1  0  0  0  0
  1 28  1  0  0  0  0
  2  3  1  0  0  0  0
  2 21  1  0  0  0  0
  2 29  1  0  0  0  0
  3  4  1  0  0  0  0
  3 30  1  0  0  0  0
  4  5  2  0  0  0  0
  4  6  1  0  0  0  0
  6  7  1  0  0  0  0
  6 31  1  0  0  0  0
  6 32  1  0  0  0  0
  7 19  1  0  0  0  0
  7  8  1  0  0  0  0
  8  9  2  0  0  0  0
  8 10  1  0  0  0  0
 10 11  1  0  0  0  0
 10 12  2  0  0  0  0
 12 13  1  0  0  0  0
 12 33  1  0  0  0  0
 13 14  1  0  0  0  0
 13 19  1  0  0  0  0
 14 18  1  0  0  0  0
 14 15  1  0  0  0  0
 14 34  1  0  0  0  0
 15 16  1  0  0  0  0
 15 35  1  0  0  0  0
 15 36  1  0  0  0  0
 16 17  1  0  0  0  0
 16 37  1  0  0  0  0
 16 38  1  0  0  0  0
 17 18  1  0  0  0  0
 17 39  1  0  0  0  0
 17 40  1  0  0  0  0
 19 20  2  0  0  0  0
 21 25  1  0  0  0  0
 21 22  2  0  0  0  0
 22 23  1  0  0  0  0
 22 41  1  0  0  0  0
 23 24  2  0  0  0  0
 23 42  1  0  0  0  0
 24 25  1  0  0  0  0
 24 43  1  0  0  0  0
M  END
> <s_m_source_file>
AV-unprocessed.smi

> <i_m_source_file_index>
123

> <i_lp_mmshare_version>
43012

> <i_f3d_flags>
0

> <s_epik_input>
bzFbY0hdW2NIXVtjSF1jMVtDQEhdKFtDSDNdKVtOSF1DKD1PKVtDSDJdbjJjKD1PKWMoRilbY0hdbihjMj1PKVtDQEBIXTNbQ0gyXVtDSDJdW0NIMl1PMw==

> <s_epik_cmdline>
J2VwaWtfcHl0aG9uJywgJy1waCcsICc3LjAnLCAnLXRuJywgJzgnLCAnLW1hJywgJzIwMCcsICctbWV0YWxfYmluZGluZycsICctaW1hZScsICc8aW5maWxlLm1hZT4nLCAnLW9tYWUnLCAnPG91dGZpbGUubWFlPic=

> <r_lp_tautomer_probability>
1

> <r_epik_Ionization_Penalty>
2.31906e-08

> <r_epik_Ionization_Penalty_Charging>
3.85846e-09

> <r_epik_Ionization_Penalty_Neutral>
1.93321e-08

> <r_epik_State_Penalty>
-0

> <r_epik_Charging_Adjusted_Penalty>
3.85846e-09

> <i_epik_Tot_Q>
0

> <i_epik_Tot_abs_Q>
0

> <r_epik_Metal_State_Penalty>
-0

> <b_epik_Metal_Only>
0

> <s_epik_Chemistry_Notes>
This compound contains an acetal/aminal-like group ( X-CH(R)-Y where X, Y are N, S, or O) that may be acid/base labile, releasing an aldehyde.

> <s_lp_Force_Field>
OPLS_2005

> <r_lp_Energy>
21.1126

> <b_lp_Chiralities_Consistent>
1

> <s_lp_Variant>
AV-unprocessed.smi:123-3

> <Gold.Version>
5.8.1

> <Gold.Id.Protein>
6NUR|6NUR_protein|mol2

> <Gold.PLP.Fitness>
52.4535

> <Gold.PLP.PLP>
-44.0520

> <Gold.PLP.part.hbond>
-3.5711

> <Gold.PLP.part.metal>
0.0000

> <Gold.PLP.part.buried>
-3.6755

> <Gold.PLP.part.nonpolar>
-37.9708

> <Gold.PLP.part.repulsive>
0.3042

> <Gold.PLP.ligand.clash>
0.0000

> <Gold.PLP.ligand.torsion>
0.6568

> <Gold.PLP.Chemscore.Hbond>
2.1980

> <Gold.PLP.Chemscore.CHOScore>
1.0000

> <Gold.PLP.Chemscore.Metal>
0.0000

> <Gold.Chemscore.Hbonds>
donor molecule, donor type, donor heavy atom, donor atom, acceptor molecule, acceptor atom, score
      P1  H  6896  6908       L1    25  0.67
      P1  H  7989  7998       L1     9  0.35
      P1  H 10752 10764       L1     5  1.00
      L1  C    12    33       P1  8028  1.00

> <Gold.PLP.Chemscore.Internal.Correction>
0.1211

> <Gold.Rescore>
     Score         DG    S(hbond)    S(metal)    S(lipo)     H(rot)  DE(clash)    DE(int)     intcor
     13.31     -16.67       2.25        0.00      80.32       2.23       0.19       3.17       ----

> <Gold.Chemscore.Fitness>
13.3108

> <Gold.Chemscore.DG>
-16.6689

> <Gold.Chemscore.ZeroCoef>
-5.4800

> <Gold.Chemscore.Hbond>
2.2493

> <Gold.Chemscore.Metal>
0.0000

> <Gold.Chemscore.Lipo>
80.3170

> <Gold.Chemscore.Internal_Hbond>
0.0000

> <Gold.Chemscore.DEClash>
0.1854

> <Gold.Chemscore.DEInternal>
3.1727

> <Gold.Chemscore.Rot>
2.2347

> <Gold.Chemscore.Internal.Correction>
   9.000000E+99

> <Gold.Chemscore.Hbonds>
donor molecule, donor type, donor heavy atom, donor atom, acceptor molecule, acceptor atom, score
      P1  H  6896  6908       L1    25  0.64
      P1  H  7989  7998       L1     9  0.01
      P1  H  7997  8008       L1    20  0.01
      P1  H 10752 10764       L1     5  0.96

> <Gold.Chemscore.Hbond.Weighted>
-7.5126

> <Gold.Chemscore.Metal.Weighted>
-0.0000

> <Gold.Chemscore.Lipo.Weighted>
-9.3971

> <Gold.Chemscore.Internal_Hbond.Weighted>
0.0000

> <Gold.Chemscore.DEClash.Weighted>
0.1854

> <Gold.Chemscore.DEInternal.Weighted>
3.1727

> <Gold.Chemscore.Rot.Weighted>
5.7208

> <Gold.Chemscore.Internal.Correction.Weighted>
   9.000000E+99

> <Gold.Protein.RotatedTorsions>
[ 6907 6896 6895 6894 ] final  112.14 input  -60.11 | X-H torsion
[ 7974 7965 7964 7962 ] final   99.02 input  175.53 | X-H torsion
[ 8008 7997 7996 7995 ] final -119.38 input   59.86 | X-H torsion
[ 10167 10162 10161 10158 ] final -106.64 input  -65.29 | X-H torsion
[ 10718 10713 10712 10709 ] final  -94.36 input   66.30 | X-H torsion
[ 10763 10752 10751 10750 ] final  -13.93 input  -60.55 | X-H torsion
[ 11005 11000 10999 10996 ] final  161.11 input  -57.11 | X-H torsion

> <Gold.Protein.ActiveResidues>
 VAL166  LYS551  ARG553  GLY616  TRP617  ASP618  TYR619  PRO620  LYS621  CYS622 
 ASP623  PHE694  ASN695  SER759  ASP760  ASP761  ALA762  ILE779  LEU786  VAL792 
 PHE793  MET794  SER795  GLU796  ALA797  LYS798  CYS799  TRP800  GLU811  SER814 

> <Gold.Protein.RotatedAtoms>
  152.4932  133.8558  159.7224 H   0  0  0  0  0  0  0  0  0  0  0  0  # atno 6907 bound_to 6896
  150.9083  133.7021  159.2868 H   0  0  0  0  0  0  0  0  0  0  0  0  # atno 6908 bound_to 6896
  151.4439  135.1027  159.9730 H   0  0  0  0  0  0  0  0  0  0  0  0  # atno 6909 bound_to 6896
  145.4044  139.2343  143.3282 H   0  0  0  0  0  0  0  0  0  0  0  0  # atno 7974 bound_to 7965
  155.1147  140.0397  157.2734 H   0  0  0  0  0  0  0  0  0  0  0  0  # atno 8008 bound_to 7997
  154.6658  140.2601  155.7034 H   0  0  0  0  0  0  0  0  0  0  0  0  # atno 8009 bound_to 7997
  156.2638  140.2807  156.1148 H   0  0  0  0  0  0  0  0  0  0  0  0  # atno 8010 bound_to 7997
  140.1856  143.3932  152.1247 H   0  0  0  0  0  0  0  0  0  0  0  0  # atno 10167 bound_to 10162
  156.0026  130.5064  150.5915 H   0  0  0  0  0  0  0  0  0  0  0  0  # atno 10718 bound_to 10713
  153.5207  135.7015  153.5733 H   0  0  0  0  0  0  0  0  0  0  0  0  # atno 10763 bound_to 10752
  153.3783  135.3927  155.1838 H   0  0  0  0  0  0  0  0  0  0  0  0  # atno 10764 bound_to 10752
  154.8695  135.3829  154.4696 H   0  0  0  0  0  0  0  0  0  0  0  0  # atno 10765 bound_to 10752
  140.2125  134.8256  157.3136 H   0  0  0  0  0  0  0  0  0  0  0  0  # atno 11005 bound_to 11000
  146.2736  140.4746  142.8804 LP  0  0  0  0  0  0  0  0  0  0  0  0  # atno 17320 bound_to 7965
  144.8352  140.6770  143.6265 LP  0  0  0  0  0  0  0  0  0  0  0  0  # atno 17321 bound_to 7965
  139.5277  144.7122  151.5168 LP  0  0  0  0  0  0  0  0  0  0  0  0  # atno 17342 bound_to 10162
  140.6490  143.8735  150.6766 LP  0  0  0  0  0  0  0  0  0  0  0  0  # atno 17343 bound_to 10162
  157.3779  131.0776  151.1502 LP  0  0  0  0  0  0  0  0  0  0  0  0  # atno 17370 bound_to 10713
  157.2234  130.6492  149.5820 LP  0  0  0  0  0  0  0  0  0  0  0  0  # atno 17371 bound_to 10713
  140.1935  134.4342  155.7702 LP  0  0  0  0  0  0  0  0  0  0  0  0  # atno 17394 bound_to 11000
  141.2226  133.7038  156.8067 LP  0  0  0  0  0  0  0  0  0  0  0  0  # atno 17395 bound_to 11000

$$$$
