AV-unprocessed.smi:1251|AV-procd|sdf|5263|dock5
  -GOLD-   22720 4373D 1   1.00000     0.00000
 Structure written by MMmdl.
 38 39  0  0  0  0  0  0  0  0  2 V2000
  152.5113  141.5628  159.6927 C   0  0  0  0  0  0  0  0  0  0  0  0
  151.6873  141.6659  158.4045 C   0  0  0  0  0  0  0  0  0  0  0  0
  151.7504  140.3842  157.5618 C   0  0  0  0  0  0  0  0  0  0  0  0
  150.8430  139.3160  158.0741 C   0  0  0  0  0  0  0  0  0  0  0  0
  149.5209  139.4752  158.1745 N   0  0  0  0  0  0  0  0  0  0  0  0
  148.8981  138.3542  158.7034 N   0  0  0  0  0  0  0  0  0  0  0  0
  149.7573  137.3745  159.0176 C   0  0  0  0  0  0  0  0  0  0  0  0
  149.3550  136.2054  159.5428 N   0  5  0  0  0  0  0  0  0  0  0  0
  148.3617  136.1827  160.4602 C   0  0  0  0  0  0  0  0  0  0  0  0
  147.8682  137.1617  161.0245 O   0  0  0  0  0  0  0  0  0  0  0  0
  147.9218  134.9476  160.7442 N   0  0  0  0  0  0  0  0  0  0  0  0
  146.8698  134.5875  161.6948 C   0  0  1  0  0  0  0  0  0  0  0  0
  147.2366  135.1544  163.0739 C   0  0  0  0  0  0  0  0  0  0  0  0
  145.5031  135.1109  161.2067 C   0  0  1  0  0  0  0  0  0  0  0  0
  144.3095  134.7328  162.0859 C   0  0  0  0  0  0  0  0  0  0  0  0
  143.2846  135.8137  161.7815 C   0  0  0  0  0  0  0  0  0  0  0  0
  144.0992  136.9192  161.1035 C   0  0  0  0  0  0  0  0  0  0  0  0
  145.4575  136.5290  161.2515 O   0  0  0  0  0  0  0  0  0  0  0  0
  151.4372  137.7692  158.6543 S   0  0  0  0  0  0  0  0  0  0  0  0
  152.4482  142.4861  160.2691 H   0  0  0  0  0  0  0  0  0  0  0  0
  153.5633  141.3783  159.4730 H   0  0  0  0  0  0  0  0  0  0  0  0
  152.1524  140.7503  160.3251 H   0  0  0  0  0  0  0  0  0  0  0  0
  150.6497  141.8855  158.6589 H   0  0  0  0  0  0  0  0  0  0  0  0
  152.0458  142.5101  157.8141 H   0  0  0  0  0  0  0  0  0  0  0  0
  151.4858  140.6020  156.5263 H   0  0  0  0  0  0  0  0  0  0  0  0
  152.7691  139.9953  157.5480 H   0  0  0  0  0  0  0  0  0  0  0  0
  148.3636  134.1842  160.2537 H   0  0  0  0  0  0  0  0  0  0  0  0
  146.8115  133.5023  161.7934 H   0  0  0  0  0  0  0  0  0  0  0  0
  146.4944  134.8789  163.8235 H   0  0  0  0  0  0  0  0  0  0  0  0
  147.3001  136.2429  163.0526 H   0  0  0  0  0  0  0  0  0  0  0  0
  148.2001  134.7707  163.4110 H   0  0  0  0  0  0  0  0  0  0  0  0
  145.3195  134.7869  160.1802 H   0  0  0  0  0  0  0  0  0  0  0  0
  143.9391  133.7271  161.8851 H   0  0  0  0  0  0  0  0  0  0  0  0
  144.5885  134.7834  163.1393 H   0  0  0  0  0  0  0  0  0  0  0  0
  142.5058  135.4467  161.1121 H   0  0  0  0  0  0  0  0  0  0  0  0
  142.8046  136.1651  162.6953 H   0  0  0  0  0  0  0  0  0  0  0  0
  143.8564  136.9767  160.0416 H   0  0  0  0  0  0  0  0  0  0  0  0
  143.9238  137.8999  161.5462 H   0  0  0  0  0  0  0  0  0  0  0  0
  1  2  1  0  0  0  0
  1 20  1  0  0  0  0
  1 21  1  0  0  0  0
  1 22  1  0  0  0  0
  2  3  1  0  0  0  0
  2 23  1  0  0  0  0
  2 24  1  0  0  0  0
  3  4  1  0  0  0  0
  3 25  1  0  0  0  0
  3 26  1  0  0  0  0
  4 19  1  0  0  0  0
  4  5  2  0  0  0  0
  5  6  1  0  0  0  0
  6  7  2  0  0  0  0
  7  8  1  0  0  0  0
  7 19  1  0  0  0  0
  8  9  1  0  0  0  0
  9 10  2  0  0  0  0
  9 11  1  0  0  0  0
 11 12  1  0  0  0  0
 11 27  1  0  0  0  0
 12 13  1  0  0  0  0
 12 14  1  0  0  0  0
 12 28  1  0  0  0  0
 13 29  1  0  0  0  0
 13 30  1  0  0  0  0
 13 31  1  0  0  0  0
 14 18  1  0  0  0  0
 14 15  1  0  0  0  0
 14 32  1  0  0  0  0
 15 16  1  0  0  0  0
 15 33  1  0  0  0  0
 15 34  1  0  0  0  0
 16 17  1  0  0  0  0
 16 35  1  0  0  0  0
 16 36  1  0  0  0  0
 17 18  1  0  0  0  0
 17 37  1  0  0  0  0
 17 38  1  0  0  0  0
M  CHG  1   8  -1
M  END
> <s_m_source_file>
AV-unprocessed.smi

> <i_m_source_file_index>
1251

> <i_lp_mmshare_version>
43012

> <i_f3d_flags>
0

> <s_epik_input>
W0NIM11bQ0gyXVtDSDJdYzFubmMoczEpW05IXUMoPU8pW05IXVtDQEhdKFtDSDNdKVtDQEBIXTJbQ0gyXVtDSDJdW0NIMl1PMg==

> <s_epik_cmdline>
J2VwaWtfcHl0aG9uJywgJy1waCcsICc3LjAnLCAnLXRuJywgJzgnLCAnLW1hJywgJzIwMCcsICctbWV0YWxfYmluZGluZycsICctaW1hZScsICc8aW5maWxlLm1hZT4nLCAnLW9tYWUnLCAnPG91dGZpbGUubWFlPic=

> <r_lp_tautomer_probability>
1

> <r_epik_Ionization_Penalty>
4.22551

> <r_epik_Ionization_Penalty_Charging>
4.21437

> <r_epik_Ionization_Penalty_Neutral>
0.0111434

> <r_epik_State_Penalty>
4.21389

> <r_epik_Charging_Adjusted_Penalty>
8.42826

> <i_epik_Tot_Q>
-1

> <i_epik_Tot_abs_Q>
1

> <r_epik_Metal_State_Penalty>
0.69377

> <b_epik_Metal_Only>
1

> <s_lp_Force_Field>
OPLS_2005

> <r_lp_Energy>
11.5683

> <b_lp_Chiralities_Consistent>
1

> <s_lp_Variant>
AV-unprocessed.smi:1251-8

> <Gold.Version>
5.8.1

> <Gold.Id.Protein>
6NUR|6NUR_protein|mol2

> <Gold.PLP.Fitness>
41.2315

> <Gold.PLP.PLP>
-30.8551

> <Gold.PLP.part.hbond>
-3.9962

> <Gold.PLP.part.metal>
0.0000

> <Gold.PLP.part.buried>
-4.5285

> <Gold.PLP.part.nonpolar>
-22.2214

> <Gold.PLP.part.repulsive>
0.0824

> <Gold.PLP.ligand.clash>
0.0000

> <Gold.PLP.ligand.torsion>
0.4675

> <Gold.PLP.Chemscore.Hbond>
3.7185

> <Gold.PLP.Chemscore.CHOScore>
0.0000

> <Gold.PLP.Chemscore.Metal>
0.0000

> <Gold.Chemscore.Hbonds>
donor molecule, donor type, donor heavy atom, donor atom, acceptor molecule, acceptor atom, score
      P1  H  6896  6908       L1     8  2.00
      P1  H  6931  6943       L1    10  0.94
      P1  H  6934  6947       L1    10  0.80

> <Gold.PLP.Chemscore.Internal.Correction>
0.1558

> <Gold.Rescore>
     Score         DG    S(hbond)    S(metal)    S(lipo)     H(rot)  DE(clash)    DE(int)     intcor
     12.66     -17.54       2.48        0.00      66.00       1.55       0.12       4.75       ----

> <Gold.Chemscore.Fitness>
12.6637

> <Gold.Chemscore.DG>
-17.5391

> <Gold.Chemscore.ZeroCoef>
-5.4800

> <Gold.Chemscore.Hbond>
2.4842

> <Gold.Chemscore.Metal>
0.0000

> <Gold.Chemscore.Lipo>
65.9997

> <Gold.Chemscore.Internal_Hbond>
0.0000

> <Gold.Chemscore.DEClash>
0.1214

> <Gold.Chemscore.DEInternal>
4.7540

> <Gold.Chemscore.Rot>
1.5469

> <Gold.Chemscore.Internal.Correction>
   9.000000E+99

> <Gold.Chemscore.Hbonds>
donor molecule, donor type, donor heavy atom, donor atom, acceptor molecule, acceptor atom, score
      P1  H  6896  6908       L1     8  0.81
      P1  H  6931  6943       L1    10  0.84
      P1  H  6934  6947       L1    10  0.77

> <Gold.Chemscore.Hbond.Weighted>
-8.2971

> <Gold.Chemscore.Metal.Weighted>
-0.0000

> <Gold.Chemscore.Lipo.Weighted>
-7.7220

> <Gold.Chemscore.Internal_Hbond.Weighted>
0.0000

> <Gold.Chemscore.DEClash.Weighted>
0.1214

> <Gold.Chemscore.DEInternal.Weighted>
4.7540

> <Gold.Chemscore.Rot.Weighted>
3.9600

> <Gold.Chemscore.Internal.Correction.Weighted>
   9.000000E+99

> <Gold.Protein.RotatedTorsions>
[ 6907 6896 6895 6894 ] final -170.74 input  -60.11 | X-H torsion
[ 7974 7965 7964 7962 ] final  106.22 input  175.53 | X-H torsion
[ 8008 7997 7996 7995 ] final   81.81 input   59.86 | X-H torsion
[ 10167 10162 10161 10158 ] final  119.47 input  -65.29 | X-H torsion
[ 10718 10713 10712 10709 ] final   69.96 input   66.30 | X-H torsion
[ 10763 10752 10751 10750 ] final  135.93 input  -60.55 | X-H torsion
[ 11005 11000 10999 10996 ] final -126.50 input  -57.11 | X-H torsion

> <Gold.Protein.ActiveResidues>
 VAL166  LYS551  ARG553  GLY616  TRP617  ASP618  TYR619  PRO620  LYS621  CYS622 
 ASP623  PHE694  ASN695  SER759  ASP760  ASP761  ALA762  ILE779  LEU786  VAL792 
 PHE793  MET794  SER795  GLU796  ALA797  LYS798  CYS799  TRP800  GLU811  SER814 

> <Gold.Protein.RotatedAtoms>
  151.5126  133.3482  159.2887 H   0  0  0  0  0  0  0  0  0  0  0  0  # atno 6907 bound_to 6896
  150.8702  134.8077  159.7160 H   0  0  0  0  0  0  0  0  0  0  0  0  # atno 6908 bound_to 6896
  152.4693  134.5009  159.9776 H   0  0  0  0  0  0  0  0  0  0  0  0  # atno 6909 bound_to 6896
  145.3095  139.2544  143.3770 H   0  0  0  0  0  0  0  0  0  0  0  0  # atno 7974 bound_to 7965
  155.9021  140.3432  155.6034 H   0  0  0  0  0  0  0  0  0  0  0  0  # atno 8008 bound_to 7997
  155.7487  140.0817  157.2230 H   0  0  0  0  0  0  0  0  0  0  0  0  # atno 8009 bound_to 7997
  154.4045  140.1557  156.2687 H   0  0  0  0  0  0  0  0  0  0  0  0  # atno 8010 bound_to 7997
  139.6044  144.7066  151.2987 H   0  0  0  0  0  0  0  0  0  0  0  0  # atno 10167 bound_to 10162
  157.6374  130.9452  150.0585 H   0  0  0  0  0  0  0  0  0  0  0  0  # atno 10718 bound_to 10713
  153.8481  135.3083  155.3430 H   0  0  0  0  0  0  0  0  0  0  0  0  # atno 10763 bound_to 10752
  154.7903  135.4786  154.0041 H   0  0  0  0  0  0  0  0  0  0  0  0  # atno 10764 bound_to 10752
  153.1535  135.6847  153.8940 H   0  0  0  0  0  0  0  0  0  0  0  0  # atno 10765 bound_to 10752
  140.9676  134.0850  157.3903 H   0  0  0  0  0  0  0  0  0  0  0  0  # atno 11005 bound_to 11000
  146.3123  140.3628  142.8666 LP  0  0  0  0  0  0  0  0  0  0  0  0  # atno 17320 bound_to 7965
  144.9027  140.7662  143.5856 LP  0  0  0  0  0  0  0  0  0  0  0  0  # atno 17321 bound_to 7965
  140.7274  143.6964  150.7880 LP  0  0  0  0  0  0  0  0  0  0  0  0  # atno 17342 bound_to 10162
  140.0547  143.5214  152.2657 LP  0  0  0  0  0  0  0  0  0  0  0  0  # atno 17343 bound_to 10162
  156.1625  130.3644  149.9279 LP  0  0  0  0  0  0  0  0  0  0  0  0  # atno 17370 bound_to 10713
  156.7274  130.9030  151.3623 LP  0  0  0  0  0  0  0  0  0  0  0  0  # atno 17371 bound_to 10713
  139.8900  135.0109  156.6712 LP  0  0  0  0  0  0  0  0  0  0  0  0  # atno 17394 bound_to 11000
  140.7376  133.9005  155.8255 LP  0  0  0  0  0  0  0  0  0  0  0  0  # atno 17395 bound_to 11000

$$$$
