AV-unprocessed.smi:1|AV-procd|sdf|17|dock1
  -GOLD-   2262015113D 1   1.00000     0.00000
 Structure written by MMmdl.
 56 61  0  0  0  0  0  0  0  0  2 V2000
  153.5811  140.6273  158.8584 O   0  0  0  0  0  0  0  0  0  0  0  0
  153.5352  141.4470  159.7782 C   0  0  0  0  0  0  0  0  0  0  0  0
  154.0379  141.3208  161.0328 N   0  5  0  0  0  0  0  0  0  0  0  0
  154.6906  140.2009  161.3788 C   0  0  0  0  0  0  0  0  0  0  0  0
  154.4869  139.6339  162.5958 N   0  0  0  0  0  0  0  0  0  0  0  0
  155.1347  138.5137  162.9375 C   0  0  0  0  0  0  0  0  0  0  0  0
  156.0209  137.8054  162.2302 N   0  0  0  0  0  0  0  0  0  0  0  0
  156.2419  138.3746  161.0099 C   0  0  0  0  0  0  0  0  0  0  0  0
  155.6252  139.5612  160.5194 C   0  0  0  0  0  0  0  0  0  0  0  0
  156.0805  139.8583  159.2433 N   0  0  0  0  0  0  0  0  0  0  0  0
  156.9290  138.8567  159.0195 C   0  0  0  0  0  0  0  0  0  0  0  0
  157.0766  137.9377  159.9976 N   0  0  0  0  0  0  0  0  0  0  0  0
  157.9275  136.7053  160.0326 C   0  0  2  0  0  0  0  0  0  0  0  0
  158.7614  136.7029  158.9130 O   0  0  0  0  0  0  0  0  0  0  0  0
  158.2239  135.8509  157.9090 C   0  0  1  0  0  0  0  0  0  0  0  0
  159.3287  135.3982  156.9501 C   0  0  0  0  0  0  0  0  0  0  0  0
  158.9122  135.6312  155.6149 O   0  0  0  0  0  0  0  0  0  0  0  0
  159.6819  135.2190  154.5894 C   0  0  0  0  0  0  0  0  0  0  0  0
  160.8136  134.7513  154.7317 O   0  0  0  0  0  0  0  0  0  0  0  0
  159.0235  135.3895  153.2621 C   0  0  0  0  0  0  0  0  0  0  0  0
  157.6895  135.8570  153.2068 C   0  0  0  0  0  0  0  0  0  0  0  0
  157.0392  136.0262  151.9691 C   0  0  0  0  0  0  0  0  0  0  0  0
  157.7149  135.7296  150.7712 C   0  0  0  0  0  0  0  0  0  0  0  0
  159.0421  135.2640  150.8126 C   0  0  0  0  0  0  0  0  0  0  0  0
  159.6947  135.0947  152.0495 C   0  0  0  0  0  0  0  0  0  0  0  0
  157.6226  134.7066  158.7248 C   0  0  2  0  0  0  0  0  0  0  0  0
  156.5564  134.0734  158.0399 O   0  0  0  0  0  0  0  0  0  0  0  0
  155.1185  134.7895  158.4989 S   0  0  0  0  0  0  0  0  0  0  0  0
  154.6917  135.6965  157.4225 O   0  0  0  0  0  0  0  0  0  0  0  0
  154.2412  133.7461  159.0507 O   0  0  0  0  0  0  0  0  0  0  0  0
  155.6932  135.7161  159.7624 O   0  0  0  0  0  0  0  0  0  0  0  0
  157.0693  135.4253  159.9643 C   0  0  2  0  0  0  0  0  0  0  0  0
  152.7893  142.7365  159.5626 C   0  0  0  0  0  0  0  0  0  0  0  0
  152.3292  143.0714  158.2686 C   0  0  0  0  0  0  0  0  0  0  0  0
  151.6547  144.2867  158.0404 C   0  0  0  0  0  0  0  0  0  0  0  0
  151.4412  145.1850  159.1028 C   0  0  0  0  0  0  0  0  0  0  0  0
  151.9057  144.8683  160.3930 C   0  0  0  0  0  0  0  0  0  0  0  0
  152.5800  143.6531  160.6221 C   0  0  0  0  0  0  0  0  0  0  0  0
  154.9096  138.1284  163.9209 H   0  0  0  0  0  0  0  0  0  0  0  0
  157.4685  138.7909  158.0867 H   0  0  0  0  0  0  0  0  0  0  0  0
  158.5129  136.7992  160.9481 H   0  0  0  0  0  0  0  0  0  0  0  0
  157.4361  136.3763  157.3669 H   0  0  0  0  0  0  0  0  0  0  0  0
  160.2591  135.9265  157.1635 H   0  0  0  0  0  0  0  0  0  0  0  0
  159.5170  134.3315  157.0793 H   0  0  0  0  0  0  0  0  0  0  0  0
  157.1497  136.0900  154.1135 H   0  0  0  0  0  0  0  0  0  0  0  0
  156.0205  136.3833  151.9396 H   0  0  0  0  0  0  0  0  0  0  0  0
  157.2156  135.8587  149.8222 H   0  0  0  0  0  0  0  0  0  0  0  0
  159.5613  135.0360  149.8933 H   0  0  0  0  0  0  0  0  0  0  0  0
  160.7138  134.7363  152.0453 H   0  0  0  0  0  0  0  0  0  0  0  0
  158.3887  133.9859  159.0133 H   0  0  0  0  0  0  0  0  0  0  0  0
  157.1943  134.8344  160.8721 H   0  0  0  0  0  0  0  0  0  0  0  0
  152.4872  142.3936  157.4420 H   0  0  0  0  0  0  0  0  0  0  0  0
  151.3032  144.5296  157.0487 H   0  0  0  0  0  0  0  0  0  0  0  0
  150.9250  146.1172  158.9278 H   0  0  0  0  0  0  0  0  0  0  0  0
  151.7482  145.5589  161.2082 H   0  0  0  0  0  0  0  0  0  0  0  0
  152.9386  143.4340  161.6176 H   0  0  0  0  0  0  0  0  0  0  0  0
  1  2  2  0  0  0  0
  2  3  1  0  0  0  0
  2 33  1  0  0  0  0
  3  4  1  0  0  0  0
  4  9  1  0  0  0  0
  4  5  2  0  0  0  0
  5  6  1  0  0  0  0
  6  7  2  0  0  0  0
  6 39  1  0  0  0  0
  7  8  1  0  0  0  0
  8 12  1  0  0  0  0
  8  9  2  0  0  0  0
  9 10  1  0  0  0  0
 10 11  2  0  0  0  0
 11 12  1  0  0  0  0
 11 40  1  0  0  0  0
 12 13  1  0  0  0  0
 13 32  1  0  0  0  0
 13 14  1  0  0  0  0
 13 41  1  0  0  0  0
 14 15  1  0  0  0  0
 15 16  1  0  0  0  0
 15 26  1  0  0  0  0
 15 42  1  0  0  0  0
 16 17  1  0  0  0  0
 16 43  1  0  0  0  0
 16 44  1  0  0  0  0
 17 18  1  0  0  0  0
 18 19  2  0  0  0  0
 18 20  1  0  0  0  0
 20 25  1  0  0  0  0
 20 21  2  0  0  0  0
 21 22  1  0  0  0  0
 21 45  1  0  0  0  0
 22 23  2  0  0  0  0
 22 46  1  0  0  0  0
 23 24  1  0  0  0  0
 23 47  1  0  0  0  0
 24 25  2  0  0  0  0
 24 48  1  0  0  0  0
 25 49  1  0  0  0  0
 26 32  1  0  0  0  0
 26 27  1  0  0  0  0
 26 50  1  0  0  0  0
 27 28  1  0  0  0  0
 28 29  2  0  0  0  0
 28 30  2  0  0  0  0
 28 31  1  0  0  0  0
 31 32  1  0  0  0  0
 32 51  1  0  0  0  0
 33 38  1  0  0  0  0
 33 34  2  0  0  0  0
 34 35  1  0  0  0  0
 34 52  1  0  0  0  0
 35 36  2  0  0  0  0
 35 53  1  0  0  0  0
 36 37  1  0  0  0  0
 36 54  1  0  0  0  0
 37 38  2  0  0  0  0
 37 55  1  0  0  0  0
 38 56  1  0  0  0  0
M  CHG  1   3  -1
M  END
> <s_m_source_file>
AV-unprocessed.smi

> <i_m_source_file_index>
1

> <i_lp_mmshare_version>
43012

> <i_f3d_flags>
0

> <s_epik_input>
W2NIXTFbY0hdW2NIXVtjSF1bY0hdYzFDKD1PKVtOSF1jKG5bY0hdbjIpYyhjMjMpbltjSF1uM1tDQEBIXShbQ0BIXShbQ0BIXTQ1KU9TKE81KSg9Tyk9TylPW0NASF00W0NIMl1PQyg9TyljNltjSF1bY0hdW2NIXVtjSF1bY0hdNg==

> <s_epik_cmdline>
J2VwaWtfcHl0aG9uJywgJy1waCcsICc3LjAnLCAnLXRuJywgJzgnLCAnLW1hJywgJzIwMCcsICctbWV0YWxfYmluZGluZycsICctaW1hZScsICc8aW5maWxlLm1hZT4nLCAnLW9tYWUnLCAnPG91dGZpbGUubWFlPic=

> <r_lp_tautomer_probability>
1

> <r_epik_Ionization_Penalty>
4.39121

> <r_epik_Ionization_Penalty_Charging>
3.39398

> <r_epik_Ionization_Penalty_Neutral>
0.997232

> <r_epik_State_Penalty>
3.39839

> <r_epik_Charging_Adjusted_Penalty>
6.79237

> <i_epik_Tot_Q>
-1

> <i_epik_Tot_abs_Q>
1

> <r_epik_Metal_State_Penalty>
0.497663

> <b_epik_Metal_Only>
1

> <s_epik_Chemistry_Notes>
This compound has an ester and may undergo hydrolysis at high or low pH. This compound contains an acetal/aminal-like group ( X-CH(R)-Y where X, Y are N, S, or O) that may be acid/base labile, releasing an aldehyde.

> <s_lp_Force_Field>
OPLS_2005

> <r_lp_Energy>
42.9132

> <b_lp_Chiralities_Consistent>
1

> <s_lp_Variant>
AV-unprocessed.smi:1-17

> <Gold.Version>
5.8.1

> <Gold.Id.Protein>
6NUR|6NUR_protein|mol2

> <Gold.PLP.Fitness>
56.9894

> <Gold.PLP.PLP>
-50.1455

> <Gold.PLP.part.hbond>
-4.0000

> <Gold.PLP.part.metal>
0.0000

> <Gold.PLP.part.buried>
-2.7339

> <Gold.PLP.part.nonpolar>
-44.6366

> <Gold.PLP.part.repulsive>
0.4916

> <Gold.PLP.ligand.clash>
0.0000

> <Gold.PLP.ligand.torsion>
1.3120

> <Gold.PLP.Chemscore.Hbond>
3.0000

> <Gold.PLP.Chemscore.CHOScore>
0.0000

> <Gold.PLP.Chemscore.Metal>
0.0000

> <Gold.Chemscore.Hbonds>
donor molecule, donor type, donor heavy atom, donor atom, acceptor molecule, acceptor atom, score
      P1  H  6896  6909       L1    30  1.00
      P1  H  7997  8010       L1    10  0.89
      P1  H 10752 10763       L1    29  0.70

> <Gold.PLP.Chemscore.Internal.Correction>
0.4679

> <Gold.Rescore>
     Score         DG    S(hbond)    S(metal)    S(lipo)     H(rot)  DE(clash)    DE(int)     intcor
     19.73     -25.99       2.64        0.00     146.14       2.11       1.11       5.14       ----

> <Gold.Chemscore.Fitness>
19.7311

> <Gold.Chemscore.DG>
-25.9851

> <Gold.Chemscore.ZeroCoef>
-5.4800

> <Gold.Chemscore.Hbond>
2.6400

> <Gold.Chemscore.Metal>
0.0000

> <Gold.Chemscore.Lipo>
146.1386

> <Gold.Chemscore.Internal_Hbond>
0.0000

> <Gold.Chemscore.DEClash>
1.1117

> <Gold.Chemscore.DEInternal>
5.1423

> <Gold.Chemscore.Rot>
2.1136

> <Gold.Chemscore.Internal.Correction>
   9.000000E+99

> <Gold.Chemscore.Hbonds>
donor molecule, donor type, donor heavy atom, donor atom, acceptor molecule, acceptor atom, score
      P1  H  6896  6909       L1    30  1.00
      P1  H  7997  8010       L1    10  0.16
      P1  H 10752 10763       L1    29  0.69

> <Gold.Chemscore.Hbond.Weighted>
-8.8177

> <Gold.Chemscore.Metal.Weighted>
-0.0000

> <Gold.Chemscore.Lipo.Weighted>
-17.0982

> <Gold.Chemscore.Internal_Hbond.Weighted>
0.0000

> <Gold.Chemscore.DEClash.Weighted>
1.1117

> <Gold.Chemscore.DEInternal.Weighted>
5.1423

> <Gold.Chemscore.Rot.Weighted>
5.4107

> <Gold.Chemscore.Internal.Correction.Weighted>
   9.000000E+99

> <Gold.Protein.RotatedTorsions>
[ 6907 6896 6895 6894 ] final -123.72 input  -60.11 | X-H torsion
[ 7974 7965 7964 7962 ] final  138.18 input  175.53 | X-H torsion
[ 8008 7997 7996 7995 ] final  -12.68 input   59.86 | X-H torsion
[ 10167 10162 10161 10158 ] final  -22.69 input  -65.29 | X-H torsion
[ 10718 10713 10712 10709 ] final   87.88 input   66.30 | X-H torsion
[ 10763 10752 10751 10750 ] final  159.75 input  -60.55 | X-H torsion
[ 11005 11000 10999 10996 ] final  138.72 input  -57.11 | X-H torsion

> <Gold.Protein.ActiveResidues>
 VAL166  LYS551  ARG553  GLY616  TRP617  ASP618  TYR619  PRO620  LYS621  CYS622 
 ASP623  PHE694  ASN695  SER759  ASP760  ASP761  ALA762  ILE779  LEU786  VAL792 
 PHE793  MET794  SER795  GLU796  ALA797  LYS798  CYS799  TRP800  GLU811  SER814 

> <Gold.Protein.RotatedAtoms>
  150.8698  133.7522  159.2964 H   0  0  0  0  0  0  0  0  0  0  0  0  # atno 6907 bound_to 6896
  151.5138  135.1064  159.9870 H   0  0  0  0  0  0  0  0  0  0  0  0  # atno 6908 bound_to 6896
  152.4687  133.7935  159.6970 H   0  0  0  0  0  0  0  0  0  0  0  0  # atno 6909 bound_to 6896
  144.9397  139.4946  143.5578 H   0  0  0  0  0  0  0  0  0  0  0  0  # atno 7974 bound_to 7965
  154.5357  140.2270  155.8727 H   0  0  0  0  0  0  0  0  0  0  0  0  # atno 8008 bound_to 7997
  156.1808  140.3100  155.9109 H   0  0  0  0  0  0  0  0  0  0  0  0  # atno 8009 bound_to 7997
  155.3360  140.0448  157.3034 H   0  0  0  0  0  0  0  0  0  0  0  0  # atno 8010 bound_to 7997
  140.7286  143.4511  151.0514 H   0  0  0  0  0  0  0  0  0  0  0  0  # atno 10167 bound_to 10162
  157.6944  131.0273  150.3190 H   0  0  0  0  0  0  0  0  0  0  0  0  # atno 10718 bound_to 10713
  154.2367  135.2776  155.2869 H   0  0  0  0  0  0  0  0  0  0  0  0  # atno 10763 bound_to 10752
  154.5579  135.5656  153.6984 H   0  0  0  0  0  0  0  0  0  0  0  0  # atno 10764 bound_to 10752
  153.0008  135.6290  154.2510 H   0  0  0  0  0  0  0  0  0  0  0  0  # atno 10765 bound_to 10752
  140.0203  134.9399  157.0461 H   0  0  0  0  0  0  0  0  0  0  0  0  # atno 11005 bound_to 11000
  146.3280  139.8406  142.8891 LP  0  0  0  0  0  0  0  0  0  0  0  0  # atno 17320 bound_to 7965
  145.3011  141.0194  143.3608 LP  0  0  0  0  0  0  0  0  0  0  0  0  # atno 17321 bound_to 7965
  139.8188  143.7849  152.3176 LP  0  0  0  0  0  0  0  0  0  0  0  0  # atno 17342 bound_to 10162
  139.7924  144.7405  150.9936 LP  0  0  0  0  0  0  0  0  0  0  0  0  # atno 17343 bound_to 10162
  156.3680  130.3858  149.7198 LP  0  0  0  0  0  0  0  0  0  0  0  0  # atno 17370 bound_to 10713
  156.4622  130.7957  151.2977 LP  0  0  0  0  0  0  0  0  0  0  0  0  # atno 17371 bound_to 10713
  140.4398  134.1693  155.7173 LP  0  0  0  0  0  0  0  0  0  0  0  0  # atno 17394 bound_to 11000
  141.1770  133.8494  157.1389 LP  0  0  0  0  0  0  0  0  0  0  0  0  # atno 17395 bound_to 11000

$$$$
