AV-unprocessed.smi:1900|AV-procd|sdf|7711|dock4
  -GOLD-   22720 9453D 1   1.00000     0.00000
 Structure written by MMmdl.
 44 45  0  0  0  0  0  0  0  0  2 V2000
  144.6023  132.2377  149.7358 C   0  0  0  0  0  0  0  0  0  0  0  0
  145.3280  132.6617  151.0173 C   0  0  2  0  0  0  0  0  0  0  0  0
  146.3007  133.8333  150.7704 C   0  0  0  0  0  0  0  0  0  0  0  0
  147.0609  134.1719  151.9985 N   0  3  1  0  0  0  0  0  0  0  0  0
  146.2741  134.9566  152.9870 C   0  0  0  0  0  0  0  0  0  0  0  0
  145.5708  136.1676  152.3511 C   0  0  0  0  0  0  0  0  0  0  0  0
  145.3378  137.3009  153.3642 C   0  0  0  0  0  0  0  0  0  0  0  0
  144.0485  137.9522  153.1632 N   0  0  0  0  0  0  0  0  0  0  0  0
  142.8572  137.4008  153.4345 C   0  0  0  0  0  0  0  0  0  0  0  0
  142.7212  136.2582  153.8729 O   0  0  0  0  0  0  0  0  0  0  0  0
  141.8527  138.2516  153.1681 N   0  0  0  0  0  0  0  0  0  0  0  0
  140.4635  138.0235  153.3367 C   0  0  0  0  0  0  0  0  0  0  0  0
  139.9045  136.9444  154.0736 C   0  0  0  0  0  0  0  0  0  0  0  0
  138.5799  136.9840  154.0597 N   0  0  0  0  0  0  0  0  0  0  0  0
  138.2882  138.0790  153.3220 N   0  0  0  0  0  0  0  0  0  0  0  0
  139.4033  138.7436  152.8617 C   0  0  0  0  0  0  0  0  0  0  0  0
  147.7228  132.9597  152.5451 C   0  0  0  0  0  0  0  0  0  0  0  0
  146.7217  131.7996  152.7340 C   0  0  2  0  0  0  0  0  0  0  0  0
  147.4165  130.5088  153.1808 C   0  0  0  0  0  0  0  0  0  0  0  0
  146.0651  131.5425  151.4972 O   0  0  0  0  0  0  0  0  0  0  0  0
  137.3336  138.3568  153.1433 H   0  0  0  0  0  0  0  0  0  0  0  0
  144.0178  133.0611  149.3248 H   0  0  0  0  0  0  0  0  0  0  0  0
  143.9190  131.4104  149.9301 H   0  0  0  0  0  0  0  0  0  0  0  0
  145.3081  131.9134  148.9707 H   0  0  0  0  0  0  0  0  0  0  0  0
  144.5789  132.9452  151.7584 H   0  0  0  0  0  0  0  0  0  0  0  0
  147.0152  133.5554  149.9945 H   0  0  0  0  0  0  0  0  0  0  0  0
  145.7697  134.7091  150.3954 H   0  0  0  0  0  0  0  0  0  0  0  0
  145.5046  134.3117  153.4134 H   0  0  0  0  0  0  0  0  0  0  0  0
  146.9010  135.2730  153.8206 H   0  0  0  0  0  0  0  0  0  0  0  0
  146.1578  136.5560  151.5192 H   0  0  0  0  0  0  0  0  0  0  0  0
  144.6155  135.8470  151.9331 H   0  0  0  0  0  0  0  0  0  0  0  0
  145.4076  136.9233  154.3858 H   0  0  0  0  0  0  0  0  0  0  0  0
  146.1160  138.0573  153.2595 H   0  0  0  0  0  0  0  0  0  0  0  0
  144.0650  138.8969  152.8073 H   0  0  0  0  0  0  0  0  0  0  0  0
  142.1081  139.1634  152.8178 H   0  0  0  0  0  0  0  0  0  0  0  0
  140.4054  136.1494  154.6062 H   0  0  0  0  0  0  0  0  0  0  0  0
  139.3365  139.6374  152.2593 H   0  0  0  0  0  0  0  0  0  0  0  0
  148.4962  132.6553  151.8384 H   0  0  0  0  0  0  0  0  0  0  0  0
  148.2398  133.1791  153.4782 H   0  0  0  0  0  0  0  0  0  0  0  0
  145.9771  132.0605  153.4870 H   0  0  0  0  0  0  0  0  0  0  0  0
  147.9292  130.6489  154.1329 H   0  0  0  0  0  0  0  0  0  0  0  0
  148.1544  130.1818  152.4476 H   0  0  0  0  0  0  0  0  0  0  0  0
  146.6946  129.7020  153.3085 H   0  0  0  0  0  0  0  0  0  0  0  0
  147.7994  134.7936  151.7003 H   0  0  0  0  0  0  0  0  0  0  0  0
  1  2  1  0  0  0  0
  1 22  1  0  0  0  0
  1 23  1  0  0  0  0
  1 24  1  0  0  0  0
  2 20  1  0  0  0  0
  2  3  1  0  0  0  0
  2 25  1  0  0  0  0
  3  4  1  0  0  0  0
  3 26  1  0  0  0  0
  3 27  1  0  0  0  0
  4  5  1  0  0  0  0
  4 17  1  0  0  0  0
  4 44  1  0  0  0  0
  5  6  1  0  0  0  0
  5 28  1  0  0  0  0
  5 29  1  0  0  0  0
  6  7  1  0  0  0  0
  6 30  1  0  0  0  0
  6 31  1  0  0  0  0
  7  8  1  0  0  0  0
  7 32  1  0  0  0  0
  7 33  1  0  0  0  0
  8  9  1  0  0  0  0
  8 34  1  0  0  0  0
  9 10  2  0  0  0  0
  9 11  1  0  0  0  0
 11 12  1  0  0  0  0
 11 35  1  0  0  0  0
 12 16  2  0  0  0  0
 12 13  1  0  0  0  0
 13 14  2  0  0  0  0
 13 36  1  0  0  0  0
 14 15  1  0  0  0  0
 15 21  1  0  0  0  0
 15 16  1  0  0  0  0
 16 37  1  0  0  0  0
 17 18  1  0  0  0  0
 17 38  1  0  0  0  0
 17 39  1  0  0  0  0
 18 19  1  0  0  0  0
 18 20  1  0  0  0  0
 18 40  1  0  0  0  0
 19 41  1  0  0  0  0
 19 42  1  0  0  0  0
 19 43  1  0  0  0  0
M  CHG  1   4   1
M  END
> <s_m_source_file>
AV-unprocessed.smi

> <i_m_source_file_index>
1900

> <i_lp_mmshare_version>
43012

> <i_f3d_flags>
0

> <s_epik_input>
W0NIM11bQ0BASF0xW0NIMl1OKFtDSDJdW0NASF0oTzEpW0NIM10pW0NIMl1bQ0gyXVtDSDJdW05IXUMoPU8pW05IXWMyW2NIXW5bbkhdW2NIXTI=

> <s_epik_cmdline>
J2VwaWtfcHl0aG9uJywgJy1waCcsICc3LjAnLCAnLXRuJywgJzgnLCAnLW1hJywgJzIwMCcsICctbWV0YWxfYmluZGluZycsICctaW1hZScsICc8aW5maWxlLm1hZT4nLCAnLW9tYWUnLCAnPG91dGZpbGUubWFlPic=

> <r_lp_tautomer_probability>
0.5

> <r_epik_Ionization_Penalty>
0.270543

> <r_epik_Ionization_Penalty_Charging>
0.270496

> <r_epik_Ionization_Penalty_Neutral>
4.67091e-05

> <r_epik_State_Penalty>
0.262618

> <r_epik_Charging_Adjusted_Penalty>
0.533114

> <i_epik_Tot_Q>
1

> <i_epik_Tot_abs_Q>
1

> <r_epik_Metal_State_Penalty>
0.262618

> <b_epik_Metal_Only>
0

> <s_lp_Force_Field>
OPLS_2005

> <r_lp_Energy>
20.3326

> <b_lp_Chiralities_Consistent>
1

> <s_lp_Variant>
AV-unprocessed.smi:1900-3

> <Gold.Version>
5.8.1

> <Gold.Id.Protein>
6NUR|6NUR_protein|mol2

> <Gold.PLP.Fitness>
47.0430

> <Gold.PLP.PLP>
-31.2399

> <Gold.PLP.part.hbond>
-3.0000

> <Gold.PLP.part.metal>
0.0000

> <Gold.PLP.part.buried>
-4.3640

> <Gold.PLP.part.nonpolar>
-23.8988

> <Gold.PLP.part.repulsive>
0.3216

> <Gold.PLP.ligand.clash>
0.0000

> <Gold.PLP.ligand.torsion>
0.5490

> <Gold.PLP.Chemscore.Hbond>
3.9048

> <Gold.PLP.Chemscore.CHOScore>
1.7099

> <Gold.PLP.Chemscore.Metal>
0.0000

> <Gold.Chemscore.Hbonds>
donor molecule, donor type, donor heavy atom, donor atom, acceptor molecule, acceptor atom, score
      L1  H     4    44       P1  7948  2.00
      L1  H     8    34       P1 10175  1.00
      L1  H    11    35       P1 10175  0.94
      L1  C    13    36       P1 11000  0.17
      L1  C    16    37       P1 10160  0.89

> <Gold.PLP.Chemscore.Internal.Correction>
0.0569

> <Gold.Rescore>
     Score         DG    S(hbond)    S(metal)    S(lipo)     H(rot)  DE(clash)    DE(int)     intcor
     15.17     -17.23       2.72        0.00      64.98       1.93       0.22       1.84       ----

> <Gold.Chemscore.Fitness>
15.1655

> <Gold.Chemscore.DG>
-17.2302

> <Gold.Chemscore.ZeroCoef>
-5.4800

> <Gold.Chemscore.Hbond>
2.7247

> <Gold.Chemscore.Metal>
0.0000

> <Gold.Chemscore.Lipo>
64.9796

> <Gold.Chemscore.Internal_Hbond>
0.0000

> <Gold.Chemscore.DEClash>
0.2228

> <Gold.Chemscore.DEInternal>
1.8418

> <Gold.Chemscore.Rot>
1.9347

> <Gold.Chemscore.Internal.Correction>
   9.000000E+99

> <Gold.Chemscore.Hbonds>
donor molecule, donor type, donor heavy atom, donor atom, acceptor molecule, acceptor atom, score
      L1  H     4    44       P1  7948  0.30
      L1  H     8    34       P1 10175  0.99
      L1  H    11    35       P1 10175  0.82

> <Gold.Chemscore.Hbond.Weighted>
-9.1004

> <Gold.Chemscore.Metal.Weighted>
-0.0000

> <Gold.Chemscore.Lipo.Weighted>
-7.6026

> <Gold.Chemscore.Internal_Hbond.Weighted>
0.0000

> <Gold.Chemscore.DEClash.Weighted>
0.2228

> <Gold.Chemscore.DEInternal.Weighted>
1.8418

> <Gold.Chemscore.Rot.Weighted>
4.9528

> <Gold.Chemscore.Internal.Correction.Weighted>
   9.000000E+99

> <Gold.Protein.RotatedTorsions>
[ 6907 6896 6895 6894 ] final -120.05 input  -60.11 | X-H torsion
[ 7974 7965 7964 7962 ] final   48.00 input  175.53 | X-H torsion
[ 8008 7997 7996 7995 ] final -174.36 input   59.86 | X-H torsion
[ 10167 10162 10161 10158 ] final -124.53 input  -65.29 | X-H torsion
[ 10718 10713 10712 10709 ] final  -48.47 input   66.30 | X-H torsion
[ 10763 10752 10751 10750 ] final -109.76 input  -60.55 | X-H torsion
[ 11005 11000 10999 10996 ] final  -85.52 input  -57.11 | X-H torsion

> <Gold.Protein.ActiveResidues>
 VAL166  LYS551  ARG553  GLY616  TRP617  ASP618  TYR619  PRO620  LYS621  CYS622 
 ASP623  PHE694  ASN695  SER759  ASP760  ASP761  ALA762  ILE779  LEU786  VAL792 
 PHE793  MET794  SER795  GLU796  ALA797  LYS798  CYS799  TRP800  GLU811  SER814 

> <Gold.Protein.RotatedAtoms>
  150.8359  133.8015  159.3079 H   0  0  0  0  0  0  0  0  0  0  0  0  # atno 6907 bound_to 6896
  151.5731  135.1060  160.0009 H   0  0  0  0  0  0  0  0  0  0  0  0  # atno 6908 bound_to 6896
  152.4431  133.7443  159.6715 H   0  0  0  0  0  0  0  0  0  0  0  0  # atno 6909 bound_to 6896
  146.0245  139.4690  142.9876 H   0  0  0  0  0  0  0  0  0  0  0  0  # atno 7974 bound_to 7965
  155.9691  140.1159  157.0828 H   0  0  0  0  0  0  0  0  0  0  0  0  # atno 8008 bound_to 7997
  154.4151  140.1167  156.5350 H   0  0  0  0  0  0  0  0  0  0  0  0  # atno 8009 bound_to 7997
  155.6620  140.3473  155.4788 H   0  0  0  0  0  0  0  0  0  0  0  0  # atno 8010 bound_to 7997
  139.9918  143.5632  152.2339 H   0  0  0  0  0  0  0  0  0  0  0  0  # atno 10167 bound_to 10162
  156.1985  130.4155  149.9274 H   0  0  0  0  0  0  0  0  0  0  0  0  # atno 10718 bound_to 10713
  154.8211  135.4589  154.0782 H   0  0  0  0  0  0  0  0  0  0  0  0  # atno 10763 bound_to 10752
  153.2135  135.6885  153.8092 H   0  0  0  0  0  0  0  0  0  0  0  0  # atno 10764 bound_to 10752
  153.7535  135.3294  155.3302 H   0  0  0  0  0  0  0  0  0  0  0  0  # atno 10765 bound_to 10752
  141.1640  133.7404  156.9026 H   0  0  0  0  0  0  0  0  0  0  0  0  # atno 11005 bound_to 11000
  145.7139  141.0097  143.1438 LP  0  0  0  0  0  0  0  0  0  0  0  0  # atno 17320 bound_to 7965
  144.7004  139.8790  143.7446 LP  0  0  0  0  0  0  0  0  0  0  0  0  # atno 17321 bound_to 7965
  139.6334  144.7647  151.2488 LP  0  0  0  0  0  0  0  0  0  0  0  0  # atno 17342 bound_to 10162
  140.7452  143.6440  150.8309 LP  0  0  0  0  0  0  0  0  0  0  0  0  # atno 17343 bound_to 10162
  156.6991  130.8926  151.3597 LP  0  0  0  0  0  0  0  0  0  0  0  0  # atno 17370 bound_to 10713
  157.6971  130.9294  150.0678 LP  0  0  0  0  0  0  0  0  0  0  0  0  # atno 17371 bound_to 10713
  140.1572  134.9190  157.2668 LP  0  0  0  0  0  0  0  0  0  0  0  0  # atno 17394 bound_to 11000
  140.2654  134.3523  155.7392 LP  0  0  0  0  0  0  0  0  0  0  0  0  # atno 17395 bound_to 11000

$$$$
