AV-unprocessed.smi:105|AV-procd|sdf|1010|dock3
  -GOLD-   2262018 03D 1   1.00000     0.00000
 Structure written by MMmdl.
 42 45  0  0  0  0  0  0  0  0  1 V2000
  148.1523  132.0210  153.3810 C   0  0  0  0  0  0  0  0  0  0  0  0
  147.4791  133.1972  153.7645 C   0  0  0  0  0  0  0  0  0  0  0  0
  148.1907  134.2498  154.3727 C   0  0  0  0  0  0  0  0  0  0  0  0
  149.5780  134.1293  154.5973 C   0  0  0  0  0  0  0  0  0  0  0  0
  150.3406  135.2573  155.2604 C   0  0  0  0  0  0  0  0  0  0  0  0
  150.3908  136.4604  154.4417 N   0  0  0  0  0  0  0  0  0  0  0  0
  151.2459  137.4571  154.7559 C   0  0  0  0  0  0  0  0  0  0  0  0
  152.3344  137.7154  153.9840 N   0  0  0  0  0  0  0  0  0  0  0  0
  153.1694  138.7058  154.3146 C   0  0  0  0  0  0  0  0  0  0  0  0
  153.1041  139.5419  155.3538 N   0  0  0  0  0  0  0  0  0  0  0  0
  152.0122  139.2830  156.1298 C   0  0  0  0  0  0  0  0  0  0  0  0
  151.0403  138.2683  155.9020 C   0  0  0  0  0  0  0  0  0  0  0  0
  150.0708  138.3032  156.8957 N   0  0  0  0  0  0  0  0  0  0  0  0
  150.4492  139.2836  157.6705 C   0  0  0  0  0  0  0  0  0  0  0  0
  151.6048  139.9280  157.2846 N   0  0  0  0  0  0  0  0  0  0  0  0
  152.2511  141.0401  157.9593 C   0  0  1  0  0  0  0  0  0  0  0  0
  151.3288  142.2732  158.0319 C   0  0  0  0  0  0  0  0  0  0  0  0
  152.0717  143.3891  158.7761 C   0  0  0  0  0  0  0  0  0  0  0  0
  152.5033  142.8803  160.1550 C   0  0  0  0  0  0  0  0  0  0  0  0
  153.3143  141.5829  159.9997 C   0  0  0  0  0  0  0  0  0  0  0  0
  152.5604  140.6264  159.2587 O   0  0  0  0  0  0  0  0  0  0  0  0
  150.2493  132.9498  154.2133 C   0  0  0  0  0  0  0  0  0  0  0  0
  149.5371  131.8973  153.6054 C   0  0  0  0  0  0  0  0  0  0  0  0
  147.6064  131.2134  152.9154 H   0  0  0  0  0  0  0  0  0  0  0  0
  146.4169  133.2911  153.5928 H   0  0  0  0  0  0  0  0  0  0  0  0
  147.6695  135.1491  154.6671 H   0  0  0  0  0  0  0  0  0  0  0  0
  149.8746  135.4881  156.2196 H   0  0  0  0  0  0  0  0  0  0  0  0
  151.3558  134.9184  155.4714 H   0  0  0  0  0  0  0  0  0  0  0  0
  149.7488  136.4999  153.6630 H   0  0  0  0  0  0  0  0  0  0  0  0
  154.0103  138.8486  153.6520 H   0  0  0  0  0  0  0  0  0  0  0  0
  149.8933  139.5653  158.5531 H   0  0  0  0  0  0  0  0  0  0  0  0
  153.1772  141.2667  157.4275 H   0  0  0  0  0  0  0  0  0  0  0  0
  151.0681  142.5874  157.0206 H   0  0  0  0  0  0  0  0  0  0  0  0
  150.4058  142.0076  158.5492 H   0  0  0  0  0  0  0  0  0  0  0  0
  152.9451  143.7036  158.2033 H   0  0  0  0  0  0  0  0  0  0  0  0
  151.4310  144.2653  158.8794 H   0  0  0  0  0  0  0  0  0  0  0  0
  153.0928  143.6371  160.6734 H   0  0  0  0  0  0  0  0  0  0  0  0
  151.6225  142.6908  160.7697 H   0  0  0  0  0  0  0  0  0  0  0  0
  154.2660  141.7754  159.5018 H   0  0  0  0  0  0  0  0  0  0  0  0
  153.5472  141.1662  160.9795 H   0  0  0  0  0  0  0  0  0  0  0  0
  151.3109  132.8482  154.3854 H   0  0  0  0  0  0  0  0  0  0  0  0
  150.0530  130.9947  153.3122 H   0  0  0  0  0  0  0  0  0  0  0  0
  1 23  1  0  0  0  0
  1  2  2  0  0  0  0
  1 24  1  0  0  0  0
  2  3  1  0  0  0  0
  2 25  1  0  0  0  0
  3  4  2  0  0  0  0
  3 26  1  0  0  0  0
  4  5  1  0  0  0  0
  4 22  1  0  0  0  0
  5  6  1  0  0  0  0
  5 27  1  0  0  0  0
  5 28  1  0  0  0  0
  6  7  1  0  0  0  0
  6 29  1  0  0  0  0
  7 12  1  0  0  0  0
  7  8  2  0  0  0  0
  8  9  1  0  0  0  0
  9 10  2  0  0  0  0
  9 30  1  0  0  0  0
 10 11  1  0  0  0  0
 11 15  1  0  0  0  0
 11 12  2  0  0  0  0
 12 13  1  0  0  0  0
 13 14  2  0  0  0  0
 14 15  1  0  0  0  0
 14 31  1  0  0  0  0
 15 16  1  0  0  0  0
 16 21  1  0  0  0  0
 16 17  1  0  0  0  0
 16 32  1  0  0  0  0
 17 18  1  0  0  0  0
 17 33  1  0  0  0  0
 17 34  1  0  0  0  0
 18 19  1  0  0  0  0
 18 35  1  0  0  0  0
 18 36  1  0  0  0  0
 19 20  1  0  0  0  0
 19 37  1  0  0  0  0
 19 38  1  0  0  0  0
 20 21  1  0  0  0  0
 20 39  1  0  0  0  0
 20 40  1  0  0  0  0
 22 23  2  0  0  0  0
 22 41  1  0  0  0  0
 23 42  1  0  0  0  0
M  END
> <s_m_source_file>
AV-unprocessed.smi

> <i_m_source_file_index>
105

> <i_lp_mmshare_version>
43012

> <i_f3d_flags>
0

> <s_epik_input>
W2NIXTFbY0hdW2NIXVtjSF1bY0hdYzFbQ0gyXVtOSF1jKG5bY0hdbjIpYyhjMjMpbltjSF1uM1tDQEBIXTRbQ0gyXVtDSDJdW0NIMl1bQ0gyXU80

> <s_epik_cmdline>
J2VwaWtfcHl0aG9uJywgJy1waCcsICc3LjAnLCAnLXRuJywgJzgnLCAnLW1hJywgJzIwMCcsICctbWV0YWxfYmluZGluZycsICctaW1hZScsICc8aW5maWxlLm1hZT4nLCAnLW9tYWUnLCAnPG91dGZpbGUubWFlPic=

> <r_lp_tautomer_probability>
1

> <r_epik_Ionization_Penalty>
0.000653933

> <r_epik_Ionization_Penalty_Charging>
0

> <r_epik_Ionization_Penalty_Neutral>
0.000653933

> <r_epik_State_Penalty>
-0

> <r_epik_Charging_Adjusted_Penalty>
0

> <i_epik_Tot_Q>
0

> <i_epik_Tot_abs_Q>
0

> <r_epik_Metal_State_Penalty>
-0

> <b_epik_Metal_Only>
0

> <s_epik_Chemistry_Notes>
This compound contains an acetal/aminal-like group ( X-CH(R)-Y where X, Y are N, S, or O) that may be acid/base labile, releasing an aldehyde.

> <s_lp_Force_Field>
OPLS_2005

> <r_lp_Energy>
23.9687

> <b_lp_Chiralities_Consistent>
1

> <s_lp_Variant>
AV-unprocessed.smi:105-2

> <Gold.Version>
5.8.1

> <Gold.Id.Protein>
6NUR|6NUR_protein|mol2

> <Gold.PLP.Fitness>
50.3373

> <Gold.PLP.PLP>
-43.6311

> <Gold.PLP.part.hbond>
-3.6117

> <Gold.PLP.part.metal>
0.0000

> <Gold.PLP.part.buried>
-6.0608

> <Gold.PLP.part.nonpolar>
-34.3861

> <Gold.PLP.part.repulsive>
0.2113

> <Gold.PLP.ligand.clash>
0.0000

> <Gold.PLP.ligand.torsion>
0.7818

> <Gold.PLP.Chemscore.Hbond>
2.7520

> <Gold.PLP.Chemscore.CHOScore>
0.0000

> <Gold.PLP.Chemscore.Metal>
0.0000

> <Gold.Chemscore.Hbonds>
donor molecule, donor type, donor heavy atom, donor atom, acceptor molecule, acceptor atom, score
      L1  H     6    29       P1  7948  1.00
      P1  H  7997  8009       L1    10  1.00
      P1  H 10752 10763       L1     8  0.50

> <Gold.PLP.Chemscore.Internal.Correction>
0.0138

> <Gold.Rescore>
     Score         DG    S(hbond)    S(metal)    S(lipo)     H(rot)  DE(clash)    DE(int)     intcor
     17.55     -18.34       2.18        0.00      81.59       1.55       0.01       0.78       ----

> <Gold.Chemscore.Fitness>
17.5549

> <Gold.Chemscore.DG>
-18.3425

> <Gold.Chemscore.ZeroCoef>
-5.4800

> <Gold.Chemscore.Hbond>
2.1847

> <Gold.Chemscore.Metal>
0.0000

> <Gold.Chemscore.Lipo>
81.5860

> <Gold.Chemscore.Internal_Hbond>
0.0000

> <Gold.Chemscore.DEClash>
0.0063

> <Gold.Chemscore.DEInternal>
0.7814

> <Gold.Chemscore.Rot>
1.5547

> <Gold.Chemscore.Internal.Correction>
   9.000000E+99

> <Gold.Chemscore.Hbonds>
donor molecule, donor type, donor heavy atom, donor atom, acceptor molecule, acceptor atom, score
      L1  H     6    29       P1  7948  0.44
      P1  H  7997  8009       L1    10  0.94
      P1  H 10752 10763       L1     8  0.08

> <Gold.Chemscore.Hbond.Weighted>
-7.2969

> <Gold.Chemscore.Metal.Weighted>
-0.0000

> <Gold.Chemscore.Lipo.Weighted>
-9.5456

> <Gold.Chemscore.Internal_Hbond.Weighted>
0.0000

> <Gold.Chemscore.DEClash.Weighted>
0.0063

> <Gold.Chemscore.DEInternal.Weighted>
0.7814

> <Gold.Chemscore.Rot.Weighted>
3.9800

> <Gold.Chemscore.Internal.Correction.Weighted>
   9.000000E+99

> <Gold.Protein.RotatedTorsions>
[ 6907 6896 6895 6894 ] final  167.32 input  -60.11 | X-H torsion
[ 7974 7965 7964 7962 ] final -177.76 input  175.53 | X-H torsion
[ 8008 7997 7996 7995 ] final -142.84 input   59.86 | X-H torsion
[ 10167 10162 10161 10158 ] final  115.00 input  -65.29 | X-H torsion
[ 10718 10713 10712 10709 ] final  -76.67 input   66.30 | X-H torsion
[ 10763 10752 10751 10750 ] final   20.22 input  -60.55 | X-H torsion
[ 11005 11000 10999 10996 ] final  131.75 input  -57.11 | X-H torsion

> <Gold.Protein.ActiveResidues>
 VAL166  LYS551  ARG553  GLY616  TRP617  ASP618  TYR619  PRO620  LYS621  CYS622 
 ASP623  PHE694  ASN695  SER759  ASP760  ASP761  ALA762  ILE779  LEU786  VAL792 
 PHE793  MET794  SER795  GLU796  ALA797  LYS798  CYS799  TRP800  GLU811  SER814 

> <Gold.Protein.RotatedAtoms>
  151.8651  133.3465  159.3716 H   0  0  0  0  0  0  0  0  0  0  0  0  # atno 6907 bound_to 6896
  150.7168  134.5167  159.5643 H   0  0  0  0  0  0  0  0  0  0  0  0  # atno 6908 bound_to 6896
  152.2689  134.7955  160.0468 H   0  0  0  0  0  0  0  0  0  0  0  0  # atno 6909 bound_to 6896
  144.7128  140.0971  143.6418 H   0  0  0  0  0  0  0  0  0  0  0  0  # atno 7974 bound_to 7965
  155.5008  140.0575  157.2939 H   0  0  0  0  0  0  0  0  0  0  0  0  # atno 8008 bound_to 7997
  154.4588  140.1986  156.0254 H   0  0  0  0  0  0  0  0  0  0  0  0  # atno 8009 bound_to 7997
  156.0850  140.3241  155.7746 H   0  0  0  0  0  0  0  0  0  0  0  0  # atno 8010 bound_to 7997
  139.6348  144.7119  151.2356 H   0  0  0  0  0  0  0  0  0  0  0  0  # atno 10167 bound_to 10162
  156.0168  130.4471  150.3228 H   0  0  0  0  0  0  0  0  0  0  0  0  # atno 10718 bound_to 10713
  153.1096  135.6693  153.9525 H   0  0  0  0  0  0  0  0  0  0  0  0  # atno 10763 bound_to 10752
  153.9072  135.3029  155.3450 H   0  0  0  0  0  0  0  0  0  0  0  0  # atno 10764 bound_to 10752
  154.7516  135.5032  153.9376 H   0  0  0  0  0  0  0  0  0  0  0  0  # atno 10765 bound_to 10752
  139.9749  134.9566  156.9483 H   0  0  0  0  0  0  0  0  0  0  0  0  # atno 11005 bound_to 11000
  145.9570  139.2774  143.1178 LP  0  0  0  0  0  0  0  0  0  0  0  0  # atno 17320 bound_to 7965
  145.9261  140.9081  143.0380 LP  0  0  0  0  0  0  0  0  0  0  0  0  # atno 17321 bound_to 7965
  140.7459  143.6415  150.8331 LP  0  0  0  0  0  0  0  0  0  0  0  0  # atno 17342 bound_to 10162
  140.0044  143.5709  152.2863 LP  0  0  0  0  0  0  0  0  0  0  0  0  # atno 17343 bound_to 10162
  157.1328  131.0276  151.2962 LP  0  0  0  0  0  0  0  0  0  0  0  0  # atno 17370 bound_to 10713
  157.4536  130.7612  149.7173 LP  0  0  0  0  0  0  0  0  0  0  0  0  # atno 17371 bound_to 10713
  140.5216  134.0901  155.7293 LP  0  0  0  0  0  0  0  0  0  0  0  0  # atno 17394 bound_to 11000
  141.1426  133.9111  157.2290 LP  0  0  0  0  0  0  0  0  0  0  0  0  # atno 17395 bound_to 11000

$$$$
