AV-unprocessed.smi:227|AV-procd|sdf|1737|dock5
  -GOLD-   2262020233D 1   1.00000     0.00000
 Structure written by MMmdl.
 54 58  0  0  0  0  0  0  0  0  1 V2000
  152.3792  133.3754  157.2147 O   0  0  0  0  0  0  0  0  0  0  0  0
  151.9208  132.3155  156.4008 C   0  0  0  0  0  0  0  0  0  0  0  0
  150.8715  132.8042  155.3721 C   0  0  2  0  0  0  0  0  0  0  0  0
  149.6449  133.4744  156.0396 C   0  0  0  0  0  0  0  0  0  0  0  0
  149.6945  134.9257  155.9971 N   0  0  0  0  0  0  0  0  0  0  0  0
  149.7973  135.7088  154.8711 C   0  0  0  0  0  0  0  0  0  0  0  0
  149.8290  136.9944  155.0914 N   0  0  0  0  0  0  0  0  0  0  0  0
  149.7435  137.1101  156.4748 C   0  0  0  0  0  0  0  0  0  0  0  0
  149.7281  138.2060  157.3861 C   0  0  0  0  0  0  0  0  0  0  0  0
  149.8133  139.5087  157.0020 N   0  0  0  0  0  0  0  0  0  0  0  0
  150.1521  140.5531  157.9572 C   0  0  1  0  0  0  0  0  0  0  0  0
  151.6667  140.3744  158.1941 C   0  0  0  0  0  0  0  0  0  0  0  0
  152.1317  139.8957  156.8100 C   0  0  0  0  0  0  0  0  0  0  0  0
  150.8067  139.9193  156.0212 C   0  0  2  0  0  0  0  0  0  0  0  0
  150.4180  141.3872  155.7360 C   0  0  1  0  0  0  0  0  0  0  0  0
  149.3401  141.5348  154.6462 C   0  0  0  0  0  0  0  0  0  0  0  0
  149.7690  140.9305  153.4447 O   0  0  0  0  0  0  0  0  0  0  0  0
  149.9220  141.8275  157.1287 C   0  0  0  0  0  0  0  0  0  0  0  0
  149.5910  137.9140  158.7071 N   0  0  0  0  0  0  0  0  0  0  0  0
  149.5043  136.6458  159.1168 C   0  0  0  0  0  0  0  0  0  0  0  0
  149.5245  135.5310  158.3857 N   0  0  0  0  0  0  0  0  0  0  0  0
  149.6422  135.8138  157.0572 C   0  0  0  0  0  0  0  0  0  0  0  0
  150.4471  131.6814  154.3918 C   0  0  1  0  0  0  0  0  0  0  0  0
  151.3652  130.4720  154.3681 C   0  0  0  0  0  0  0  0  0  0  0  0
  150.4811  129.4132  153.7198 C   0  0  0  0  0  0  0  0  0  0  0  0
  149.1579  129.7066  154.1517 O   0  0  0  0  0  0  0  0  0  0  0  0
  149.1104  131.0094  154.7261 C   0  0  0  0  0  0  0  0  0  0  0  0
  153.3066  133.4869  157.0707 H   0  0  0  0  0  0  0  0  0  0  0  0
  152.7774  131.8607  155.9032 H   0  0  0  0  0  0  0  0  0  0  0  0
  151.5031  131.5399  157.0423 H   0  0  0  0  0  0  0  0  0  0  0  0
  151.3645  133.5761  154.7794 H   0  0  0  0  0  0  0  0  0  0  0  0
  148.7230  133.1641  155.5476 H   0  0  0  0  0  0  0  0  0  0  0  0
  149.5594  133.1568  157.0795 H   0  0  0  0  0  0  0  0  0  0  0  0
  149.8524  135.2927  153.8757 H   0  0  0  0  0  0  0  0  0  0  0  0
  149.5647  140.5430  158.8761 H   0  0  0  0  0  0  0  0  0  0  0  0
  152.1532  141.2981  158.5089 H   0  0  0  0  0  0  0  0  0  0  0  0
  151.8653  139.6138  158.9501 H   0  0  0  0  0  0  0  0  0  0  0  0
  152.8978  140.5367  156.3726 H   0  0  0  0  0  0  0  0  0  0  0  0
  152.5324  138.8828  156.8685 H   0  0  0  0  0  0  0  0  0  0  0  0
  150.8513  139.3198  155.1141 H   0  0  0  0  0  0  0  0  0  0  0  0
  151.2937  141.9696  155.4449 H   0  0  0  0  0  0  0  0  0  0  0  0
  148.3980  141.0837  154.9598 H   0  0  0  0  0  0  0  0  0  0  0  0
  149.1441  142.5891  154.4491 H   0  0  0  0  0  0  0  0  0  0  0  0
  149.1444  140.2626  153.2056 H   0  0  0  0  0  0  0  0  0  0  0  0
  148.8614  142.0828  157.1112 H   0  0  0  0  0  0  0  0  0  0  0  0
  150.4662  142.6880  157.5191 H   0  0  0  0  0  0  0  0  0  0  0  0
  149.4039  136.5045  160.1828 H   0  0  0  0  0  0  0  0  0  0  0  0
  150.3890  132.0833  153.3787 H   0  0  0  0  0  0  0  0  0  0  0  0
  152.2870  130.6403  153.8106 H   0  0  0  0  0  0  0  0  0  0  0  0
  151.6280  130.1706  155.3833 H   0  0  0  0  0  0  0  0  0  0  0  0
  150.5191  129.4999  152.6332 H   0  0  0  0  0  0  0  0  0  0  0  0
  150.7759  128.3989  153.9898 H   0  0  0  0  0  0  0  0  0  0  0  0
  148.9902  130.8999  155.8047 H   0  0  0  0  0  0  0  0  0  0  0  0
  148.2564  131.5718  154.3480 H   0  0  0  0  0  0  0  0  0  0  0  0
  1  2  1  0  0  0  0
  1 28  1  0  0  0  0
  2  3  1  0  0  0  0
  2 29  1  0  0  0  0
  2 30  1  0  0  0  0
  3  4  1  0  0  0  0
  3 23  1  0  0  0  0
  3 31  1  0  0  0  0
  4  5  1  0  0  0  0
  4 32  1  0  0  0  0
  4 33  1  0  0  0  0
  5 22  1  0  0  0  0
  5  6  1  0  0  0  0
  6  7  2  0  0  0  0
  6 34  1  0  0  0  0
  7  8  1  0  0  0  0
  8 22  2  0  0  0  0
  8  9  1  0  0  0  0
  9 10  1  0  0  0  0
  9 19  2  0  0  0  0
 10 14  1  0  0  0  0
 10 11  1  0  0  0  0
 11 18  1  0  0  0  0
 11 12  1  0  0  0  0
 11 35  1  0  0  0  0
 12 13  1  0  0  0  0
 12 36  1  0  0  0  0
 12 37  1  0  0  0  0
 13 14  1  0  0  0  0
 13 38  1  0  0  0  0
 13 39  1  0  0  0  0
 14 15  1  0  0  0  0
 14 40  1  0  0  0  0
 15 16  1  0  0  0  0
 15 18  1  0  0  0  0
 15 41  1  0  0  0  0
 16 17  1  0  0  0  0
 16 42  1  0  0  0  0
 16 43  1  0  0  0  0
 17 44  1  0  0  0  0
 18 45  1  0  0  0  0
 18 46  1  0  0  0  0
 19 20  1  0  0  0  0
 20 21  2  0  0  0  0
 20 47  1  0  0  0  0
 21 22  1  0  0  0  0
 23 27  1  0  0  0  0
 23 24  1  0  0  0  0
 23 48  1  0  0  0  0
 24 25  1  0  0  0  0
 24 49  1  0  0  0  0
 24 50  1  0  0  0  0
 25 26  1  0  0  0  0
 25 51  1  0  0  0  0
 25 52  1  0  0  0  0
 26 27  1  0  0  0  0
 27 53  1  0  0  0  0
 27 54  1  0  0  0  0
M  END
> <s_m_source_file>
AV-unprocessed.smi

> <i_m_source_file_index>
227

> <i_lp_mmshare_version>
43012

> <i_f3d_flags>
0

> <s_epik_input>
W0NIMl0xT1tDSDJdW0NIMl1bQ0BIXTFbQ0BIXShbQ0gyXVtPSF0pW0NIMl1uKFtjSF1uMiljKGMyMyluW2NIXW5jM04oW0NASF00NSlbQ0BASF0oW0NIMl1bQ0gyXTQpW0NASF0oW0NIMl01KVtDSDJdW09IXQ==

> <s_epik_cmdline>
J2VwaWtfcHl0aG9uJywgJy1waCcsICc3LjAnLCAnLXRuJywgJzgnLCAnLW1hJywgJzIwMCcsICctbWV0YWxfYmluZGluZycsICctaW1hZScsICc8aW5maWxlLm1hZT4nLCAnLW9tYWUnLCAnPG91dGZpbGUubWFlPic=

> <r_lp_tautomer_probability>
1

> <r_epik_Ionization_Penalty>
0.0055791

> <r_epik_Ionization_Penalty_Charging>
0

> <r_epik_Ionization_Penalty_Neutral>
0.0055791

> <r_epik_State_Penalty>
0.00401299

> <r_epik_Charging_Adjusted_Penalty>
0.00401299

> <i_epik_Tot_Q>
0

> <i_epik_Tot_abs_Q>
0

> <r_epik_Metal_State_Penalty>
-0

> <b_epik_Metal_Only>
0

> <s_lp_Force_Field>
OPLS_2005

> <r_lp_Energy>
87.9703

> <b_lp_Chiralities_Consistent>
1

> <s_lp_Variant>
AV-unprocessed.smi:227-11

> <Gold.Version>
5.8.1

> <Gold.Id.Protein>
6NUR|6NUR_protein|mol2

> <Gold.PLP.Fitness>
44.9632

> <Gold.PLP.PLP>
-37.3512

> <Gold.PLP.part.hbond>
-4.9747

> <Gold.PLP.part.metal>
0.0000

> <Gold.PLP.part.buried>
-4.9441

> <Gold.PLP.part.nonpolar>
-27.6512

> <Gold.PLP.part.repulsive>
0.1342

> <Gold.PLP.ligand.clash>
0.0000

> <Gold.PLP.ligand.torsion>
2.1493

> <Gold.PLP.Chemscore.Hbond>
2.8932

> <Gold.PLP.Chemscore.CHOScore>
1.0000

> <Gold.PLP.Chemscore.Metal>
0.0000

> <Gold.Chemscore.Hbonds>
donor molecule, donor type, donor heavy atom, donor atom, acceptor molecule, acceptor atom, score
      P1  H  6896  6907       L1    21  0.75
      P1  H  6896  6909       L1     1  0.41
      P1  H  7989  7998       L1    17  0.27
      P1  H  8011  8017       L1    17  1.00
      L1  C     6    34       P1  7948  0.57

> <Gold.PLP.Chemscore.Internal.Correction>
0.2310

> <Gold.Rescore>
     Score         DG    S(hbond)    S(metal)    S(lipo)     H(rot)  DE(clash)    DE(int)     intcor
     10.80     -12.89       2.26        0.00      77.90       3.61       0.16       1.94       ----

> <Gold.Chemscore.Fitness>
10.8012

> <Gold.Chemscore.DG>
-12.8926

> <Gold.Chemscore.ZeroCoef>
-5.4800

> <Gold.Chemscore.Hbond>
2.2553

> <Gold.Chemscore.Metal>
0.0000

> <Gold.Chemscore.Lipo>
77.8995

> <Gold.Chemscore.Internal_Hbond>
0.0000

> <Gold.Chemscore.DEClash>
0.1552

> <Gold.Chemscore.DEInternal>
1.9362

> <Gold.Chemscore.Rot>
3.6071

> <Gold.Chemscore.Internal.Correction>
   9.000000E+99

> <Gold.Chemscore.Hbonds>
donor molecule, donor type, donor heavy atom, donor atom, acceptor molecule, acceptor atom, score
      L1  H    17    44       P1  7957  0.04
      P1  H  6896  6907       L1    21  0.09
      P1  H  6896  6909       L1     1  0.34
      P1  H  7989  7998       L1    17  0.17
      P1  H  8011  8017       L1    17  0.23

> <Gold.Chemscore.Hbond.Weighted>
-7.5326

> <Gold.Chemscore.Metal.Weighted>
-0.0000

> <Gold.Chemscore.Lipo.Weighted>
-9.1142

> <Gold.Chemscore.Internal_Hbond.Weighted>
0.0000

> <Gold.Chemscore.DEClash.Weighted>
0.1552

> <Gold.Chemscore.DEInternal.Weighted>
1.9362

> <Gold.Chemscore.Rot.Weighted>
9.2342

> <Gold.Chemscore.Internal.Correction.Weighted>
   9.000000E+99

> <Gold.Protein.RotatedTorsions>
[ 6907 6896 6895 6894 ] final  -68.54 input  -60.11 | X-H torsion
[ 7974 7965 7964 7962 ] final  158.01 input  175.53 | X-H torsion
[ 8008 7997 7996 7995 ] final   89.96 input   59.86 | X-H torsion
[ 10167 10162 10161 10158 ] final  -83.24 input  -65.29 | X-H torsion
[ 10718 10713 10712 10709 ] final   -6.69 input   66.30 | X-H torsion
[ 10763 10752 10751 10750 ] final  113.74 input  -60.55 | X-H torsion
[ 11005 11000 10999 10996 ] final  -25.79 input  -57.11 | X-H torsion

> <Gold.Protein.ActiveResidues>
 VAL166  LYS551  ARG553  GLY616  TRP617  ASP618  TYR619  PRO620  LYS621  CYS622 
 ASP623  PHE694  ASN695  SER759  ASP760  ASP761  ALA762  ILE779  LEU786  VAL792 
 PHE793  MET794  SER795  GLU796  ALA797  LYS798  CYS799  TRP800  GLU811  SER814 

> <Gold.Protein.RotatedAtoms>
  150.7351  134.5724  159.5896 H   0  0  0  0  0  0  0  0  0  0  0  0  # atno 6907 bound_to 6896
  152.3160  134.7437  160.0334 H   0  0  0  0  0  0  0  0  0  0  0  0  # atno 6908 bound_to 6896
  151.7969  133.3330  159.3552 H   0  0  0  0  0  0  0  0  0  0  0  0  # atno 6909 bound_to 6896
  144.7870  139.7419  143.6236 H   0  0  0  0  0  0  0  0  0  0  0  0  # atno 7974 bound_to 7965
  156.0062  140.3355  155.6895 H   0  0  0  0  0  0  0  0  0  0  0  0  # atno 8008 bound_to 7997
  155.6222  140.0676  157.2692 H   0  0  0  0  0  0  0  0  0  0  0  0  # atno 8009 bound_to 7997
  154.4265  140.1774  156.1371 H   0  0  0  0  0  0  0  0  0  0  0  0  # atno 8010 bound_to 7997
  140.4245  143.2571  151.8844 H   0  0  0  0  0  0  0  0  0  0  0  0  # atno 10167 bound_to 10162
  156.7281  130.5172  149.5852 H   0  0  0  0  0  0  0  0  0  0  0  0  # atno 10718 bound_to 10713
  153.4969  135.3646  155.2520 H   0  0  0  0  0  0  0  0  0  0  0  0  # atno 10763 bound_to 10752
  154.8749  135.3990  154.3523 H   0  0  0  0  0  0  0  0  0  0  0  0  # atno 10764 bound_to 10752
  153.4153  135.7079  153.6397 H   0  0  0  0  0  0  0  0  0  0  0  0  # atno 10765 bound_to 10752
  140.8970  133.7549  156.0494 H   0  0  0  0  0  0  0  0  0  0  0  0  # atno 11005 bound_to 11000
  146.2107  139.5461  142.9683 LP  0  0  0  0  0  0  0  0  0  0  0  0  # atno 17320 bound_to 7965
  145.5894  141.0371  143.2078 LP  0  0  0  0  0  0  0  0  0  0  0  0  # atno 17321 bound_to 7965
  139.4783  144.5401  151.8540 LP  0  0  0  0  0  0  0  0  0  0  0  0  # atno 17342 bound_to 10162
  140.4496  144.1873  150.5896 LP  0  0  0  0  0  0  0  0  0  0  0  0  # atno 17343 bound_to 10162
  156.1547  130.6334  151.0642 LP  0  0  0  0  0  0  0  0  0  0  0  0  # atno 17370 bound_to 10713
  157.6870  131.0822  150.7215 LP  0  0  0  0  0  0  0  0  0  0  0  0  # atno 17371 bound_to 10713
  140.8277  134.3215  157.5360 LP  0  0  0  0  0  0  0  0  0  0  0  0  # atno 17394 bound_to 11000
  139.8737  134.9345  156.3609 LP  0  0  0  0  0  0  0  0  0  0  0  0  # atno 17395 bound_to 11000

$$$$
