AV-unprocessed.smi:3303|AV-procd|sdf|12664|dock4
  -GOLD-   2272019 03D 1   1.00000     0.00000
 Structure written by MMmdl.
 45 46  0  0  0  0  0  0  0  0  3 V2000
  147.6616  138.6997  155.2904 C   0  0  0  0  0  0  0  0  0  0  0  0
  146.9468  139.9827  154.8341 C   0  0  1  0  0  0  0  0  0  0  0  0
  145.7360  140.3237  155.7246 C   0  0  0  0  0  0  0  0  0  0  0  0
  144.9952  141.5108  155.2218 N   0  3  1  0  0  0  0  0  0  0  0  0
  143.7586  141.7342  156.0098 C   0  0  0  0  0  0  0  0  0  0  0  0
  145.8698  142.7176  155.1103 C   0  0  2  0  0  0  0  0  0  0  0  0
  145.1220  143.9394  154.5415 C   0  0  0  0  0  0  0  0  0  0  0  0
  147.1060  142.4173  154.2315 C   0  0  0  0  0  0  0  0  0  0  0  0
  147.9006  141.1885  154.7044 C   0  0  1  0  0  0  0  0  0  0  0  0
  148.6116  141.4804  155.9731 N   0  3  0  0  0  0  0  0  0  0  0  0
  150.0569  141.1781  155.9561 C   0  0  0  0  0  0  0  0  0  0  0  0
  150.4837  140.4510  157.2381 C   0  0  0  0  0  0  0  0  0  0  0  0
  151.4868  141.2545  158.0433 C   0  0  0  0  0  0  0  0  0  0  0  0
  151.3871  142.6598  158.1265 C   0  0  0  0  0  0  0  0  0  0  0  0
  152.3421  143.3546  158.8941 C   0  0  0  0  0  0  0  0  0  0  0  0
  153.3532  142.6214  159.5450 C   0  0  0  0  0  0  0  0  0  0  0  0
  153.3642  141.2198  159.4002 C   0  0  0  0  0  0  0  0  0  0  0  0
  152.4521  140.5436  158.6682 N   0  0  0  0  0  0  0  0  0  0  0  0
  148.0504  138.7907  156.3050 H   0  0  0  0  0  0  0  0  0  0  0  0
  148.4977  138.4604  154.6325 H   0  0  0  0  0  0  0  0  0  0  0  0
  146.9810  137.8478  155.2762 H   0  0  0  0  0  0  0  0  0  0  0  0
  146.5575  139.7761  153.8355 H   0  0  0  0  0  0  0  0  0  0  0  0
  145.0612  139.4667  155.7490 H   0  0  0  0  0  0  0  0  0  0  0  0
  146.0541  140.4999  156.7536 H   0  0  0  0  0  0  0  0  0  0  0  0
  143.9921  142.1014  157.0100 H   0  0  0  0  0  0  0  0  0  0  0  0
  143.1922  140.8082  156.1140 H   0  0  0  0  0  0  0  0  0  0  0  0
  143.0965  142.4494  155.5227 H   0  0  0  0  0  0  0  0  0  0  0  0
  146.2136  142.9750  156.1137 H   0  0  0  0  0  0  0  0  0  0  0  0
  145.8056  144.7734  154.3795 H   0  0  0  0  0  0  0  0  0  0  0  0
  144.3499  144.3015  155.2202 H   0  0  0  0  0  0  0  0  0  0  0  0
  144.6519  143.7093  153.5845 H   0  0  0  0  0  0  0  0  0  0  0  0
  146.7788  142.2494  153.2041 H   0  0  0  0  0  0  0  0  0  0  0  0
  147.7633  143.2876  154.1958 H   0  0  0  0  0  0  0  0  0  0  0  0
  148.6395  140.9573  153.9346 H   0  0  0  0  0  0  0  0  0  0  0  0
  148.5007  142.4615  156.1862 H   0  0  0  0  0  0  0  0  0  0  0  0
  150.2861  140.5610  155.0861 H   0  0  0  0  0  0  0  0  0  0  0  0
  150.6138  142.1104  155.8502 H   0  0  0  0  0  0  0  0  0  0  0  0
  149.6127  140.2473  157.8630 H   0  0  0  0  0  0  0  0  0  0  0  0
  150.9175  139.4812  156.9904 H   0  0  0  0  0  0  0  0  0  0  0  0
  150.6003  143.1964  157.6164 H   0  0  0  0  0  0  0  0  0  0  0  0
  152.2998  144.4303  158.9820 H   0  0  0  0  0  0  0  0  0  0  0  0
  154.1023  143.1212  160.1412 H   0  0  0  0  0  0  0  0  0  0  0  0
  154.1242  140.6261  159.8863 H   0  0  0  0  0  0  0  0  0  0  0  0
  148.1843  140.9406  156.7123 H   0  0  0  0  0  0  0  0  0  0  0  0
  144.6943  141.2830  154.2844 H   0  0  0  0  0  0  0  0  0  0  0  0
  1  2  1  0  0  0  0
  1 19  1  0  0  0  0
  1 20  1  0  0  0  0
  1 21  1  0  0  0  0
  2  9  1  0  0  0  0
  2  3  1  0  0  0  0
  2 22  1  0  0  0  0
  3  4  1  0  0  0  0
  3 23  1  0  0  0  0
  3 24  1  0  0  0  0
  4  5  1  0  0  0  0
  4  6  1  0  0  0  0
  4 45  1  0  0  0  0
  5 25  1  0  0  0  0
  5 26  1  0  0  0  0
  5 27  1  0  0  0  0
  6  7  1  0  0  0  0
  6  8  1  0  0  0  0
  6 28  1  0  0  0  0
  7 29  1  0  0  0  0
  7 30  1  0  0  0  0
  7 31  1  0  0  0  0
  8  9  1  0  0  0  0
  8 32  1  0  0  0  0
  8 33  1  0  0  0  0
  9 10  1  0  0  0  0
  9 34  1  0  0  0  0
 10 11  1  0  0  0  0
 10 35  1  0  0  0  0
 10 44  1  0  0  0  0
 11 12  1  0  0  0  0
 11 36  1  0  0  0  0
 11 37  1  0  0  0  0
 12 13  1  0  0  0  0
 12 38  1  0  0  0  0
 12 39  1  0  0  0  0
 13 18  1  0  0  0  0
 13 14  2  0  0  0  0
 14 15  1  0  0  0  0
 14 40  1  0  0  0  0
 15 16  2  0  0  0  0
 15 41  1  0  0  0  0
 16 17  1  0  0  0  0
 16 42  1  0  0  0  0
 17 18  2  0  0  0  0
 17 43  1  0  0  0  0
M  CHG  1   4   1
M  CHG  1  10   1
M  END
> <s_m_source_file>
AV-unprocessed.smi

> <i_m_source_file_index>
3303

> <i_lp_mmshare_version>
43012

> <i_f3d_flags>
0

> <s_epik_input>
W0NIM11bQ0BASF0xW0NIMl1OKFtDSDNdKVtDQEBIXShbQ0gzXSlbQ0gyXVtDQEhdMVtOSF1bQ0gyXVtDSDJdYzJbY0hdW2NIXVtjSF1bY0hdbjI=

> <s_epik_cmdline>
J2VwaWtfcHl0aG9uJywgJy1waCcsICc3LjAnLCAnLXRuJywgJzgnLCAnLW1hJywgJzIwMCcsICctbWV0YWxfYmluZGluZycsICctaW1hZScsICc8aW5maWxlLm1hZT4nLCAnLW9tYWUnLCAnPG91dGZpbGUubWFlPic=

> <r_epik_Ionization_Penalty>
0.0769462

> <r_epik_Ionization_Penalty_Charging>
0.0759813

> <r_epik_Ionization_Penalty_Neutral>
0.000964829

> <r_epik_State_Penalty>
0.0654373

> <r_epik_Charging_Adjusted_Penalty>
0.141419

> <i_epik_Tot_Q>
2

> <i_epik_Tot_abs_Q>
2

> <r_epik_Metal_State_Penalty>
0.0656439

> <b_epik_Metal_Only>
0

> <s_lp_Force_Field>
OPLS_2005

> <r_lp_Energy>
34.3244

> <b_lp_Chiralities_Consistent>
1

> <s_lp_Variant>
AV-unprocessed.smi:3303-8

> <Gold.Version>
5.8.1

> <Gold.Id.Protein>
6NUR|6NUR_protein|mol2

> <Gold.PLP.Fitness>
45.3753

> <Gold.PLP.PLP>
-36.7983

> <Gold.PLP.part.hbond>
-2.0000

> <Gold.PLP.part.metal>
0.0000

> <Gold.PLP.part.buried>
-6.1998

> <Gold.PLP.part.nonpolar>
-30.6858

> <Gold.PLP.part.repulsive>
0.0757

> <Gold.PLP.ligand.clash>
0.0000

> <Gold.PLP.ligand.torsion>
1.7294

> <Gold.PLP.Chemscore.Hbond>
4.0000

> <Gold.PLP.Chemscore.CHOScore>
0.0000

> <Gold.PLP.Chemscore.Metal>
0.0000

> <Gold.Chemscore.Hbonds>
donor molecule, donor type, donor heavy atom, donor atom, acceptor molecule, acceptor atom, score
      L1  H     4    45       P1 10175  1.17
      L1  H    10    35       P1  8028  0.42

> <Gold.PLP.Chemscore.Internal.Correction>
0.0358

> <Gold.Rescore>
     Score         DG    S(hbond)    S(metal)    S(lipo)     H(rot)  DE(clash)    DE(int)     intcor
     17.73     -20.00       1.84        0.00     101.76       1.37       0.89       1.38       ----

> <Gold.Chemscore.Fitness>
17.7271

> <Gold.Chemscore.DG>
-19.9979

> <Gold.Chemscore.ZeroCoef>
-5.4800

> <Gold.Chemscore.Hbond>
1.8353

> <Gold.Chemscore.Metal>
0.0000

> <Gold.Chemscore.Lipo>
101.7641

> <Gold.Chemscore.Internal_Hbond>
0.0000

> <Gold.Chemscore.DEClash>
0.8907

> <Gold.Chemscore.DEInternal>
1.3801

> <Gold.Chemscore.Rot>
1.3744

> <Gold.Chemscore.Internal.Correction>
   9.000000E+99

> <Gold.Chemscore.Hbonds>
donor molecule, donor type, donor heavy atom, donor atom, acceptor molecule, acceptor atom, score
      L1  H     4    45       P1 10175  0.38
      L1  H    10    35       P1  8028  0.22

> <Gold.Chemscore.Hbond.Weighted>
-6.1300

> <Gold.Chemscore.Metal.Weighted>
-0.0000

> <Gold.Chemscore.Lipo.Weighted>
-11.9064

> <Gold.Chemscore.Internal_Hbond.Weighted>
0.0000

> <Gold.Chemscore.DEClash.Weighted>
0.8907

> <Gold.Chemscore.DEInternal.Weighted>
1.3801

> <Gold.Chemscore.Rot.Weighted>
3.5185

> <Gold.Chemscore.Internal.Correction.Weighted>
   9.000000E+99

> <Gold.Protein.RotatedTorsions>
[ 6907 6896 6895 6894 ] final   -7.41 input  -60.11 | X-H torsion
[ 7974 7965 7964 7962 ] final -115.43 input  175.53 | X-H torsion
[ 8008 7997 7996 7995 ] final  -24.39 input   59.86 | X-H torsion
[ 10167 10162 10161 10158 ] final -170.02 input  -65.29 | X-H torsion
[ 10718 10713 10712 10709 ] final -129.19 input   66.30 | X-H torsion
[ 10763 10752 10751 10750 ] final   29.25 input  -60.55 | X-H torsion
[ 11005 11000 10999 10996 ] final  130.25 input  -57.11 | X-H torsion

> <Gold.Protein.ActiveResidues>
 VAL166  LYS551  ARG553  GLY616  TRP617  ASP618  TYR619  PRO620  LYS621  CYS622 
 ASP623  PHE694  ASN695  SER759  ASP760  ASP761  ALA762  ILE779  LEU786  VAL792 
 PHE793  MET794  SER795  GLU796  ALA797  LYS798  CYS799  TRP800  GLU811  SER814 

> <Gold.Protein.RotatedAtoms>
  151.4500  135.1029  159.9694 H   0  0  0  0  0  0  0  0  0  0  0  0  # atno 6907 bound_to 6896
  152.4892  133.8449  159.7182 H   0  0  0  0  0  0  0  0  0  0  0  0  # atno 6908 bound_to 6896
  150.9029  133.7036  159.2901 H   0  0  0  0  0  0  0  0  0  0  0  0  # atno 6909 bound_to 6896
  145.1084  140.8596  143.3884 H   0  0  0  0  0  0  0  0  0  0  0  0  # atno 7974 bound_to 7965
  154.4532  140.1955  156.0457 H   0  0  0  0  0  0  0  0  0  0  0  0  # atno 8008 bound_to 7997
  156.0692  140.3287  155.7527 H   0  0  0  0  0  0  0  0  0  0  0  0  # atno 8009 bound_to 7997
  155.5290  140.0576  157.2883 H   0  0  0  0  0  0  0  0  0  0  0  0  # atno 8010 bound_to 7997
  139.5887  144.1261  152.1608 H   0  0  0  0  0  0  0  0  0  0  0  0  # atno 10167 bound_to 10162
  156.2023  130.6865  151.0553 H   0  0  0  0  0  0  0  0  0  0  0  0  # atno 10718 bound_to 10713
  153.0441  135.6493  154.0863 H   0  0  0  0  0  0  0  0  0  0  0  0  # atno 10763 bound_to 10752
  154.0564  135.2891  155.3333 H   0  0  0  0  0  0  0  0  0  0  0  0  # atno 10764 bound_to 10752
  154.6686  135.5364  153.8175 H   0  0  0  0  0  0  0  0  0  0  0  0  # atno 10765 bound_to 10752
  139.9661  134.9590  156.9266 H   0  0  0  0  0  0  0  0  0  0  0  0  # atno 11005 bound_to 11000
  145.0875  139.2914  143.5752 LP  0  0  0  0  0  0  0  0  0  0  0  0  # atno 17320 bound_to 7965
  146.3527  140.0401  142.8643 LP  0  0  0  0  0  0  0  0  0  0  0  0  # atno 17321 bound_to 7965
  140.0830  144.5684  150.7108 LP  0  0  0  0  0  0  0  0  0  0  0  0  # atno 17342 bound_to 10162
  140.7154  143.2540  151.4450 LP  0  0  0  0  0  0  0  0  0  0  0  0  # atno 17343 bound_to 10162
  157.6992  131.0782  150.6872 LP  0  0  0  0  0  0  0  0  0  0  0  0  # atno 17370 bound_to 10713
  156.6930  130.4601  149.5594 LP  0  0  0  0  0  0  0  0  0  0  0  0  # atno 17371 bound_to 10713
  140.5394  134.0735  155.7337 LP  0  0  0  0  0  0  0  0  0  0  0  0  # atno 17394 bound_to 11000
  141.1341  133.9252  157.2473 LP  0  0  0  0  0  0  0  0  0  0  0  0  # atno 17395 bound_to 11000

$$$$
