AV-unprocessed.smi:3034|AV-procd|sdf|11577|dock3
  -GOLD-   2272016543D 1   1.00000     0.00000
 Structure written by MMmdl.
 32 32  0  0  0  0  0  0  0  0  1 V2000
  150.1087  135.3985  154.8758 C   0  0  0  0  0  0  0  0  0  0  0  0
  151.0528  136.4821  155.4069 C   0  0  0  0  0  0  0  0  0  0  0  0
  150.7509  137.8668  154.8196 C   0  0  0  0  0  0  0  0  0  0  0  0
  151.7098  139.1726  155.6938 S   0  0  0  0  0  0  0  0  0  0  0  0
  153.1452  138.8787  155.5661 O   0  0  0  0  0  0  0  0  0  0  0  0
  151.1917  140.4872  155.2852 O   0  0  0  0  0  0  0  0  0  0  0  0
  151.2730  138.9237  157.3408 N   0  0  0  0  0  0  0  0  0  0  0  0
  151.1007  140.1077  158.1830 C   0  0  0  0  0  0  0  0  0  0  0  0
  152.4392  140.8396  158.3841 C   0  0  2  0  0  0  0  0  0  0  0  0
  153.1710  140.1754  159.3976 O   0  0  0  0  0  0  0  0  0  0  0  0
  152.2122  142.3065  158.7247 C   0  0  0  0  0  0  0  0  0  0  0  0
  152.6354  142.8220  159.9691 C   0  0  0  0  0  0  0  0  0  0  0  0
  152.4247  144.1878  160.2397 C   0  0  0  0  0  0  0  0  0  0  0  0
  151.8022  144.9853  159.2608 C   0  0  0  0  0  0  0  0  0  0  0  0
  151.4166  144.3787  158.0491 C   0  0  0  0  0  0  0  0  0  0  0  0
  151.6149  143.0705  157.7798 N   0  0  0  0  0  0  0  0  0  0  0  0
  150.3605  134.4249  155.2970 H   0  0  0  0  0  0  0  0  0  0  0  0
  150.1715  135.3178  153.7902 H   0  0  0  0  0  0  0  0  0  0  0  0
  149.0729  135.6163  155.1377 H   0  0  0  0  0  0  0  0  0  0  0  0
  150.9776  136.5226  156.4940 H   0  0  0  0  0  0  0  0  0  0  0  0
  152.0831  136.2072  155.1787 H   0  0  0  0  0  0  0  0  0  0  0  0
  151.0135  137.9028  153.7621 H   0  0  0  0  0  0  0  0  0  0  0  0
  149.6910  138.1063  154.9087 H   0  0  0  0  0  0  0  0  0  0  0  0
  151.8990  138.2518  157.7836 H   0  0  0  0  0  0  0  0  0  0  0  0
  150.3968  140.7730  157.6809 H   0  0  0  0  0  0  0  0  0  0  0  0
  150.6505  139.8276  159.1364 H   0  0  0  0  0  0  0  0  0  0  0  0
  153.0252  140.7883  157.4652 H   0  0  0  0  0  0  0  0  0  0  0  0
  153.8993  140.7231  159.6473 H   0  0  0  0  0  0  0  0  0  0  0  0
  153.1154  142.1882  160.7004 H   0  0  0  0  0  0  0  0  0  0  0  0
  152.7370  144.6163  161.1805 H   0  0  0  0  0  0  0  0  0  0  0  0
  151.6258  146.0367  159.4335 H   0  0  0  0  0  0  0  0  0  0  0  0
  150.9377  144.9602  157.2753 H   0  0  0  0  0  0  0  0  0  0  0  0
  1  2  1  0  0  0  0
  1 17  1  0  0  0  0
  1 18  1  0  0  0  0
  1 19  1  0  0  0  0
  2  3  1  0  0  0  0
  2 20  1  0  0  0  0
  2 21  1  0  0  0  0
  3  4  1  0  0  0  0
  3 22  1  0  0  0  0
  3 23  1  0  0  0  0
  4  5  2  0  0  0  0
  4  6  2  0  0  0  0
  4  7  1  0  0  0  0
  7  8  1  0  0  0  0
  7 24  1  0  0  0  0
  8  9  1  0  0  0  0
  8 25  1  0  0  0  0
  8 26  1  0  0  0  0
  9 10  1  0  0  0  0
  9 11  1  0  0  0  0
  9 27  1  0  0  0  0
 10 28  1  0  0  0  0
 11 16  1  0  0  0  0
 11 12  2  0  0  0  0
 12 13  1  0  0  0  0
 12 29  1  0  0  0  0
 13 14  2  0  0  0  0
 13 30  1  0  0  0  0
 14 15  1  0  0  0  0
 14 31  1  0  0  0  0
 15 16  2  0  0  0  0
 15 32  1  0  0  0  0
M  END
> <s_m_source_file>
AV-unprocessed.smi

> <i_m_source_file_index>
3034

> <i_lp_mmshare_version>
43012

> <i_f3d_flags>
0

> <s_epik_input>
W0NIM11bQ0gyXVtDSDJdUyg9TykoPU8pW05IXVtDSDJdW0NASF0oW09IXSljMVtjSF1bY0hdW2NIXVtjSF1uMQ==

> <s_epik_cmdline>
J2VwaWtfcHl0aG9uJywgJy1waCcsICc3LjAnLCAnLXRuJywgJzgnLCAnLW1hJywgJzIwMCcsICctbWV0YWxfYmluZGluZycsICctaW1hZScsICc8aW5maWxlLm1hZT4nLCAnLW9tYWUnLCAnPG91dGZpbGUubWFlPic=

> <r_epik_Ionization_Penalty>
0.00187371

> <r_epik_Ionization_Penalty_Charging>
0

> <r_epik_Ionization_Penalty_Neutral>
0.00187371

> <r_epik_State_Penalty>
0.0012608

> <r_epik_Charging_Adjusted_Penalty>
0.0012608

> <i_epik_Tot_Q>
0

> <i_epik_Tot_abs_Q>
0

> <r_epik_Metal_State_Penalty>
0.0168387

> <b_epik_Metal_Only>
0

> <s_lp_Force_Field>
OPLS_2005

> <r_lp_Energy>
4.86563

> <b_lp_Chiralities_Consistent>
1

> <s_lp_Variant>
AV-unprocessed.smi:3034-1

> <Gold.Version>
5.8.1

> <Gold.Id.Protein>
6NUR|6NUR_protein|mol2

> <Gold.PLP.Fitness>
41.4412

> <Gold.PLP.PLP>
-33.9830

> <Gold.PLP.part.hbond>
-2.0000

> <Gold.PLP.part.metal>
0.0000

> <Gold.PLP.part.buried>
-5.2057

> <Gold.PLP.part.nonpolar>
-27.0797

> <Gold.PLP.part.repulsive>
0.1125

> <Gold.PLP.ligand.clash>
0.0000

> <Gold.PLP.ligand.torsion>
0.8266

> <Gold.PLP.Chemscore.Hbond>
1.9760

> <Gold.PLP.Chemscore.CHOScore>
1.0000

> <Gold.PLP.Chemscore.Metal>
0.0000

> <Gold.Chemscore.Hbonds>
donor molecule, donor type, donor heavy atom, donor atom, acceptor molecule, acceptor atom, score
      P1  H  7989  7998       L1     6  0.94
      P1  H  7997  8008       L1     5  1.00
      L1  C    15    32       P1  8028  0.89

> <Gold.PLP.Chemscore.Internal.Correction>
0.1835

> <Gold.Rescore>
     Score         DG    S(hbond)    S(metal)    S(lipo)     H(rot)  DE(clash)    DE(int)     intcor
     14.50     -15.25       1.89        0.00      86.94       2.63       0.05       0.70       ----

> <Gold.Chemscore.Fitness>
14.4992

> <Gold.Chemscore.DG>
-15.2498

> <Gold.Chemscore.ZeroCoef>
-5.4800

> <Gold.Chemscore.Hbond>
1.8934

> <Gold.Chemscore.Metal>
0.0000

> <Gold.Chemscore.Lipo>
86.9430

> <Gold.Chemscore.Internal_Hbond>
0.0000

> <Gold.Chemscore.DEClash>
0.0465

> <Gold.Chemscore.DEInternal>
0.7040

> <Gold.Chemscore.Rot>
2.6275

> <Gold.Chemscore.Internal.Correction>
   9.000000E+99

> <Gold.Chemscore.Hbonds>
donor molecule, donor type, donor heavy atom, donor atom, acceptor molecule, acceptor atom, score
      P1  H  7989  7998       L1     6  0.75
      P1  H  7997  8008       L1     5  0.91

> <Gold.Chemscore.Hbond.Weighted>
-6.3240

> <Gold.Chemscore.Metal.Weighted>
-0.0000

> <Gold.Chemscore.Lipo.Weighted>
-10.1723

> <Gold.Chemscore.Internal_Hbond.Weighted>
0.0000

> <Gold.Chemscore.DEClash.Weighted>
0.0465

> <Gold.Chemscore.DEInternal.Weighted>
0.7040

> <Gold.Chemscore.Rot.Weighted>
6.7265

> <Gold.Chemscore.Internal.Correction.Weighted>
   9.000000E+99

> <Gold.Protein.RotatedTorsions>
[ 6907 6896 6895 6894 ] final  -17.52 input  -60.11 | X-H torsion
[ 7974 7965 7964 7962 ] final  -34.96 input  175.53 | X-H torsion
[ 8008 7997 7996 7995 ] final  -42.13 input   59.86 | X-H torsion
[ 10167 10162 10161 10158 ] final   32.96 input  -65.29 | X-H torsion
[ 10718 10713 10712 10709 ] final  -26.34 input   66.30 | X-H torsion
[ 10763 10752 10751 10750 ] final  -22.13 input  -60.55 | X-H torsion
[ 11005 11000 10999 10996 ] final  -14.90 input  -57.11 | X-H torsion

> <Gold.Protein.ActiveResidues>
 VAL166  LYS551  ARG553  GLY616  TRP617  ASP618  TYR619  PRO620  LYS621  CYS622 
 ASP623  PHE694  ASN695  SER759  ASP760  ASP761  ALA762  ILE779  LEU786  VAL792 
 PHE793  MET794  SER795  GLU796  ALA797  LYS798  CYS799  TRP800  GLU811  SER814 

> <Gold.Protein.RotatedAtoms>
  151.2920  135.0744  159.9207 H   0  0  0  0  0  0  0  0  0  0  0  0  # atno 6907 bound_to 6896
  152.5314  133.9921  159.7866 H   0  0  0  0  0  0  0  0  0  0  0  0  # atno 6908 bound_to 6896
  151.0193  133.5840  159.2704 H   0  0  0  0  0  0  0  0  0  0  0  0  # atno 6909 bound_to 6896
  146.0786  140.6101  142.8919 H   0  0  0  0  0  0  0  0  0  0  0  0  # atno 7974 bound_to 7965
  154.4000  140.1481  156.3305 H   0  0  0  0  0  0  0  0  0  0  0  0  # atno 8008 bound_to 7997
  155.8448  140.3460  155.5634 H   0  0  0  0  0  0  0  0  0  0  0  0  # atno 8009 bound_to 7997
  155.8048  140.0875  157.1927 H   0  0  0  0  0  0  0  0  0  0  0  0  # atno 8010 bound_to 7997
  140.4451  144.1131  150.6181 H   0  0  0  0  0  0  0  0  0  0  0  0  # atno 10167 bound_to 10162
  156.4525  130.4487  149.6981 H   0  0  0  0  0  0  0  0  0  0  0  0  # atno 10718 bound_to 10713
  153.6470  135.6982  153.5222 H   0  0  0  0  0  0  0  0  0  0  0  0  # atno 10763 bound_to 10752
  153.2737  135.4207  155.1011 H   0  0  0  0  0  0  0  0  0  0  0  0  # atno 10764 bound_to 10752
  154.8486  135.3584  154.6015 H   0  0  0  0  0  0  0  0  0  0  0  0  # atno 10765 bound_to 10752
  140.7912  133.8286  155.9381 H   0  0  0  0  0  0  0  0  0  0  0  0  # atno 11005 bound_to 11000
  144.7278  140.4579  143.6960 LP  0  0  0  0  0  0  0  0  0  0  0  0  # atno 17320 bound_to 7965
  145.6259  139.1530  143.2996 LP  0  0  0  0  0  0  0  0  0  0  0  0  # atno 17321 bound_to 7965
  140.4273  143.2584  151.9640 LP  0  0  0  0  0  0  0  0  0  0  0  0  # atno 17342 bound_to 10162
  139.4792  144.5776  151.7986 LP  0  0  0  0  0  0  0  0  0  0  0  0  # atno 17343 bound_to 10162
  156.3802  130.7575  151.2567 LP  0  0  0  0  0  0  0  0  0  0  0  0  # atno 17370 bound_to 10713
  157.7502  131.0298  150.4108 LP  0  0  0  0  0  0  0  0  0  0  0  0  # atno 17371 bound_to 10713
  140.9388  134.1928  157.4813 LP  0  0  0  0  0  0  0  0  0  0  0  0  # atno 17394 bound_to 11000
  139.8731  134.9863  156.5319 LP  0  0  0  0  0  0  0  0  0  0  0  0  # atno 17395 bound_to 11000

$$$$
