AV-unprocessed.smi:66|AV-procd|sdf|624|dock9
  -GOLD-   2262016513D 1   1.00000     0.00000
 Structure written by MMmdl.
 28 30  0  0  0  0  0  0  0  0  2 V2000
  149.7415  137.5780  156.4263 O   0  0  0  0  0  0  0  0  0  0  0  0
  150.5201  138.3047  157.0814 C   0  0  0  0  0  0  0  0  0  0  0  0
  150.7676  138.1828  158.3018 O   0  5  0  0  0  0  0  0  0  0  0  0
  151.2188  139.4363  156.3093 C   0  0  1  0  0  0  0  0  0  0  0  0
  150.7906  139.4673  154.8312 C   0  0  0  0  0  0  0  0  0  0  0  0
  149.6747  140.5115  154.7997 C   0  0  2  0  0  0  0  0  0  0  0  0
  149.5024  141.0837  153.5201 O   0  0  0  0  0  0  0  0  0  0  0  0
  150.1390  141.5329  155.8385 C   0  0  0  0  0  0  0  0  0  0  0  0
  150.8606  140.7533  156.8378 N   0  0  0  0  0  0  0  0  0  0  0  0
  151.5763  141.3962  157.8726 C   0  0  0  0  0  0  0  0  0  0  0  0
  152.3969  140.6449  158.6466 N   0  0  0  0  0  0  0  0  0  0  0  0
  153.0750  141.2459  159.6324 C   0  0  0  0  0  0  0  0  0  0  0  0
  153.0739  142.5370  159.9952 N   0  0  0  0  0  0  0  0  0  0  0  0
  152.2746  143.3005  159.2389 C   0  0  0  0  0  0  0  0  0  0  0  0
  152.0852  144.6682  159.3834 N   0  0  0  0  0  0  0  0  0  0  0  0
  151.2245  144.9311  158.4021 C   0  0  0  0  0  0  0  0  0  0  0  0
  150.8397  143.8870  157.6516 N   0  0  0  0  0  0  0  0  0  0  0  0
  151.4997  142.7786  158.1584 C   0  0  0  0  0  0  0  0  0  0  0  0
  150.2086  143.9303  156.8622 H   0  0  0  0  0  0  0  0  0  0  0  0
  152.2979  139.2878  156.3584 H   0  0  0  0  0  0  0  0  0  0  0  0
  151.6328  139.8003  154.2227 H   0  0  0  0  0  0  0  0  0  0  0  0
  150.4705  138.4990  154.4432 H   0  0  0  0  0  0  0  0  0  0  0  0
  148.7364  140.0574  155.1209 H   0  0  0  0  0  0  0  0  0  0  0  0
  149.4065  140.3847  152.8920 H   0  0  0  0  0  0  0  0  0  0  0  0
  150.8193  142.2597  155.3907 H   0  0  0  0  0  0  0  0  0  0  0  0
  149.2968  142.0713  156.2748 H   0  0  0  0  0  0  0  0  0  0  0  0
  153.7111  140.5994  160.2185 H   0  0  0  0  0  0  0  0  0  0  0  0
  150.8590  145.9305  158.2166 H   0  0  0  0  0  0  0  0  0  0  0  0
  1  2  2  0  0  0  0
  2  3  1  0  0  0  0
  2  4  1  0  0  0  0
  4  9  1  0  0  0  0
  4  5  1  0  0  0  0
  4 20  1  0  0  0  0
  5  6  1  0  0  0  0
  5 21  1  0  0  0  0
  5 22  1  0  0  0  0
  6  7  1  0  0  0  0
  6  8  1  0  0  0  0
  6 23  1  0  0  0  0
  7 24  1  0  0  0  0
  8  9  1  0  0  0  0
  8 25  1  0  0  0  0
  8 26  1  0  0  0  0
  9 10  1  0  0  0  0
 10 18  1  0  0  0  0
 10 11  2  0  0  0  0
 11 12  1  0  0  0  0
 12 13  2  0  0  0  0
 12 27  1  0  0  0  0
 13 14  1  0  0  0  0
 14 18  2  0  0  0  0
 14 15  1  0  0  0  0
 15 16  2  0  0  0  0
 16 17  1  0  0  0  0
 16 28  1  0  0  0  0
 17 19  1  0  0  0  0
 17 18  1  0  0  0  0
M  CHG  1   3  -1
M  END
> <s_m_source_file>
AV-unprocessed.smi

> <i_m_source_file_index>
66

> <i_lp_mmshare_version>
43012

> <i_f3d_flags>
0

> <s_epik_input>
Tz1DKFtPSF0pW0NAQEhdMVtDSDJdW0NAQEhdKFtPSF0pW0NIMl1OMWMobltjSF1uMiljKGMyMylbbkhdW2NIXW4z

> <s_epik_cmdline>
J2VwaWtfcHl0aG9uJywgJy1waCcsICc3LjAnLCAnLXRuJywgJzgnLCAnLW1hJywgJzIwMCcsICctbWV0YWxfYmluZGluZycsICctaW1hZScsICc8aW5maWxlLm1hZT4nLCAnLW9tYWUnLCAnPG91dGZpbGUubWFlPic=

> <r_lp_tautomer_probability>
0.0419193

> <r_epik_Ionization_Penalty>
0.0157405

> <r_epik_Ionization_Penalty_Charging>
0.000248217

> <r_epik_Ionization_Penalty_Neutral>
0.0154923

> <r_epik_State_Penalty>
1.99742

> <r_epik_Charging_Adjusted_Penalty>
1.99767

> <i_epik_Tot_Q>
-1

> <i_epik_Tot_abs_Q>
1

> <r_epik_Metal_State_Penalty>
2.31035

> <b_epik_Metal_Only>
0

> <s_lp_Force_Field>
OPLS_2005

> <r_lp_Energy>
19.7313

> <b_lp_Chiralities_Consistent>
1

> <s_lp_Variant>
AV-unprocessed.smi:66-8

> <Gold.Version>
5.8.1

> <Gold.Id.Protein>
6NUR|6NUR_protein|mol2

> <Gold.PLP.Fitness>
41.7445

> <Gold.PLP.PLP>
-33.3803

> <Gold.PLP.part.hbond>
-4.0000

> <Gold.PLP.part.metal>
0.0000

> <Gold.PLP.part.buried>
-6.1349

> <Gold.PLP.part.nonpolar>
-23.3922

> <Gold.PLP.part.repulsive>
0.0361

> <Gold.PLP.ligand.clash>
0.0000

> <Gold.PLP.ligand.torsion>
0.0976

> <Gold.PLP.Chemscore.Hbond>
2.7923

> <Gold.PLP.Chemscore.CHOScore>
0.0000

> <Gold.PLP.Chemscore.Metal>
0.0000

> <Gold.Chemscore.Hbonds>
donor molecule, donor type, donor heavy atom, donor atom, acceptor molecule, acceptor atom, score
      L1  H     7    24       P1  7957  0.82
      L1  H    17    19       P1  8028  1.00
      P1  H  7989  7998       L1     7  0.02
      P1  H  8011  8017       L1     7  0.85

> <Gold.PLP.Chemscore.Internal.Correction>
0.1824

> <Gold.Rescore>
     Score         DG    S(hbond)    S(metal)    S(lipo)     H(rot)  DE(clash)    DE(int)     intcor
     12.70     -12.86       2.27        0.00      37.36       1.78       0.04       0.12       ----

> <Gold.Chemscore.Fitness>
12.7046

> <Gold.Chemscore.DG>
-12.8649

> <Gold.Chemscore.ZeroCoef>
-5.4800

> <Gold.Chemscore.Hbond>
2.2697

> <Gold.Chemscore.Metal>
0.0000

> <Gold.Chemscore.Lipo>
37.3646

> <Gold.Chemscore.Internal_Hbond>
0.0000

> <Gold.Chemscore.DEClash>
0.0402

> <Gold.Chemscore.DEInternal>
0.1201

> <Gold.Chemscore.Rot>
1.7842

> <Gold.Chemscore.Internal.Correction>
   9.000000E+99

> <Gold.Chemscore.Hbonds>
donor molecule, donor type, donor heavy atom, donor atom, acceptor molecule, acceptor atom, score
      L1  H     7    24       P1  7957  0.81
      L1  H    17    19       P1  8028  0.97
      P1  H  8011  8017       L1     7  0.14

> <Gold.Chemscore.Hbond.Weighted>
-7.5809

> <Gold.Chemscore.Metal.Weighted>
-0.0000

> <Gold.Chemscore.Lipo.Weighted>
-4.3717

> <Gold.Chemscore.Internal_Hbond.Weighted>
0.0000

> <Gold.Chemscore.DEClash.Weighted>
0.0402

> <Gold.Chemscore.DEInternal.Weighted>
0.1201

> <Gold.Chemscore.Rot.Weighted>
4.5676

> <Gold.Chemscore.Internal.Correction.Weighted>
   9.000000E+99

> <Gold.Protein.RotatedTorsions>
[ 6907 6896 6895 6894 ] final   94.76 input  -60.11 | X-H torsion
[ 7974 7965 7964 7962 ] final  127.16 input  175.53 | X-H torsion
[ 8008 7997 7996 7995 ] final  -78.75 input   59.86 | X-H torsion
[ 10167 10162 10161 10158 ] final   31.01 input  -65.29 | X-H torsion
[ 10718 10713 10712 10709 ] final  -37.41 input   66.30 | X-H torsion
[ 10763 10752 10751 10750 ] final  164.22 input  -60.55 | X-H torsion
[ 11005 11000 10999 10996 ] final  101.39 input  -57.11 | X-H torsion

> <Gold.Protein.ActiveResidues>
 VAL166  LYS551  ARG553  GLY616  TRP617  ASP618  TYR619  PRO620  LYS621  CYS622 
 ASP623  PHE694  ASN695  SER759  ASP760  ASP761  ALA762  ILE779  LEU786  VAL792 
 PHE793  MET794  SER795  GLU796  ALA797  LYS798  CYS799  TRP800  GLU811  SER814 

> <Gold.Protein.RotatedAtoms>
  152.5448  134.1145  159.8372 H   0  0  0  0  0  0  0  0  0  0  0  0  # atno 6907 bound_to 6896
  151.1207  133.5099  159.2609 H   0  0  0  0  0  0  0  0  0  0  0  0  # atno 6908 bound_to 6896
  151.1782  135.0358  159.8835 H   0  0  0  0  0  0  0  0  0  0  0  0  # atno 6909 bound_to 6896
  145.0537  139.3862  143.5041 H   0  0  0  0  0  0  0  0  0  0  0  0  # atno 7974 bound_to 7965
  154.5719  140.0689  156.8977 H   0  0  0  0  0  0  0  0  0  0  0  0  # atno 8008 bound_to 7997
  155.2619  140.3359  155.4254 H   0  0  0  0  0  0  0  0  0  0  0  0  # atno 8009 bound_to 7997
  156.2125  140.1765  156.7649 H   0  0  0  0  0  0  0  0  0  0  0  0  # atno 8010 bound_to 7997
  140.4627  144.0882  150.6217 H   0  0  0  0  0  0  0  0  0  0  0  0  # atno 10167 bound_to 10162
  156.3155  130.4258  149.8009 H   0  0  0  0  0  0  0  0  0  0  0  0  # atno 10718 bound_to 10713
  154.3056  135.2758  155.2590 H   0  0  0  0  0  0  0  0  0  0  0  0  # atno 10763 bound_to 10752
  154.5008  135.5809  153.6533 H   0  0  0  0  0  0  0  0  0  0  0  0  # atno 10764 bound_to 10752
  152.9894  135.6157  154.3230 H   0  0  0  0  0  0  0  0  0  0  0  0  # atno 10765 bound_to 10752
  139.8773  134.9181  156.4899 H   0  0  0  0  0  0  0  0  0  0  0  0  # atno 11005 bound_to 11000
  146.3520  140.0200  142.8659 LP  0  0  0  0  0  0  0  0  0  0  0  0  # atno 17320 bound_to 7965
  145.1495  140.9615  143.4441 LP  0  0  0  0  0  0  0  0  0  0  0  0  # atno 17321 bound_to 7965
  140.4074  143.2674  151.9875 LP  0  0  0  0  0  0  0  0  0  0  0  0  # atno 17342 bound_to 10162
  139.4808  144.5945  151.7713 LP  0  0  0  0  0  0  0  0  0  0  0  0  # atno 17343 bound_to 10162
  156.5336  130.8269  151.3245 LP  0  0  0  0  0  0  0  0  0  0  0  0  # atno 17370 bound_to 10713
  157.7400  130.9843  150.2353 LP  0  0  0  0  0  0  0  0  0  0  0  0  # atno 17371 bound_to 10713
  140.8666  133.8020  155.9320 LP  0  0  0  0  0  0  0  0  0  0  0  0  # atno 17394 bound_to 11000
  140.8996  134.2395  157.5049 LP  0  0  0  0  0  0  0  0  0  0  0  0  # atno 17395 bound_to 11000

$$$$
