AV-unprocessed.smi:1440|AV-procd|sdf|5873|dock8
  -GOLD-   22720 5553D 1   1.00000     0.00000
 Structure written by MMmdl.
 41 42  0  0  0  0  0  0  0  0  1 V2000
  151.8958  145.7420  159.9698 C   0  0  0  0  0  0  0  0  0  0  0  0
  151.7139  144.2206  159.8774 C   0  0  2  0  0  0  0  0  0  0  0  0
  153.0689  143.4886  159.8690 C   0  0  0  0  0  0  0  0  0  0  0  0
  152.8874  141.9649  159.7821 C   0  0  0  0  0  0  0  0  0  0  0  0
  152.0503  141.5625  158.5499 C   0  0  1  0  0  0  0  0  0  0  0  0
  151.8131  140.1219  158.5324 N   0  0  0  0  0  0  0  0  0  0  0  0
  152.0250  139.3102  157.4854 C   0  0  0  0  0  0  0  0  0  0  0  0
  152.4600  139.7062  156.4028 O   0  0  0  0  0  0  0  0  0  0  0  0
  151.7068  137.8275  157.7177 C   0  0  0  0  0  0  0  0  0  0  0  0
  150.2935  137.5754  157.9879 N   0  0  0  0  0  0  0  0  0  0  0  0
  149.7886  137.1582  159.1600 C   0  0  0  0  0  0  0  0  0  0  0  0
  150.4786  136.9211  160.1510 O   0  0  0  0  0  0  0  0  0  0  0  0
  148.2705  136.9876  159.2263 C   0  0  0  0  0  0  0  0  0  0  0  0
  147.8576  136.4472  160.5085 N   0  0  0  0  0  0  0  0  0  0  0  0
  147.5845  135.1932  160.8740 C   0  0  0  0  0  0  0  0  0  0  0  0
  147.2288  135.0716  162.1454 N   0  0  0  0  0  0  0  0  0  0  0  0
  147.3089  136.3802  162.5311 C   0  0  0  0  0  0  0  0  0  0  0  0
  147.6817  137.2457  161.5882 N   0  0  0  0  0  0  0  0  0  0  0  0
  150.7000  142.3028  158.5460 C   0  0  0  0  0  0  0  0  0  0  0  0
  150.8873  143.8257  158.6391 C   0  0  0  0  0  0  0  0  0  0  0  0
  152.4417  146.1292  159.1091 H   0  0  0  0  0  0  0  0  0  0  0  0
  152.4502  146.0174  160.8675 H   0  0  0  0  0  0  0  0  0  0  0  0
  150.9320  146.2503  160.0093 H   0  0  0  0  0  0  0  0  0  0  0  0
  151.1649  143.9018  160.7649 H   0  0  0  0  0  0  0  0  0  0  0  0
  153.6685  143.8312  159.0244 H   0  0  0  0  0  0  0  0  0  0  0  0
  153.6333  143.7371  160.7683 H   0  0  0  0  0  0  0  0  0  0  0  0
  153.8665  141.4858  159.7480 H   0  0  0  0  0  0  0  0  0  0  0  0
  152.4018  141.6073  160.6913 H   0  0  0  0  0  0  0  0  0  0  0  0
  152.5947  141.8416  157.6456 H   0  0  0  0  0  0  0  0  0  0  0  0
  151.4574  139.7109  159.3832 H   0  0  0  0  0  0  0  0  0  0  0  0
  151.9865  137.2676  156.8249 H   0  0  0  0  0  0  0  0  0  0  0  0
  152.3223  137.4431  158.5331 H   0  0  0  0  0  0  0  0  0  0  0  0
  149.6486  137.7471  157.2300 H   0  0  0  0  0  0  0  0  0  0  0  0
  147.7804  137.9510  159.0790 H   0  0  0  0  0  0  0  0  0  0  0  0
  147.9314  136.3284  158.4254 H   0  0  0  0  0  0  0  0  0  0  0  0
  147.6448  134.3544  160.1959 H   0  0  0  0  0  0  0  0  0  0  0  0
  147.0856  136.7048  163.5368 H   0  0  0  0  0  0  0  0  0  0  0  0
  150.1422  142.0577  157.6413 H   0  0  0  0  0  0  0  0  0  0  0  0
  150.0906  141.9647  159.3855 H   0  0  0  0  0  0  0  0  0  0  0  0
  149.9113  144.3110  158.6727 H   0  0  0  0  0  0  0  0  0  0  0  0
  151.3803  144.1867  157.7355 H   0  0  0  0  0  0  0  0  0  0  0  0
  1  2  1  0  0  0  0
  1 21  1  0  0  0  0
  1 22  1  0  0  0  0
  1 23  1  0  0  0  0
  2 20  1  0  0  0  0
  2  3  1  0  0  0  0
  2 24  1  0  0  0  0
  3  4  1  0  0  0  0
  3 25  1  0  0  0  0
  3 26  1  0  0  0  0
  4  5  1  0  0  0  0
  4 27  1  0  0  0  0
  4 28  1  0  0  0  0
  5  6  1  0  0  0  0
  5 19  1  0  0  0  0
  5 29  1  0  0  0  0
  6  7  1  0  0  0  0
  6 30  1  0  0  0  0
  7  8  2  0  0  0  0
  7  9  1  0  0  0  0
  9 10  1  0  0  0  0
  9 31  1  0  0  0  0
  9 32  1  0  0  0  0
 10 11  1  0  0  0  0
 10 33  1  0  0  0  0
 11 12  2  0  0  0  0
 11 13  1  0  0  0  0
 13 14  1  0  0  0  0
 13 34  1  0  0  0  0
 13 35  1  0  0  0  0
 14 18  1  0  0  0  0
 14 15  1  0  0  0  0
 15 16  2  0  0  0  0
 15 36  1  0  0  0  0
 16 17  1  0  0  0  0
 17 18  2  0  0  0  0
 17 37  1  0  0  0  0
 19 20  1  0  0  0  0
 19 38  1  0  0  0  0
 19 39  1  0  0  0  0
 20 40  1  0  0  0  0
 20 41  1  0  0  0  0
M  END
> <s_m_source_file>
AV-unprocessed.smi

> <i_m_source_file_index>
1440

> <i_lp_mmshare_version>
43012

> <i_f3d_flags>
0

> <s_epik_input>
W0NIM11bQ0BASF0xW0NIMl1bQ0gyXVtDQEhdKFtDSDJdW0NIMl0xKVtOSF1DKD1PKVtDSDJdW05IXUMoPU8pW0NIMl1uMltjSF1uW2NIXW4y

> <s_epik_cmdline>
J2VwaWtfcHl0aG9uJywgJy1waCcsICc3LjAnLCAnLXRuJywgJzgnLCAnLW1hJywgJzIwMCcsICctbWV0YWxfYmluZGluZycsICctaW1hZScsICc8aW5maWxlLm1hZT4nLCAnLW9tYWUnLCAnPG91dGZpbGUubWFlPic=

> <r_lp_tautomer_probability>
1

> <r_epik_Ionization_Penalty>
7.34071e-06

> <r_epik_Ionization_Penalty_Charging>
0

> <r_epik_Ionization_Penalty_Neutral>
7.34071e-06

> <r_epik_State_Penalty>
-0

> <r_epik_Charging_Adjusted_Penalty>
0

> <i_epik_Tot_Q>
0

> <i_epik_Tot_abs_Q>
0

> <r_epik_Metal_State_Penalty>
-0

> <b_epik_Metal_Only>
0

> <s_lp_Force_Field>
OPLS_2005

> <r_lp_Energy>
7.17082

> <b_lp_Chiralities_Consistent>
1

> <s_lp_Variant>
AV-unprocessed.smi:1440-1

> <Gold.Version>
5.8.1

> <Gold.Id.Protein>
6NUR|6NUR_protein|mol2

> <Gold.PLP.Fitness>
49.9114

> <Gold.PLP.PLP>
-39.6449

> <Gold.PLP.part.hbond>
-4.6369

> <Gold.PLP.part.metal>
0.0000

> <Gold.PLP.part.buried>
-5.2051

> <Gold.PLP.part.nonpolar>
-29.8348

> <Gold.PLP.part.repulsive>
0.1931

> <Gold.PLP.ligand.clash>
0.0000

> <Gold.PLP.ligand.torsion>
0.5023

> <Gold.PLP.Chemscore.Hbond>
3.7520

> <Gold.PLP.Chemscore.CHOScore>
0.0000

> <Gold.PLP.Chemscore.Metal>
0.0000

> <Gold.Chemscore.Hbonds>
donor molecule, donor type, donor heavy atom, donor atom, acceptor molecule, acceptor atom, score
      P1  H  6896  6909       L1    12  1.00
      P1  H  6931  6943       L1    18  0.98
      P1  H  6934  6947       L1    18  0.74
      P1  H  7997  8009       L1     8  1.00

> <Gold.PLP.Chemscore.Internal.Correction>
0.0150

> <Gold.Rescore>
     Score         DG    S(hbond)    S(metal)    S(lipo)     H(rot)  DE(clash)    DE(int)     intcor
     18.75     -19.19       3.59        0.00      77.30       2.86       0.00       0.44       ----

> <Gold.Chemscore.Fitness>
18.7527

> <Gold.Chemscore.DG>
-19.1929

> <Gold.Chemscore.ZeroCoef>
-5.4800

> <Gold.Chemscore.Hbond>
3.5917

> <Gold.Chemscore.Metal>
0.0000

> <Gold.Chemscore.Lipo>
77.2965

> <Gold.Chemscore.Internal_Hbond>
0.0000

> <Gold.Chemscore.DEClash>
0.0009

> <Gold.Chemscore.DEInternal>
0.4393

> <Gold.Chemscore.Rot>
2.8621

> <Gold.Chemscore.Internal.Correction>
   9.000000E+99

> <Gold.Chemscore.Hbonds>
donor molecule, donor type, donor heavy atom, donor atom, acceptor molecule, acceptor atom, score
      P1  H  6896  6909       L1    12  0.28
      P1  H  6931  6943       L1    18  0.79
      P1  H  6934  6947       L1    18  0.48
      P1  H  7997  8009       L1     8  0.92

> <Gold.Chemscore.Hbond.Weighted>
-11.9962

> <Gold.Chemscore.Metal.Weighted>
-0.0000

> <Gold.Chemscore.Lipo.Weighted>
-9.0437

> <Gold.Chemscore.Internal_Hbond.Weighted>
0.0000

> <Gold.Chemscore.DEClash.Weighted>
0.0009

> <Gold.Chemscore.DEInternal.Weighted>
0.4393

> <Gold.Chemscore.Rot.Weighted>
7.3270

> <Gold.Chemscore.Internal.Correction.Weighted>
   9.000000E+99

> <Gold.Protein.RotatedTorsions>
[ 6907 6896 6895 6894 ] final   82.47 input  -60.11 | X-H torsion
[ 7974 7965 7964 7962 ] final   32.00 input  175.53 | X-H torsion
[ 8008 7997 7996 7995 ] final -163.55 input   59.86 | X-H torsion
[ 10167 10162 10161 10158 ] final    9.87 input  -65.29 | X-H torsion
[ 10718 10713 10712 10709 ] final  153.19 input   66.30 | X-H torsion
[ 10763 10752 10751 10750 ] final -142.22 input  -60.55 | X-H torsion
[ 11005 11000 10999 10996 ] final  -20.16 input  -57.11 | X-H torsion

> <Gold.Protein.ActiveResidues>
 VAL166  LYS551  ARG553  GLY616  TRP617  ASP618  TYR619  PRO620  LYS621  CYS622 
 ASP623  PHE694  ASN695  SER759  ASP760  ASP761  ALA762  ILE779  LEU786  VAL792 
 PHE793  MET794  SER795  GLU796  ALA797  LYS798  CYS799  TRP800  GLU811  SER814 

> <Gold.Protein.RotatedAtoms>
  152.5300  134.3045  159.9090 H   0  0  0  0  0  0  0  0  0  0  0  0  # atno 6907 bound_to 6896
  151.2995  133.4122  159.2646 H   0  0  0  0  0  0  0  0  0  0  0  0  # atno 6908 bound_to 6896
  151.0131  134.9428  159.8075 H   0  0  0  0  0  0  0  0  0  0  0  0  # atno 6909 bound_to 6896
  146.1515  139.6583  142.9096 H   0  0  0  0  0  0  0  0  0  0  0  0  # atno 7974 bound_to 7965
  155.8228  140.0922  157.1838 H   0  0  0  0  0  0  0  0  0  0  0  0  # atno 8008 bound_to 7997
  154.3979  140.1433  156.3581 H   0  0  0  0  0  0  0  0  0  0  0  0  # atno 8009 bound_to 7997
  155.8248  140.3445  155.5538 H   0  0  0  0  0  0  0  0  0  0  0  0  # atno 8010 bound_to 7997
  140.6229  143.8165  150.7197 H   0  0  0  0  0  0  0  0  0  0  0  0  # atno 10167 bound_to 10162
  157.2480  131.0773  151.1749 H   0  0  0  0  0  0  0  0  0  0  0  0  # atno 10718 bound_to 10713
  154.8517  135.3502  154.5994 H   0  0  0  0  0  0  0  0  0  0  0  0  # atno 10763 bound_to 10752
  153.6602  135.6990  153.5184 H   0  0  0  0  0  0  0  0  0  0  0  0  # atno 10764 bound_to 10752
  153.2823  135.4259  155.1048 H   0  0  0  0  0  0  0  0  0  0  0  0  # atno 10765 bound_to 10752
  140.8437  133.7907  155.9889 H   0  0  0  0  0  0  0  0  0  0  0  0  # atno 11005 bound_to 11000
  145.4813  141.0438  143.2644 LP  0  0  0  0  0  0  0  0  0  0  0  0  # atno 17320 bound_to 7965
  144.7909  139.6330  143.7113 LP  0  0  0  0  0  0  0  0  0  0  0  0  # atno 17321 bound_to 7965
  140.1759  143.4155  152.1968 LP  0  0  0  0  0  0  0  0  0  0  0  0  # atno 17342 bound_to 10162
  139.5454  144.7294  151.4600 LP  0  0  0  0  0  0  0  0  0  0  0  0  # atno 17343 bound_to 10162
  157.3309  130.6984  149.6324 LP  0  0  0  0  0  0  0  0  0  0  0  0  # atno 17370 bound_to 10713
  155.9667  130.4308  150.4891 LP  0  0  0  0  0  0  0  0  0  0  0  0  # atno 17371 bound_to 10713
  140.8867  134.2546  157.5116 LP  0  0  0  0  0  0  0  0  0  0  0  0  # atno 17394 bound_to 11000
  139.8703  134.9641  156.4485 LP  0  0  0  0  0  0  0  0  0  0  0  0  # atno 17395 bound_to 11000

$$$$
