AV-unprocessed.smi:252|AV-procd|sdf|1940|dock9
  -GOLD-   2262021 63D 1   1.00000     0.00000
 Structure written by MMmdl.
 56 59  0  0  0  0  0  0  0  0  1 V2000
  148.5680  127.6098  152.3758 C   0  0  0  0  0  0  0  0  0  0  0  0
  147.6784  128.0623  151.2084 C   0  0  0  0  0  0  0  0  0  0  0  0
  146.5934  129.0528  151.6403 C   0  0  0  0  0  0  0  0  0  0  0  0
  145.7067  128.6997  152.4177 O   0  0  0  0  0  0  0  0  0  0  0  0
  146.6795  130.2888  151.1192 N   0  0  0  0  0  0  0  0  0  0  0  0
  145.7886  131.4238  151.3654 C   0  0  2  0  0  0  0  0  0  0  0  0
  145.0350  131.8744  150.0967 C   0  0  0  0  0  0  0  0  0  0  0  0
  144.0853  133.0326  150.4357 C   0  0  0  0  0  0  0  0  0  0  0  0
  144.8454  134.1849  151.1127 C   0  0  0  0  0  0  0  0  0  0  0  0
  145.5777  133.7100  152.2871 N   0  0  0  0  0  0  0  0  0  0  0  0
  145.9644  134.6863  153.1469 C   0  0  0  0  0  0  0  0  0  0  0  0
  145.1755  135.7780  153.3356 N   0  0  0  0  0  0  0  0  0  0  0  0
  145.5415  136.7358  154.1928 C   0  0  0  0  0  0  0  0  0  0  0  0
  146.6377  136.8033  154.9505 N   0  0  0  0  0  0  0  0  0  0  0  0
  147.4376  135.7153  154.7607 C   0  0  0  0  0  0  0  0  0  0  0  0
  147.1813  134.6238  153.8832 C   0  0  0  0  0  0  0  0  0  0  0  0
  148.2304  133.7135  153.9426 N   0  0  0  0  0  0  0  0  0  0  0  0
  149.0521  134.2302  154.8144 C   0  0  0  0  0  0  0  0  0  0  0  0
  148.6493  135.4261  155.3643 N   0  0  0  0  0  0  0  0  0  0  0  0
  149.3617  136.2084  156.3624 C   0  0  0  0  0  0  0  0  0  0  0  0
  150.7265  136.7393  155.8630 C   0  0  1  0  0  0  0  0  0  0  0  0
  151.5912  135.6346  155.6514 O   0  0  0  0  0  0  0  0  0  0  0  0
  150.6461  137.5413  154.5724 C   0  0  0  0  0  0  0  0  0  0  0  0
  151.9030  138.3995  154.6379 C   0  0  0  0  0  0  0  0  0  0  0  0
  152.0541  138.7180  156.0153 O   0  0  0  0  0  0  0  0  0  0  0  0
  151.3703  137.7621  156.8250 C   0  0  2  0  0  0  0  0  0  0  0  0
  152.2997  137.1964  157.9107 C   0  0  0  0  0  0  0  0  0  0  0  0
  146.5126  132.6115  152.0352 C   0  0  0  0  0  0  0  0  0  0  0  0
  149.3459  126.9307  152.0264 H   0  0  0  0  0  0  0  0  0  0  0  0
  147.9925  127.0834  153.1380 H   0  0  0  0  0  0  0  0  0  0  0  0
  149.0605  128.4587  152.8515 H   0  0  0  0  0  0  0  0  0  0  0  0
  148.3011  128.5130  150.4344 H   0  0  0  0  0  0  0  0  0  0  0  0
  147.1953  127.1964  150.7554 H   0  0  0  0  0  0  0  0  0  0  0  0
  147.4465  130.4641  150.4863 H   0  0  0  0  0  0  0  0  0  0  0  0
  145.0446  131.0559  152.0733 H   0  0  0  0  0  0  0  0  0  0  0  0
  145.7350  132.2035  149.3283 H   0  0  0  0  0  0  0  0  0  0  0  0
  144.4716  131.0425  149.6728 H   0  0  0  0  0  0  0  0  0  0  0  0
  143.5935  133.3906  149.5310 H   0  0  0  0  0  0  0  0  0  0  0  0
  143.2953  132.6777  151.0991 H   0  0  0  0  0  0  0  0  0  0  0  0
  145.5580  134.6203  150.4109 H   0  0  0  0  0  0  0  0  0  0  0  0
  144.1423  134.9759  151.3711 H   0  0  0  0  0  0  0  0  0  0  0  0
  144.8562  137.5653  154.2871 H   0  0  0  0  0  0  0  0  0  0  0  0
  149.9786  133.7457  155.0872 H   0  0  0  0  0  0  0  0  0  0  0  0
  148.7186  137.0389  156.6566 H   0  0  0  0  0  0  0  0  0  0  0  0
  149.4961  135.5959  157.2550 H   0  0  0  0  0  0  0  0  0  0  0  0
  151.2576  134.8963  156.1379 H   0  0  0  0  0  0  0  0  0  0  0  0
  150.5932  136.9258  153.6733 H   0  0  0  0  0  0  0  0  0  0  0  0
  149.7690  138.1898  154.5869 H   0  0  0  0  0  0  0  0  0  0  0  0
  152.7731  137.8303  154.3083 H   0  0  0  0  0  0  0  0  0  0  0  0
  151.8321  139.2972  154.0237 H   0  0  0  0  0  0  0  0  0  0  0  0
  150.5748  138.3217  157.3194 H   0  0  0  0  0  0  0  0  0  0  0  0
  151.7815  136.4590  158.5245 H   0  0  0  0  0  0  0  0  0  0  0  0
  152.6484  137.9906  158.5709 H   0  0  0  0  0  0  0  0  0  0  0  0
  153.1809  136.7199  157.4805 H   0  0  0  0  0  0  0  0  0  0  0  0
  146.9580  132.2814  152.9749 H   0  0  0  0  0  0  0  0  0  0  0  0
  147.3230  132.9775  151.4040 H   0  0  0  0  0  0  0  0  0  0  0  0
  1  2  1  0  0  0  0
  1 29  1  0  0  0  0
  1 30  1  0  0  0  0
  1 31  1  0  0  0  0
  2  3  1  0  0  0  0
  2 32  1  0  0  0  0
  2 33  1  0  0  0  0
  3  4  2  0  0  0  0
  3  5  1  0  0  0  0
  5  6  1  0  0  0  0
  5 34  1  0  0  0  0
  6 28  1  0  0  0  0
  6  7  1  0  0  0  0
  6 35  1  0  0  0  0
  7  8  1  0  0  0  0
  7 36  1  0  0  0  0
  7 37  1  0  0  0  0
  8  9  1  0  0  0  0
  8 38  1  0  0  0  0
  8 39  1  0  0  0  0
  9 10  1  0  0  0  0
  9 40  1  0  0  0  0
  9 41  1  0  0  0  0
 10 11  1  0  0  0  0
 10 28  1  0  0  0  0
 11 16  1  0  0  0  0
 11 12  2  0  0  0  0
 12 13  1  0  0  0  0
 13 14  2  0  0  0  0
 13 42  1  0  0  0  0
 14 15  1  0  0  0  0
 15 19  1  0  0  0  0
 15 16  2  0  0  0  0
 16 17  1  0  0  0  0
 17 18  2  0  0  0  0
 18 19  1  0  0  0  0
 18 43  1  0  0  0  0
 19 20  1  0  0  0  0
 20 21  1  0  0  0  0
 20 44  1  0  0  0  0
 20 45  1  0  0  0  0
 21 26  1  0  0  0  0
 21 22  1  0  0  0  0
 21 23  1  0  0  0  0
 22 46  1  0  0  0  0
 23 24  1  0  0  0  0
 23 47  1  0  0  0  0
 23 48  1  0  0  0  0
 24 25  1  0  0  0  0
 24 49  1  0  0  0  0
 24 50  1  0  0  0  0
 25 26  1  0  0  0  0
 26 27  1  0  0  0  0
 26 51  1  0  0  0  0
 27 52  1  0  0  0  0
 27 53  1  0  0  0  0
 27 54  1  0  0  0  0
 28 55  1  0  0  0  0
 28 56  1  0  0  0  0
M  END
> <s_m_source_file>
AV-unprocessed.smi

> <i_m_source_file_index>
252

> <i_lp_mmshare_version>
43012

> <i_f3d_flags>
0

> <s_epik_input>
W0NIM11bQ0gyXUMoPU8pW05IXVtDQEBIXTFbQ0gyXVtDSDJdW0NIMl1OKFtDSDJdMSljKG5bY0hdbjIpYyhjMjMpbltjSF1uM1tDSDJdW0NAQF00KFtPSF0pW0NIMl1bQ0gyXU9bQ0BIXTRbQ0gzXQ==

> <s_epik_cmdline>
J2VwaWtfcHl0aG9uJywgJy1waCcsICc3LjAnLCAnLXRuJywgJzgnLCAnLW1hJywgJzIwMCcsICctbWV0YWxfYmluZGluZycsICctaW1hZScsICc8aW5maWxlLm1hZT4nLCAnLW9tYWUnLCAnPG91dGZpbGUubWFlPic=

> <r_lp_tautomer_probability>
1

> <r_epik_Ionization_Penalty>
0.00182575

> <r_epik_Ionization_Penalty_Charging>
0

> <r_epik_Ionization_Penalty_Neutral>
0.00182575

> <r_epik_State_Penalty>
0.00104524

> <r_epik_Charging_Adjusted_Penalty>
0.00104524

> <i_epik_Tot_Q>
0

> <i_epik_Tot_abs_Q>
0

> <r_epik_Metal_State_Penalty>
-0

> <b_epik_Metal_Only>
0

> <s_lp_Force_Field>
OPLS_2005

> <r_lp_Energy>
36.8902

> <b_lp_Chiralities_Consistent>
1

> <s_lp_Variant>
AV-unprocessed.smi:252-5

> <Gold.Version>
5.8.1

> <Gold.Id.Protein>
6NUR|6NUR_protein|mol2

> <Gold.PLP.Fitness>
44.5372

> <Gold.PLP.PLP>
-39.0154

> <Gold.PLP.part.hbond>
-2.0000

> <Gold.PLP.part.metal>
0.0000

> <Gold.PLP.part.buried>
-6.5495

> <Gold.PLP.part.nonpolar>
-31.3028

> <Gold.PLP.part.repulsive>
0.5570

> <Gold.PLP.ligand.clash>
0.0000

> <Gold.PLP.ligand.torsion>
0.4697

> <Gold.PLP.Chemscore.Hbond>
2.0000

> <Gold.PLP.Chemscore.CHOScore>
0.0000

> <Gold.PLP.Chemscore.Metal>
0.0000

> <Gold.Chemscore.Hbonds>
donor molecule, donor type, donor heavy atom, donor atom, acceptor molecule, acceptor atom, score
      L1  H     5    34       P1 10747  0.99
      P1  H 10752 10765       L1    22  1.00

> <Gold.PLP.Chemscore.Internal.Correction>
0.4611

> <Gold.Rescore>
     Score         DG    S(hbond)    S(metal)    S(lipo)     H(rot)  DE(clash)    DE(int)     intcor
     13.43     -15.46       1.94        0.00      88.97       2.70       0.01       2.03       ----

> <Gold.Chemscore.Fitness>
13.4263

> <Gold.Chemscore.DG>
-15.4623

> <Gold.Chemscore.ZeroCoef>
-5.4800

> <Gold.Chemscore.Hbond>
1.9445

> <Gold.Chemscore.Metal>
0.0000

> <Gold.Chemscore.Lipo>
88.9745

> <Gold.Chemscore.Internal_Hbond>
0.0000

> <Gold.Chemscore.DEClash>
0.0089

> <Gold.Chemscore.DEInternal>
2.0271

> <Gold.Chemscore.Rot>
2.7041

> <Gold.Chemscore.Internal.Correction>
   9.000000E+99

> <Gold.Chemscore.Hbonds>
donor molecule, donor type, donor heavy atom, donor atom, acceptor molecule, acceptor atom, score
      L1  H     5    34       P1 10747  0.92
      P1  H 10752 10765       L1    22  0.98

> <Gold.Chemscore.Hbond.Weighted>
-6.4948

> <Gold.Chemscore.Metal.Weighted>
-0.0000

> <Gold.Chemscore.Lipo.Weighted>
-10.4100

> <Gold.Chemscore.Internal_Hbond.Weighted>
0.0000

> <Gold.Chemscore.DEClash.Weighted>
0.0089

> <Gold.Chemscore.DEInternal.Weighted>
2.0271

> <Gold.Chemscore.Rot.Weighted>
6.9225

> <Gold.Chemscore.Internal.Correction.Weighted>
   9.000000E+99

> <Gold.Protein.RotatedTorsions>
[ 6907 6896 6895 6894 ] final  -52.48 input  -60.11 | X-H torsion
[ 7974 7965 7964 7962 ] final  -10.57 input  175.53 | X-H torsion
[ 8008 7997 7996 7995 ] final  -89.53 input   59.86 | X-H torsion
[ 10167 10162 10161 10158 ] final -136.94 input  -65.29 | X-H torsion
[ 10718 10713 10712 10709 ] final -101.28 input   66.30 | X-H torsion
[ 10763 10752 10751 10750 ] final -171.86 input  -60.55 | X-H torsion
[ 11005 11000 10999 10996 ] final   -6.77 input  -57.11 | X-H torsion

> <Gold.Protein.ActiveResidues>
 VAL166  LYS551  ARG553  GLY616  TRP617  ASP618  TYR619  PRO620  LYS621  CYS622 
 ASP623  PHE694  ASN695  SER759  ASP760  ASP761  ALA762  ILE779  LEU786  VAL792 
 PHE793  MET794  SER795  GLU796  ALA797  LYS798  CYS799  TRP800  GLU811  SER814 

> <Gold.Protein.RotatedAtoms>
  150.8514  134.7840  159.7011 H   0  0  0  0  0  0  0  0  0  0  0  0  # atno 6907 bound_to 6896
  152.4577  134.5250  159.9804 H   0  0  0  0  0  0  0  0  0  0  0  0  # atno 6908 bound_to 6896
  151.5371  133.3401  159.2964 H   0  0  0  0  0  0  0  0  0  0  0  0  # atno 6909 bound_to 6896
  146.2216  140.2784  142.8361 H   0  0  0  0  0  0  0  0  0  0  0  0  # atno 7974 bound_to 7965
  154.6877  140.0540  157.0332 H   0  0  0  0  0  0  0  0  0  0  0  0  # atno 8008 bound_to 7997
  155.0860  140.3214  155.4568 H   0  0  0  0  0  0  0  0  0  0  0  0  # atno 8009 bound_to 7997
  156.2717  140.2056  156.5988 H   0  0  0  0  0  0  0  0  0  0  0  0  # atno 8010 bound_to 7997
  139.8627  143.7056  152.2648 H   0  0  0  0  0  0  0  0  0  0  0  0  # atno 10167 bound_to 10162
  156.0189  130.5366  150.6940 H   0  0  0  0  0  0  0  0  0  0  0  0  # atno 10718 bound_to 10713
  154.6258  135.2880  155.0273 H   0  0  0  0  0  0  0  0  0  0  0  0  # atno 10763 bound_to 10752
  154.1452  135.6512  153.4955 H   0  0  0  0  0  0  0  0  0  0  0  0  # atno 10764 bound_to 10752
  153.0257  135.5342  154.7066 H   0  0  0  0  0  0  0  0  0  0  0  0  # atno 10765 bound_to 10752
  140.7056  133.8953  155.8714 H   0  0  0  0  0  0  0  0  0  0  0  0  # atno 11005 bound_to 11000
  144.9215  140.7874  143.5745 LP  0  0  0  0  0  0  0  0  0  0  0  0  # atno 17320 bound_to 7965
  145.2721  139.1950  143.4836 LP  0  0  0  0  0  0  0  0  0  0  0  0  # atno 17321 bound_to 7965
  139.7358  144.7571  151.0730 LP  0  0  0  0  0  0  0  0  0  0  0  0  # atno 17342 bound_to 10162
  140.7772  143.5032  150.9745 LP  0  0  0  0  0  0  0  0  0  0  0  0  # atno 17343 bound_to 10162
  157.4615  131.0883  151.0740 LP  0  0  0  0  0  0  0  0  0  0  0  0  # atno 17370 bound_to 10713
  157.1227  130.6068  149.5509 LP  0  0  0  0  0  0  0  0  0  0  0  0  # atno 17371 bound_to 10713
  141.0128  134.0997  157.4204 LP  0  0  0  0  0  0  0  0  0  0  0  0  # atno 17394 bound_to 11000
  139.8885  135.0098  156.6625 LP  0  0  0  0  0  0  0  0  0  0  0  0  # atno 17395 bound_to 11000

$$$$
