AV-unprocessed.smi:1590|AV-procd|sdf|6396|dock2
  -GOLD-   22720 7 33D 1   1.00000     0.00000
 Structure written by MMmdl.
 34 35  0  0  0  0  0  0  0  0  2 V2000
  147.5722  141.6820  155.5190 C   0  0  0  0  0  0  0  0  0  0  0  0
  148.6936  141.5131  154.4840 C   0  0  0  0  0  0  0  0  0  0  0  0
  148.2169  140.7928  153.2144 C   0  0  0  0  0  0  0  0  0  0  0  0
  149.9044  140.8604  155.0761 C   0  0  0  0  0  0  0  0  0  0  0  0
  150.5882  139.9016  154.4451 N   0  0  0  0  0  0  0  0  0  0  0  0
  151.6712  139.4534  155.1867 N   0  0  0  0  0  0  0  0  0  0  0  0
  151.8007  140.0832  156.3626 C   0  0  0  0  0  0  0  0  0  0  0  0
  152.7859  139.7948  157.2291 N   0  5  0  0  0  0  0  0  0  0  0  0
  152.6867  140.1867  158.5200 C   0  0  0  0  0  0  0  0  0  0  0  0
  152.4671  139.4583  159.4907 O   0  0  0  0  0  0  0  0  0  0  0  0
  152.8537  141.5036  158.6996 N   0  0  0  0  0  0  0  0  0  0  0  0
  152.7966  142.1887  159.9839 C   0  0  0  0  0  0  0  0  0  0  0  0
  151.9174  143.4297  159.8873 C   0  0  0  0  0  0  0  0  0  0  0  0
  152.3246  144.5761  158.9499 C   0  0  0  0  0  0  0  0  0  0  0  0
  151.7432  145.5576  159.9714 C   0  0  0  0  0  0  0  0  0  0  0  0
  151.9224  144.4618  161.0255 C   0  0  0  0  0  0  0  0  0  0  0  0
  150.5483  141.2887  156.6553 S   0  0  0  0  0  0  0  0  0  0  0  0
  147.9176  142.2562  156.3792 H   0  0  0  0  0  0  0  0  0  0  0  0
  147.2171  140.7174  155.8832 H   0  0  0  0  0  0  0  0  0  0  0  0
  146.7193  142.2092  155.0910 H   0  0  0  0  0  0  0  0  0  0  0  0
  148.9909  142.5178  154.1792 H   0  0  0  0  0  0  0  0  0  0  0  0
  149.0114  140.7465  152.4690 H   0  0  0  0  0  0  0  0  0  0  0  0
  147.3714  141.3122  152.7629 H   0  0  0  0  0  0  0  0  0  0  0  0
  147.9020  139.7712  153.4294 H   0  0  0  0  0  0  0  0  0  0  0  0
  153.0306  142.0696  157.8828 H   0  0  0  0  0  0  0  0  0  0  0  0
  152.4105  141.5040  160.7405 H   0  0  0  0  0  0  0  0  0  0  0  0
  153.8069  142.4637  160.2898 H   0  0  0  0  0  0  0  0  0  0  0  0
  150.8832  143.1541  159.6689 H   0  0  0  0  0  0  0  0  0  0  0  0
  153.4063  144.6727  158.8429 H   0  0  0  0  0  0  0  0  0  0  0  0
  151.8239  144.5734  157.9812 H   0  0  0  0  0  0  0  0  0  0  0  0
  152.3415  146.4540  160.1366 H   0  0  0  0  0  0  0  0  0  0  0  0
  150.6953  145.7957  159.7822 H   0  0  0  0  0  0  0  0  0  0  0  0
  151.0972  144.3657  161.7315 H   0  0  0  0  0  0  0  0  0  0  0  0
  152.8840  144.5229  161.5381 H   0  0  0  0  0  0  0  0  0  0  0  0
  1  2  1  0  0  0  0
  1 18  1  0  0  0  0
  1 19  1  0  0  0  0
  1 20  1  0  0  0  0
  2  3  1  0  0  0  0
  2  4  1  0  0  0  0
  2 21  1  0  0  0  0
  3 22  1  0  0  0  0
  3 23  1  0  0  0  0
  3 24  1  0  0  0  0
  4 17  1  0  0  0  0
  4  5  2  0  0  0  0
  5  6  1  0  0  0  0
  6  7  2  0  0  0  0
  7  8  1  0  0  0  0
  7 17  1  0  0  0  0
  8  9  1  0  0  0  0
  9 10  2  0  0  0  0
  9 11  1  0  0  0  0
 11 12  1  0  0  0  0
 11 25  1  0  0  0  0
 12 13  1  0  0  0  0
 12 26  1  0  0  0  0
 12 27  1  0  0  0  0
 13 16  1  0  0  0  0
 13 14  1  0  0  0  0
 13 28  1  0  0  0  0
 14 15  1  0  0  0  0
 14 29  1  0  0  0  0
 14 30  1  0  0  0  0
 15 16  1  0  0  0  0
 15 31  1  0  0  0  0
 15 32  1  0  0  0  0
 16 33  1  0  0  0  0
 16 34  1  0  0  0  0
M  CHG  1   8  -1
M  END
> <s_m_source_file>
AV-unprocessed.smi

> <i_m_source_file_index>
1590

> <i_lp_mmshare_version>
43012

> <i_f3d_flags>
0

> <s_epik_input>
W0NIM11bQ0hdKFtDSDNdKWMxbm5jKHMxKVtOSF1DKD1PKVtOSF1bQ0gyXVtDSF0yW0NIMl1bQ0gyXVtDSDJdMg==

> <s_epik_cmdline>
J2VwaWtfcHl0aG9uJywgJy1waCcsICc3LjAnLCAnLXRuJywgJzgnLCAnLW1hJywgJzIwMCcsICctbWV0YWxfYmluZGluZycsICctaW1hZScsICc8aW5maWxlLm1hZT4nLCAnLW9tYWUnLCAnPG91dGZpbGUubWFlPic=

> <r_lp_tautomer_probability>
1

> <r_epik_Ionization_Penalty>
4.56565

> <r_epik_Ionization_Penalty_Charging>
4.40687

> <r_epik_Ionization_Penalty_Neutral>
0.158778

> <r_epik_State_Penalty>
4.40652

> <r_epik_Charging_Adjusted_Penalty>
8.8134

> <i_epik_Tot_Q>
-1

> <i_epik_Tot_abs_Q>
1

> <r_epik_Metal_State_Penalty>
0.774635

> <b_epik_Metal_Only>
1

> <s_lp_Force_Field>
OPLS_2005

> <r_lp_Energy>
4.00522

> <b_lp_Chiralities_Consistent>
1

> <s_lp_Variant>
AV-unprocessed.smi:1590-2

> <Gold.Version>
5.8.1

> <Gold.Id.Protein>
6NUR|6NUR_protein|mol2

> <Gold.PLP.Fitness>
43.4455

> <Gold.PLP.PLP>
-37.9509

> <Gold.PLP.part.hbond>
-2.6760

> <Gold.PLP.part.metal>
0.0000

> <Gold.PLP.part.buried>
0.8357

> <Gold.PLP.part.nonpolar>
-35.8388

> <Gold.PLP.part.repulsive>
0.2186

> <Gold.PLP.ligand.clash>
0.0000

> <Gold.PLP.ligand.torsion>
1.1655

> <Gold.PLP.Chemscore.Hbond>
2.5500

> <Gold.PLP.Chemscore.CHOScore>
0.0000

> <Gold.PLP.Chemscore.Metal>
0.0000

> <Gold.Chemscore.Hbonds>
donor molecule, donor type, donor heavy atom, donor atom, acceptor molecule, acceptor atom, score
      P1  H  7989  7998       L1     5  0.55
      P1  H  7997  8008       L1     8  2.00

> <Gold.PLP.Chemscore.Internal.Correction>
0.1755

> <Gold.Rescore>
     Score         DG    S(hbond)    S(metal)    S(lipo)     H(rot)  DE(clash)    DE(int)     intcor
     13.51     -16.04       0.87        0.00      95.28       1.36       1.55       0.98       ----

> <Gold.Chemscore.Fitness>
13.5098

> <Gold.Chemscore.DG>
-16.0358

> <Gold.Chemscore.ZeroCoef>
-5.4800

> <Gold.Chemscore.Hbond>
0.8656

> <Gold.Chemscore.Metal>
0.0000

> <Gold.Chemscore.Lipo>
95.2764

> <Gold.Chemscore.Internal_Hbond>
0.0000

> <Gold.Chemscore.DEClash>
1.5474

> <Gold.Chemscore.DEInternal>
0.9785

> <Gold.Chemscore.Rot>
1.3604

> <Gold.Chemscore.Internal.Correction>
   9.000000E+99

> <Gold.Chemscore.Hbonds>
donor molecule, donor type, donor heavy atom, donor atom, acceptor molecule, acceptor atom, score
      P1  H  7989  7998       L1     5  0.01
      P1  H  7997  8008       L1     8  0.49

> <Gold.Chemscore.Hbond.Weighted>
-2.8910

> <Gold.Chemscore.Metal.Weighted>
-0.0000

> <Gold.Chemscore.Lipo.Weighted>
-11.1473

> <Gold.Chemscore.Internal_Hbond.Weighted>
0.0000

> <Gold.Chemscore.DEClash.Weighted>
1.5474

> <Gold.Chemscore.DEInternal.Weighted>
0.9785

> <Gold.Chemscore.Rot.Weighted>
3.4826

> <Gold.Chemscore.Internal.Correction.Weighted>
   9.000000E+99

> <Gold.Protein.RotatedTorsions>
[ 6907 6896 6895 6894 ] final  -12.08 input  -60.11 | X-H torsion
[ 7974 7965 7964 7962 ] final  -21.72 input  175.53 | X-H torsion
[ 8008 7997 7996 7995 ] final  -70.04 input   59.86 | X-H torsion
[ 10167 10162 10161 10158 ] final -176.97 input  -65.29 | X-H torsion
[ 10718 10713 10712 10709 ] final    3.69 input   66.30 | X-H torsion
[ 10763 10752 10751 10750 ] final  167.81 input  -60.55 | X-H torsion
[ 11005 11000 10999 10996 ] final  113.81 input  -57.11 | X-H torsion

> <Gold.Protein.ActiveResidues>
 VAL166  LYS551  ARG553  GLY616  TRP617  ASP618  TYR619  PRO620  LYS621  CYS622 
 ASP623  PHE694  ASN695  SER759  ASP760  ASP761  ALA762  ILE779  LEU786  VAL792 
 PHE793  MET794  SER795  GLU796  ALA797  LYS798  CYS799  TRP800  GLU811  SER814 

> <Gold.Protein.RotatedAtoms>
  151.3762  135.0931  159.9480 H   0  0  0  0  0  0  0  0  0  0  0  0  # atno 6907 bound_to 6896
  152.5121  133.9117  159.7501 H   0  0  0  0  0  0  0  0  0  0  0  0  # atno 6908 bound_to 6896
  150.9541  133.6462  159.2795 H   0  0  0  0  0  0  0  0  0  0  0  0  # atno 6909 bound_to 6896
  146.1717  140.4380  142.8530 H   0  0  0  0  0  0  0  0  0  0  0  0  # atno 7974 bound_to 7965
  154.4982  140.0842  156.7743 H   0  0  0  0  0  0  0  0  0  0  0  0  # atno 8008 bound_to 7997
  155.4065  140.3439  155.4242 H   0  0  0  0  0  0  0  0  0  0  0  0  # atno 8009 bound_to 7997
  156.1422  140.1533  156.8890 H   0  0  0  0  0  0  0  0  0  0  0  0  # atno 8010 bound_to 7997
  139.5503  144.2127  152.1064 H   0  0  0  0  0  0  0  0  0  0  0  0  # atno 10167 bound_to 10162
  156.8815  130.5655  149.5653 H   0  0  0  0  0  0  0  0  0  0  0  0  # atno 10718 bound_to 10713
  154.3593  135.2753  155.2329 H   0  0  0  0  0  0  0  0  0  0  0  0  # atno 10763 bound_to 10752
  154.4524  135.5927  153.6204 H   0  0  0  0  0  0  0  0  0  0  0  0  # atno 10764 bound_to 10752
  152.9844  135.6045  154.3811 H   0  0  0  0  0  0  0  0  0  0  0  0  # atno 10765 bound_to 10752
  139.8963  134.9557  156.6796 H   0  0  0  0  0  0  0  0  0  0  0  0  # atno 11005 bound_to 11000
  144.8173  140.6489  143.6376 LP  0  0  0  0  0  0  0  0  0  0  0  0  # atno 17320 bound_to 7965
  145.4323  139.1547  143.4015 LP  0  0  0  0  0  0  0  0  0  0  0  0  # atno 17321 bound_to 7965
  140.1621  144.5016  150.6626 LP  0  0  0  0  0  0  0  0  0  0  0  0  # atno 17342 bound_to 10162
  140.6763  143.2307  151.5498 LP  0  0  0  0  0  0  0  0  0  0  0  0  # atno 17343 bound_to 10162
  156.0675  130.5715  150.9317 LP  0  0  0  0  0  0  0  0  0  0  0  0  # atno 17370 bound_to 10713
  157.6137  131.0934  150.8748 LP  0  0  0  0  0  0  0  0  0  0  0  0  # atno 17371 bound_to 10713
  140.7309  133.9059  155.8211 LP  0  0  0  0  0  0  0  0  0  0  0  0  # atno 17394 bound_to 11000
  141.0153  134.0963  157.4178 LP  0  0  0  0  0  0  0  0  0  0  0  0  # atno 17395 bound_to 11000

$$$$
