AV-unprocessed.smi:2198|AV-procd|sdf|8921|dock5
  -GOLD-   2272012133D 1   1.00000     0.00000
 Structure written by MMmdl.
 42 43  0  0  0  0  0  0  0  0  2 V2000
  150.7296  134.5564  155.9797 C   0  0  0  0  0  0  0  0  0  0  0  0
  150.7151  136.0283  155.6259 C   0  0  0  0  0  0  0  0  0  0  0  0
  149.6029  136.5934  155.3461 N   0  0  0  0  0  0  0  0  0  0  0  0
  149.5842  137.9609  155.0235 C   0  0  0  0  0  0  0  0  0  0  0  0
  148.2185  138.5476  154.7106 C   0  0  0  0  0  0  0  0  0  0  0  0
  150.7323  138.6972  155.0004 C   0  0  0  0  0  0  0  0  0  0  0  0
  150.7637  140.1877  154.6647 C   0  0  0  0  0  0  0  0  0  0  0  0
  150.5240  141.1303  155.8451 C   0  0  0  0  0  0  0  0  0  0  0  0
  149.5232  141.8463  155.8701 O   0  0  0  0  0  0  0  0  0  0  0  0
  151.4492  141.1192  156.8172 N   0  0  0  0  0  0  0  0  0  0  0  0
  151.4094  141.9266  158.0319 C   0  0  2  0  0  0  0  0  0  0  0  0
  151.6243  143.4173  157.7014 C   0  0  0  0  0  0  0  0  0  0  0  0
  151.6611  144.2716  158.9773 C   0  0  0  0  0  0  0  0  0  0  0  0
  152.7306  143.7643  159.9572 C   0  0  0  0  0  0  0  0  0  0  0  0
  152.5210  142.2774  160.3025 C   0  0  2  0  0  0  0  0  0  0  0  0
  153.5932  141.7728  161.2787 C   0  0  0  0  0  0  0  0  0  0  0  0
  152.4810  141.4252  159.0187 C   0  0  0  0  0  0  0  0  0  0  0  0
  151.9940  138.0059  155.3220 C   0  0  0  0  0  0  0  0  0  0  0  0
  153.0609  138.6184  155.3038 O   0  0  0  0  0  0  0  0  0  0  0  0
  151.9278  136.6797  155.6321 N   0  5  0  0  0  0  0  0  0  0  0  0
  149.7644  134.0924  155.7717 H   0  0  0  0  0  0  0  0  0  0  0  0
  150.9516  134.4267  157.0392 H   0  0  0  0  0  0  0  0  0  0  0  0
  151.4900  134.0327  155.3995 H   0  0  0  0  0  0  0  0  0  0  0  0
  147.9846  139.3662  155.3912 H   0  0  0  0  0  0  0  0  0  0  0  0
  147.4340  137.7967  154.8118 H   0  0  0  0  0  0  0  0  0  0  0  0
  148.1897  138.9240  153.6882 H   0  0  0  0  0  0  0  0  0  0  0  0
  151.7277  140.4183  154.2103 H   0  0  0  0  0  0  0  0  0  0  0  0
  150.0368  140.4252  153.8878 H   0  0  0  0  0  0  0  0  0  0  0  0
  152.2362  140.4959  156.7105 H   0  0  0  0  0  0  0  0  0  0  0  0
  150.4326  141.8065  158.5048 H   0  0  0  0  0  0  0  0  0  0  0  0
  152.5595  143.5439  157.1541 H   0  0  0  0  0  0  0  0  0  0  0  0
  150.8310  143.7771  157.0452 H   0  0  0  0  0  0  0  0  0  0  0  0
  151.8562  145.3134  158.7211 H   0  0  0  0  0  0  0  0  0  0  0  0
  150.6830  144.2503  159.4595 H   0  0  0  0  0  0  0  0  0  0  0  0
  153.7198  143.9063  159.5197 H   0  0  0  0  0  0  0  0  0  0  0  0
  152.7064  144.3661  160.8662 H   0  0  0  0  0  0  0  0  0  0  0  0
  151.5543  142.1808  160.7991 H   0  0  0  0  0  0  0  0  0  0  0  0
  154.5907  141.8442  160.8438 H   0  0  0  0  0  0  0  0  0  0  0  0
  153.4210  140.7304  161.5479 H   0  0  0  0  0  0  0  0  0  0  0  0
  153.5895  142.3552  162.2006 H   0  0  0  0  0  0  0  0  0  0  0  0
  152.2842  140.3830  159.2744 H   0  0  0  0  0  0  0  0  0  0  0  0
  153.4606  141.4441  158.5381 H   0  0  0  0  0  0  0  0  0  0  0  0
  1  2  1  0  0  0  0
  1 21  1  0  0  0  0
  1 22  1  0  0  0  0
  1 23  1  0  0  0  0
  2 20  1  0  0  0  0
  2  3  2  0  0  0  0
  3  4  1  0  0  0  0
  4  5  1  0  0  0  0
  4  6  2  0  0  0  0
  5 24  1  0  0  0  0
  5 25  1  0  0  0  0
  5 26  1  0  0  0  0
  6  7  1  0  0  0  0
  6 18  1  0  0  0  0
  7  8  1  0  0  0  0
  7 27  1  0  0  0  0
  7 28  1  0  0  0  0
  8  9  2  0  0  0  0
  8 10  1  0  0  0  0
 10 11  1  0  0  0  0
 10 29  1  0  0  0  0
 11 17  1  0  0  0  0
 11 12  1  0  0  0  0
 11 30  1  0  0  0  0
 12 13  1  0  0  0  0
 12 31  1  0  0  0  0
 12 32  1  0  0  0  0
 13 14  1  0  0  0  0
 13 33  1  0  0  0  0
 13 34  1  0  0  0  0
 14 15  1  0  0  0  0
 14 35  1  0  0  0  0
 14 36  1  0  0  0  0
 15 16  1  0  0  0  0
 15 17  1  0  0  0  0
 15 37  1  0  0  0  0
 16 38  1  0  0  0  0
 16 39  1  0  0  0  0
 16 40  1  0  0  0  0
 17 41  1  0  0  0  0
 17 42  1  0  0  0  0
 18 19  2  0  0  0  0
 18 20  1  0  0  0  0
M  CHG  1  20  -1
M  END
> <s_m_source_file>
AV-unprocessed.smi

> <i_m_source_file_index>
2198

> <i_lp_mmshare_version>
43012

> <i_f3d_flags>
0

> <s_epik_input>
W0NIM11jMW5jKFtDSDNdKWMoYyg9TylbbkhdMSlbQ0gyXUMoPU8pW05IXVtDQEBIXTJbQ0gyXVtDSDJdW0NIMl1bQ0BASF0oW0NIM10pW0NIMl0y

> <s_epik_cmdline>
J2VwaWtfcHl0aG9uJywgJy1waCcsICc3LjAnLCAnLXRuJywgJzgnLCAnLW1hJywgJzIwMCcsICctbWV0YWxfYmluZGluZycsICctaW1hZScsICc8aW5maWxlLm1hZT4nLCAnLW9tYWUnLCAnPG91dGZpbGUubWFlPic=

> <r_lp_tautomer_probability>
0.839158

> <r_epik_Ionization_Penalty>
6.67193

> <r_epik_Ionization_Penalty_Charging>
7.66837e-08

> <r_epik_Ionization_Penalty_Neutral>
6.67193

> <r_epik_State_Penalty>
4.51643

> <r_epik_Charging_Adjusted_Penalty>
4.51643

> <i_epik_Tot_Q>
-1

> <i_epik_Tot_abs_Q>
1

> <r_epik_Metal_State_Penalty>
0.851582

> <b_epik_Metal_Only>
1

> <s_lp_Force_Field>
OPLS_2005

> <r_lp_Energy>
13.6631

> <b_lp_Chiralities_Consistent>
1

> <s_lp_Variant>
AV-unprocessed.smi:2198-11

> <Gold.Version>
5.8.1

> <Gold.Id.Protein>
6NUR|6NUR_protein|mol2

> <Gold.PLP.Fitness>
44.8333

> <Gold.PLP.PLP>
-37.4189

> <Gold.PLP.part.hbond>
-1.9253

> <Gold.PLP.part.metal>
0.0000

> <Gold.PLP.part.buried>
-2.8134

> <Gold.PLP.part.nonpolar>
-34.7764

> <Gold.PLP.part.repulsive>
1.2186

> <Gold.PLP.ligand.clash>
0.0000

> <Gold.PLP.ligand.torsion>
0.4890

> <Gold.PLP.Chemscore.Hbond>
2.7963

> <Gold.PLP.Chemscore.CHOScore>
0.0000

> <Gold.PLP.Chemscore.Metal>
0.0000

> <Gold.Chemscore.Hbonds>
donor molecule, donor type, donor heavy atom, donor atom, acceptor molecule, acceptor atom, score
      P1  H  7997  8009       L1    19  0.67
      P1  H 10752 10763       L1    20  2.00

> <Gold.PLP.Chemscore.Internal.Correction>
0.0036

> <Gold.Rescore>
     Score         DG    S(hbond)    S(metal)    S(lipo)     H(rot)  DE(clash)    DE(int)     intcor
     16.12     -16.59       1.15        0.00      93.65       1.45       0.01       0.46       ----

> <Gold.Chemscore.Fitness>
16.1181

> <Gold.Chemscore.DG>
-16.5885

> <Gold.Chemscore.ZeroCoef>
-5.4800

> <Gold.Chemscore.Hbond>
1.1530

> <Gold.Chemscore.Metal>
0.0000

> <Gold.Chemscore.Lipo>
93.6485

> <Gold.Chemscore.Internal_Hbond>
0.0000

> <Gold.Chemscore.DEClash>
0.0150

> <Gold.Chemscore.DEInternal>
0.4555

> <Gold.Chemscore.Rot>
1.4450

> <Gold.Chemscore.Internal.Correction>
   9.000000E+99

> <Gold.Chemscore.Hbonds>
donor molecule, donor type, donor heavy atom, donor atom, acceptor molecule, acceptor atom, score
      P1  H  7997  8009       L1    19  0.65
      P1  H 10752 10763       L1    20  0.38

> <Gold.Chemscore.Hbond.Weighted>
-3.8509

> <Gold.Chemscore.Metal.Weighted>
-0.0000

> <Gold.Chemscore.Lipo.Weighted>
-10.9569

> <Gold.Chemscore.Internal_Hbond.Weighted>
0.0000

> <Gold.Chemscore.DEClash.Weighted>
0.0150

> <Gold.Chemscore.DEInternal.Weighted>
0.4555

> <Gold.Chemscore.Rot.Weighted>
3.6992

> <Gold.Chemscore.Internal.Correction.Weighted>
   9.000000E+99

> <Gold.Protein.RotatedTorsions>
[ 6907 6896 6895 6894 ] final -107.85 input  -60.11 | X-H torsion
[ 7974 7965 7964 7962 ] final   -0.70 input  175.53 | X-H torsion
[ 8008 7997 7996 7995 ] final -141.96 input   59.86 | X-H torsion
[ 10167 10162 10161 10158 ] final   41.70 input  -65.29 | X-H torsion
[ 10718 10713 10712 10709 ] final   41.01 input   66.30 | X-H torsion
[ 10763 10752 10751 10750 ] final   70.17 input  -60.55 | X-H torsion
[ 11005 11000 10999 10996 ] final   93.33 input  -57.11 | X-H torsion

> <Gold.Protein.ActiveResidues>
 VAL166  LYS551  ARG553  GLY616  TRP617  ASP618  TYR619  PRO620  LYS621  CYS622 
 ASP623  PHE694  ASN695  SER759  ASP760  ASP761  ALA762  ILE779  LEU786  VAL792 
 PHE793  MET794  SER795  GLU796  ALA797  LYS798  CYS799  TRP800  GLU811  SER814 

> <Gold.Protein.RotatedAtoms>
  150.7468  133.9764  159.3561 H   0  0  0  0  0  0  0  0  0  0  0  0  # atno 6907 bound_to 6896
  151.7702  135.0786  160.0368 H   0  0  0  0  0  0  0  0  0  0  0  0  # atno 6908 bound_to 6896
  152.3344  133.5958  159.5868 H   0  0  0  0  0  0  0  0  0  0  0  0  # atno 6909 bound_to 6896
  146.2425  140.1309  142.8338 H   0  0  0  0  0  0  0  0  0  0  0  0  # atno 7974 bound_to 7965
  155.4863  140.0564  157.2960 H   0  0  0  0  0  0  0  0  0  0  0  0  # atno 8008 bound_to 7997
  154.4640  140.2010  156.0118 H   0  0  0  0  0  0  0  0  0  0  0  0  # atno 8009 bound_to 7997
  156.0942  140.3229  155.7860 H   0  0  0  0  0  0  0  0  0  0  0  0  # atno 8010 bound_to 7997
  140.3617  144.2220  150.6138 H   0  0  0  0  0  0  0  0  0  0  0  0  # atno 10167 bound_to 10162
  157.3886  130.7794  149.7251 H   0  0  0  0  0  0  0  0  0  0  0  0  # atno 10718 bound_to 10713
  153.0327  135.5183  154.7400 H   0  0  0  0  0  0  0  0  0  0  0  0  # atno 10763 bound_to 10752
  154.6403  135.2911  155.0114 H   0  0  0  0  0  0  0  0  0  0  0  0  # atno 10764 bound_to 10752
  154.1035  135.6633  153.4925 H   0  0  0  0  0  0  0  0  0  0  0  0  # atno 10765 bound_to 10752
  139.8811  134.8783  156.3702 H   0  0  0  0  0  0  0  0  0  0  0  0  # atno 11005 bound_to 11000
  145.0327  140.8884  143.5100 LP  0  0  0  0  0  0  0  0  0  0  0  0  # atno 17320 bound_to 7965
  145.1376  139.2592  143.5507 LP  0  0  0  0  0  0  0  0  0  0  0  0  # atno 17321 bound_to 7965
  140.5120  143.2288  151.8520 LP  0  0  0  0  0  0  0  0  0  0  0  0  # atno 17342 bound_to 10162
  139.4813  144.4938  151.9150 LP  0  0  0  0  0  0  0  0  0  0  0  0  # atno 17343 bound_to 10162
  155.9793  130.4042  150.3597 LP  0  0  0  0  0  0  0  0  0  0  0  0  # atno 17370 bound_to 10713
  157.1710  131.0369  151.2795 LP  0  0  0  0  0  0  0  0  0  0  0  0  # atno 17371 bound_to 10713
  140.9470  133.7476  156.0221 LP  0  0  0  0  0  0  0  0  0  0  0  0  # atno 17394 bound_to 11000
  140.8152  134.3353  157.5399 LP  0  0  0  0  0  0  0  0  0  0  0  0  # atno 17395 bound_to 11000

$$$$
