AV-unprocessed.smi:106|AV-procd|sdf|1011|dock2
  -GOLD-   2262018 13D 1   1.00000     0.00000
 Structure written by MMmdl.
 51 54  0  0  0  0  0  0  0  0  1 V2000
  150.2528  140.4569  154.4723 O   0  0  0  0  0  0  0  0  0  0  0  0
  150.7272  139.4459  154.9952 C   0  0  0  0  0  0  0  0  0  0  0  0
  152.1547  139.5064  155.5821 C   0  0  0  0  0  0  0  0  0  0  0  0
  152.2043  140.0204  156.9700 N   0  0  0  0  0  0  0  0  0  0  0  0
  152.8528  139.2378  157.9572 C   0  0  0  0  0  0  0  0  0  0  0  0
  153.3621  138.1513  157.6782 O   0  0  0  0  0  0  0  0  0  0  0  0
  152.8677  139.8049  159.3001 C   0  0  0  0  0  0  0  0  0  0  0  0
  153.4861  139.1460  160.2948 F   0  0  0  0  0  0  0  0  0  0  0  0
  152.2725  140.9867  159.5609 C   0  0  0  0  0  0  0  0  0  0  0  0
  151.6092  141.7233  158.5992 N   0  0  0  0  0  0  0  0  0  0  0  0
  151.0010  143.0534  158.9883 C   0  0  2  0  0  0  0  0  0  0  0  0
  151.6141  144.2544  158.2526 C   0  0  0  0  0  0  0  0  0  0  0  0
  151.5546  145.3180  159.3275 C   0  0  0  0  0  0  0  0  0  0  0  0
  151.8114  144.5056  160.5922 C   0  0  0  0  0  0  0  0  0  0  0  0
  151.1715  143.2529  160.3621 O   0  0  0  0  0  0  0  0  0  0  0  0
  151.5826  141.2590  157.2629 C   0  0  0  0  0  0  0  0  0  0  0  0
  151.0331  141.9099  156.3734 O   0  0  0  0  0  0  0  0  0  0  0  0
  150.0345  138.2828  155.0690 N   0  0  0  0  0  0  0  0  0  0  0  0
  150.5851  137.0419  155.6350 C   0  0  0  0  0  0  0  0  0  0  0  0
  149.9243  135.7791  155.0484 C   0  0  0  0  0  0  0  0  0  0  0  0
  148.4608  135.7773  155.1877 N   0  0  0  0  0  0  0  0  0  0  0  0
  147.7747  134.6081  155.1151 C   0  0  0  0  0  0  0  0  0  0  0  0
  146.5686  134.5443  155.3614 O   0  0  0  0  0  0  0  0  0  0  0  0
  148.4852  133.3690  154.7096 C   0  0  0  0  0  0  0  0  0  0  0  0
  149.6209  132.7506  155.1751 C   0  0  0  0  0  0  0  0  0  0  0  0
  149.9711  131.5843  154.4333 C   0  0  0  0  0  0  0  0  0  0  0  0
  149.1160  131.3393  153.3925 C   0  0  0  0  0  0  0  0  0  0  0  0
  147.8654  132.5478  153.2947 S   0  0  0  0  0  0  0  0  0  0  0  0
  147.8330  137.1045  155.2827 C   0  0  0  0  0  0  0  0  0  0  0  0
  148.6531  138.1981  154.5720 C   0  0  0  0  0  0  0  0  0  0  0  0
  152.6054  138.5138  155.5329 H   0  0  0  0  0  0  0  0  0  0  0  0
  152.7758  140.1172  154.9261 H   0  0  0  0  0  0  0  0  0  0  0  0
  152.3165  141.3629  160.5726 H   0  0  0  0  0  0  0  0  0  0  0  0
  149.9316  142.9648  158.7933 H   0  0  0  0  0  0  0  0  0  0  0  0
  152.6454  144.0635  157.9590 H   0  0  0  0  0  0  0  0  0  0  0  0
  151.0375  144.5021  157.3612 H   0  0  0  0  0  0  0  0  0  0  0  0
  152.2799  146.1185  159.1794 H   0  0  0  0  0  0  0  0  0  0  0  0
  150.5577  145.7594  159.3626 H   0  0  0  0  0  0  0  0  0  0  0  0
  152.8806  144.3465  160.7340 H   0  0  0  0  0  0  0  0  0  0  0  0
  151.4228  144.9917  161.4872 H   0  0  0  0  0  0  0  0  0  0  0  0
  151.6563  136.9574  155.4548 H   0  0  0  0  0  0  0  0  0  0  0  0
  150.4499  137.0640  156.7172 H   0  0  0  0  0  0  0  0  0  0  0  0
  150.1725  135.6911  153.9893 H   0  0  0  0  0  0  0  0  0  0  0  0
  150.3585  134.9088  155.5438 H   0  0  0  0  0  0  0  0  0  0  0  0
  150.2118  133.0888  156.0129 H   0  0  0  0  0  0  0  0  0  0  0  0
  150.8309  130.9794  154.6805 H   0  0  0  0  0  0  0  0  0  0  0  0
  149.1503  130.5348  152.6727 H   0  0  0  0  0  0  0  0  0  0  0  0
  146.8383  137.1034  154.8357 H   0  0  0  0  0  0  0  0  0  0  0  0
  147.7116  137.3617  156.3354 H   0  0  0  0  0  0  0  0  0  0  0  0
  148.1294  139.1466  154.7033 H   0  0  0  0  0  0  0  0  0  0  0  0
  148.6807  138.0046  153.4987 H   0  0  0  0  0  0  0  0  0  0  0  0
  1  2  2  0  0  0  0
  2  3  1  0  0  0  0
  2 18  1  0  0  0  0
  3  4  1  0  0  0  0
  3 31  1  0  0  0  0
  3 32  1  0  0  0  0
  4 16  1  0  0  0  0
  4  5  1  0  0  0  0
  5  6  2  0  0  0  0
  5  7  1  0  0  0  0
  7  8  1  0  0  0  0
  7  9  2  0  0  0  0
  9 10  1  0  0  0  0
  9 33  1  0  0  0  0
 10 11  1  0  0  0  0
 10 16  1  0  0  0  0
 11 15  1  0  0  0  0
 11 12  1  0  0  0  0
 11 34  1  0  0  0  0
 12 13  1  0  0  0  0
 12 35  1  0  0  0  0
 12 36  1  0  0  0  0
 13 14  1  0  0  0  0
 13 37  1  0  0  0  0
 13 38  1  0  0  0  0
 14 15  1  0  0  0  0
 14 39  1  0  0  0  0
 14 40  1  0  0  0  0
 16 17  2  0  0  0  0
 18 30  1  0  0  0  0
 18 19  1  0  0  0  0
 19 20  1  0  0  0  0
 19 41  1  0  0  0  0
 19 42  1  0  0  0  0
 20 21  1  0  0  0  0
 20 43  1  0  0  0  0
 20 44  1  0  0  0  0
 21 22  1  0  0  0  0
 21 29  1  0  0  0  0
 22 23  2  0  0  0  0
 22 24  1  0  0  0  0
 24 28  1  0  0  0  0
 24 25  2  0  0  0  0
 25 26  1  0  0  0  0
 25 45  1  0  0  0  0
 26 27  2  0  0  0  0
 26 46  1  0  0  0  0
 27 28  1  0  0  0  0
 27 47  1  0  0  0  0
 29 30  1  0  0  0  0
 29 48  1  0  0  0  0
 29 49  1  0  0  0  0
 30 50  1  0  0  0  0
 30 51  1  0  0  0  0
M  END
> <s_m_source_file>
AV-unprocessed.smi

> <i_m_source_file_index>
106

> <i_lp_mmshare_version>
43012

> <i_f3d_flags>
0

> <s_epik_input>
czFbY0hdW2NIXVtjSF1jMUMoPU8pTihbQ0gyXVtDSDJdMilbQ0gyXVtDSDJdTjJDKD1PKVtDSDJdbjNjKD1PKWMoRilbY0hdbihjMz1PKVtDQEBIXTRbQ0gyXVtDSDJdW0NIMl1PNA==

> <s_epik_cmdline>
J2VwaWtfcHl0aG9uJywgJy1waCcsICc3LjAnLCAnLXRuJywgJzgnLCAnLW1hJywgJzIwMCcsICctbWV0YWxfYmluZGluZycsICctaW1hZScsICc8aW5maWxlLm1hZT4nLCAnLW9tYWUnLCAnPG91dGZpbGUubWFlPic=

> <r_lp_tautomer_probability>
1

> <r_epik_Ionization_Penalty>
4.82844e-09

> <r_epik_Ionization_Penalty_Charging>
4.20153e-09

> <r_epik_Ionization_Penalty_Neutral>
6.26919e-10

> <r_epik_State_Penalty>
-0

> <r_epik_Charging_Adjusted_Penalty>
4.20153e-09

> <i_epik_Tot_Q>
0

> <i_epik_Tot_abs_Q>
0

> <r_epik_Metal_State_Penalty>
-0

> <b_epik_Metal_Only>
0

> <s_epik_Chemistry_Notes>
This compound contains an acetal/aminal-like group ( X-CH(R)-Y where X, Y are N, S, or O) that may be acid/base labile, releasing an aldehyde.

> <s_lp_Force_Field>
OPLS_2005

> <r_lp_Energy>
67.8789

> <b_lp_Chiralities_Consistent>
1

> <s_lp_Variant>
AV-unprocessed.smi:106-1

> <Gold.Version>
5.8.1

> <Gold.Id.Protein>
6NUR|6NUR_protein|mol2

> <Gold.PLP.Fitness>
52.7588

> <Gold.PLP.PLP>
-49.5946

> <Gold.PLP.part.hbond>
-1.9481

> <Gold.PLP.part.metal>
0.0000

> <Gold.PLP.part.buried>
-4.3005

> <Gold.PLP.part.nonpolar>
-43.2514

> <Gold.PLP.part.repulsive>
0.2804

> <Gold.PLP.ligand.clash>
0.0000

> <Gold.PLP.ligand.torsion>
1.4828

> <Gold.PLP.Chemscore.Hbond>
0.9600

> <Gold.PLP.Chemscore.CHOScore>
0.8882

> <Gold.PLP.Chemscore.Metal>
0.0000

> <Gold.Chemscore.Hbonds>
donor molecule, donor type, donor heavy atom, donor atom, acceptor molecule, acceptor atom, score
      P1  H  7989  7998       L1     1  0.85
      L1  C    27    47       P1 10747  0.74

> <Gold.PLP.Chemscore.Internal.Correction>
0.5852

> <Gold.Rescore>
     Score         DG    S(hbond)    S(metal)    S(lipo)     H(rot)  DE(clash)    DE(int)     intcor
     11.03     -16.08       1.01        0.00      97.37       1.63       0.03       5.02       ----

> <Gold.Chemscore.Fitness>
11.0262

> <Gold.Chemscore.DG>
-16.0808

> <Gold.Chemscore.ZeroCoef>
-5.4800

> <Gold.Chemscore.Hbond>
1.0088

> <Gold.Chemscore.Metal>
0.0000

> <Gold.Chemscore.Lipo>
97.3680

> <Gold.Chemscore.Internal_Hbond>
0.0000

> <Gold.Chemscore.DEClash>
0.0310

> <Gold.Chemscore.DEInternal>
5.0237

> <Gold.Chemscore.Rot>
1.6252

> <Gold.Chemscore.Internal.Correction>
   9.000000E+99

> <Gold.Chemscore.Hbonds>
donor molecule, donor type, donor heavy atom, donor atom, acceptor molecule, acceptor atom, score
      P1  H  7989  7998       L1     1  0.16

> <Gold.Chemscore.Hbond.Weighted>
-3.3692

> <Gold.Chemscore.Metal.Weighted>
-0.0000

> <Gold.Chemscore.Lipo.Weighted>
-11.3921

> <Gold.Chemscore.Internal_Hbond.Weighted>
0.0000

> <Gold.Chemscore.DEClash.Weighted>
0.0310

> <Gold.Chemscore.DEInternal.Weighted>
5.0237

> <Gold.Chemscore.Rot.Weighted>
4.1605

> <Gold.Chemscore.Internal.Correction.Weighted>
   9.000000E+99

> <Gold.Protein.RotatedTorsions>
[ 6907 6896 6895 6894 ] final  152.33 input  -60.11 | X-H torsion
[ 7974 7965 7964 7962 ] final   86.02 input  175.53 | X-H torsion
[ 8008 7997 7996 7995 ] final   69.98 input   59.86 | X-H torsion
[ 10167 10162 10161 10158 ] final  110.67 input  -65.29 | X-H torsion
[ 10718 10713 10712 10709 ] final  -30.43 input   66.30 | X-H torsion
[ 10763 10752 10751 10750 ] final   86.79 input  -60.55 | X-H torsion
[ 11005 11000 10999 10996 ] final -134.94 input  -57.11 | X-H torsion

> <Gold.Protein.ActiveResidues>
 VAL166  LYS551  ARG553  GLY616  TRP617  ASP618  TYR619  PRO620  LYS621  CYS622 
 ASP623  PHE694  ASN695  SER759  ASP760  ASP761  ALA762  ILE779  LEU786  VAL792 
 PHE793  MET794  SER795  GLU796  ALA797  LYS798  CYS799  TRP800  GLU811  SER814 

> <Gold.Protein.RotatedAtoms>
  152.0883  133.4187  159.4531 H   0  0  0  0  0  0  0  0  0  0  0  0  # atno 6907 bound_to 6896
  150.6862  134.2902  159.4672 H   0  0  0  0  0  0  0  0  0  0  0  0  # atno 6908 bound_to 6896
  152.0751  134.9508  160.0625 H   0  0  0  0  0  0  0  0  0  0  0  0  # atno 6909 bound_to 6896
  145.5779  139.2321  143.2369 H   0  0  0  0  0  0  0  0  0  0  0  0  # atno 7974 bound_to 7965
  155.7319  140.3492  155.5063 H   0  0  0  0  0  0  0  0  0  0  0  0  # atno 8008 bound_to 7997
  155.9175  140.1061  157.1254 H   0  0  0  0  0  0  0  0  0  0  0  0  # atno 8009 bound_to 7997
  154.4065  140.1256  156.4623 H   0  0  0  0  0  0  0  0  0  0  0  0  # atno 8010 bound_to 7997
  139.6670  144.7127  151.1758 H   0  0  0  0  0  0  0  0  0  0  0  0  # atno 10167 bound_to 10162
  156.3999  130.4388  149.7330 H   0  0  0  0  0  0  0  0  0  0  0  0  # atno 10718 bound_to 10713
  153.1605  135.4567  154.9765 H   0  0  0  0  0  0  0  0  0  0  0  0  # atno 10763 bound_to 10752
  154.7893  135.3215  154.7815 H   0  0  0  0  0  0  0  0  0  0  0  0  # atno 10764 bound_to 10752
  153.8306  135.6939  153.4869 H   0  0  0  0  0  0  0  0  0  0  0  0  # atno 10765 bound_to 10752
  140.8944  134.1770  157.4505 H   0  0  0  0  0  0  0  0  0  0  0  0  # atno 11005 bound_to 11000
  146.1738  140.6605  142.9221 LP  0  0  0  0  0  0  0  0  0  0  0  0  # atno 17320 bound_to 7965
  144.7407  140.4935  143.6871 LP  0  0  0  0  0  0  0  0  0  0  0  0  # atno 17321 bound_to 7965
  140.7603  143.5903  150.8803 LP  0  0  0  0  0  0  0  0  0  0  0  0  # atno 17342 bound_to 10162
  139.9566  143.6212  152.3014 LP  0  0  0  0  0  0  0  0  0  0  0  0  # atno 17343 bound_to 10162
  156.4350  130.7833  151.2854 LP  0  0  0  0  0  0  0  0  0  0  0  0  # atno 17370 bound_to 10713
  157.7503  131.0142  150.3456 LP  0  0  0  0  0  0  0  0  0  0  0  0  # atno 17371 bound_to 10713
  139.8733  134.9872  156.5358 LP  0  0  0  0  0  0  0  0  0  0  0  0  # atno 17394 bound_to 11000
  140.8307  133.8281  155.8981 LP  0  0  0  0  0  0  0  0  0  0  0  0  # atno 17395 bound_to 11000

$$$$
