AV-unprocessed.smi:1701|AV-procd|sdf|6838|dock3
  -GOLD-   22720 8 13D 1   1.00000     0.00000
 Structure written by MMmdl.
 54 56  0  0  0  0  0  0  0  0  4 V2000
  153.9317  129.5523  154.0247 C   0  0  0  0  0  0  0  0  0  0  0  0
  153.2073  129.3512  155.3650 C   0  0  0  0  0  0  0  0  0  0  0  0
  152.6331  130.5841  155.9040 N   0  0  0  0  0  0  0  0  0  0  0  0
  153.2870  131.2453  157.0360 C   0  0  0  0  0  0  0  0  0  0  0  0
  154.0127  132.5403  156.6431 C   0  0  0  0  0  0  0  0  0  0  0  0
  151.5738  131.2328  155.2229 C   0  0  0  0  0  0  0  0  0  0  0  0
  151.3174  132.6242  155.3180 C   0  0  0  0  0  0  0  0  0  0  0  0
  150.2416  133.1935  154.6067 C   0  0  0  0  0  0  0  0  0  0  0  0
  149.4309  132.3791  153.7910 C   0  0  0  0  0  0  0  0  0  0  0  0
  148.3456  132.9908  153.1078 N   0  0  0  0  0  0  0  0  0  0  0  0
  147.2215  132.4234  152.6050 C   0  0  0  0  0  0  0  0  0  0  0  0
  147.0861  131.2034  152.6739 O   0  0  0  0  0  0  0  0  0  0  0  0
  146.2742  133.2062  152.0062 N   0  5  0  0  0  0  0  0  0  0  0  0
  145.6458  133.0630  150.6816 C   0  0  1  0  0  0  0  0  0  0  0  0
  144.8190  131.7721  150.6328 C   0  0  0  0  0  0  0  0  0  0  0  0
  143.4395  132.1391  151.2135 C   0  0  0  0  0  0  0  0  0  0  0  0
  143.3250  133.6202  151.1786 N   0  3  1  0  0  0  0  0  0  0  0  0
  143.0628  134.2068  152.5250 C   0  0  0  0  0  0  0  0  0  0  0  0
  143.1819  135.7352  152.5294 C   0  0  0  0  0  0  0  0  0  0  0  0
  144.5876  136.1494  152.0896 C   0  0  0  0  0  0  0  0  0  0  0  0
  144.8567  135.6284  150.6717 C   0  0  0  0  0  0  0  0  0  0  0  0
  144.5398  134.1192  150.4744 C   0  0  1  0  0  0  0  0  0  0  0  0
  149.7136  130.9949  153.7377 C   0  0  0  0  0  0  0  0  0  0  0  0
  150.7534  130.4920  154.4373 N   0  3  0  0  0  0  0  0  0  0  0  0
  154.3255  128.6043  153.6579 H   0  0  0  0  0  0  0  0  0  0  0  0
  154.7729  130.2369  154.1200 H   0  0  0  0  0  0  0  0  0  0  0  0
  153.2650  129.9480  153.2588 H   0  0  0  0  0  0  0  0  0  0  0  0
  152.4350  128.5881  155.2721 H   0  0  0  0  0  0  0  0  0  0  0  0
  153.9168  128.9504  156.0894 H   0  0  0  0  0  0  0  0  0  0  0  0
  152.5623  131.4460  157.8254 H   0  0  0  0  0  0  0  0  0  0  0  0
  154.0065  130.5557  157.4783 H   0  0  0  0  0  0  0  0  0  0  0  0
  154.4384  133.0216  157.5237 H   0  0  0  0  0  0  0  0  0  0  0  0
  153.3354  133.2536  156.1731 H   0  0  0  0  0  0  0  0  0  0  0  0
  154.8320  132.3481  155.9520 H   0  0  0  0  0  0  0  0  0  0  0  0
  151.9253  133.2737  155.9285 H   0  0  0  0  0  0  0  0  0  0  0  0
  150.0466  134.2532  154.6844 H   0  0  0  0  0  0  0  0  0  0  0  0
  148.4480  133.9787  152.9276 H   0  0  0  0  0  0  0  0  0  0  0  0
  146.3700  133.0972  149.8665 H   0  0  0  0  0  0  0  0  0  0  0  0
  144.6985  131.4669  149.5924 H   0  0  0  0  0  0  0  0  0  0  0  0
  145.2869  130.9369  151.1564 H   0  0  0  0  0  0  0  0  0  0  0  0
  142.6373  131.6888  150.6279 H   0  0  0  0  0  0  0  0  0  0  0  0
  143.3420  131.7559  152.2313 H   0  0  0  0  0  0  0  0  0  0  0  0
  142.0654  133.9095  152.8500 H   0  0  0  0  0  0  0  0  0  0  0  0
  143.7622  133.7966  153.2554 H   0  0  0  0  0  0  0  0  0  0  0  0
  142.4338  136.1740  151.8680 H   0  0  0  0  0  0  0  0  0  0  0  0
  142.9795  136.1191  153.5296 H   0  0  0  0  0  0  0  0  0  0  0  0
  144.6842  137.2350  152.1122 H   0  0  0  0  0  0  0  0  0  0  0  0
  145.3292  135.7585  152.7871 H   0  0  0  0  0  0  0  0  0  0  0  0
  144.2161  136.1944  149.9939 H   0  0  0  0  0  0  0  0  0  0  0  0
  145.8767  135.8697  150.3665 H   0  0  0  0  0  0  0  0  0  0  0  0
  144.2850  134.0306  149.4164 H   0  0  0  0  0  0  0  0  0  0  0  0
  149.1461  130.2674  153.1768 H   0  0  0  0  0  0  0  0  0  0  0  0
  142.5342  133.8651  150.6010 H   0  0  0  0  0  0  0  0  0  0  0  0
  150.9283  129.4893  154.3721 H   0  0  0  0  0  0  0  0  0  0  0  0
  1  2  1  0  0  0  0
  1 25  1  0  0  0  0
  1 26  1  0  0  0  0
  1 27  1  0  0  0  0
  2  3  1  0  0  0  0
  2 28  1  0  0  0  0
  2 29  1  0  0  0  0
  3  4  1  0  0  0  0
  3  6  1  0  0  0  0
  4  5  1  0  0  0  0
  4 30  1  0  0  0  0
  4 31  1  0  0  0  0
  5 32  1  0  0  0  0
  5 33  1  0  0  0  0
  5 34  1  0  0  0  0
  6 24  1  0  0  0  0
  6  7  2  0  0  0  0
  7  8  1  0  0  0  0
  7 35  1  0  0  0  0
  8  9  2  0  0  0  0
  8 36  1  0  0  0  0
  9 10  1  0  0  0  0
  9 23  1  0  0  0  0
 10 11  1  0  0  0  0
 10 37  1  0  0  0  0
 11 12  2  0  0  0  0
 11 13  1  0  0  0  0
 13 14  1  0  0  0  0
 14 22  1  0  0  0  0
 14 15  1  0  0  0  0
 14 38  1  0  0  0  0
 15 16  1  0  0  0  0
 15 39  1  0  0  0  0
 15 40  1  0  0  0  0
 16 17  1  0  0  0  0
 16 41  1  0  0  0  0
 16 42  1  0  0  0  0
 17 22  1  0  0  0  0
 17 18  1  0  0  0  0
 17 53  1  0  0  0  0
 18 19  1  0  0  0  0
 18 43  1  0  0  0  0
 18 44  1  0  0  0  0
 19 20  1  0  0  0  0
 19 45  1  0  0  0  0
 19 46  1  0  0  0  0
 20 21  1  0  0  0  0
 20 47  1  0  0  0  0
 20 48  1  0  0  0  0
 21 22  1  0  0  0  0
 21 49  1  0  0  0  0
 21 50  1  0  0  0  0
 22 51  1  0  0  0  0
 23 24  2  0  0  0  0
 23 52  1  0  0  0  0
 24 54  1  0  0  0  0
M  CHG  1  13  -1
M  CHG  1  17   1
M  CHG  1  24   1
M  END
> <s_m_source_file>
AV-unprocessed.smi

> <i_m_source_file_index>
1701

> <i_lp_mmshare_version>
43012

> <i_f3d_flags>
0

> <s_epik_input>
W0NIM11bQ0gyXU4oW0NIMl1bQ0gzXSljMVtjSF1bY0hdYyhbY0hdbjEpW05IXUMoPU8pW05IXVtDQEhdKFtDSDJdW0NIMl0yKVtDQEBIXShOMjMpW0NIMl1bQ0gyXVtDSDJdW0NIMl0z

> <s_epik_cmdline>
J2VwaWtfcHl0aG9uJywgJy1waCcsICc3LjAnLCAnLXRuJywgJzgnLCAnLW1hJywgJzIwMCcsICctbWV0YWxfYmluZGluZycsICctaW1hZScsICc8aW5maWxlLm1hZT4nLCAnLW9tYWUnLCAnPG91dGZpbGUubWFlPic=

> <r_lp_tautomer_probability>
0.999994

> <r_epik_Ionization_Penalty>
7.37095

> <r_epik_Ionization_Penalty_Charging>
7.37095

> <r_epik_Ionization_Penalty_Neutral>
3.78969e-06

> <r_epik_State_Penalty>
6.83842

> <r_epik_Charging_Adjusted_Penalty>
14.2094

> <i_epik_Tot_Q>
1

> <i_epik_Tot_abs_Q>
3

> <r_epik_Metal_State_Penalty>
2.78552

> <b_epik_Metal_Only>
1

> <s_lp_Force_Field>
OPLS_2005

> <r_lp_Energy>
56.1591

> <b_lp_Chiralities_Consistent>
1

> <s_lp_Variant>
AV-unprocessed.smi:1701-18

> <Gold.Version>
5.8.1

> <Gold.Id.Protein>
6NUR|6NUR_protein|mol2

> <Gold.PLP.Fitness>
48.1463

> <Gold.PLP.PLP>
-43.9180

> <Gold.PLP.part.hbond>
-1.0000

> <Gold.PLP.part.metal>
0.0000

> <Gold.PLP.part.buried>
-6.8991

> <Gold.PLP.part.nonpolar>
-36.2515

> <Gold.PLP.part.repulsive>
0.5458

> <Gold.PLP.ligand.clash>
0.0000

> <Gold.PLP.ligand.torsion>
0.9777

> <Gold.PLP.Chemscore.Hbond>
2.0000

> <Gold.PLP.Chemscore.CHOScore>
0.0000

> <Gold.PLP.Chemscore.Metal>
0.0000

> <Gold.Chemscore.Hbonds>
donor molecule, donor type, donor heavy atom, donor atom, acceptor molecule, acceptor atom, score
      L1  H    17    53       P1 10186  2.00

> <Gold.PLP.Chemscore.Internal.Correction>
0.1837

> <Gold.Rescore>
     Score         DG    S(hbond)    S(metal)    S(lipo)     H(rot)  DE(clash)    DE(int)     intcor
     13.93     -17.30       0.98        0.00     101.00       1.28       0.10       3.28       ----

> <Gold.Chemscore.Fitness>
13.9260

> <Gold.Chemscore.DG>
-17.2993

> <Gold.Chemscore.ZeroCoef>
-5.4800

> <Gold.Chemscore.Hbond>
0.9848

> <Gold.Chemscore.Metal>
0.0000

> <Gold.Chemscore.Lipo>
100.9963

> <Gold.Chemscore.Internal_Hbond>
0.0000

> <Gold.Chemscore.DEClash>
0.0953

> <Gold.Chemscore.DEInternal>
3.2780

> <Gold.Chemscore.Rot>
1.2838

> <Gold.Chemscore.Internal.Correction>
   9.000000E+99

> <Gold.Chemscore.Hbonds>
donor molecule, donor type, donor heavy atom, donor atom, acceptor molecule, acceptor atom, score
      L1  H    17    53       P1 10186  0.88

> <Gold.Chemscore.Hbond.Weighted>
-3.2893

> <Gold.Chemscore.Metal.Weighted>
-0.0000

> <Gold.Chemscore.Lipo.Weighted>
-11.8166

> <Gold.Chemscore.Internal_Hbond.Weighted>
0.0000

> <Gold.Chemscore.DEClash.Weighted>
0.0953

> <Gold.Chemscore.DEInternal.Weighted>
3.2780

> <Gold.Chemscore.Rot.Weighted>
3.2865

> <Gold.Chemscore.Internal.Correction.Weighted>
   9.000000E+99

> <Gold.Protein.RotatedTorsions>
[ 6907 6896 6895 6894 ] final  -96.12 input  -60.11 | X-H torsion
[ 7974 7965 7964 7962 ] final  154.38 input  175.53 | X-H torsion
[ 8008 7997 7996 7995 ] final  -92.39 input   59.86 | X-H torsion
[ 10167 10162 10161 10158 ] final  122.56 input  -65.29 | X-H torsion
[ 10718 10713 10712 10709 ] final  -87.26 input   66.30 | X-H torsion
[ 10763 10752 10751 10750 ] final  161.36 input  -60.55 | X-H torsion
[ 11005 11000 10999 10996 ] final -110.39 input  -57.11 | X-H torsion

> <Gold.Protein.ActiveResidues>
 VAL166  LYS551  ARG553  GLY616  TRP617  ASP618  TYR619  PRO620  LYS621  CYS622 
 ASP623  PHE694  ASN695  SER759  ASP760  ASP761  ALA762  ILE779  LEU786  VAL792 
 PHE793  MET794  SER795  GLU796  ALA797  LYS798  CYS799  TRP800  GLU811  SER814 

> <Gold.Protein.RotatedAtoms>
  150.6980  134.1552  159.4155 H   0  0  0  0  0  0  0  0  0  0  0  0  # atno 6907 bound_to 6896
  151.9534  135.0156  160.0552 H   0  0  0  0  0  0  0  0  0  0  0  0  # atno 6908 bound_to 6896
  152.1991  133.4792  159.5085 H   0  0  0  0  0  0  0  0  0  0  0  0  # atno 6909 bound_to 6896
  144.8092  139.6926  143.6149 H   0  0  0  0  0  0  0  0  0  0  0  0  # atno 7974 bound_to 7965
  154.7226  140.0509  157.0653 H   0  0  0  0  0  0  0  0  0  0  0  0  # atno 8008 bound_to 7997
  155.0407  140.3168  155.4706 H   0  0  0  0  0  0  0  0  0  0  0  0  # atno 8009 bound_to 7997
  156.2820  140.2133  156.5531 H   0  0  0  0  0  0  0  0  0  0  0  0  # atno 8010 bound_to 7997
  139.5851  144.7003  151.3429 H   0  0  0  0  0  0  0  0  0  0  0  0  # atno 10167 bound_to 10162
  155.9986  130.4794  150.4840 H   0  0  0  0  0  0  0  0  0  0  0  0  # atno 10718 bound_to 10713
  154.2617  135.2768  155.2775 H   0  0  0  0  0  0  0  0  0  0  0  0  # atno 10763 bound_to 10752
  154.5378  135.5711  153.6816 H   0  0  0  0  0  0  0  0  0  0  0  0  # atno 10764 bound_to 10752
  152.9961  135.6243  154.2768 H   0  0  0  0  0  0  0  0  0  0  0  0  # atno 10765 bound_to 10752
  141.0794  133.9245  157.2321 H   0  0  0  0  0  0  0  0  0  0  0  0  # atno 11005 bound_to 11000
  146.2388  139.5960  142.9505 LP  0  0  0  0  0  0  0  0  0  0  0  0  # atno 17320 bound_to 7965
  145.5364  141.0424  143.2355 LP  0  0  0  0  0  0  0  0  0  0  0  0  # atno 17321 bound_to 7965
  140.7124  143.7355  150.7592 LP  0  0  0  0  0  0  0  0  0  0  0  0  # atno 17342 bound_to 10162
  140.0897  143.4889  152.2485 LP  0  0  0  0  0  0  0  0  0  0  0  0  # atno 17343 bound_to 10162
  157.2842  131.0613  151.2177 LP  0  0  0  0  0  0  0  0  0  0  0  0  # atno 17370 bound_to 10713
  157.3212  130.6938  149.6270 LP  0  0  0  0  0  0  0  0  0  0  0  0  # atno 17371 bound_to 10713
  139.9607  135.0155  156.9253 LP  0  0  0  0  0  0  0  0  0  0  0  0  # atno 17394 bound_to 11000
  140.5502  134.0635  155.7367 LP  0  0  0  0  0  0  0  0  0  0  0  0  # atno 17395 bound_to 11000

$$$$
