AV-unprocessed.smi:1381|AV-procd|sdf|5603|dock1
  -GOLD-   22720 5213D 1   1.00000     0.00000
 Structure written by MMmdl.
 42 43  0  0  0  0  0  0  0  0  1 V2000
  138.2861  136.9700  154.1005 C   0  0  0  0  0  0  0  0  0  0  0  0
  139.7736  136.9724  154.0106 C   0  0  0  0  0  0  0  0  0  0  0  0
  140.6798  137.9118  153.6054 C   0  0  0  0  0  0  0  0  0  0  0  0
  141.9247  137.2498  153.7757 C   0  0  0  0  0  0  0  0  0  0  0  0
  143.1440  137.9000  153.4573 N   0  0  0  0  0  0  0  0  0  0  0  0
  144.3905  137.4940  153.7533 C   0  0  0  0  0  0  0  0  0  0  0  0
  144.6756  136.4616  154.3606 O   0  0  0  0  0  0  0  0  0  0  0  0
  145.3054  138.3638  153.3018 N   0  0  0  0  0  0  0  0  0  0  0  0
  146.7495  138.2255  153.4625 C   0  0  0  0  0  0  0  0  0  0  0  0
  147.4329  139.5624  153.8148 C   0  0  0  0  0  0  0  0  0  0  0  0
  148.6924  139.4417  154.5475 N   0  0  0  0  0  0  0  0  0  0  0  0
  149.1643  140.7468  154.9919 C   0  0  0  0  0  0  0  0  0  0  0  0
  150.4670  140.6416  155.8049 C   0  0  2  0  0  0  0  0  0  0  0  0
  151.0087  142.0174  156.2066 C   0  0  0  0  0  0  0  0  0  0  0  0
  151.4608  139.9850  155.0202 O   0  0  0  0  0  0  0  0  0  0  0  0
  151.0838  138.7061  154.5070 C   0  0  1  0  0  0  0  0  0  0  0  0
  151.0910  137.6273  155.6034 C   0  0  0  0  0  0  0  0  0  0  0  0
  149.7408  138.8028  153.7552 C   0  0  0  0  0  0  0  0  0  0  0  0
  141.7910  136.0187  154.2450 N   0  0  0  0  0  0  0  0  0  0  0  0
  140.4117  135.8346  154.3980 O   0  0  0  0  0  0  0  0  0  0  0  0
  137.8678  137.8749  153.6595 H   0  0  0  0  0  0  0  0  0  0  0  0
  137.9620  136.9194  155.1400 H   0  0  0  0  0  0  0  0  0  0  0  0
  137.8680  136.1127  153.5727 H   0  0  0  0  0  0  0  0  0  0  0  0
  140.4809  138.9099  153.2446 H   0  0  0  0  0  0  0  0  0  0  0  0
  143.0579  138.7675  152.9491 H   0  0  0  0  0  0  0  0  0  0  0  0
  144.9815  139.1853  152.8129 H   0  0  0  0  0  0  0  0  0  0  0  0
  146.9410  137.5003  154.2553 H   0  0  0  0  0  0  0  0  0  0  0  0
  147.1772  137.7971  152.5556 H   0  0  0  0  0  0  0  0  0  0  0  0
  147.5668  140.1791  152.9245 H   0  0  0  0  0  0  0  0  0  0  0  0
  146.7320  140.1138  154.4433 H   0  0  0  0  0  0  0  0  0  0  0  0
  149.3238  141.3949  154.1285 H   0  0  0  0  0  0  0  0  0  0  0  0
  148.3992  141.2265  155.6035 H   0  0  0  0  0  0  0  0  0  0  0  0
  150.2845  140.0667  156.7133 H   0  0  0  0  0  0  0  0  0  0  0  0
  150.2893  142.5571  156.8233 H   0  0  0  0  0  0  0  0  0  0  0  0
  151.2246  142.6284  155.3299 H   0  0  0  0  0  0  0  0  0  0  0  0
  151.9306  141.9200  156.7804 H   0  0  0  0  0  0  0  0  0  0  0  0
  151.8515  138.4286  153.7845 H   0  0  0  0  0  0  0  0  0  0  0  0
  150.9214  136.6389  155.1759 H   0  0  0  0  0  0  0  0  0  0  0  0
  150.3154  137.7955  156.3503 H   0  0  0  0  0  0  0  0  0  0  0  0
  152.0515  137.6039  156.1183 H   0  0  0  0  0  0  0  0  0  0  0  0
  149.4329  137.8021  153.4534 H   0  0  0  0  0  0  0  0  0  0  0  0
  149.8925  139.3690  152.8347 H   0  0  0  0  0  0  0  0  0  0  0  0
  1  2  1  0  0  0  0
  1 21  1  0  0  0  0
  1 22  1  0  0  0  0
  1 23  1  0  0  0  0
  2 20  1  0  0  0  0
  2  3  2  0  0  0  0
  3  4  1  0  0  0  0
  3 24  1  0  0  0  0
  4  5  1  0  0  0  0
  4 19  2  0  0  0  0
  5  6  1  0  0  0  0
  5 25  1  0  0  0  0
  6  7  2  0  0  0  0
  6  8  1  0  0  0  0
  8  9  1  0  0  0  0
  8 26  1  0  0  0  0
  9 10  1  0  0  0  0
  9 27  1  0  0  0  0
  9 28  1  0  0  0  0
 10 11  1  0  0  0  0
 10 29  1  0  0  0  0
 10 30  1  0  0  0  0
 11 18  1  0  0  0  0
 11 12  1  0  0  0  0
 12 13  1  0  0  0  0
 12 31  1  0  0  0  0
 12 32  1  0  0  0  0
 13 14  1  0  0  0  0
 13 15  1  0  0  0  0
 13 33  1  0  0  0  0
 14 34  1  0  0  0  0
 14 35  1  0  0  0  0
 14 36  1  0  0  0  0
 15 16  1  0  0  0  0
 16 17  1  0  0  0  0
 16 18  1  0  0  0  0
 16 37  1  0  0  0  0
 17 38  1  0  0  0  0
 17 39  1  0  0  0  0
 17 40  1  0  0  0  0
 18 41  1  0  0  0  0
 18 42  1  0  0  0  0
 19 20  1  0  0  0  0
M  END
> <s_m_source_file>
AV-unprocessed.smi

> <i_m_source_file_index>
1381

> <i_lp_mmshare_version>
43012

> <i_f3d_flags>
0

> <s_epik_input>
W0NIM11jMVtjSF1jKG5vMSlbTkhdQyg9TylbTkhdW0NIMl1bQ0gyXU4yW0NIMl1bQ0BASF0oW0NIM10pT1tDQEBIXShbQ0gzXSlbQ0gyXTI=

> <s_epik_cmdline>
J2VwaWtfcHl0aG9uJywgJy1waCcsICc3LjAnLCAnLXRuJywgJzgnLCAnLW1hJywgJzIwMCcsICctbWV0YWxfYmluZGluZycsICctaW1hZScsICc8aW5maWxlLm1hZT4nLCAnLW9tYWUnLCAnPG91dGZpbGUubWFlPic=

> <r_epik_Ionization_Penalty>
0.214073

> <r_epik_Ionization_Penalty_Charging>
0

> <r_epik_Ionization_Penalty_Neutral>
0.214073

> <r_epik_State_Penalty>
0.204211

> <r_epik_Charging_Adjusted_Penalty>
0.204211

> <i_epik_Tot_Q>
0

> <i_epik_Tot_abs_Q>
0

> <r_epik_Metal_State_Penalty>
0.217067

> <b_epik_Metal_Only>
0

> <s_lp_Force_Field>
OPLS_2005

> <r_lp_Energy>
25.417

> <b_lp_Chiralities_Consistent>
1

> <s_lp_Variant>
AV-unprocessed.smi:1381-2

> <Gold.Version>
5.8.1

> <Gold.Id.Protein>
6NUR|6NUR_protein|mol2

> <Gold.PLP.Fitness>
42.4899

> <Gold.PLP.PLP>
-31.1422

> <Gold.PLP.part.hbond>
-4.0000

> <Gold.PLP.part.metal>
0.0000

> <Gold.PLP.part.buried>
-4.9358

> <Gold.PLP.part.nonpolar>
-22.9574

> <Gold.PLP.part.repulsive>
0.3548

> <Gold.PLP.ligand.clash>
0.0000

> <Gold.PLP.ligand.torsion>
0.3264

> <Gold.PLP.Chemscore.Hbond>
3.9920

> <Gold.PLP.Chemscore.CHOScore>
0.0000

> <Gold.PLP.Chemscore.Metal>
0.0000

> <Gold.Chemscore.Hbonds>
donor molecule, donor type, donor heavy atom, donor atom, acceptor molecule, acceptor atom, score
      L1  H     5    25       P1 10175  1.00
      L1  H     8    26       P1 10175  1.00
      P1  H  7989  7998       L1    15  1.00
      P1  H 11000 11005       L1    20  1.00

> <Gold.PLP.Chemscore.Internal.Correction>
0.0245

> <Gold.Rescore>
     Score         DG    S(hbond)    S(metal)    S(lipo)     H(rot)  DE(clash)    DE(int)     intcor
     18.03     -19.83       3.00        0.00      71.26       1.57       0.20       1.60       ----

> <Gold.Chemscore.Fitness>
18.0342

> <Gold.Chemscore.DG>
-19.8347

> <Gold.Chemscore.ZeroCoef>
-5.4800

> <Gold.Chemscore.Hbond>
3.0046

> <Gold.Chemscore.Metal>
0.0000

> <Gold.Chemscore.Lipo>
71.2624

> <Gold.Chemscore.Internal_Hbond>
0.0000

> <Gold.Chemscore.DEClash>
0.2012

> <Gold.Chemscore.DEInternal>
1.5993

> <Gold.Chemscore.Rot>
1.5697

> <Gold.Chemscore.Internal.Correction>
   9.000000E+99

> <Gold.Chemscore.Hbonds>
donor molecule, donor type, donor heavy atom, donor atom, acceptor molecule, acceptor atom, score
      L1  H     5    25       P1 10175  0.98
      L1  H     8    26       P1 10175  0.95
      P1  H  7989  7998       L1    15  0.18
      P1  H 11000 11005       L1    20  0.63

> <Gold.Chemscore.Hbond.Weighted>
-10.0355

> <Gold.Chemscore.Metal.Weighted>
-0.0000

> <Gold.Chemscore.Lipo.Weighted>
-8.3377

> <Gold.Chemscore.Internal_Hbond.Weighted>
0.0000

> <Gold.Chemscore.DEClash.Weighted>
0.2012

> <Gold.Chemscore.DEInternal.Weighted>
1.5993

> <Gold.Chemscore.Rot.Weighted>
4.0185

> <Gold.Chemscore.Internal.Correction.Weighted>
   9.000000E+99

> <Gold.Protein.RotatedTorsions>
[ 6907 6896 6895 6894 ] final  -52.20 input  -60.11 | X-H torsion
[ 7974 7965 7964 7962 ] final   14.22 input  175.53 | X-H torsion
[ 8008 7997 7996 7995 ] final   61.02 input   59.86 | X-H torsion
[ 10167 10162 10161 10158 ] final -113.65 input  -65.29 | X-H torsion
[ 10718 10713 10712 10709 ] final -126.34 input   66.30 | X-H torsion
[ 10763 10752 10751 10750 ] final  -15.60 input  -60.55 | X-H torsion
[ 11005 11000 10999 10996 ] final   47.32 input  -57.11 | X-H torsion

> <Gold.Protein.ActiveResidues>
 VAL166  LYS551  ARG553  GLY616  TRP617  ASP618  TYR619  PRO620  LYS621  CYS622 
 ASP623  PHE694  ASN695  SER759  ASP760  ASP761  ALA762  ILE779  LEU786  VAL792 
 PHE793  MET794  SER795  GLU796  ALA797  LYS798  CYS799  TRP800  GLU811  SER814 

> <Gold.Protein.RotatedAtoms>
  150.8540  134.7874  159.7030 H   0  0  0  0  0  0  0  0  0  0  0  0  # atno 6907 bound_to 6896
  152.4597  134.5209  159.9792 H   0  0  0  0  0  0  0  0  0  0  0  0  # atno 6908 bound_to 6896
  151.5324  133.3408  159.2956 H   0  0  0  0  0  0  0  0  0  0  0  0  # atno 6909 bound_to 6896
  146.2310  139.9073  142.8530 H   0  0  0  0  0  0  0  0  0  0  0  0  # atno 7974 bound_to 7965
  155.5917  140.3493  155.4568 H   0  0  0  0  0  0  0  0  0  0  0  0  # atno 8008 bound_to 7997
  156.0296  140.1271  157.0297 H   0  0  0  0  0  0  0  0  0  0  0  0  # atno 8009 bound_to 7997
  154.4347  140.1046  156.6066 H   0  0  0  0  0  0  0  0  0  0  0  0  # atno 8010 bound_to 7997
  140.1095  143.4540  152.1761 H   0  0  0  0  0  0  0  0  0  0  0  0  # atno 10167 bound_to 10162
  156.1756  130.6697  151.0238 H   0  0  0  0  0  0  0  0  0  0  0  0  # atno 10718 bound_to 10713
  153.5458  135.7012  153.5615 H   0  0  0  0  0  0  0  0  0  0  0  0  # atno 10763 bound_to 10752
  153.3560  135.3982  155.1682 H   0  0  0  0  0  0  0  0  0  0  0  0  # atno 10764 bound_to 10752
  154.8668  135.3777  154.4966 H   0  0  0  0  0  0  0  0  0  0  0  0  # atno 10765 bound_to 10752
  140.1289  134.4731  155.8537 H   0  0  0  0  0  0  0  0  0  0  0  0  # atno 11005 bound_to 11000
  145.2264  140.9955  143.4016 LP  0  0  0  0  0  0  0  0  0  0  0  0  # atno 17320 bound_to 7965
  144.9567  139.4024  143.6376 LP  0  0  0  0  0  0  0  0  0  0  0  0  # atno 17321 bound_to 7965
  139.5627  144.7416  151.4110 LP  0  0  0  0  0  0  0  0  0  0  0  0  # atno 17342 bound_to 10162
  140.6933  143.7809  150.7288 LP  0  0  0  0  0  0  0  0  0  0  0  0  # atno 17343 bound_to 10162
  157.6833  131.0832  150.7310 LP  0  0  0  0  0  0  0  0  0  0  0  0  # atno 17370 bound_to 10713
  156.7368  130.4726  149.5487 LP  0  0  0  0  0  0  0  0  0  0  0  0  # atno 17371 bound_to 10713
  141.2166  133.6788  156.7032 LP  0  0  0  0  0  0  0  0  0  0  0  0  # atno 17394 bound_to 11000
  140.2867  134.8273  157.3981 LP  0  0  0  0  0  0  0  0  0  0  0  0  # atno 17395 bound_to 11000

$$$$
