AV-unprocessed.smi:668|AV-procd|sdf|3262|dock7
  -GOLD-   22720 0213D 1   1.00000     0.00000
 Structure written by MMmdl.
 38 39  0  0  0  0  0  0  0  0  1 V2000
  147.8587  128.5085  152.9463 C   0  0  0  0  0  0  0  0  0  0  0  0
  148.8212  129.0226  153.8603 O   0  0  0  0  0  0  0  0  0  0  0  0
  148.9928  130.3899  153.9306 C   0  0  0  0  0  0  0  0  0  0  0  0
  150.0458  130.8977  154.7171 C   0  0  0  0  0  0  0  0  0  0  0  0
  150.2267  132.2919  154.7966 C   0  0  0  0  0  0  0  0  0  0  0  0
  149.3396  133.1384  154.0891 C   0  0  0  0  0  0  0  0  0  0  0  0
  149.4225  134.5574  154.0735 N   0  0  0  0  0  0  0  0  0  0  0  0
  149.9333  135.3802  155.0054 C   0  0  0  0  0  0  0  0  0  0  0  0
  150.4177  135.0276  156.0802 O   0  0  0  0  0  0  0  0  0  0  0  0
  149.8307  136.6620  154.6262 N   0  0  0  0  0  0  0  0  0  0  0  0
  150.2821  137.8137  155.4059 C   0  0  1  0  0  0  0  0  0  0  0  0
  151.6194  137.5065  156.1009 C   0  0  0  0  0  0  0  0  0  0  0  0
  152.6798  138.2782  155.3195 C   0  0  0  0  0  0  0  0  0  0  0  0
  151.9530  139.5333  154.8466 C   0  0  0  0  0  0  0  0  0  0  0  0
  150.5279  139.0595  154.5112 C   0  0  2  0  0  0  0  0  0  0  0  0
  149.4733  140.1584  154.7160 C   0  0  0  0  0  0  0  0  0  0  0  0
  148.7735  140.5365  153.6435 N   0  0  0  0  0  0  0  0  0  0  0  0
  149.2896  140.6577  155.8246 O   0  0  0  0  0  0  0  0  0  0  0  0
  148.3275  132.5292  153.3188 C   0  0  0  0  0  0  0  0  0  0  0  0
  148.1478  131.1941  153.2392 N   0  0  0  0  0  0  0  0  0  0  0  0
  147.8429  127.4209  153.0134 H   0  0  0  0  0  0  0  0  0  0  0  0
  148.1043  128.7724  151.9164 H   0  0  0  0  0  0  0  0  0  0  0  0
  146.8554  128.8685  153.1793 H   0  0  0  0  0  0  0  0  0  0  0  0
  150.7067  130.2288  155.2484 H   0  0  0  0  0  0  0  0  0  0  0  0
  151.0451  132.6765  155.3845 H   0  0  0  0  0  0  0  0  0  0  0  0
  148.9939  135.0044  153.2761 H   0  0  0  0  0  0  0  0  0  0  0  0
  149.4134  136.8592  153.7284 H   0  0  0  0  0  0  0  0  0  0  0  0
  149.5368  138.0107  156.1798 H   0  0  0  0  0  0  0  0  0  0  0  0
  151.5860  137.8848  157.1236 H   0  0  0  0  0  0  0  0  0  0  0  0
  151.8438  136.4405  156.1615 H   0  0  0  0  0  0  0  0  0  0  0  0
  153.5625  138.5041  155.9188 H   0  0  0  0  0  0  0  0  0  0  0  0
  153.0012  137.6923  154.4574 H   0  0  0  0  0  0  0  0  0  0  0  0
  151.9500  140.2713  155.6505 H   0  0  0  0  0  0  0  0  0  0  0  0
  152.4482  139.9876  153.9879 H   0  0  0  0  0  0  0  0  0  0  0  0
  150.5247  138.7552  153.4624 H   0  0  0  0  0  0  0  0  0  0  0  0
  148.0790  141.2648  153.7243 H   0  0  0  0  0  0  0  0  0  0  0  0
  148.9525  140.1007  152.7506 H   0  0  0  0  0  0  0  0  0  0  0  0
  147.6347  133.1318  152.7496 H   0  0  0  0  0  0  0  0  0  0  0  0
  1  2  1  0  0  0  0
  1 21  1  0  0  0  0
  1 22  1  0  0  0  0
  1 23  1  0  0  0  0
  2  3  1  0  0  0  0
  3 20  1  0  0  0  0
  3  4  2  0  0  0  0
  4  5  1  0  0  0  0
  4 24  1  0  0  0  0
  5  6  2  0  0  0  0
  5 25  1  0  0  0  0
  6  7  1  0  0  0  0
  6 19  1  0  0  0  0
  7  8  1  0  0  0  0
  7 26  1  0  0  0  0
  8  9  2  0  0  0  0
  8 10  1  0  0  0  0
 10 11  1  0  0  0  0
 10 27  1  0  0  0  0
 11 15  1  0  0  0  0
 11 12  1  0  0  0  0
 11 28  1  0  0  0  0
 12 13  1  0  0  0  0
 12 29  1  0  0  0  0
 12 30  1  0  0  0  0
 13 14  1  0  0  0  0
 13 31  1  0  0  0  0
 13 32  1  0  0  0  0
 14 15  1  0  0  0  0
 14 33  1  0  0  0  0
 14 34  1  0  0  0  0
 15 16  1  0  0  0  0
 15 35  1  0  0  0  0
 16 17  1  0  0  0  0
 16 18  2  0  0  0  0
 17 36  1  0  0  0  0
 17 37  1  0  0  0  0
 19 20  2  0  0  0  0
 19 38  1  0  0  0  0
M  END
> <s_m_source_file>
AV-unprocessed.smi

> <i_m_source_file_index>
668

> <i_lp_mmshare_version>
43012

> <i_f3d_flags>
0

> <s_epik_input>
W0NIM11PYzFbY0hdW2NIXWMoW2NIXW4xKVtOSF1DKD1PKVtOSF1bQ0BASF0yW0NIMl1bQ0gyXVtDSDJdW0NASF0yQyg9TylbTkgyXQ==

> <s_epik_cmdline>
J2VwaWtfcHl0aG9uJywgJy1waCcsICc3LjAnLCAnLXRuJywgJzgnLCAnLW1hJywgJzIwMCcsICctbWV0YWxfYmluZGluZycsICctaW1hZScsICc8aW5maWxlLm1hZT4nLCAnLW9tYWUnLCAnPG91dGZpbGUubWFlPic=

> <r_lp_tautomer_probability>
1

> <r_epik_Ionization_Penalty>
9.0916e-05

> <r_epik_Ionization_Penalty_Charging>
0

> <r_epik_Ionization_Penalty_Neutral>
9.0916e-05

> <r_epik_State_Penalty>
-0

> <r_epik_Charging_Adjusted_Penalty>
0

> <i_epik_Tot_Q>
0

> <i_epik_Tot_abs_Q>
0

> <r_epik_Metal_State_Penalty>
-0

> <b_epik_Metal_Only>
0

> <s_lp_Force_Field>
OPLS_2005

> <r_lp_Energy>
17.404

> <b_lp_Chiralities_Consistent>
1

> <s_lp_Variant>
AV-unprocessed.smi:668-4

> <Gold.Version>
5.8.1

> <Gold.Id.Protein>
6NUR|6NUR_protein|mol2

> <Gold.PLP.Fitness>
40.2876

> <Gold.PLP.PLP>
-32.7368

> <Gold.PLP.part.hbond>
-2.8253

> <Gold.PLP.part.metal>
0.0000

> <Gold.PLP.part.buried>
-4.2734

> <Gold.PLP.part.nonpolar>
-26.8045

> <Gold.PLP.part.repulsive>
1.0141

> <Gold.PLP.ligand.clash>
0.0000

> <Gold.PLP.ligand.torsion>
0.5011

> <Gold.PLP.Chemscore.Hbond>
2.8500

> <Gold.PLP.Chemscore.CHOScore>
0.0000

> <Gold.PLP.Chemscore.Metal>
0.0000

> <Gold.Chemscore.Hbonds>
donor molecule, donor type, donor heavy atom, donor atom, acceptor molecule, acceptor atom, score
      L1  H     7    26       P1  7948  1.00
      L1  H    10    27       P1  7948  0.96
      L1  H    17    37       P1  7957  1.00

> <Gold.PLP.Chemscore.Internal.Correction>
0.0031

> <Gold.Rescore>
     Score         DG    S(hbond)    S(metal)    S(lipo)     H(rot)  DE(clash)    DE(int)     intcor
     11.45     -15.05       2.09        0.00      62.93       1.86       1.38       2.21       ----

> <Gold.Chemscore.Fitness>
11.4507

> <Gold.Chemscore.DG>
-15.0475

> <Gold.Chemscore.ZeroCoef>
-5.4800

> <Gold.Chemscore.Hbond>
2.0894

> <Gold.Chemscore.Metal>
0.0000

> <Gold.Chemscore.Lipo>
62.9294

> <Gold.Chemscore.Internal_Hbond>
0.0000

> <Gold.Chemscore.DEClash>
1.3846

> <Gold.Chemscore.DEInternal>
2.2121

> <Gold.Chemscore.Rot>
1.8648

> <Gold.Chemscore.Internal.Correction>
   9.000000E+99

> <Gold.Chemscore.Hbonds>
donor molecule, donor type, donor heavy atom, donor atom, acceptor molecule, acceptor atom, score
      L1  H     7    26       P1  7948  0.25
      L1  H    10    27       P1  7948  0.82
      L1  H    17    37       P1  7957  0.98

> <Gold.Chemscore.Hbond.Weighted>
-6.9786

> <Gold.Chemscore.Metal.Weighted>
-0.0000

> <Gold.Chemscore.Lipo.Weighted>
-7.3627

> <Gold.Chemscore.Internal_Hbond.Weighted>
0.0000

> <Gold.Chemscore.DEClash.Weighted>
1.3846

> <Gold.Chemscore.DEInternal.Weighted>
2.2121

> <Gold.Chemscore.Rot.Weighted>
4.7739

> <Gold.Chemscore.Internal.Correction.Weighted>
   9.000000E+99

> <Gold.Protein.RotatedTorsions>
[ 6907 6896 6895 6894 ] final   76.92 input  -60.11 | X-H torsion
[ 7974 7965 7964 7962 ] final   -3.97 input  175.53 | X-H torsion
[ 8008 7997 7996 7995 ] final   98.59 input   59.86 | X-H torsion
[ 10167 10162 10161 10158 ] final -170.07 input  -65.29 | X-H torsion
[ 10718 10713 10712 10709 ] final  108.15 input   66.30 | X-H torsion
[ 10763 10752 10751 10750 ] final -142.78 input  -60.55 | X-H torsion
[ 11005 11000 10999 10996 ] final  -38.29 input  -57.11 | X-H torsion

> <Gold.Protein.ActiveResidues>
 VAL166  LYS551  ARG553  GLY616  TRP617  ASP618  TYR619  PRO620  LYS621  CYS622 
 ASP623  PHE694  ASN695  SER759  ASP760  ASP761  ALA762  ILE779  LEU786  VAL792 
 PHE793  MET794  SER795  GLU796  ALA797  LYS798  CYS799  TRP800  GLU811  SER814 

> <Gold.Protein.RotatedAtoms>
  152.5094  134.3896  159.9379 H   0  0  0  0  0  0  0  0  0  0  0  0  # atno 6907 bound_to 6896
  151.3856  133.3800  159.2723 H   0  0  0  0  0  0  0  0  0  0  0  0  # atno 6908 bound_to 6896
  150.9472  134.8896  159.7708 H   0  0  0  0  0  0  0  0  0  0  0  0  # atno 6909 bound_to 6896
  146.2380  140.1800  142.8332 H   0  0  0  0  0  0  0  0  0  0  0  0  # atno 7974 bound_to 7965
  156.1019  140.3241  155.7954 H   0  0  0  0  0  0  0  0  0  0  0  0  # atno 8008 bound_to 7997
  155.4821  140.0555  157.2983 H   0  0  0  0  0  0  0  0  0  0  0  0  # atno 8009 bound_to 7997
  154.4702  140.2008  156.0028 H   0  0  0  0  0  0  0  0  0  0  0  0  # atno 8010 bound_to 7997
  139.5884  144.1268  152.1604 H   0  0  0  0  0  0  0  0  0  0  0  0  # atno 10167 bound_to 10162
  157.6599  131.0887  150.6262 H   0  0  0  0  0  0  0  0  0  0  0  0  # atno 10718 bound_to 10713
  154.8495  135.3486  154.6083 H   0  0  0  0  0  0  0  0  0  0  0  0  # atno 10763 bound_to 10752
  153.6692  135.6986  153.5157 H   0  0  0  0  0  0  0  0  0  0  0  0  # atno 10764 bound_to 10752
  153.2756  135.4279  155.0987 H   0  0  0  0  0  0  0  0  0  0  0  0  # atno 10765 bound_to 10752
  141.0016  133.6952  156.2033 H   0  0  0  0  0  0  0  0  0  0  0  0  # atno 11005 bound_to 11000
  144.9942  140.8574  143.5321 LP  0  0  0  0  0  0  0  0  0  0  0  0  # atno 17320 bound_to 7965
  145.1810  139.2351  143.5292 LP  0  0  0  0  0  0  0  0  0  0  0  0  # atno 17321 bound_to 7965
  140.0836  144.5679  150.7104 LP  0  0  0  0  0  0  0  0  0  0  0  0  # atno 17342 bound_to 10162
  140.7151  143.2538  151.4458 LP  0  0  0  0  0  0  0  0  0  0  0  0  # atno 17343 bound_to 10162
  156.6565  130.4500  149.5702 LP  0  0  0  0  0  0  0  0  0  0  0  0  # atno 17370 bound_to 10713
  156.2098  130.6672  151.1258 LP  0  0  0  0  0  0  0  0  0  0  0  0  # atno 17371 bound_to 10713
  140.6880  134.4697  157.5589 LP  0  0  0  0  0  0  0  0  0  0  0  0  # atno 17394 bound_to 11000
  139.9042  134.8487  156.1773 LP  0  0  0  0  0  0  0  0  0  0  0  0  # atno 17395 bound_to 11000

$$$$
