AV-unprocessed.smi:1047|AV-procd|sdf|4598|dock1
  -GOLD-   22720 3 83D 1   1.00000     0.00000
 Structure written by MMmdl.
 57 59  0  0  0  0  0  0  0  0  3 V2000
  143.6436  132.8764  151.3875 C   0  0  0  0  0  0  0  0  0  0  0  0
  144.1763  133.9851  152.3062 C   0  0  0  0  0  0  0  0  0  0  0  0
  144.8396  133.4476  153.5240 N   0  3  1  0  0  0  0  0  0  0  0  0
  145.8460  132.3973  153.2335 C   0  0  0  0  0  0  0  0  0  0  0  0
  147.1612  133.0132  152.7235 C   0  0  0  0  0  0  0  0  0  0  0  0
  147.6466  133.9495  153.6782 O   0  0  0  0  0  0  0  0  0  0  0  0
  146.7496  135.0356  153.8852 C   0  0  2  0  0  0  0  0  0  0  0  0
  147.4218  136.0121  154.8633 C   0  0  0  0  0  0  0  0  0  0  0  0
  148.6406  136.5823  154.2958 N   0  0  0  0  0  0  0  0  0  0  0  0
  149.3991  137.3913  155.2462 C   0  0  0  0  0  0  0  0  0  0  0  0
  150.6757  137.9587  154.6028 C   0  0  2  0  0  0  0  0  0  0  0  0
  151.4245  136.8782  154.0820 O   0  0  0  0  0  0  0  0  0  0  0  0
  151.5347  138.7295  155.6255 C   0  0  0  0  0  0  0  0  0  0  0  0
  151.0200  140.0775  155.9095 N   0  0  0  0  0  0  0  0  0  0  0  0
  150.1055  140.8188  155.2273 C   0  0  0  0  0  0  0  0  0  0  0  0
  149.9592  142.0007  155.8872 N   0  3  0  0  0  0  0  0  0  0  0  0
  150.7933  142.0159  157.0070 C   0  0  0  0  0  0  0  0  0  0  0  0
  150.9959  142.9903  157.9773 C   0  0  0  0  0  0  0  0  0  0  0  0
  151.9278  142.6995  158.9989 C   0  0  0  0  0  0  0  0  0  0  0  0
  152.1750  143.7442  160.0740 C   0  0  0  0  0  0  0  0  0  0  0  0
  152.6213  141.4619  159.0234 C   0  0  0  0  0  0  0  0  0  0  0  0
  153.6253  141.1616  160.1233 C   0  0  0  0  0  0  0  0  0  0  0  0
  152.3993  140.4831  158.0284 C   0  0  0  0  0  0  0  0  0  0  0  0
  151.4775  140.7849  157.0283 C   0  0  0  0  0  0  0  0  0  0  0  0
  145.4141  134.4765  154.4290 C   0  0  0  0  0  0  0  0  0  0  0  0
  143.2578  133.3020  150.4607 H   0  0  0  0  0  0  0  0  0  0  0  0
  142.8287  132.3179  151.8471 H   0  0  0  0  0  0  0  0  0  0  0  0
  144.4311  132.1703  151.1219 H   0  0  0  0  0  0  0  0  0  0  0  0
  144.9036  134.5636  151.7352 H   0  0  0  0  0  0  0  0  0  0  0  0
  143.3762  134.6768  152.5684 H   0  0  0  0  0  0  0  0  0  0  0  0
  146.0411  131.8453  154.1540 H   0  0  0  0  0  0  0  0  0  0  0  0
  145.4536  131.6720  152.5201 H   0  0  0  0  0  0  0  0  0  0  0  0
  147.9100  132.2333  152.5852 H   0  0  0  0  0  0  0  0  0  0  0  0
  147.0256  133.4956  151.7545 H   0  0  0  0  0  0  0  0  0  0  0  0
  146.5970  135.5471  152.9336 H   0  0  0  0  0  0  0  0  0  0  0  0
  146.7229  136.8016  155.1423 H   0  0  0  0  0  0  0  0  0  0  0  0
  147.6698  135.4796  155.7823 H   0  0  0  0  0  0  0  0  0  0  0  0
  148.4110  137.1417  153.4807 H   0  0  0  0  0  0  0  0  0  0  0  0
  148.7725  138.2194  155.5799 H   0  0  0  0  0  0  0  0  0  0  0  0
  149.6460  136.8137  156.1384 H   0  0  0  0  0  0  0  0  0  0  0  0
  150.4143  138.6313  153.7843 H   0  0  0  0  0  0  0  0  0  0  0  0
  150.8677  136.3820  153.5013 H   0  0  0  0  0  0  0  0  0  0  0  0
  151.5511  138.1906  156.5736 H   0  0  0  0  0  0  0  0  0  0  0  0
  152.5725  138.8014  155.2994 H   0  0  0  0  0  0  0  0  0  0  0  0
  149.5880  140.5224  154.3262 H   0  0  0  0  0  0  0  0  0  0  0  0
  150.4655  143.9311  157.9508 H   0  0  0  0  0  0  0  0  0  0  0  0
  153.2192  144.0574  160.0697 H   0  0  0  0  0  0  0  0  0  0  0  0
  151.9367  143.3443  161.0599 H   0  0  0  0  0  0  0  0  0  0  0  0
  151.5603  144.6313  159.9178 H   0  0  0  0  0  0  0  0  0  0  0  0
  154.0704  140.1738  159.9987 H   0  0  0  0  0  0  0  0  0  0  0  0
  153.1429  141.1883  161.1008 H   0  0  0  0  0  0  0  0  0  0  0  0
  154.4329  141.8938  160.1147 H   0  0  0  0  0  0  0  0  0  0  0  0
  152.9329  139.5442  158.0439 H   0  0  0  0  0  0  0  0  0  0  0  0
  144.7000  135.2789  154.6086 H   0  0  0  0  0  0  0  0  0  0  0  0
  145.5887  134.0091  155.3990 H   0  0  0  0  0  0  0  0  0  0  0  0
  144.1039  132.9872  154.0411 H   0  0  0  0  0  0  0  0  0  0  0  0
  149.3351  142.7410  155.5925 H   0  0  0  0  0  0  0  0  0  0  0  0
  1  2  1  0  0  0  0
  1 26  1  0  0  0  0
  1 27  1  0  0  0  0
  1 28  1  0  0  0  0
  2  3  1  0  0  0  0
  2 29  1  0  0  0  0
  2 30  1  0  0  0  0
  3 25  1  0  0  0  0
  3  4  1  0  0  0  0
  3 56  1  0  0  0  0
  4  5  1  0  0  0  0
  4 31  1  0  0  0  0
  4 32  1  0  0  0  0
  5  6  1  0  0  0  0
  5 33  1  0  0  0  0
  5 34  1  0  0  0  0
  6  7  1  0  0  0  0
  7  8  1  0  0  0  0
  7 25  1  0  0  0  0
  7 35  1  0  0  0  0
  8  9  1  0  0  0  0
  8 36  1  0  0  0  0
  8 37  1  0  0  0  0
  9 10  1  0  0  0  0
  9 38  1  0  0  0  0
 10 11  1  0  0  0  0
 10 39  1  0  0  0  0
 10 40  1  0  0  0  0
 11 12  1  0  0  0  0
 11 13  1  0  0  0  0
 11 41  1  0  0  0  0
 12 42  1  0  0  0  0
 13 14  1  0  0  0  0
 13 43  1  0  0  0  0
 13 44  1  0  0  0  0
 14 24  1  0  0  0  0
 14 15  1  0  0  0  0
 15 16  2  0  0  0  0
 15 45  1  0  0  0  0
 16 17  1  0  0  0  0
 16 57  1  0  0  0  0
 17 24  2  0  0  0  0
 17 18  1  0  0  0  0
 18 19  2  0  0  0  0
 18 46  1  0  0  0  0
 19 20  1  0  0  0  0
 19 21  1  0  0  0  0
 20 47  1  0  0  0  0
 20 48  1  0  0  0  0
 20 49  1  0  0  0  0
 21 22  1  0  0  0  0
 21 23  2  0  0  0  0
 22 50  1  0  0  0  0
 22 51  1  0  0  0  0
 22 52  1  0  0  0  0
 23 24  1  0  0  0  0
 23 53  1  0  0  0  0
 25 54  1  0  0  0  0
 25 55  1  0  0  0  0
M  CHG  1   3   1
M  CHG  1  16   1
M  END
> <s_m_source_file>
AV-unprocessed.smi

> <i_m_source_file_index>
1047

> <i_lp_mmshare_version>
43012

> <i_f3d_flags>
0

> <s_epik_input>
W0NIM11bQ0gyXU4xW0NIMl1bQ0gyXU9bQ0BIXShbQ0gyXTEpW0NIMl1bTkhdW0NIMl1bQ0BIXShbT0hdKVtDSDJdbihbY0hdbjIpYyhjMjMpW2NIXWMoW0NIM10pYyhbY0hdMylbQ0gzXQ==

> <s_epik_cmdline>
J2VwaWtfcHl0aG9uJywgJy1waCcsICc3LjAnLCAnLXRuJywgJzgnLCAnLW1hJywgJzIwMCcsICctbWV0YWxfYmluZGluZycsICctaW1hZScsICc8aW5maWxlLm1hZT4nLCAnLW9tYWUnLCAnPG91dGZpbGUubWFlPic=

> <r_epik_Ionization_Penalty>
2.03028

> <r_epik_Ionization_Penalty_Charging>
1.21256

> <r_epik_Ionization_Penalty_Neutral>
0.817715

> <r_epik_State_Penalty>
2.54959

> <r_epik_Charging_Adjusted_Penalty>
3.76215

> <i_epik_Tot_Q>
2

> <i_epik_Tot_abs_Q>
2

> <r_epik_Metal_State_Penalty>
6.52811

> <b_epik_Metal_Only>
0

> <s_lp_Force_Field>
OPLS_2005

> <r_lp_Energy>
38.5552

> <b_lp_Chiralities_Consistent>
1

> <s_lp_Variant>
AV-unprocessed.smi:1047-39

> <Gold.Version>
5.8.1

> <Gold.Id.Protein>
6NUR|6NUR_protein|mol2

> <Gold.PLP.Fitness>
61.2177

> <Gold.PLP.PLP>
-45.1836

> <Gold.PLP.part.hbond>
-4.8625

> <Gold.PLP.part.metal>
0.0000

> <Gold.PLP.part.buried>
-5.2956

> <Gold.PLP.part.nonpolar>
-35.7685

> <Gold.PLP.part.repulsive>
0.2537

> <Gold.PLP.ligand.clash>
0.0000

> <Gold.PLP.ligand.torsion>
0.4003

> <Gold.PLP.Chemscore.Hbond>
5.5881

> <Gold.PLP.Chemscore.CHOScore>
0.0000

> <Gold.PLP.Chemscore.Metal>
0.0000

> <Gold.Chemscore.Hbonds>
donor molecule, donor type, donor heavy atom, donor atom, acceptor molecule, acceptor atom, score
      L1  H     3    56       P1 10957  2.00
      L1  H     9    38       P1  7948  0.21
      L1  H    12    42       P1  7949  0.41
      L1  H    16    57       P1  8028  1.89
      P1  H 10752 10763       L1    12  1.00

> <Gold.PLP.Chemscore.Internal.Correction>
0.0704

> <Gold.Rescore>
     Score         DG    S(hbond)    S(metal)    S(lipo)     H(rot)  DE(clash)    DE(int)     intcor
     20.10     -20.82       2.77        0.00     111.29       2.71       0.30       0.42       ----

> <Gold.Chemscore.Fitness>
20.1027

> <Gold.Chemscore.DG>
-20.8188

> <Gold.Chemscore.ZeroCoef>
-5.4800

> <Gold.Chemscore.Hbond>
2.7704

> <Gold.Chemscore.Metal>
0.0000

> <Gold.Chemscore.Lipo>
111.2854

> <Gold.Chemscore.Internal_Hbond>
0.0000

> <Gold.Chemscore.DEClash>
0.2961

> <Gold.Chemscore.DEInternal>
0.4200

> <Gold.Chemscore.Rot>
2.7088

> <Gold.Chemscore.Internal.Correction>
   9.000000E+99

> <Gold.Chemscore.Hbonds>
donor molecule, donor type, donor heavy atom, donor atom, acceptor molecule, acceptor atom, score
      L1  H     3    56       P1 10957  0.91
      L1  H     9    38       P1  7948  0.22
      L1  H    12    42       P1  7949  0.06
      L1  H    16    57       P1  8028  0.86
      P1  H 10752 10763       L1    12  0.38

> <Gold.Chemscore.Hbond.Weighted>
-9.2530

> <Gold.Chemscore.Metal.Weighted>
-0.0000

> <Gold.Chemscore.Lipo.Weighted>
-13.0204

> <Gold.Chemscore.Internal_Hbond.Weighted>
0.0000

> <Gold.Chemscore.DEClash.Weighted>
0.2961

> <Gold.Chemscore.DEInternal.Weighted>
0.4200

> <Gold.Chemscore.Rot.Weighted>
6.9346

> <Gold.Chemscore.Internal.Correction.Weighted>
   9.000000E+99

> <Gold.Protein.RotatedTorsions>
[ 6907 6896 6895 6894 ] final   83.72 input  -60.11 | X-H torsion
[ 7974 7965 7964 7962 ] final  116.87 input  175.53 | X-H torsion
[ 8008 7997 7996 7995 ] final   26.88 input   59.86 | X-H torsion
[ 10167 10162 10161 10158 ] final  -44.47 input  -65.29 | X-H torsion
[ 10718 10713 10712 10709 ] final  118.76 input   66.30 | X-H torsion
[ 10763 10752 10751 10750 ] final   53.81 input  -60.55 | X-H torsion
[ 11005 11000 10999 10996 ] final  156.64 input  -57.11 | X-H torsion

> <Gold.Protein.ActiveResidues>
 VAL166  LYS551  ARG553  GLY616  TRP617  ASP618  TYR619  PRO620  LYS621  CYS622 
 ASP623  PHE694  ASN695  SER759  ASP760  ASP761  ALA762  ILE779  LEU786  VAL792 
 PHE793  MET794  SER795  GLU796  ALA797  LYS798  CYS799  TRP800  GLU811  SER814 

> <Gold.Protein.RotatedAtoms>
  152.5334  134.2852  159.9022 H   0  0  0  0  0  0  0  0  0  0  0  0  # atno 6907 bound_to 6896
  151.2805  133.4205  159.2634 H   0  0  0  0  0  0  0  0  0  0  0  0  # atno 6908 bound_to 6896
  151.0287  134.9539  159.8156 H   0  0  0  0  0  0  0  0  0  0  0  0  # atno 6909 bound_to 6896
  145.1743  139.3084  143.4451 H   0  0  0  0  0  0  0  0  0  0  0  0  # atno 7974 bound_to 7965
  155.0342  140.3162  155.4747 H   0  0  0  0  0  0  0  0  0  0  0  0  # atno 8008 bound_to 7997
  156.2868  140.2175  156.5407 H   0  0  0  0  0  0  0  0  0  0  0  0  # atno 8009 bound_to 7997
  154.7345  140.0478  157.0744 H   0  0  0  0  0  0  0  0  0  0  0  0  # atno 8010 bound_to 7997
  140.6895  143.2928  151.3500 H   0  0  0  0  0  0  0  0  0  0  0  0  # atno 10167 bound_to 10162
  157.6008  131.1051  150.7801 H   0  0  0  0  0  0  0  0  0  0  0  0  # atno 10718 bound_to 10713
  152.9798  135.5766  154.4802 H   0  0  0  0  0  0  0  0  0  0  0  0  # atno 10763 bound_to 10752
  154.4352  135.2774  155.1887 H   0  0  0  0  0  0  0  0  0  0  0  0  # atno 10764 bound_to 10752
  154.3579  135.6195  153.5729 H   0  0  0  0  0  0  0  0  0  0  0  0  # atno 10765 bound_to 10752
  140.1694  134.8554  157.2672 H   0  0  0  0  0  0  0  0  0  0  0  0  # atno 11005 bound_to 11000
  146.3463  140.1900  142.8589 LP  0  0  0  0  0  0  0  0  0  0  0  0  # atno 17320 bound_to 7965
  145.0200  140.8786  143.5172 LP  0  0  0  0  0  0  0  0  0  0  0  0  # atno 17321 bound_to 7965
  139.6285  144.0767  152.2455 LP  0  0  0  0  0  0  0  0  0  0  0  0  # atno 17342 bound_to 10162
  140.0234  144.6136  150.7547 LP  0  0  0  0  0  0  0  0  0  0  0  0  # atno 17343 bound_to 10162
  156.8201  130.4981  149.5344 LP  0  0  0  0  0  0  0  0  0  0  0  0  # atno 17370 bound_to 10713
  156.1081  130.6020  151.0003 LP  0  0  0  0  0  0  0  0  0  0  0  0  # atno 17371 bound_to 10713
  140.2395  134.3812  155.7486 LP  0  0  0  0  0  0  0  0  0  0  0  0  # atno 17394 bound_to 11000
  141.2216  133.7257  156.8767 LP  0  0  0  0  0  0  0  0  0  0  0  0  # atno 17395 bound_to 11000

$$$$
