AV-unprocessed.smi:949|AV-procd|sdf|4247|dock5
  -GOLD-   22720 2153D 1   1.00000     0.00000
 Structure written by MMmdl.
 32 33  0  0  0  0  0  0  0  0  1 V2000
  151.9012  138.5059  154.7786 C   0  0  0  0  0  0  0  0  0  0  0  0
  150.6299  137.6445  154.8876 C   0  0  1  0  0  0  0  0  0  0  0  0
  149.6318  138.0820  153.9173 N   0  0  0  0  0  0  0  0  0  0  0  0
  148.8718  139.2550  154.0733 C   0  0  0  0  0  0  0  0  0  0  0  0
  149.2709  140.3214  154.9140 C   0  0  0  0  0  0  0  0  0  0  0  0
  148.4457  141.4588  155.0107 C   0  0  0  0  0  0  0  0  0  0  0  0
  147.2826  141.5927  154.3417 N   0  0  0  0  0  0  0  0  0  0  0  0
  146.9002  140.5768  153.5410 C   0  0  0  0  0  0  0  0  0  0  0  0
  147.6493  139.3934  153.3704 C   0  0  0  0  0  0  0  0  0  0  0  0
  147.1710  138.3944  152.5189 N   0  0  0  0  0  0  0  0  0  0  0  0
  150.9529  136.1516  154.6812 C   0  0  2  0  0  0  0  0  0  0  0  0
  149.7275  135.2333  154.6888 C   0  0  0  0  0  0  0  0  0  0  0  0
  150.3285  133.9166  155.1219 C   0  0  0  0  0  0  0  0  0  0  0  0
  151.3411  134.3751  156.1645 C   0  0  0  0  0  0  0  0  0  0  0  0
  151.7738  135.6658  155.7433 O   0  0  0  0  0  0  0  0  0  0  0  0
  152.6419  138.2116  155.5226 H   0  0  0  0  0  0  0  0  0  0  0  0
  151.6884  139.5629  154.9373 H   0  0  0  0  0  0  0  0  0  0  0  0
  152.3633  138.4069  153.7957 H   0  0  0  0  0  0  0  0  0  0  0  0
  150.2155  137.7495  155.8902 H   0  0  0  0  0  0  0  0  0  0  0  0
  149.4780  137.5076  153.1017 H   0  0  0  0  0  0  0  0  0  0  0  0
  150.1881  140.2933  155.4814 H   0  0  0  0  0  0  0  0  0  0  0  0
  148.7294  142.2852  155.6453 H   0  0  0  0  0  0  0  0  0  0  0  0
  145.9639  140.7140  153.0197 H   0  0  0  0  0  0  0  0  0  0  0  0
  147.6882  137.5383  152.3795 H   0  0  0  0  0  0  0  0  0  0  0  0
  146.2216  138.4118  152.1755 H   0  0  0  0  0  0  0  0  0  0  0  0
  151.5011  136.0069  153.7488 H   0  0  0  0  0  0  0  0  0  0  0  0
  148.9974  135.5692  155.4268 H   0  0  0  0  0  0  0  0  0  0  0  0
  149.2312  135.1773  153.7195 H   0  0  0  0  0  0  0  0  0  0  0  0
  149.5933  133.2163  155.5191 H   0  0  0  0  0  0  0  0  0  0  0  0
  150.8382  133.4418  154.2824 H   0  0  0  0  0  0  0  0  0  0  0  0
  150.8632  134.4733  157.1402 H   0  0  0  0  0  0  0  0  0  0  0  0
  152.1792  133.6853  156.2650 H   0  0  0  0  0  0  0  0  0  0  0  0
  1  2  1  0  0  0  0
  1 16  1  0  0  0  0
  1 17  1  0  0  0  0
  1 18  1  0  0  0  0
  2  3  1  0  0  0  0
  2 11  1  0  0  0  0
  2 19  1  0  0  0  0
  3  4  1  0  0  0  0
  3 20  1  0  0  0  0
  4  9  1  0  0  0  0
  4  5  2  0  0  0  0
  5  6  1  0  0  0  0
  5 21  1  0  0  0  0
  6  7  2  0  0  0  0
  6 22  1  0  0  0  0
  7  8  1  0  0  0  0
  8  9  2  0  0  0  0
  8 23  1  0  0  0  0
  9 10  1  0  0  0  0
 10 24  1  0  0  0  0
 10 25  1  0  0  0  0
 11 15  1  0  0  0  0
 11 12  1  0  0  0  0
 11 26  1  0  0  0  0
 12 13  1  0  0  0  0
 12 27  1  0  0  0  0
 12 28  1  0  0  0  0
 13 14  1  0  0  0  0
 13 29  1  0  0  0  0
 13 30  1  0  0  0  0
 14 15  1  0  0  0  0
 14 31  1  0  0  0  0
 14 32  1  0  0  0  0
M  END
> <s_m_source_file>
AV-unprocessed.smi

> <i_m_source_file_index>
949

> <i_lp_mmshare_version>
43012

> <i_f3d_flags>
0

> <s_epik_input>
TzFbQ0gyXVtDSDJdW0NIMl1bQ0BIXTFbQ0BIXShbQ0gzXSlbTkhdYzJbY0hdW2NIXW5bY0hdYzJbTkgyXQ==

> <s_epik_cmdline>
J2VwaWtfcHl0aG9uJywgJy1waCcsICc3LjAnLCAnLXRuJywgJzgnLCAnLW1hJywgJzIwMCcsICctbWV0YWxfYmluZGluZycsICctaW1hZScsICc8aW5maWxlLm1hZT4nLCAnLW9tYWUnLCAnPG91dGZpbGUubWFlPic=

> <r_epik_Ionization_Penalty>
3.88091

> <r_epik_Ionization_Penalty_Charging>
0

> <r_epik_Ionization_Penalty_Neutral>
3.88091

> <r_epik_State_Penalty>
3.88049

> <r_epik_Charging_Adjusted_Penalty>
3.88049

> <i_epik_Tot_Q>
0

> <i_epik_Tot_abs_Q>
0

> <r_epik_Metal_State_Penalty>
0.313783

> <b_epik_Metal_Only>
1

> <s_lp_Force_Field>
OPLS_2005

> <r_lp_Energy>
23.3849

> <b_lp_Chiralities_Consistent>
1

> <s_lp_Variant>
AV-unprocessed.smi:949-6

> <Gold.Version>
5.8.1

> <Gold.Id.Protein>
6NUR|6NUR_protein|mol2

> <Gold.PLP.Fitness>
40.9755

> <Gold.PLP.PLP>
-26.6684

> <Gold.PLP.part.hbond>
-3.2285

> <Gold.PLP.part.metal>
0.0000

> <Gold.PLP.part.buried>
0.2194

> <Gold.PLP.part.nonpolar>
-24.2284

> <Gold.PLP.part.repulsive>
0.2847

> <Gold.PLP.ligand.clash>
0.0000

> <Gold.PLP.ligand.torsion>
0.3526

> <Gold.PLP.Chemscore.Hbond>
3.0000

> <Gold.PLP.Chemscore.CHOScore>
2.0000

> <Gold.PLP.Chemscore.Metal>
0.0000

> <Gold.Chemscore.Hbonds>
donor molecule, donor type, donor heavy atom, donor atom, acceptor molecule, acceptor atom, score
      L1  H     3    20       P1  7948  1.00
      L1  H    10    24       P1  7948  1.00
      P1  H 10752 10764       L1    15  0.98
      L1  C     6    22       P1  8028  1.00
      L1  C     8    23       P1 10175  1.00

> <Gold.PLP.Chemscore.Internal.Correction>
0.0122

> <Gold.Rescore>
     Score         DG    S(hbond)    S(metal)    S(lipo)     H(rot)  DE(clash)    DE(int)     intcor
     18.43     -18.88       2.66        0.00      65.35       1.22       0.03       0.43       ----

> <Gold.Chemscore.Fitness>
18.4322

> <Gold.Chemscore.DG>
-18.8843

> <Gold.Chemscore.ZeroCoef>
-5.4800

> <Gold.Chemscore.Hbond>
2.6568

> <Gold.Chemscore.Metal>
0.0000

> <Gold.Chemscore.Lipo>
65.3477

> <Gold.Chemscore.Internal_Hbond>
0.0000

> <Gold.Chemscore.DEClash>
0.0256

> <Gold.Chemscore.DEInternal>
0.4264

> <Gold.Chemscore.Rot>
1.2169

> <Gold.Chemscore.Internal.Correction>
   9.000000E+99

> <Gold.Chemscore.Hbonds>
donor molecule, donor type, donor heavy atom, donor atom, acceptor molecule, acceptor atom, score
      L1  H     3    20       P1  7948  0.88
      L1  H    10    24       P1  7948  1.00
      P1  H 10752 10764       L1    15  0.27

> <Gold.Chemscore.Hbond.Weighted>
-8.8738

> <Gold.Chemscore.Metal.Weighted>
-0.0000

> <Gold.Chemscore.Lipo.Weighted>
-7.6457

> <Gold.Chemscore.Internal_Hbond.Weighted>
0.0000

> <Gold.Chemscore.DEClash.Weighted>
0.0256

> <Gold.Chemscore.DEInternal.Weighted>
0.4264

> <Gold.Chemscore.Rot.Weighted>
3.1152

> <Gold.Chemscore.Internal.Correction.Weighted>
   9.000000E+99

> <Gold.Protein.RotatedTorsions>
[ 6907 6896 6895 6894 ] final   70.45 input  -60.11 | X-H torsion
[ 7974 7965 7964 7962 ] final  -98.00 input  175.53 | X-H torsion
[ 8008 7997 7996 7995 ] final -164.10 input   59.86 | X-H torsion
[ 10167 10162 10161 10158 ] final  -49.51 input  -65.29 | X-H torsion
[ 10718 10713 10712 10709 ] final -155.62 input   66.30 | X-H torsion
[ 10763 10752 10751 10750 ] final  -19.44 input  -60.55 | X-H torsion
[ 11005 11000 10999 10996 ] final  161.98 input  -57.11 | X-H torsion

> <Gold.Protein.ActiveResidues>
 VAL166  LYS551  ARG553  GLY616  TRP617  ASP618  TYR619  PRO620  LYS621  CYS622 
 ASP623  PHE694  ASN695  SER759  ASP760  ASP761  ALA762  ILE779  LEU786  VAL792 
 PHE793  MET794  SER795  GLU796  ALA797  LYS798  CYS799  TRP800  GLU811  SER814 

> <Gold.Protein.RotatedAtoms>
  152.4750  134.4867  159.9682 H   0  0  0  0  0  0  0  0  0  0  0  0  # atno 6907 bound_to 6896
  151.4885  133.3524  159.2857 H   0  0  0  0  0  0  0  0  0  0  0  0  # atno 6908 bound_to 6896
  150.8783  134.8196  159.7267 H   0  0  0  0  0  0  0  0  0  0  0  0  # atno 6909 bound_to 6896
  145.3264  140.9432  143.2686 H   0  0  0  0  0  0  0  0  0  0  0  0  # atno 7974 bound_to 7965
  155.8308  140.0933  157.1793 H   0  0  0  0  0  0  0  0  0  0  0  0  # atno 8008 bound_to 7997
  154.3980  140.1419  156.3673 H   0  0  0  0  0  0  0  0  0  0  0  0  # atno 8009 bound_to 7997
  155.8167  140.3448  155.5492 H   0  0  0  0  0  0  0  0  0  0  0  0  # atno 8010 bound_to 7997
  140.6682  143.2695  151.4225 H   0  0  0  0  0  0  0  0  0  0  0  0  # atno 10167 bound_to 10162
  156.5153  130.8453  151.2662 H   0  0  0  0  0  0  0  0  0  0  0  0  # atno 10718 bound_to 10713
  153.6048  135.6998  153.5370 H   0  0  0  0  0  0  0  0  0  0  0  0  # atno 10763 bound_to 10752
  153.3066  135.4113  155.1299 H   0  0  0  0  0  0  0  0  0  0  0  0  # atno 10764 bound_to 10752
  154.8575  135.3662  154.5584 H   0  0  0  0  0  0  0  0  0  0  0  0  # atno 10765 bound_to 10752
  140.2212  134.8195  157.3222 H   0  0  0  0  0  0  0  0  0  0  0  0  # atno 11005 bound_to 11000
  144.8898  139.4789  143.6683 LP  0  0  0  0  0  0  0  0  0  0  0  0  # atno 17320 bound_to 7965
  146.3062  139.7590  142.9054 LP  0  0  0  0  0  0  0  0  0  0  0  0  # atno 17321 bound_to 7965
  139.5939  144.1440  152.2120 LP  0  0  0  0  0  0  0  0  0  0  0  0  # atno 17342 bound_to 10162
  140.0803  144.5706  150.7127 LP  0  0  0  0  0  0  0  0  0  0  0  0  # atno 17343 bound_to 10162
  157.7445  130.9936  150.2676 LP  0  0  0  0  0  0  0  0  0  0  0  0  # atno 17370 bound_to 10713
  156.3201  130.3784  149.7583 LP  0  0  0  0  0  0  0  0  0  0  0  0  # atno 17371 bound_to 10713
  140.1848  134.4445  155.7750 LP  0  0  0  0  0  0  0  0  0  0  0  0  # atno 17394 bound_to 11000
  141.2223  133.7000  156.7928 LP  0  0  0  0  0  0  0  0  0  0  0  0  # atno 17395 bound_to 11000

$$$$
