AV-unprocessed.smi:101|AV-procd|sdf|933|dock3
  -GOLD-   2262017453D 1   1.00000     0.00000
 Structure written by MMmdl.
 43 45  0  0  0  0  0  0  0  0  2 V2000
  147.5849  135.4767  156.4844 C   0  0  0  0  0  0  0  0  0  0  0  0
  148.8296  136.1084  155.8856 C   0  0  0  0  0  0  0  0  0  0  0  0
  148.8170  137.3392  155.3269 C   0  0  0  0  0  0  0  0  0  0  0  0
  149.9531  137.9118  154.7762 N   0  0  0  0  0  0  0  0  0  0  0  0
  149.9425  139.3066  154.1687 C   0  0  2  0  0  0  0  0  0  0  0  0
  150.8792  140.1198  154.8102 O   0  0  0  0  0  0  0  0  0  0  0  0
  150.2438  140.8509  155.8496 C   0  0  1  0  0  0  0  0  0  0  0  0
  151.0914  142.0795  156.2024 C   0  0  0  0  0  0  0  0  0  0  0  0
  151.4102  142.0512  157.5841 O   0  0  0  0  0  0  0  0  0  0  0  0
  152.2692  141.1315  158.0633 C   0  0  0  0  0  0  0  0  0  0  0  0
  152.6082  140.1236  157.4396 O   0  0  0  0  0  0  0  0  0  0  0  0
  152.7665  141.4613  159.4303 C   0  0  0  0  0  0  0  0  0  0  0  0
  153.5949  140.5369  160.1086 C   0  0  0  0  0  0  0  0  0  0  0  0
  154.0763  140.8198  161.4017 C   0  0  0  0  0  0  0  0  0  0  0  0
  153.7354  142.0303  162.0325 C   0  0  0  0  0  0  0  0  0  0  0  0
  152.9134  142.9588  161.3677 C   0  0  0  0  0  0  0  0  0  0  0  0
  152.4315  142.6784  160.0741 C   0  0  0  0  0  0  0  0  0  0  0  0
  148.8699  141.1798  155.2623 C   0  0  2  0  0  0  0  0  0  0  0  0
  147.9061  141.2712  156.2931 O   0  0  0  0  0  0  0  0  0  0  0  0
  148.5679  139.9912  154.3497 C   0  0  1  0  0  0  0  0  0  0  0  0
  148.0513  140.4496  153.1166 O   0  0  0  0  0  0  0  0  0  0  0  0
  151.1875  137.2124  154.8524 C   0  0  0  0  0  0  0  0  0  0  0  0
  152.1943  137.7687  154.4138 O   0  0  0  0  0  0  0  0  0  0  0  0
  151.2083  135.9666  155.4053 N   0  5  0  0  0  0  0  0  0  0  0  0
  150.0956  135.3673  155.9162 C   0  0  0  0  0  0  0  0  0  0  0  0
  150.1254  134.2362  156.4003 O   0  0  0  0  0  0  0  0  0  0  0  0
  146.7249  136.1426  156.4077 H   0  0  0  0  0  0  0  0  0  0  0  0
  147.7424  135.2485  157.5391 H   0  0  0  0  0  0  0  0  0  0  0  0
  147.3420  134.5501  155.9637 H   0  0  0  0  0  0  0  0  0  0  0  0
  147.8844  137.8809  155.3258 H   0  0  0  0  0  0  0  0  0  0  0  0
  150.2391  139.1548  153.1293 H   0  0  0  0  0  0  0  0  0  0  0  0
  150.1407  140.2012  156.7202 H   0  0  0  0  0  0  0  0  0  0  0  0
  152.0167  142.0722  155.6252 H   0  0  0  0  0  0  0  0  0  0  0  0
  150.5542  142.9944  155.9483 H   0  0  0  0  0  0  0  0  0  0  0  0
  153.8693  139.6002  159.6451 H   0  0  0  0  0  0  0  0  0  0  0  0
  154.7079  140.1061  161.9100 H   0  0  0  0  0  0  0  0  0  0  0  0
  154.1039  142.2461  163.0245 H   0  0  0  0  0  0  0  0  0  0  0  0
  152.6515  143.8889  161.8503 H   0  0  0  0  0  0  0  0  0  0  0  0
  151.8034  143.4135  159.5921 H   0  0  0  0  0  0  0  0  0  0  0  0
  148.9108  142.1126  154.6972 H   0  0  0  0  0  0  0  0  0  0  0  0
  147.8984  142.1598  156.6146 H   0  0  0  0  0  0  0  0  0  0  0  0
  147.8590  139.3007  154.8096 H   0  0  0  0  0  0  0  0  0  0  0  0
  148.7225  140.3567  152.4583 H   0  0  0  0  0  0  0  0  0  0  0  0
  1  2  1  0  0  0  0
  1 27  1  0  0  0  0
  1 28  1  0  0  0  0
  1 29  1  0  0  0  0
  2 25  1  0  0  0  0
  2  3  2  0  0  0  0
  3  4  1  0  0  0  0
  3 30  1  0  0  0  0
  4  5  1  0  0  0  0
  4 22  1  0  0  0  0
  5 20  1  0  0  0  0
  5  6  1  0  0  0  0
  5 31  1  0  0  0  0
  6  7  1  0  0  0  0
  7  8  1  0  0  0  0
  7 18  1  0  0  0  0
  7 32  1  0  0  0  0
  8  9  1  0  0  0  0
  8 33  1  0  0  0  0
  8 34  1  0  0  0  0
  9 10  1  0  0  0  0
 10 11  2  0  0  0  0
 10 12  1  0  0  0  0
 12 17  1  0  0  0  0
 12 13  2  0  0  0  0
 13 14  1  0  0  0  0
 13 35  1  0  0  0  0
 14 15  2  0  0  0  0
 14 36  1  0  0  0  0
 15 16  1  0  0  0  0
 15 37  1  0  0  0  0
 16 17  2  0  0  0  0
 16 38  1  0  0  0  0
 17 39  1  0  0  0  0
 18 19  1  0  0  0  0
 18 20  1  0  0  0  0
 18 40  1  0  0  0  0
 19 41  1  0  0  0  0
 20 21  1  0  0  0  0
 20 42  1  0  0  0  0
 21 43  1  0  0  0  0
 22 23  2  0  0  0  0
 22 24  1  0  0  0  0
 24 25  1  0  0  0  0
 25 26  2  0  0  0  0
M  CHG  1  24  -1
M  END
> <s_m_source_file>
AV-unprocessed.smi

> <i_m_source_file_index>
101

> <i_lp_mmshare_version>
43012

> <i_f3d_flags>
0

> <s_epik_input>
Tz1jMVtuSF1jKD1PKW4oW2NIXWMxW0NIM10pW0NAQEhdMk9bQ0BIXShbQ0BASF0oW09IXSlbQ0BIXTJbT0hdKVtDSDJdT0MoPU8pYzNbY0hdW2NIXVtjSF1bY0hdW2NIXTM=

> <s_epik_cmdline>
J2VwaWtfcHl0aG9uJywgJy1waCcsICc3LjAnLCAnLXRuJywgJzgnLCAnLW1hJywgJzIwMCcsICctbWV0YWxfYmluZGluZycsICctaW1hZScsICc8aW5maWxlLm1hZT4nLCAnLW9tYWUnLCAnPG91dGZpbGUubWFlPic=

> <r_lp_tautomer_probability>
0.999537

> <r_epik_Ionization_Penalty>
3.21006

> <r_epik_Ionization_Penalty_Charging>
5.75142e-08

> <r_epik_Ionization_Penalty_Neutral>
3.21006

> <r_epik_State_Penalty>
3.20925

> <r_epik_Charging_Adjusted_Penalty>
3.20925

> <i_epik_Tot_Q>
-1

> <i_epik_Tot_abs_Q>
1

> <r_epik_Metal_State_Penalty>
0.119957

> <b_epik_Metal_Only>
1

> <s_epik_Chemistry_Notes>
This compound has an ester and may undergo hydrolysis at high or low pH. This compound contains an acetal/aminal-like group ( X-CH(R)-Y where X, Y are N, S, or O) that may be acid/base labile, releasing an aldehyde.

> <s_lp_Force_Field>
OPLS_2005

> <r_lp_Energy>
40.7876

> <b_lp_Chiralities_Consistent>
1

> <s_lp_Variant>
AV-unprocessed.smi:101-21

> <Gold.Version>
5.8.1

> <Gold.Id.Protein>
6NUR|6NUR_protein|mol2

> <Gold.PLP.Fitness>
59.7112

> <Gold.PLP.PLP>
-46.6270

> <Gold.PLP.part.hbond>
-4.8051

> <Gold.PLP.part.metal>
0.0000

> <Gold.PLP.part.buried>
-7.3774

> <Gold.PLP.part.nonpolar>
-34.5658

> <Gold.PLP.part.repulsive>
0.3193

> <Gold.PLP.ligand.clash>
0.0000

> <Gold.PLP.ligand.torsion>
1.0377

> <Gold.PLP.Chemscore.Hbond>
5.0000

> <Gold.PLP.Chemscore.CHOScore>
0.0000

> <Gold.PLP.Chemscore.Metal>
0.0000

> <Gold.Chemscore.Hbonds>
donor molecule, donor type, donor heavy atom, donor atom, acceptor molecule, acceptor atom, score
      L1  H    21    43       P1  7957  1.00
      P1  H  7989  7998       L1     6  1.00
      P1  H  7997  8008       L1    11  1.00
      P1  H 10752 10765       L1    24  1.80

> <Gold.PLP.Chemscore.Internal.Correction>
0.1597

> <Gold.Rescore>
     Score         DG    S(hbond)    S(metal)    S(lipo)     H(rot)  DE(clash)    DE(int)     intcor
     15.96     -19.75       3.60        0.00      90.70       3.27       0.13       3.66       ----

> <Gold.Chemscore.Fitness>
15.9615

> <Gold.Chemscore.DG>
-19.7484

> <Gold.Chemscore.ZeroCoef>
-5.4800

> <Gold.Chemscore.Hbond>
3.5977

> <Gold.Chemscore.Metal>
0.0000

> <Gold.Chemscore.Lipo>
90.6988

> <Gold.Chemscore.Internal_Hbond>
0.0000

> <Gold.Chemscore.DEClash>
0.1300

> <Gold.Chemscore.DEInternal>
3.6569

> <Gold.Chemscore.Rot>
3.2656

> <Gold.Chemscore.Internal.Correction>
   9.000000E+99

> <Gold.Chemscore.Hbonds>
donor molecule, donor type, donor heavy atom, donor atom, acceptor molecule, acceptor atom, score
      L1  H    21    43       P1  7957  0.98
      P1  H  7989  7998       L1     6  0.34
      P1  H  7997  8008       L1    11  0.91
      P1  H 10752 10765       L1    24  0.17

> <Gold.Chemscore.Hbond.Weighted>
-12.0165

> <Gold.Chemscore.Metal.Weighted>
-0.0000

> <Gold.Chemscore.Lipo.Weighted>
-10.6118

> <Gold.Chemscore.Internal_Hbond.Weighted>
0.0000

> <Gold.Chemscore.DEClash.Weighted>
0.1300

> <Gold.Chemscore.DEInternal.Weighted>
3.6569

> <Gold.Chemscore.Rot.Weighted>
8.3598

> <Gold.Chemscore.Internal.Correction.Weighted>
   9.000000E+99

> <Gold.Protein.RotatedTorsions>
[ 6907 6896 6895 6894 ] final -140.31 input  -60.11 | X-H torsion
[ 7974 7965 7964 7962 ] final  170.64 input  175.53 | X-H torsion
[ 8008 7997 7996 7995 ] final  -62.57 input   59.86 | X-H torsion
[ 10167 10162 10161 10158 ] final   88.29 input  -65.29 | X-H torsion
[ 10718 10713 10712 10709 ] final -153.32 input   66.30 | X-H torsion
[ 10763 10752 10751 10750 ] final -154.30 input  -60.55 | X-H torsion
[ 11005 11000 10999 10996 ] final  -96.61 input  -57.11 | X-H torsion

> <Gold.Protein.ActiveResidues>
 VAL166  LYS551  ARG553  GLY616  TRP617  ASP618  TYR619  PRO620  LYS621  CYS622 
 ASP623  PHE694  ASN695  SER759  ASP760  ASP761  ALA762  ILE779  LEU786  VAL792 
 PHE793  MET794  SER795  GLU796  ALA797  LYS798  CYS799  TRP800  GLU811  SER814 

> <Gold.Protein.RotatedAtoms>
  151.0590  133.5560  159.2635 H   0  0  0  0  0  0  0  0  0  0  0  0  # atno 6907 bound_to 6896
  151.2542  135.0631  159.9083 H   0  0  0  0  0  0  0  0  0  0  0  0  # atno 6908 bound_to 6896
  152.5394  134.0346  159.8094 H   0  0  0  0  0  0  0  0  0  0  0  0  # atno 6909 bound_to 6896
  144.7318  139.9232  143.6421 H   0  0  0  0  0  0  0  0  0  0  0  0  # atno 7974 bound_to 7965
  154.4507  140.0993  156.6608 H   0  0  0  0  0  0  0  0  0  0  0  0  # atno 8008 bound_to 7997
  155.5295  140.3481  155.4405 H   0  0  0  0  0  0  0  0  0  0  0  0  # atno 8009 bound_to 7997
  156.0674  140.1341  156.9858 H   0  0  0  0  0  0  0  0  0  0  0  0  # atno 8010 bound_to 7997
  139.8688  144.6504  150.8973 H   0  0  0  0  0  0  0  0  0  0  0  0  # atno 10167 bound_to 10162
  156.4843  130.8318  151.2543 H   0  0  0  0  0  0  0  0  0  0  0  0  # atno 10718 bound_to 10713
  154.7868  135.3193  154.7867 H   0  0  0  0  0  0  0  0  0  0  0  0  # atno 10763 bound_to 10752
  153.8566  135.6857  153.4791 H   0  0  0  0  0  0  0  0  0  0  0  0  # atno 10764 bound_to 10752
  153.1523  135.4694  154.9593 H   0  0  0  0  0  0  0  0  0  0  0  0  # atno 10765 bound_to 10752
  141.1406  133.8110  157.0595 H   0  0  0  0  0  0  0  0  0  0  0  0  # atno 11005 bound_to 11000
  146.0913  139.3903  143.0404 LP  0  0  0  0  0  0  0  0  0  0  0  0  # atno 17320 bound_to 7965
  145.7706  140.9898  143.1151 LP  0  0  0  0  0  0  0  0  0  0  0  0  # atno 17321 bound_to 7965
  140.7764  143.3681  151.1700 LP  0  0  0  0  0  0  0  0  0  0  0  0  # atno 17342 bound_to 10162
  139.7303  143.9082  152.3017 LP  0  0  0  0  0  0  0  0  0  0  0  0  # atno 17343 bound_to 10162
  157.7480  131.0034  150.3039 LP  0  0  0  0  0  0  0  0  0  0  0  0  # atno 17370 bound_to 10713
  156.3490  130.3828  149.7345 LP  0  0  0  0  0  0  0  0  0  0  0  0  # atno 17371 bound_to 10713
  140.0580  134.9770  157.1255 LP  0  0  0  0  0  0  0  0  0  0  0  0  # atno 17394 bound_to 11000
  140.3890  134.2205  155.7167 LP  0  0  0  0  0  0  0  0  0  0  0  0  # atno 17395 bound_to 11000

$$$$
