AV-unprocessed.smi:2001|AV-procd|sdf|8111|dock2
  -GOLD-   2272010343D 1   1.00000     0.00000
 Structure written by MMmdl.
 50 51  0  0  0  0  0  0  0  0  3 V2000
  147.4983  141.8871  153.7792 C   0  0  0  0  0  0  0  0  0  0  0  0
  148.8724  141.6462  154.0236 O   0  0  0  0  0  0  0  0  0  0  0  0
  149.0979  140.9857  155.2581 C   0  0  0  0  0  0  0  0  0  0  0  0
  150.5911  141.0485  155.6184 C   0  0  0  0  0  0  0  0  0  0  0  0
  150.8714  140.3722  156.8895 N   0  0  0  0  0  0  0  0  0  0  0  0
  150.5132  139.0352  156.9009 N   0  0  0  0  0  0  0  0  0  0  0  0
  150.7134  138.3101  157.9533 C   0  0  0  0  0  0  0  0  0  0  0  0
  150.3249  136.8633  157.9621 C   0  0  0  0  0  0  0  0  0  0  0  0
  150.4803  136.2707  156.8851 O   0  0  0  0  0  0  0  0  0  0  0  0
  149.8406  136.3101  159.1150 N   0  5  0  0  0  0  0  0  0  0  0  0
  148.4592  135.8835  159.3268 C   0  0  0  0  0  0  0  0  0  0  0  0
  148.0470  136.1614  160.7850 C   0  0  0  0  0  0  0  0  0  0  0  0
  146.9178  135.2950  161.2154 N   0  3  1  0  0  0  0  0  0  0  0  0
  147.2594  133.8532  161.2214 C   0  0  0  0  0  0  0  0  0  0  0  0
  146.0123  133.0087  161.5409 C   0  0  1  0  0  0  0  0  0  0  0  0
  146.3408  131.5156  161.6474 C   0  0  0  0  0  0  0  0  0  0  0  0
  145.4586  133.4250  162.7869 O   0  0  0  0  0  0  0  0  0  0  0  0
  145.1027  134.8062  162.8545 C   0  0  2  0  0  0  0  0  0  0  0  0
  143.8633  135.1336  162.0026 C   0  0  0  0  0  0  0  0  0  0  0  0
  146.3242  135.6835  162.5217 C   0  0  0  0  0  0  0  0  0  0  0  0
  151.3206  138.8913  159.1445 C   0  0  0  0  0  0  0  0  0  0  0  0
  151.6693  140.1962  159.1170 C   0  0  0  0  0  0  0  0  0  0  0  0
  151.4531  141.0322  157.9356 C   0  0  0  0  0  0  0  0  0  0  0  0
  151.7682  142.2211  157.8877 O   0  0  0  0  0  0  0  0  0  0  0  0
  147.3825  142.4108  152.8303 H   0  0  0  0  0  0  0  0  0  0  0  0
  147.0603  142.5073  154.5624 H   0  0  0  0  0  0  0  0  0  0  0  0
  146.9392  140.9524  153.7180 H   0  0  0  0  0  0  0  0  0  0  0  0
  148.5153  141.4755  156.0395 H   0  0  0  0  0  0  0  0  0  0  0  0
  148.7621  139.9485  155.2070 H   0  0  0  0  0  0  0  0  0  0  0  0
  151.1942  140.6452  154.8032 H   0  0  0  0  0  0  0  0  0  0  0  0
  150.8911  142.0945  155.7042 H   0  0  0  0  0  0  0  0  0  0  0  0
  147.7640  136.3989  158.6629 H   0  0  0  0  0  0  0  0  0  0  0  0
  148.3339  134.8201  159.1199 H   0  0  0  0  0  0  0  0  0  0  0  0
  148.9144  135.9780  161.4213 H   0  0  0  0  0  0  0  0  0  0  0  0
  147.7869  137.2119  160.9261 H   0  0  0  0  0  0  0  0  0  0  0  0
  147.6522  133.5638  160.2457 H   0  0  0  0  0  0  0  0  0  0  0  0
  148.0469  133.6686  161.9540 H   0  0  0  0  0  0  0  0  0  0  0  0
  145.2727  133.1351  160.7500 H   0  0  0  0  0  0  0  0  0  0  0  0
  146.7577  131.1372  160.7138 H   0  0  0  0  0  0  0  0  0  0  0  0
  145.4452  130.9348  161.8699 H   0  0  0  0  0  0  0  0  0  0  0  0
  147.0658  131.3261  162.4395 H   0  0  0  0  0  0  0  0  0  0  0  0
  144.8303  134.9968  163.8930 H   0  0  0  0  0  0  0  0  0  0  0  0
  143.5323  136.1568  162.1817 H   0  0  0  0  0  0  0  0  0  0  0  0
  143.0342  134.4709  162.2516 H   0  0  0  0  0  0  0  0  0  0  0  0
  144.0579  135.0405  160.9344 H   0  0  0  0  0  0  0  0  0  0  0  0
  147.0783  135.5715  163.3025 H   0  0  0  0  0  0  0  0  0  0  0  0
  146.0343  136.7348  162.5175 H   0  0  0  0  0  0  0  0  0  0  0  0
  151.4985  138.3072  160.0351 H   0  0  0  0  0  0  0  0  0  0  0  0
  152.1223  140.6375  159.9927 H   0  0  0  0  0  0  0  0  0  0  0  0
  146.1992  135.4108  160.5150 H   0  0  0  0  0  0  0  0  0  0  0  0
  1  2  1  0  0  0  0
  1 25  1  0  0  0  0
  1 26  1  0  0  0  0
  1 27  1  0  0  0  0
  2  3  1  0  0  0  0
  3  4  1  0  0  0  0
  3 28  1  0  0  0  0
  3 29  1  0  0  0  0
  4  5  1  0  0  0  0
  4 30  1  0  0  0  0
  4 31  1  0  0  0  0
  5 23  1  0  0  0  0
  5  6  1  0  0  0  0
  6  7  2  0  0  0  0
  7  8  1  0  0  0  0
  7 21  1  0  0  0  0
  8  9  2  0  0  0  0
  8 10  1  0  0  0  0
 10 11  1  0  0  0  0
 11 12  1  0  0  0  0
 11 32  1  0  0  0  0
 11 33  1  0  0  0  0
 12 13  1  0  0  0  0
 12 34  1  0  0  0  0
 12 35  1  0  0  0  0
 13 20  1  0  0  0  0
 13 14  1  0  0  0  0
 13 50  1  0  0  0  0
 14 15  1  0  0  0  0
 14 36  1  0  0  0  0
 14 37  1  0  0  0  0
 15 16  1  0  0  0  0
 15 17  1  0  0  0  0
 15 38  1  0  0  0  0
 16 39  1  0  0  0  0
 16 40  1  0  0  0  0
 16 41  1  0  0  0  0
 17 18  1  0  0  0  0
 18 19  1  0  0  0  0
 18 20  1  0  0  0  0
 18 42  1  0  0  0  0
 19 43  1  0  0  0  0
 19 44  1  0  0  0  0
 19 45  1  0  0  0  0
 20 46  1  0  0  0  0
 20 47  1  0  0  0  0
 21 22  2  0  0  0  0
 21 48  1  0  0  0  0
 22 23  1  0  0  0  0
 22 49  1  0  0  0  0
 23 24  2  0  0  0  0
M  CHG  1  10  -1
M  CHG  1  13   1
M  END
> <s_m_source_file>
AV-unprocessed.smi

> <i_m_source_file_index>
2001

> <i_lp_mmshare_version>
43012

> <i_f3d_flags>
0

> <s_epik_input>
W0NIM11PW0NIMl1bQ0gyXW4xbmMoW2NIXVtjSF1jMT1PKUMoPU8pW05IXVtDSDJdW0NIMl1OMltDSDJdW0NAQEhdKFtDSDNdKU9bQ0BASF0oW0NIM10pW0NIMl0y

> <s_epik_cmdline>
J2VwaWtfcHl0aG9uJywgJy1waCcsICc3LjAnLCAnLXRuJywgJzgnLCAnLW1hJywgJzIwMCcsICctbWV0YWxfYmluZGluZycsICctaW1hZScsICc8aW5maWxlLm1hZT4nLCAnLW9tYWUnLCAnPG91dGZpbGUubWFlPic=

> <r_lp_tautomer_probability>
1

> <r_epik_Ionization_Penalty>
6.90846

> <r_epik_Ionization_Penalty_Charging>
6.90846

> <r_epik_Ionization_Penalty_Neutral>
1.08445e-11

> <r_epik_State_Penalty>
7.54671

> <r_epik_Charging_Adjusted_Penalty>
14.4552

> <i_epik_Tot_Q>
0

> <i_epik_Tot_abs_Q>
2

> <r_epik_Metal_State_Penalty>
3.46181

> <b_epik_Metal_Only>
1

> <s_lp_Force_Field>
OPLS_2005

> <r_lp_Energy>
43.982

> <b_lp_Chiralities_Consistent>
1

> <s_lp_Variant>
AV-unprocessed.smi:2001-10

> <Gold.Version>
5.8.1

> <Gold.Id.Protein>
6NUR|6NUR_protein|mol2

> <Gold.PLP.Fitness>
40.4034

> <Gold.PLP.PLP>
-35.3028

> <Gold.PLP.part.hbond>
-2.4804

> <Gold.PLP.part.metal>
0.0000

> <Gold.PLP.part.buried>
-5.5284

> <Gold.PLP.part.nonpolar>
-26.1909

> <Gold.PLP.part.repulsive>
0.3118

> <Gold.PLP.ligand.clash>
0.0000

> <Gold.PLP.ligand.torsion>
1.5390

> <Gold.PLP.Chemscore.Hbond>
2.5710

> <Gold.PLP.Chemscore.CHOScore>
0.0000

> <Gold.PLP.Chemscore.Metal>
0.0000

> <Gold.Chemscore.Hbonds>
donor molecule, donor type, donor heavy atom, donor atom, acceptor molecule, acceptor atom, score
      P1  H  6896  6907       L1    10  1.79
      P1  H  8011  8017       L1     2  0.54

> <Gold.PLP.Chemscore.Internal.Correction>
0.4657

> <Gold.Rescore>
     Score         DG    S(hbond)    S(metal)    S(lipo)     H(rot)  DE(clash)    DE(int)     intcor
     10.87     -12.47       0.76        0.00      82.06       2.02       0.01       1.59       ----

> <Gold.Chemscore.Fitness>
10.8704

> <Gold.Chemscore.DG>
-12.4703

> <Gold.Chemscore.ZeroCoef>
-5.4800

> <Gold.Chemscore.Hbond>
0.7649

> <Gold.Chemscore.Metal>
0.0000

> <Gold.Chemscore.Lipo>
82.0622

> <Gold.Chemscore.Internal_Hbond>
0.0000

> <Gold.Chemscore.DEClash>
0.0089

> <Gold.Chemscore.DEInternal>
1.5911

> <Gold.Chemscore.Rot>
2.0179

> <Gold.Chemscore.Internal.Correction>
   9.000000E+99

> <Gold.Chemscore.Hbonds>
donor molecule, donor type, donor heavy atom, donor atom, acceptor molecule, acceptor atom, score
      P1  H  6896  6907       L1    10  0.14
      P1  H  8011  8017       L1     2  0.21

> <Gold.Chemscore.Hbond.Weighted>
-2.5549

> <Gold.Chemscore.Metal.Weighted>
-0.0000

> <Gold.Chemscore.Lipo.Weighted>
-9.6013

> <Gold.Chemscore.Internal_Hbond.Weighted>
0.0000

> <Gold.Chemscore.DEClash.Weighted>
0.0089

> <Gold.Chemscore.DEInternal.Weighted>
1.5911

> <Gold.Chemscore.Rot.Weighted>
5.1659

> <Gold.Chemscore.Internal.Correction.Weighted>
   9.000000E+99

> <Gold.Protein.RotatedTorsions>
[ 6907 6896 6895 6894 ] final  -67.52 input  -60.11 | X-H torsion
[ 7974 7965 7964 7962 ] final   92.51 input  175.53 | X-H torsion
[ 8008 7997 7996 7995 ] final -107.46 input   59.86 | X-H torsion
[ 10167 10162 10161 10158 ] final  -29.96 input  -65.29 | X-H torsion
[ 10718 10713 10712 10709 ] final  -69.63 input   66.30 | X-H torsion
[ 10763 10752 10751 10750 ] final  -34.81 input  -60.55 | X-H torsion
[ 11005 11000 10999 10996 ] final  -33.55 input  -57.11 | X-H torsion

> <Gold.Protein.ActiveResidues>
 VAL166  LYS551  ARG553  GLY616  TRP617  ASP618  TYR619  PRO620  LYS621  CYS622 
 ASP623  PHE694  ASN695  SER759  ASP760  ASP761  ALA762  ILE779  LEU786  VAL792 
 PHE793  MET794  SER795  GLU796  ALA797  LYS798  CYS799  TRP800  GLU811  SER814 

> <Gold.Protein.RotatedAtoms>
  150.7405  134.5869  159.5967 H   0  0  0  0  0  0  0  0  0  0  0  0  # atno 6907 bound_to 6896
  152.3267  134.7308  160.0309 H   0  0  0  0  0  0  0  0  0  0  0  0  # atno 6908 bound_to 6896
  151.7805  133.3313  159.3507 H   0  0  0  0  0  0  0  0  0  0  0  0  # atno 6909 bound_to 6896
  145.4913  139.2276  143.2828 H   0  0  0  0  0  0  0  0  0  0  0  0  # atno 7974 bound_to 7965
  154.9297  140.0405  157.2041 H   0  0  0  0  0  0  0  0  0  0  0  0  # atno 8008 bound_to 7997
  154.8173  140.2878  155.5789 H   0  0  0  0  0  0  0  0  0  0  0  0  # atno 8009 bound_to 7997
  156.2977  140.2525  156.3073 H   0  0  0  0  0  0  0  0  0  0  0  0  # atno 8010 bound_to 7997
  140.7255  143.3886  151.1470 H   0  0  0  0  0  0  0  0  0  0  0  0  # atno 10167 bound_to 10162
  156.0446  130.4316  150.2177 H   0  0  0  0  0  0  0  0  0  0  0  0  # atno 10718 bound_to 10713
  153.8529  135.6847  153.4790 H   0  0  0  0  0  0  0  0  0  0  0  0  # atno 10763 bound_to 10752
  153.1387  135.4667  154.9460 H   0  0  0  0  0  0  0  0  0  0  0  0  # atno 10764 bound_to 10752
  154.7794  135.3264  154.7970 H   0  0  0  0  0  0  0  0  0  0  0  0  # atno 10765 bound_to 10752
  140.9644  133.7145  156.1421 H   0  0  0  0  0  0  0  0  0  0  0  0  # atno 11005 bound_to 11000
  146.2282  140.5708  142.8987 LP  0  0  0  0  0  0  0  0  0  0  0  0  # atno 17320 bound_to 7965
  144.7832  140.5883  143.6591 LP  0  0  0  0  0  0  0  0  0  0  0  0  # atno 17321 bound_to 7965
  139.7488  143.8811  152.3071 LP  0  0  0  0  0  0  0  0  0  0  0  0  # atno 17342 bound_to 10162
  139.8657  144.7094  150.9046 LP  0  0  0  0  0  0  0  0  0  0  0  0  # atno 17343 bound_to 10162
  157.0268  130.9995  151.3324 LP  0  0  0  0  0  0  0  0  0  0  0  0  # atno 17370 bound_to 10713
  157.5305  130.8056  149.7912 LP  0  0  0  0  0  0  0  0  0  0  0  0  # atno 17371 bound_to 10713
  140.7421  134.4139  157.5553 LP  0  0  0  0  0  0  0  0  0  0  0  0  # atno 17394 bound_to 11000
  139.8889  134.8843  156.2448 LP  0  0  0  0  0  0  0  0  0  0  0  0  # atno 17395 bound_to 11000

$$$$
