AV-unprocessed.smi:142|AV-procd|sdf|1189|dock8
  -GOLD-   2262018343D 1   1.00000     0.00000
 Structure written by MMmdl.
 52 55  0  0  0  0  0  0  0  0  1 V2000
  151.1678  139.2505  154.6035 C   0  0  0  0  0  0  0  0  0  0  0  0
  152.0678  138.9944  155.8199 C   0  0  2  0  0  0  0  0  0  0  0  0
  151.6626  137.7467  156.4646 N   0  0  0  0  0  0  0  0  0  0  0  0
  151.4334  136.5871  155.8298 C   0  0  0  0  0  0  0  0  0  0  0  0
  151.5197  136.4604  154.6075 O   0  0  0  0  0  0  0  0  0  0  0  0
  151.0457  135.3992  156.7237 C   0  0  0  0  0  0  0  0  0  0  0  0
  150.6205  134.2081  155.9567 N   0  0  0  0  0  0  0  0  0  0  0  0
  151.2821  132.9785  156.1970 C   0  0  0  0  0  0  0  0  0  0  0  0
  152.1804  132.8903  157.0357 O   0  0  0  0  0  0  0  0  0  0  0  0
  150.8333  131.8525  155.3857 C   0  0  0  0  0  0  0  0  0  0  0  0
  151.4011  130.6459  155.5506 F   0  0  0  0  0  0  0  0  0  0  0  0
  149.8561  132.0027  154.4677 C   0  0  0  0  0  0  0  0  0  0  0  0
  149.2229  133.2114  154.2393 N   0  0  0  0  0  0  0  0  0  0  0  0
  148.1414  133.3678  153.1916 C   0  0  2  0  0  0  0  0  0  0  0  0
  146.8156  133.8027  153.8423 C   0  0  0  0  0  0  0  0  0  0  0  0
  145.8224  132.8151  153.2639 C   0  0  0  0  0  0  0  0  0  0  0  0
  146.6930  131.5859  153.0503 C   0  0  0  0  0  0  0  0  0  0  0  0
  147.9076  132.1400  152.5619 O   0  0  0  0  0  0  0  0  0  0  0  0
  149.6004  134.3486  154.9860 C   0  0  0  0  0  0  0  0  0  0  0  0
  149.0544  135.4367  154.7903 O   0  0  0  0  0  0  0  0  0  0  0  0
  152.0614  140.1935  156.7646 C   0  0  0  0  0  0  0  0  0  0  0  0
  151.2382  141.3015  156.4706 C   0  0  0  0  0  0  0  0  0  0  0  0
  151.2058  142.4164  157.3301 C   0  0  0  0  0  0  0  0  0  0  0  0
  151.9961  142.4326  158.4968 C   0  0  0  0  0  0  0  0  0  0  0  0
  151.9674  143.5455  159.3630 C   0  0  0  0  0  0  0  0  0  0  0  0
  152.7607  143.5542  160.5269 C   0  0  0  0  0  0  0  0  0  0  0  0
  153.5843  142.4522  160.8280 C   0  0  0  0  0  0  0  0  0  0  0  0
  153.6154  141.3376  159.9677 C   0  0  0  0  0  0  0  0  0  0  0  0
  152.8229  141.3232  158.8013 C   0  0  0  0  0  0  0  0  0  0  0  0
  152.8495  140.2089  157.9385 C   0  0  0  0  0  0  0  0  0  0  0  0
  151.4919  140.1362  154.0562 H   0  0  0  0  0  0  0  0  0  0  0  0
  150.1307  139.4062  154.9027 H   0  0  0  0  0  0  0  0  0  0  0  0
  151.1926  138.4094  153.9099 H   0  0  0  0  0  0  0  0  0  0  0  0
  153.0873  138.8626  155.4522 H   0  0  0  0  0  0  0  0  0  0  0  0
  151.5666  137.7636  157.4695 H   0  0  0  0  0  0  0  0  0  0  0  0
  151.8876  135.1552  157.3740 H   0  0  0  0  0  0  0  0  0  0  0  0
  150.2673  135.7294  157.4128 H   0  0  0  0  0  0  0  0  0  0  0  0
  149.5742  131.1310  153.8975 H   0  0  0  0  0  0  0  0  0  0  0  0
  148.5343  134.0762  152.4599 H   0  0  0  0  0  0  0  0  0  0  0  0
  146.8737  133.6921  154.9262 H   0  0  0  0  0  0  0  0  0  0  0  0
  146.5828  134.8405  153.6027 H   0  0  0  0  0  0  0  0  0  0  0  0
  144.9726  132.6281  153.9206 H   0  0  0  0  0  0  0  0  0  0  0  0
  145.4450  133.1778  152.3069 H   0  0  0  0  0  0  0  0  0  0  0  0
  146.8684  131.0665  153.9934 H   0  0  0  0  0  0  0  0  0  0  0  0
  146.2615  130.8787  152.3418 H   0  0  0  0  0  0  0  0  0  0  0  0
  150.6267  141.2998  155.5801 H   0  0  0  0  0  0  0  0  0  0  0  0
  150.5714  143.2570  157.0895 H   0  0  0  0  0  0  0  0  0  0  0  0
  151.3385  144.3951  159.1396 H   0  0  0  0  0  0  0  0  0  0  0  0
  152.7380  144.4074  161.1887 H   0  0  0  0  0  0  0  0  0  0  0  0
  154.1929  142.4613  161.7202 H   0  0  0  0  0  0  0  0  0  0  0  0
  154.2499  140.4963  160.2064 H   0  0  0  0  0  0  0  0  0  0  0  0
  153.4774  139.3643  158.1829 H   0  0  0  0  0  0  0  0  0  0  0  0
  1  2  1  0  0  0  0
  1 31  1  0  0  0  0
  1 32  1  0  0  0  0
  1 33  1  0  0  0  0
  2  3  1  0  0  0  0
  2 21  1  0  0  0  0
  2 34  1  0  0  0  0
  3  4  1  0  0  0  0
  3 35  1  0  0  0  0
  4  5  2  0  0  0  0
  4  6  1  0  0  0  0
  6  7  1  0  0  0  0
  6 36  1  0  0  0  0
  6 37  1  0  0  0  0
  7 19  1  0  0  0  0
  7  8  1  0  0  0  0
  8  9  2  0  0  0  0
  8 10  1  0  0  0  0
 10 11  1  0  0  0  0
 10 12  2  0  0  0  0
 12 13  1  0  0  0  0
 12 38  1  0  0  0  0
 13 14  1  0  0  0  0
 13 19  1  0  0  0  0
 14 18  1  0  0  0  0
 14 15  1  0  0  0  0
 14 39  1  0  0  0  0
 15 16  1  0  0  0  0
 15 40  1  0  0  0  0
 15 41  1  0  0  0  0
 16 17  1  0  0  0  0
 16 42  1  0  0  0  0
 16 43  1  0  0  0  0
 17 18  1  0  0  0  0
 17 44  1  0  0  0  0
 17 45  1  0  0  0  0
 19 20  2  0  0  0  0
 21 30  1  0  0  0  0
 21 22  2  0  0  0  0
 22 23  1  0  0  0  0
 22 46  1  0  0  0  0
 23 24  2  0  0  0  0
 23 47  1  0  0  0  0
 24 29  1  0  0  0  0
 24 25  1  0  0  0  0
 25 26  2  0  0  0  0
 25 48  1  0  0  0  0
 26 27  1  0  0  0  0
 26 49  1  0  0  0  0
 27 28  2  0  0  0  0
 27 50  1  0  0  0  0
 28 29  1  0  0  0  0
 28 51  1  0  0  0  0
 29 30  2  0  0  0  0
 30 52  1  0  0  0  0
M  END
> <s_m_source_file>
AV-unprocessed.smi

> <i_m_source_file_index>
142

> <i_lp_mmshare_version>
43012

> <i_f3d_flags>
0

> <s_epik_input>
W2NIXTFbY0hdW2NIXVtjSF1jKGMxMilbY0hdYyhbY0hdW2NIXTIpW0NASF0oW0NIM10pW05IXUMoPU8pW0NIMl1uM2MoPU8pYyhGKVtjSF1uKGMzPU8pW0NAQEhdNFtDSDJdW0NIMl1bQ0gyXU80

> <s_epik_cmdline>
J2VwaWtfcHl0aG9uJywgJy1waCcsICc3LjAnLCAnLXRuJywgJzgnLCAnLW1hJywgJzIwMCcsICctbWV0YWxfYmluZGluZycsICctaW1hZScsICc8aW5maWxlLm1hZT4nLCAnLW9tYWUnLCAnPG91dGZpbGUubWFlPic=

> <r_lp_tautomer_probability>
1

> <r_epik_Ionization_Penalty>
3.35688e-08

> <r_epik_Ionization_Penalty_Charging>
3.59856e-09

> <r_epik_Ionization_Penalty_Neutral>
2.99702e-08

> <r_epik_State_Penalty>
-0

> <r_epik_Charging_Adjusted_Penalty>
3.59856e-09

> <i_epik_Tot_Q>
0

> <i_epik_Tot_abs_Q>
0

> <r_epik_Metal_State_Penalty>
-0

> <b_epik_Metal_Only>
0

> <s_epik_Chemistry_Notes>
This compound contains an acetal/aminal-like group ( X-CH(R)-Y where X, Y are N, S, or O) that may be acid/base labile, releasing an aldehyde.

> <s_lp_Force_Field>
OPLS_2005

> <r_lp_Energy>
31.3548

> <b_lp_Chiralities_Consistent>
1

> <s_lp_Variant>
AV-unprocessed.smi:142-1

> <Gold.Version>
5.8.1

> <Gold.Id.Protein>
6NUR|6NUR_protein|mol2

> <Gold.PLP.Fitness>
60.1087

> <Gold.PLP.PLP>
-54.9827

> <Gold.PLP.part.hbond>
-2.0000

> <Gold.PLP.part.metal>
0.0000

> <Gold.PLP.part.buried>
-5.6390

> <Gold.PLP.part.nonpolar>
-50.7393

> <Gold.PLP.part.repulsive>
3.6736

> <Gold.PLP.ligand.clash>
0.0000

> <Gold.PLP.ligand.torsion>
0.2110

> <Gold.PLP.Chemscore.Hbond>
1.8320

> <Gold.PLP.Chemscore.CHOScore>
0.0000

> <Gold.PLP.Chemscore.Metal>
0.0000

> <Gold.Chemscore.Hbonds>
donor molecule, donor type, donor heavy atom, donor atom, acceptor molecule, acceptor atom, score
      P1  H  6896  6909       L1     9  0.24
      P1  H 10752 10763       L1     5  0.65

> <Gold.PLP.Chemscore.Internal.Correction>
0.0520

> <Gold.Rescore>
     Score         DG    S(hbond)    S(metal)    S(lipo)     H(rot)  DE(clash)    DE(int)     intcor
     14.40     -21.67       1.88        0.00     128.78       2.02       0.18       7.09       ----

> <Gold.Chemscore.Fitness>
14.3995

> <Gold.Chemscore.DG>
-21.6685

> <Gold.Chemscore.ZeroCoef>
-5.4800

> <Gold.Chemscore.Hbond>
1.8822

> <Gold.Chemscore.Metal>
0.0000

> <Gold.Chemscore.Lipo>
128.7774

> <Gold.Chemscore.Internal_Hbond>
0.0000

> <Gold.Chemscore.DEClash>
0.1776

> <Gold.Chemscore.DEInternal>
7.0914

> <Gold.Chemscore.Rot>
2.0175

> <Gold.Chemscore.Internal.Correction>
   9.000000E+99

> <Gold.Chemscore.Hbonds>
donor molecule, donor type, donor heavy atom, donor atom, acceptor molecule, acceptor atom, score
      P1  H  6896  6909       L1     9  0.23
      P1  H 10752 10763       L1     5  0.05

> <Gold.Chemscore.Hbond.Weighted>
-6.2864

> <Gold.Chemscore.Metal.Weighted>
-0.0000

> <Gold.Chemscore.Lipo.Weighted>
-15.0670

> <Gold.Chemscore.Internal_Hbond.Weighted>
0.0000

> <Gold.Chemscore.DEClash.Weighted>
0.1776

> <Gold.Chemscore.DEInternal.Weighted>
7.0914

> <Gold.Chemscore.Rot.Weighted>
5.1648

> <Gold.Chemscore.Internal.Correction.Weighted>
   9.000000E+99

> <Gold.Protein.RotatedTorsions>
[ 6907 6896 6895 6894 ] final  -58.08 input  -60.11 | X-H torsion
[ 7974 7965 7964 7962 ] final  116.21 input  175.53 | X-H torsion
[ 8008 7997 7996 7995 ] final -128.24 input   59.86 | X-H torsion
[ 10167 10162 10161 10158 ] final  -43.72 input  -65.29 | X-H torsion
[ 10718 10713 10712 10709 ] final  131.27 input   66.30 | X-H torsion
[ 10763 10752 10751 10750 ] final   69.29 input  -60.55 | X-H torsion
[ 11005 11000 10999 10996 ] final   50.95 input  -57.11 | X-H torsion

> <Gold.Protein.ActiveResidues>
 VAL166  LYS551  ARG553  GLY616  TRP617  ASP618  TYR619  PRO620  LYS621  CYS622 
 ASP623  PHE694  ASN695  SER759  ASP760  ASP761  ALA762  ILE779  LEU786  VAL792 
 PHE793  MET794  SER795  GLU796  ALA797  LYS798  CYS799  TRP800  GLU811  SER814 

> <Gold.Protein.RotatedAtoms>
  150.8035  134.7144  159.6621 H   0  0  0  0  0  0  0  0  0  0  0  0  # atno 6907 bound_to 6896
  152.4153  134.6049  160.0020 H   0  0  0  0  0  0  0  0  0  0  0  0  # atno 6908 bound_to 6896
  151.6280  133.3297  159.3138 H   0  0  0  0  0  0  0  0  0  0  0  0  # atno 6909 bound_to 6896
  145.1824  139.3043  143.4411 H   0  0  0  0  0  0  0  0  0  0  0  0  # atno 7974 bound_to 7965
  155.2594  140.0435  157.2995 H   0  0  0  0  0  0  0  0  0  0  0  0  # atno 8008 bound_to 7997
  154.5720  140.2376  155.8147 H   0  0  0  0  0  0  0  0  0  0  0  0  # atno 8009 bound_to 7997
  156.2130  140.2993  155.9782 H   0  0  0  0  0  0  0  0  0  0  0  0  # atno 8010 bound_to 7997
  140.6923  143.2968  151.3393 H   0  0  0  0  0  0  0  0  0  0  0  0  # atno 10167 bound_to 10162
  157.4983  131.1093  150.9462 H   0  0  0  0  0  0  0  0  0  0  0  0  # atno 10718 bound_to 10713
  153.0279  135.5216  154.7266 H   0  0  0  0  0  0  0  0  0  0  0  0  # atno 10763 bound_to 10752
  154.6306  135.2900  155.0223 H   0  0  0  0  0  0  0  0  0  0  0  0  # atno 10764 bound_to 10752
  154.1177  135.6612  153.4949 H   0  0  0  0  0  0  0  0  0  0  0  0  # atno 10765 bound_to 10752
  140.0974  134.5128  155.8794 H   0  0  0  0  0  0  0  0  0  0  0  0  # atno 11005 bound_to 11000
  146.3451  140.2008  142.8589 LP  0  0  0  0  0  0  0  0  0  0  0  0  # atno 17320 bound_to 7965
  145.0123  140.8724  143.5217 LP  0  0  0  0  0  0  0  0  0  0  0  0  # atno 17321 bound_to 7965
  139.6339  144.0667  152.2500 LP  0  0  0  0  0  0  0  0  0  0  0  0  # atno 17342 bound_to 10162
  140.0151  144.6195  150.7614 LP  0  0  0  0  0  0  0  0  0  0  0  0  # atno 17343 bound_to 10162
  157.0141  130.5648  149.5324 LP  0  0  0  0  0  0  0  0  0  0  0  0  # atno 17370 bound_to 10713
  156.0214  130.5308  150.8285 LP  0  0  0  0  0  0  0  0  0  0  0  0  # atno 17371 bound_to 10713
  141.2096  133.6685  156.6449 LP  0  0  0  0  0  0  0  0  0  0  0  0  # atno 17394 bound_to 11000
  140.3268  134.7962  157.4295 LP  0  0  0  0  0  0  0  0  0  0  0  0  # atno 17395 bound_to 11000

$$$$
