AV-unprocessed.smi:2784|AV-procd|sdf|10730|dock2
  -GOLD-   2272015163D 1   1.00000     0.00000
 Structure written by MMmdl.
 32 33  0  0  0  0  0  0  0  0  2 V2000
  149.1335  141.3297  154.9999 C   0  0  0  0  0  0  0  0  0  0  0  0
  148.5596  141.3389  153.7024 O   0  0  0  0  0  0  0  0  0  0  0  0
  147.1400  141.3992  153.7067 C   0  0  2  0  0  0  0  0  0  0  0  0
  146.6836  142.5932  154.5502 C   0  0  0  0  0  0  0  0  0  0  0  0
  145.3169  142.1806  155.0852 C   0  0  0  0  0  0  0  0  0  0  0  0
  145.4781  140.6921  155.3913 C   0  0  0  0  0  0  0  0  0  0  0  0
  146.4868  140.1572  154.3569 C   0  0  1  0  0  0  0  0  0  0  0  0
  145.8099  139.3464  153.3469 N   0  0  0  0  0  0  0  0  0  0  0  0
  146.0013  138.0335  153.1535 C   0  0  0  0  0  0  0  0  0  0  0  0
  146.7726  137.3474  153.8244 O   0  0  0  0  0  0  0  0  0  0  0  0
  145.2498  137.5691  152.1438 N   0  0  0  0  0  0  0  0  0  0  0  0
  145.2449  136.2397  151.6623 C   0  0  0  0  0  0  0  0  0  0  0  0
  146.3438  135.5102  151.4765 N   0  3  0  0  0  0  0  0  0  0  0  0
  145.9771  134.2721  151.0103 C   0  0  0  0  0  0  0  0  0  0  0  0
  144.6057  134.2959  150.9260 C   0  0  0  0  0  0  0  0  0  0  0  0
  144.1306  135.5267  151.3324 O   0  0  0  0  0  0  0  0  0  0  0  0
  150.2183  141.2628  154.9177 H   0  0  0  0  0  0  0  0  0  0  0  0
  148.7874  140.4719  155.5777 H   0  0  0  0  0  0  0  0  0  0  0  0
  148.8978  142.2401  155.5517 H   0  0  0  0  0  0  0  0  0  0  0  0
  146.7674  141.5474  152.6906 H   0  0  0  0  0  0  0  0  0  0  0  0
  147.3669  142.7414  155.3878 H   0  0  0  0  0  0  0  0  0  0  0  0
  146.6519  143.5220  153.9798 H   0  0  0  0  0  0  0  0  0  0  0  0
  145.0142  142.7591  155.9585 H   0  0  0  0  0  0  0  0  0  0  0  0
  144.5604  142.3197  154.3118 H   0  0  0  0  0  0  0  0  0  0  0  0
  145.8966  140.5764  156.3921 H   0  0  0  0  0  0  0  0  0  0  0  0
  144.5228  140.1652  155.3827 H   0  0  0  0  0  0  0  0  0  0  0  0
  147.2451  139.5684  154.8765 H   0  0  0  0  0  0  0  0  0  0  0  0
  145.1527  139.8282  152.7509 H   0  0  0  0  0  0  0  0  0  0  0  0
  147.3047  135.7837  151.6401 H   0  0  0  0  0  0  0  0  0  0  0  0
  146.7131  133.5120  150.7900 H   0  0  0  0  0  0  0  0  0  0  0  0
  143.8644  133.5725  150.6185 H   0  0  0  0  0  0  0  0  0  0  0  0
  144.6429  138.2227  151.6717 H   0  0  0  0  0  0  0  0  0  0  0  0
  1  2  1  0  0  0  0
  1 17  1  0  0  0  0
  1 18  1  0  0  0  0
  1 19  1  0  0  0  0
  2  3  1  0  0  0  0
  3  7  1  0  0  0  0
  3  4  1  0  0  0  0
  3 20  1  0  0  0  0
  4  5  1  0  0  0  0
  4 21  1  0  0  0  0
  4 22  1  0  0  0  0
  5  6  1  0  0  0  0
  5 23  1  0  0  0  0
  5 24  1  0  0  0  0
  6  7  1  0  0  0  0
  6 25  1  0  0  0  0
  6 26  1  0  0  0  0
  7  8  1  0  0  0  0
  7 27  1  0  0  0  0
  8 28  1  0  0  0  0
  8  9  1  0  0  0  0
  9 11  1  0  0  0  0
  9 10  2  0  0  0  0
 11 12  1  0  0  0  0
 11 32  1  0  0  0  0
 12 16  1  0  0  0  0
 12 13  2  0  0  0  0
 13 29  1  0  0  0  0
 13 14  1  0  0  0  0
 14 30  1  0  0  0  0
 14 15  2  0  0  0  0
 15 31  1  0  0  0  0
 15 16  1  0  0  0  0
M  CHG  1  13   1
M  END
> <s_m_source_file>
AV-unprocessed.smi

> <i_m_source_file_index>
2784

> <i_lp_mmshare_version>
43012

> <i_f3d_flags>
0

> <s_epik_input>
W0NIM11PW0NAQEhdMVtDSDJdW0NIMl1bQ0gyXVtDQEhdMVtOSF1DKD1PKVtOSF1jMm5bY0hdW2NIXW8y

> <s_epik_cmdline>
J2VwaWtfcHl0aG9uJywgJy1waCcsICc3LjAnLCAnLXRuJywgJzgnLCAnLW1hJywgJzIwMCcsICctbWV0YWxfYmluZGluZycsICctaW1hZScsICc8aW5maWxlLm1hZT4nLCAnLW9tYWUnLCAnPG91dGZpbGUubWFlPic=

> <r_epik_Ionization_Penalty>
6.73843

> <r_epik_Ionization_Penalty_Charging>
6.66704

> <r_epik_Ionization_Penalty_Neutral>
0.0713889

> <r_epik_State_Penalty>
1.94951

> <r_epik_Charging_Adjusted_Penalty>
8.61656

> <i_epik_Tot_Q>
1

> <i_epik_Tot_abs_Q>
1

> <r_epik_Metal_State_Penalty>
1.97013

> <b_epik_Metal_Only>
0

> <s_lp_Force_Field>
OPLS_2005

> <r_lp_Energy>
26.9129

> <b_lp_Chiralities_Consistent>
1

> <s_lp_Variant>
AV-unprocessed.smi:2784-5

> <Gold.Version>
5.8.1

> <Gold.Id.Protein>
6NUR|6NUR_protein|mol2

> <Gold.PLP.Fitness>
38.2916

> <Gold.PLP.PLP>
-25.1158

> <Gold.PLP.part.hbond>
-4.1320

> <Gold.PLP.part.metal>
0.0000

> <Gold.PLP.part.buried>
-5.2407

> <Gold.PLP.part.nonpolar>
-18.4514

> <Gold.PLP.part.repulsive>
2.1966

> <Gold.PLP.ligand.clash>
0.0000

> <Gold.PLP.ligand.torsion>
0.3990

> <Gold.PLP.Chemscore.Hbond>
4.6560

> <Gold.PLP.Chemscore.CHOScore>
0.0000

> <Gold.PLP.Chemscore.Metal>
0.0000

> <Gold.Chemscore.Hbonds>
donor molecule, donor type, donor heavy atom, donor atom, acceptor molecule, acceptor atom, score
      L1  H     8    28       P1 10175  1.00
      L1  H    11    32       P1 10171  0.80
      L1  H    13    29       P1  7948  2.00
      P1  H  8011  8017       L1     2  0.59

> <Gold.PLP.Chemscore.Internal.Correction>
0.0059

> <Gold.Rescore>
     Score         DG    S(hbond)    S(metal)    S(lipo)     H(rot)  DE(clash)    DE(int)     intcor
     17.34     -17.70       3.25        0.00      40.93       1.34       0.10       0.26       ----

> <Gold.Chemscore.Fitness>
17.3352

> <Gold.Chemscore.DG>
-17.6965

> <Gold.Chemscore.ZeroCoef>
-5.4800

> <Gold.Chemscore.Hbond>
3.2473

> <Gold.Chemscore.Metal>
0.0000

> <Gold.Chemscore.Lipo>
40.9255

> <Gold.Chemscore.Internal_Hbond>
0.0000

> <Gold.Chemscore.DEClash>
0.0975

> <Gold.Chemscore.DEInternal>
0.2638

> <Gold.Chemscore.Rot>
1.3351

> <Gold.Chemscore.Internal.Correction>
   9.000000E+99

> <Gold.Chemscore.Hbonds>
donor molecule, donor type, donor heavy atom, donor atom, acceptor molecule, acceptor atom, score
      L1  H     8    28       P1 10175  0.96
      L1  H    11    32       P1 10171  0.74
      L1  H    13    29       P1  7948  1.00
      P1  H  8011  8017       L1     2  0.45

> <Gold.Chemscore.Hbond.Weighted>
-10.8459

> <Gold.Chemscore.Metal.Weighted>
-0.0000

> <Gold.Chemscore.Lipo.Weighted>
-4.7883

> <Gold.Chemscore.Internal_Hbond.Weighted>
0.0000

> <Gold.Chemscore.DEClash.Weighted>
0.0975

> <Gold.Chemscore.DEInternal.Weighted>
0.2638

> <Gold.Chemscore.Rot.Weighted>
3.4177

> <Gold.Chemscore.Internal.Correction.Weighted>
   9.000000E+99

> <Gold.Protein.RotatedTorsions>
[ 6907 6896 6895 6894 ] final -160.02 input  -60.11 | X-H torsion
[ 7974 7965 7964 7962 ] final -121.82 input  175.53 | X-H torsion
[ 8008 7997 7996 7995 ] final   66.35 input   59.86 | X-H torsion
[ 10167 10162 10161 10158 ] final  113.83 input  -65.29 | X-H torsion
[ 10718 10713 10712 10709 ] final -109.71 input   66.30 | X-H torsion
[ 10763 10752 10751 10750 ] final  155.54 input  -60.55 | X-H torsion
[ 11005 11000 10999 10996 ] final  160.03 input  -57.11 | X-H torsion

> <Gold.Protein.ActiveResidues>
 VAL166  LYS551  ARG553  GLY616  TRP617  ASP618  TYR619  PRO620  LYS621  CYS622 
 ASP623  PHE694  ASN695  SER759  ASP760  ASP761  ALA762  ILE779  LEU786  VAL792 
 PHE793  MET794  SER795  GLU796  ALA797  LYS798  CYS799  TRP800  GLU811  SER814 

> <Gold.Protein.RotatedAtoms>
  151.3425  133.3957  159.2672 H   0  0  0  0  0  0  0  0  0  0  0  0  # atno 6907 bound_to 6896
  150.9866  134.9211  159.7886 H   0  0  0  0  0  0  0  0  0  0  0  0  # atno 6908 bound_to 6896
  152.5234  134.3390  159.9262 H   0  0  0  0  0  0  0  0  0  0  0  0  # atno 6909 bound_to 6896
  145.0362  140.8107  143.4294 H   0  0  0  0  0  0  0  0  0  0  0  0  # atno 7974 bound_to 7965
  155.6760  140.3497  155.4837 H   0  0  0  0  0  0  0  0  0  0  0  0  # atno 8008 bound_to 7997
  155.9647  140.1144  157.0887 H   0  0  0  0  0  0  0  0  0  0  0  0  # atno 8009 bound_to 7997
  154.4151  140.1168  156.5212 H   0  0  0  0  0  0  0  0  0  0  0  0  # atno 8010 bound_to 7997
  139.6433  144.7125  151.2193 H   0  0  0  0  0  0  0  0  0  0  0  0  # atno 10167 bound_to 10162
  156.0551  130.5778  150.8137 H   0  0  0  0  0  0  0  0  0  0  0  0  # atno 10718 bound_to 10713
  154.1699  135.2805  155.3084 H   0  0  0  0  0  0  0  0  0  0  0  0  # atno 10763 bound_to 10752
  154.6083  135.5507  153.7449 H   0  0  0  0  0  0  0  0  0  0  0  0  # atno 10764 bound_to 10752
  153.0167  135.6409  154.1840 H   0  0  0  0  0  0  0  0  0  0  0  0  # atno 10765 bound_to 10752
  140.2019  134.8331  157.3027 H   0  0  0  0  0  0  0  0  0  0  0  0  # atno 11005 bound_to 11000
  145.1707  139.2406  143.5343 LP  0  0  0  0  0  0  0  0  0  0  0  0  # atno 17320 bound_to 7965
  146.3504  140.1457  142.8593 LP  0  0  0  0  0  0  0  0  0  0  0  0  # atno 17321 bound_to 7965
  140.7502  143.6274  150.8455 LP  0  0  0  0  0  0  0  0  0  0  0  0  # atno 17342 bound_to 10162
  139.9914  143.5842  152.2908 LP  0  0  0  0  0  0  0  0  0  0  0  0  # atno 17343 bound_to 10162
  157.5514  131.0944  150.9690 LP  0  0  0  0  0  0  0  0  0  0  0  0  # atno 17370 bound_to 10713
  156.9949  130.5577  149.5306 LP  0  0  0  0  0  0  0  0  0  0  0  0  # atno 17371 bound_to 10713
  140.2044  134.4214  155.7645 LP  0  0  0  0  0  0  0  0  0  0  0  0  # atno 17394 bound_to 11000
  141.2227  133.7088  156.8237 LP  0  0  0  0  0  0  0  0  0  0  0  0  # atno 17395 bound_to 11000

$$$$
