AV-unprocessed.smi:1447|AV-procd|sdf|5892|dock5
  -GOLD-   22720 5573D 1   1.00000     0.00000
 Structure written by MMmdl.
 48 50  0  0  0  0  0  0  0  0  2 V2000
  151.7466  141.0633  158.9289 C   0  0  0  0  0  0  0  0  0  0  0  0
  150.4202  140.9159  158.4536 O   0  0  0  0  0  0  0  0  0  0  0  0
  150.0702  141.9083  157.5039 C   0  0  0  0  0  0  0  0  0  0  0  0
  150.9910  141.7734  156.2816 C   0  0  0  0  0  0  0  0  0  0  0  0
  150.7238  140.5366  155.5403 N   0  0  0  0  0  0  0  0  0  0  0  0
  149.4561  140.4733  154.9853 N   0  0  0  0  0  0  0  0  0  0  0  0
  149.0981  139.4359  154.2996 C   0  0  0  0  0  0  0  0  0  0  0  0
  147.7455  139.3290  153.6852 C   0  0  0  0  0  0  0  0  0  0  0  0
  146.8302  140.0967  153.9875 O   0  0  0  0  0  0  0  0  0  0  0  0
  147.5979  138.3422  152.7825 N   0  0  0  0  0  0  0  0  0  0  0  0
  146.3685  138.0415  152.0558 C   0  0  2  0  0  0  0  0  0  0  0  0
  145.2974  137.5283  153.0323 C   0  0  0  0  0  0  0  0  0  0  0  0
  144.0141  137.1150  152.2863 C   0  0  0  0  0  0  0  0  0  0  0  0
  144.2836  136.1159  151.2203 N   0  3  2  0  0  0  0  0  0  0  0  0
  144.5527  134.7563  151.7450 C   0  0  0  0  0  0  0  0  0  0  0  0
  144.3786  133.6636  150.7161 C   0  0  0  0  0  0  0  0  0  0  0  0
  143.3293  133.8706  151.7858 C   0  0  0  0  0  0  0  0  0  0  0  0
  145.3110  136.5893  150.2575 C   0  0  0  0  0  0  0  0  0  0  0  0
  146.6224  136.9903  150.9586 C   0  0  0  0  0  0  0  0  0  0  0  0
  150.0119  138.3238  154.1003 C   0  0  0  0  0  0  0  0  0  0  0  0
  151.2463  138.4024  154.6437 C   0  0  0  0  0  0  0  0  0  0  0  0
  151.6790  139.5659  155.4189 C   0  0  0  0  0  0  0  0  0  0  0  0
  152.8012  139.6654  155.9141 O   0  0  0  0  0  0  0  0  0  0  0  0
  151.9654  140.2800  159.6545 H   0  0  0  0  0  0  0  0  0  0  0  0
  151.8842  142.0265  159.4220 H   0  0  0  0  0  0  0  0  0  0  0  0
  152.4691  140.9798  158.1157 H   0  0  0  0  0  0  0  0  0  0  0  0
  149.0283  141.7850  157.2037 H   0  0  0  0  0  0  0  0  0  0  0  0
  150.1698  142.8996  157.9487 H   0  0  0  0  0  0  0  0  0  0  0  0
  150.8768  142.6413  155.6297 H   0  0  0  0  0  0  0  0  0  0  0  0
  152.0323  141.7924  156.6089 H   0  0  0  0  0  0  0  0  0  0  0  0
  148.3990  137.7570  152.5917 H   0  0  0  0  0  0  0  0  0  0  0  0
  145.9958  138.9571  151.5921 H   0  0  0  0  0  0  0  0  0  0  0  0
  145.6839  136.6807  153.5997 H   0  0  0  0  0  0  0  0  0  0  0  0
  145.0604  138.3018  153.7642 H   0  0  0  0  0  0  0  0  0  0  0  0
  143.2761  136.7227  152.9870 H   0  0  0  0  0  0  0  0  0  0  0  0
  143.5624  137.9949  151.8264 H   0  0  0  0  0  0  0  0  0  0  0  0
  145.3203  134.6671  152.5114 H   0  0  0  0  0  0  0  0  0  0  0  0
  144.1214  133.9497  149.6978 H   0  0  0  0  0  0  0  0  0  0  0  0
  145.0142  132.7848  150.8054 H   0  0  0  0  0  0  0  0  0  0  0  0
  143.2730  133.1275  152.5790 H   0  0  0  0  0  0  0  0  0  0  0  0
  142.3747  134.2930  151.4765 H   0  0  0  0  0  0  0  0  0  0  0  0
  145.5002  135.8221  149.5060 H   0  0  0  0  0  0  0  0  0  0  0  0
  144.9085  137.4500  149.7217 H   0  0  0  0  0  0  0  0  0  0  0  0
  147.3225  137.3806  150.2190 H   0  0  0  0  0  0  0  0  0  0  0  0
  147.0971  136.1078  151.3897 H   0  0  0  0  0  0  0  0  0  0  0  0
  149.7199  137.4523  153.5326 H   0  0  0  0  0  0  0  0  0  0  0  0
  151.9360  137.5833  154.5024 H   0  0  0  0  0  0  0  0  0  0  0  0
  143.4258  136.0311  150.6934 H   0  0  0  0  0  0  0  0  0  0  0  0
  1  2  1  0  0  0  0
  1 24  1  0  0  0  0
  1 25  1  0  0  0  0
  1 26  1  0  0  0  0
  2  3  1  0  0  0  0
  3  4  1  0  0  0  0
  3 27  1  0  0  0  0
  3 28  1  0  0  0  0
  4  5  1  0  0  0  0
  4 29  1  0  0  0  0
  4 30  1  0  0  0  0
  5 22  1  0  0  0  0
  5  6  1  0  0  0  0
  6  7  2  0  0  0  0
  7  8  1  0  0  0  0
  7 20  1  0  0  0  0
  8  9  2  0  0  0  0
  8 10  1  0  0  0  0
 10 11  1  0  0  0  0
 10 31  1  0  0  0  0
 11 19  1  0  0  0  0
 11 12  1  0  0  0  0
 11 32  1  0  0  0  0
 12 13  1  0  0  0  0
 12 33  1  0  0  0  0
 12 34  1  0  0  0  0
 13 14  1  0  0  0  0
 13 35  1  0  0  0  0
 13 36  1  0  0  0  0
 14 15  1  0  0  0  0
 14 18  1  0  0  0  0
 14 48  1  0  0  0  0
 15 17  1  0  0  0  0
 15 16  1  0  0  0  0
 15 37  1  0  0  0  0
 16 17  1  0  0  0  0
 16 38  1  0  0  0  0
 16 39  1  0  0  0  0
 17 40  1  0  0  0  0
 17 41  1  0  0  0  0
 18 19  1  0  0  0  0
 18 42  1  0  0  0  0
 18 43  1  0  0  0  0
 19 44  1  0  0  0  0
 19 45  1  0  0  0  0
 20 21  2  0  0  0  0
 20 46  1  0  0  0  0
 21 22  1  0  0  0  0
 21 47  1  0  0  0  0
 22 23  2  0  0  0  0
M  CHG  1  14   1
M  END
> <s_m_source_file>
AV-unprocessed.smi

> <i_m_source_file_index>
1447

> <i_lp_mmshare_version>
43012

> <i_f3d_flags>
0

> <s_epik_input>
W0NIM11PW0NIMl1bQ0gyXW4xbmMoW2NIXVtjSF1jMT1PKUMoPU8pW05IXVtDSF0yW0NIMl1bQ0gyXU4oW0NIMl1bQ0gyXTIpW0NIXTNbQ0gyXVtDSDJdMw==

> <s_epik_cmdline>
J2VwaWtfcHl0aG9uJywgJy1waCcsICc3LjAnLCAnLXRuJywgJzgnLCAnLW1hJywgJzIwMCcsICctbWV0YWxfYmluZGluZycsICctaW1hZScsICc8aW5maWxlLm1hZT4nLCAnLW9tYWUnLCAnPG91dGZpbGUubWFlPic=

> <r_lp_tautomer_probability>
1

> <r_epik_Ionization_Penalty>
0.168623

> <r_epik_Ionization_Penalty_Charging>
0.16862

> <r_epik_Ionization_Penalty_Neutral>
2.93027e-06

> <r_epik_State_Penalty>
0.157986

> <r_epik_Charging_Adjusted_Penalty>
0.326605

> <i_epik_Tot_Q>
1

> <i_epik_Tot_abs_Q>
1

> <r_epik_Metal_State_Penalty>
0.157986

> <b_epik_Metal_Only>
0

> <s_lp_Force_Field>
OPLS_2005

> <r_lp_Energy>
47.6191

> <b_lp_Chiralities_Consistent>
1

> <s_lp_Variant>
AV-unprocessed.smi:1447-2

> <Gold.Version>
5.8.1

> <Gold.Id.Protein>
6NUR|6NUR_protein|mol2

> <Gold.PLP.Fitness>
41.6664

> <Gold.PLP.PLP>
-35.9981

> <Gold.PLP.part.hbond>
-3.3456

> <Gold.PLP.part.metal>
0.0000

> <Gold.PLP.part.buried>
5.2800

> <Gold.PLP.part.nonpolar>
-38.5875

> <Gold.PLP.part.repulsive>
0.2885

> <Gold.PLP.ligand.clash>
0.0000

> <Gold.PLP.ligand.torsion>
0.8214

> <Gold.PLP.Chemscore.Hbond>
2.0000

> <Gold.PLP.Chemscore.CHOScore>
0.0000

> <Gold.PLP.Chemscore.Metal>
0.0000

> <Gold.Chemscore.Hbonds>
donor molecule, donor type, donor heavy atom, donor atom, acceptor molecule, acceptor atom, score
      L1  H    10    31       P1  7948  0.91
      P1  H  7997  8009       L1    23  1.00

> <Gold.PLP.Chemscore.Internal.Correction>
1.3111

> <Gold.Rescore>
     Score         DG    S(hbond)    S(metal)    S(lipo)     H(rot)  DE(clash)    DE(int)     intcor
     14.30     -18.35       1.94        0.00      93.08       1.76       3.12       0.93       ----

> <Gold.Chemscore.Fitness>
14.3046

> <Gold.Chemscore.DG>
-18.3538

> <Gold.Chemscore.ZeroCoef>
-5.4800

> <Gold.Chemscore.Hbond>
1.9435

> <Gold.Chemscore.Metal>
0.0000

> <Gold.Chemscore.Lipo>
93.0794

> <Gold.Chemscore.Internal_Hbond>
0.0000

> <Gold.Chemscore.DEClash>
3.1171

> <Gold.Chemscore.DEInternal>
0.9320

> <Gold.Chemscore.Rot>
1.7608

> <Gold.Chemscore.Internal.Correction>
   9.000000E+99

> <Gold.Chemscore.Hbonds>
donor molecule, donor type, donor heavy atom, donor atom, acceptor molecule, acceptor atom, score
      L1  H    10    31       P1  7948  0.90
      P1  H  7997  8009       L1    23  0.99

> <Gold.Chemscore.Hbond.Weighted>
-6.4912

> <Gold.Chemscore.Metal.Weighted>
-0.0000

> <Gold.Chemscore.Lipo.Weighted>
-10.8903

> <Gold.Chemscore.Internal_Hbond.Weighted>
0.0000

> <Gold.Chemscore.DEClash.Weighted>
3.1171

> <Gold.Chemscore.DEInternal.Weighted>
0.9320

> <Gold.Chemscore.Rot.Weighted>
4.5077

> <Gold.Chemscore.Internal.Correction.Weighted>
   9.000000E+99

> <Gold.Protein.RotatedTorsions>
[ 6907 6896 6895 6894 ] final  -25.64 input  -60.11 | X-H torsion
[ 7974 7965 7964 7962 ] final -132.67 input  175.53 | X-H torsion
[ 8008 7997 7996 7995 ] final -142.07 input   59.86 | X-H torsion
[ 10167 10162 10161 10158 ] final   -5.95 input  -65.29 | X-H torsion
[ 10718 10713 10712 10709 ] final  114.72 input   66.30 | X-H torsion
[ 10763 10752 10751 10750 ] final   72.09 input  -60.55 | X-H torsion
[ 11005 11000 10999 10996 ] final  -52.15 input  -57.11 | X-H torsion

> <Gold.Protein.ActiveResidues>
 VAL166  LYS551  ARG553  GLY616  TRP617  ASP618  TYR619  PRO620  LYS621  CYS622 
 ASP623  PHE694  ASN695  SER759  ASP760  ASP761  ALA762  ILE779  LEU786  VAL792 
 PHE793  MET794  SER795  GLU796  ALA797  LYS798  CYS799  TRP800  GLU811  SER814 

> <Gold.Protein.RotatedAtoms>
  151.1724  135.0324  159.8756 H   0  0  0  0  0  0  0  0  0  0  0  0  # atno 6907 bound_to 6896
  152.5448  134.1156  159.8387 H   0  0  0  0  0  0  0  0  0  0  0  0  # atno 6908 bound_to 6896
  151.1263  133.5021  159.2633 H   0  0  0  0  0  0  0  0  0  0  0  0  # atno 6909 bound_to 6896
  144.9264  140.7076  143.4933 H   0  0  0  0  0  0  0  0  0  0  0  0  # atno 7974 bound_to 7965
  155.4881  140.0565  157.2957 H   0  0  0  0  0  0  0  0  0  0  0  0  # atno 8008 bound_to 7997
  154.4634  140.2007  156.0136 H   0  0  0  0  0  0  0  0  0  0  0  0  # atno 8009 bound_to 7997
  156.0930  140.3230  155.7845 H   0  0  0  0  0  0  0  0  0  0  0  0  # atno 8010 bound_to 7997
  140.6980  143.6249  150.8577 H   0  0  0  0  0  0  0  0  0  0  0  0  # atno 10167 bound_to 10162
  157.6264  131.1002  150.7227 H   0  0  0  0  0  0  0  0  0  0  0  0  # atno 10718 bound_to 10713
  153.0438  135.5112  154.7692 H   0  0  0  0  0  0  0  0  0  0  0  0  # atno 10763 bound_to 10752
  154.6608  135.2938  154.9871 H   0  0  0  0  0  0  0  0  0  0  0  0  # atno 10764 bound_to 10752
  154.0722  135.6676  153.4878 H   0  0  0  0  0  0  0  0  0  0  0  0  # atno 10765 bound_to 10752
  141.0909  133.6633  156.3982 H   0  0  0  0  0  0  0  0  0  0  0  0  # atno 11005 bound_to 11000
  145.3213  139.1787  143.4586 LP  0  0  0  0  0  0  0  0  0  0  0  0  # atno 17320 bound_to 7965
  146.3228  140.3230  142.8634 LP  0  0  0  0  0  0  0  0  0  0  0  0  # atno 17321 bound_to 7965
  139.9969  143.5786  152.2890 LP  0  0  0  0  0  0  0  0  0  0  0  0  # atno 17342 bound_to 10162
  139.6461  144.7658  151.2240 LP  0  0  0  0  0  0  0  0  0  0  0  0  # atno 17343 bound_to 10162
  156.7574  130.4788  149.5444 LP  0  0  0  0  0  0  0  0  0  0  0  0  # atno 17370 bound_to 10713
  156.1439  130.6264  151.0505 LP  0  0  0  0  0  0  0  0  0  0  0  0  # atno 17371 bound_to 10713
  140.5254  134.6264  157.5332 LP  0  0  0  0  0  0  0  0  0  0  0  0  # atno 17394 bound_to 11000
  139.9735  134.7254  155.9995 LP  0  0  0  0  0  0  0  0  0  0  0  0  # atno 17395 bound_to 11000

$$$$
