AV-unprocessed.smi:1420|AV-procd|sdf|5789|dock3
  -GOLD-   22720 5433D 1   1.00000     0.00000
 Structure written by MMmdl.
 39 40  0  0  0  0  0  0  0  0  2 V2000
  147.8781  136.5431  156.5572 C   0  0  0  0  0  0  0  0  0  0  0  0
  147.9282  136.4456  155.0137 C   0  0  1  0  0  0  0  0  0  0  0  0
  146.4919  136.5383  154.4224 C   0  0  0  0  0  0  0  0  0  0  0  0
  146.4275  136.1210  153.0259 N   0  0  0  0  0  0  0  0  0  0  0  0
  145.3005  135.8283  152.3585 C   0  0  0  0  0  0  0  0  0  0  0  0
  144.1867  135.8125  152.8818 O   0  0  0  0  0  0  0  0  0  0  0  0
  145.4524  135.5338  150.8664 C   0  0  0  0  0  0  0  0  0  0  0  0
  145.3205  134.1107  150.6082 N   0  0  0  0  0  0  0  0  0  0  0  0
  144.2925  133.4485  149.9700 C   0  0  0  0  0  0  0  0  0  0  0  0
  144.6168  132.1222  149.9456 C   0  0  0  0  0  0  0  0  0  0  0  0
  145.8782  132.0701  150.6021 C   0  0  0  0  0  0  0  0  0  0  0  0
  146.2982  133.2617  150.9954 N   0  0  0  0  0  0  0  0  0  0  0  0
  148.8751  137.4670  154.4560 N   0  3  0  0  0  0  0  0  0  0  0  0
  148.4569  138.8633  154.7609 C   0  0  0  0  0  0  0  0  0  0  0  0
  149.4033  139.8835  154.1079 C   0  0  0  0  0  0  0  0  0  0  0  0
  150.7280  139.6577  154.5643 O   0  0  0  0  0  0  0  0  0  0  0  0
  151.1914  138.3692  154.1907 C   0  0  0  0  0  0  0  0  0  0  0  0
  150.3055  137.2854  154.8295 C   0  0  0  0  0  0  0  0  0  0  0  0
  147.2209  135.7899  156.9918 H   0  0  0  0  0  0  0  0  0  0  0  0
  147.5126  137.5194  156.8768 H   0  0  0  0  0  0  0  0  0  0  0  0
  148.8493  136.3849  157.0217 H   0  0  0  0  0  0  0  0  0  0  0  0
  148.3220  135.4630  154.7484 H   0  0  0  0  0  0  0  0  0  0  0  0
  145.8098  135.9063  154.9923 H   0  0  0  0  0  0  0  0  0  0  0  0
  146.1002  137.5548  154.4749 H   0  0  0  0  0  0  0  0  0  0  0  0
  147.2968  136.1079  152.5112 H   0  0  0  0  0  0  0  0  0  0  0  0
  144.7016  136.0817  150.2945 H   0  0  0  0  0  0  0  0  0  0  0  0
  146.4307  135.8658  150.5159 H   0  0  0  0  0  0  0  0  0  0  0  0
  143.4279  133.9712  149.5879 H   0  0  0  0  0  0  0  0  0  0  0  0
  144.0406  131.3125  149.5227 H   0  0  0  0  0  0  0  0  0  0  0  0
  146.4978  131.2080  150.8013 H   0  0  0  0  0  0  0  0  0  0  0  0
  147.4475  139.0602  154.4050 H   0  0  0  0  0  0  0  0  0  0  0  0
  148.4460  139.0134  155.8415 H   0  0  0  0  0  0  0  0  0  0  0  0
  149.3594  139.8186  153.0193 H   0  0  0  0  0  0  0  0  0  0  0  0
  149.1063  140.8970  154.3783 H   0  0  0  0  0  0  0  0  0  0  0  0
  151.2002  138.2739  153.1036 H   0  0  0  0  0  0  0  0  0  0  0  0
  152.2224  138.2553  154.5265 H   0  0  0  0  0  0  0  0  0  0  0  0
  150.4070  137.3090  155.9156 H   0  0  0  0  0  0  0  0  0  0  0  0
  150.6783  136.3217  154.4841 H   0  0  0  0  0  0  0  0  0  0  0  0
  148.8398  137.3639  153.4517 H   0  0  0  0  0  0  0  0  0  0  0  0
  1  2  1  0  0  0  0
  1 19  1  0  0  0  0
  1 20  1  0  0  0  0
  1 21  1  0  0  0  0
  2  3  1  0  0  0  0
  2 13  1  0  0  0  0
  2 22  1  0  0  0  0
  3  4  1  0  0  0  0
  3 23  1  0  0  0  0
  3 24  1  0  0  0  0
  4  5  1  0  0  0  0
  4 25  1  0  0  0  0
  5  6  2  0  0  0  0
  5  7  1  0  0  0  0
  7  8  1  0  0  0  0
  7 26  1  0  0  0  0
  7 27  1  0  0  0  0
  8 12  1  0  0  0  0
  8  9  1  0  0  0  0
  9 10  2  0  0  0  0
  9 28  1  0  0  0  0
 10 11  1  0  0  0  0
 10 29  1  0  0  0  0
 11 12  2  0  0  0  0
 11 30  1  0  0  0  0
 13 18  1  0  0  0  0
 13 14  1  0  0  0  0
 13 39  1  0  0  0  0
 14 15  1  0  0  0  0
 14 31  1  0  0  0  0
 14 32  1  0  0  0  0
 15 16  1  0  0  0  0
 15 33  1  0  0  0  0
 15 34  1  0  0  0  0
 16 17  1  0  0  0  0
 17 18  1  0  0  0  0
 17 35  1  0  0  0  0
 17 36  1  0  0  0  0
 18 37  1  0  0  0  0
 18 38  1  0  0  0  0
M  CHG  1  13   1
M  END
> <s_m_source_file>
AV-unprocessed.smi

> <i_m_source_file_index>
1420

> <i_lp_mmshare_version>
43012

> <i_f3d_flags>
0

> <s_epik_input>
W0NIMl0xW0NIMl1PW0NIMl1bQ0gyXU4xW0NASF0oW0NIM10pW0NIMl1bTkhdQyg9TylbQ0gyXW4yW2NIXVtjSF1bY0hdbjI=

> <s_epik_cmdline>
J2VwaWtfcHl0aG9uJywgJy1waCcsICc3LjAnLCAnLXRuJywgJzgnLCAnLW1hJywgJzIwMCcsICctbWV0YWxfYmluZGluZycsICctaW1hZScsICc8aW5maWxlLm1hZT4nLCAnLW9tYWUnLCAnPG91dGZpbGUubWFlPic=

> <r_lp_tautomer_probability>
1

> <r_epik_Ionization_Penalty>
0.748405

> <r_epik_Ionization_Penalty_Charging>
0.748396

> <r_epik_Ionization_Penalty_Neutral>
8.56978e-06

> <r_epik_State_Penalty>
0.775162

> <r_epik_Charging_Adjusted_Penalty>
1.52356

> <i_epik_Tot_Q>
1

> <i_epik_Tot_abs_Q>
1

> <r_epik_Metal_State_Penalty>
0.775167

> <b_epik_Metal_Only>
0

> <s_lp_Force_Field>
OPLS_2005

> <r_lp_Energy>
18.8662

> <b_lp_Chiralities_Consistent>
1

> <s_lp_Variant>
AV-unprocessed.smi:1420-4

> <Gold.Version>
5.8.1

> <Gold.Id.Protein>
6NUR|6NUR_protein|mol2

> <Gold.PLP.Fitness>
44.3807

> <Gold.PLP.PLP>
-27.3049

> <Gold.PLP.part.hbond>
-3.0000

> <Gold.PLP.part.metal>
0.0000

> <Gold.PLP.part.buried>
-3.1335

> <Gold.PLP.part.nonpolar>
-21.2496

> <Gold.PLP.part.repulsive>
0.3696

> <Gold.PLP.ligand.clash>
0.0000

> <Gold.PLP.ligand.torsion>
0.4977

> <Gold.PLP.Chemscore.Hbond>
4.0000

> <Gold.PLP.Chemscore.CHOScore>
1.9902

> <Gold.PLP.Chemscore.Metal>
0.0000

> <Gold.Chemscore.Hbonds>
donor molecule, donor type, donor heavy atom, donor atom, acceptor molecule, acceptor atom, score
      L1  H     4    25       P1  7948  1.00
      L1  H    13    39       P1  7948  2.00
      P1  H  7989  7998       L1    16  0.95
      L1  C     9    28       P1 10186  1.00
      L1  C    11    30       P1 10747  0.92

> <Gold.PLP.Chemscore.Internal.Correction>
0.1004

> <Gold.Rescore>
     Score         DG    S(hbond)    S(metal)    S(lipo)     H(rot)  DE(clash)    DE(int)     intcor
     14.40     -15.02       2.10        0.00      64.03       1.94       0.26       0.36       ----

> <Gold.Chemscore.Fitness>
14.3954

> <Gold.Chemscore.DG>
-15.0174

> <Gold.Chemscore.ZeroCoef>
-5.4800

> <Gold.Chemscore.Hbond>
2.1024

> <Gold.Chemscore.Metal>
0.0000

> <Gold.Chemscore.Lipo>
64.0251

> <Gold.Chemscore.Internal_Hbond>
0.0000

> <Gold.Chemscore.DEClash>
0.2599

> <Gold.Chemscore.DEInternal>
0.3621

> <Gold.Chemscore.Rot>
1.9435

> <Gold.Chemscore.Internal.Correction>
   9.000000E+99

> <Gold.Chemscore.Hbonds>
donor molecule, donor type, donor heavy atom, donor atom, acceptor molecule, acceptor atom, score
      L1  H     4    25       P1  7948  1.00
      L1  H    13    39       P1  7948  0.94
      P1  H  7989  7998       L1    16  0.12

> <Gold.Chemscore.Hbond.Weighted>
-7.0219

> <Gold.Chemscore.Metal.Weighted>
-0.0000

> <Gold.Chemscore.Lipo.Weighted>
-7.4909

> <Gold.Chemscore.Internal_Hbond.Weighted>
0.0000

> <Gold.Chemscore.DEClash.Weighted>
0.2599

> <Gold.Chemscore.DEInternal.Weighted>
0.3621

> <Gold.Chemscore.Rot.Weighted>
4.9754

> <Gold.Chemscore.Internal.Correction.Weighted>
   9.000000E+99

> <Gold.Protein.RotatedTorsions>
[ 6907 6896 6895 6894 ] final  -57.60 input  -60.11 | X-H torsion
[ 7974 7965 7964 7962 ] final   -8.34 input  175.53 | X-H torsion
[ 8008 7997 7996 7995 ] final    0.90 input   59.86 | X-H torsion
[ 10167 10162 10161 10158 ] final  -85.16 input  -65.29 | X-H torsion
[ 10718 10713 10712 10709 ] final  -70.57 input   66.30 | X-H torsion
[ 10763 10752 10751 10750 ] final -136.77 input  -60.55 | X-H torsion
[ 11005 11000 10999 10996 ] final -123.43 input  -57.11 | X-H torsion

> <Gold.Protein.ActiveResidues>
 VAL166  LYS551  ARG553  GLY616  TRP617  ASP618  TYR619  PRO620  LYS621  CYS622 
 ASP623  PHE694  ASN695  SER759  ASP760  ASP761  ALA762  ILE779  LEU786  VAL792 
 PHE793  MET794  SER795  GLU796  ALA797  LYS798  CYS799  TRP800  GLU811  SER814 

> <Gold.Protein.RotatedAtoms>
  150.8073  134.7206  159.6655 H   0  0  0  0  0  0  0  0  0  0  0  0  # atno 6907 bound_to 6896
  152.4193  134.5981  160.0002 H   0  0  0  0  0  0  0  0  0  0  0  0  # atno 6908 bound_to 6896
  151.6201  133.3302  159.3122 H   0  0  0  0  0  0  0  0  0  0  0  0  # atno 6909 bound_to 6896
  146.2283  140.2453  142.8345 H   0  0  0  0  0  0  0  0  0  0  0  0  # atno 7974 bound_to 7965
  154.6735  140.2617  155.6982 H   0  0  0  0  0  0  0  0  0  0  0  0  # atno 8008 bound_to 7997
  156.2668  140.2824  156.1175 H   0  0  0  0  0  0  0  0  0  0  0  0  # atno 8009 bound_to 7997
  155.1134  140.0376  157.2720 H   0  0  0  0  0  0  0  0  0  0  0  0  # atno 8010 bound_to 7997
  140.4064  143.2641  151.9076 H   0  0  0  0  0  0  0  0  0  0  0  0  # atno 10167 bound_to 10162
  156.0401  130.4334  150.2316 H   0  0  0  0  0  0  0  0  0  0  0  0  # atno 10718 bound_to 10713
  154.8676  135.3662  154.5115 H   0  0  0  0  0  0  0  0  0  0  0  0  # atno 10763 bound_to 10752
  153.5750  135.7020  153.5493 H   0  0  0  0  0  0  0  0  0  0  0  0  # atno 10764 bound_to 10752
  153.3508  135.4072  155.1607 H   0  0  0  0  0  0  0  0  0  0  0  0  # atno 10765 bound_to 10752
  140.9919  134.0526  157.3643 H   0  0  0  0  0  0  0  0  0  0  0  0  # atno 11005 bound_to 11000
  144.9453  140.8121  143.5605 LP  0  0  0  0  0  0  0  0  0  0  0  0  # atno 17320 bound_to 7965
  145.2409  139.2073  143.4993 LP  0  0  0  0  0  0  0  0  0  0  0  0  # atno 17321 bound_to 7965
  139.4783  144.5582  151.8281 LP  0  0  0  0  0  0  0  0  0  0  0  0  # atno 17342 bound_to 10162
  140.4685  144.1620  150.5915 LP  0  0  0  0  0  0  0  0  0  0  0  0  # atno 17343 bound_to 10162
  157.0411  131.0035  151.3283 LP  0  0  0  0  0  0  0  0  0  0  0  0  # atno 17370 bound_to 10713
  157.5208  130.7997  149.7807 LP  0  0  0  0  0  0  0  0  0  0  0  0  # atno 17371 bound_to 10713
  139.8996  135.0159  156.7205 LP  0  0  0  0  0  0  0  0  0  0  0  0  # atno 17394 bound_to 11000
  140.7026  133.9293  155.8033 LP  0  0  0  0  0  0  0  0  0  0  0  0  # atno 17395 bound_to 11000

$$$$
