AV-unprocessed.smi:2445|AV-procd|sdf|9636|dock2
  -GOLD-   2272013273D 1   1.00000     0.00000
 Structure written by MMmdl.
 40 41  0  0  0  0  0  0  0  0  1 V2000
  145.6609  131.9570  150.9079 C   0  0  0  0  0  0  0  0  0  0  0  0
  145.4227  133.3956  151.2176 C   0  0  0  0  0  0  0  0  0  0  0  0
  145.0253  134.3864  150.3545 C   0  0  0  0  0  0  0  0  0  0  0  0
  144.8831  135.6371  150.9587 N   0  0  0  0  0  0  0  0  0  0  0  0
  145.1652  135.6096  152.2643 C   0  0  0  0  0  0  0  0  0  0  0  0
  145.0430  136.7992  153.1683 C   0  0  1  0  0  0  0  0  0  0  0  0
  145.3360  136.4396  154.6323 C   0  0  0  0  0  0  0  0  0  0  0  0
  145.8446  138.0241  152.6756 C   0  0  0  0  0  0  0  0  0  0  0  0
  147.2755  137.8928  152.9461 N   0  0  0  0  0  0  0  0  0  0  0  0
  147.9066  138.3431  154.0403 C   0  0  0  0  0  0  0  0  0  0  0  0
  147.3629  138.9865  154.9377 O   0  0  0  0  0  0  0  0  0  0  0  0
  149.1987  137.9879  154.0477 N   0  0  0  0  0  0  0  0  0  0  0  0
  150.1434  138.2616  155.1310 C   0  0  1  0  0  0  0  0  0  0  0  0
  151.4896  137.5963  154.8488 C   0  0  0  0  0  0  0  0  0  0  0  0
  152.5091  138.7077  155.0752 C   0  0  0  0  0  0  0  0  0  0  0  0
  151.7950  139.8801  154.7260 O   0  0  0  0  0  0  0  0  0  0  0  0
  150.4954  139.7591  155.2860 C   0  0  1  0  0  0  0  0  0  0  0  0
  149.5457  140.7835  154.6446 C   0  0  0  0  0  0  0  0  0  0  0  0
  145.6392  134.0129  152.8339 S   0  0  0  0  0  0  0  0  0  0  0  0
  145.4146  131.7328  149.8697 H   0  0  0  0  0  0  0  0  0  0  0  0
  145.0480  131.3184  151.5443 H   0  0  0  0  0  0  0  0  0  0  0  0
  146.7064  131.6948  151.0709 H   0  0  0  0  0  0  0  0  0  0  0  0
  144.8179  134.2898  149.2989 H   0  0  0  0  0  0  0  0  0  0  0  0
  143.9923  137.0908  153.1382 H   0  0  0  0  0  0  0  0  0  0  0  0
  144.6867  135.6336  154.9758 H   0  0  0  0  0  0  0  0  0  0  0  0
  145.1743  137.2959  155.2875 H   0  0  0  0  0  0  0  0  0  0  0  0
  146.3686  136.1137  154.7610 H   0  0  0  0  0  0  0  0  0  0  0  0
  145.7174  138.1392  151.5989 H   0  0  0  0  0  0  0  0  0  0  0  0
  145.4502  138.9369  153.1254 H   0  0  0  0  0  0  0  0  0  0  0  0
  147.8182  137.3818  152.2654 H   0  0  0  0  0  0  0  0  0  0  0  0
  149.5527  137.4653  153.2600 H   0  0  0  0  0  0  0  0  0  0  0  0
  149.7498  137.8884  156.0783 H   0  0  0  0  0  0  0  0  0  0  0  0
  151.6735  136.7314  155.4869 H   0  0  0  0  0  0  0  0  0  0  0  0
  151.5503  137.2599  153.8125 H   0  0  0  0  0  0  0  0  0  0  0  0
  152.8044  138.7586  156.1245 H   0  0  0  0  0  0  0  0  0  0  0  0
  153.4074  138.5861  154.4699 H   0  0  0  0  0  0  0  0  0  0  0  0
  150.5799  139.9838  156.3509 H   0  0  0  0  0  0  0  0  0  0  0  0
  148.5390  140.6955  155.0533 H   0  0  0  0  0  0  0  0  0  0  0  0
  149.4865  140.6561  153.5635 H   0  0  0  0  0  0  0  0  0  0  0  0
  149.8910  141.7997  154.8359 H   0  0  0  0  0  0  0  0  0  0  0  0
  1  2  1  0  0  0  0
  1 20  1  0  0  0  0
  1 21  1  0  0  0  0
  1 22  1  0  0  0  0
  2 19  1  0  0  0  0
  2  3  2  0  0  0  0
  3  4  1  0  0  0  0
  3 23  1  0  0  0  0
  4  5  2  0  0  0  0
  5  6  1  0  0  0  0
  5 19  1  0  0  0  0
  6  7  1  0  0  0  0
  6  8  1  0  0  0  0
  6 24  1  0  0  0  0
  7 25  1  0  0  0  0
  7 26  1  0  0  0  0
  7 27  1  0  0  0  0
  8  9  1  0  0  0  0
  8 28  1  0  0  0  0
  8 29  1  0  0  0  0
  9 10  1  0  0  0  0
  9 30  1  0  0  0  0
 10 11  2  0  0  0  0
 10 12  1  0  0  0  0
 12 13  1  0  0  0  0
 12 31  1  0  0  0  0
 13 17  1  0  0  0  0
 13 14  1  0  0  0  0
 13 32  1  0  0  0  0
 14 15  1  0  0  0  0
 14 33  1  0  0  0  0
 14 34  1  0  0  0  0
 15 16  1  0  0  0  0
 15 35  1  0  0  0  0
 15 36  1  0  0  0  0
 16 17  1  0  0  0  0
 17 18  1  0  0  0  0
 17 37  1  0  0  0  0
 18 38  1  0  0  0  0
 18 39  1  0  0  0  0
 18 40  1  0  0  0  0
M  END
> <s_m_source_file>
AV-unprocessed.smi

> <i_m_source_file_index>
2445

> <i_lp_mmshare_version>
43012

> <i_f3d_flags>
0

> <s_epik_input>
W0NIM11jMVtjSF1uYyhzMSlbQ0BIXShbQ0gzXSlbQ0gyXVtOSF1DKD1PKVtOSF1bQ0BASF0yW0NIMl1bQ0gyXU9bQ0BIXTJbQ0gzXQ==

> <s_epik_cmdline>
J2VwaWtfcHl0aG9uJywgJy1waCcsICc3LjAnLCAnLXRuJywgJzgnLCAnLW1hJywgJzIwMCcsICctbWV0YWxfYmluZGluZycsICctaW1hZScsICc8aW5maWxlLm1hZT4nLCAnLW9tYWUnLCAnPG91dGZpbGUubWFlPic=

> <r_epik_Ionization_Penalty>
0.000649483

> <r_epik_Ionization_Penalty_Charging>
0

> <r_epik_Ionization_Penalty_Neutral>
0.000649483

> <r_epik_State_Penalty>
0.000379895

> <r_epik_Charging_Adjusted_Penalty>
0.000379895

> <i_epik_Tot_Q>
0

> <i_epik_Tot_abs_Q>
0

> <r_epik_Metal_State_Penalty>
-0

> <b_epik_Metal_Only>
0

> <s_lp_Force_Field>
OPLS_2005

> <r_lp_Energy>
6.66007

> <b_lp_Chiralities_Consistent>
1

> <s_lp_Variant>
AV-unprocessed.smi:2445-4

> <Gold.Version>
5.8.1

> <Gold.Id.Protein>
6NUR|6NUR_protein|mol2

> <Gold.PLP.Fitness>
38.8332

> <Gold.PLP.PLP>
-27.9935

> <Gold.PLP.part.hbond>
-2.7594

> <Gold.PLP.part.metal>
0.0000

> <Gold.PLP.part.buried>
-3.5652

> <Gold.PLP.part.nonpolar>
-22.6856

> <Gold.PLP.part.repulsive>
0.4118

> <Gold.PLP.ligand.clash>
0.0000

> <Gold.PLP.ligand.torsion>
0.3757

> <Gold.PLP.Chemscore.Hbond>
2.8400

> <Gold.PLP.Chemscore.CHOScore>
0.9730

> <Gold.PLP.Chemscore.Metal>
0.0000

> <Gold.Chemscore.Hbonds>
donor molecule, donor type, donor heavy atom, donor atom, acceptor molecule, acceptor atom, score
      L1  H     9    30       P1  7948  1.00
      L1  H    12    31       P1  7948  0.85
      P1  H  7989  7998       L1    16  1.00
      L1  C     3    23       P1  7921  0.95

> <Gold.PLP.Chemscore.Internal.Correction>
0.1523

> <Gold.Rescore>
     Score         DG    S(hbond)    S(metal)    S(lipo)     H(rot)  DE(clash)    DE(int)     intcor
     16.50     -19.40       2.81        0.00      72.25       1.53       0.01       2.89       ----

> <Gold.Chemscore.Fitness>
16.5031

> <Gold.Chemscore.DG>
-19.4038

> <Gold.Chemscore.ZeroCoef>
-5.4800

> <Gold.Chemscore.Hbond>
2.8124

> <Gold.Chemscore.Metal>
0.0000

> <Gold.Chemscore.Lipo>
72.2534

> <Gold.Chemscore.Internal_Hbond>
0.0000

> <Gold.Chemscore.DEClash>
0.0069

> <Gold.Chemscore.DEInternal>
2.8937

> <Gold.Chemscore.Rot>
1.5325

> <Gold.Chemscore.Internal.Correction>
   9.000000E+99

> <Gold.Chemscore.Hbonds>
donor molecule, donor type, donor heavy atom, donor atom, acceptor molecule, acceptor atom, score
      L1  H     9    30       P1  7948  0.97
      L1  H    12    31       P1  7948  0.72
      P1  H  7989  7998       L1    16  0.55

> <Gold.Chemscore.Hbond.Weighted>
-9.3934

> <Gold.Chemscore.Metal.Weighted>
-0.0000

> <Gold.Chemscore.Lipo.Weighted>
-8.4536

> <Gold.Chemscore.Internal_Hbond.Weighted>
0.0000

> <Gold.Chemscore.DEClash.Weighted>
0.0069

> <Gold.Chemscore.DEInternal.Weighted>
2.8937

> <Gold.Chemscore.Rot.Weighted>
3.9233

> <Gold.Chemscore.Internal.Correction.Weighted>
   9.000000E+99

> <Gold.Protein.RotatedTorsions>
[ 6907 6896 6895 6894 ] final -101.72 input  -60.11 | X-H torsion
[ 7974 7965 7964 7962 ] final  -54.18 input  175.53 | X-H torsion
[ 8008 7997 7996 7995 ] final -166.87 input   59.86 | X-H torsion
[ 10167 10162 10161 10158 ] final  151.95 input  -65.29 | X-H torsion
[ 10718 10713 10712 10709 ] final   73.06 input   66.30 | X-H torsion
[ 10763 10752 10751 10750 ] final -140.30 input  -60.55 | X-H torsion
[ 11005 11000 10999 10996 ] final  154.56 input  -57.11 | X-H torsion

> <Gold.Protein.ActiveResidues>
 VAL166  LYS551  ARG553  GLY616  TRP617  ASP618  TYR619  PRO620  LYS621  CYS622 
 ASP623  PHE694  ASN695  SER759  ASP760  ASP761  ALA762  ILE779  LEU786  VAL792 
 PHE793  MET794  SER795  GLU796  ALA797  LYS798  CYS799  TRP800  GLU811  SER814 

> <Gold.Protein.RotatedAtoms>
  150.7166  134.0691  159.3857 H   0  0  0  0  0  0  0  0  0  0  0  0  # atno 6907 bound_to 6896
  151.8673  135.0500  160.0485 H   0  0  0  0  0  0  0  0  0  0  0  0  # atno 6908 bound_to 6896
  152.2671  133.5313  159.5453 H   0  0  0  0  0  0  0  0  0  0  0  0  # atno 6909 bound_to 6896
  145.8885  140.8089  142.9803 H   0  0  0  0  0  0  0  0  0  0  0  0  # atno 7974 bound_to 7965
  155.8699  140.0991  157.1557 H   0  0  0  0  0  0  0  0  0  0  0  0  # atno 8008 bound_to 7997
  154.3996  140.1349  156.4128 H   0  0  0  0  0  0  0  0  0  0  0  0  # atno 8009 bound_to 7997
  155.7762  140.3459  155.5275 H   0  0  0  0  0  0  0  0  0  0  0  0  # atno 8010 bound_to 7997
  139.4836  144.5399  151.7582 H   0  0  0  0  0  0  0  0  0  0  0  0  # atno 10167 bound_to 10162
  157.6530  130.9610  150.1017 H   0  0  0  0  0  0  0  0  0  0  0  0  # atno 10718 bound_to 10713
  154.8583  135.3557  154.5686 H   0  0  0  0  0  0  0  0  0  0  0  0  # atno 10763 bound_to 10752
  153.6299  135.7002  153.5284 H   0  0  0  0  0  0  0  0  0  0  0  0  # atno 10764 bound_to 10752
  153.3058  135.4193  155.1252 H   0  0  0  0  0  0  0  0  0  0  0  0  # atno 10765 bound_to 10752
  140.1500  134.8681  157.2442 H   0  0  0  0  0  0  0  0  0  0  0  0  # atno 11005 bound_to 11000
  144.6729  140.1493  143.7431 LP  0  0  0  0  0  0  0  0  0  0  0  0  # atno 17320 bound_to 7965
  145.8937  139.2390  143.1534 LP  0  0  0  0  0  0  0  0  0  0  0  0  # atno 17321 bound_to 7965
  140.4937  144.1273  150.5955 LP  0  0  0  0  0  0  0  0  0  0  0  0  # atno 17342 bound_to 10162
  140.4142  143.2642  151.9795 LP  0  0  0  0  0  0  0  0  0  0  0  0  # atno 17343 bound_to 10162
  156.1938  130.3656  149.8876 LP  0  0  0  0  0  0  0  0  0  0  0  0  # atno 17370 bound_to 10713
  156.6798  130.8853  151.3574 LP  0  0  0  0  0  0  0  0  0  0  0  0  # atno 17371 bound_to 10713
  140.2616  134.3564  155.7404 LP  0  0  0  0  0  0  0  0  0  0  0  0  # atno 17394 bound_to 11000
  141.2198  133.7372  156.9088 LP  0  0  0  0  0  0  0  0  0  0  0  0  # atno 17395 bound_to 11000

$$$$
