AV-unprocessed.smi:2794|AV-procd|sdf|10777|dock3
  -GOLD-   2272015213D 1   1.00000     0.00000
 Structure written by MMmdl.
 34 35  0  0  0  0  0  0  0  0  1 V2000
  149.2604  137.5685  154.6848 C   0  0  0  0  0  0  0  0  0  0  0  0
  148.8159  138.9972  154.4526 C   0  0  0  0  0  0  0  0  0  0  0  0
  147.8078  139.3004  153.5167 C   0  0  0  0  0  0  0  0  0  0  0  0
  147.4441  140.6485  153.3483 C   0  0  0  0  0  0  0  0  0  0  0  0
  148.0990  141.6302  154.1166 C   0  0  0  0  0  0  0  0  0  0  0  0
  149.0997  141.2410  155.0349 C   0  0  0  0  0  0  0  0  0  0  0  0
  149.6961  142.3057  155.7602 N   0  0  0  0  0  0  0  0  0  0  0  0
  150.6861  142.2466  156.6734 C   0  0  0  0  0  0  0  0  0  0  0  0
  151.2541  141.2141  157.0253 O   0  0  0  0  0  0  0  0  0  0  0  0
  151.0199  143.4380  157.2045 N   0  0  0  0  0  0  0  0  0  0  0  0
  152.0402  143.7373  158.2120 C   0  0  1  0  0  0  0  0  0  0  0  0
  151.8103  145.1135  158.8252 C   0  0  0  0  0  0  0  0  0  0  0  0
  151.8904  145.3674  160.1424 C   0  0  0  0  0  0  0  0  0  0  0  0
  152.2315  144.3134  161.1789 C   0  0  0  0  0  0  0  0  0  0  0  0
  152.8219  143.0436  160.5411 C   0  0  0  0  0  0  0  0  0  0  0  0
  152.0438  142.6261  159.2840 C   0  0  0  0  0  0  0  0  0  0  0  0
  149.4436  139.9384  155.1900 N   0  0  0  0  0  0  0  0  0  0  0  0
  148.6594  136.8677  154.1050 H   0  0  0  0  0  0  0  0  0  0  0  0
  149.1649  137.3071  155.7391 H   0  0  0  0  0  0  0  0  0  0  0  0
  150.3039  137.4457  154.3931 H   0  0  0  0  0  0  0  0  0  0  0  0
  147.3252  138.5238  152.9419 H   0  0  0  0  0  0  0  0  0  0  0  0
  146.6757  140.9259  152.6420 H   0  0  0  0  0  0  0  0  0  0  0  0
  147.8314  142.6704  153.9998 H   0  0  0  0  0  0  0  0  0  0  0  0
  149.3191  143.2229  155.5728 H   0  0  0  0  0  0  0  0  0  0  0  0
  150.4854  144.2315  156.8813 H   0  0  0  0  0  0  0  0  0  0  0  0
  153.0253  143.7543  157.7432 H   0  0  0  0  0  0  0  0  0  0  0  0
  151.5706  145.9196  158.1469 H   0  0  0  0  0  0  0  0  0  0  0  0
  151.6946  146.3645  160.5088 H   0  0  0  0  0  0  0  0  0  0  0  0
  152.9370  144.7297  161.8983 H   0  0  0  0  0  0  0  0  0  0  0  0
  151.3208  144.0726  161.7281 H   0  0  0  0  0  0  0  0  0  0  0  0
  153.8630  143.2244  160.2702 H   0  0  0  0  0  0  0  0  0  0  0  0
  152.8301  142.2318  161.2689 H   0  0  0  0  0  0  0  0  0  0  0  0
  151.0192  142.3881  159.5749 H   0  0  0  0  0  0  0  0  0  0  0  0
  152.4644  141.7095  158.8688 H   0  0  0  0  0  0  0  0  0  0  0  0
  1  2  1  0  0  0  0
  1 18  1  0  0  0  0
  1 19  1  0  0  0  0
  1 20  1  0  0  0  0
  2 17  1  0  0  0  0
  2  3  2  0  0  0  0
  3  4  1  0  0  0  0
  3 21  1  0  0  0  0
  4  5  2  0  0  0  0
  4 22  1  0  0  0  0
  5  6  1  0  0  0  0
  5 23  1  0  0  0  0
  6  7  1  0  0  0  0
  6 17  2  0  0  0  0
  7  8  1  0  0  0  0
  7 24  1  0  0  0  0
  8  9  2  0  0  0  0
  8 10  1  0  0  0  0
 10 11  1  0  0  0  0
 10 25  1  0  0  0  0
 11 16  1  0  0  0  0
 11 12  1  0  0  0  0
 11 26  1  0  0  0  0
 12 13  2  0  0  0  0
 12 27  1  0  0  0  0
 13 14  1  0  0  0  0
 13 28  1  0  0  0  0
 14 15  1  0  0  0  0
 14 29  1  0  0  0  0
 14 30  1  0  0  0  0
 15 16  1  0  0  0  0
 15 31  1  0  0  0  0
 15 32  1  0  0  0  0
 16 33  1  0  0  0  0
 16 34  1  0  0  0  0
M  END
> <s_m_source_file>
AV-unprocessed.smi

> <i_m_source_file_index>
2794

> <i_lp_mmshare_version>
43012

> <i_f3d_flags>
0

> <s_epik_input>
W0NIM11jMVtjSF1bY0hdW2NIXWMobjEpW05IXUMoPU8pW05IXVtDQEBIXTJbQ0hdPVtDSF1bQ0gyXVtDSDJdW0NIMl0y

> <s_epik_cmdline>
J2VwaWtfcHl0aG9uJywgJy1waCcsICc3LjAnLCAnLXRuJywgJzgnLCAnLW1hJywgJzIwMCcsICctbWV0YWxfYmluZGluZycsICctaW1hZScsICc8aW5maWxlLm1hZT4nLCAnLW9tYWUnLCAnPG91dGZpbGUubWFlPic=

> <r_lp_tautomer_probability>
1

> <r_epik_Ionization_Penalty>
8.4544e-05

> <r_epik_Ionization_Penalty_Charging>
0

> <r_epik_Ionization_Penalty_Neutral>
8.4544e-05

> <r_epik_State_Penalty>
-0

> <r_epik_Charging_Adjusted_Penalty>
0

> <i_epik_Tot_Q>
0

> <i_epik_Tot_abs_Q>
0

> <r_epik_Metal_State_Penalty>
-0

> <b_epik_Metal_Only>
0

> <s_lp_Force_Field>
OPLS_2005

> <r_lp_Energy>
18.5134

> <b_lp_Chiralities_Consistent>
1

> <s_lp_Variant>
AV-unprocessed.smi:2794-2

> <Gold.Version>
5.8.1

> <Gold.Id.Protein>
6NUR|6NUR_protein|mol2

> <Gold.PLP.Fitness>
45.8873

> <Gold.PLP.PLP>
-40.8048

> <Gold.PLP.part.hbond>
-2.0000

> <Gold.PLP.part.metal>
0.0000

> <Gold.PLP.part.buried>
-2.4916

> <Gold.PLP.part.nonpolar>
-36.4289

> <Gold.PLP.part.repulsive>
0.2429

> <Gold.PLP.ligand.clash>
0.0000

> <Gold.PLP.ligand.torsion>
0.2583

> <Gold.PLP.Chemscore.Hbond>
1.8640

> <Gold.PLP.Chemscore.CHOScore>
0.0000

> <Gold.PLP.Chemscore.Metal>
0.0000

> <Gold.Chemscore.Hbonds>
donor molecule, donor type, donor heavy atom, donor atom, acceptor molecule, acceptor atom, score
      L1  H     7    24       P1  8028  1.00
      L1  H    10    25       P1  8028  0.83

> <Gold.PLP.Chemscore.Internal.Correction>
0.0072

> <Gold.Rescore>
     Score         DG    S(hbond)    S(metal)    S(lipo)     H(rot)  DE(clash)    DE(int)     intcor
     18.65     -21.44       1.93        0.00     103.37       1.00       0.18       2.62       ----

> <Gold.Chemscore.Fitness>
18.6454

> <Gold.Chemscore.DG>
-21.4440

> <Gold.Chemscore.ZeroCoef>
-5.4800

> <Gold.Chemscore.Hbond>
1.9252

> <Gold.Chemscore.Metal>
0.0000

> <Gold.Chemscore.Lipo>
103.3675

> <Gold.Chemscore.Internal_Hbond>
0.0000

> <Gold.Chemscore.DEClash>
0.1802

> <Gold.Chemscore.DEInternal>
2.6184

> <Gold.Chemscore.Rot>
1.0000

> <Gold.Chemscore.Internal.Correction>
   9.000000E+99

> <Gold.Chemscore.Hbonds>
donor molecule, donor type, donor heavy atom, donor atom, acceptor molecule, acceptor atom, score
      L1  H     7    24       P1  8028  0.96
      L1  H    10    25       P1  8028  0.76

> <Gold.Chemscore.Hbond.Weighted>
-6.4300

> <Gold.Chemscore.Metal.Weighted>
-0.0000

> <Gold.Chemscore.Lipo.Weighted>
-12.0940

> <Gold.Chemscore.Internal_Hbond.Weighted>
0.0000

> <Gold.Chemscore.DEClash.Weighted>
0.1802

> <Gold.Chemscore.DEInternal.Weighted>
2.6184

> <Gold.Chemscore.Rot.Weighted>
2.5600

> <Gold.Chemscore.Internal.Correction.Weighted>
   9.000000E+99

> <Gold.Protein.RotatedTorsions>
[ 6907 6896 6895 6894 ] final    2.96 input  -60.11 | X-H torsion
[ 7974 7965 7964 7962 ] final -128.62 input  175.53 | X-H torsion
[ 8008 7997 7996 7995 ] final  -30.75 input   59.86 | X-H torsion
[ 10167 10162 10161 10158 ] final  -48.35 input  -65.29 | X-H torsion
[ 10718 10713 10712 10709 ] final   14.09 input   66.30 | X-H torsion
[ 10763 10752 10751 10750 ] final   83.30 input  -60.55 | X-H torsion
[ 11005 11000 10999 10996 ] final   14.11 input  -57.11 | X-H torsion

> <Gold.Protein.ActiveResidues>
 VAL166  LYS551  ARG553  GLY616  TRP617  ASP618  TYR619  PRO620  LYS621  CYS622 
 ASP623  PHE694  ASN695  SER759  ASP760  ASP761  ALA762  ILE779  LEU786  VAL792 
 PHE793  MET794  SER795  GLU796  ALA797  LYS798  CYS799  TRP800  GLU811  SER814 

> <Gold.Protein.RotatedAtoms>
  151.6173  135.1035  160.0093 H   0  0  0  0  0  0  0  0  0  0  0  0  # atno 6907 bound_to 6896
  152.4176  133.7060  159.6462 H   0  0  0  0  0  0  0  0  0  0  0  0  # atno 6908 bound_to 6896
  150.8064  133.8428  159.3225 H   0  0  0  0  0  0  0  0  0  0  0  0  # atno 6909 bound_to 6896
  144.9653  140.7489  143.4704 H   0  0  0  0  0  0  0  0  0  0  0  0  # atno 7974 bound_to 7965
  154.4239  140.1783  156.1457 H   0  0  0  0  0  0  0  0  0  0  0  0  # atno 8008 bound_to 7997
  155.9956  140.3365  155.6770 H   0  0  0  0  0  0  0  0  0  0  0  0  # atno 8009 bound_to 7997
  155.6313  140.0670  157.2638 H   0  0  0  0  0  0  0  0  0  0  0  0  # atno 8010 bound_to 7997
  140.6735  143.2744  151.4058 H   0  0  0  0  0  0  0  0  0  0  0  0  # atno 10167 bound_to 10162
  157.0341  130.6204  149.5740 H   0  0  0  0  0  0  0  0  0  0  0  0  # atno 10718 bound_to 10713
  153.1279  135.4696  154.9302 H   0  0  0  0  0  0  0  0  0  0  0  0  # atno 10763 bound_to 10752
  154.7637  135.3138  154.8330 H   0  0  0  0  0  0  0  0  0  0  0  0  # atno 10764 bound_to 10752
  153.8880  135.6887  153.4816 H   0  0  0  0  0  0  0  0  0  0  0  0  # atno 10765 bound_to 10752
  140.4731  134.1010  155.7736 H   0  0  0  0  0  0  0  0  0  0  0  0  # atno 11005 bound_to 11000
  145.2639  139.1981  143.4877 LP  0  0  0  0  0  0  0  0  0  0  0  0  # atno 17320 bound_to 7965
  146.3366  140.2574  142.8600 LP  0  0  0  0  0  0  0  0  0  0  0  0  # atno 17321 bound_to 7965
  139.6015  144.1286  152.2203 LP  0  0  0  0  0  0  0  0  0  0  0  0  # atno 17342 bound_to 10162
  140.0672  144.5809  150.7219 LP  0  0  0  0  0  0  0  0  0  0  0  0  # atno 17343 bound_to 10162
  156.0060  130.5146  150.7830 LP  0  0  0  0  0  0  0  0  0  0  0  0  # atno 17370 bound_to 10713
  157.5155  131.0928  151.0144 LP  0  0  0  0  0  0  0  0  0  0  0  0  # atno 17371 bound_to 10713
  141.1567  133.8869  157.1958 LP  0  0  0  0  0  0  0  0  0  0  0  0  # atno 17394 bound_to 11000
  139.9872  135.0077  156.9891 LP  0  0  0  0  0  0  0  0  0  0  0  0  # atno 17395 bound_to 11000

$$$$
