AV-unprocessed.smi:2786|AV-procd|sdf|10755|dock4
  -GOLD-   2272015183D 1   1.00000     0.00000
 Structure written by MMmdl.
 26 27  0  0  0  0  0  0  0  0  1 V2000
  148.7840  141.8462  155.1588 C   0  0  0  0  0  0  0  0  0  0  0  0
  149.8939  140.9240  155.3009 N   0  0  0  0  0  0  0  0  0  0  0  0
  150.1575  139.8372  154.4777 C   0  0  0  0  0  0  0  0  0  0  0  0
  151.2885  139.2341  154.9713 C   0  0  0  0  0  0  0  0  0  0  0  0
  151.7304  139.9307  156.0904 N   0  0  0  0  0  0  0  0  0  0  0  0
  150.8659  140.9332  156.2348 C   0  0  0  0  0  0  0  0  0  0  0  0
  150.9288  141.9521  157.3373 C   0  0  1  0  0  0  0  0  0  0  0  0
  152.0081  141.5782  158.3766 C   0  0  0  0  0  0  0  0  0  0  0  0
  152.0645  142.5670  159.4557 N   0  0  0  0  0  0  0  0  0  0  0  0
  152.3125  143.9083  158.9248 C   0  0  0  0  0  0  0  0  0  0  0  0
  151.2344  144.2909  157.8948 C   0  0  0  0  0  0  0  0  0  0  0  0
  151.1757  143.3027  156.8158 N   0  0  0  0  0  0  0  0  0  0  0  0
  148.1059  141.5010  154.3778 H   0  0  0  0  0  0  0  0  0  0  0  0
  149.1584  142.8341  154.8898 H   0  0  0  0  0  0  0  0  0  0  0  0
  148.2335  141.9119  156.0977 H   0  0  0  0  0  0  0  0  0  0  0  0
  149.5329  139.5870  153.6326 H   0  0  0  0  0  0  0  0  0  0  0  0
  151.8121  138.3601  154.6131 H   0  0  0  0  0  0  0  0  0  0  0  0
  149.9623  141.9580  157.8420 H   0  0  0  0  0  0  0  0  0  0  0  0
  151.7948  140.5934  158.7928 H   0  0  0  0  0  0  0  0  0  0  0  0
  152.9816  141.5042  157.8896 H   0  0  0  0  0  0  0  0  0  0  0  0
  152.8063  142.3178  160.1020 H   0  0  0  0  0  0  0  0  0  0  0  0
  152.3218  144.6342  159.7379 H   0  0  0  0  0  0  0  0  0  0  0  0
  153.2986  143.9489  158.4600 H   0  0  0  0  0  0  0  0  0  0  0  0
  150.2633  144.3647  158.3864 H   0  0  0  0  0  0  0  0  0  0  0  0
  151.4501  145.2768  157.4829 H   0  0  0  0  0  0  0  0  0  0  0  0
  150.4336  143.5528  156.1704 H   0  0  0  0  0  0  0  0  0  0  0  0
  1  2  1  0  0  0  0
  1 13  1  0  0  0  0
  1 14  1  0  0  0  0
  1 15  1  0  0  0  0
  2  6  1  0  0  0  0
  2  3  1  0  0  0  0
  3  4  2  0  0  0  0
  3 16  1  0  0  0  0
  4  5  1  0  0  0  0
  4 17  1  0  0  0  0
  5  6  2  0  0  0  0
  6  7  1  0  0  0  0
  7 12  1  0  0  0  0
  7  8  1  0  0  0  0
  7 18  1  0  0  0  0
  8  9  1  0  0  0  0
  8 19  1  0  0  0  0
  8 20  1  0  0  0  0
  9 10  1  0  0  0  0
  9 21  1  0  0  0  0
 10 11  1  0  0  0  0
 10 22  1  0  0  0  0
 10 23  1  0  0  0  0
 11 12  1  0  0  0  0
 11 24  1  0  0  0  0
 11 25  1  0  0  0  0
 12 26  1  0  0  0  0
M  END
> <s_m_source_file>
AV-unprocessed.smi

> <i_m_source_file_index>
2786

> <i_lp_mmshare_version>
43012

> <i_f3d_flags>
0

> <s_epik_input>
W0NIM11uMVtjSF1bY0hdbmMxW0NAQEhdMltDSDJdW05IXVtDSDJdW0NIMl1bTkhdMg==

> <s_epik_cmdline>
J2VwaWtfcHl0aG9uJywgJy1waCcsICc3LjAnLCAnLXRuJywgJzgnLCAnLW1hJywgJzIwMCcsICctbWV0YWxfYmluZGluZycsICctaW1hZScsICc8aW5maWxlLm1hZT4nLCAnLW9tYWUnLCAnPG91dGZpbGUubWFlPic=

> <r_lp_tautomer_probability>
1

> <r_epik_Ionization_Penalty>
3.5722

> <r_epik_Ionization_Penalty_Charging>
1.66148

> <r_epik_Ionization_Penalty_Neutral>
1.91072

> <r_epik_State_Penalty>
2.63328

> <r_epik_Charging_Adjusted_Penalty>
4.29476

> <i_epik_Tot_Q>
0

> <i_epik_Tot_abs_Q>
0

> <r_epik_Metal_State_Penalty>
0.942173

> <b_epik_Metal_Only>
0

> <s_lp_Force_Field>
OPLS_2005

> <r_lp_Energy>
22.0451

> <b_lp_Chiralities_Consistent>
1

> <s_lp_Variant>
AV-unprocessed.smi:2786-8

> <Gold.Version>
5.8.1

> <Gold.Id.Protein>
6NUR|6NUR_protein|mol2

> <Gold.PLP.Fitness>
31.1811

> <Gold.PLP.PLP>
-25.3488

> <Gold.PLP.part.hbond>
-1.0000

> <Gold.PLP.part.metal>
0.0000

> <Gold.PLP.part.buried>
1.0186

> <Gold.PLP.part.nonpolar>
-25.6528

> <Gold.PLP.part.repulsive>
0.0000

> <Gold.PLP.ligand.clash>
0.0000

> <Gold.PLP.ligand.torsion>
0.0914

> <Gold.PLP.Chemscore.Hbond>
1.0000

> <Gold.PLP.Chemscore.CHOScore>
1.0000

> <Gold.PLP.Chemscore.Metal>
0.0000

> <Gold.Chemscore.Hbonds>
donor molecule, donor type, donor heavy atom, donor atom, acceptor molecule, acceptor atom, score
      L1  H    12    26       P1  8028  0.99
      L1  C     3    16       P1  7957  1.00

> <Gold.PLP.Chemscore.Internal.Correction>
0.0151

> <Gold.Rescore>
     Score         DG    S(hbond)    S(metal)    S(lipo)     H(rot)  DE(clash)    DE(int)     intcor
     12.97     -13.25       0.98        0.00      60.31       1.00       0.04       0.24       ----

> <Gold.Chemscore.Fitness>
12.9703

> <Gold.Chemscore.DG>
-13.2461

> <Gold.Chemscore.ZeroCoef>
-5.4800

> <Gold.Chemscore.Hbond>
0.9789

> <Gold.Chemscore.Metal>
0.0000

> <Gold.Chemscore.Lipo>
60.3129

> <Gold.Chemscore.Internal_Hbond>
0.0000

> <Gold.Chemscore.DEClash>
0.0402

> <Gold.Chemscore.DEInternal>
0.2355

> <Gold.Chemscore.Rot>
1.0000

> <Gold.Chemscore.Internal.Correction>
   9.000000E+99

> <Gold.Chemscore.Hbonds>
donor molecule, donor type, donor heavy atom, donor atom, acceptor molecule, acceptor atom, score
      L1  H    12    26       P1  8028  0.91

> <Gold.Chemscore.Hbond.Weighted>
-3.2695

> <Gold.Chemscore.Metal.Weighted>
-0.0000

> <Gold.Chemscore.Lipo.Weighted>
-7.0566

> <Gold.Chemscore.Internal_Hbond.Weighted>
0.0000

> <Gold.Chemscore.DEClash.Weighted>
0.0402

> <Gold.Chemscore.DEInternal.Weighted>
0.2355

> <Gold.Chemscore.Rot.Weighted>
2.5600

> <Gold.Chemscore.Internal.Correction.Weighted>
   9.000000E+99

> <Gold.Protein.RotatedTorsions>
[ 6907 6896 6895 6894 ] final  170.30 input  -60.11 | X-H torsion
[ 7974 7965 7964 7962 ] final  149.85 input  175.53 | X-H torsion
[ 8008 7997 7996 7995 ] final  -65.40 input   59.86 | X-H torsion
[ 10167 10162 10161 10158 ] final   30.37 input  -65.29 | X-H torsion
[ 10718 10713 10712 10709 ] final -153.35 input   66.30 | X-H torsion
[ 10763 10752 10751 10750 ] final  -82.12 input  -60.55 | X-H torsion
[ 11005 11000 10999 10996 ] final  149.76 input  -57.11 | X-H torsion

> <Gold.Protein.ActiveResidues>
 VAL166  LYS551  ARG553  GLY616  TRP617  ASP618  TYR619  PRO620  LYS621  CYS622 
 ASP623  PHE694  ASN695  SER759  ASP760  ASP761  ALA762  ILE779  LEU786  VAL792 
 PHE793  MET794  SER795  GLU796  ALA797  LYS798  CYS799  TRP800  GLU811  SER814 

> <Gold.Protein.RotatedAtoms>
  151.8183  133.3391  159.3576 H   0  0  0  0  0  0  0  0  0  0  0  0  # atno 6907 bound_to 6896
  150.7303  134.5598  159.5846 H   0  0  0  0  0  0  0  0  0  0  0  0  # atno 6908 bound_to 6896
  152.3024  134.7596  160.0406 H   0  0  0  0  0  0  0  0  0  0  0  0  # atno 6909 bound_to 6896
  144.8407  139.6333  143.6018 H   0  0  0  0  0  0  0  0  0  0  0  0  # atno 7974 bound_to 7965
  154.4669  140.0934  156.7044 H   0  0  0  0  0  0  0  0  0  0  0  0  # atno 8008 bound_to 7997
  155.4832  140.3468  155.4325 H   0  0  0  0  0  0  0  0  0  0  0  0  # atno 8009 bound_to 7997
  156.0972  140.1412  156.9504 H   0  0  0  0  0  0  0  0  0  0  0  0  # atno 8010 bound_to 7997
  140.4684  144.0800  150.6230 H   0  0  0  0  0  0  0  0  0  0  0  0  # atno 10167 bound_to 10162
  156.4846  130.8319  151.2544 H   0  0  0  0  0  0  0  0  0  0  0  0  # atno 10718 bound_to 10713
  154.5719  135.5602  153.7103 H   0  0  0  0  0  0  0  0  0  0  0  0  # atno 10763 bound_to 10752
  153.0051  135.6299  154.2103 H   0  0  0  0  0  0  0  0  0  0  0  0  # atno 10764 bound_to 10752
  154.2043  135.2876  155.2960 H   0  0  0  0  0  0  0  0  0  0  0  0  # atno 10765 bound_to 10752
  140.1072  134.8946  157.1883 H   0  0  0  0  0  0  0  0  0  0  0  0  # atno 11005 bound_to 11000
  146.2700  139.6612  142.9303 LP  0  0  0  0  0  0  0  0  0  0  0  0  # atno 17320 bound_to 7965
  145.4700  141.0436  143.2704 LP  0  0  0  0  0  0  0  0  0  0  0  0  # atno 17321 bound_to 7965
  140.4008  143.2705  151.9950 LP  0  0  0  0  0  0  0  0  0  0  0  0  # atno 17342 bound_to 10162
  139.4815  144.5999  151.7624 LP  0  0  0  0  0  0  0  0  0  0  0  0  # atno 17343 bound_to 10162
  157.7480  131.0033  150.3035 LP  0  0  0  0  0  0  0  0  0  0  0  0  # atno 17370 bound_to 10713
  156.3487  130.3827  149.7347 LP  0  0  0  0  0  0  0  0  0  0  0  0  # atno 17371 bound_to 10713
  140.3139  134.2992  155.7260 LP  0  0  0  0  0  0  0  0  0  0  0  0  # atno 17394 bound_to 11000
  141.2121  133.7668  156.9816 LP  0  0  0  0  0  0  0  0  0  0  0  0  # atno 17395 bound_to 11000

$$$$
