AV-unprocessed.smi:2342|AV-procd|sdf|9355|dock8
  -GOLD-   2272012573D 1   1.00000     0.00000
 Structure written by MMmdl.
 38 38  0  0  0  0  0  0  0  0  2 V2000
  146.8661  134.3183  162.6562 C   0  0  0  0  0  0  0  0  0  0  0  0
  147.6768  134.9283  161.4930 C   0  0  1  0  0  0  0  0  0  0  0  0
  147.3338  134.2908  160.1222 C   0  0  0  0  0  0  0  0  0  0  0  0
  147.6886  135.1619  159.0078 N   0  0  0  0  0  0  0  0  0  0  0  0
  148.5326  134.8496  158.0123 C   0  0  0  0  0  0  0  0  0  0  0  0
  149.1852  133.8066  157.9735 O   0  0  0  0  0  0  0  0  0  0  0  0
  148.6400  135.8647  156.8734 C   0  0  0  0  0  0  0  0  0  0  0  0
  149.5017  137.0180  157.3006 C   0  0  0  0  0  0  0  0  0  0  0  0
  150.5430  136.9826  158.1931 C   0  0  0  0  0  0  0  0  0  0  0  0
  151.3019  138.5398  158.3658 S   0  0  0  0  0  0  0  0  0  0  0  0
  150.1521  139.2081  157.2014 C   0  0  0  0  0  0  0  0  0  0  0  0
  150.1363  140.6395  156.7217 C   0  0  0  0  0  0  0  0  0  0  0  0
  148.7707  141.2793  157.0396 C   0  0  0  0  0  0  0  0  0  0  0  0
  150.3482  140.7216  155.1945 C   0  0  0  0  0  0  0  0  0  0  0  0
  151.2763  141.4302  157.3923 C   0  0  0  0  0  0  0  0  0  0  0  0
  149.2852  138.2899  156.7604 N   0  0  0  0  0  0  0  0  0  0  0  0
  147.5046  136.4600  161.4779 C   0  0  0  0  0  0  0  0  0  0  0  0
  146.8699  136.9823  160.5342 O   0  0  0  0  0  0  0  0  0  0  0  0
  148.0235  137.0960  162.4221 O   0  5  0  0  0  0  0  0  0  0  0  0
  147.0860  134.8045  163.6072 H   0  0  0  0  0  0  0  0  0  0  0  0
  147.0979  133.2614  162.7858 H   0  0  0  0  0  0  0  0  0  0  0  0
  145.7935  134.4023  162.4791 H   0  0  0  0  0  0  0  0  0  0  0  0
  148.7333  134.7470  161.6953 H   0  0  0  0  0  0  0  0  0  0  0  0
  147.8832  133.3575  159.9928 H   0  0  0  0  0  0  0  0  0  0  0  0
  146.2735  134.0376  160.0647 H   0  0  0  0  0  0  0  0  0  0  0  0
  147.1992  136.0431  158.9502 H   0  0  0  0  0  0  0  0  0  0  0  0
  149.0517  135.3747  155.9900 H   0  0  0  0  0  0  0  0  0  0  0  0
  147.6422  136.2099  156.5996 H   0  0  0  0  0  0  0  0  0  0  0  0
  150.9178  136.1334  158.7453 H   0  0  0  0  0  0  0  0  0  0  0  0
  148.7253  142.3134  156.6961 H   0  0  0  0  0  0  0  0  0  0  0  0
  148.5706  141.2844  158.1118 H   0  0  0  0  0  0  0  0  0  0  0  0
  147.9567  140.7364  156.5578 H   0  0  0  0  0  0  0  0  0  0  0  0
  149.5626  140.1966  154.6496 H   0  0  0  0  0  0  0  0  0  0  0  0
  151.3051  140.2908  154.8975 H   0  0  0  0  0  0  0  0  0  0  0  0
  150.3407  141.7562  154.8489 H   0  0  0  0  0  0  0  0  0  0  0  0
  151.2976  142.4652  157.0499 H   0  0  0  0  0  0  0  0  0  0  0  0
  152.2489  140.9891  157.1703 H   0  0  0  0  0  0  0  0  0  0  0  0
  151.1648  141.4504  158.4769 H   0  0  0  0  0  0  0  0  0  0  0  0
  1  2  1  0  0  0  0
  1 20  1  0  0  0  0
  1 21  1  0  0  0  0
  1 22  1  0  0  0  0
  2  3  1  0  0  0  0
  2 17  1  0  0  0  0
  2 23  1  0  0  0  0
  3  4  1  0  0  0  0
  3 24  1  0  0  0  0
  3 25  1  0  0  0  0
  4  5  1  0  0  0  0
  4 26  1  0  0  0  0
  5  6  2  0  0  0  0
  5  7  1  0  0  0  0
  7  8  1  0  0  0  0
  7 27  1  0  0  0  0
  7 28  1  0  0  0  0
  8 16  1  0  0  0  0
  8  9  2  0  0  0  0
  9 10  1  0  0  0  0
  9 29  1  0  0  0  0
 10 11  1  0  0  0  0
 11 12  1  0  0  0  0
 11 16  2  0  0  0  0
 12 13  1  0  0  0  0
 12 14  1  0  0  0  0
 12 15  1  0  0  0  0
 13 30  1  0  0  0  0
 13 31  1  0  0  0  0
 13 32  1  0  0  0  0
 14 33  1  0  0  0  0
 14 34  1  0  0  0  0
 14 35  1  0  0  0  0
 15 36  1  0  0  0  0
 15 37  1  0  0  0  0
 15 38  1  0  0  0  0
 17 18  2  0  0  0  0
 17 19  1  0  0  0  0
M  CHG  1  19  -1
M  END
> <s_m_source_file>
AV-unprocessed.smi

> <i_m_source_file_index>
2342

> <i_lp_mmshare_version>
43012

> <i_f3d_flags>
0

> <s_epik_input>
Tz1DKFtPSF0pW0NASF0oW0NIM10pW0NIMl1bTkhdQyg9TylbQ0gyXWMxW2NIXXNjKG4xKUMoW0NIM10pKFtDSDNdKVtDSDNd

> <s_epik_cmdline>
J2VwaWtfcHl0aG9uJywgJy1waCcsICc3LjAnLCAnLXRuJywgJzgnLCAnLW1hJywgJzIwMCcsICctbWV0YWxfYmluZGluZycsICctaW1hZScsICc8aW5maWxlLm1hZT4nLCAnLW9tYWUnLCAnPG91dGZpbGUubWFlPic=

> <r_epik_Ionization_Penalty>
0.00120065

> <r_epik_Ionization_Penalty_Charging>
0.00115909

> <r_epik_Ionization_Penalty_Neutral>
4.15663e-05

> <r_epik_State_Penalty>
0.00076313

> <r_epik_Charging_Adjusted_Penalty>
0.00192222

> <i_epik_Tot_Q>
-1

> <i_epik_Tot_abs_Q>
1

> <r_epik_Metal_State_Penalty>
-0

> <b_epik_Metal_Only>
0

> <s_lp_Force_Field>
OPLS_2005

> <r_lp_Energy>
-2.08659

> <b_lp_Chiralities_Consistent>
1

> <s_lp_Variant>
AV-unprocessed.smi:2342-2

> <Gold.Version>
5.8.1

> <Gold.Id.Protein>
6NUR|6NUR_protein|mol2

> <Gold.PLP.Fitness>
40.9488

> <Gold.PLP.PLP>
-28.4462

> <Gold.PLP.part.hbond>
-3.0000

> <Gold.PLP.part.metal>
0.0000

> <Gold.PLP.part.buried>
-5.1549

> <Gold.PLP.part.nonpolar>
-20.2854

> <Gold.PLP.part.repulsive>
0.0527

> <Gold.PLP.ligand.clash>
0.0000

> <Gold.PLP.ligand.torsion>
1.1241

> <Gold.PLP.Chemscore.Hbond>
4.8880

> <Gold.PLP.Chemscore.CHOScore>
0.0000

> <Gold.PLP.Chemscore.Metal>
0.0000

> <Gold.Chemscore.Hbonds>
donor molecule, donor type, donor heavy atom, donor atom, acceptor molecule, acceptor atom, score
      P1  H  6896  6907       L1     6  0.99
      P1  H  6931  6943       L1    19  2.00
      P1  H  6934  6947       L1    18  1.66

> <Gold.PLP.Chemscore.Internal.Correction>
0.0868

> <Gold.Rescore>
     Score         DG    S(hbond)    S(metal)    S(lipo)     H(rot)  DE(clash)    DE(int)     intcor
     12.49     -15.59       2.73        0.00      60.54       2.38       0.01       3.09       ----

> <Gold.Chemscore.Fitness>
12.4886

> <Gold.Chemscore.DG>
-15.5898

> <Gold.Chemscore.ZeroCoef>
-5.4800

> <Gold.Chemscore.Hbond>
2.7312

> <Gold.Chemscore.Metal>
0.0000

> <Gold.Chemscore.Lipo>
60.5427

> <Gold.Chemscore.Internal_Hbond>
0.0000

> <Gold.Chemscore.DEClash>
0.0149

> <Gold.Chemscore.DEInternal>
3.0864

> <Gold.Chemscore.Rot>
2.3812

> <Gold.Chemscore.Internal.Correction>
   9.000000E+99

> <Gold.Chemscore.Hbonds>
donor molecule, donor type, donor heavy atom, donor atom, acceptor molecule, acceptor atom, score
      P1  H  6896  6907       L1     6  0.46
      P1  H  6931  6943       L1    19  0.83
      P1  H  6934  6947       L1    18  0.25

> <Gold.Chemscore.Hbond.Weighted>
-9.1222

> <Gold.Chemscore.Metal.Weighted>
-0.0000

> <Gold.Chemscore.Lipo.Weighted>
-7.0835

> <Gold.Chemscore.Internal_Hbond.Weighted>
0.0000

> <Gold.Chemscore.DEClash.Weighted>
0.0149

> <Gold.Chemscore.DEInternal.Weighted>
3.0864

> <Gold.Chemscore.Rot.Weighted>
6.0959

> <Gold.Chemscore.Internal.Correction.Weighted>
   9.000000E+99

> <Gold.Protein.RotatedTorsions>
[ 6907 6896 6895 6894 ] final -100.55 input  -60.11 | X-H torsion
[ 7974 7965 7964 7962 ] final   85.59 input  175.53 | X-H torsion
[ 8008 7997 7996 7995 ] final  -59.09 input   59.86 | X-H torsion
[ 10167 10162 10161 10158 ] final   42.98 input  -65.29 | X-H torsion
[ 10718 10713 10712 10709 ] final  132.05 input   66.30 | X-H torsion
[ 10763 10752 10751 10750 ] final   49.86 input  -60.55 | X-H torsion
[ 11005 11000 10999 10996 ] final  152.44 input  -57.11 | X-H torsion

> <Gold.Protein.ActiveResidues>
 VAL166  LYS551  ARG553  GLY616  TRP617  ASP618  TYR619  PRO620  LYS621  CYS622 
 ASP623  PHE694  ASN695  SER759  ASP760  ASP761  ALA762  ILE779  LEU786  VAL792 
 PHE793  MET794  SER795  GLU796  ALA797  LYS798  CYS799  TRP800  GLU811  SER814 

> <Gold.Protein.RotatedAtoms>
  150.7120  134.0869  159.3917 H   0  0  0  0  0  0  0  0  0  0  0  0  # atno 6907 bound_to 6896
  151.8854  135.0435  160.0502 H   0  0  0  0  0  0  0  0  0  0  0  0  # atno 6908 bound_to 6896
  152.2534  133.5199  159.5375 H   0  0  0  0  0  0  0  0  0  0  0  0  # atno 6909 bound_to 6896
  145.5835  139.2328  143.2339 H   0  0  0  0  0  0  0  0  0  0  0  0  # atno 7974 bound_to 7965
  154.4337  140.1069  156.6060 H   0  0  0  0  0  0  0  0  0  0  0  0  # atno 8008 bound_to 7997
  155.5860  140.3491  155.4534 H   0  0  0  0  0  0  0  0  0  0  0  0  # atno 8009 bound_to 7997
  156.0283  140.1255  157.0275 H   0  0  0  0  0  0  0  0  0  0  0  0  # atno 8010 bound_to 7997
  140.3489  144.2375  150.6147 H   0  0  0  0  0  0  0  0  0  0  0  0  # atno 10167 bound_to 10162
  157.4909  131.1090  150.9558 H   0  0  0  0  0  0  0  0  0  0  0  0  # atno 10718 bound_to 10713
  152.9785  135.5898  154.4158 H   0  0  0  0  0  0  0  0  0  0  0  0  # atno 10763 bound_to 10752
  154.3788  135.2767  155.2225 H   0  0  0  0  0  0  0  0  0  0  0  0  # atno 10764 bound_to 10752
  154.4148  135.6073  153.6029 H   0  0  0  0  0  0  0  0  0  0  0  0  # atno 10765 bound_to 10752
  140.1308  134.8803  157.2201 H   0  0  0  0  0  0  0  0  0  0  0  0  # atno 11005 bound_to 11000
  146.1699  140.6661  142.9238 LP  0  0  0  0  0  0  0  0  0  0  0  0  # atno 17320 bound_to 7965
  144.7383  140.4871  143.6887 LP  0  0  0  0  0  0  0  0  0  0  0  0  # atno 17321 bound_to 7965
  140.5237  143.2259  151.8348 LP  0  0  0  0  0  0  0  0  0  0  0  0  # atno 17342 bound_to 10162
  139.4829  144.4805  151.9313 LP  0  0  0  0  0  0  0  0  0  0  0  0  # atno 17343 bound_to 10162
  157.0260  130.5692  149.5337 LP  0  0  0  0  0  0  0  0  0  0  0  0  # atno 17370 bound_to 10713
  156.0173  130.5267  150.8172 LP  0  0  0  0  0  0  0  0  0  0  0  0  # atno 17371 bound_to 10713
  140.2845  134.3312  155.7333 LP  0  0  0  0  0  0  0  0  0  0  0  0  # atno 17394 bound_to 11000
  141.2170  133.7498  156.9412 LP  0  0  0  0  0  0  0  0  0  0  0  0  # atno 17395 bound_to 11000

$$$$
