AV-unprocessed.smi:3168|AV-procd|sdf|12101|dock8
  -GOLD-   2272017533D 1   1.00000     0.00000
 Structure written by MMmdl.
 33 34  0  0  0  0  0  0  0  0  1 V2000
  150.9246  137.8178  154.5100 C   0  0  0  0  0  0  0  0  0  0  0  0
  151.0785  139.3348  154.7443 C   0  0  2  0  0  0  0  0  0  0  0  0
  151.7044  139.6731  156.1089 C   0  0  0  0  0  0  0  0  0  0  0  0
  152.8597  139.3377  156.3730 O   0  0  0  0  0  0  0  0  0  0  0  0
  150.9268  140.3554  156.9652 N   0  0  0  0  0  0  0  0  0  0  0  0
  151.3285  140.8074  158.2921 C   0  0  0  0  0  0  0  0  0  0  0  0
  150.9249  142.2716  158.5282 C   0  0  1  0  0  0  0  0  0  0  0  0
  151.7291  142.9591  159.6292 C   0  0  0  0  0  0  0  0  0  0  0  0
  151.5526  144.4162  159.2678 C   0  0  0  0  0  0  0  0  0  0  0  0
  151.5936  144.3729  157.7420 C   0  0  0  0  0  0  0  0  0  0  0  0
  151.1642  143.0654  157.3689 O   0  0  0  0  0  0  0  0  0  0  0  0
  149.8164  140.0440  154.5627 N   0  0  0  0  0  0  0  0  0  0  0  0
  148.5889  139.5169  154.2143 C   0  0  0  0  0  0  0  0  0  0  0  0
  147.7054  140.5543  154.1286 C   0  0  0  0  0  0  0  0  0  0  0  0
  148.4948  141.6965  154.4374 C   0  0  0  0  0  0  0  0  0  0  0  0
  149.7567  141.3904  154.6902 N   0  0  0  0  0  0  0  0  0  0  0  0
  151.8855  137.3077  154.5881 H   0  0  0  0  0  0  0  0  0  0  0  0
  150.5297  137.6172  153.5137 H   0  0  0  0  0  0  0  0  0  0  0  0
  150.2476  137.3592  155.2319 H   0  0  0  0  0  0  0  0  0  0  0  0
  151.7673  139.7072  153.9844 H   0  0  0  0  0  0  0  0  0  0  0  0
  149.9908  140.5907  156.6691 H   0  0  0  0  0  0  0  0  0  0  0  0
  150.8293  140.1691  159.0215 H   0  0  0  0  0  0  0  0  0  0  0  0
  152.4001  140.6722  158.4483 H   0  0  0  0  0  0  0  0  0  0  0  0
  149.8626  142.3369  158.7702 H   0  0  0  0  0  0  0  0  0  0  0  0
  151.3708  142.7202  160.6308 H   0  0  0  0  0  0  0  0  0  0  0  0
  152.7832  142.6841  159.5663 H   0  0  0  0  0  0  0  0  0  0  0  0
  150.5775  144.7680  159.6074 H   0  0  0  0  0  0  0  0  0  0  0  0
  152.3180  145.0627  159.6976 H   0  0  0  0  0  0  0  0  0  0  0  0
  150.9627  145.1400  157.2926 H   0  0  0  0  0  0  0  0  0  0  0  0
  152.6119  144.5178  157.3802 H   0  0  0  0  0  0  0  0  0  0  0  0
  148.4476  138.4576  154.0572 H   0  0  0  0  0  0  0  0  0  0  0  0
  146.6557  140.5051  153.8798 H   0  0  0  0  0  0  0  0  0  0  0  0
  148.1917  142.7323  154.4819 H   0  0  0  0  0  0  0  0  0  0  0  0
  1  2  1  0  0  0  0
  1 17  1  0  0  0  0
  1 18  1  0  0  0  0
  1 19  1  0  0  0  0
  2  3  1  0  0  0  0
  2 12  1  0  0  0  0
  2 20  1  0  0  0  0
  3  4  2  0  0  0  0
  3  5  1  0  0  0  0
  5  6  1  0  0  0  0
  5 21  1  0  0  0  0
  6  7  1  0  0  0  0
  6 22  1  0  0  0  0
  6 23  1  0  0  0  0
  7 11  1  0  0  0  0
  7  8  1  0  0  0  0
  7 24  1  0  0  0  0
  8  9  1  0  0  0  0
  8 25  1  0  0  0  0
  8 26  1  0  0  0  0
  9 10  1  0  0  0  0
  9 27  1  0  0  0  0
  9 28  1  0  0  0  0
 10 11  1  0  0  0  0
 10 29  1  0  0  0  0
 10 30  1  0  0  0  0
 12 16  1  0  0  0  0
 12 13  1  0  0  0  0
 13 14  2  0  0  0  0
 13 31  1  0  0  0  0
 14 15  1  0  0  0  0
 14 32  1  0  0  0  0
 15 16  2  0  0  0  0
 15 33  1  0  0  0  0
M  END
> <s_m_source_file>
AV-unprocessed.smi

> <i_m_source_file_index>
3168

> <i_lp_mmshare_version>
43012

> <i_f3d_flags>
0

> <s_epik_input>
bjFbY0hdW2NIXVtjSF1uMVtDQEhdKFtDSDNdKUMoPU8pW05IXVtDSDJdW0NAQEhdMltDSDJdW0NIMl1bQ0gyXU8y

> <s_epik_cmdline>
J2VwaWtfcHl0aG9uJywgJy1waCcsICc3LjAnLCAnLXRuJywgJzgnLCAnLW1hJywgJzIwMCcsICctbWV0YWxfYmluZGluZycsICctaW1hZScsICc8aW5maWxlLm1hZT4nLCAnLW9tYWUnLCAnPG91dGZpbGUubWFlPic=

> <r_lp_tautomer_probability>
1

> <r_epik_Ionization_Penalty>
4.14877e-05

> <r_epik_Ionization_Penalty_Charging>
0

> <r_epik_Ionization_Penalty_Neutral>
4.14877e-05

> <r_epik_State_Penalty>
-0

> <r_epik_Charging_Adjusted_Penalty>
0

> <i_epik_Tot_Q>
0

> <i_epik_Tot_abs_Q>
0

> <r_epik_Metal_State_Penalty>
-0

> <b_epik_Metal_Only>
0

> <s_lp_Force_Field>
OPLS_2005

> <r_lp_Energy>
21.5397

> <b_lp_Chiralities_Consistent>
1

> <s_lp_Variant>
AV-unprocessed.smi:3168-3

> <Gold.Version>
5.8.1

> <Gold.Id.Protein>
6NUR|6NUR_protein|mol2

> <Gold.PLP.Fitness>
41.6092

> <Gold.PLP.PLP>
-36.3681

> <Gold.PLP.part.hbond>
-2.3380

> <Gold.PLP.part.metal>
0.0000

> <Gold.PLP.part.buried>
-0.6304

> <Gold.PLP.part.nonpolar>
-32.2904

> <Gold.PLP.part.repulsive>
0.3427

> <Gold.PLP.ligand.clash>
0.0000

> <Gold.PLP.ligand.torsion>
0.4315

> <Gold.PLP.Chemscore.Hbond>
1.0000

> <Gold.PLP.Chemscore.CHOScore>
1.0000

> <Gold.PLP.Chemscore.Metal>
0.0000

> <Gold.Chemscore.Hbonds>
donor molecule, donor type, donor heavy atom, donor atom, acceptor molecule, acceptor atom, score
      P1  H  7997  8009       L1     4  1.00
      L1  C    15    33       P1  8028  1.00

> <Gold.PLP.Chemscore.Internal.Correction>
0.1042

> <Gold.Rescore>
     Score         DG    S(hbond)    S(metal)    S(lipo)     H(rot)  DE(clash)    DE(int)     intcor
     12.69     -14.58       1.00        0.00      84.48       1.61       0.09       1.81       ----

> <Gold.Chemscore.Fitness>
12.6883

> <Gold.Chemscore.DG>
-14.5832

> <Gold.Chemscore.ZeroCoef>
-5.4800

> <Gold.Chemscore.Hbond>
0.9998

> <Gold.Chemscore.Metal>
0.0000

> <Gold.Chemscore.Lipo>
84.4763

> <Gold.Chemscore.Internal_Hbond>
0.0000

> <Gold.Chemscore.DEClash>
0.0858

> <Gold.Chemscore.DEInternal>
1.8091

> <Gold.Chemscore.Rot>
1.6094

> <Gold.Chemscore.Internal.Correction>
   9.000000E+99

> <Gold.Chemscore.Hbonds>
donor molecule, donor type, donor heavy atom, donor atom, acceptor molecule, acceptor atom, score
      P1  H  7997  8009       L1     4  1.00

> <Gold.Chemscore.Hbond.Weighted>
-3.3395

> <Gold.Chemscore.Metal.Weighted>
-0.0000

> <Gold.Chemscore.Lipo.Weighted>
-9.8837

> <Gold.Chemscore.Internal_Hbond.Weighted>
0.0000

> <Gold.Chemscore.DEClash.Weighted>
0.0858

> <Gold.Chemscore.DEInternal.Weighted>
1.8091

> <Gold.Chemscore.Rot.Weighted>
4.1201

> <Gold.Chemscore.Internal.Correction.Weighted>
   9.000000E+99

> <Gold.Protein.RotatedTorsions>
[ 6907 6896 6895 6894 ] final -172.74 input  -60.11 | X-H torsion
[ 7974 7965 7964 7962 ] final  -70.69 input  175.53 | X-H torsion
[ 8008 7997 7996 7995 ] final -163.22 input   59.86 | X-H torsion
[ 10167 10162 10161 10158 ] final -150.30 input  -65.29 | X-H torsion
[ 10718 10713 10712 10709 ] final   83.21 input   66.30 | X-H torsion
[ 10763 10752 10751 10750 ] final -141.85 input  -60.55 | X-H torsion
[ 11005 11000 10999 10996 ] final  -38.87 input  -57.11 | X-H torsion

> <Gold.Protein.ActiveResidues>
 VAL166  LYS551  ARG553  GLY616  TRP617  ASP618  TYR619  PRO620  LYS621  CYS622 
 ASP623  PHE694  ASN695  SER759  ASP760  ASP761  ALA762  ILE779  LEU786  VAL792 
 PHE793  MET794  SER795  GLU796  ALA797  LYS798  CYS799  TRP800  GLU811  SER814 

> <Gold.Protein.RotatedAtoms>
  151.5448  133.3427  159.2941 H   0  0  0  0  0  0  0  0  0  0  0  0  # atno 6907 bound_to 6896
  150.8514  134.7842  159.7022 H   0  0  0  0  0  0  0  0  0  0  0  0  # atno 6908 bound_to 6896
  152.4559  134.5301  159.9860 H   0  0  0  0  0  0  0  0  0  0  0  0  # atno 6909 bound_to 6896
  145.6878  140.9164  143.0798 H   0  0  0  0  0  0  0  0  0  0  0  0  # atno 7974 bound_to 7965
  155.8182  140.0915  157.1865 H   0  0  0  0  0  0  0  0  0  0  0  0  # atno 8008 bound_to 7997
  154.3979  140.1442  156.3527 H   0  0  0  0  0  0  0  0  0  0  0  0  # atno 8009 bound_to 7997
  155.8294  140.3443  155.5565 H   0  0  0  0  0  0  0  0  0  0  0  0  # atno 8010 bound_to 7997
  139.7366  143.8726  152.2550 H   0  0  0  0  0  0  0  0  0  0  0  0  # atno 10167 bound_to 10162
  157.6874  131.0081  150.2490 H   0  0  0  0  0  0  0  0  0  0  0  0  # atno 10718 bound_to 10713
  154.8530  135.3512  154.5934 H   0  0  0  0  0  0  0  0  0  0  0  0  # atno 10763 bound_to 10752
  153.6543  135.6992  153.5203 H   0  0  0  0  0  0  0  0  0  0  0  0  # atno 10764 bound_to 10752
  153.2868  135.4246  155.1088 H   0  0  0  0  0  0  0  0  0  0  0  0  # atno 10765 bound_to 10752
  141.0060  133.6931  156.2111 H   0  0  0  0  0  0  0  0  0  0  0  0  # atno 11005 bound_to 11000
  144.7006  139.8781  143.7445 LP  0  0  0  0  0  0  0  0  0  0  0  0  # atno 17320 bound_to 7965
  146.0908  139.3898  143.0406 LP  0  0  0  0  0  0  0  0  0  0  0  0  # atno 17321 bound_to 7965
  139.8664  144.7091  150.9039 LP  0  0  0  0  0  0  0  0  0  0  0  0  # atno 17342 bound_to 10162
  140.7780  143.3774  151.1538 LP  0  0  0  0  0  0  0  0  0  0  0  0  # atno 17343 bound_to 10162
  156.3090  130.3769  149.7679 LP  0  0  0  0  0  0  0  0  0  0  0  0  # atno 17370 bound_to 10713
  156.5286  130.8247  151.3229 LP  0  0  0  0  0  0  0  0  0  0  0  0  # atno 17371 bound_to 10713
  140.6812  134.4765  157.5589 LP  0  0  0  0  0  0  0  0  0  0  0  0  # atno 17394 bound_to 11000
  139.9063  134.8441  156.1692 LP  0  0  0  0  0  0  0  0  0  0  0  0  # atno 17395 bound_to 11000

$$$$
