AV-unprocessed.smi:2460|AV-procd|sdf|9715|dock2
  -GOLD-   2272013353D 1   1.00000     0.00000
 Structure written by MMmdl.
 46 48  0  0  0  0  0  0  0  0  1 V2000
  142.8644  133.8889  152.0270 C   0  0  0  0  0  0  0  0  0  0  0  0
  144.3362  133.7418  151.6049 C   0  0  0  0  0  0  0  0  0  0  0  0
  144.4561  132.9678  150.2833 C   0  0  0  0  0  0  0  0  0  0  0  0
  145.0565  135.0951  151.5537 C   0  0  0  0  0  0  0  0  0  0  0  0
  145.6166  135.2416  152.9546 C   0  0  2  0  0  0  0  0  0  0  0  0
  146.7679  136.1417  152.9838 N   0  0  0  0  0  0  0  0  0  0  0  0
  146.9746  137.0990  153.8979 C   0  0  0  0  0  0  0  0  0  0  0  0
  146.1852  137.3534  154.8071 O   0  0  0  0  0  0  0  0  0  0  0  0
  148.1537  137.7116  153.7001 N   0  0  0  0  0  0  0  0  0  0  0  0
  148.7464  138.7397  154.4798 C   0  0  0  0  0  0  0  0  0  0  0  0
  149.8431  139.4542  153.9538 C   0  0  0  0  0  0  0  0  0  0  0  0
  150.4466  140.4471  154.6416 N   0  0  0  0  0  0  0  0  0  0  0  0
  149.9561  140.7260  155.8526 C   0  0  0  0  0  0  0  0  0  0  0  0
  150.6086  141.8462  156.6012 C   0  0  0  0  0  0  0  0  0  0  0  0
  151.3627  141.5830  157.8887 C   0  0  0  0  0  0  0  0  0  0  0  0
  150.0519  142.3178  157.9294 C   0  0  0  0  0  0  0  0  0  0  0  0
  148.9081  140.1427  156.4407 N   0  0  0  0  0  0  0  0  0  0  0  0
  148.2995  139.1468  155.7610 C   0  0  0  0  0  0  0  0  0  0  0  0
  145.9556  133.7826  153.3319 C   0  0  0  0  0  0  0  0  0  0  0  0
  147.3456  133.3089  152.8563 C   0  0  0  0  0  0  0  0  0  0  0  0
  145.7737  133.5103  154.8334 C   0  0  0  0  0  0  0  0  0  0  0  0
  144.9965  132.9963  152.6266 O   0  0  0  0  0  0  0  0  0  0  0  0
  142.2976  134.4605  151.2918 H   0  0  0  0  0  0  0  0  0  0  0  0
  142.7720  134.3985  152.9864 H   0  0  0  0  0  0  0  0  0  0  0  0
  142.3866  132.9141  152.1285 H   0  0  0  0  0  0  0  0  0  0  0  0
  143.9870  133.5125  149.4637 H   0  0  0  0  0  0  0  0  0  0  0  0
  143.9750  131.9919  150.3535 H   0  0  0  0  0  0  0  0  0  0  0  0
  145.5002  132.8004  150.0168 H   0  0  0  0  0  0  0  0  0  0  0  0
  145.8707  135.0634  150.8280 H   0  0  0  0  0  0  0  0  0  0  0  0
  144.4012  135.9199  151.2717 H   0  0  0  0  0  0  0  0  0  0  0  0
  144.8202  135.6217  153.5979 H   0  0  0  0  0  0  0  0  0  0  0  0
  147.4716  136.0013  152.2739 H   0  0  0  0  0  0  0  0  0  0  0  0
  148.7271  137.3459  152.9541 H   0  0  0  0  0  0  0  0  0  0  0  0
  150.2451  139.2261  152.9776 H   0  0  0  0  0  0  0  0  0  0  0  0
  151.0083  142.5973  155.9225 H   0  0  0  0  0  0  0  0  0  0  0  0
  151.3768  140.5641  158.2709 H   0  0  0  0  0  0  0  0  0  0  0  0
  152.2684  142.1593  158.0651 H   0  0  0  0  0  0  0  0  0  0  0  0
  150.0796  143.3859  158.1341 H   0  0  0  0  0  0  0  0  0  0  0  0
  149.1943  141.7876  158.3391 H   0  0  0  0  0  0  0  0  0  0  0  0
  147.4466  138.7027  156.2499 H   0  0  0  0  0  0  0  0  0  0  0  0
  148.1486  133.8245  153.3837 H   0  0  0  0  0  0  0  0  0  0  0  0
  147.4856  133.4779  151.7885 H   0  0  0  0  0  0  0  0  0  0  0  0
  147.4750  132.2412  153.0351 H   0  0  0  0  0  0  0  0  0  0  0  0
  146.4853  134.0821  155.4290 H   0  0  0  0  0  0  0  0  0  0  0  0
  145.9236  132.4553  155.0632 H   0  0  0  0  0  0  0  0  0  0  0  0
  144.7704  133.7789  155.1652 H   0  0  0  0  0  0  0  0  0  0  0  0
  1  2  1  0  0  0  0
  1 23  1  0  0  0  0
  1 24  1  0  0  0  0
  1 25  1  0  0  0  0
  2 22  1  0  0  0  0
  2  3  1  0  0  0  0
  2  4  1  0  0  0  0
  3 26  1  0  0  0  0
  3 27  1  0  0  0  0
  3 28  1  0  0  0  0
  4  5  1  0  0  0  0
  4 29  1  0  0  0  0
  4 30  1  0  0  0  0
  5  6  1  0  0  0  0
  5 19  1  0  0  0  0
  5 31  1  0  0  0  0
  6  7  1  0  0  0  0
  6 32  1  0  0  0  0
  7  8  2  0  0  0  0
  7  9  1  0  0  0  0
  9 10  1  0  0  0  0
  9 33  1  0  0  0  0
 10 18  1  0  0  0  0
 10 11  2  0  0  0  0
 11 12  1  0  0  0  0
 11 34  1  0  0  0  0
 12 13  2  0  0  0  0
 13 14  1  0  0  0  0
 13 17  1  0  0  0  0
 14 16  1  0  0  0  0
 14 15  1  0  0  0  0
 14 35  1  0  0  0  0
 15 16  1  0  0  0  0
 15 36  1  0  0  0  0
 15 37  1  0  0  0  0
 16 38  1  0  0  0  0
 16 39  1  0  0  0  0
 17 18  2  0  0  0  0
 18 40  1  0  0  0  0
 19 20  1  0  0  0  0
 19 21  1  0  0  0  0
 19 22  1  0  0  0  0
 20 41  1  0  0  0  0
 20 42  1  0  0  0  0
 20 43  1  0  0  0  0
 21 44  1  0  0  0  0
 21 45  1  0  0  0  0
 21 46  1  0  0  0  0
M  END
> <s_m_source_file>
AV-unprocessed.smi

> <i_m_source_file_index>
2460

> <i_lp_mmshare_version>
43012

> <i_f3d_flags>
0

> <s_epik_input>
W0NIM11DMShbQ0gzXSlbQ0gyXVtDQEhdKEMoTzEpKFtDSDNdKVtDSDNdKVtOSF1DKD1PKVtOSF1jMltjSF1uYyhuW2NIXTIpW0NIXTNbQ0gyXVtDSDJdMw==

> <s_epik_cmdline>
J2VwaWtfcHl0aG9uJywgJy1waCcsICc3LjAnLCAnLXRuJywgJzgnLCAnLW1hJywgJzIwMCcsICctbWV0YWxfYmluZGluZycsICctaW1hZScsICc8aW5maWxlLm1hZT4nLCAnLW9tYWUnLCAnPG91dGZpbGUubWFlPic=

> <r_lp_tautomer_probability>
1

> <r_epik_Ionization_Penalty>
2.38399e-05

> <r_epik_Ionization_Penalty_Charging>
0

> <r_epik_Ionization_Penalty_Neutral>
2.38399e-05

> <r_epik_State_Penalty>
-0

> <r_epik_Charging_Adjusted_Penalty>
0

> <i_epik_Tot_Q>
0

> <i_epik_Tot_abs_Q>
0

> <r_epik_Metal_State_Penalty>
-0

> <b_epik_Metal_Only>
0

> <s_lp_Force_Field>
OPLS_2005

> <r_lp_Energy>
17.9428

> <b_lp_Chiralities_Consistent>
1

> <s_lp_Variant>
AV-unprocessed.smi:2460-2

> <Gold.Version>
5.8.1

> <Gold.Id.Protein>
6NUR|6NUR_protein|mol2

> <Gold.PLP.Fitness>
37.6298

> <Gold.PLP.PLP>
-26.4158

> <Gold.PLP.part.hbond>
-2.5057

> <Gold.PLP.part.metal>
0.0000

> <Gold.PLP.part.buried>
-0.3330

> <Gold.PLP.part.nonpolar>
-23.7047

> <Gold.PLP.part.repulsive>
0.3003

> <Gold.PLP.ligand.clash>
0.0000

> <Gold.PLP.ligand.torsion>
0.2541

> <Gold.PLP.Chemscore.Hbond>
2.8860

> <Gold.PLP.Chemscore.CHOScore>
0.9784

> <Gold.PLP.Chemscore.Metal>
0.0000

> <Gold.Chemscore.Hbonds>
donor molecule, donor type, donor heavy atom, donor atom, acceptor molecule, acceptor atom, score
      L1  H     6    32       P1  7948  0.96
      L1  H     9    33       P1  7948  0.99
      P1  H  7989  7998       L1    12  0.95
      L1  C    11    34       P1  7957  0.95

> <Gold.PLP.Chemscore.Internal.Correction>
0.1292

> <Gold.Rescore>
     Score         DG    S(hbond)    S(metal)    S(lipo)     H(rot)  DE(clash)    DE(int)     intcor
     16.27     -17.84       2.28        0.00      66.42       1.18       0.11       1.46       ----

> <Gold.Chemscore.Fitness>
16.2747

> <Gold.Chemscore.DG>
-17.8423

> <Gold.Chemscore.ZeroCoef>
-5.4800

> <Gold.Chemscore.Hbond>
2.2778

> <Gold.Chemscore.Metal>
0.0000

> <Gold.Chemscore.Lipo>
66.4212

> <Gold.Chemscore.Internal_Hbond>
0.0000

> <Gold.Chemscore.DEClash>
0.1120

> <Gold.Chemscore.DEInternal>
1.4555

> <Gold.Chemscore.Rot>
1.1785

> <Gold.Chemscore.Internal.Correction>
   9.000000E+99

> <Gold.Chemscore.Hbonds>
donor molecule, donor type, donor heavy atom, donor atom, acceptor molecule, acceptor atom, score
      L1  H     6    32       P1  7948  0.87
      L1  H     9    33       P1  7948  0.91
      P1  H  7989  7998       L1    12  0.21

> <Gold.Chemscore.Hbond.Weighted>
-7.6079

> <Gold.Chemscore.Metal.Weighted>
-0.0000

> <Gold.Chemscore.Lipo.Weighted>
-7.7713

> <Gold.Chemscore.Internal_Hbond.Weighted>
0.0000

> <Gold.Chemscore.DEClash.Weighted>
0.1120

> <Gold.Chemscore.DEInternal.Weighted>
1.4555

> <Gold.Chemscore.Rot.Weighted>
3.0169

> <Gold.Chemscore.Internal.Correction.Weighted>
   9.000000E+99

> <Gold.Protein.RotatedTorsions>
[ 6907 6896 6895 6894 ] final  171.30 input  -60.11 | X-H torsion
[ 7974 7965 7964 7962 ] final  150.26 input  175.53 | X-H torsion
[ 8008 7997 7996 7995 ] final -169.83 input   59.86 | X-H torsion
[ 10167 10162 10161 10158 ] final  164.56 input  -65.29 | X-H torsion
[ 10718 10713 10712 10709 ] final -138.22 input   66.30 | X-H torsion
[ 10763 10752 10751 10750 ] final  -62.45 input  -60.55 | X-H torsion
[ 11005 11000 10999 10996 ] final   40.77 input  -57.11 | X-H torsion

> <Gold.Protein.ActiveResidues>
 VAL166  LYS551  ARG553  GLY616  TRP617  ASP618  TYR619  PRO620  LYS621  CYS622 
 ASP623  PHE694  ASN695  SER759  ASP760  ASP761  ALA762  ILE779  LEU786  VAL792 
 PHE793  MET794  SER795  GLU796  ALA797  LYS798  CYS799  TRP800  GLU811  SER814 

> <Gold.Protein.RotatedAtoms>
  151.8025  133.3371  159.3530 H   0  0  0  0  0  0  0  0  0  0  0  0  # atno 6907 bound_to 6896
  150.7353  134.5740  159.5914 H   0  0  0  0  0  0  0  0  0  0  0  0  # atno 6908 bound_to 6896
  152.3133  134.7472  160.0382 H   0  0  0  0  0  0  0  0  0  0  0  0  # atno 6909 bound_to 6896
  144.8377  139.6386  143.6030 H   0  0  0  0  0  0  0  0  0  0  0  0  # atno 7974 bound_to 7965
  155.9102  140.1056  157.1285 H   0  0  0  0  0  0  0  0  0  0  0  0  # atno 8008 bound_to 7997
  154.4038  140.1275  156.4612 H   0  0  0  0  0  0  0  0  0  0  0  0  # atno 8009 bound_to 7997
  155.7319  140.3468  155.5065 H   0  0  0  0  0  0  0  0  0  0  0  0  # atno 8010 bound_to 7997
  139.4891  144.4223  151.9171 H   0  0  0  0  0  0  0  0  0  0  0  0  # atno 10167 bound_to 10162
  156.2969  130.7407  151.1448 H   0  0  0  0  0  0  0  0  0  0  0  0  # atno 10718 bound_to 10713
  154.3001  135.6236  153.5421 H   0  0  0  0  0  0  0  0  0  0  0  0  # atno 10763 bound_to 10752
  152.9841  135.5676  154.5293 H   0  0  0  0  0  0  0  0  0  0  0  0  # atno 10764 bound_to 10752
  154.4922  135.2868  155.1464 H   0  0  0  0  0  0  0  0  0  0  0  0  # atno 10765 bound_to 10752
  140.1898  134.4000  155.8153 H   0  0  0  0  0  0  0  0  0  0  0  0  # atno 11005 bound_to 11000
  146.2674  139.6552  142.9320 LP  0  0  0  0  0  0  0  0  0  0  0  0  # atno 17320 bound_to 7965
  145.4760  141.0437  143.2672 LP  0  0  0  0  0  0  0  0  0  0  0  0  # atno 17321 bound_to 7965
  140.3668  144.2905  150.5925 LP  0  0  0  0  0  0  0  0  0  0  0  0  # atno 17342 bound_to 10162
  140.5355  143.2234  151.8170 LP  0  0  0  0  0  0  0  0  0  0  0  0  # atno 17343 bound_to 10162
  157.7358  131.0569  150.5451 LP  0  0  0  0  0  0  0  0  0  0  0  0  # atno 17370 bound_to 10713
  156.5574  130.4247  149.6079 LP  0  0  0  0  0  0  0  0  0  0  0  0  # atno 17371 bound_to 10713
  141.2226  133.7041  156.8076 LP  0  0  0  0  0  0  0  0  0  0  0  0  # atno 17394 bound_to 11000
  140.2172  134.8784  157.3338 LP  0  0  0  0  0  0  0  0  0  0  0  0  # atno 17395 bound_to 11000

$$$$
