AV-unprocessed.smi:265|AV-procd|sdf|2026|dock1
  -GOLD-   2262021233D 1   1.00000     0.00000
 Structure written by MMmdl.
 52 56  0  0  0  0  0  0  0  0  1 V2000
  151.8386  124.6057  152.4192 C   0  0  0  0  0  0  0  0  0  0  0  0
  150.9325  124.3961  151.1967 C   0  0  1  0  0  0  0  0  0  0  0  0
  150.0702  123.2785  151.3930 O   0  0  0  0  0  0  0  0  0  0  0  0
  148.8175  123.5052  150.7528 C   0  0  0  0  0  0  0  0  0  0  0  0
  148.9782  124.8105  149.9790 C   0  0  0  0  0  0  0  0  0  0  0  0
  150.0079  125.5661  150.8098 C   0  0  2  0  0  0  0  0  0  0  0  0
  150.6915  126.4765  149.9695 O   0  0  0  0  0  0  0  0  0  0  0  0
  149.4049  126.3236  152.0250 C   0  0  0  0  0  0  0  0  0  0  0  0
  148.5066  127.4082  151.6623 N   0  0  0  0  0  0  0  0  0  0  0  0
  147.9403  127.6317  150.4277 C   0  0  0  0  0  0  0  0  0  0  0  0
  147.1639  128.6778  150.3526 N   0  0  0  0  0  0  0  0  0  0  0  0
  147.1798  129.2060  151.6383 C   0  0  0  0  0  0  0  0  0  0  0  0
  146.5601  130.3289  152.2563 C   0  0  0  0  0  0  0  0  0  0  0  0
  145.7254  131.1650  151.5878 N   0  0  0  0  0  0  0  0  0  0  0  0
  146.2156  131.7689  150.3490 C   0  0  0  0  0  0  0  0  0  0  0  0
  145.0518  132.3417  149.5256 C   0  0  0  0  0  0  0  0  0  0  0  0
  144.1857  133.3061  150.3523 C   0  0  2  0  0  0  0  0  0  0  0  0
  144.9158  134.4881  150.6542 O   0  0  0  0  0  0  0  0  0  0  0  0
  144.1282  135.5122  151.2641 C   0  0  0  0  0  0  0  0  0  0  0  0
  143.2913  134.9840  152.4443 C   0  0  0  0  0  0  0  0  0  0  0  0
  142.7940  135.7726  153.2445 O   0  0  0  0  0  0  0  0  0  0  0  0
  143.0953  133.6590  152.5378 N   0  0  0  0  0  0  0  0  0  0  0  0
  143.7540  132.6697  151.6914 C   0  0  2  0  0  0  0  0  0  0  0  0
  144.9563  132.0653  152.4448 C   0  0  0  0  0  0  0  0  0  0  0  0
  146.8302  130.5460  153.5718 N   0  0  0  0  0  0  0  0  0  0  0  0
  147.6389  129.7190  154.2408 C   0  0  0  0  0  0  0  0  0  0  0  0
  148.2760  128.6344  153.7963 N   0  0  0  0  0  0  0  0  0  0  0  0
  148.0201  128.4177  152.4745 C   0  0  0  0  0  0  0  0  0  0  0  0
  143.3080  133.5765  149.7620 H   0  0  0  0  0  0  0  0  0  0  0  0
  143.0370  131.8738  151.4865 H   0  0  0  0  0  0  0  0  0  0  0  0
  152.4753  125.4811  152.2897 H   0  0  0  0  0  0  0  0  0  0  0  0
  152.4882  123.7432  152.5684 H   0  0  0  0  0  0  0  0  0  0  0  0
  151.2605  124.7385  153.3335 H   0  0  0  0  0  0  0  0  0  0  0  0
  151.5609  124.1464  150.3392 H   0  0  0  0  0  0  0  0  0  0  0  0
  148.5454  122.6715  150.1054 H   0  0  0  0  0  0  0  0  0  0  0  0
  148.0470  123.6047  151.5180 H   0  0  0  0  0  0  0  0  0  0  0  0
  149.3845  124.5842  148.9914 H   0  0  0  0  0  0  0  0  0  0  0  0
  148.0378  125.3375  149.8243 H   0  0  0  0  0  0  0  0  0  0  0  0
  151.4306  126.8263  150.4435 H   0  0  0  0  0  0  0  0  0  0  0  0
  148.8561  125.6342  152.6676 H   0  0  0  0  0  0  0  0  0  0  0  0
  150.1992  126.7441  152.6427 H   0  0  0  0  0  0  0  0  0  0  0  0
  148.1304  126.9950  149.5758 H   0  0  0  0  0  0  0  0  0  0  0  0
  146.9268  132.5602  150.5903 H   0  0  0  0  0  0  0  0  0  0  0  0
  146.7484  131.0271  149.7523 H   0  0  0  0  0  0  0  0  0  0  0  0
  145.4323  132.8454  148.6366 H   0  0  0  0  0  0  0  0  0  0  0  0
  144.4298  131.5190  149.1707 H   0  0  0  0  0  0  0  0  0  0  0  0
  144.7871  136.3097  151.6079 H   0  0  0  0  0  0  0  0  0  0  0  0
  143.4574  135.9447  150.5209 H   0  0  0  0  0  0  0  0  0  0  0  0
  142.5160  133.3133  153.2891 H   0  0  0  0  0  0  0  0  0  0  0  0
  144.6013  131.5575  153.3410 H   0  0  0  0  0  0  0  0  0  0  0  0
  145.6218  132.8601  152.7854 H   0  0  0  0  0  0  0  0  0  0  0  0
  147.7984  129.9613  155.2812 H   0  0  0  0  0  0  0  0  0  0  0  0
  1  2  1  0  0  0  0
  1 31  1  0  0  0  0
  1 32  1  0  0  0  0
  1 33  1  0  0  0  0
  2  6  1  0  0  0  0
  2  3  1  0  0  0  0
  2 34  1  0  0  0  0
  3  4  1  0  0  0  0
  4  5  1  0  0  0  0
  4 35  1  0  0  0  0
  4 36  1  0  0  0  0
  5  6  1  0  0  0  0
  5 37  1  0  0  0  0
  5 38  1  0  0  0  0
  6  7  1  0  0  0  0
  6  8  1  0  0  0  0
  7 39  1  0  0  0  0
  8  9  1  0  0  0  0
  8 40  1  0  0  0  0
  8 41  1  0  0  0  0
  9 28  1  0  0  0  0
  9 10  1  0  0  0  0
 10 11  2  0  0  0  0
 10 42  1  0  0  0  0
 11 12  1  0  0  0  0
 12 28  2  0  0  0  0
 12 13  1  0  0  0  0
 13 14  1  0  0  0  0
 13 25  2  0  0  0  0
 14 24  1  0  0  0  0
 14 15  1  0  0  0  0
 15 16  1  0  0  0  0
 15 43  1  0  0  0  0
 15 44  1  0  0  0  0
 16 17  1  0  0  0  0
 16 45  1  0  0  0  0
 16 46  1  0  0  0  0
 17 29  1  0  0  0  0
 17 23  1  0  0  0  0
 17 18  1  0  0  0  0
 18 19  1  0  0  0  0
 19 20  1  0  0  0  0
 19 47  1  0  0  0  0
 19 48  1  0  0  0  0
 20 21  2  0  0  0  0
 20 22  1  0  0  0  0
 22 23  1  0  0  0  0
 22 49  1  0  0  0  0
 23 30  1  0  0  0  0
 23 24  1  0  0  0  0
 24 50  1  0  0  0  0
 24 51  1  0  0  0  0
 25 26  1  0  0  0  0
 26 27  2  0  0  0  0
 26 52  1  0  0  0  0
 27 28  1  0  0  0  0
M  END
> <s_m_source_file>
AV-unprocessed.smi

> <i_m_source_file_index>
265

> <i_lp_mmshare_version>
43012

> <i_f3d_flags>
0

> <s_epik_input>
W0NIMl0xW0NIMl1PW0NAQEhdKFtDSDNdKVtDQEBdMShbT0hdKVtDSDJdbihbY0hdbjIpYyhjMjMpbltjSF1uYzNOKFtDSDJdW0NIMl00KVtDSDJdW0NAQEhdKFtDQEhdNDUpW05IXUMoPU8pW0NIMl1PNQ==

> <s_epik_cmdline>
J2VwaWtfcHl0aG9uJywgJy1waCcsICc3LjAnLCAnLXRuJywgJzgnLCAnLW1hJywgJzIwMCcsICctbWV0YWxfYmluZGluZycsICctaW1hZScsICc8aW5maWxlLm1hZT4nLCAnLW9tYWUnLCAnPG91dGZpbGUubWFlPic=

> <r_lp_tautomer_probability>
1

> <r_epik_Ionization_Penalty>
0.00221504

> <r_epik_Ionization_Penalty_Charging>
0

> <r_epik_Ionization_Penalty_Neutral>
0.00221504

> <r_epik_State_Penalty>
-0

> <r_epik_Charging_Adjusted_Penalty>
0

> <i_epik_Tot_Q>
0

> <i_epik_Tot_abs_Q>
0

> <r_epik_Metal_State_Penalty>
-0

> <b_epik_Metal_Only>
0

> <s_lp_Force_Field>
OPLS_2005

> <r_lp_Energy>
44.4274

> <b_lp_Chiralities_Consistent>
1

> <s_lp_Variant>
AV-unprocessed.smi:265-12

> <Gold.Version>
5.8.1

> <Gold.Id.Protein>
6NUR|6NUR_protein|mol2

> <Gold.PLP.Fitness>
39.8251

> <Gold.PLP.PLP>
-36.4787

> <Gold.PLP.part.hbond>
-3.0246

> <Gold.PLP.part.metal>
0.0000

> <Gold.PLP.part.buried>
0.5478

> <Gold.PLP.part.nonpolar>
-36.2706

> <Gold.PLP.part.repulsive>
1.7719

> <Gold.PLP.ligand.clash>
0.0000

> <Gold.PLP.ligand.torsion>
0.3705

> <Gold.PLP.Chemscore.Hbond>
1.2392

> <Gold.PLP.Chemscore.CHOScore>
0.0000

> <Gold.PLP.Chemscore.Metal>
0.0000

> <Gold.Chemscore.Hbonds>
donor molecule, donor type, donor heavy atom, donor atom, acceptor molecule, acceptor atom, score
      L1  H     7    39       P1 10737  0.75
      L1  H    22    49       P1 10957  0.53

> <Gold.PLP.Chemscore.Internal.Correction>
0.3697

> <Gold.Rescore>
     Score         DG    S(hbond)    S(metal)    S(lipo)     H(rot)  DE(clash)    DE(int)     intcor
     10.18     -13.46       1.44        0.00      76.23       2.25       1.50       1.78       ----

> <Gold.Chemscore.Fitness>
10.1794

> <Gold.Chemscore.DG>
-13.4575

> <Gold.Chemscore.ZeroCoef>
-5.4800

> <Gold.Chemscore.Hbond>
1.4391

> <Gold.Chemscore.Metal>
0.0000

> <Gold.Chemscore.Lipo>
76.2294

> <Gold.Chemscore.Internal_Hbond>
0.0000

> <Gold.Chemscore.DEClash>
1.4980

> <Gold.Chemscore.DEInternal>
1.7800

> <Gold.Chemscore.Rot>
2.2453

> <Gold.Chemscore.Internal.Correction>
   9.000000E+99

> <Gold.Chemscore.Hbonds>
donor molecule, donor type, donor heavy atom, donor atom, acceptor molecule, acceptor atom, score
      L1  H     7    39       P1 10737  0.09
      L1  H    22    49       P1 10957  0.48

> <Gold.Chemscore.Hbond.Weighted>
-4.8065

> <Gold.Chemscore.Metal.Weighted>
-0.0000

> <Gold.Chemscore.Lipo.Weighted>
-8.9188

> <Gold.Chemscore.Internal_Hbond.Weighted>
0.0000

> <Gold.Chemscore.DEClash.Weighted>
1.4980

> <Gold.Chemscore.DEInternal.Weighted>
1.7800

> <Gold.Chemscore.Rot.Weighted>
5.7479

> <Gold.Chemscore.Internal.Correction.Weighted>
   9.000000E+99

> <Gold.Protein.RotatedTorsions>
[ 6907 6896 6895 6894 ] final   20.74 input  -60.11 | X-H torsion
[ 7974 7965 7964 7962 ] final   96.63 input  175.53 | X-H torsion
[ 8008 7997 7996 7995 ] final   60.40 input   59.86 | X-H torsion
[ 10167 10162 10161 10158 ] final  149.98 input  -65.29 | X-H torsion
[ 10718 10713 10712 10709 ] final  179.75 input   66.30 | X-H torsion
[ 10763 10752 10751 10750 ] final  125.77 input  -60.55 | X-H torsion
[ 11005 11000 10999 10996 ] final  -64.46 input  -57.11 | X-H torsion

> <Gold.Protein.ActiveResidues>
 VAL166  LYS551  ARG553  GLY616  TRP617  ASP618  TYR619  PRO620  LYS621  CYS622 
 ASP623  PHE694  ASN695  SER759  ASP760  ASP761  ALA762  ILE779  LEU786  VAL792 
 PHE793  MET794  SER795  GLU796  ALA797  LYS798  CYS799  TRP800  GLU811  SER814 

> <Gold.Protein.RotatedAtoms>
  151.9010  135.0378  160.0506 H   0  0  0  0  0  0  0  0  0  0  0  0  # atno 6907 bound_to 6896
  152.2358  133.5090  159.5250 H   0  0  0  0  0  0  0  0  0  0  0  0  # atno 6908 bound_to 6896
  150.7039  134.1072  159.4029 H   0  0  0  0  0  0  0  0  0  0  0  0  # atno 6909 bound_to 6896
  145.4363  139.2305  143.3117 H   0  0  0  0  0  0  0  0  0  0  0  0  # atno 7974 bound_to 7965
  155.5817  140.3491  155.4542 H   0  0  0  0  0  0  0  0  0  0  0  0  # atno 8008 bound_to 7997
  156.0368  140.1287  157.0224 H   0  0  0  0  0  0  0  0  0  0  0  0  # atno 8009 bound_to 7997
  154.4375  140.1032  156.6165 H   0  0  0  0  0  0  0  0  0  0  0  0  # atno 8010 bound_to 7997
  139.4855  144.5559  151.7319 H   0  0  0  0  0  0  0  0  0  0  0  0  # atno 10167 bound_to 10162
  156.8712  130.9784  151.3073 H   0  0  0  0  0  0  0  0  0  0  0  0  # atno 10718 bound_to 10713
  153.6826  135.3312  155.3182 H   0  0  0  0  0  0  0  0  0  0  0  0  # atno 10763 bound_to 10752
  154.8462  135.4412  154.1591 H   0  0  0  0  0  0  0  0  0  0  0  0  # atno 10764 bound_to 10752
  153.2611  135.6991  153.7654 H   0  0  0  0  0  0  0  0  0  0  0  0  # atno 10765 bound_to 10752
  141.1425  133.6666  156.5836 H   0  0  0  0  0  0  0  0  0  0  0  0  # atno 11005 bound_to 11000
  146.2580  140.5105  142.8865 LP  0  0  0  0  0  0  0  0  0  0  0  0  # atno 17320 bound_to 7965
  144.8150  140.6453  143.6390 LP  0  0  0  0  0  0  0  0  0  0  0  0  # atno 17321 bound_to 7965
  140.5120  144.1010  150.5998 LP  0  0  0  0  0  0  0  0  0  0  0  0  # atno 17342 bound_to 10162
  140.3939  143.2738  152.0028 LP  0  0  0  0  0  0  0  0  0  0  0  0  # atno 17343 bound_to 10162
  157.6195  130.8644  149.9084 LP  0  0  0  0  0  0  0  0  0  0  0  0  # atno 17370 bound_to 10713
  156.0726  130.3683  150.0745 LP  0  0  0  0  0  0  0  0  0  0  0  0  # atno 17371 bound_to 10713
  140.3818  134.7516  157.4666 LP  0  0  0  0  0  0  0  0  0  0  0  0  # atno 17394 bound_to 11000
  140.0632  134.5967  155.8725 LP  0  0  0  0  0  0  0  0  0  0  0  0  # atno 17395 bound_to 11000

$$$$
