AV-unprocessed.smi:438|AV-procd|sdf|2571|dock10
  -GOLD-   2262022553D 1   1.00000     0.00000
 Structure written by MMmdl.
 47 48  0  0  0  0  0  0  0  0  2 V2000
  148.9918  133.3091  153.3530 C   0  0  0  0  0  0  0  0  0  0  0  0
  149.8155  133.4270  154.6230 C   0  0  0  0  0  0  0  0  0  0  0  0
  149.9848  134.7287  155.1245 N   0  0  0  0  0  0  0  0  0  0  0  0
  150.6643  134.9106  156.1908 C   0  0  0  0  0  0  0  0  0  0  0  0
  150.8298  136.6049  156.7842 S   0  0  0  0  0  0  0  0  0  0  0  0
  151.6201  137.4908  155.4069 C   0  0  0  0  0  0  0  0  0  0  0  0
  152.1060  138.8770  155.8196 C   0  0  0  0  0  0  0  0  0  0  0  0
  152.7436  139.5666  155.0243 O   0  0  0  0  0  0  0  0  0  0  0  0
  151.7999  139.2638  157.0703 N   0  0  0  0  0  0  0  0  0  0  0  0
  152.1791  140.5119  157.7382 C   0  0  2  0  0  0  0  0  0  0  0  0
  153.0026  140.2528  159.0191 C   0  0  0  0  0  0  0  0  0  0  0  0
  153.4692  141.5702  159.6555 C   0  0  0  0  0  0  0  0  0  0  0  0
  152.2768  142.4949  159.9406 C   0  0  0  0  0  0  0  0  0  0  0  0
  151.4629  142.7635  158.6646 C   0  0  0  0  0  0  0  0  0  0  0  0
  150.9753  141.4559  158.0072 C   0  0  1  0  0  0  0  0  0  0  0  0
  150.1631  141.7608  156.7357 C   0  0  0  0  0  0  0  0  0  0  0  0
  151.2662  133.8938  156.8990 N   0  5  0  0  0  0  0  0  0  0  0  0
  151.1481  132.6026  156.4776 C   0  0  0  0  0  0  0  0  0  0  0  0
  151.6720  131.6669  157.0810 O   0  0  0  0  0  0  0  0  0  0  0  0
  150.3679  132.3514  155.2532 C   0  0  0  0  0  0  0  0  0  0  0  0
  150.2024  130.9136  154.7666 C   0  0  0  0  0  0  0  0  0  0  0  0
  151.5305  130.1435  154.7744 C   0  0  0  0  0  0  0  0  0  0  0  0
  151.3161  128.8121  154.3579 O   0  0  0  0  0  0  0  0  0  0  0  0
  149.5292  132.7365  152.5969 H   0  0  0  0  0  0  0  0  0  0  0  0
  148.7710  134.2910  152.9329 H   0  0  0  0  0  0  0  0  0  0  0  0
  148.0448  132.8107  153.5605 H   0  0  0  0  0  0  0  0  0  0  0  0
  150.9122  137.5907  154.5833 H   0  0  0  0  0  0  0  0  0  0  0  0
  152.4645  136.9052  155.0407 H   0  0  0  0  0  0  0  0  0  0  0  0
  151.2693  138.6106  157.6284 H   0  0  0  0  0  0  0  0  0  0  0  0
  152.8374  141.0183  157.0308 H   0  0  0  0  0  0  0  0  0  0  0  0
  152.4114  139.6989  159.7489 H   0  0  0  0  0  0  0  0  0  0  0  0
  153.8687  139.6318  158.7880 H   0  0  0  0  0  0  0  0  0  0  0  0
  154.0106  141.3656  160.5795 H   0  0  0  0  0  0  0  0  0  0  0  0
  154.1719  142.0721  158.9892 H   0  0  0  0  0  0  0  0  0  0  0  0
  151.6339  142.0412  160.6960 H   0  0  0  0  0  0  0  0  0  0  0  0
  152.6300  143.4371  160.3606 H   0  0  0  0  0  0  0  0  0  0  0  0
  150.6109  143.3997  158.9065 H   0  0  0  0  0  0  0  0  0  0  0  0
  152.0746  143.3259  157.9578 H   0  0  0  0  0  0  0  0  0  0  0  0
  150.3028  140.9705  158.7153 H   0  0  0  0  0  0  0  0  0  0  0  0
  150.7856  142.2250  155.9703 H   0  0  0  0  0  0  0  0  0  0  0  0
  149.3394  142.4416  156.9520 H   0  0  0  0  0  0  0  0  0  0  0  0
  149.7280  140.8572  156.3085 H   0  0  0  0  0  0  0  0  0  0  0  0
  149.7827  130.9058  153.7610 H   0  0  0  0  0  0  0  0  0  0  0  0
  149.4653  130.4007  155.3861 H   0  0  0  0  0  0  0  0  0  0  0  0
  152.2512  130.6127  154.1047 H   0  0  0  0  0  0  0  0  0  0  0  0
  151.9687  130.1358  155.7728 H   0  0  0  0  0  0  0  0  0  0  0  0
  151.7187  128.6954  153.5113 H   0  0  0  0  0  0  0  0  0  0  0  0
  1 24  1  0  0  0  0
  1 25  1  0  0  0  0
  1 26  1  0  0  0  0
  1  2  1  0  0  0  0
  2 20  2  0  0  0  0
  2  3  1  0  0  0  0
  3  4  2  0  0  0  0
  4  5  1  0  0  0  0
  4 17  1  0  0  0  0
  5  6  1  0  0  0  0
  6  7  1  0  0  0  0
  6 27  1  0  0  0  0
  6 28  1  0  0  0  0
  7  8  2  0  0  0  0
  7  9  1  0  0  0  0
  9 10  1  0  0  0  0
  9 29  1  0  0  0  0
 10 15  1  0  0  0  0
 10 11  1  0  0  0  0
 10 30  1  0  0  0  0
 11 12  1  0  0  0  0
 11 31  1  0  0  0  0
 11 32  1  0  0  0  0
 12 13  1  0  0  0  0
 12 33  1  0  0  0  0
 12 34  1  0  0  0  0
 13 14  1  0  0  0  0
 13 35  1  0  0  0  0
 13 36  1  0  0  0  0
 14 15  1  0  0  0  0
 14 37  1  0  0  0  0
 14 38  1  0  0  0  0
 15 16  1  0  0  0  0
 15 39  1  0  0  0  0
 16 40  1  0  0  0  0
 16 41  1  0  0  0  0
 16 42  1  0  0  0  0
 17 18  1  0  0  0  0
 18 19  2  0  0  0  0
 18 20  1  0  0  0  0
 20 21  1  0  0  0  0
 21 22  1  0  0  0  0
 21 43  1  0  0  0  0
 21 44  1  0  0  0  0
 22 23  1  0  0  0  0
 22 45  1  0  0  0  0
 22 46  1  0  0  0  0
 23 47  1  0  0  0  0
M  CHG  1  17  -1
M  END
> <s_m_source_file>
AV-unprocessed.smi

> <i_m_source_file_index>
438

> <i_lp_mmshare_version>
43012

> <i_f3d_flags>
0

> <s_epik_input>
W09IXVtDSDJdW0NIMl1jMWMoW09IXSluYyhuYzFbQ0gzXSlTW0NIMl1DKD1PKVtOSF1bQ0BASF0yW0NIMl1bQ0gyXVtDSDJdW0NIMl1bQ0BIXTJbQ0gzXQ==

> <s_epik_cmdline>
J2VwaWtfcHl0aG9uJywgJy1waCcsICc3LjAnLCAnLXRuJywgJzgnLCAnLW1hJywgJzIwMCcsICctbWV0YWxfYmluZGluZycsICctaW1hZScsICc8aW5maWxlLm1hZT4nLCAnLW9tYWUnLCAnPG91dGZpbGUubWFlPic=

> <r_lp_tautomer_probability>
1

> <r_epik_Ionization_Penalty>
3.69231

> <r_epik_Ionization_Penalty_Charging>
0.00434774

> <r_epik_Ionization_Penalty_Neutral>
3.68796

> <r_epik_State_Penalty>
2.13826

> <r_epik_Charging_Adjusted_Penalty>
2.14261

> <i_epik_Tot_Q>
-1

> <i_epik_Tot_abs_Q>
1

> <r_epik_Metal_State_Penalty>
0.260979

> <b_epik_Metal_Only>
0

> <s_lp_Force_Field>
OPLS_2005

> <r_lp_Energy>
19.4347

> <b_lp_Chiralities_Consistent>
1

> <s_lp_Variant>
AV-unprocessed.smi:438-9

> <Gold.Version>
5.8.1

> <Gold.Id.Protein>
6NUR|6NUR_protein|mol2

> <Gold.PLP.Fitness>
48.4190

> <Gold.PLP.PLP>
-41.4349

> <Gold.PLP.part.hbond>
-3.9535

> <Gold.PLP.part.metal>
0.0000

> <Gold.PLP.part.buried>
-6.8959

> <Gold.PLP.part.nonpolar>
-30.8445

> <Gold.PLP.part.repulsive>
0.1984

> <Gold.PLP.ligand.clash>
0.0000

> <Gold.PLP.ligand.torsion>
0.2609

> <Gold.PLP.Chemscore.Hbond>
2.4739

> <Gold.PLP.Chemscore.CHOScore>
0.0000

> <Gold.PLP.Chemscore.Metal>
0.0000

> <Gold.Chemscore.Hbonds>
donor molecule, donor type, donor heavy atom, donor atom, acceptor molecule, acceptor atom, score
      L1  H    23    47       P1 10737  0.96
      P1  H  6896  6909       L1    17  0.19
      P1  H  7989  7998       L1     8  0.24
      P1  H  7997  8010       L1     8  1.00

> <Gold.PLP.Chemscore.Internal.Correction>
0.0842

> <Gold.Rescore>
     Score         DG    S(hbond)    S(metal)    S(lipo)     H(rot)  DE(clash)    DE(int)     intcor
     14.09     -16.04       2.08        0.00      92.09       2.79       0.08       1.87       ----

> <Gold.Chemscore.Fitness>
14.0856

> <Gold.Chemscore.DG>
-16.0368

> <Gold.Chemscore.ZeroCoef>
-5.4800

> <Gold.Chemscore.Hbond>
2.0754

> <Gold.Chemscore.Metal>
0.0000

> <Gold.Chemscore.Lipo>
92.0883

> <Gold.Chemscore.Internal_Hbond>
0.0000

> <Gold.Chemscore.DEClash>
0.0811

> <Gold.Chemscore.DEInternal>
1.8701

> <Gold.Chemscore.Rot>
2.7927

> <Gold.Chemscore.Internal.Correction>
   9.000000E+99

> <Gold.Chemscore.Hbonds>
donor molecule, donor type, donor heavy atom, donor atom, acceptor molecule, acceptor atom, score
      L1  H    23    47       P1 10737  0.70
      P1  H  6896  6909       L1    17  0.02
      P1  H  7989  7998       L1     8  0.23
      P1  H  7997  8010       L1     8  0.71

> <Gold.Chemscore.Hbond.Weighted>
-6.9317

> <Gold.Chemscore.Metal.Weighted>
-0.0000

> <Gold.Chemscore.Lipo.Weighted>
-10.7743

> <Gold.Chemscore.Internal_Hbond.Weighted>
0.0000

> <Gold.Chemscore.DEClash.Weighted>
0.0811

> <Gold.Chemscore.DEInternal.Weighted>
1.8701

> <Gold.Chemscore.Rot.Weighted>
7.1492

> <Gold.Chemscore.Internal.Correction.Weighted>
   9.000000E+99

> <Gold.Protein.RotatedTorsions>
[ 6907 6896 6895 6894 ] final  -32.28 input  -60.11 | X-H torsion
[ 7974 7965 7964 7962 ] final  -57.54 input  175.53 | X-H torsion
[ 8008 7997 7996 7995 ] final  104.07 input   59.86 | X-H torsion
[ 10167 10162 10161 10158 ] final  168.68 input  -65.29 | X-H torsion
[ 10718 10713 10712 10709 ] final   93.25 input   66.30 | X-H torsion
[ 10763 10752 10751 10750 ] final  119.10 input  -60.55 | X-H torsion
[ 11005 11000 10999 10996 ] final -129.01 input  -57.11 | X-H torsion

> <Gold.Protein.ActiveResidues>
 VAL166  LYS551  ARG553  GLY616  TRP617  ASP618  TYR619  PRO620  LYS621  CYS622 
 ASP623  PHE694  ASN695  SER759  ASP760  ASP761  ALA762  ILE779  LEU786  VAL792 
 PHE793  MET794  SER795  GLU796  ALA797  LYS798  CYS799  TRP800  GLU811  SER814 

> <Gold.Protein.RotatedAtoms>
  151.0808  134.9857  159.8354 H   0  0  0  0  0  0  0  0  0  0  0  0  # atno 6907 bound_to 6896
  152.5419  134.2184  159.8788 H   0  0  0  0  0  0  0  0  0  0  0  0  # atno 6908 bound_to 6896
  151.2214  133.4457  159.2634 H   0  0  0  0  0  0  0  0  0  0  0  0  # atno 6909 bound_to 6896
  145.8498  140.8360  142.9991 H   0  0  0  0  0  0  0  0  0  0  0  0  # atno 7974 bound_to 7965
  156.1540  140.3154  155.8695 H   0  0  0  0  0  0  0  0  0  0  0  0  # atno 8008 bound_to 7997
  155.3915  140.0494  157.3057 H   0  0  0  0  0  0  0  0  0  0  0  0  # atno 8009 bound_to 7997
  154.5084  140.2155  155.9216 H   0  0  0  0  0  0  0  0  0  0  0  0  # atno 8010 bound_to 7997
  139.4974  144.3788  151.9645 H   0  0  0  0  0  0  0  0  0  0  0  0  # atno 10167 bound_to 10162
  157.6955  131.0472  150.4006 H   0  0  0  0  0  0  0  0  0  0  0  0  # atno 10718 bound_to 10713
  153.5779  135.3489  155.2863 H   0  0  0  0  0  0  0  0  0  0  0  0  # atno 10763 bound_to 10752
  154.8672  135.4175  154.2653 H   0  0  0  0  0  0  0  0  0  0  0  0  # atno 10764 bound_to 10752
  153.3433  135.7051  153.6919 H   0  0  0  0  0  0  0  0  0  0  0  0  # atno 10765 bound_to 10752
  140.9468  134.1119  157.4100 H   0  0  0  0  0  0  0  0  0  0  0  0  # atno 11005 bound_to 11000
  144.6729  140.0937  143.7464 LP  0  0  0  0  0  0  0  0  0  0  0  0  # atno 17320 bound_to 7965
  145.9370  139.2644  143.1291 LP  0  0  0  0  0  0  0  0  0  0  0  0  # atno 17321 bound_to 7965
  140.3224  144.3412  150.6006 LP  0  0  0  0  0  0  0  0  0  0  0  0  # atno 17342 bound_to 10162
  140.5711  143.2181  151.7597 LP  0  0  0  0  0  0  0  0  0  0  0  0  # atno 17343 bound_to 10162
  156.4400  130.3989  149.6704 LP  0  0  0  0  0  0  0  0  0  0  0  0  # atno 17370 bound_to 10713
  156.3891  130.7618  151.2617 LP  0  0  0  0  0  0  0  0  0  0  0  0  # atno 17371 bound_to 10713
  139.8836  135.0054  156.6309 LP  0  0  0  0  0  0  0  0  0  0  0  0  # atno 17394 bound_to 11000
  140.7658  133.8779  155.8453 LP  0  0  0  0  0  0  0  0  0  0  0  0  # atno 17395 bound_to 11000

$$$$
