AV-unprocessed.smi:158|AV-procd|sdf|1326|dock2
  -GOLD-   2262019 23D 1   1.00000     0.00000
 Structure written by MMmdl.
 31 33  0  0  0  0  0  0  0  0  1 V2000
  145.6434  135.5959  150.1863 N   0  0  0  0  0  0  0  0  0  0  0  0
  145.6933  136.0784  151.4357 C   0  0  0  0  0  0  0  0  0  0  0  0
  145.3295  135.2664  152.4558 N   0  0  0  0  0  0  0  0  0  0  0  0
  145.3653  135.7089  153.7190 C   0  0  0  0  0  0  0  0  0  0  0  0
  144.8776  134.5893  154.9362 Cl  0  0  0  0  0  0  0  0  0  0  0  0
  145.7348  136.9224  154.1438 N   0  0  0  0  0  0  0  0  0  0  0  0
  146.0994  137.7428  153.1163 C   0  0  0  0  0  0  0  0  0  0  0  0
  146.1075  137.3982  151.7392 C   0  0  0  0  0  0  0  0  0  0  0  0
  146.5376  138.4804  150.9838 N   0  0  0  0  0  0  0  0  0  0  0  0
  146.7686  139.4107  151.8719 C   0  0  0  0  0  0  0  0  0  0  0  0
  146.5227  139.0516  153.1814 N   0  0  0  0  0  0  0  0  0  0  0  0
  146.6767  139.8532  154.4359 C   0  0  1  0  0  0  0  0  0  0  0  0
  147.6989  139.2737  155.1930 O   0  0  0  0  0  0  0  0  0  0  0  0
  148.8386  140.1318  155.2711 C   0  0  1  0  0  0  0  0  0  0  0  0
  150.1521  139.3336  155.1895 C   0  0  0  0  0  0  0  0  0  0  0  0
  151.2510  140.2165  155.1227 O   0  0  0  0  0  0  0  0  0  0  0  0
  148.6333  141.1893  154.1754 C   0  0  1  0  0  0  0  0  0  0  0  0
  149.1925  140.8146  152.9291 O   0  0  0  0  0  0  0  0  0  0  0  0
  147.1212  141.2776  154.0880 C   0  0  2  0  0  0  0  0  0  0  0  0
  146.6565  142.1102  155.0206 F   0  0  0  0  0  0  0  0  0  0  0  0
  145.7046  139.7859  154.9258 H   0  0  0  0  0  0  0  0  0  0  0  0
  148.7835  140.6485  156.2311 H   0  0  0  0  0  0  0  0  0  0  0  0
  149.0758  142.1452  154.4574 H   0  0  0  0  0  0  0  0  0  0  0  0
  146.7384  141.6168  153.1243 H   0  0  0  0  0  0  0  0  0  0  0  0
  145.9094  136.1842  149.4096 H   0  0  0  0  0  0  0  0  0  0  0  0
  145.3378  134.6476  150.0232 H   0  0  0  0  0  0  0  0  0  0  0  0
  147.1241  140.3894  151.5872 H   0  0  0  0  0  0  0  0  0  0  0  0
  150.2641  138.6539  156.0340 H   0  0  0  0  0  0  0  0  0  0  0  0
  150.1688  138.7296  154.2819 H   0  0  0  0  0  0  0  0  0  0  0  0
  151.6653  140.2467  155.9715 H   0  0  0  0  0  0  0  0  0  0  0  0
  148.6596  140.1309  152.5527 H   0  0  0  0  0  0  0  0  0  0  0  0
  1  2  1  0  0  0  0
  1 25  1  0  0  0  0
  1 26  1  0  0  0  0
  2  8  1  0  0  0  0
  2  3  2  0  0  0  0
  3  4  1  0  0  0  0
  4  5  1  0  0  0  0
  4  6  2  0  0  0  0
  6  7  1  0  0  0  0
  7 11  1  0  0  0  0
  7  8  2  0  0  0  0
  8  9  1  0  0  0  0
  9 10  2  0  0  0  0
 10 11  1  0  0  0  0
 10 27  1  0  0  0  0
 11 12  1  0  0  0  0
 12 21  1  0  0  0  0
 12 19  1  0  0  0  0
 12 13  1  0  0  0  0
 13 14  1  0  0  0  0
 14 22  1  0  0  0  0
 14 15  1  0  0  0  0
 14 17  1  0  0  0  0
 15 16  1  0  0  0  0
 15 28  1  0  0  0  0
 15 29  1  0  0  0  0
 16 30  1  0  0  0  0
 17 23  1  0  0  0  0
 17 18  1  0  0  0  0
 17 19  1  0  0  0  0
 18 31  1  0  0  0  0
 19 24  1  0  0  0  0
 19 20  1  0  0  0  0
M  END
> <s_m_source_file>
AV-unprocessed.smi

> <i_m_source_file_index>
158

> <i_lp_mmshare_version>
43012

> <i_f3d_flags>
0

> <s_epik_input>
Q2xjKG4xKW5jKFtOSDJdKWMoYzEyKW5bY0hdbjJbQ0BASF0zT1tDQEhdKFtDSDJdW09IXSlbQ0BASF0oW09IXSlbQ0BASF0zRg==

> <s_epik_cmdline>
J2VwaWtfcHl0aG9uJywgJy1waCcsICc3LjAnLCAnLXRuJywgJzgnLCAnLW1hJywgJzIwMCcsICctbWV0YWxfYmluZGluZycsICctaW1hZScsICc8aW5maWxlLm1hZT4nLCAnLW9tYWUnLCAnPG91dGZpbGUubWFlPic=

> <r_lp_tautomer_probability>
1

> <r_epik_Ionization_Penalty>
6.51543e-05

> <r_epik_Ionization_Penalty_Charging>
0

> <r_epik_Ionization_Penalty_Neutral>
6.51543e-05

> <r_epik_State_Penalty>
-0

> <r_epik_Charging_Adjusted_Penalty>
0

> <i_epik_Tot_Q>
0

> <i_epik_Tot_abs_Q>
0

> <r_epik_Metal_State_Penalty>
-0

> <b_epik_Metal_Only>
0

> <s_epik_Chemistry_Notes>
This compound contains an acetal/aminal-like group ( X-CH(R)-Y where X, Y are N, S, or O) that may be acid/base labile, releasing an aldehyde.

> <s_lp_Force_Field>
OPLS_2005

> <r_lp_Energy>
31.9678

> <b_lp_Chiralities_Consistent>
1

> <s_lp_Variant>
AV-unprocessed.smi:158-4

> <Gold.Version>
5.8.1

> <Gold.Id.Protein>
6NUR|6NUR_protein|mol2

> <Gold.PLP.Fitness>
34.7229

> <Gold.PLP.PLP>
-24.3081

> <Gold.PLP.part.hbond>
-2.7838

> <Gold.PLP.part.metal>
0.0000

> <Gold.PLP.part.buried>
-0.6999

> <Gold.PLP.part.nonpolar>
-23.8074

> <Gold.PLP.part.repulsive>
2.0053

> <Gold.PLP.ligand.clash>
0.2020

> <Gold.PLP.ligand.torsion>
0.0632

> <Gold.PLP.Chemscore.Hbond>
3.0832

> <Gold.PLP.Chemscore.CHOScore>
0.4933

> <Gold.PLP.Chemscore.Metal>
0.0000

> <Gold.Chemscore.Hbonds>
donor molecule, donor type, donor heavy atom, donor atom, acceptor molecule, acceptor atom, score
      L1  H     1    25       P1  7921  0.07
      P1  H  7954  7966       L1     9  0.96
      P1  H  7989  7998       L1    16  1.00
      P1  H  8011  8017       L1    18  1.00
      L1  C    10    27       P1  7957  0.49

> <Gold.PLP.Chemscore.Internal.Correction>
0.0136

> <Gold.Rescore>
     Score         DG    S(hbond)    S(metal)    S(lipo)     H(rot)  DE(clash)    DE(int)     intcor
      6.56      -9.55       2.56        0.00      29.94       3.12       1.78       1.21       ----

> <Gold.Chemscore.Fitness>
6.5618

> <Gold.Chemscore.DG>
-9.5492

> <Gold.Chemscore.ZeroCoef>
-5.4800

> <Gold.Chemscore.Hbond>
2.5634

> <Gold.Chemscore.Metal>
0.0000

> <Gold.Chemscore.Lipo>
29.9354

> <Gold.Chemscore.Internal_Hbond>
0.0000

> <Gold.Chemscore.DEClash>
1.7792

> <Gold.Chemscore.DEInternal>
1.2082

> <Gold.Chemscore.Rot>
3.1230

> <Gold.Chemscore.Internal.Correction>
   9.000000E+99

> <Gold.Chemscore.Hbonds>
donor molecule, donor type, donor heavy atom, donor atom, acceptor molecule, acceptor atom, score
      L1  H     1    25       P1  7921  0.08
      L1  H    18    31       P1  7957  0.01
      P1  H  7954  7966       L1     9  0.53
      P1  H  7989  7998       L1    16  0.93
      P1  H  8011  8017       L1    18  0.35

> <Gold.Chemscore.Hbond.Weighted>
-8.5617

> <Gold.Chemscore.Metal.Weighted>
-0.0000

> <Gold.Chemscore.Lipo.Weighted>
-3.5024

> <Gold.Chemscore.Internal_Hbond.Weighted>
0.0000

> <Gold.Chemscore.DEClash.Weighted>
1.7792

> <Gold.Chemscore.DEInternal.Weighted>
1.2082

> <Gold.Chemscore.Rot.Weighted>
7.9950

> <Gold.Chemscore.Internal.Correction.Weighted>
   9.000000E+99

> <Gold.Protein.RotatedTorsions>
[ 6907 6896 6895 6894 ] final  162.02 input  -60.11 | X-H torsion
[ 7974 7965 7964 7962 ] final   85.17 input  175.53 | X-H torsion
[ 8008 7997 7996 7995 ] final  110.29 input   59.86 | X-H torsion
[ 10167 10162 10161 10158 ] final  168.99 input  -65.29 | X-H torsion
[ 10718 10713 10712 10709 ] final  121.09 input   66.30 | X-H torsion
[ 10763 10752 10751 10750 ] final -154.41 input  -60.55 | X-H torsion
[ 11005 11000 10999 10996 ] final -178.33 input  -57.11 | X-H torsion

> <Gold.Protein.ActiveResidues>
 VAL166  LYS551  ARG553  GLY616  TRP617  ASP618  TYR619  PRO620  LYS621  CYS622 
 ASP623  PHE694  ASN695  SER759  ASP760  ASP761  ALA762  ILE779  LEU786  VAL792 
 PHE793  MET794  SER795  GLU796  ALA797  LYS798  CYS799  TRP800  GLU811  SER814 

> <Gold.Protein.RotatedAtoms>
  151.9468  133.3654  159.3985 H   0  0  0  0  0  0  0  0  0  0  0  0  # atno 6907 bound_to 6896
  150.6988  134.4381  159.5289 H   0  0  0  0  0  0  0  0  0  0  0  0  # atno 6908 bound_to 6896
  152.2048  134.8555  160.0555 H   0  0  0  0  0  0  0  0  0  0  0  0  # atno 6909 bound_to 6896
  145.5890  139.2335  143.2310 H   0  0  0  0  0  0  0  0  0  0  0  0  # atno 7974 bound_to 7965
  156.2042  140.3041  155.9591 H   0  0  0  0  0  0  0  0  0  0  0  0  # atno 8008 bound_to 7997
  155.2881  140.0441  157.3038 H   0  0  0  0  0  0  0  0  0  0  0  0  # atno 8009 bound_to 7997
  154.5611  140.2320  155.8343 H   0  0  0  0  0  0  0  0  0  0  0  0  # atno 8010 bound_to 7997
  139.4981  144.3755  151.9679 H   0  0  0  0  0  0  0  0  0  0  0  0  # atno 10167 bound_to 10162
  157.5843  131.1071  150.8126 H   0  0  0  0  0  0  0  0  0  0  0  0  # atno 10718 bound_to 10713
  154.7860  135.3190  154.7885 H   0  0  0  0  0  0  0  0  0  0  0  0  # atno 10763 bound_to 10752
  153.8585  135.6855  153.4789 H   0  0  0  0  0  0  0  0  0  0  0  0  # atno 10764 bound_to 10752
  153.1512  135.4698  154.9578 H   0  0  0  0  0  0  0  0  0  0  0  0  # atno 10765 bound_to 10752
  140.4310  134.6519  157.4712 H   0  0  0  0  0  0  0  0  0  0  0  0  # atno 11005 bound_to 11000
  146.1661  140.6716  142.9255 LP  0  0  0  0  0  0  0  0  0  0  0  0  # atno 17320 bound_to 7965
  144.7360  140.4808  143.6904 LP  0  0  0  0  0  0  0  0  0  0  0  0  # atno 17321 bound_to 7965
  140.3191  144.3448  150.6014 LP  0  0  0  0  0  0  0  0  0  0  0  0  # atno 17342 bound_to 10162
  140.5737  143.2178  151.7554 LP  0  0  0  0  0  0  0  0  0  0  0  0  # atno 17343 bound_to 10162
  156.8564  130.5098  149.5307 LP  0  0  0  0  0  0  0  0  0  0  0  0  # atno 17370 bound_to 10713
  156.0891  130.5881  150.9701 LP  0  0  0  0  0  0  0  0  0  0  0  0  # atno 17371 bound_to 10713
  140.0134  134.6656  155.9346 LP  0  0  0  0  0  0  0  0  0  0  0  0  # atno 17394 bound_to 11000
  141.1745  133.6539  156.4777 LP  0  0  0  0  0  0  0  0  0  0  0  0  # atno 17395 bound_to 11000

$$$$
