AV-unprocessed.smi:850|AV-procd|sdf|3947|dock9
  -GOLD-   22720 1413D 1   1.00000     0.00000
 Structure written by MMmdl.
 40 42  0  0  0  0  0  0  0  0  1 V2000
  154.4243  140.2470  161.0071 C   0  0  0  0  0  0  0  0  0  0  0  0
  153.4741  140.8974  160.1130 N   0  0  0  0  0  0  0  0  0  0  0  0
  153.0643  140.4607  158.8992 C   0  0  0  0  0  0  0  0  0  0  0  0
  153.4302  139.4280  158.3381 O   0  0  0  0  0  0  0  0  0  0  0  0
  152.1826  141.3624  158.4050 N   0  0  0  0  0  0  0  0  0  0  0  0
  151.4889  141.2854  157.1206 C   0  0  0  0  0  0  0  0  0  0  0  0
  150.0489  140.7567  157.2785 C   0  0  2  0  0  0  0  0  0  0  0  0
  150.0430  139.7531  158.2738 O   0  0  0  0  0  0  0  0  0  0  0  0
  149.5229  140.1185  155.9841 C   0  0  0  0  0  0  0  0  0  0  0  0
  149.2127  141.1521  155.0584 O   0  0  0  0  0  0  0  0  0  0  0  0
  147.9525  141.7083  155.0967 C   0  0  0  0  0  0  0  0  0  0  0  0
  147.4376  142.2080  153.8826 C   0  0  0  0  0  0  0  0  0  0  0  0
  146.1568  142.7906  153.8281 C   0  0  0  0  0  0  0  0  0  0  0  0
  145.3749  142.8800  154.9942 C   0  0  0  0  0  0  0  0  0  0  0  0
  145.8764  142.3867  156.2129 C   0  0  0  0  0  0  0  0  0  0  0  0
  147.1579  141.8044  156.2675 C   0  0  0  0  0  0  0  0  0  0  0  0
  152.0298  142.4084  159.3265 C   0  0  0  0  0  0  0  0  0  0  0  0
  151.2483  143.5765  159.2838 C   0  0  0  0  0  0  0  0  0  0  0  0
  151.3223  144.4448  160.3983 C   0  0  0  0  0  0  0  0  0  0  0  0
  152.1549  144.1379  161.5059 C   0  0  0  0  0  0  0  0  0  0  0  0
  152.9332  142.9566  161.5218 C   0  0  0  0  0  0  0  0  0  0  0  0
  152.8412  142.1129  160.4017 C   0  0  0  0  0  0  0  0  0  0  0  0
  154.8196  139.3220  160.5852 H   0  0  0  0  0  0  0  0  0  0  0  0
  153.9437  140.0061  161.9557 H   0  0  0  0  0  0  0  0  0  0  0  0
  155.2652  140.9108  161.2090 H   0  0  0  0  0  0  0  0  0  0  0  0
  151.4661  142.2926  156.7010 H   0  0  0  0  0  0  0  0  0  0  0  0
  152.0523  140.6875  156.4035 H   0  0  0  0  0  0  0  0  0  0  0  0
  149.3690  141.5540  157.5819 H   0  0  0  0  0  0  0  0  0  0  0  0
  150.9024  139.7152  158.6653 H   0  0  0  0  0  0  0  0  0  0  0  0
  150.2702  139.4374  155.5727 H   0  0  0  0  0  0  0  0  0  0  0  0
  148.6191  139.5439  156.1952 H   0  0  0  0  0  0  0  0  0  0  0  0
  148.0312  142.1424  152.9825 H   0  0  0  0  0  0  0  0  0  0  0  0
  145.7750  143.1687  152.8912 H   0  0  0  0  0  0  0  0  0  0  0  0
  144.3922  143.3266  154.9538 H   0  0  0  0  0  0  0  0  0  0  0  0
  145.2775  142.4551  157.1090 H   0  0  0  0  0  0  0  0  0  0  0  0
  147.5086  141.4387  157.2206 H   0  0  0  0  0  0  0  0  0  0  0  0
  150.6174  143.8074  158.4383 H   0  0  0  0  0  0  0  0  0  0  0  0
  150.7376  145.3529  160.4062 H   0  0  0  0  0  0  0  0  0  0  0  0
  152.1956  144.8148  162.3467 H   0  0  0  0  0  0  0  0  0  0  0  0
  153.5706  142.7161  162.3598 H   0  0  0  0  0  0  0  0  0  0  0  0
  1  2  1  0  0  0  0
  1 23  1  0  0  0  0
  1 24  1  0  0  0  0
  1 25  1  0  0  0  0
  2 22  1  0  0  0  0
  2  3  1  0  0  0  0
  3  4  2  0  0  0  0
  3  5  1  0  0  0  0
  5  6  1  0  0  0  0
  5 17  1  0  0  0  0
  6  7  1  0  0  0  0
  6 26  1  0  0  0  0
  6 27  1  0  0  0  0
  7  8  1  0  0  0  0
  7  9  1  0  0  0  0
  7 28  1  0  0  0  0
  8 29  1  0  0  0  0
  9 10  1  0  0  0  0
  9 30  1  0  0  0  0
  9 31  1  0  0  0  0
 10 11  1  0  0  0  0
 11 16  1  0  0  0  0
 11 12  2  0  0  0  0
 12 13  1  0  0  0  0
 12 32  1  0  0  0  0
 13 14  2  0  0  0  0
 13 33  1  0  0  0  0
 14 15  1  0  0  0  0
 14 34  1  0  0  0  0
 15 16  2  0  0  0  0
 15 35  1  0  0  0  0
 16 36  1  0  0  0  0
 17 22  2  0  0  0  0
 17 18  1  0  0  0  0
 18 19  2  0  0  0  0
 18 37  1  0  0  0  0
 19 20  1  0  0  0  0
 19 38  1  0  0  0  0
 20 21  2  0  0  0  0
 20 39  1  0  0  0  0
 21 22  1  0  0  0  0
 21 40  1  0  0  0  0
M  END
> <s_m_source_file>
AV-unprocessed.smi

> <i_m_source_file_index>
850

> <i_lp_mmshare_version>
43012

> <i_f3d_flags>
0

> <s_epik_input>
W2NIXTFbY0hdW2NIXVtjSF1jKGMxMiluKFtDSDNdKWMoPU8pbjJbQ0gyXVtDQEhdKFtPSF0pW0NIMl1PYzNbY0hdW2NIXVtjSF1bY0hdW2NIXTM=

> <s_epik_cmdline>
J2VwaWtfcHl0aG9uJywgJy1waCcsICc3LjAnLCAnLXRuJywgJzgnLCAnLW1hJywgJzIwMCcsICctbWV0YWxfYmluZGluZycsICctaW1hZScsICc8aW5maWxlLm1hZT4nLCAnLW9tYWUnLCAnPG91dGZpbGUubWFlPic=

> <r_lp_tautomer_probability>
1

> <r_epik_Ionization_Penalty>
2.40205e-06

> <r_epik_Ionization_Penalty_Charging>
2.75209e-09

> <r_epik_Ionization_Penalty_Neutral>
2.3993e-06

> <r_epik_State_Penalty>
-0

> <r_epik_Charging_Adjusted_Penalty>
2.75209e-09

> <i_epik_Tot_Q>
0

> <i_epik_Tot_abs_Q>
0

> <r_epik_Metal_State_Penalty>
-0

> <b_epik_Metal_Only>
0

> <s_lp_Force_Field>
OPLS_2005

> <r_lp_Energy>
46.059

> <b_lp_Chiralities_Consistent>
1

> <s_lp_Variant>
AV-unprocessed.smi:850-1

> <Gold.Version>
5.8.1

> <Gold.Id.Protein>
6NUR|6NUR_protein|mol2

> <Gold.PLP.Fitness>
47.9593

> <Gold.PLP.PLP>
-47.2570

> <Gold.PLP.part.hbond>
-1.0000

> <Gold.PLP.part.metal>
0.0000

> <Gold.PLP.part.buried>
-7.1873

> <Gold.PLP.part.nonpolar>
-38.6136

> <Gold.PLP.part.repulsive>
0.1188

> <Gold.PLP.ligand.clash>
0.0000

> <Gold.PLP.ligand.torsion>
1.1784

> <Gold.PLP.Chemscore.Hbond>
1.0000

> <Gold.PLP.Chemscore.CHOScore>
0.0000

> <Gold.PLP.Chemscore.Metal>
0.0000

> <Gold.Chemscore.Hbonds>
donor molecule, donor type, donor heavy atom, donor atom, acceptor molecule, acceptor atom, score
      P1  H  7997  8009       L1     4  1.00

> <Gold.PLP.Chemscore.Internal.Correction>
0.0591

> <Gold.Rescore>
     Score         DG    S(hbond)    S(metal)    S(lipo)     H(rot)  DE(clash)    DE(int)     intcor
     15.92     -17.12       0.92        0.00     119.50       2.12       0.17       1.03       ----

> <Gold.Chemscore.Fitness>
15.9175

> <Gold.Chemscore.DG>
-17.1188

> <Gold.Chemscore.ZeroCoef>
-5.4800

> <Gold.Chemscore.Hbond>
0.9222

> <Gold.Chemscore.Metal>
0.0000

> <Gold.Chemscore.Lipo>
119.5010

> <Gold.Chemscore.Internal_Hbond>
0.0000

> <Gold.Chemscore.DEClash>
0.1728

> <Gold.Chemscore.DEInternal>
1.0285

> <Gold.Chemscore.Rot>
2.1184

> <Gold.Chemscore.Internal.Correction>
   9.000000E+99

> <Gold.Chemscore.Hbonds>
donor molecule, donor type, donor heavy atom, donor atom, acceptor molecule, acceptor atom, score
      P1  H  7997  8009       L1     4  0.40

> <Gold.Chemscore.Hbond.Weighted>
-3.0803

> <Gold.Chemscore.Metal.Weighted>
-0.0000

> <Gold.Chemscore.Lipo.Weighted>
-13.9816

> <Gold.Chemscore.Internal_Hbond.Weighted>
0.0000

> <Gold.Chemscore.DEClash.Weighted>
0.1728

> <Gold.Chemscore.DEInternal.Weighted>
1.0285

> <Gold.Chemscore.Rot.Weighted>
5.4231

> <Gold.Chemscore.Internal.Correction.Weighted>
   9.000000E+99

> <Gold.Protein.RotatedTorsions>
[ 6907 6896 6895 6894 ] final  -90.12 input  -60.11 | X-H torsion
[ 7974 7965 7964 7962 ] final -150.36 input  175.53 | X-H torsion
[ 8008 7997 7996 7995 ] final  142.64 input   59.86 | X-H torsion
[ 10167 10162 10161 10158 ] final  -74.07 input  -65.29 | X-H torsion
[ 10718 10713 10712 10709 ] final -158.97 input   66.30 | X-H torsion
[ 10763 10752 10751 10750 ] final  113.47 input  -60.55 | X-H torsion
[ 11005 11000 10999 10996 ] final  112.19 input  -57.11 | X-H torsion

> <Gold.Protein.ActiveResidues>
 VAL166  LYS551  ARG553  GLY616  TRP617  ASP618  TYR619  PRO620  LYS621  CYS622 
 ASP623  PHE694  ASN695  SER759  ASP760  ASP761  ALA762  ILE779  LEU786  VAL792 
 PHE793  MET794  SER795  GLU796  ALA797  LYS798  CYS799  TRP800  GLU811  SER814 

> <Gold.Protein.RotatedAtoms>
  150.6879  134.2482  159.4499 H   0  0  0  0  0  0  0  0  0  0  0  0  # atno 6907 bound_to 6896
  152.0421  134.9702  160.0583 H   0  0  0  0  0  0  0  0  0  0  0  0  # atno 6908 bound_to 6896
  152.1200  133.4313  159.4708 H   0  0  0  0  0  0  0  0  0  0  0  0  # atno 6909 bound_to 6896
  144.7912  140.4943  143.5771 H   0  0  0  0  0  0  0  0  0  0  0  0  # atno 7974 bound_to 7965
  156.2945  140.2283  156.4760 H   0  0  0  0  0  0  0  0  0  0  0  0  # atno 8008 bound_to 7997
  154.7894  140.0455  157.1210 H   0  0  0  0  0  0  0  0  0  0  0  0  # atno 8009 bound_to 7997
  154.9663  140.3061  155.5011 H   0  0  0  0  0  0  0  0  0  0  0  0  # atno 8010 bound_to 7997
  140.5058  143.2353  151.7676 H   0  0  0  0  0  0  0  0  0  0  0  0  # atno 10167 bound_to 10162
  156.5616  130.8649  151.2811 H   0  0  0  0  0  0  0  0  0  0  0  0  # atno 10718 bound_to 10713
  153.4930  135.3654  155.2501 H   0  0  0  0  0  0  0  0  0  0  0  0  # atno 10763 bound_to 10752
  154.8751  135.3981  154.3567 H   0  0  0  0  0  0  0  0  0  0  0  0  # atno 10764 bound_to 10752
  153.4190  135.7080  153.6373 H   0  0  0  0  0  0  0  0  0  0  0  0  # atno 10765 bound_to 10752
  139.8921  134.9524  156.6547 H   0  0  0  0  0  0  0  0  0  0  0  0  # atno 11005 bound_to 11000
  145.5789  139.1487  143.3246 LP  0  0  0  0  0  0  0  0  0  0  0  0  # atno 17320 bound_to 7965
  146.2165  140.5919  142.9036 LP  0  0  0  0  0  0  0  0  0  0  0  0  # atno 17321 bound_to 7965
  139.4883  144.4459  151.9710 LP  0  0  0  0  0  0  0  0  0  0  0  0  # atno 17342 bound_to 10162
  140.3550  144.3043  150.5943 LP  0  0  0  0  0  0  0  0  0  0  0  0  # atno 17343 bound_to 10162
  157.7367  130.9783  150.2152 LP  0  0  0  0  0  0  0  0  0  0  0  0  # atno 17370 bound_to 10713
  156.2794  130.3731  149.7951 LP  0  0  0  0  0  0  0  0  0  0  0  0  # atno 17371 bound_to 10713
  140.7493  133.8911  155.8335 LP  0  0  0  0  0  0  0  0  0  0  0  0  # atno 17394 bound_to 11000
  141.0014  134.1145  157.4314 LP  0  0  0  0  0  0  0  0  0  0  0  0  # atno 17395 bound_to 11000

$$$$
