AV-unprocessed.smi:1047|AV-procd|sdf|4574|dock8
  -GOLD-   22720 3 33D 1   1.00000     0.00000
 Structure written by MMmdl.
 56 58  0  0  0  0  0  0  0  0  2 V2000
  146.0826  132.7043  150.3092 C   0  0  0  0  0  0  0  0  0  0  0  0
  146.3753  134.0225  151.0391 C   0  0  0  0  0  0  0  0  0  0  0  0
  145.5304  135.1432  150.5478 N   0  3  1  0  0  0  0  0  0  0  0  0
  144.0809  135.0032  150.8399 C   0  0  0  0  0  0  0  0  0  0  0  0
  143.7638  135.3619  152.3038 C   0  0  0  0  0  0  0  0  0  0  0  0
  144.2507  136.6667  152.5927 O   0  0  0  0  0  0  0  0  0  0  0  0
  145.6639  136.7689  152.4441 C   0  0  2  0  0  0  0  0  0  0  0  0
  146.0823  138.1856  152.8638 C   0  0  0  0  0  0  0  0  0  0  0  0
  147.3921  138.5248  152.3180 N   0  0  0  0  0  0  0  0  0  0  0  0
  147.9502  139.7571  152.8666 C   0  0  0  0  0  0  0  0  0  0  0  0
  148.6213  139.5033  154.2307 C   0  0  2  0  0  0  0  0  0  0  0  0
  147.6633  139.7061  155.2494 O   0  0  0  0  0  0  0  0  0  0  0  0
  149.8012  140.4502  154.5246 C   0  0  0  0  0  0  0  0  0  0  0  0
  150.4764  140.1406  155.7718 N   0  0  0  0  0  0  0  0  0  0  0  0
  150.7277  138.9161  156.2733 C   0  0  0  0  0  0  0  0  0  0  0  0
  151.3568  138.8545  157.4433 N   0  0  0  0  0  0  0  0  0  0  0  0
  151.5286  140.1961  157.7383 C   0  0  0  0  0  0  0  0  0  0  0  0
  152.1289  140.8191  158.8542 C   0  0  0  0  0  0  0  0  0  0  0  0
  152.1934  142.2275  158.9504 C   0  0  0  0  0  0  0  0  0  0  0  0
  152.8427  142.8557  160.1712 C   0  0  0  0  0  0  0  0  0  0  0  0
  151.6547  143.0355  157.9171 C   0  0  0  0  0  0  0  0  0  0  0  0
  151.7152  144.5505  157.9970 C   0  0  0  0  0  0  0  0  0  0  0  0
  151.0516  142.4296  156.7953 C   0  0  0  0  0  0  0  0  0  0  0  0
  150.9897  141.0271  156.7127 C   0  0  0  0  0  0  0  0  0  0  0  0
  146.0164  136.4806  150.9695 C   0  0  0  0  0  0  0  0  0  0  0  0
  146.7894  131.9328  150.6154 H   0  0  0  0  0  0  0  0  0  0  0  0
  146.1729  132.8231  149.2291 H   0  0  0  0  0  0  0  0  0  0  0  0
  145.0831  132.3285  150.5255 H   0  0  0  0  0  0  0  0  0  0  0  0
  146.2654  133.8930  152.1157 H   0  0  0  0  0  0  0  0  0  0  0  0
  147.4240  134.2679  150.8665 H   0  0  0  0  0  0  0  0  0  0  0  0
  143.5372  135.6825  150.1822 H   0  0  0  0  0  0  0  0  0  0  0  0
  143.7221  134.0026  150.6025 H   0  0  0  0  0  0  0  0  0  0  0  0
  142.6859  135.3474  152.4658 H   0  0  0  0  0  0  0  0  0  0  0  0
  144.1933  134.6373  152.9965 H   0  0  0  0  0  0  0  0  0  0  0  0
  146.1610  136.0428  153.0904 H   0  0  0  0  0  0  0  0  0  0  0  0
  145.3460  138.9048  152.5028 H   0  0  0  0  0  0  0  0  0  0  0  0
  146.0872  138.2636  153.9518 H   0  0  0  0  0  0  0  0  0  0  0  0
  148.0363  137.7587  152.4863 H   0  0  0  0  0  0  0  0  0  0  0  0
  148.6828  140.1494  152.1611 H   0  0  0  0  0  0  0  0  0  0  0  0
  147.1780  140.5217  152.9646 H   0  0  0  0  0  0  0  0  0  0  0  0
  148.9751  138.4724  154.2856 H   0  0  0  0  0  0  0  0  0  0  0  0
  147.8264  140.5451  155.6518 H   0  0  0  0  0  0  0  0  0  0  0  0
  150.5298  140.4108  153.7140 H   0  0  0  0  0  0  0  0  0  0  0  0
  149.4524  141.4825  154.5772 H   0  0  0  0  0  0  0  0  0  0  0  0
  150.4324  138.0192  155.7484 H   0  0  0  0  0  0  0  0  0  0  0  0
  152.5391  140.2031  159.6409 H   0  0  0  0  0  0  0  0  0  0  0  0
  152.1244  143.4747  160.7098 H   0  0  0  0  0  0  0  0  0  0  0  0
  153.6872  143.4796  159.8772 H   0  0  0  0  0  0  0  0  0  0  0  0
  153.2126  142.0964  160.8608 H   0  0  0  0  0  0  0  0  0  0  0  0
  151.2566  145.0137  157.1230 H   0  0  0  0  0  0  0  0  0  0  0  0
  152.7502  144.8891  158.0505 H   0  0  0  0  0  0  0  0  0  0  0  0
  151.1873  144.9081  158.8811 H   0  0  0  0  0  0  0  0  0  0  0  0
  150.6376  143.0345  156.0022 H   0  0  0  0  0  0  0  0  0  0  0  0
  147.0910  136.5644  150.8020 H   0  0  0  0  0  0  0  0  0  0  0  0
  145.5490  137.2310  150.3302 H   0  0  0  0  0  0  0  0  0  0  0  0
  145.6247  135.1208  149.5423 H   0  0  0  0  0  0  0  0  0  0  0  0
  1  2  1  0  0  0  0
  1 26  1  0  0  0  0
  1 27  1  0  0  0  0
  1 28  1  0  0  0  0
  2  3  1  0  0  0  0
  2 29  1  0  0  0  0
  2 30  1  0  0  0  0
  3 25  1  0  0  0  0
  3  4  1  0  0  0  0
  3 56  1  0  0  0  0
  4  5  1  0  0  0  0
  4 31  1  0  0  0  0
  4 32  1  0  0  0  0
  5  6  1  0  0  0  0
  5 33  1  0  0  0  0
  5 34  1  0  0  0  0
  6  7  1  0  0  0  0
  7  8  1  0  0  0  0
  7 25  1  0  0  0  0
  7 35  1  0  0  0  0
  8  9  1  0  0  0  0
  8 36  1  0  0  0  0
  8 37  1  0  0  0  0
  9 10  1  0  0  0  0
  9 38  1  0  0  0  0
 10 11  1  0  0  0  0
 10 39  1  0  0  0  0
 10 40  1  0  0  0  0
 11 12  1  0  0  0  0
 11 13  1  0  0  0  0
 11 41  1  0  0  0  0
 12 42  1  0  0  0  0
 13 14  1  0  0  0  0
 13 43  1  0  0  0  0
 13 44  1  0  0  0  0
 14 24  1  0  0  0  0
 14 15  1  0  0  0  0
 15 16  2  0  0  0  0
 15 45  1  0  0  0  0
 16 17  1  0  0  0  0
 17 24  2  0  0  0  0
 17 18  1  0  0  0  0
 18 19  2  0  0  0  0
 18 46  1  0  0  0  0
 19 20  1  0  0  0  0
 19 21  1  0  0  0  0
 20 47  1  0  0  0  0
 20 48  1  0  0  0  0
 20 49  1  0  0  0  0
 21 22  1  0  0  0  0
 21 23  2  0  0  0  0
 22 50  1  0  0  0  0
 22 51  1  0  0  0  0
 22 52  1  0  0  0  0
 23 24  1  0  0  0  0
 23 53  1  0  0  0  0
 25 54  1  0  0  0  0
 25 55  1  0  0  0  0
M  CHG  1   3   1
M  END
> <s_m_source_file>
AV-unprocessed.smi

> <i_m_source_file_index>
1047

> <i_lp_mmshare_version>
43012

> <i_f3d_flags>
0

> <s_epik_input>
W0NIM11bQ0gyXU4xW0NIMl1bQ0gyXU9bQ0BIXShbQ0gyXTEpW0NIMl1bTkhdW0NIMl1bQ0BIXShbT0hdKVtDSDJdbihbY0hdbjIpYyhjMjMpW2NIXWMoW0NIM10pYyhbY0hdMylbQ0gzXQ==

> <s_epik_cmdline>
J2VwaWtfcHl0aG9uJywgJy1waCcsICc3LjAnLCAnLXRuJywgJzgnLCAnLW1hJywgJzIwMCcsICctbWV0YWxfYmluZGluZycsICctaW1hZScsICc8aW5maWxlLm1hZT4nLCAnLW9tYWUnLCAnPG91dGZpbGUubWFlPic=

> <r_epik_Ionization_Penalty>
1.19246

> <r_epik_Ionization_Penalty_Charging>
0.210041

> <r_epik_Ionization_Penalty_Neutral>
0.982415

> <r_epik_State_Penalty>
1.57595

> <r_epik_Charging_Adjusted_Penalty>
1.78599

> <i_epik_Tot_Q>
1

> <i_epik_Tot_abs_Q>
1

> <r_epik_Metal_State_Penalty>
1.46172

> <b_epik_Metal_Only>
0

> <s_lp_Force_Field>
OPLS_2005

> <r_lp_Energy>
32.9743

> <b_lp_Chiralities_Consistent>
1

> <s_lp_Variant>
AV-unprocessed.smi:1047-15

> <Gold.Version>
5.8.1

> <Gold.Id.Protein>
6NUR|6NUR_protein|mol2

> <Gold.PLP.Fitness>
48.9387

> <Gold.PLP.PLP>
-45.0420

> <Gold.PLP.part.hbond>
-3.0000

> <Gold.PLP.part.metal>
0.0000

> <Gold.PLP.part.buried>
0.7256

> <Gold.PLP.part.nonpolar>
-43.5818

> <Gold.PLP.part.repulsive>
0.2406

> <Gold.PLP.ligand.clash>
0.0000

> <Gold.PLP.ligand.torsion>
1.0765

> <Gold.PLP.Chemscore.Hbond>
2.0000

> <Gold.PLP.Chemscore.CHOScore>
0.0000

> <Gold.PLP.Chemscore.Metal>
0.0000

> <Gold.Chemscore.Hbonds>
donor molecule, donor type, donor heavy atom, donor atom, acceptor molecule, acceptor atom, score
      L1  H     3    56       P1  7921  1.00
      L1  H     9    38       P1  7948  0.98

> <Gold.PLP.Chemscore.Internal.Correction>
0.0498

> <Gold.Rescore>
     Score         DG    S(hbond)    S(metal)    S(lipo)     H(rot)  DE(clash)    DE(int)     intcor
     17.98     -21.73       1.95        0.00     140.58       2.62       2.63       1.12       ----

> <Gold.Chemscore.Fitness>
17.9822

> <Gold.Chemscore.DG>
-21.7320

> <Gold.Chemscore.ZeroCoef>
-5.4800

> <Gold.Chemscore.Hbond>
1.9503

> <Gold.Chemscore.Metal>
0.0000

> <Gold.Chemscore.Lipo>
140.5776

> <Gold.Chemscore.Internal_Hbond>
0.0000

> <Gold.Chemscore.DEClash>
2.6280

> <Gold.Chemscore.DEInternal>
1.1218

> <Gold.Chemscore.Rot>
2.6209

> <Gold.Chemscore.Internal.Correction>
   9.000000E+99

> <Gold.Chemscore.Hbonds>
donor molecule, donor type, donor heavy atom, donor atom, acceptor molecule, acceptor atom, score
      L1  H     3    56       P1  7921  0.96
      L1  H     9    38       P1  7948  0.93

> <Gold.Chemscore.Hbond.Weighted>
-6.5140

> <Gold.Chemscore.Metal.Weighted>
-0.0000

> <Gold.Chemscore.Lipo.Weighted>
-16.4476

> <Gold.Chemscore.Internal_Hbond.Weighted>
0.0000

> <Gold.Chemscore.DEClash.Weighted>
2.6280

> <Gold.Chemscore.DEInternal.Weighted>
1.1218

> <Gold.Chemscore.Rot.Weighted>
6.7096

> <Gold.Chemscore.Internal.Correction.Weighted>
   9.000000E+99

> <Gold.Protein.RotatedTorsions>
[ 6907 6896 6895 6894 ] final   86.46 input  -60.11 | X-H torsion
[ 7974 7965 7964 7962 ] final  129.23 input  175.53 | X-H torsion
[ 8008 7997 7996 7995 ] final  140.80 input   59.86 | X-H torsion
[ 10167 10162 10161 10158 ] final  134.96 input  -65.29 | X-H torsion
[ 10718 10713 10712 10709 ] final  -92.04 input   66.30 | X-H torsion
[ 10763 10752 10751 10750 ] final  -50.21 input  -60.55 | X-H torsion
[ 11005 11000 10999 10996 ] final   23.42 input  -57.11 | X-H torsion

> <Gold.Protein.ActiveResidues>
 VAL166  LYS551  ARG553  GLY616  TRP617  ASP618  TYR619  PRO620  LYS621  CYS622 
 ASP623  PHE694  ASN695  SER759  ASP760  ASP761  ALA762  ILE779  LEU786  VAL792 
 PHE793  MET794  SER795  GLU796  ALA797  LYS798  CYS799  TRP800  GLU811  SER814 

> <Gold.Protein.RotatedAtoms>
  152.5394  134.2427  159.8868 H   0  0  0  0  0  0  0  0  0  0  0  0  # atno 6907 bound_to 6896
  151.2394  133.4401  159.2614 H   0  0  0  0  0  0  0  0  0  0  0  0  # atno 6908 bound_to 6896
  151.0641  134.9769  159.8331 H   0  0  0  0  0  0  0  0  0  0  0  0  # atno 6909 bound_to 6896
  145.0309  139.4047  143.5150 H   0  0  0  0  0  0  0  0  0  0  0  0  # atno 7974 bound_to 7965
  156.2974  140.2332  156.4460 H   0  0  0  0  0  0  0  0  0  0  0  0  # atno 8008 bound_to 7997
  154.8143  140.0441  157.1386 H   0  0  0  0  0  0  0  0  0  0  0  0  # atno 8009 bound_to 7997
  154.9387  140.3026  155.5135 H   0  0  0  0  0  0  0  0  0  0  0  0  # atno 8010 bound_to 7997
  139.5236  144.6541  151.5214 H   0  0  0  0  0  0  0  0  0  0  0  0  # atno 10167 bound_to 10162
  155.9998  130.4971  150.5566 H   0  0  0  0  0  0  0  0  0  0  0  0  # atno 10718 bound_to 10713
  154.1066  135.6555  153.4877 H   0  0  0  0  0  0  0  0  0  0  0  0  # atno 10763 bound_to 10752
  153.0270  135.5237  154.7233 H   0  0  0  0  0  0  0  0  0  0  0  0  # atno 10764 bound_to 10752
  154.6401  135.2987  155.0083 H   0  0  0  0  0  0  0  0  0  0  0  0  # atno 10765 bound_to 10752
  140.3698  134.2035  155.7667 H   0  0  0  0  0  0  0  0  0  0  0  0  # atno 11005 bound_to 11000
  146.3498  139.9858  142.8691 LP  0  0  0  0  0  0  0  0  0  0  0  0  # atno 17320 bound_to 7965
  145.1772  140.9750  143.4287 LP  0  0  0  0  0  0  0  0  0  0  0  0  # atno 17321 bound_to 7965
  140.6359  143.8985  150.6647 LP  0  0  0  0  0  0  0  0  0  0  0  0  # atno 17342 bound_to 10162
  140.2304  143.3740  152.1570 LP  0  0  0  0  0  0  0  0  0  0  0  0  # atno 17343 bound_to 10162
  157.3481  131.0729  151.1735 LP  0  0  0  0  0  0  0  0  0  0  0  0  # atno 17370 bound_to 10713
  157.2560  130.6636  149.5953 LP  0  0  0  0  0  0  0  0  0  0  0  0  # atno 17371 bound_to 10713
  141.1958  133.8097  157.0699 LP  0  0  0  0  0  0  0  0  0  0  0  0  # atno 17394 bound_to 11000
  140.0560  134.9780  157.1222 LP  0  0  0  0  0  0  0  0  0  0  0  0  # atno 17395 bound_to 11000

$$$$
