AV-unprocessed.smi:49|AV-procd|sdf|472|dock6
  -GOLD-   2262016333D 1   1.00000     0.00000
 Structure written by MMmdl.
 27 28  0  0  0  0  0  0  0  0  1 V2000
  152.4831  141.7991  159.4247 C   0  0  0  0  0  0  0  0  0  0  0  0
  152.0674  140.4329  158.8689 C   0  0  0  0  0  0  0  0  0  0  0  0
  151.5405  140.5177  157.4742 C   0  0  0  0  0  0  0  0  0  0  0  0
  150.4507  141.1830  157.1068 N   0  0  0  0  0  0  0  0  0  0  0  0
  150.4551  140.9349  155.7620 C   0  0  0  0  0  0  0  0  0  0  0  0
  149.4261  141.5180  154.8420 C   0  0  1  0  0  0  0  0  0  0  0  0
  148.7054  140.4463  154.0119 C   0  0  0  0  0  0  0  0  0  0  0  0
  147.3431  141.0773  153.7630 C   0  0  1  0  0  0  0  0  0  0  0  0
  146.3428  140.1274  153.4625 O   0  0  0  0  0  0  0  0  0  0  0  0
  147.0820  141.7996  155.0812 C   0  0  0  0  0  0  0  0  0  0  0  0
  148.3827  142.2956  155.5241 N   0  0  0  0  0  0  0  0  0  0  0  0
  151.4730  140.2008  155.3094 N   0  0  0  0  0  0  0  0  0  0  0  0
  152.1566  139.9376  156.4425 N   0  0  0  0  0  0  0  0  0  0  0  0
  149.9390  142.1860  154.1487 H   0  0  0  0  0  0  0  0  0  0  0  0
  147.4116  141.8006  152.9492 H   0  0  0  0  0  0  0  0  0  0  0  0
  153.0051  139.3902  156.4605 H   0  0  0  0  0  0  0  0  0  0  0  0
  152.8643  141.7055  160.4417 H   0  0  0  0  0  0  0  0  0  0  0  0
  151.6378  142.4875  159.4479 H   0  0  0  0  0  0  0  0  0  0  0  0
  153.2661  142.2501  158.8145 H   0  0  0  0  0  0  0  0  0  0  0  0
  152.9177  139.7501  158.8881 H   0  0  0  0  0  0  0  0  0  0  0  0
  151.2996  139.9914  159.5053 H   0  0  0  0  0  0  0  0  0  0  0  0
  149.2387  140.1819  153.0986 H   0  0  0  0  0  0  0  0  0  0  0  0
  148.5804  139.5361  154.6019 H   0  0  0  0  0  0  0  0  0  0  0  0
  145.6065  140.5778  153.0778 H   0  0  0  0  0  0  0  0  0  0  0  0
  146.3510  142.6024  154.9834 H   0  0  0  0  0  0  0  0  0  0  0  0
  146.6996  141.0918  155.8182 H   0  0  0  0  0  0  0  0  0  0  0  0
  148.4723  143.2663  155.2422 H   0  0  0  0  0  0  0  0  0  0  0  0
  1  2  1  0  0  0  0
  1 17  1  0  0  0  0
  1 18  1  0  0  0  0
  1 19  1  0  0  0  0
  2  3  1  0  0  0  0
  2 20  1  0  0  0  0
  2 21  1  0  0  0  0
  3 13  1  0  0  0  0
  3  4  2  0  0  0  0
  4  5  1  0  0  0  0
  5  6  1  0  0  0  0
  5 12  2  0  0  0  0
  6 14  1  0  0  0  0
  6 11  1  0  0  0  0
  6  7  1  0  0  0  0
  7  8  1  0  0  0  0
  7 22  1  0  0  0  0
  7 23  1  0  0  0  0
  8 15  1  0  0  0  0
  8  9  1  0  0  0  0
  8 10  1  0  0  0  0
  9 24  1  0  0  0  0
 10 11  1  0  0  0  0
 10 25  1  0  0  0  0
 10 26  1  0  0  0  0
 11 27  1  0  0  0  0
 12 13  1  0  0  0  0
 13 16  1  0  0  0  0
M  END
> <s_m_source_file>
AV-unprocessed.smi

> <i_m_source_file_index>
49

> <i_lp_mmshare_version>
43012

> <i_f3d_flags>
0

> <s_epik_input>
W0NIM11bQ0gyXWMxbmMobltuSF0xKVtDQEBIXTJbQ0gyXVtDQEBIXShbT0hdKVtDSDJdW05IXTI=

> <s_epik_cmdline>
J2VwaWtfcHl0aG9uJywgJy1waCcsICc3LjAnLCAnLXRuJywgJzgnLCAnLW1hJywgJzIwMCcsICctbWV0YWxfYmluZGluZycsICctaW1hZScsICc8aW5maWxlLm1hZT4nLCAnLW9tYWUnLCAnPG91dGZpbGUubWFlPic=

> <r_lp_tautomer_probability>
0.948284

> <r_epik_Ionization_Penalty>
1.6657

> <r_epik_Ionization_Penalty_Charging>
0

> <r_epik_Ionization_Penalty_Neutral>
1.6657

> <r_epik_State_Penalty>
2.01417

> <r_epik_Charging_Adjusted_Penalty>
2.01417

> <i_epik_Tot_Q>
0

> <i_epik_Tot_abs_Q>
0

> <r_epik_Metal_State_Penalty>
2.28256

> <b_epik_Metal_Only>
0

> <s_lp_Force_Field>
OPLS_2005

> <r_lp_Energy>
18.9273

> <b_lp_Chiralities_Consistent>
1

> <s_lp_Variant>
AV-unprocessed.smi:49-10

> <Gold.Version>
5.8.1

> <Gold.Id.Protein>
6NUR|6NUR_protein|mol2

> <Gold.PLP.Fitness>
32.7261

> <Gold.PLP.PLP>
-23.9944

> <Gold.PLP.part.hbond>
-2.7719

> <Gold.PLP.part.metal>
0.0000

> <Gold.PLP.part.buried>
-3.4826

> <Gold.PLP.part.nonpolar>
-18.9834

> <Gold.PLP.part.repulsive>
0.2228

> <Gold.PLP.ligand.clash>
0.0000

> <Gold.PLP.ligand.torsion>
0.0352

> <Gold.PLP.Chemscore.Hbond>
2.9280

> <Gold.PLP.Chemscore.CHOScore>
0.0000

> <Gold.PLP.Chemscore.Metal>
0.0000

> <Gold.Chemscore.Hbonds>
donor molecule, donor type, donor heavy atom, donor atom, acceptor molecule, acceptor atom, score
      L1  H     9    24       P1 10175  0.96
      L1  H    11    27       P1  8028  0.96
      P1  H  7989  7998       L1    12  0.99

> <Gold.PLP.Chemscore.Internal.Correction>
0.0182

> <Gold.Rescore>
     Score         DG    S(hbond)    S(metal)    S(lipo)     H(rot)  DE(clash)    DE(int)     intcor
     14.45     -14.54       2.71        0.00      40.59       1.86       0.07       0.03       ----

> <Gold.Chemscore.Fitness>
14.4467

> <Gold.Chemscore.DG>
-14.5414

> <Gold.Chemscore.ZeroCoef>
-5.4800

> <Gold.Chemscore.Hbond>
2.7136

> <Gold.Chemscore.Metal>
0.0000

> <Gold.Chemscore.Lipo>
40.5865

> <Gold.Chemscore.Internal_Hbond>
0.0000

> <Gold.Chemscore.DEClash>
0.0650

> <Gold.Chemscore.DEInternal>
0.0297

> <Gold.Chemscore.Rot>
1.8558

> <Gold.Chemscore.Internal.Correction>
   9.000000E+99

> <Gold.Chemscore.Hbonds>
donor molecule, donor type, donor heavy atom, donor atom, acceptor molecule, acceptor atom, score
      L1  H     9    24       P1 10175  0.72
      L1  H    11    27       P1  8028  0.88
      P1  H  7989  7998       L1    12  0.28

> <Gold.Chemscore.Hbond.Weighted>
-9.0635

> <Gold.Chemscore.Metal.Weighted>
-0.0000

> <Gold.Chemscore.Lipo.Weighted>
-4.7486

> <Gold.Chemscore.Internal_Hbond.Weighted>
0.0000

> <Gold.Chemscore.DEClash.Weighted>
0.0650

> <Gold.Chemscore.DEInternal.Weighted>
0.0297

> <Gold.Chemscore.Rot.Weighted>
4.7507

> <Gold.Chemscore.Internal.Correction.Weighted>
   9.000000E+99

> <Gold.Protein.RotatedTorsions>
[ 6907 6896 6895 6894 ] final  -23.57 input  -60.11 | X-H torsion
[ 7974 7965 7964 7962 ] final  152.80 input  175.53 | X-H torsion
[ 8008 7997 7996 7995 ] final  -70.56 input   59.86 | X-H torsion
[ 10167 10162 10161 10158 ] final   40.42 input  -65.29 | X-H torsion
[ 10718 10713 10712 10709 ] final  135.92 input   66.30 | X-H torsion
[ 10763 10752 10751 10750 ] final  -44.25 input  -60.55 | X-H torsion
[ 11005 11000 10999 10996 ] final  161.88 input  -57.11 | X-H torsion

> <Gold.Protein.ActiveResidues>
 VAL166  LYS551  ARG553  GLY616  TRP617  ASP618  TYR619  PRO620  LYS621  CYS622 
 ASP623  PHE694  ASN695  SER759  ASP760  ASP761  ALA762  ILE779  LEU786  VAL792 
 PHE793  MET794  SER795  GLU796  ALA797  LYS798  CYS799  TRP800  GLU811  SER814 

> <Gold.Protein.RotatedAtoms>
  151.2021  135.0446  159.8875 H   0  0  0  0  0  0  0  0  0  0  0  0  # atno 6907 bound_to 6896
  152.5432  134.0839  159.8257 H   0  0  0  0  0  0  0  0  0  0  0  0  # atno 6908 bound_to 6896
  151.0981  133.5217  159.2643 H   0  0  0  0  0  0  0  0  0  0  0  0  # atno 6909 bound_to 6896
  144.8198  139.6716  143.6105 H   0  0  0  0  0  0  0  0  0  0  0  0  # atno 7974 bound_to 7965
  154.5021  140.0832  156.7819 H   0  0  0  0  0  0  0  0  0  0  0  0  # atno 8008 bound_to 7997
  155.3979  140.3435  155.4237 H   0  0  0  0  0  0  0  0  0  0  0  0  # atno 8009 bound_to 7997
  156.1469  140.1546  156.8819 H   0  0  0  0  0  0  0  0  0  0  0  0  # atno 8010 bound_to 7997
  140.3744  144.2062  150.6132 H   0  0  0  0  0  0  0  0  0  0  0  0  # atno 10167 bound_to 10162
  157.4520  131.1067  151.0022 H   0  0  0  0  0  0  0  0  0  0  0  0  # atno 10718 bound_to 10713
  154.0090  135.6684  153.4764 H   0  0  0  0  0  0  0  0  0  0  0  0  # atno 10763 bound_to 10752
  153.0629  135.5017  154.8130 H   0  0  0  0  0  0  0  0  0  0  0  0  # atno 10764 bound_to 10752
  154.7007  135.3078  154.9309 H   0  0  0  0  0  0  0  0  0  0  0  0  # atno 10765 bound_to 10752
  140.2202  134.8202  157.3212 H   0  0  0  0  0  0  0  0  0  0  0  0  # atno 11005 bound_to 11000
  146.2503  139.6184  142.9432 LP  0  0  0  0  0  0  0  0  0  0  0  0  # atno 17320 bound_to 7965
  145.5132  141.0435  143.2476 LP  0  0  0  0  0  0  0  0  0  0  0  0  # atno 17321 bound_to 7965
  140.5001  143.2320  151.8691 LP  0  0  0  0  0  0  0  0  0  0  0  0  # atno 17342 bound_to 10162
  139.4801  144.5069  151.8985 LP  0  0  0  0  0  0  0  0  0  0  0  0  # atno 17343 bound_to 10162
  157.0849  130.5918  149.5428 LP  0  0  0  0  0  0  0  0  0  0  0  0  # atno 17370 bound_to 10713
  155.9991  130.5066  150.7595 LP  0  0  0  0  0  0  0  0  0  0  0  0  # atno 17371 bound_to 10713
  140.1858  134.4433  155.7745 LP  0  0  0  0  0  0  0  0  0  0  0  0  # atno 17394 bound_to 11000
  141.2223  133.7004  156.7945 LP  0  0  0  0  0  0  0  0  0  0  0  0  # atno 17395 bound_to 11000

$$$$
