AV-unprocessed.smi:3085|AV-procd|sdf|11758|dock4
  -GOLD-   2272017143D 1   1.00000     0.00000
 Structure written by MMmdl.
 28 29  0  0  0  0  0  0  0  0  2 V2000
  152.4199  144.8186  158.3619 C   0  0  0  0  0  0  0  0  0  0  0  0
  151.0636  144.1048  158.3565 C   0  0  0  0  0  0  0  0  0  0  0  0
  151.1011  142.8059  157.6202 C   0  0  0  0  0  0  0  0  0  0  0  0
  150.3400  142.5785  156.5399 N   0  0  0  0  0  0  0  0  0  0  0  0
  150.6899  141.3337  156.1830 C   0  0  0  0  0  0  0  0  0  0  0  0
  150.0734  140.6425  155.0076 C   0  0  2  0  0  0  0  0  0  0  0  0
  148.8695  141.4164  154.4359 C   0  0  0  0  0  0  0  0  0  0  0  0
  148.2390  140.6398  153.3508 N   0  3  0  0  0  0  0  0  0  0  0  0
  147.8705  139.2827  153.8010 C   0  0  0  0  0  0  0  0  0  0  0  0
  149.0971  138.5718  154.3994 C   0  0  0  0  0  0  0  0  0  0  0  0
  149.6433  139.3584  155.4533 O   0  0  0  0  0  0  0  0  0  0  0  0
  151.6154  140.8003  156.9876 N   0  0  0  0  0  0  0  0  0  0  0  0
  151.8902  141.7738  157.9324 N   0  0  0  0  0  0  0  0  0  0  0  0
  149.6716  143.1965  156.1029 H   0  0  0  0  0  0  0  0  0  0  0  0
  152.3600  145.7625  158.9037 H   0  0  0  0  0  0  0  0  0  0  0  0
  152.7539  145.0369  157.3473 H   0  0  0  0  0  0  0  0  0  0  0  0
  153.1841  144.2071  158.8428 H   0  0  0  0  0  0  0  0  0  0  0  0
  150.7417  143.9157  159.3813 H   0  0  0  0  0  0  0  0  0  0  0  0
  150.3060  144.7479  157.9073 H   0  0  0  0  0  0  0  0  0  0  0  0
  150.8383  140.5177  154.2382 H   0  0  0  0  0  0  0  0  0  0  0  0
  148.1289  141.6010  155.2156 H   0  0  0  0  0  0  0  0  0  0  0  0
  149.1819  142.3878  154.0518 H   0  0  0  0  0  0  0  0  0  0  0  0
  147.4122  141.1226  153.0284 H   0  0  0  0  0  0  0  0  0  0  0  0
  147.0773  139.3547  154.5466 H   0  0  0  0  0  0  0  0  0  0  0  0
  147.4705  138.7173  152.9590 H   0  0  0  0  0  0  0  0  0  0  0  0
  148.8100  137.5985  154.7976 H   0  0  0  0  0  0  0  0  0  0  0  0
  149.8549  138.3920  153.6352 H   0  0  0  0  0  0  0  0  0  0  0  0
  148.8938  140.5604  152.5859 H   0  0  0  0  0  0  0  0  0  0  0  0
  1  2  1  0  0  0  0
  1 15  1  0  0  0  0
  1 16  1  0  0  0  0
  1 17  1  0  0  0  0
  2 18  1  0  0  0  0
  2 19  1  0  0  0  0
  2  3  1  0  0  0  0
  3  4  1  0  0  0  0
  3 13  2  0  0  0  0
  4 14  1  0  0  0  0
  4  5  1  0  0  0  0
  5 12  2  0  0  0  0
  5  6  1  0  0  0  0
  6 11  1  0  0  0  0
  6  7  1  0  0  0  0
  6 20  1  0  0  0  0
  7  8  1  0  0  0  0
  7 21  1  0  0  0  0
  7 22  1  0  0  0  0
  8  9  1  0  0  0  0
  8 23  1  0  0  0  0
  8 28  1  0  0  0  0
  9 10  1  0  0  0  0
  9 24  1  0  0  0  0
  9 25  1  0  0  0  0
 10 11  1  0  0  0  0
 10 26  1  0  0  0  0
 10 27  1  0  0  0  0
 12 13  1  0  0  0  0
M  CHG  1   8   1
M  END
> <s_m_source_file>
AV-unprocessed.smi

> <i_m_source_file_index>
3085

> <i_lp_mmshare_version>
43012

> <i_f3d_flags>
0

> <s_epik_input>
W0NIM11bQ0gyXWMxbmMobltuSF0xKVtDQEBIXTJbQ0gyXVtOSF1bQ0gyXVtDSDJdTzI=

> <s_epik_cmdline>
J2VwaWtfcHl0aG9uJywgJy1waCcsICc3LjAnLCAnLXRuJywgJzgnLCAnLW1hJywgJzIwMCcsICctbWV0YWxfYmluZGluZycsICctaW1hZScsICc8aW5maWxlLm1hZT4nLCAnLW9tYWUnLCAnPG91dGZpbGUubWFlPic=

> <r_lp_tautomer_probability>
0.0517155

> <r_epik_Ionization_Penalty>
0.290065

> <r_epik_Ionization_Penalty_Charging>
0.125708

> <r_epik_Ionization_Penalty_Neutral>
0.164357

> <r_epik_State_Penalty>
2.26879

> <r_epik_Charging_Adjusted_Penalty>
2.39449

> <i_epik_Tot_Q>
1

> <i_epik_Tot_abs_Q>
1

> <r_epik_Metal_State_Penalty>
2.49092

> <b_epik_Metal_Only>
0

> <s_lp_Force_Field>
OPLS_2005

> <r_lp_Energy>
12.4164

> <b_lp_Chiralities_Consistent>
1

> <s_lp_Variant>
AV-unprocessed.smi:3085-9

> <Gold.Version>
5.8.1

> <Gold.Id.Protein>
6NUR|6NUR_protein|mol2

> <Gold.PLP.Fitness>
32.0332

> <Gold.PLP.PLP>
-26.3978

> <Gold.PLP.part.hbond>
-2.0000

> <Gold.PLP.part.metal>
0.0000

> <Gold.PLP.part.buried>
-2.1888

> <Gold.PLP.part.nonpolar>
-22.1340

> <Gold.PLP.part.repulsive>
0.2579

> <Gold.PLP.ligand.clash>
0.0000

> <Gold.PLP.ligand.torsion>
0.1832

> <Gold.PLP.Chemscore.Hbond>
2.0000

> <Gold.PLP.Chemscore.CHOScore>
0.0000

> <Gold.PLP.Chemscore.Metal>
0.0000

> <Gold.Chemscore.Hbonds>
donor molecule, donor type, donor heavy atom, donor atom, acceptor molecule, acceptor atom, score
      L1  H     4    14       P1  8028  1.00
      L1  H     8    28       P1  7957  1.00

> <Gold.PLP.Chemscore.Internal.Correction>
0.0018

> <Gold.Rescore>
     Score         DG    S(hbond)    S(metal)    S(lipo)     H(rot)  DE(clash)    DE(int)     intcor
     14.84     -15.01       2.00        0.00      52.84       1.30       0.06       0.11       ----

> <Gold.Chemscore.Fitness>
14.8396

> <Gold.Chemscore.DG>
-15.0099

> <Gold.Chemscore.ZeroCoef>
-5.4800

> <Gold.Chemscore.Hbond>
1.9997

> <Gold.Chemscore.Metal>
0.0000

> <Gold.Chemscore.Lipo>
52.8353

> <Gold.Chemscore.Internal_Hbond>
0.0000

> <Gold.Chemscore.DEClash>
0.0630

> <Gold.Chemscore.DEInternal>
0.1073

> <Gold.Chemscore.Rot>
1.3011

> <Gold.Chemscore.Internal.Correction>
   9.000000E+99

> <Gold.Chemscore.Hbonds>
donor molecule, donor type, donor heavy atom, donor atom, acceptor molecule, acceptor atom, score
      L1  H     4    14       P1  8028  0.99
      L1  H     8    28       P1  7957  1.00

> <Gold.Chemscore.Hbond.Weighted>
-6.6790

> <Gold.Chemscore.Metal.Weighted>
-0.0000

> <Gold.Chemscore.Lipo.Weighted>
-6.1817

> <Gold.Chemscore.Internal_Hbond.Weighted>
0.0000

> <Gold.Chemscore.DEClash.Weighted>
0.0630

> <Gold.Chemscore.DEInternal.Weighted>
0.1073

> <Gold.Chemscore.Rot.Weighted>
3.3308

> <Gold.Chemscore.Internal.Correction.Weighted>
   9.000000E+99

> <Gold.Protein.RotatedTorsions>
[ 6907 6896 6895 6894 ] final   13.55 input  -60.11 | X-H torsion
[ 7974 7965 7964 7962 ] final  -72.73 input  175.53 | X-H torsion
[ 8008 7997 7996 7995 ] final   90.22 input   59.86 | X-H torsion
[ 10167 10162 10161 10158 ] final  159.23 input  -65.29 | X-H torsion
[ 10718 10713 10712 10709 ] final -112.42 input   66.30 | X-H torsion
[ 10763 10752 10751 10750 ] final   99.21 input  -60.55 | X-H torsion
[ 11005 11000 10999 10996 ] final  157.15 input  -57.11 | X-H torsion

> <Gold.Protein.ActiveResidues>
 VAL166  LYS551  ARG553  GLY616  TRP617  ASP618  TYR619  PRO620  LYS621  CYS622 
 ASP623  PHE694  ASN695  SER759  ASP760  ASP761  ALA762  ILE779  LEU786  VAL792 
 PHE793  MET794  SER795  GLU796  ALA797  LYS798  CYS799  TRP800  GLU811  SER814 

> <Gold.Protein.RotatedAtoms>
  151.7881  135.0743  160.0383 H   0  0  0  0  0  0  0  0  0  0  0  0  # atno 6907 bound_to 6896
  152.3176  133.5814  159.5731 H   0  0  0  0  0  0  0  0  0  0  0  0  # atno 6908 bound_to 6896
  150.7352  133.9976  159.3669 H   0  0  0  0  0  0  0  0  0  0  0  0  # atno 6909 bound_to 6896
  145.6613  140.9251  143.0932 H   0  0  0  0  0  0  0  0  0  0  0  0  # atno 7974 bound_to 7965
  156.0094  140.3352  155.6925 H   0  0  0  0  0  0  0  0  0  0  0  0  # atno 8008 bound_to 7997
  155.6179  140.0672  157.2704 H   0  0  0  0  0  0  0  0  0  0  0  0  # atno 8009 bound_to 7997
  154.4276  140.1782  156.1329 H   0  0  0  0  0  0  0  0  0  0  0  0  # atno 8010 bound_to 7997
  139.4831  144.4750  151.8524 H   0  0  0  0  0  0  0  0  0  0  0  0  # atno 10167 bound_to 10162
  156.0705  130.5919  150.8506 H   0  0  0  0  0  0  0  0  0  0  0  0  # atno 10718 bound_to 10713
  153.2986  135.4121  155.1232 H   0  0  0  0  0  0  0  0  0  0  0  0  # atno 10763 bound_to 10752
  154.8542  135.3536  154.5883 H   0  0  0  0  0  0  0  0  0  0  0  0  # atno 10764 bound_to 10752
  153.6308  135.7061  153.5334 H   0  0  0  0  0  0  0  0  0  0  0  0  # atno 10765 bound_to 10752
  140.1742  134.8521  157.2727 H   0  0  0  0  0  0  0  0  0  0  0  0  # atno 11005 bound_to 11000
  144.7088  139.8453  143.7421 LP  0  0  0  0  0  0  0  0  0  0  0  0  # atno 17320 bound_to 7965
  146.1123  139.4129  143.0280 LP  0  0  0  0  0  0  0  0  0  0  0  0  # atno 17321 bound_to 7965
  140.4221  144.2229  150.5887 LP  0  0  0  0  0  0  0  0  0  0  0  0  # atno 17342 bound_to 10162
  140.4863  143.2362  151.8883 LP  0  0  0  0  0  0  0  0  0  0  0  0  # atno 17343 bound_to 10162
  157.5772  131.0946  150.9327 LP  0  0  0  0  0  0  0  0  0  0  0  0  # atno 17370 bound_to 10713
  156.9530  130.5427  149.5283 LP  0  0  0  0  0  0  0  0  0  0  0  0  # atno 17371 bound_to 10713
  140.2342  134.3873  155.7508 LP  0  0  0  0  0  0  0  0  0  0  0  0  # atno 17394 bound_to 11000
  141.2219  133.7231  156.8688 LP  0  0  0  0  0  0  0  0  0  0  0  0  # atno 17395 bound_to 11000

$$$$
