AV-unprocessed.smi:2906|AV-procd|sdf|11164|dock7
  -GOLD-   2272016 53D 1   1.00000     0.00000
 Structure written by MMmdl.
 39 40  0  0  0  0  0  0  0  0  2 V2000
  151.8983  145.9043  160.1003 C   0  0  0  0  0  0  0  0  0  0  0  0
  151.9183  144.4755  160.6675 C   0  0  0  0  0  0  0  0  0  0  0  0
  151.7078  143.3839  159.6046 C   0  0  0  0  0  0  0  0  0  0  0  0
  150.9060  143.5681  158.6871 O   0  0  0  0  0  0  0  0  0  0  0  0
  152.4212  142.2434  159.7121 N   0  0  0  0  0  0  0  0  0  0  0  0
  153.3650  141.9851  160.7962 C   0  0  0  0  0  0  0  0  0  0  0  0
  153.7698  140.5178  160.6617 C   0  0  0  0  0  0  0  0  0  0  0  0
  153.5142  140.1775  159.1937 C   0  0  1  0  0  0  0  0  0  0  0  0
  153.1520  138.7766  158.9973 N   0  0  0  0  0  0  0  0  0  0  0  0
  152.8426  138.2078  157.8232 C   0  0  0  0  0  0  0  0  0  0  0  0
  152.8436  138.8862  156.7931 O   0  0  0  0  0  0  0  0  0  0  0  0
  152.5560  136.8888  157.9137 N   0  5  0  0  0  0  0  0  0  0  0  0
  151.8097  136.2991  156.9655 C   0  0  0  0  0  0  0  0  0  0  0  0
  151.6492  134.9738  156.8813 N   0  0  0  0  0  0  0  0  0  0  0  0
  150.8309  134.5752  155.8209 C   0  0  0  0  0  0  0  0  0  0  0  0
  150.5501  133.1204  155.5971 C   0  0  0  0  0  0  0  0  0  0  0  0
  149.6527  132.8820  154.3775 C   0  0  0  0  0  0  0  0  0  0  0  0
  150.3707  135.6273  155.0724 C   0  0  0  0  0  0  0  0  0  0  0  0
  150.9494  137.1514  155.6813 S   0  0  0  0  0  0  0  0  0  0  0  0
  152.3707  141.1133  158.7854 C   0  0  0  0  0  0  0  0  0  0  0  0
  152.0633  146.6346  160.8927 H   0  0  0  0  0  0  0  0  0  0  0  0
  150.9385  146.1355  159.6363 H   0  0  0  0  0  0  0  0  0  0  0  0
  152.6791  146.0482  159.3526 H   0  0  0  0  0  0  0  0  0  0  0  0
  152.8732  144.3040  161.1656 H   0  0  0  0  0  0  0  0  0  0  0  0
  151.1410  144.3840  161.4266 H   0  0  0  0  0  0  0  0  0  0  0  0
  154.2334  142.6335  160.6721 H   0  0  0  0  0  0  0  0  0  0  0  0
  152.9285  142.1862  161.7756 H   0  0  0  0  0  0  0  0  0  0  0  0
  154.8028  140.3370  160.9614 H   0  0  0  0  0  0  0  0  0  0  0  0
  153.1295  139.9112  161.3044 H   0  0  0  0  0  0  0  0  0  0  0  0
  154.3989  140.4277  158.6048 H   0  0  0  0  0  0  0  0  0  0  0  0
  153.1384  138.1868  159.8164 H   0  0  0  0  0  0  0  0  0  0  0  0
  151.4862  132.5765  155.4658 H   0  0  0  0  0  0  0  0  0  0  0  0
  150.0766  132.6907  156.4805 H   0  0  0  0  0  0  0  0  0  0  0  0
  149.4609  131.8181  154.2376 H   0  0  0  0  0  0  0  0  0  0  0  0
  150.1180  133.2589  153.4663 H   0  0  0  0  0  0  0  0  0  0  0  0
  148.6908  133.3823  154.4936 H   0  0  0  0  0  0  0  0  0  0  0  0
  149.7318  135.5997  154.2029 H   0  0  0  0  0  0  0  0  0  0  0  0
  151.4020  140.6213  158.8902 H   0  0  0  0  0  0  0  0  0  0  0  0
  152.4808  141.4262  157.7464 H   0  0  0  0  0  0  0  0  0  0  0  0
  1  2  1  0  0  0  0
  1 21  1  0  0  0  0
  1 22  1  0  0  0  0
  1 23  1  0  0  0  0
  2  3  1  0  0  0  0
  2 24  1  0  0  0  0
  2 25  1  0  0  0  0
  3  4  2  0  0  0  0
  3  5  1  0  0  0  0
  5 20  1  0  0  0  0
  5  6  1  0  0  0  0
  6  7  1  0  0  0  0
  6 26  1  0  0  0  0
  6 27  1  0  0  0  0
  7  8  1  0  0  0  0
  7 28  1  0  0  0  0
  7 29  1  0  0  0  0
  8  9  1  0  0  0  0
  8 20  1  0  0  0  0
  8 30  1  0  0  0  0
  9 10  1  0  0  0  0
  9 31  1  0  0  0  0
 10 11  2  0  0  0  0
 10 12  1  0  0  0  0
 12 13  1  0  0  0  0
 13 19  1  0  0  0  0
 13 14  2  0  0  0  0
 14 15  1  0  0  0  0
 15 16  1  0  0  0  0
 15 18  2  0  0  0  0
 16 17  1  0  0  0  0
 16 32  1  0  0  0  0
 16 33  1  0  0  0  0
 17 34  1  0  0  0  0
 17 35  1  0  0  0  0
 17 36  1  0  0  0  0
 18 19  1  0  0  0  0
 18 37  1  0  0  0  0
 20 38  1  0  0  0  0
 20 39  1  0  0  0  0
M  CHG  1  12  -1
M  END
> <s_m_source_file>
AV-unprocessed.smi

> <i_m_source_file_index>
2906

> <i_lp_mmshare_version>
43012

> <i_f3d_flags>
0

> <s_epik_input>
W0NIM11bQ0gyXUMoPU8pTjFbQ0gyXVtDSDJdW0NASF0oW0NIMl0xKVtOSF1DKD1PKVtOSF1jMm5jKFtjSF1zMilbQ0gyXVtDSDNd

> <s_epik_cmdline>
J2VwaWtfcHl0aG9uJywgJy1waCcsICc3LjAnLCAnLXRuJywgJzgnLCAnLW1hJywgJzIwMCcsICctbWV0YWxfYmluZGluZycsICctaW1hZScsICc8aW5maWxlLm1hZT4nLCAnLW9tYWUnLCAnPG91dGZpbGUubWFlPic=

> <r_lp_tautomer_probability>
1

> <r_epik_Ionization_Penalty>
7.20119

> <r_epik_Ionization_Penalty_Charging>
5.87168

> <r_epik_Ionization_Penalty_Neutral>
1.32951

> <r_epik_State_Penalty>
5.87165

> <r_epik_Charging_Adjusted_Penalty>
11.7433

> <i_epik_Tot_Q>
-1

> <i_epik_Tot_abs_Q>
1

> <r_epik_Metal_State_Penalty>
1.83511

> <b_epik_Metal_Only>
1

> <s_lp_Force_Field>
OPLS_2005

> <r_lp_Energy>
20.3379

> <b_lp_Chiralities_Consistent>
1

> <s_lp_Variant>
AV-unprocessed.smi:2906-3

> <Gold.Version>
5.8.1

> <Gold.Id.Protein>
6NUR|6NUR_protein|mol2

> <Gold.PLP.Fitness>
43.7466

> <Gold.PLP.PLP>
-38.6191

> <Gold.PLP.part.hbond>
-1.6653

> <Gold.PLP.part.metal>
0.0000

> <Gold.PLP.part.buried>
-4.8458

> <Gold.PLP.part.nonpolar>
-32.1953

> <Gold.PLP.part.repulsive>
0.1882

> <Gold.PLP.ligand.clash>
0.0000

> <Gold.PLP.ligand.torsion>
0.4463

> <Gold.PLP.Chemscore.Hbond>
1.0000

> <Gold.PLP.Chemscore.CHOScore>
0.9996

> <Gold.PLP.Chemscore.Metal>
0.0000

> <Gold.Chemscore.Hbonds>
donor molecule, donor type, donor heavy atom, donor atom, acceptor molecule, acceptor atom, score
      P1  H  7997  8009       L1    11  1.00
      L1  C    18    37       P1  7948  1.00

> <Gold.PLP.Chemscore.Internal.Correction>
0.0213

> <Gold.Rescore>
     Score         DG    S(hbond)    S(metal)    S(lipo)     H(rot)  DE(clash)    DE(int)     intcor
     12.46     -15.82       1.00        0.00      90.19       1.39       1.45       1.91       ----

> <Gold.Chemscore.Fitness>
12.4628

> <Gold.Chemscore.DG>
-15.8240

> <Gold.Chemscore.ZeroCoef>
-5.4800

> <Gold.Chemscore.Hbond>
0.9997

> <Gold.Chemscore.Metal>
0.0000

> <Gold.Chemscore.Lipo>
90.1896

> <Gold.Chemscore.Internal_Hbond>
0.0000

> <Gold.Chemscore.DEClash>
1.4535

> <Gold.Chemscore.DEInternal>
1.9077

> <Gold.Chemscore.Rot>
1.3856

> <Gold.Chemscore.Internal.Correction>
   9.000000E+99

> <Gold.Chemscore.Hbonds>
donor molecule, donor type, donor heavy atom, donor atom, acceptor molecule, acceptor atom, score
      P1  H  7997  8009       L1    11  0.96

> <Gold.Chemscore.Hbond.Weighted>
-3.3389

> <Gold.Chemscore.Metal.Weighted>
-0.0000

> <Gold.Chemscore.Lipo.Weighted>
-10.5522

> <Gold.Chemscore.Internal_Hbond.Weighted>
0.0000

> <Gold.Chemscore.DEClash.Weighted>
1.4535

> <Gold.Chemscore.DEInternal.Weighted>
1.9077

> <Gold.Chemscore.Rot.Weighted>
3.5471

> <Gold.Chemscore.Internal.Correction.Weighted>
   9.000000E+99

> <Gold.Protein.RotatedTorsions>
[ 6907 6896 6895 6894 ] final  157.00 input  -60.11 | X-H torsion
[ 7974 7965 7964 7962 ] final   51.89 input  175.53 | X-H torsion
[ 8008 7997 7996 7995 ] final -169.26 input   59.86 | X-H torsion
[ 10167 10162 10161 10158 ] final  104.55 input  -65.29 | X-H torsion
[ 10718 10713 10712 10709 ] final  138.48 input   66.30 | X-H torsion
[ 10763 10752 10751 10750 ] final  148.35 input  -60.55 | X-H torsion
[ 11005 11000 10999 10996 ] final   79.42 input  -57.11 | X-H torsion

> <Gold.Protein.ActiveResidues>
 VAL166  LYS551  ARG553  GLY616  TRP617  ASP618  TYR619  PRO620  LYS621  CYS622 
 ASP623  PHE694  ASN695  SER759  ASP760  ASP761  ALA762  ILE779  LEU786  VAL792 
 PHE793  MET794  SER795  GLU796  ALA797  LYS798  CYS799  TRP800  GLU811  SER814 

> <Gold.Protein.RotatedAtoms>
  152.0214  133.3900  159.4259 H   0  0  0  0  0  0  0  0  0  0  0  0  # atno 6907 bound_to 6896
  150.6890  134.3621  159.4964 H   0  0  0  0  0  0  0  0  0  0  0  0  # atno 6908 bound_to 6896
  152.1396  134.9072  160.0605 H   0  0  0  0  0  0  0  0  0  0  0  0  # atno 6909 bound_to 6896
  145.9868  139.4298  143.0098 H   0  0  0  0  0  0  0  0  0  0  0  0  # atno 7974 bound_to 7965
  155.9026  140.1043  157.1339 H   0  0  0  0  0  0  0  0  0  0  0  0  # atno 8008 bound_to 7997
  154.4028  140.1290  156.4519 H   0  0  0  0  0  0  0  0  0  0  0  0  # atno 8009 bound_to 7997
  155.7405  140.3467  155.5104 H   0  0  0  0  0  0  0  0  0  0  0  0  # atno 8010 bound_to 7997
  139.7168  144.7066  151.0937 H   0  0  0  0  0  0  0  0  0  0  0  0  # atno 10167 bound_to 10162
  157.4248  131.1042  151.0314 H   0  0  0  0  0  0  0  0  0  0  0  0  # atno 10718 bound_to 10713
  154.0533  135.2880  155.3337 H   0  0  0  0  0  0  0  0  0  0  0  0  # atno 10763 bound_to 10752
  154.6855  135.5247  153.8324 H   0  0  0  0  0  0  0  0  0  0  0  0  # atno 10764 bound_to 10752
  153.0552  135.6592  154.0727 H   0  0  0  0  0  0  0  0  0  0  0  0  # atno 10765 bound_to 10752
  139.9173  134.7841  156.1776 H   0  0  0  0  0  0  0  0  0  0  0  0  # atno 11005 bound_to 11000
  145.7689  140.9905  143.1160 LP  0  0  0  0  0  0  0  0  0  0  0  0  # atno 17320 bound_to 7965
  144.6877  139.9422  143.7475 LP  0  0  0  0  0  0  0  0  0  0  0  0  # atno 17321 bound_to 7965
  140.7745  143.5219  150.9526 LP  0  0  0  0  0  0  0  0  0  0  0  0  # atno 17342 bound_to 10162
  139.8905  143.6958  152.3146 LP  0  0  0  0  0  0  0  0  0  0  0  0  # atno 17343 bound_to 10162
  157.1231  130.6070  149.5510 LP  0  0  0  0  0  0  0  0  0  0  0  0  # atno 17370 bound_to 10713
  155.9893  130.4939  150.7207 LP  0  0  0  0  0  0  0  0  0  0  0  0  # atno 17371 bound_to 10713
  141.0662  133.6818  156.2049 LP  0  0  0  0  0  0  0  0  0  0  0  0  # atno 17394 bound_to 11000
  140.6581  134.4996  157.5582 LP  0  0  0  0  0  0  0  0  0  0  0  0  # atno 17395 bound_to 11000

$$$$
