AV-unprocessed.smi:1803|AV-procd|sdf|7284|dock3
  -GOLD-   22720 8543D 1   1.00000     0.00000
 Structure written by MMmdl.
 36 38  0  0  0  0  0  0  0  0  2 V2000
  142.9928  136.2162  153.6701 O   0  0  0  0  0  0  0  0  0  0  0  0
  143.0898  137.3232  153.1438 C   0  0  0  0  0  0  0  0  0  0  0  0
  142.0179  138.1372  153.0327 N   0  0  0  0  0  0  0  0  0  0  0  0
  140.6595  137.9774  153.4359 C   0  0  0  0  0  0  0  0  0  0  0  0
  140.0873  136.7999  153.7377 N   0  0  0  0  0  0  0  0  0  0  0  0
  138.7509  136.9409  154.0859 N   0  0  0  0  0  0  0  0  0  0  0  0
  138.3622  138.2175  154.0277 C   0  0  0  0  0  0  0  0  0  0  0  0
  139.5924  139.3710  153.5422 S   0  0  0  0  0  0  0  0  0  0  0  0
  144.2481  137.7900  152.6492 N   0  0  0  0  0  0  0  0  0  0  0  0
  145.5275  137.0888  152.6712 C   0  0  1  0  0  0  0  0  0  0  0  0
  146.1813  137.0844  154.0647 C   0  0  0  0  0  0  0  0  0  0  0  0
  146.8246  135.6912  154.2110 C   0  0  0  0  0  0  0  0  0  0  0  0
  146.6172  135.0266  152.9104 N   0  3  1  0  0  0  0  0  0  0  0  0
  146.6232  133.5473  152.9008 C   0  0  0  0  0  0  0  0  0  0  0  0
  146.4779  133.0482  151.4494 C   0  0  0  0  0  0  0  0  0  0  0  0
  145.2469  133.6639  150.7533 C   0  0  0  0  0  0  0  0  0  0  0  0
  145.2463  135.1999  150.8788 C   0  0  0  0  0  0  0  0  0  0  0  0
  145.3791  135.5975  152.3587 C   0  0  2  0  0  0  0  0  0  0  0  0
  142.2056  139.0056  152.5528 H   0  0  0  0  0  0  0  0  0  0  0  0
  137.3435  138.4814  154.2710 H   0  0  0  0  0  0  0  0  0  0  0  0
  144.2395  138.7092  152.2296 H   0  0  0  0  0  0  0  0  0  0  0  0
  146.2270  137.5422  151.9655 H   0  0  0  0  0  0  0  0  0  0  0  0
  146.9180  137.8835  154.1538 H   0  0  0  0  0  0  0  0  0  0  0  0
  145.4422  137.2322  154.8537 H   0  0  0  0  0  0  0  0  0  0  0  0
  147.8864  135.7457  154.4528 H   0  0  0  0  0  0  0  0  0  0  0  0
  146.3248  135.1302  155.0023 H   0  0  0  0  0  0  0  0  0  0  0  0
  147.5550  133.1817  153.3336 H   0  0  0  0  0  0  0  0  0  0  0  0
  145.8084  133.1680  153.5196 H   0  0  0  0  0  0  0  0  0  0  0  0
  147.3756  133.3104  150.8877 H   0  0  0  0  0  0  0  0  0  0  0  0
  146.4123  131.9600  151.4326 H   0  0  0  0  0  0  0  0  0  0  0  0
  145.2246  133.3727  149.7028 H   0  0  0  0  0  0  0  0  0  0  0  0
  144.3379  133.2634  151.2042 H   0  0  0  0  0  0  0  0  0  0  0  0
  146.0698  135.6211  150.3004 H   0  0  0  0  0  0  0  0  0  0  0  0
  144.3265  135.6053  150.4567 H   0  0  0  0  0  0  0  0  0  0  0  0
  144.5315  135.1965  152.9200 H   0  0  0  0  0  0  0  0  0  0  0  0
  147.3663  135.3349  152.3074 H   0  0  0  0  0  0  0  0  0  0  0  0
  1  2  2  0  0  0  0
  2  3  1  0  0  0  0
  2  9  1  0  0  0  0
  3  4  1  0  0  0  0
  3 19  1  0  0  0  0
  4  8  1  0  0  0  0
  4  5  2  0  0  0  0
  5  6  1  0  0  0  0
  6  7  2  0  0  0  0
  7  8  1  0  0  0  0
  7 20  1  0  0  0  0
  9 10  1  0  0  0  0
  9 21  1  0  0  0  0
 10 18  1  0  0  0  0
 10 11  1  0  0  0  0
 10 22  1  0  0  0  0
 11 12  1  0  0  0  0
 11 23  1  0  0  0  0
 11 24  1  0  0  0  0
 12 13  1  0  0  0  0
 12 25  1  0  0  0  0
 12 26  1  0  0  0  0
 13 18  1  0  0  0  0
 13 14  1  0  0  0  0
 13 36  1  0  0  0  0
 14 15  1  0  0  0  0
 14 27  1  0  0  0  0
 14 28  1  0  0  0  0
 15 16  1  0  0  0  0
 15 29  1  0  0  0  0
 15 30  1  0  0  0  0
 16 17  1  0  0  0  0
 16 31  1  0  0  0  0
 16 32  1  0  0  0  0
 17 18  1  0  0  0  0
 17 33  1  0  0  0  0
 17 34  1  0  0  0  0
 18 35  1  0  0  0  0
M  CHG  1  13   1
M  END
> <s_m_source_file>
AV-unprocessed.smi

> <i_m_source_file_index>
1803

> <i_lp_mmshare_version>
43012

> <i_f3d_flags>
0

> <s_epik_input>
czFbY0hdbm5jMVtOSF1DKD1PKVtOSF1bQ0BIXShbQ0gyXVtDSDJdMilbQ0BASF0oTjIzKVtDSDJdW0NIMl1bQ0gyXVtDSDJdMw==

> <s_epik_cmdline>
J2VwaWtfcHl0aG9uJywgJy1waCcsICc3LjAnLCAnLXRuJywgJzgnLCAnLW1hJywgJzIwMCcsICctbWV0YWxfYmluZGluZycsICctaW1hZScsICc8aW5maWxlLm1hZT4nLCAnLW9tYWUnLCAnPG91dGZpbGUubWFlPic=

> <r_lp_tautomer_probability>
1

> <r_epik_Ionization_Penalty>
0.00213286

> <r_epik_Ionization_Penalty_Charging>
0.00107044

> <r_epik_Ionization_Penalty_Neutral>
0.00106242

> <r_epik_State_Penalty>
-0

> <r_epik_Charging_Adjusted_Penalty>
0.00107044

> <i_epik_Tot_Q>
1

> <i_epik_Tot_abs_Q>
1

> <r_epik_Metal_State_Penalty>
0.292783

> <b_epik_Metal_Only>
0

> <s_lp_Force_Field>
OPLS_2005

> <r_lp_Energy>
35.8309

> <b_lp_Chiralities_Consistent>
1

> <s_lp_Variant>
AV-unprocessed.smi:1803-6

> <Gold.Version>
5.8.1

> <Gold.Id.Protein>
6NUR|6NUR_protein|mol2

> <Gold.PLP.Fitness>
38.2961

> <Gold.PLP.PLP>
-27.3953

> <Gold.PLP.part.hbond>
-4.0000

> <Gold.PLP.part.metal>
0.0000

> <Gold.PLP.part.buried>
-2.8364

> <Gold.PLP.part.nonpolar>
-20.1742

> <Gold.PLP.part.repulsive>
0.3966

> <Gold.PLP.ligand.clash>
0.0000

> <Gold.PLP.ligand.torsion>
0.2904

> <Gold.PLP.Chemscore.Hbond>
3.8240

> <Gold.PLP.Chemscore.CHOScore>
0.0000

> <Gold.PLP.Chemscore.Metal>
0.0000

> <Gold.Chemscore.Hbonds>
donor molecule, donor type, donor heavy atom, donor atom, acceptor molecule, acceptor atom, score
      L1  H     3    19       P1 10175  0.82
      L1  H     9    21       P1 10175  0.88
      L1  H    13    36       P1  7948  2.00

> <Gold.PLP.Chemscore.Internal.Correction>
0.0095

> <Gold.Rescore>
     Score         DG    S(hbond)    S(metal)    S(lipo)     H(rot)  DE(clash)    DE(int)     intcor
     15.40     -18.19       2.91        0.00      47.32       1.00       0.12       2.67       ----

> <Gold.Chemscore.Fitness>
15.3987

> <Gold.Chemscore.DG>
-18.1858

> <Gold.Chemscore.ZeroCoef>
-5.4800

> <Gold.Chemscore.Hbond>
2.9131

> <Gold.Chemscore.Metal>
0.0000

> <Gold.Chemscore.Lipo>
47.3157

> <Gold.Chemscore.Internal_Hbond>
0.0000

> <Gold.Chemscore.DEClash>
0.1151

> <Gold.Chemscore.DEInternal>
2.6720

> <Gold.Chemscore.Rot>
1.0000

> <Gold.Chemscore.Internal.Correction>
   9.000000E+99

> <Gold.Chemscore.Hbonds>
donor molecule, donor type, donor heavy atom, donor atom, acceptor molecule, acceptor atom, score
      L1  H     3    19       P1 10175  0.71
      L1  H     9    21       P1 10175  0.87
      L1  H    13    36       P1  7948  0.99

> <Gold.Chemscore.Hbond.Weighted>
-9.7299

> <Gold.Chemscore.Metal.Weighted>
-0.0000

> <Gold.Chemscore.Lipo.Weighted>
-5.5359

> <Gold.Chemscore.Internal_Hbond.Weighted>
0.0000

> <Gold.Chemscore.DEClash.Weighted>
0.1151

> <Gold.Chemscore.DEInternal.Weighted>
2.6720

> <Gold.Chemscore.Rot.Weighted>
2.5600

> <Gold.Chemscore.Internal.Correction.Weighted>
   9.000000E+99

> <Gold.Protein.RotatedTorsions>
[ 6907 6896 6895 6894 ] final  -15.30 input  -60.11 | X-H torsion
[ 7974 7965 7964 7962 ] final -149.61 input  175.53 | X-H torsion
[ 8008 7997 7996 7995 ] final -121.63 input   59.86 | X-H torsion
[ 10167 10162 10161 10158 ] final -112.58 input  -65.29 | X-H torsion
[ 10718 10713 10712 10709 ] final  118.57 input   66.30 | X-H torsion
[ 10763 10752 10751 10750 ] final   76.06 input  -60.55 | X-H torsion
[ 11005 11000 10999 10996 ] final   70.08 input  -57.11 | X-H torsion

> <Gold.Protein.ActiveResidues>
 VAL166  LYS551  ARG553  GLY616  TRP617  ASP618  TYR619  PRO620  LYS621  CYS622 
 ASP623  PHE694  ASN695  SER759  ASP760  ASP761  ALA762  ILE779  LEU786  VAL792 
 PHE793  MET794  SER795  GLU796  ALA797  LYS798  CYS799  TRP800  GLU811  SER814 

> <Gold.Protein.RotatedAtoms>
  151.3260  135.0830  159.9322 H   0  0  0  0  0  0  0  0  0  0  0  0  # atno 6907 bound_to 6896
  152.5245  133.9590  159.7718 H   0  0  0  0  0  0  0  0  0  0  0  0  # atno 6908 bound_to 6896
  150.9920  133.6087  159.2737 H   0  0  0  0  0  0  0  0  0  0  0  0  # atno 6909 bound_to 6896
  144.7957  140.5042  143.5742 H   0  0  0  0  0  0  0  0  0  0  0  0  # atno 7974 bound_to 7965
  155.1512  140.0404  157.2821 H   0  0  0  0  0  0  0  0  0  0  0  0  # atno 8008 bound_to 7997
  154.6403  140.2545  155.7303 H   0  0  0  0  0  0  0  0  0  0  0  0  # atno 8009 bound_to 7997
  156.2529  140.2857  156.0794 H   0  0  0  0  0  0  0  0  0  0  0  0  # atno 8010 bound_to 7997
  140.1211  143.4442  152.1690 H   0  0  0  0  0  0  0  0  0  0  0  0  # atno 10167 bound_to 10162
  157.6021  131.1049  150.7774 H   0  0  0  0  0  0  0  0  0  0  0  0  # atno 10718 bound_to 10713
  153.0699  135.4965  154.8281 H   0  0  0  0  0  0  0  0  0  0  0  0  # atno 10763 bound_to 10752
  154.7007  135.3001  154.9348 H   0  0  0  0  0  0  0  0  0  0  0  0  # atno 10764 bound_to 10752
  154.0073  135.6759  153.4816 H   0  0  0  0  0  0  0  0  0  0  0  0  # atno 10765 bound_to 10752
  139.9618  134.7048  156.0630 H   0  0  0  0  0  0  0  0  0  0  0  0  # atno 11005 bound_to 11000
  145.5679  139.1482  143.3304 LP  0  0  0  0  0  0  0  0  0  0  0  0  # atno 17320 bound_to 7965
  146.2224  140.5813  142.9011 LP  0  0  0  0  0  0  0  0  0  0  0  0  # atno 17321 bound_to 7965
  139.5568  144.7378  151.4271 LP  0  0  0  0  0  0  0  0  0  0  0  0  # atno 17342 bound_to 10162
  140.6871  143.7948  150.7202 LP  0  0  0  0  0  0  0  0  0  0  0  0  # atno 17343 bound_to 10162
  156.8171  130.4971  149.5348 LP  0  0  0  0  0  0  0  0  0  0  0  0  # atno 17370 bound_to 10713
  156.1097  130.6031  151.0028 LP  0  0  0  0  0  0  0  0  0  0  0  0  # atno 17371 bound_to 10713
  141.1295  133.6590  156.3427 LP  0  0  0  0  0  0  0  0  0  0  0  0  # atno 17394 bound_to 11000
  140.5484  134.6052  157.5400 LP  0  0  0  0  0  0  0  0  0  0  0  0  # atno 17395 bound_to 11000

$$$$
