AV-unprocessed.smi:2158|AV-procd|sdf|8790|dock8
  -GOLD-   2272011573D 1   1.00000     0.00000
 Structure written by MMmdl.
 30 30  0  0  0  0  0  0  0  0  2 V2000
  151.8639  144.4976  160.9024 C   0  0  0  0  0  0  0  0  0  0  0  0
  150.9443  144.4818  159.6726 C   0  0  0  0  0  0  0  0  0  0  0  0
  151.7039  144.4330  158.3339 C   0  0  1  0  0  0  0  0  0  0  0  0
  153.0987  143.8086  158.4957 C   0  0  0  0  0  0  0  0  0  0  0  0
  150.9317  143.6832  157.3465 N   0  0  0  0  0  0  0  0  0  0  0  0
  150.6163  142.3818  157.4272 C   0  0  0  0  0  0  0  0  0  0  0  0
  150.9272  141.6679  158.3816 O   0  0  0  0  0  0  0  0  0  0  0  0
  149.7966  141.8154  156.2603 C   0  0  0  0  0  0  0  0  0  0  0  0
  150.3965  140.6061  155.6753 N   0  0  0  0  0  0  0  0  0  0  0  0
  151.7335  140.3159  156.0001 C   0  0  0  0  0  0  0  0  0  0  0  0
  152.3650  139.2331  155.5082 C   0  0  0  0  0  0  0  0  0  0  0  0
  151.6258  138.3493  154.6153 C   0  0  0  0  0  0  0  0  0  0  0  0
  152.1857  137.3541  154.1597 O   0  0  0  0  0  0  0  0  0  0  0  0
  150.3318  138.6758  154.3269 N   0  5  0  0  0  0  0  0  0  0  0  0
  149.7032  139.7823  154.8327 C   0  0  0  0  0  0  0  0  0  0  0  0
  148.5355  140.0607  154.5570 O   0  0  0  0  0  0  0  0  0  0  0  0
  151.2793  144.4844  161.8223 H   0  0  0  0  0  0  0  0  0  0  0  0
  152.4919  145.3887  160.9244 H   0  0  0  0  0  0  0  0  0  0  0  0
  152.5193  143.6263  160.9132 H   0  0  0  0  0  0  0  0  0  0  0  0
  150.2866  143.6148  159.7430 H   0  0  0  0  0  0  0  0  0  0  0  0
  150.2944  145.3576  159.6974 H   0  0  0  0  0  0  0  0  0  0  0  0
  151.8293  145.4602  157.9855 H   0  0  0  0  0  0  0  0  0  0  0  0
  153.6965  144.3674  159.2159 H   0  0  0  0  0  0  0  0  0  0  0  0
  153.6435  143.8080  157.5509 H   0  0  0  0  0  0  0  0  0  0  0  0
  153.0347  142.7773  158.8445 H   0  0  0  0  0  0  0  0  0  0  0  0
  150.6310  144.1891  156.5263 H   0  0  0  0  0  0  0  0  0  0  0  0
  148.7908  141.6035  156.6253 H   0  0  0  0  0  0  0  0  0  0  0  0
  149.6667  142.5790  155.4909 H   0  0  0  0  0  0  0  0  0  0  0  0
  152.2107  141.0244  156.6612 H   0  0  0  0  0  0  0  0  0  0  0  0
  153.3933  139.0259  155.7651 H   0  0  0  0  0  0  0  0  0  0  0  0
  1  2  1  0  0  0  0
  1 17  1  0  0  0  0
  1 18  1  0  0  0  0
  1 19  1  0  0  0  0
  2  3  1  0  0  0  0
  2 20  1  0  0  0  0
  2 21  1  0  0  0  0
  3  4  1  0  0  0  0
  3  5  1  0  0  0  0
  3 22  1  0  0  0  0
  4 23  1  0  0  0  0
  4 24  1  0  0  0  0
  4 25  1  0  0  0  0
  5  6  1  0  0  0  0
  5 26  1  0  0  0  0
  6  7  2  0  0  0  0
  6  8  1  0  0  0  0
  8  9  1  0  0  0  0
  8 27  1  0  0  0  0
  8 28  1  0  0  0  0
  9 15  1  0  0  0  0
  9 10  1  0  0  0  0
 10 11  2  0  0  0  0
 10 29  1  0  0  0  0
 11 12  1  0  0  0  0
 11 30  1  0  0  0  0
 12 13  2  0  0  0  0
 12 14  1  0  0  0  0
 14 15  1  0  0  0  0
 15 16  2  0  0  0  0
M  CHG  1  14  -1
M  END
> <s_m_source_file>
AV-unprocessed.smi

> <i_m_source_file_index>
2158

> <i_lp_mmshare_version>
43012

> <i_f3d_flags>
0

> <s_epik_input>
W0NIM11bQ0gyXVtDQEhdKFtDSDNdKVtOSF1DKD1PKVtDSDJdbjFbY0hdW2NIXWMoPU8pW25IXWMxPU8=

> <s_epik_cmdline>
J2VwaWtfcHl0aG9uJywgJy1waCcsICc3LjAnLCAnLXRuJywgJzgnLCAnLW1hJywgJzIwMCcsICctbWV0YWxfYmluZGluZycsICctaW1hZScsICc8aW5maWxlLm1hZT4nLCAnLW9tYWUnLCAnPG91dGZpbGUubWFlPic=

> <r_lp_tautomer_probability>
0.999537

> <r_epik_Ionization_Penalty>
3.08395

> <r_epik_Ionization_Penalty_Charging>
2.76809e-08

> <r_epik_Ionization_Penalty_Neutral>
3.08395

> <r_epik_State_Penalty>
3.08299

> <r_epik_Charging_Adjusted_Penalty>
3.08299

> <i_epik_Tot_Q>
-1

> <i_epik_Tot_abs_Q>
1

> <r_epik_Metal_State_Penalty>
0.460296

> <b_epik_Metal_Only>
1

> <s_lp_Force_Field>
OPLS_2005

> <r_lp_Energy>
11.8207

> <b_lp_Chiralities_Consistent>
1

> <s_lp_Variant>
AV-unprocessed.smi:2158-4

> <Gold.Version>
5.8.1

> <Gold.Id.Protein>
6NUR|6NUR_protein|mol2

> <Gold.PLP.Fitness>
38.9669

> <Gold.PLP.PLP>
-35.2502

> <Gold.PLP.part.hbond>
-2.0000

> <Gold.PLP.part.metal>
0.0000

> <Gold.PLP.part.buried>
-5.8635

> <Gold.PLP.part.nonpolar>
-29.4573

> <Gold.PLP.part.repulsive>
0.5363

> <Gold.PLP.ligand.clash>
0.0635

> <Gold.PLP.ligand.torsion>
0.6847

> <Gold.PLP.Chemscore.Hbond>
1.7120

> <Gold.PLP.Chemscore.CHOScore>
0.0000

> <Gold.PLP.Chemscore.Metal>
0.0000

> <Gold.Chemscore.Hbonds>
donor molecule, donor type, donor heavy atom, donor atom, acceptor molecule, acceptor atom, score
      L1  H     5    26       P1  8028  0.77
      P1  H 10752 10765       L1    13  0.88

> <Gold.PLP.Chemscore.Internal.Correction>
0.0136

> <Gold.Rescore>
     Score         DG    S(hbond)    S(metal)    S(lipo)     H(rot)  DE(clash)    DE(int)     intcor
     11.82     -14.61       1.80        0.00      69.12       1.94       0.07       2.72       ----

> <Gold.Chemscore.Fitness>
11.8163

> <Gold.Chemscore.DG>
-14.6128

> <Gold.Chemscore.ZeroCoef>
-5.4800

> <Gold.Chemscore.Hbond>
1.8037

> <Gold.Chemscore.Metal>
0.0000

> <Gold.Chemscore.Lipo>
69.1244

> <Gold.Chemscore.Internal_Hbond>
0.0000

> <Gold.Chemscore.DEClash>
0.0726

> <Gold.Chemscore.DEInternal>
2.7239

> <Gold.Chemscore.Rot>
1.9449

> <Gold.Chemscore.Internal.Correction>
   9.000000E+99

> <Gold.Chemscore.Hbonds>
donor molecule, donor type, donor heavy atom, donor atom, acceptor molecule, acceptor atom, score
      L1  H     5    26       P1  8028  0.73
      P1  H 10752 10765       L1    13  0.87

> <Gold.Chemscore.Hbond.Weighted>
-6.0243

> <Gold.Chemscore.Metal.Weighted>
-0.0000

> <Gold.Chemscore.Lipo.Weighted>
-8.0876

> <Gold.Chemscore.Internal_Hbond.Weighted>
0.0000

> <Gold.Chemscore.DEClash.Weighted>
0.0726

> <Gold.Chemscore.DEInternal.Weighted>
2.7239

> <Gold.Chemscore.Rot.Weighted>
4.9791

> <Gold.Chemscore.Internal.Correction.Weighted>
   9.000000E+99

> <Gold.Protein.RotatedTorsions>
[ 6907 6896 6895 6894 ] final   27.16 input  -60.11 | X-H torsion
[ 7974 7965 7964 7962 ] final  -41.57 input  175.53 | X-H torsion
[ 8008 7997 7996 7995 ] final   51.14 input   59.86 | X-H torsion
[ 10167 10162 10161 10158 ] final -127.10 input  -65.29 | X-H torsion
[ 10718 10713 10712 10709 ] final -160.48 input   66.30 | X-H torsion
[ 10763 10752 10751 10750 ] final  153.37 input  -60.55 | X-H torsion
[ 11005 11000 10999 10996 ] final  -23.69 input  -57.11 | X-H torsion

> <Gold.Protein.ActiveResidues>
 VAL166  LYS551  ARG553  GLY616  TRP617  ASP618  TYR619  PRO620  LYS621  CYS622 
 ASP623  PHE694  ASN695  SER759  ASP760  ASP761  ALA762  ILE779  LEU786  VAL792 
 PHE793  MET794  SER795  GLU796  ALA797  LYS798  CYS799  TRP800  GLU811  SER814 

> <Gold.Protein.RotatedAtoms>
  151.9982  134.9943  160.0563 H   0  0  0  0  0  0  0  0  0  0  0  0  # atno 6907 bound_to 6896
  152.1544  133.4537  159.4838 H   0  0  0  0  0  0  0  0  0  0  0  0  # atno 6908 bound_to 6896
  150.6879  134.2067  159.4386 H   0  0  0  0  0  0  0  0  0  0  0  0  # atno 6909 bound_to 6896
  146.0198  140.6863  142.9184 H   0  0  0  0  0  0  0  0  0  0  0  0  # atno 7974 bound_to 7965
  155.4304  140.3450  155.4279 H   0  0  0  0  0  0  0  0  0  0  0  0  # atno 8008 bound_to 7997
  156.1340  140.1522  156.9053 H   0  0  0  0  0  0  0  0  0  0  0  0  # atno 8009 bound_to 7997
  154.4917  140.0839  156.7589 H   0  0  0  0  0  0  0  0  0  0  0  0  # atno 8010 bound_to 7997
  139.9644  143.5914  152.2434 H   0  0  0  0  0  0  0  0  0  0  0  0  # atno 10167 bound_to 10162
  156.5827  130.8736  151.2869 H   0  0  0  0  0  0  0  0  0  0  0  0  # atno 10718 bound_to 10713
  154.1351  135.2824  155.3175 H   0  0  0  0  0  0  0  0  0  0  0  0  # atno 10763 bound_to 10752
  154.6327  135.5429  153.7703 H   0  0  0  0  0  0  0  0  0  0  0  0  # atno 10764 bound_to 10752
  153.0268  135.6467  154.1500 H   0  0  0  0  0  0  0  0  0  0  0  0  # atno 10765 bound_to 10752
  140.8775  133.7677  156.0262 H   0  0  0  0  0  0  0  0  0  0  0  0  # atno 11005 bound_to 11000
  144.6985  140.3546  143.7175 LP  0  0  0  0  0  0  0  0  0  0  0  0  # atno 17320 bound_to 7965
  145.7210  139.1710  143.2484 LP  0  0  0  0  0  0  0  0  0  0  0  0  # atno 17321 bound_to 7965
  139.6529  144.7661  151.2112 LP  0  0  0  0  0  0  0  0  0  0  0  0  # atno 17342 bound_to 10162
  140.7543  143.6132  150.8585 LP  0  0  0  0  0  0  0  0  0  0  0  0  # atno 17343 bound_to 10162
  157.7323  130.9712  150.1920 LP  0  0  0  0  0  0  0  0  0  0  0  0  # atno 17370 bound_to 10713
  156.2618  130.3711  149.8123 LP  0  0  0  0  0  0  0  0  0  0  0  0  # atno 17371 bound_to 10713
  140.8500  134.2965  157.5279 LP  0  0  0  0  0  0  0  0  0  0  0  0  # atno 17394 bound_to 11000
  139.8717  134.9463  156.3933 LP  0  0  0  0  0  0  0  0  0  0  0  0  # atno 17395 bound_to 11000

$$$$
