AV-unprocessed.smi:437|AV-procd|sdf|2560|dock6
  -GOLD-   2262022533D 1   1.00000     0.00000
 Structure written by MMmdl.
 48 49  0  0  0  0  0  0  0  0  1 V2000
  148.7568  141.8331  154.8536 C   0  0  0  0  0  0  0  0  0  0  0  0
  149.7743  140.9788  155.5608 C   0  0  0  0  0  0  0  0  0  0  0  0
  150.0698  139.8489  155.0072 N   0  0  0  0  0  0  0  0  0  0  0  0
  150.9894  138.9883  155.5747 N   0  0  0  0  0  0  0  0  0  0  0  0
  151.1893  137.7426  154.8186 C   0  0  0  0  0  0  0  0  0  0  0  0
  150.3776  136.5585  155.3678 C   0  0  0  0  0  0  0  0  0  0  0  0
  150.7634  135.9496  156.3693 O   0  0  0  0  0  0  0  0  0  0  0  0
  149.2522  136.2770  154.6802 N   0  0  0  0  0  0  0  0  0  0  0  0
  148.3577  135.3022  154.9330 C   0  0  0  0  0  0  0  0  0  0  0  0
  148.2901  134.6383  155.9698 O   0  0  0  0  0  0  0  0  0  0  0  0
  147.5226  135.1368  153.8969 N   0  0  0  0  0  0  0  0  0  0  0  0
  146.2122  134.4868  153.9554 C   0  0  1  0  0  0  0  0  0  0  0  0
  145.1057  135.4180  153.4123 C   0  0  0  0  0  0  0  0  0  0  0  0
  145.2145  135.6227  151.8920 C   0  0  0  0  0  0  0  0  0  0  0  0
  145.2144  134.2781  151.1500 C   0  0  0  0  0  0  0  0  0  0  0  0
  146.3256  133.3520  151.6696 C   0  0  0  0  0  0  0  0  0  0  0  0
  146.2221  133.1376  153.1944 C   0  0  1  0  0  0  0  0  0  0  0  0
  147.3056  132.1718  153.7046 C   0  0  0  0  0  0  0  0  0  0  0  0
  151.6734  139.2339  156.7294 C   0  0  0  0  0  0  0  0  0  0  0  0
  152.4963  138.4425  157.1924 O   0  0  0  0  0  0  0  0  0  0  0  0
  151.3299  140.5134  157.3538 C   0  0  0  0  0  0  0  0  0  0  0  0
  152.0134  140.8037  158.5727 C   0  0  0  0  0  0  0  0  0  0  0  0
  152.5508  141.0482  159.5685 N   0  0  0  0  0  0  0  0  0  0  0  0
  150.4226  141.3630  156.8104 C   0  0  0  0  0  0  0  0  0  0  0  0
  150.0313  142.7034  157.4170 C   0  0  0  0  0  0  0  0  0  0  0  0
  149.1868  142.7951  154.5744 H   0  0  0  0  0  0  0  0  0  0  0  0
  147.8951  142.0200  155.4948 H   0  0  0  0  0  0  0  0  0  0  0  0
  148.3912  141.3598  153.9409 H   0  0  0  0  0  0  0  0  0  0  0  0
  150.9076  137.8899  153.7742 H   0  0  0  0  0  0  0  0  0  0  0  0
  152.2483  137.4782  154.8006 H   0  0  0  0  0  0  0  0  0  0  0  0
  149.0564  136.8686  153.8864 H   0  0  0  0  0  0  0  0  0  0  0  0
  147.8091  135.4885  152.9951 H   0  0  0  0  0  0  0  0  0  0  0  0
  145.9912  134.2730  155.0029 H   0  0  0  0  0  0  0  0  0  0  0  0
  144.1320  134.9836  153.6421 H   0  0  0  0  0  0  0  0  0  0  0  0
  145.1300  136.3820  153.9216 H   0  0  0  0  0  0  0  0  0  0  0  0
  144.3867  136.2394  151.5411 H   0  0  0  0  0  0  0  0  0  0  0  0
  146.1271  136.1718  151.6573 H   0  0  0  0  0  0  0  0  0  0  0  0
  144.2460  133.7924  151.2760 H   0  0  0  0  0  0  0  0  0  0  0  0
  145.3393  134.4445  150.0796 H   0  0  0  0  0  0  0  0  0  0  0  0
  146.2661  132.3925  151.1550 H   0  0  0  0  0  0  0  0  0  0  0  0
  147.2991  133.7743  151.4172 H   0  0  0  0  0  0  0  0  0  0  0  0
  145.2611  132.6576  153.3859 H   0  0  0  0  0  0  0  0  0  0  0  0
  148.3097  132.5472  153.5058 H   0  0  0  0  0  0  0  0  0  0  0  0
  147.2179  131.1981  153.2221 H   0  0  0  0  0  0  0  0  0  0  0  0
  147.2151  132.0148  154.7797 H   0  0  0  0  0  0  0  0  0  0  0  0
  150.5724  142.9140  158.3387 H   0  0  0  0  0  0  0  0  0  0  0  0
  148.9664  142.7202  157.6509 H   0  0  0  0  0  0  0  0  0  0  0  0
  150.2435  143.5151  156.7207 H   0  0  0  0  0  0  0  0  0  0  0  0
  1  2  1  0  0  0  0
  1 26  1  0  0  0  0
  1 27  1  0  0  0  0
  1 28  1  0  0  0  0
  2 24  1  0  0  0  0
  2  3  2  0  0  0  0
  3  4  1  0  0  0  0
  4  5  1  0  0  0  0
  4 19  1  0  0  0  0
  5  6  1  0  0  0  0
  5 29  1  0  0  0  0
  5 30  1  0  0  0  0
  6  7  2  0  0  0  0
  6  8  1  0  0  0  0
  8  9  1  0  0  0  0
  8 31  1  0  0  0  0
  9 10  2  0  0  0  0
  9 11  1  0  0  0  0
 11 12  1  0  0  0  0
 11 32  1  0  0  0  0
 12 17  1  0  0  0  0
 12 13  1  0  0  0  0
 12 33  1  0  0  0  0
 13 14  1  0  0  0  0
 13 34  1  0  0  0  0
 13 35  1  0  0  0  0
 14 15  1  0  0  0  0
 14 36  1  0  0  0  0
 14 37  1  0  0  0  0
 15 16  1  0  0  0  0
 15 38  1  0  0  0  0
 15 39  1  0  0  0  0
 16 17  1  0  0  0  0
 16 40  1  0  0  0  0
 16 41  1  0  0  0  0
 17 18  1  0  0  0  0
 17 42  1  0  0  0  0
 18 43  1  0  0  0  0
 18 44  1  0  0  0  0
 18 45  1  0  0  0  0
 19 20  2  0  0  0  0
 19 21  1  0  0  0  0
 21 22  1  0  0  0  0
 21 24  2  0  0  0  0
 22 23  3  0  0  0  0
 24 25  1  0  0  0  0
 25 46  1  0  0  0  0
 25 47  1  0  0  0  0
 25 48  1  0  0  0  0
M  END
> <s_m_source_file>
AV-unprocessed.smi

> <i_m_source_file_index>
437

> <i_lp_mmshare_version>
43012

> <i_f3d_flags>
0

> <s_epik_input>
TiNDYyhjMVtDSDNdKWMoPU8pbihuYzFbQ0gzXSlbQ0gyXUMoPU8pW05IXUMoPU8pW05IXVtDQEBIXTJbQ0gyXVtDSDJdW0NIMl1bQ0gyXVtDQEhdMltDSDNd

> <s_epik_cmdline>
J2VwaWtfcHl0aG9uJywgJy1waCcsICc3LjAnLCAnLXRuJywgJzgnLCAnLW1hJywgJzIwMCcsICctbWV0YWxfYmluZGluZycsICctaW1hZScsICc8aW5maWxlLm1hZT4nLCAnLW9tYWUnLCAnPG91dGZpbGUubWFlPic=

> <r_lp_tautomer_probability>
1

> <r_epik_Ionization_Penalty>
3.27035e-05

> <r_epik_Ionization_Penalty_Charging>
1.6965e-11

> <r_epik_Ionization_Penalty_Neutral>
3.27035e-05

> <r_epik_State_Penalty>
-0

> <r_epik_Charging_Adjusted_Penalty>
1.6965e-11

> <i_epik_Tot_Q>
0

> <i_epik_Tot_abs_Q>
0

> <r_epik_Metal_State_Penalty>
-0

> <b_epik_Metal_Only>
0

> <s_lp_Force_Field>
OPLS_2005

> <r_lp_Energy>
26.066

> <b_lp_Chiralities_Consistent>
1

> <s_lp_Variant>
AV-unprocessed.smi:437-2

> <Gold.Version>
5.8.1

> <Gold.Id.Protein>
6NUR|6NUR_protein|mol2

> <Gold.PLP.Fitness>
46.7660

> <Gold.PLP.PLP>
-37.2133

> <Gold.PLP.part.hbond>
-4.5322

> <Gold.PLP.part.metal>
0.0000

> <Gold.PLP.part.buried>
-1.4798

> <Gold.PLP.part.nonpolar>
-31.9138

> <Gold.PLP.part.repulsive>
0.1813

> <Gold.PLP.ligand.clash>
0.0000

> <Gold.PLP.ligand.torsion>
0.7474

> <Gold.PLP.Chemscore.Hbond>
3.6738

> <Gold.PLP.Chemscore.CHOScore>
0.0000

> <Gold.PLP.Chemscore.Metal>
0.0000

> <Gold.Chemscore.Hbonds>
donor molecule, donor type, donor heavy atom, donor atom, acceptor molecule, acceptor atom, score
      L1  H     8    31       P1  7948  0.41
      L1  H    11    32       P1  7948  1.00
      P1  H  7989  7998       L1     3  0.04

> <Gold.PLP.Chemscore.Internal.Correction>
0.0262

> <Gold.Rescore>
     Score         DG    S(hbond)    S(metal)    S(lipo)     H(rot)  DE(clash)    DE(int)     intcor
     17.17     -19.50       3.14        0.00      64.51       1.57       0.17       2.15       ----

> <Gold.Chemscore.Fitness>
17.1701

> <Gold.Chemscore.DG>
-19.4987

> <Gold.Chemscore.ZeroCoef>
-5.4800

> <Gold.Chemscore.Hbond>
3.1373

> <Gold.Chemscore.Metal>
0.0000

> <Gold.Chemscore.Lipo>
64.5129

> <Gold.Chemscore.Internal_Hbond>
0.0000

> <Gold.Chemscore.DEClash>
0.1744

> <Gold.Chemscore.DEInternal>
2.1542

> <Gold.Chemscore.Rot>
1.5656

> <Gold.Chemscore.Internal.Correction>
   9.000000E+99

> <Gold.Chemscore.Hbonds>
donor molecule, donor type, donor heavy atom, donor atom, acceptor molecule, acceptor atom, score
      L1  H     8    31       P1  7948  0.39
      L1  H    11    32       P1  7948  0.98

> <Gold.Chemscore.Hbond.Weighted>
-10.4785

> <Gold.Chemscore.Metal.Weighted>
-0.0000

> <Gold.Chemscore.Lipo.Weighted>
-7.5480

> <Gold.Chemscore.Internal_Hbond.Weighted>
0.0000

> <Gold.Chemscore.DEClash.Weighted>
0.1744

> <Gold.Chemscore.DEInternal.Weighted>
2.1542

> <Gold.Chemscore.Rot.Weighted>
4.0079

> <Gold.Chemscore.Internal.Correction.Weighted>
   9.000000E+99

> <Gold.Protein.RotatedTorsions>
[ 6907 6896 6895 6894 ] final  -78.66 input  -60.11 | X-H torsion
[ 7974 7965 7964 7962 ] final   92.04 input  175.53 | X-H torsion
[ 8008 7997 7996 7995 ] final  -73.08 input   59.86 | X-H torsion
[ 10167 10162 10161 10158 ] final  -68.38 input  -65.29 | X-H torsion
[ 10718 10713 10712 10709 ] final  -93.85 input   66.30 | X-H torsion
[ 10763 10752 10751 10750 ] final -140.26 input  -60.55 | X-H torsion
[ 11005 11000 10999 10996 ] final  -14.75 input  -57.11 | X-H torsion

> <Gold.Protein.ActiveResidues>
 VAL166  LYS551  ARG553  GLY616  TRP617  ASP618  TYR619  PRO620  LYS621  CYS622 
 ASP623  PHE694  ASN695  SER759  ASP760  ASP761  ALA762  ILE779  LEU786  VAL792 
 PHE793  MET794  SER795  GLU796  ALA797  LYS798  CYS799  TRP800  GLU811  SER814 

> <Gold.Protein.RotatedAtoms>
  150.6967  134.4239  159.5217 H   0  0  0  0  0  0  0  0  0  0  0  0  # atno 6907 bound_to 6896
  152.1977  134.8613  160.0520 H   0  0  0  0  0  0  0  0  0  0  0  0  # atno 6908 bound_to 6896
  151.9545  133.3641  159.4049 H   0  0  0  0  0  0  0  0  0  0  0  0  # atno 6909 bound_to 6896
  145.4976  139.2276  143.2795 H   0  0  0  0  0  0  0  0  0  0  0  0  # atno 7974 bound_to 7965
  154.5218  140.0785  156.8186 H   0  0  0  0  0  0  0  0  0  0  0  0  # atno 8008 bound_to 7997
  155.3560  140.3415  155.4222 H   0  0  0  0  0  0  0  0  0  0  0  0  # atno 8009 bound_to 7997
  156.1689  140.1613  156.8469 H   0  0  0  0  0  0  0  0  0  0  0  0  # atno 8010 bound_to 7997
  140.5512  143.2312  151.6908 H   0  0  0  0  0  0  0  0  0  0  0  0  # atno 10167 bound_to 10162
  156.0019  130.5043  150.5838 H   0  0  0  0  0  0  0  0  0  0  0  0  # atno 10718 bound_to 10713
  154.8584  135.3558  154.5678 H   0  0  0  0  0  0  0  0  0  0  0  0  # atno 10763 bound_to 10752
  153.6292  135.7003  153.5286 H   0  0  0  0  0  0  0  0  0  0  0  0  # atno 10764 bound_to 10752
  153.3064  135.4191  155.1257 H   0  0  0  0  0  0  0  0  0  0  0  0  # atno 10765 bound_to 10752
  140.7896  133.8298  155.9367 H   0  0  0  0  0  0  0  0  0  0  0  0  # atno 11005 bound_to 11000
  146.2246  140.5775  142.9002 LP  0  0  0  0  0  0  0  0  0  0  0  0  # atno 17320 bound_to 7965
  144.7798  140.5816  143.6613 LP  0  0  0  0  0  0  0  0  0  0  0  0  # atno 17321 bound_to 7965
  139.5028  144.3815  152.0371 LP  0  0  0  0  0  0  0  0  0  0  0  0  # atno 17342 bound_to 10162
  140.2932  144.3730  150.6082 LP  0  0  0  0  0  0  0  0  0  0  0  0  # atno 17343 bound_to 10162
  157.3713  131.0766  151.1555 LP  0  0  0  0  0  0  0  0  0  0  0  0  # atno 17370 bound_to 10713
  157.2307  130.6524  149.5848 LP  0  0  0  0  0  0  0  0  0  0  0  0  # atno 17371 bound_to 10713
  140.9403  134.1910  157.4802 LP  0  0  0  0  0  0  0  0  0  0  0  0  # atno 17394 bound_to 11000
  139.8733  134.9869  156.5344 LP  0  0  0  0  0  0  0  0  0  0  0  0  # atno 17395 bound_to 11000

$$$$
