AV-unprocessed.smi:1645|AV-procd|sdf|6611|dock10
  -GOLD-   22720 7313D 1   1.00000     0.00000
 Structure written by MMmdl.
 56 59  0  0  0  0  0  0  0  0  3 V2000
  146.8677  139.8286  153.7693 O   0  0  0  0  0  0  0  0  0  0  0  0
  147.7566  139.1312  153.2812 C   0  0  0  0  0  0  0  0  0  0  0  0
  149.0486  139.1507  153.6500 N   0  0  0  0  0  0  0  0  0  0  0  0
  149.6627  139.9620  154.6410 C   0  0  0  0  0  0  0  0  0  0  0  0
  150.7558  139.5398  155.4386 C   0  0  0  0  0  0  0  0  0  0  0  0
  151.2862  140.4158  156.4076 C   0  0  0  0  0  0  0  0  0  0  0  0
  150.7137  141.6975  156.5730 C   0  0  0  0  0  0  0  0  0  0  0  0
  151.1767  142.6331  157.5070 N   0  0  0  0  0  0  0  0  0  0  0  0
  152.1656  142.0774  158.4276 C   0  0  0  0  0  0  0  0  0  0  0  0
  152.5021  143.0835  159.5418 C   0  0  0  0  0  0  0  0  0  0  0  0
  152.9460  144.4305  158.9490 C   0  0  0  0  0  0  0  0  0  0  0  0
  151.8860  144.9541  157.9664 C   0  0  0  0  0  0  0  0  0  0  0  0
  151.5640  143.9005  156.8926 C   0  0  0  0  0  0  0  0  0  0  0  0
  149.6633  142.0553  155.8025 N   0  3  0  0  0  0  0  0  0  0  0  0
  149.1239  141.2461  154.8655 C   0  0  0  0  0  0  0  0  0  0  0  0
  147.5356  138.2249  152.3187 N   0  0  0  0  0  0  0  0  0  0  0  0
  146.2304  137.9540  151.7205 C   0  0  1  0  0  0  0  0  0  0  0  0
  146.2321  136.7458  150.7746 C   0  0  0  0  0  0  0  0  0  0  0  0
  144.8184  136.1471  150.8890 C   0  0  0  0  0  0  0  0  0  0  0  0
  144.1003  136.9718  151.8869 N   0  3  1  0  0  0  0  0  0  0  0  0
  142.9795  136.3141  152.6063 C   0  0  0  0  0  0  0  0  0  0  0  0
  143.4613  135.3880  153.7355 C   0  0  0  0  0  0  0  0  0  0  0  0
  144.3990  136.1386  154.6864 C   0  0  0  0  0  0  0  0  0  0  0  0
  145.5862  136.7027  153.8990 C   0  0  0  0  0  0  0  0  0  0  0  0
  145.1244  137.6194  152.7364 C   0  0  1  0  0  0  0  0  0  0  0  0
  149.6459  138.4571  153.2235 H   0  0  0  0  0  0  0  0  0  0  0  0
  151.1894  138.5571  155.3354 H   0  0  0  0  0  0  0  0  0  0  0  0
  152.1209  140.1012  157.0171 H   0  0  0  0  0  0  0  0  0  0  0  0
  151.7832  141.1542  158.8653 H   0  0  0  0  0  0  0  0  0  0  0  0
  153.0723  141.8195  157.8785 H   0  0  0  0  0  0  0  0  0  0  0  0
  151.6263  143.2339  160.1747 H   0  0  0  0  0  0  0  0  0  0  0  0
  153.2844  142.6804  160.1856 H   0  0  0  0  0  0  0  0  0  0  0  0
  153.1143  145.1564  159.7451 H   0  0  0  0  0  0  0  0  0  0  0  0
  153.8979  144.3077  158.4307 H   0  0  0  0  0  0  0  0  0  0  0  0
  150.9764  145.2091  158.5122 H   0  0  0  0  0  0  0  0  0  0  0  0
  152.2328  145.8739  157.4948 H   0  0  0  0  0  0  0  0  0  0  0  0
  152.4356  143.7457  156.2552 H   0  0  0  0  0  0  0  0  0  0  0  0
  150.7584  144.2601  156.2509 H   0  0  0  0  0  0  0  0  0  0  0  0
  148.2856  141.6552  154.3203 H   0  0  0  0  0  0  0  0  0  0  0  0
  148.3182  137.6868  151.9759 H   0  0  0  0  0  0  0  0  0  0  0  0
  145.9185  138.8270  151.1430 H   0  0  0  0  0  0  0  0  0  0  0  0
  146.4746  137.0361  149.7519 H   0  0  0  0  0  0  0  0  0  0  0  0
  146.9695  136.0053  151.0886 H   0  0  0  0  0  0  0  0  0  0  0  0
  144.2874  136.1680  149.9371 H   0  0  0  0  0  0  0  0  0  0  0  0
  144.8803  135.1073  151.2124 H   0  0  0  0  0  0  0  0  0  0  0  0
  142.3501  137.0972  153.0312 H   0  0  0  0  0  0  0  0  0  0  0  0
  142.3560  135.7679  151.8976 H   0  0  0  0  0  0  0  0  0  0  0  0
  142.6040  135.0013  154.2871 H   0  0  0  0  0  0  0  0  0  0  0  0
  143.9739  134.5203  153.3190 H   0  0  0  0  0  0  0  0  0  0  0  0
  143.8607  136.9480  155.1813 H   0  0  0  0  0  0  0  0  0  0  0  0
  144.7525  135.4696  155.4718 H   0  0  0  0  0  0  0  0  0  0  0  0
  146.2395  137.2540  154.5760 H   0  0  0  0  0  0  0  0  0  0  0  0
  146.1786  135.8722  153.5128 H   0  0  0  0  0  0  0  0  0  0  0  0
  144.7043  138.5343  153.1567 H   0  0  0  0  0  0  0  0  0  0  0  0
  143.6873  137.7212  151.3501 H   0  0  0  0  0  0  0  0  0  0  0  0
  149.2575  142.9820  155.9358 H   0  0  0  0  0  0  0  0  0  0  0  0
  1  2  2  0  0  0  0
  2  3  1  0  0  0  0
  2 16  1  0  0  0  0
  3  4  1  0  0  0  0
  3 26  1  0  0  0  0
  4 15  1  0  0  0  0
  4  5  2  0  0  0  0
  5  6  1  0  0  0  0
  5 27  1  0  0  0  0
  6  7  2  0  0  0  0
  6 28  1  0  0  0  0
  7  8  1  0  0  0  0
  7 14  1  0  0  0  0
  8 13  1  0  0  0  0
  8  9  1  0  0  0  0
  9 10  1  0  0  0  0
  9 29  1  0  0  0  0
  9 30  1  0  0  0  0
 10 11  1  0  0  0  0
 10 31  1  0  0  0  0
 10 32  1  0  0  0  0
 11 12  1  0  0  0  0
 11 33  1  0  0  0  0
 11 34  1  0  0  0  0
 12 13  1  0  0  0  0
 12 35  1  0  0  0  0
 12 36  1  0  0  0  0
 13 37  1  0  0  0  0
 13 38  1  0  0  0  0
 14 15  2  0  0  0  0
 14 56  1  0  0  0  0
 15 39  1  0  0  0  0
 16 17  1  0  0  0  0
 16 40  1  0  0  0  0
 17 25  1  0  0  0  0
 17 18  1  0  0  0  0
 17 41  1  0  0  0  0
 18 19  1  0  0  0  0
 18 42  1  0  0  0  0
 18 43  1  0  0  0  0
 19 20  1  0  0  0  0
 19 44  1  0  0  0  0
 19 45  1  0  0  0  0
 20 25  1  0  0  0  0
 20 21  1  0  0  0  0
 20 55  1  0  0  0  0
 21 22  1  0  0  0  0
 21 46  1  0  0  0  0
 21 47  1  0  0  0  0
 22 23  1  0  0  0  0
 22 48  1  0  0  0  0
 22 49  1  0  0  0  0
 23 24  1  0  0  0  0
 23 50  1  0  0  0  0
 23 51  1  0  0  0  0
 24 25  1  0  0  0  0
 24 52  1  0  0  0  0
 24 53  1  0  0  0  0
 25 54  1  0  0  0  0
M  CHG  1  14   1
M  CHG  1  20   1
M  END
> <s_m_source_file>
AV-unprocessed.smi

> <i_m_source_file_index>
1645

> <i_lp_mmshare_version>
43012

> <i_f3d_flags>
0

> <s_epik_input>
W0NIMl0xW0NIMl1bQ0gyXVtDSDJdW0NASF0oTjEyKVtDQEBIXShbQ0gyXVtDSDJdMilbTkhdQyg9TylbTkhdYzNbY0hdW2NIXWMobltjSF0zKU40W0NIMl1bQ0gyXVtDSDJdW0NIMl1bQ0gyXTQ=

> <s_epik_cmdline>
J2VwaWtfcHl0aG9uJywgJy1waCcsICc3LjAnLCAnLXRuJywgJzgnLCAnLW1hJywgJzIwMCcsICctbWV0YWxfYmluZGluZycsICctaW1hZScsICc8aW5maWxlLm1hZT4nLCAnLW9tYWUnLCAnPG91dGZpbGUubWFlPic=

> <r_lp_tautomer_probability>
0.999994

> <r_epik_Ionization_Penalty>
1.26838

> <r_epik_Ionization_Penalty_Charging>
1.26836

> <r_epik_Ionization_Penalty_Neutral>
1.95562e-05

> <r_epik_State_Penalty>
1.33841

> <r_epik_Charging_Adjusted_Penalty>
2.60677

> <i_epik_Tot_Q>
2

> <i_epik_Tot_abs_Q>
2

> <r_epik_Metal_State_Penalty>
1.40601

> <b_epik_Metal_Only>
0

> <s_lp_Force_Field>
OPLS_2005

> <r_lp_Energy>
62.3043

> <b_lp_Chiralities_Consistent>
1

> <s_lp_Variant>
AV-unprocessed.smi:1645-12

> <Gold.Version>
5.8.1

> <Gold.Id.Protein>
6NUR|6NUR_protein|mol2

> <Gold.PLP.Fitness>
53.5073

> <Gold.PLP.PLP>
-43.1109

> <Gold.PLP.part.hbond>
-4.8730

> <Gold.PLP.part.metal>
0.0000

> <Gold.PLP.part.buried>
1.7668

> <Gold.PLP.part.nonpolar>
-40.4536

> <Gold.PLP.part.repulsive>
0.5548

> <Gold.PLP.ligand.clash>
0.0000

> <Gold.PLP.ligand.torsion>
0.3449

> <Gold.PLP.Chemscore.Hbond>
3.6480

> <Gold.PLP.Chemscore.CHOScore>
0.0000

> <Gold.PLP.Chemscore.Metal>
0.0000

> <Gold.Chemscore.Hbonds>
donor molecule, donor type, donor heavy atom, donor atom, acceptor molecule, acceptor atom, score
      L1  H    14    56       P1  8028  2.00
      L1  H    16    40       P1  7948  0.94
      L1  H    20    55       P1 10171  0.85

> <Gold.PLP.Chemscore.Internal.Correction>
0.1422

> <Gold.Rescore>
     Score         DG    S(hbond)    S(metal)    S(lipo)     H(rot)  DE(clash)    DE(int)     intcor
     21.60     -25.83       2.82        0.00     119.16       1.18       1.67       2.55       ----

> <Gold.Chemscore.Fitness>
21.5999

> <Gold.Chemscore.DG>
-25.8253

> <Gold.Chemscore.ZeroCoef>
-5.4800

> <Gold.Chemscore.Hbond>
2.8241

> <Gold.Chemscore.Metal>
0.0000

> <Gold.Chemscore.Lipo>
119.1623

> <Gold.Chemscore.Internal_Hbond>
0.0000

> <Gold.Chemscore.DEClash>
1.6714

> <Gold.Chemscore.DEInternal>
2.5539

> <Gold.Chemscore.Rot>
1.1833

> <Gold.Chemscore.Internal.Correction>
   9.000000E+99

> <Gold.Chemscore.Hbonds>
donor molecule, donor type, donor heavy atom, donor atom, acceptor molecule, acceptor atom, score
      L1  H    14    56       P1  8028  1.00
      L1  H    16    40       P1  7948  0.87
      L1  H    20    55       P1 10171  0.83

> <Gold.Chemscore.Hbond.Weighted>
-9.4326

> <Gold.Chemscore.Metal.Weighted>
-0.0000

> <Gold.Chemscore.Lipo.Weighted>
-13.9420

> <Gold.Chemscore.Internal_Hbond.Weighted>
0.0000

> <Gold.Chemscore.DEClash.Weighted>
1.6714

> <Gold.Chemscore.DEInternal.Weighted>
2.5539

> <Gold.Chemscore.Rot.Weighted>
3.0293

> <Gold.Chemscore.Internal.Correction.Weighted>
   9.000000E+99

> <Gold.Protein.RotatedTorsions>
[ 6907 6896 6895 6894 ] final -130.19 input  -60.11 | X-H torsion
[ 7974 7965 7964 7962 ] final -134.89 input  175.53 | X-H torsion
[ 8008 7997 7996 7995 ] final   79.34 input   59.86 | X-H torsion
[ 10167 10162 10161 10158 ] final   27.98 input  -65.29 | X-H torsion
[ 10718 10713 10712 10709 ] final  132.87 input   66.30 | X-H torsion
[ 10763 10752 10751 10750 ] final    0.72 input  -60.55 | X-H torsion
[ 11005 11000 10999 10996 ] final  117.91 input  -57.11 | X-H torsion

> <Gold.Protein.ActiveResidues>
 VAL166  LYS551  ARG553  GLY616  TRP617  ASP618  TYR619  PRO620  LYS621  CYS622 
 ASP623  PHE694  ASN695  SER759  ASP760  ASP761  ALA762  ILE779  LEU786  VAL792 
 PHE793  MET794  SER795  GLU796  ALA797  LYS798  CYS799  TRP800  GLU811  SER814 

> <Gold.Protein.RotatedAtoms>
  150.9370  133.6701  159.2798 H   0  0  0  0  0  0  0  0  0  0  0  0  # atno 6907 bound_to 6896
  151.4103  135.0983  159.9592 H   0  0  0  0  0  0  0  0  0  0  0  0  # atno 6908 bound_to 6896
  152.5052  133.8844  159.7417 H   0  0  0  0  0  0  0  0  0  0  0  0  # atno 6909 bound_to 6896
  144.9062  140.6836  143.5053 H   0  0  0  0  0  0  0  0  0  0  0  0  # atno 7974 bound_to 7965
  155.8683  140.3450  155.5803 H   0  0  0  0  0  0  0  0  0  0  0  0  # atno 8008 bound_to 7997
  155.7856  140.0864  157.2055 H   0  0  0  0  0  0  0  0  0  0  0  0  # atno 8009 bound_to 7997
  154.4016  140.1492  156.3091 H   0  0  0  0  0  0  0  0  0  0  0  0  # atno 8010 bound_to 7997
  140.4892  144.0494  150.6291 H   0  0  0  0  0  0  0  0  0  0  0  0  # atno 10167 bound_to 10162
  157.4828  131.1086  150.9659 H   0  0  0  0  0  0  0  0  0  0  0  0  # atno 10718 bound_to 10713
  153.3171  135.6966  153.7064 H   0  0  0  0  0  0  0  0  0  0  0  0  # atno 10763 bound_to 10752
  153.5918  135.3478  155.2914 H   0  0  0  0  0  0  0  0  0  0  0  0  # atno 10764 bound_to 10752
  154.8589  135.4320  154.2324 H   0  0  0  0  0  0  0  0  0  0  0  0  # atno 10765 bound_to 10752
  139.9091  134.9615  156.7423 H   0  0  0  0  0  0  0  0  0  0  0  0  # atno 11005 bound_to 11000
  145.3531  139.1701  143.4424 LP  0  0  0  0  0  0  0  0  0  0  0  0  # atno 17320 bound_to 7965
  146.3135  140.3585  142.8662 LP  0  0  0  0  0  0  0  0  0  0  0  0  # atno 17321 bound_to 7965
  140.3758  143.2829  152.0226 LP  0  0  0  0  0  0  0  0  0  0  0  0  # atno 17342 bound_to 10162
  139.4848  144.6194  151.7285 LP  0  0  0  0  0  0  0  0  0  0  0  0  # atno 17343 bound_to 10162
  157.0386  130.5740  149.5353 LP  0  0  0  0  0  0  0  0  0  0  0  0  # atno 17370 bound_to 10713
  156.0131  130.5223  150.8050 LP  0  0  0  0  0  0  0  0  0  0  0  0  # atno 17371 bound_to 10713
  140.6840  133.9449  155.7927 LP  0  0  0  0  0  0  0  0  0  0  0  0  # atno 17394 bound_to 11000
  141.0490  134.0512  157.3808 LP  0  0  0  0  0  0  0  0  0  0  0  0  # atno 17395 bound_to 11000

$$$$
