AV-unprocessed.smi:1830|AV-procd|sdf|7435|dock7
  -GOLD-   22720 9123D 1   1.00000     0.00000
 Structure written by MMmdl.
 53 56  0  0  0  0  0  0  0  0  2 V2000
  149.8647  134.8109  156.0565 O   0  0  0  0  0  0  0  0  0  0  0  0
  149.3969  135.1849  154.9809 C   0  0  0  0  0  0  0  0  0  0  0  0
  148.5348  134.4555  154.2594 N   0  0  0  0  0  0  0  0  0  0  0  0
  148.0264  133.1435  154.6459 C   0  0  0  0  0  0  0  0  0  0  0  0
  146.7337  132.7803  153.8933 C   0  0  1  0  0  0  0  0  0  0  0  0
  145.7027  133.9185  153.9444 C   0  0  0  0  0  0  0  0  0  0  0  0
  144.4752  133.5715  153.1844 N   0  3  1  0  0  0  0  0  0  0  0  0
  143.5945  134.7424  152.9769 C   0  0  0  0  0  0  0  0  0  0  0  0
  143.8915  135.2731  151.5623 C   0  0  0  0  0  0  0  0  0  0  0  0
  144.8995  134.2916  150.9537 C   0  0  0  0  0  0  0  0  0  0  0  0
  144.7612  133.0473  151.8310 C   0  0  1  0  0  0  0  0  0  0  0  0
  145.9443  132.0579  151.7962 C   0  0  0  0  0  0  0  0  0  0  0  0
  147.0561  132.5564  152.5265 O   0  0  0  0  0  0  0  0  0  0  0  0
  149.6589  136.3606  154.3859 N   0  0  0  0  0  0  0  0  0  0  0  0
  150.5014  137.4136  154.8437 C   0  0  0  0  0  0  0  0  0  0  0  0
  151.7301  137.1529  155.4987 C   0  0  0  0  0  0  0  0  0  0  0  0
  152.5155  138.2280  155.9478 C   0  0  0  0  0  0  0  0  0  0  0  0
  152.0458  139.5324  155.7240 C   0  0  0  0  0  0  0  0  0  0  0  0
  150.8896  139.7987  155.0848 N   0  0  0  0  0  0  0  0  0  0  0  0
  150.1283  138.7724  154.6309 C   0  0  0  0  0  0  0  0  0  0  0  0
  148.9390  139.1151  153.9475 N   0  0  0  0  0  0  0  0  0  0  0  0
  148.7826  140.4923  153.4889 C   0  0  0  0  0  0  0  0  0  0  0  0
  147.3018  140.8442  153.6675 C   0  0  0  0  0  0  0  0  0  0  0  0
  146.6107  139.4850  153.7103 C   0  0  0  0  0  0  0  0  0  0  0  0
  147.6490  138.6130  154.4100 C   0  0  0  0  0  0  0  0  0  0  0  0
  148.1966  134.8379  153.3883 H   0  0  0  0  0  0  0  0  0  0  0  0
  148.7957  132.3914  154.4626 H   0  0  0  0  0  0  0  0  0  0  0  0
  147.8474  133.1455  155.7215 H   0  0  0  0  0  0  0  0  0  0  0  0
  146.2995  131.8787  154.3294 H   0  0  0  0  0  0  0  0  0  0  0  0
  145.4292  134.1353  154.9778 H   0  0  0  0  0  0  0  0  0  0  0  0
  146.1465  134.8286  153.5370 H   0  0  0  0  0  0  0  0  0  0  0  0
  142.5587  134.4051  153.0306 H   0  0  0  0  0  0  0  0  0  0  0  0
  143.7250  135.5057  153.7457 H   0  0  0  0  0  0  0  0  0  0  0  0
  142.9748  135.3020  150.9721 H   0  0  0  0  0  0  0  0  0  0  0  0
  144.2977  136.2846  151.5871 H   0  0  0  0  0  0  0  0  0  0  0  0
  144.7048  134.0874  149.9004 H   0  0  0  0  0  0  0  0  0  0  0  0
  145.9078  134.7004  151.0330 H   0  0  0  0  0  0  0  0  0  0  0  0
  143.8675  132.5154  151.4997 H   0  0  0  0  0  0  0  0  0  0  0  0
  145.6437  131.0956  152.2138 H   0  0  0  0  0  0  0  0  0  0  0  0
  146.2476  131.8670  150.7667 H   0  0  0  0  0  0  0  0  0  0  0  0
  149.1205  136.5694  153.5581 H   0  0  0  0  0  0  0  0  0  0  0  0
  152.0878  136.1473  155.6579 H   0  0  0  0  0  0  0  0  0  0  0  0
  153.4538  138.0561  156.4540 H   0  0  0  0  0  0  0  0  0  0  0  0
  152.6166  140.3856  156.0591 H   0  0  0  0  0  0  0  0  0  0  0  0
  149.4249  141.1844  154.0357 H   0  0  0  0  0  0  0  0  0  0  0  0
  149.0498  140.5421  152.4333 H   0  0  0  0  0  0  0  0  0  0  0  0
  147.1590  141.3570  154.6195 H   0  0  0  0  0  0  0  0  0  0  0  0
  146.9216  141.4915  152.8769 H   0  0  0  0  0  0  0  0  0  0  0  0
  145.6535  139.5070  154.2319 H   0  0  0  0  0  0  0  0  0  0  0  0
  146.4386  139.1220  152.6962 H   0  0  0  0  0  0  0  0  0  0  0  0
  147.5225  137.5579  154.1663 H   0  0  0  0  0  0  0  0  0  0  0  0
  147.5500  138.7294  155.4900 H   0  0  0  0  0  0  0  0  0  0  0  0
  143.9819  132.8650  153.7119 H   0  0  0  0  0  0  0  0  0  0  0  0
  1  2  2  0  0  0  0
  2  3  1  0  0  0  0
  2 14  1  0  0  0  0
  3  4  1  0  0  0  0
  3 26  1  0  0  0  0
  4  5  1  0  0  0  0
  4 27  1  0  0  0  0
  4 28  1  0  0  0  0
  5 13  1  0  0  0  0
  5  6  1  0  0  0  0
  5 29  1  0  0  0  0
  6  7  1  0  0  0  0
  6 30  1  0  0  0  0
  6 31  1  0  0  0  0
  7 11  1  0  0  0  0
  7  8  1  0  0  0  0
  7 53  1  0  0  0  0
  8  9  1  0  0  0  0
  8 32  1  0  0  0  0
  8 33  1  0  0  0  0
  9 10  1  0  0  0  0
  9 34  1  0  0  0  0
  9 35  1  0  0  0  0
 10 11  1  0  0  0  0
 10 36  1  0  0  0  0
 10 37  1  0  0  0  0
 11 12  1  0  0  0  0
 11 38  1  0  0  0  0
 12 13  1  0  0  0  0
 12 39  1  0  0  0  0
 12 40  1  0  0  0  0
 14 15  1  0  0  0  0
 14 41  1  0  0  0  0
 15 20  1  0  0  0  0
 15 16  2  0  0  0  0
 16 17  1  0  0  0  0
 16 42  1  0  0  0  0
 17 18  2  0  0  0  0
 17 43  1  0  0  0  0
 18 19  1  0  0  0  0
 18 44  1  0  0  0  0
 19 20  2  0  0  0  0
 20 21  1  0  0  0  0
 21 25  1  0  0  0  0
 21 22  1  0  0  0  0
 22 23  1  0  0  0  0
 22 45  1  0  0  0  0
 22 46  1  0  0  0  0
 23 24  1  0  0  0  0
 23 47  1  0  0  0  0
 23 48  1  0  0  0  0
 24 25  1  0  0  0  0
 24 49  1  0  0  0  0
 24 50  1  0  0  0  0
 25 51  1  0  0  0  0
 25 52  1  0  0  0  0
M  CHG  1   7   1
M  END
> <s_m_source_file>
AV-unprocessed.smi

> <i_m_source_file_index>
1830

> <i_lp_mmshare_version>
43012

> <i_f3d_flags>
0

> <s_epik_input>
W0NIMl0xW0NIMl1bQ0gyXVtDQEhdKE4xMilbQ0gyXU9bQ0BASF0oW0NIMl0yKVtDSDJdW05IXUMoPU8pW05IXWMzW2NIXVtjSF1bY0hdbmMzTjRbQ0gyXVtDSDJdW0NIMl1bQ0gyXTQ=

> <s_epik_cmdline>
J2VwaWtfcHl0aG9uJywgJy1waCcsICc3LjAnLCAnLXRuJywgJzgnLCAnLW1hJywgJzIwMCcsICctbWV0YWxfYmluZGluZycsICctaW1hZScsICc8aW5maWxlLm1hZT4nLCAnLW9tYWUnLCAnPG91dGZpbGUubWFlPic=

> <r_lp_tautomer_probability>
1

> <r_epik_Ionization_Penalty>
0.193547

> <r_epik_Ionization_Penalty_Charging>
0.10673

> <r_epik_Ionization_Penalty_Neutral>
0.0868166

> <r_epik_State_Penalty>
0.173595

> <r_epik_Charging_Adjusted_Penalty>
0.280326

> <i_epik_Tot_Q>
1

> <i_epik_Tot_abs_Q>
1

> <r_epik_Metal_State_Penalty>
0.164683

> <b_epik_Metal_Only>
0

> <s_lp_Force_Field>
OPLS_2005

> <r_lp_Energy>
64.3317

> <b_lp_Chiralities_Consistent>
1

> <s_lp_Variant>
AV-unprocessed.smi:1830-4

> <Gold.Version>
5.8.1

> <Gold.Id.Protein>
6NUR|6NUR_protein|mol2

> <Gold.PLP.Fitness>
43.6180

> <Gold.PLP.PLP>
-31.5543

> <Gold.PLP.part.hbond>
-4.2142

> <Gold.PLP.part.metal>
0.0000

> <Gold.PLP.part.buried>
-1.9523

> <Gold.PLP.part.nonpolar>
-29.5093

> <Gold.PLP.part.repulsive>
1.4593

> <Gold.PLP.ligand.clash>
0.0000

> <Gold.PLP.ligand.torsion>
0.6648

> <Gold.PLP.Chemscore.Hbond>
4.3569

> <Gold.PLP.Chemscore.CHOScore>
0.0000

> <Gold.PLP.Chemscore.Metal>
0.0000

> <Gold.Chemscore.Hbonds>
donor molecule, donor type, donor heavy atom, donor atom, acceptor molecule, acceptor atom, score
      L1  H     3    26       P1  7948  0.46
      L1  H     7    53       P1 10957  2.00
      L1  H    14    41       P1  7948  0.86
      P1  H  7989  7998       L1    19  0.90

> <Gold.PLP.Chemscore.Internal.Correction>
0.3227

> <Gold.Rescore>
     Score         DG    S(hbond)    S(metal)    S(lipo)     H(rot)  DE(clash)    DE(int)     intcor
     16.04     -19.67       2.37        0.00      84.24       1.41       2.03       1.60       ----

> <Gold.Chemscore.Fitness>
16.0354

> <Gold.Chemscore.DG>
-19.6653

> <Gold.Chemscore.ZeroCoef>
-5.4800

> <Gold.Chemscore.Hbond>
2.3745

> <Gold.Chemscore.Metal>
0.0000

> <Gold.Chemscore.Lipo>
84.2354

> <Gold.Chemscore.Internal_Hbond>
0.0000

> <Gold.Chemscore.DEClash>
2.0267

> <Gold.Chemscore.DEInternal>
1.6032

> <Gold.Chemscore.Rot>
1.4067

> <Gold.Chemscore.Internal.Correction>
   9.000000E+99

> <Gold.Chemscore.Hbonds>
donor molecule, donor type, donor heavy atom, donor atom, acceptor molecule, acceptor atom, score
      L1  H     3    26       P1  7948  0.42
      L1  H     7    53       P1 10957  0.78
      L1  H    14    41       P1  7948  0.84
      P1  H  7989  7998       L1    19  0.14

> <Gold.Chemscore.Hbond.Weighted>
-7.9308

> <Gold.Chemscore.Metal.Weighted>
-0.0000

> <Gold.Chemscore.Lipo.Weighted>
-9.8555

> <Gold.Chemscore.Internal_Hbond.Weighted>
0.0000

> <Gold.Chemscore.DEClash.Weighted>
2.0267

> <Gold.Chemscore.DEInternal.Weighted>
1.6032

> <Gold.Chemscore.Rot.Weighted>
3.6011

> <Gold.Chemscore.Internal.Correction.Weighted>
   9.000000E+99

> <Gold.Protein.RotatedTorsions>
[ 6907 6896 6895 6894 ] final -158.89 input  -60.11 | X-H torsion
[ 7974 7965 7964 7962 ] final  -60.54 input  175.53 | X-H torsion
[ 8008 7997 7996 7995 ] final  -12.30 input   59.86 | X-H torsion
[ 10167 10162 10161 10158 ] final  -70.98 input  -65.29 | X-H torsion
[ 10718 10713 10712 10709 ] final   77.72 input   66.30 | X-H torsion
[ 10763 10752 10751 10750 ] final  -17.83 input  -60.55 | X-H torsion
[ 11005 11000 10999 10996 ] final  110.28 input  -57.11 | X-H torsion

> <Gold.Protein.ActiveResidues>
 VAL166  LYS551  ARG553  GLY616  TRP617  ASP618  TYR619  PRO620  LYS621  CYS622 
 ASP623  PHE694  ASN695  SER759  ASP760  ASP761  ALA762  ILE779  LEU786  VAL792 
 PHE793  MET794  SER795  GLU796  ALA797  LYS798  CYS799  TRP800  GLU811  SER814 

> <Gold.Protein.RotatedAtoms>
  151.3251  133.4024  159.2657 H   0  0  0  0  0  0  0  0  0  0  0  0  # atno 6907 bound_to 6896
  151.0002  134.9316  159.7960 H   0  0  0  0  0  0  0  0  0  0  0  0  # atno 6908 bound_to 6896
  152.5273  134.3216  159.9203 H   0  0  0  0  0  0  0  0  0  0  0  0  # atno 6909 bound_to 6896
  145.8142  140.8580  143.0166 H   0  0  0  0  0  0  0  0  0  0  0  0  # atno 7974 bound_to 7965
  154.5389  140.2279  155.8675 H   0  0  0  0  0  0  0  0  0  0  0  0  # atno 8008 bound_to 7997
  156.1839  140.3093  155.9163 H   0  0  0  0  0  0  0  0  0  0  0  0  # atno 8009 bound_to 7997
  155.3298  140.0445  157.3033 H   0  0  0  0  0  0  0  0  0  0  0  0  # atno 8010 bound_to 7997
  140.5309  143.2322  151.7263 H   0  0  0  0  0  0  0  0  0  0  0  0  # atno 10167 bound_to 10162
  157.6720  130.9835  150.1682 H   0  0  0  0  0  0  0  0  0  0  0  0  # atno 10718 bound_to 10713
  153.5799  135.7005  153.5468 H   0  0  0  0  0  0  0  0  0  0  0  0  # atno 10763 bound_to 10752
  153.3270  135.4058  155.1463 H   0  0  0  0  0  0  0  0  0  0  0  0  # atno 10764 bound_to 10752
  154.8619  135.3709  154.5326 H   0  0  0  0  0  0  0  0  0  0  0  0  # atno 10765 bound_to 10752
  139.8878  134.9480  156.6254 H   0  0  0  0  0  0  0  0  0  0  0  0  # atno 11005 bound_to 11000
  144.6754  140.0440  143.7480 LP  0  0  0  0  0  0  0  0  0  0  0  0  # atno 17320 bound_to 7965
  145.9744  139.2894  143.1079 LP  0  0  0  0  0  0  0  0  0  0  0  0  # atno 17321 bound_to 7965
  139.4954  144.4115  152.0075 LP  0  0  0  0  0  0  0  0  0  0  0  0  # atno 17342 bound_to 10162
  140.3217  144.3420  150.6008 LP  0  0  0  0  0  0  0  0  0  0  0  0  # atno 17343 bound_to 10162
  156.2443  130.3694  149.8303 LP  0  0  0  0  0  0  0  0  0  0  0  0  # atno 17370 bound_to 10713
  156.6094  130.8580  151.3450 LP  0  0  0  0  0  0  0  0  0  0  0  0  # atno 17371 bound_to 10713
  140.7707  133.8741  155.8490 LP  0  0  0  0  0  0  0  0  0  0  0  0  # atno 17394 bound_to 11000
  140.9844  134.1362  157.4465 LP  0  0  0  0  0  0  0  0  0  0  0  0  # atno 17395 bound_to 11000

$$$$
