AV-unprocessed.smi:1554|AV-procd|sdf|6245|dock8
  -GOLD-   22720 6423D 1   1.00000     0.00000
 Structure written by MMmdl.
 48 50  0  0  0  0  0  0  0  0  2 V2000
  151.5092  143.9085  159.1420 C   0  0  0  0  0  0  0  0  0  0  0  0
  151.4475  142.5826  158.4042 C   0  0  0  0  0  0  0  0  0  0  0  0
  150.5985  142.4602  157.2811 C   0  0  0  0  0  0  0  0  0  0  0  0
  150.5145  141.2457  156.5655 C   0  0  0  0  0  0  0  0  0  0  0  0
  149.7632  140.9080  155.4527 N   0  0  0  0  0  0  0  0  0  0  0  0
  150.1219  139.6420  155.2611 C   0  0  0  0  0  0  0  0  0  0  0  0
  151.0190  139.1183  156.1185 N   0  0  0  0  0  0  0  0  0  0  0  0
  151.5593  137.7703  156.1014 C   0  0  0  0  0  0  0  0  0  0  0  0
  151.0232  136.9350  154.9222 C   0  0  1  0  0  0  0  0  0  0  0  0
  151.8098  137.1819  153.7718 O   0  0  0  0  0  0  0  0  0  0  0  0
  151.0553  135.4242  155.2255 C   0  0  0  0  0  0  0  0  0  0  0  0
  149.8749  134.7114  154.6732 N   0  3  1  0  0  0  0  0  0  0  0  0
  150.1827  133.3183  154.2735 C   0  0  0  0  0  0  0  0  0  0  0  0
  148.9458  132.6574  153.6433 C   0  0  0  0  0  0  0  0  0  0  0  0
  147.8591  132.7075  154.5595 O   0  0  0  0  0  0  0  0  0  0  0  0
  147.4913  134.0428  154.8888 C   0  0  1  0  0  0  0  0  0  0  0  0
  146.2625  133.9893  155.8031 C   0  0  0  0  0  0  0  0  0  0  0  0
  148.6876  134.7428  155.5628 C   0  0  0  0  0  0  0  0  0  0  0  0
  151.3092  140.1478  157.0080 C   0  0  0  0  0  0  0  0  0  0  0  0
  152.1564  140.2569  158.1252 C   0  0  0  0  0  0  0  0  0  0  0  0
  152.2286  141.4775  158.8283 C   0  0  0  0  0  0  0  0  0  0  0  0
  153.1462  141.5846  160.0334 C   0  0  0  0  0  0  0  0  0  0  0  0
  150.8458  144.6472  158.6909 H   0  0  0  0  0  0  0  0  0  0  0  0
  152.5221  144.3113  159.1185 H   0  0  0  0  0  0  0  0  0  0  0  0
  151.2104  143.7812  160.1828 H   0  0  0  0  0  0  0  0  0  0  0  0
  150.0033  143.3016  156.9579 H   0  0  0  0  0  0  0  0  0  0  0  0
  149.7105  139.0610  154.4486 H   0  0  0  0  0  0  0  0  0  0  0  0
  152.6478  137.8315  156.0674 H   0  0  0  0  0  0  0  0  0  0  0  0
  151.3054  137.2903  157.0474 H   0  0  0  0  0  0  0  0  0  0  0  0
  150.0037  137.2557  154.7091 H   0  0  0  0  0  0  0  0  0  0  0  0
  151.3334  136.8893  153.0095 H   0  0  0  0  0  0  0  0  0  0  0  0
  151.9698  135.0054  154.8021 H   0  0  0  0  0  0  0  0  0  0  0  0
  151.1116  135.2492  156.3011 H   0  0  0  0  0  0  0  0  0  0  0  0
  151.0054  133.3099  153.5573 H   0  0  0  0  0  0  0  0  0  0  0  0
  150.5090  132.7495  155.1458 H   0  0  0  0  0  0  0  0  0  0  0  0
  148.6729  133.1510  152.7089 H   0  0  0  0  0  0  0  0  0  0  0  0
  149.1571  131.6155  153.4023 H   0  0  0  0  0  0  0  0  0  0  0  0
  147.2203  134.5756  153.9754 H   0  0  0  0  0  0  0  0  0  0  0  0
  145.9335  134.9917  156.0781 H   0  0  0  0  0  0  0  0  0  0  0  0
  146.4775  133.4432  156.7222 H   0  0  0  0  0  0  0  0  0  0  0  0
  145.4290  133.4912  155.3072 H   0  0  0  0  0  0  0  0  0  0  0  0
  148.9273  134.2510  156.5071 H   0  0  0  0  0  0  0  0  0  0  0  0
  148.4176  135.7715  155.7992 H   0  0  0  0  0  0  0  0  0  0  0  0
  152.7471  139.4088  158.4373 H   0  0  0  0  0  0  0  0  0  0  0  0
  153.6972  140.6580  160.1976 H   0  0  0  0  0  0  0  0  0  0  0  0
  152.5688  141.7954  160.9338 H   0  0  0  0  0  0  0  0  0  0  0  0
  153.8736  142.3844  159.8923 H   0  0  0  0  0  0  0  0  0  0  0  0
  149.6225  135.1989  153.8247 H   0  0  0  0  0  0  0  0  0  0  0  0
  1  2  1  0  0  0  0
  1 23  1  0  0  0  0
  1 24  1  0  0  0  0
  1 25  1  0  0  0  0
  2 21  1  0  0  0  0
  2  3  2  0  0  0  0
  3  4  1  0  0  0  0
  3 26  1  0  0  0  0
  4 19  2  0  0  0  0
  4  5  1  0  0  0  0
  5  6  2  0  0  0  0
  6  7  1  0  0  0  0
  6 27  1  0  0  0  0
  7  8  1  0  0  0  0
  7 19  1  0  0  0  0
  8  9  1  0  0  0  0
  8 28  1  0  0  0  0
  8 29  1  0  0  0  0
  9 10  1  0  0  0  0
  9 11  1  0  0  0  0
  9 30  1  0  0  0  0
 10 31  1  0  0  0  0
 11 12  1  0  0  0  0
 11 32  1  0  0  0  0
 11 33  1  0  0  0  0
 12 18  1  0  0  0  0
 12 13  1  0  0  0  0
 12 48  1  0  0  0  0
 13 14  1  0  0  0  0
 13 34  1  0  0  0  0
 13 35  1  0  0  0  0
 14 15  1  0  0  0  0
 14 36  1  0  0  0  0
 14 37  1  0  0  0  0
 15 16  1  0  0  0  0
 16 17  1  0  0  0  0
 16 18  1  0  0  0  0
 16 38  1  0  0  0  0
 17 39  1  0  0  0  0
 17 40  1  0  0  0  0
 17 41  1  0  0  0  0
 18 42  1  0  0  0  0
 18 43  1  0  0  0  0
 19 20  1  0  0  0  0
 20 21  2  0  0  0  0
 20 44  1  0  0  0  0
 21 22  1  0  0  0  0
 22 45  1  0  0  0  0
 22 46  1  0  0  0  0
 22 47  1  0  0  0  0
M  CHG  1  12   1
M  END
> <s_m_source_file>
AV-unprocessed.smi

> <i_m_source_file_index>
1554

> <i_lp_mmshare_version>
43012

> <i_f3d_flags>
0

> <s_epik_input>
W0NIM11jKFtjSF0xKWMoW0NIM10pW2NIXWMoYzEyKW4oW2NIXW4yKVtDSDJdW0NASF0oW09IXSlbQ0gyXU4zW0NIMl1bQ0gyXU9bQ0BASF0oW0NIM10pW0NIMl0z

> <s_epik_cmdline>
J2VwaWtfcHl0aG9uJywgJy1waCcsICc3LjAnLCAnLXRuJywgJzgnLCAnLW1hJywgJzIwMCcsICctbWV0YWxfYmluZGluZycsICctaW1hZScsICc8aW5maWxlLm1hZT4nLCAnLW9tYWUnLCAnPG91dGZpbGUubWFlPic=

> <r_epik_Ionization_Penalty>
0.695251

> <r_epik_Ionization_Penalty_Charging>
0.608065

> <r_epik_Ionization_Penalty_Neutral>
0.0871863

> <r_epik_State_Penalty>
0.731955

> <r_epik_Charging_Adjusted_Penalty>
1.34002

> <i_epik_Tot_Q>
1

> <i_epik_Tot_abs_Q>
1

> <r_epik_Metal_State_Penalty>
0.652186

> <b_epik_Metal_Only>
0

> <s_lp_Force_Field>
OPLS_2005

> <r_lp_Energy>
21.5252

> <b_lp_Chiralities_Consistent>
1

> <s_lp_Variant>
AV-unprocessed.smi:1554-6

> <Gold.Version>
5.8.1

> <Gold.Id.Protein>
6NUR|6NUR_protein|mol2

> <Gold.PLP.Fitness>
51.0914

> <Gold.PLP.PLP>
-41.3640

> <Gold.PLP.part.hbond>
-4.0000

> <Gold.PLP.part.metal>
0.0000

> <Gold.PLP.part.buried>
-3.4405

> <Gold.PLP.part.nonpolar>
-33.8413

> <Gold.PLP.part.repulsive>
0.2013

> <Gold.PLP.ligand.clash>
0.0000

> <Gold.PLP.ligand.torsion>
1.1477

> <Gold.PLP.Chemscore.Hbond>
4.0000

> <Gold.PLP.Chemscore.CHOScore>
0.0000

> <Gold.PLP.Chemscore.Metal>
0.0000

> <Gold.Chemscore.Hbonds>
donor molecule, donor type, donor heavy atom, donor atom, acceptor molecule, acceptor atom, score
      L1  H    10    31       P1  7949  1.00
      L1  H    12    48       P1  7948  0.59
      P1  H 10752 10765       L1    10  1.00

> <Gold.PLP.Chemscore.Internal.Correction>
0.0227

> <Gold.Rescore>
     Score         DG    S(hbond)    S(metal)    S(lipo)     H(rot)  DE(clash)    DE(int)     intcor
     18.50     -19.93       2.60        0.00      94.22       2.05       0.00       1.43       ----

> <Gold.Chemscore.Fitness>
18.5016

> <Gold.Chemscore.DG>
-19.9311

> <Gold.Chemscore.ZeroCoef>
-5.4800

> <Gold.Chemscore.Hbond>
2.6008

> <Gold.Chemscore.Metal>
0.0000

> <Gold.Chemscore.Lipo>
94.2230

> <Gold.Chemscore.Internal_Hbond>
0.0000

> <Gold.Chemscore.DEClash>
0.0038

> <Gold.Chemscore.DEInternal>
1.4257

> <Gold.Chemscore.Rot>
2.0546

> <Gold.Chemscore.Internal.Correction>
   9.000000E+99

> <Gold.Chemscore.Hbonds>
donor molecule, donor type, donor heavy atom, donor atom, acceptor molecule, acceptor atom, score
      L1  H    10    31       P1  7949  0.72
      L1  H    12    48       P1  7948  0.04
      P1  H 10752 10765       L1    10  0.06

> <Gold.Chemscore.Hbond.Weighted>
-8.6867

> <Gold.Chemscore.Metal.Weighted>
-0.0000

> <Gold.Chemscore.Lipo.Weighted>
-11.0241

> <Gold.Chemscore.Internal_Hbond.Weighted>
0.0000

> <Gold.Chemscore.DEClash.Weighted>
0.0038

> <Gold.Chemscore.DEInternal.Weighted>
1.4257

> <Gold.Chemscore.Rot.Weighted>
5.2597

> <Gold.Chemscore.Internal.Correction.Weighted>
   9.000000E+99

> <Gold.Protein.RotatedTorsions>
[ 6907 6896 6895 6894 ] final  -74.20 input  -60.11 | X-H torsion
[ 7974 7965 7964 7962 ] final  -30.19 input  175.53 | X-H torsion
[ 8008 7997 7996 7995 ] final   68.50 input   59.86 | X-H torsion
[ 10167 10162 10161 10158 ] final  128.09 input  -65.29 | X-H torsion
[ 10718 10713 10712 10709 ] final   89.06 input   66.30 | X-H torsion
[ 10763 10752 10751 10750 ] final  139.03 input  -60.55 | X-H torsion
[ 11005 11000 10999 10996 ] final  -45.52 input  -57.11 | X-H torsion

> <Gold.Protein.ActiveResidues>
 VAL166  LYS551  ARG553  GLY616  TRP617  ASP618  TYR619  PRO620  LYS621  CYS622 
 ASP623  PHE694  ASN695  SER759  ASP760  ASP761  ALA762  ILE779  LEU786  VAL792 
 PHE793  MET794  SER795  GLU796  ALA797  LYS798  CYS799  TRP800  GLU811  SER814 

> <Gold.Protein.RotatedAtoms>
  150.7102  134.4904  159.5512 H   0  0  0  0  0  0  0  0  0  0  0  0  # atno 6907 bound_to 6896
  152.2522  134.8118  160.0453 H   0  0  0  0  0  0  0  0  0  0  0  0  # atno 6908 bound_to 6896
  151.8861  133.3470  159.3819 H   0  0  0  0  0  0  0  0  0  0  0  0  # atno 6909 bound_to 6896
  146.1161  140.5508  142.8756 H   0  0  0  0  0  0  0  0  0  0  0  0  # atno 7974 bound_to 7965
  155.7092  140.3494  155.4966 H   0  0  0  0  0  0  0  0  0  0  0  0  # atno 8008 bound_to 7997
  155.9371  140.1095  157.1108 H   0  0  0  0  0  0  0  0  0  0  0  0  # atno 8009 bound_to 7997
  154.4095  140.1220  156.4865 H   0  0  0  0  0  0  0  0  0  0  0  0  # atno 8010 bound_to 7997
  139.5545  144.6838  151.4224 H   0  0  0  0  0  0  0  0  0  0  0  0  # atno 10167 bound_to 10162
  157.6953  131.0319  150.3369 H   0  0  0  0  0  0  0  0  0  0  0  0  # atno 10718 bound_to 10713
  153.8994  135.3024  155.3448 H   0  0  0  0  0  0  0  0  0  0  0  0  # atno 10763 bound_to 10752
  154.7678  135.4902  153.9591 H   0  0  0  0  0  0  0  0  0  0  0  0  # atno 10764 bound_to 10752
  153.1253  135.6791  153.9367 H   0  0  0  0  0  0  0  0  0  0  0  0  # atno 10765 bound_to 10752
  141.0521  133.6739  156.3025 H   0  0  0  0  0  0  0  0  0  0  0  0  # atno 11005 bound_to 11000
  144.7554  140.5295  143.6772 LP  0  0  0  0  0  0  0  0  0  0  0  0  # atno 17320 bound_to 7965
  145.5563  139.1478  143.3366 LP  0  0  0  0  0  0  0  0  0  0  0  0  # atno 17321 bound_to 7965
  140.6815  143.8072  150.7127 LP  0  0  0  0  0  0  0  0  0  0  0  0  # atno 17342 bound_to 10162
  140.1526  143.4344  152.2121 LP  0  0  0  0  0  0  0  0  0  0  0  0  # atno 17343 bound_to 10162
  156.3835  130.3885  149.7083 LP  0  0  0  0  0  0  0  0  0  0  0  0  # atno 17370 bound_to 10713
  156.4458  130.7883  151.2904 LP  0  0  0  0  0  0  0  0  0  0  0  0  # atno 17371 bound_to 10713
  140.6036  134.5530  157.5522 LP  0  0  0  0  0  0  0  0  0  0  0  0  # atno 17394 bound_to 11000
  139.9359  134.7877  156.0805 LP  0  0  0  0  0  0  0  0  0  0  0  0  # atno 17395 bound_to 11000

$$$$
