AV-unprocessed.smi:2198|AV-procd|sdf|8913|dock6
  -GOLD-   2272012133D 1   1.00000     0.00000
 Structure written by MMmdl.
 43 44  0  0  0  0  0  0  0  0  1 V2000
  148.9862  141.3646  153.7721 C   0  0  0  0  0  0  0  0  0  0  0  0
  149.9982  140.6724  154.6604 C   0  0  0  0  0  0  0  0  0  0  0  0
  151.1358  140.2223  154.2434 N   0  0  0  0  0  0  0  0  0  0  0  0
  151.9934  139.6018  155.1627 C   0  0  0  0  0  0  0  0  0  0  0  0
  153.3103  139.1010  154.5942 C   0  0  0  0  0  0  0  0  0  0  0  0
  151.6536  139.4637  156.4781 C   0  0  0  0  0  0  0  0  0  0  0  0
  152.5648  138.7930  157.5041 C   0  0  0  0  0  0  0  0  0  0  0  0
  153.0474  139.6995  158.6376 C   0  0  0  0  0  0  0  0  0  0  0  0
  153.7657  139.2427  159.5264 O   0  0  0  0  0  0  0  0  0  0  0  0
  152.6538  140.9814  158.5893 N   0  0  0  0  0  0  0  0  0  0  0  0
  153.0180  142.0142  159.5539 C   0  0  2  0  0  0  0  0  0  0  0  0
  152.8963  141.4780  160.9937 C   0  0  0  0  0  0  0  0  0  0  0  0
  153.2018  142.5748  162.0248 C   0  0  0  0  0  0  0  0  0  0  0  0
  152.3033  143.8040  161.8157 C   0  0  0  0  0  0  0  0  0  0  0  0
  152.4214  144.3543  160.3814 C   0  0  2  0  0  0  0  0  0  0  0  0
  151.5156  145.5768  160.1739 C   0  0  0  0  0  0  0  0  0  0  0  0
  152.1184  143.2482  159.3517 C   0  0  0  0  0  0  0  0  0  0  0  0
  150.3506  139.9788  156.9424 C   0  0  0  0  0  0  0  0  0  0  0  0
  149.9419  139.9029  158.1000 O   0  0  0  0  0  0  0  0  0  0  0  0
  149.5909  140.5624  155.9888 N   0  0  0  0  0  0  0  0  0  0  0  0
  148.6900  140.9302  156.2573 H   0  0  0  0  0  0  0  0  0  0  0  0
  148.6780  140.6999  152.9646 H   0  0  0  0  0  0  0  0  0  0  0  0
  149.4250  142.2600  153.3310 H   0  0  0  0  0  0  0  0  0  0  0  0
  148.0960  141.6601  154.3293 H   0  0  0  0  0  0  0  0  0  0  0  0
  154.1534  139.5711  155.1005 H   0  0  0  0  0  0  0  0  0  0  0  0
  153.3942  139.3281  153.5306 H   0  0  0  0  0  0  0  0  0  0  0  0
  153.3925  138.0202  154.7097 H   0  0  0  0  0  0  0  0  0  0  0  0
  152.0426  137.9334  157.9253 H   0  0  0  0  0  0  0  0  0  0  0  0
  153.4418  138.3656  157.0169 H   0  0  0  0  0  0  0  0  0  0  0  0
  152.0645  141.2654  157.8200 H   0  0  0  0  0  0  0  0  0  0  0  0
  154.0516  142.3181  159.3768 H   0  0  0  0  0  0  0  0  0  0  0  0
  151.8888  141.0943  161.1620 H   0  0  0  0  0  0  0  0  0  0  0  0
  153.5757  140.6380  161.1427 H   0  0  0  0  0  0  0  0  0  0  0  0
  153.0679  142.1838  163.0338 H   0  0  0  0  0  0  0  0  0  0  0  0
  154.2489  142.8691  161.9442 H   0  0  0  0  0  0  0  0  0  0  0  0
  151.2667  143.5357  162.0244 H   0  0  0  0  0  0  0  0  0  0  0  0
  152.5724  144.5781  162.5354 H   0  0  0  0  0  0  0  0  0  0  0  0
  153.4516  144.6802  160.2306 H   0  0  0  0  0  0  0  0  0  0  0  0
  150.4652  145.3204  160.3156 H   0  0  0  0  0  0  0  0  0  0  0  0
  151.6268  145.9817  159.1676 H   0  0  0  0  0  0  0  0  0  0  0  0
  151.7620  146.3723  160.8775 H   0  0  0  0  0  0  0  0  0  0  0  0
  152.2545  143.6386  158.3420 H   0  0  0  0  0  0  0  0  0  0  0  0
  151.0702  142.9556  159.4299 H   0  0  0  0  0  0  0  0  0  0  0  0
  1  2  1  0  0  0  0
  1 22  1  0  0  0  0
  1 23  1  0  0  0  0
  1 24  1  0  0  0  0
  2 20  1  0  0  0  0
  2  3  2  0  0  0  0
  3  4  1  0  0  0  0
  4  5  1  0  0  0  0
  4  6  2  0  0  0  0
  5 25  1  0  0  0  0
  5 26  1  0  0  0  0
  5 27  1  0  0  0  0
  6  7  1  0  0  0  0
  6 18  1  0  0  0  0
  7  8  1  0  0  0  0
  7 28  1  0  0  0  0
  7 29  1  0  0  0  0
  8  9  2  0  0  0  0
  8 10  1  0  0  0  0
 10 11  1  0  0  0  0
 10 30  1  0  0  0  0
 11 17  1  0  0  0  0
 11 12  1  0  0  0  0
 11 31  1  0  0  0  0
 12 13  1  0  0  0  0
 12 32  1  0  0  0  0
 12 33  1  0  0  0  0
 13 14  1  0  0  0  0
 13 34  1  0  0  0  0
 13 35  1  0  0  0  0
 14 15  1  0  0  0  0
 14 36  1  0  0  0  0
 14 37  1  0  0  0  0
 15 16  1  0  0  0  0
 15 17  1  0  0  0  0
 15 38  1  0  0  0  0
 16 39  1  0  0  0  0
 16 40  1  0  0  0  0
 16 41  1  0  0  0  0
 17 42  1  0  0  0  0
 17 43  1  0  0  0  0
 18 19  2  0  0  0  0
 18 20  1  0  0  0  0
 20 21  1  0  0  0  0
M  END
> <s_m_source_file>
AV-unprocessed.smi

> <i_m_source_file_index>
2198

> <i_lp_mmshare_version>
43012

> <i_f3d_flags>
0

> <s_epik_input>
W0NIM11jMW5jKFtDSDNdKWMoYyg9TylbbkhdMSlbQ0gyXUMoPU8pW05IXVtDQEBIXTJbQ0gyXVtDSDJdW0NIMl1bQ0BASF0oW0NIM10pW0NIMl0y

> <s_epik_cmdline>
J2VwaWtfcHl0aG9uJywgJy1waCcsICc3LjAnLCAnLXRuJywgJzgnLCAnLW1hJywgJzIwMCcsICctbWV0YWxfYmluZGluZycsICctaW1hZScsICc8aW5maWxlLm1hZT4nLCAnLW9tYWUnLCAnPG91dGZpbGUubWFlPic=

> <r_lp_tautomer_probability>
0.839158

> <r_epik_Ionization_Penalty>
0.000372587

> <r_epik_Ionization_Penalty_Charging>
0.000337977

> <r_epik_Ionization_Penalty_Neutral>
3.46101e-05

> <r_epik_State_Penalty>
0.09125

> <r_epik_Charging_Adjusted_Penalty>
0.091588

> <i_epik_Tot_Q>
0

> <i_epik_Tot_abs_Q>
0

> <r_epik_Metal_State_Penalty>
0.25197

> <b_epik_Metal_Only>
0

> <s_lp_Force_Field>
OPLS_2005

> <r_lp_Energy>
10.3768

> <b_lp_Chiralities_Consistent>
1

> <s_lp_Variant>
AV-unprocessed.smi:2198-3

> <Gold.Version>
5.8.1

> <Gold.Id.Protein>
6NUR|6NUR_protein|mol2

> <Gold.PLP.Fitness>
45.9968

> <Gold.PLP.PLP>
-43.3735

> <Gold.PLP.part.hbond>
-1.0000

> <Gold.PLP.part.metal>
0.0000

> <Gold.PLP.part.buried>
-4.9927

> <Gold.PLP.part.nonpolar>
-36.8134

> <Gold.PLP.part.repulsive>
0.2340

> <Gold.PLP.ligand.clash>
0.0000

> <Gold.PLP.ligand.torsion>
0.1900

> <Gold.PLP.Chemscore.Hbond>
1.0000

> <Gold.PLP.Chemscore.CHOScore>
0.0000

> <Gold.PLP.Chemscore.Metal>
0.0000

> <Gold.PLP.Chemscore.Internal.Correction>
0.0033

> <Gold.Rescore>
     Score         DG    S(hbond)    S(metal)    S(lipo)     H(rot)  DE(clash)    DE(int)     intcor
     15.63     -17.84       0.85        0.00     113.86       1.48       0.42       1.79       ----

> <Gold.Chemscore.Fitness>
15.6283

> <Gold.Chemscore.DG>
-17.8430

> <Gold.Chemscore.ZeroCoef>
-5.4800

> <Gold.Chemscore.Hbond>
0.8473

> <Gold.Chemscore.Metal>
0.0000

> <Gold.Chemscore.Lipo>
113.8648

> <Gold.Chemscore.Internal_Hbond>
0.0000

> <Gold.Chemscore.DEClash>
0.4202

> <Gold.Chemscore.DEInternal>
1.7946

> <Gold.Chemscore.Rot>
1.4801

> <Gold.Chemscore.Internal.Correction>
   9.000000E+99

> <Gold.Chemscore.Hbonds>
donor molecule, donor type, donor heavy atom, donor atom, acceptor molecule, acceptor atom, score
      P1  H  7989  7998       L1     3  0.03

> <Gold.Chemscore.Hbond.Weighted>
-2.8300

> <Gold.Chemscore.Metal.Weighted>
-0.0000

> <Gold.Chemscore.Lipo.Weighted>
-13.3222

> <Gold.Chemscore.Internal_Hbond.Weighted>
0.0000

> <Gold.Chemscore.DEClash.Weighted>
0.4202

> <Gold.Chemscore.DEInternal.Weighted>
1.7946

> <Gold.Chemscore.Rot.Weighted>
3.7891

> <Gold.Chemscore.Internal.Correction.Weighted>
   9.000000E+99

> <Gold.Protein.RotatedTorsions>
[ 6907 6896 6895 6894 ] final -115.27 input  -60.11 | X-H torsion
[ 7974 7965 7964 7962 ] final  118.95 input  175.53 | X-H torsion
[ 8008 7997 7996 7995 ] final -101.37 input   59.86 | X-H torsion
[ 10167 10162 10161 10158 ] final -104.79 input  -65.29 | X-H torsion
[ 10718 10713 10712 10709 ] final  -78.20 input   66.30 | X-H torsion
[ 10763 10752 10751 10750 ] final   61.95 input  -60.55 | X-H torsion
[ 11005 11000 10999 10996 ] final -169.40 input  -57.11 | X-H torsion

> <Gold.Protein.ActiveResidues>
 VAL166  LYS551  ARG553  GLY616  TRP617  ASP618  TYR619  PRO620  LYS621  CYS622 
 ASP623  PHE694  ASN695  SER759  ASP760  ASP761  ALA762  ILE779  LEU786  VAL792 
 PHE793  MET794  SER795  GLU796  ALA797  LYS798  CYS799  TRP800  GLU811  SER814 

> <Gold.Protein.RotatedAtoms>
  150.7965  133.8682  159.3250 H   0  0  0  0  0  0  0  0  0  0  0  0  # atno 6907 bound_to 6896
  151.6505  135.1000  160.0169 H   0  0  0  0  0  0  0  0  0  0  0  0  # atno 6908 bound_to 6896
  152.4048  133.6832  159.6382 H   0  0  0  0  0  0  0  0  0  0  0  0  # atno 6909 bound_to 6896
  145.1490  139.3222  143.4576 H   0  0  0  0  0  0  0  0  0  0  0  0  # atno 7974 bound_to 7965
  154.8416  140.0435  157.1545 H   0  0  0  0  0  0  0  0  0  0  0  0  # atno 8008 bound_to 7997
  154.9041  140.3004  155.5281 H   0  0  0  0  0  0  0  0  0  0  0  0  # atno 8009 bound_to 7997
  156.2992  140.2370  156.4072 H   0  0  0  0  0  0  0  0  0  0  0  0  # atno 8010 bound_to 7997
  140.2055  143.3786  152.1094 H   0  0  0  0  0  0  0  0  0  0  0  0  # atno 10167 bound_to 10162
  156.0124  130.4511  150.3460 H   0  0  0  0  0  0  0  0  0  0  0  0  # atno 10718 bound_to 10713
  152.9967  135.5482  154.6116 H   0  0  0  0  0  0  0  0  0  0  0  0  # atno 10763 bound_to 10752
  154.5435  135.2821  155.1076 H   0  0  0  0  0  0  0  0  0  0  0  0  # atno 10764 bound_to 10752
  154.2344  135.6428  153.5238 H   0  0  0  0  0  0  0  0  0  0  0  0  # atno 10765 bound_to 10752
  140.5312  134.5614  157.5075 H   0  0  0  0  0  0  0  0  0  0  0  0  # atno 11005 bound_to 11000
  146.3497  140.1557  142.8591 LP  0  0  0  0  0  0  0  0  0  0  0  0  # atno 17320 bound_to 7965
  145.0451  140.8975  143.5029 LP  0  0  0  0  0  0  0  0  0  0  0  0  # atno 17321 bound_to 7965
  139.5200  144.7027  151.5445 LP  0  0  0  0  0  0  0  0  0  0  0  0  # atno 17342 bound_to 10162
  140.6360  143.8982  150.6648 LP  0  0  0  0  0  0  0  0  0  0  0  0  # atno 17343 bound_to 10162
  157.1554  131.0331  151.2866 LP  0  0  0  0  0  0  0  0  0  0  0  0  # atno 17370 bound_to 10713
  157.4356  130.7515  149.7026 LP  0  0  0  0  0  0  0  0  0  0  0  0  # atno 17371 bound_to 10713
  139.9553  134.7545  156.0355 LP  0  0  0  0  0  0  0  0  0  0  0  0  # atno 17394 bound_to 11000
  141.1280  133.6594  156.3389 LP  0  0  0  0  0  0  0  0  0  0  0  0  # atno 17395 bound_to 11000

$$$$
