AV-unprocessed.smi:304|AV-procd|sdf|2277|dock1
  -GOLD-   2262022173D 1   1.00000     0.00000
 Structure written by MMmdl.
 36 38  0  0  0  0  0  0  0  0  1 V2000
  149.9977  140.0086  158.1430 O   0  0  0  0  0  0  0  0  0  0  0  0
  150.2882  140.7694  156.9868 C   0  0  1  0  0  0  0  0  0  0  0  0
  149.1089  141.7185  156.7226 C   0  0  0  0  0  0  0  0  0  0  0  0
  148.1144  141.0263  155.9863 O   0  0  0  0  0  0  0  0  0  0  0  0
  147.9587  141.5293  154.6689 C   0  0  0  0  0  0  0  0  0  0  0  0
  146.7945  142.4680  154.6718 C   0  0  0  0  0  0  0  0  0  0  0  0
  146.2733  143.1379  153.5942 C   0  0  0  0  0  0  0  0  0  0  0  0
  145.1449  143.9452  153.9234 C   0  0  0  0  0  0  0  0  0  0  0  0
  144.8115  143.8757  155.2497 C   0  0  0  0  0  0  0  0  0  0  0  0
  145.8801  142.8123  156.1226 S   0  0  0  0  0  0  0  0  0  0  0  0
  151.6050  141.5385  157.2088 C   0  0  0  0  0  0  0  0  0  0  0  0
  151.5159  142.4958  158.2974 N   0  0  0  0  0  0  0  0  0  0  0  0
  150.8266  143.6529  158.3019 C   0  0  0  0  0  0  0  0  0  0  0  0
  150.8760  144.3875  159.4094 N   0  0  0  0  0  0  0  0  0  0  0  0
  151.6935  143.6179  160.2191 C   0  0  0  0  0  0  0  0  0  0  0  0
  152.1441  143.8382  161.5402 C   0  0  0  0  0  0  0  0  0  0  0  0
  152.9854  142.9005  162.1742 C   0  0  0  0  0  0  0  0  0  0  0  0
  153.4078  143.1270  163.4407 F   0  0  0  0  0  0  0  0  0  0  0  0
  153.3890  141.7303  161.4974 C   0  0  0  0  0  0  0  0  0  0  0  0
  154.1979  140.8359  162.1134 F   0  0  0  0  0  0  0  0  0  0  0  0
  152.9524  141.4891  160.1806 C   0  0  0  0  0  0  0  0  0  0  0  0
  152.1119  142.4267  159.5524 C   0  0  0  0  0  0  0  0  0  0  0  0
  150.4098  139.1625  158.0535 H   0  0  0  0  0  0  0  0  0  0  0  0
  150.4109  140.0932  156.1396 H   0  0  0  0  0  0  0  0  0  0  0  0
  148.7090  142.1202  157.6554 H   0  0  0  0  0  0  0  0  0  0  0  0
  149.4463  142.5665  156.1243 H   0  0  0  0  0  0  0  0  0  0  0  0
  148.8640  142.0494  154.3522 H   0  0  0  0  0  0  0  0  0  0  0  0
  147.7765  140.7141  153.9675 H   0  0  0  0  0  0  0  0  0  0  0  0
  146.6610  143.0778  152.5878 H   0  0  0  0  0  0  0  0  0  0  0  0
  144.6236  144.5375  153.1860 H   0  0  0  0  0  0  0  0  0  0  0  0
  144.0061  144.3787  155.7642 H   0  0  0  0  0  0  0  0  0  0  0  0
  152.4131  140.8421  157.4372 H   0  0  0  0  0  0  0  0  0  0  0  0
  151.8983  142.0661  156.3003 H   0  0  0  0  0  0  0  0  0  0  0  0
  150.2564  143.9737  157.4423 H   0  0  0  0  0  0  0  0  0  0  0  0
  151.8427  144.7310  162.0675 H   0  0  0  0  0  0  0  0  0  0  0  0
  153.2624  140.5957  159.6594 H   0  0  0  0  0  0  0  0  0  0  0  0
  1  2  1  0  0  0  0
  1 23  1  0  0  0  0
  2  3  1  0  0  0  0
  2 11  1  0  0  0  0
  2 24  1  0  0  0  0
  3  4  1  0  0  0  0
  3 25  1  0  0  0  0
  3 26  1  0  0  0  0
  4  5  1  0  0  0  0
  5  6  1  0  0  0  0
  5 27  1  0  0  0  0
  5 28  1  0  0  0  0
  6 10  1  0  0  0  0
  6  7  2  0  0  0  0
  7  8  1  0  0  0  0
  7 29  1  0  0  0  0
  8  9  2  0  0  0  0
  8 30  1  0  0  0  0
  9 10  1  0  0  0  0
  9 31  1  0  0  0  0
 11 12  1  0  0  0  0
 11 32  1  0  0  0  0
 11 33  1  0  0  0  0
 12 22  1  0  0  0  0
 12 13  1  0  0  0  0
 13 14  2  0  0  0  0
 13 34  1  0  0  0  0
 14 15  1  0  0  0  0
 15 22  2  0  0  0  0
 15 16  1  0  0  0  0
 16 17  2  0  0  0  0
 16 35  1  0  0  0  0
 17 18  1  0  0  0  0
 17 19  1  0  0  0  0
 19 20  1  0  0  0  0
 19 21  2  0  0  0  0
 21 22  1  0  0  0  0
 21 36  1  0  0  0  0
M  END
> <s_m_source_file>
AV-unprocessed.smi

> <i_m_source_file_index>
304

> <i_lp_mmshare_version>
43012

> <i_f3d_flags>
0

> <s_epik_input>
W2NIXTFjKEYpYyhGKVtjSF1jKGMxMiluKFtjSF1uMilbQ0gyXVtDQEhdKFtPSF0pW0NIMl1PW0NIMl1jM1tjSF1bY0hdW2NIXXMz

> <s_epik_cmdline>
J2VwaWtfcHl0aG9uJywgJy1waCcsICc3LjAnLCAnLXRuJywgJzgnLCAnLW1hJywgJzIwMCcsICctbWV0YWxfYmluZGluZycsICctaW1hZScsICc8aW5maWxlLm1hZT4nLCAnLW9tYWUnLCAnPG91dGZpbGUubWFlPic=

> <r_epik_Ionization_Penalty>
0.0152118

> <r_epik_Ionization_Penalty_Charging>
0

> <r_epik_Ionization_Penalty_Neutral>
0.0152118

> <r_epik_State_Penalty>
0.0119413

> <r_epik_Charging_Adjusted_Penalty>
0.0119413

> <i_epik_Tot_Q>
0

> <i_epik_Tot_abs_Q>
0

> <r_epik_Metal_State_Penalty>
1.20623e-05

> <b_epik_Metal_Only>
0

> <s_lp_Force_Field>
OPLS_2005

> <r_lp_Energy>
8.44111

> <b_lp_Chiralities_Consistent>
1

> <s_lp_Variant>
AV-unprocessed.smi:304-2

> <Gold.Version>
5.8.1

> <Gold.Id.Protein>
6NUR|6NUR_protein|mol2

> <Gold.PLP.Fitness>
52.9085

> <Gold.PLP.PLP>
-51.7593

> <Gold.PLP.part.hbond>
0.0000

> <Gold.PLP.part.metal>
0.0000

> <Gold.PLP.part.buried>
-6.9341

> <Gold.PLP.part.nonpolar>
-43.9454

> <Gold.PLP.part.repulsive>
0.1798

> <Gold.PLP.ligand.clash>
0.0000

> <Gold.PLP.ligand.torsion>
1.0206

> <Gold.PLP.Chemscore.Hbond>
0.0000

> <Gold.PLP.Chemscore.CHOScore>
1.0000

> <Gold.PLP.Chemscore.Metal>
0.0000

> <Gold.Chemscore.Hbonds>
donor molecule, donor type, donor heavy atom, donor atom, acceptor molecule, acceptor atom, score
      L1  C    13    34       P1  8028  1.00

> <Gold.PLP.Chemscore.Internal.Correction>
0.1903

> <Gold.Rescore>
     Score         DG    S(hbond)    S(metal)    S(lipo)     H(rot)  DE(clash)    DE(int)     intcor
     10.94     -12.16       0.00        0.00     114.88       2.64       0.04       1.18       ----

> <Gold.Chemscore.Fitness>
10.9355

> <Gold.Chemscore.DG>
-12.1615

> <Gold.Chemscore.ZeroCoef>
-5.4800

> <Gold.Chemscore.Hbond>
0.0000

> <Gold.Chemscore.Metal>
0.0000

> <Gold.Chemscore.Lipo>
114.8774

> <Gold.Chemscore.Internal_Hbond>
0.0000

> <Gold.Chemscore.DEClash>
0.0411

> <Gold.Chemscore.DEInternal>
1.1849

> <Gold.Chemscore.Rot>
2.6403

> <Gold.Chemscore.Internal.Correction>
   9.000000E+99

> <Gold.Chemscore.Hbond.Weighted>
-0.0000

> <Gold.Chemscore.Metal.Weighted>
-0.0000

> <Gold.Chemscore.Lipo.Weighted>
-13.4407

> <Gold.Chemscore.Internal_Hbond.Weighted>
0.0000

> <Gold.Chemscore.DEClash.Weighted>
0.0411

> <Gold.Chemscore.DEInternal.Weighted>
1.1849

> <Gold.Chemscore.Rot.Weighted>
6.7592

> <Gold.Chemscore.Internal.Correction.Weighted>
   9.000000E+99

> <Gold.Protein.RotatedTorsions>
[ 6907 6896 6895 6894 ] final  -27.94 input  -60.11 | X-H torsion
[ 7974 7965 7964 7962 ] final   17.17 input  175.53 | X-H torsion
[ 8008 7997 7996 7995 ] final    6.64 input   59.86 | X-H torsion
[ 10167 10162 10161 10158 ] final  126.31 input  -65.29 | X-H torsion
[ 10718 10713 10712 10709 ] final  165.62 input   66.30 | X-H torsion
[ 10763 10752 10751 10750 ] final   38.57 input  -60.55 | X-H torsion
[ 11005 11000 10999 10996 ] final  108.03 input  -57.11 | X-H torsion

> <Gold.Protein.ActiveResidues>
 VAL166  LYS551  ARG553  GLY616  TRP617  ASP618  TYR619  PRO620  LYS621  CYS622 
 ASP623  PHE694  ASN695  SER759  ASP760  ASP761  ALA762  ILE779  LEU786  VAL792 
 PHE793  MET794  SER795  GLU796  ALA797  LYS798  CYS799  TRP800  GLU811  SER814 

> <Gold.Protein.RotatedAtoms>
  151.1398  135.0174  159.8620 H   0  0  0  0  0  0  0  0  0  0  0  0  # atno 6907 bound_to 6896
  152.5452  134.1512  159.8529 H   0  0  0  0  0  0  0  0  0  0  0  0  # atno 6908 bound_to 6896
  151.1587  133.4814  159.2627 H   0  0  0  0  0  0  0  0  0  0  0  0  # atno 6909 bound_to 6896
  146.2227  139.8641  142.8599 H   0  0  0  0  0  0  0  0  0  0  0  0  # atno 7974 bound_to 7965
  154.7436  140.2753  155.6352 H   0  0  0  0  0  0  0  0  0  0  0  0  # atno 8008 bound_to 7997
  156.2879  140.2692  156.2096 H   0  0  0  0  0  0  0  0  0  0  0  0  # atno 8009 bound_to 7997
  155.0226  140.0371  157.2433 H   0  0  0  0  0  0  0  0  0  0  0  0  # atno 8010 bound_to 7997
  139.5638  144.6898  151.3968 H   0  0  0  0  0  0  0  0  0  0  0  0  # atno 10167 bound_to 10162
  157.0776  131.0383  151.2588 H   0  0  0  0  0  0  0  0  0  0  0  0  # atno 10718 bound_to 10713
  152.9996  135.6245  154.2326 H   0  0  0  0  0  0  0  0  0  0  0  0  # atno 10763 bound_to 10752
  154.2068  135.2801  155.2973 H   0  0  0  0  0  0  0  0  0  0  0  0  # atno 10764 bound_to 10752
  154.5639  135.5697  153.7091 H   0  0  0  0  0  0  0  0  0  0  0  0  # atno 10765 bound_to 10752
  139.8837  134.9418  156.5910 H   0  0  0  0  0  0  0  0  0  0  0  0  # atno 11005 bound_to 11000
  145.2675  141.0097  143.3791 LP  0  0  0  0  0  0  0  0  0  0  0  0  # atno 17320 bound_to 7965
  144.9250  139.4366  143.6523 LP  0  0  0  0  0  0  0  0  0  0  0  0  # atno 17321 bound_to 7965
  140.6920  143.7839  150.7269 LP  0  0  0  0  0  0  0  0  0  0  0  0  # atno 17342 bound_to 10162
  140.1324  143.4514  152.2246 LP  0  0  0  0  0  0  0  0  0  0  0  0  # atno 17343 bound_to 10162
  157.4827  130.7774  149.7430 LP  0  0  0  0  0  0  0  0  0  0  0  0  # atno 17370 bound_to 10713
  155.9933  130.3925  150.2907 LP  0  0  0  0  0  0  0  0  0  0  0  0  # atno 17371 bound_to 10713
  140.7956  133.8547  155.8682 LP  0  0  0  0  0  0  0  0  0  0  0  0  # atno 17394 bound_to 11000
  140.9639  134.1620  157.4632 LP  0  0  0  0  0  0  0  0  0  0  0  0  # atno 17395 bound_to 11000

$$$$
