AV-unprocessed.smi:1815|AV-procd|sdf|7356|dock9
  -GOLD-   22720 9 13D 1   1.00000     0.00000
 Structure written by MMmdl.
 40 41  0  0  0  0  0  0  0  0  2 V2000
  143.3152  139.7178  155.3477 C   0  0  0  0  0  0  0  0  0  0  0  0
  144.5371  140.2002  156.1495 C   0  0  1  0  0  0  0  0  0  0  0  0
  145.8419  140.2214  155.3296 C   0  0  0  0  0  0  0  0  0  0  0  0
  145.8549  141.3493  154.3677 N   0  3  2  0  0  0  0  0  0  0  0  0
  147.0722  141.3499  153.5190 C   0  0  0  0  0  0  0  0  0  0  0  0
  148.3103  140.8083  154.2594 C   0  0  0  0  0  0  0  0  0  0  0  0
  148.8704  141.8066  155.1628 N   0  0  0  0  0  0  0  0  0  0  0  0
  149.8614  141.5738  156.0356 C   0  0  0  0  0  0  0  0  0  0  0  0
  150.4014  140.4746  156.1658 O   0  0  0  0  0  0  0  0  0  0  0  0
  150.1706  142.6808  156.7333 N   0  0  0  0  0  0  0  0  0  0  0  0
  151.1585  142.8338  157.7416 C   0  0  0  0  0  0  0  0  0  0  0  0
  151.6685  141.8246  158.4573 N   0  0  0  0  0  0  0  0  0  0  0  0
  152.6235  142.2644  159.3775 C   0  0  0  0  0  0  0  0  0  0  0  0
  152.8283  143.6215  159.3497 C   0  0  0  0  0  0  0  0  0  0  0  0
  151.8255  144.4055  158.1582 S   0  0  0  0  0  0  0  0  0  0  0  0
  145.6173  142.6301  155.0759 C   0  0  0  0  0  0  0  0  0  0  0  0
  144.2906  142.5730  155.8545 C   0  0  2  0  0  0  0  0  0  0  0  0
  144.0469  143.8479  156.6697 C   0  0  0  0  0  0  0  0  0  0  0  0
  144.3172  141.4721  156.7592 O   0  0  0  0  0  0  0  0  0  0  0  0
  143.4561  138.6902  155.0112 H   0  0  0  0  0  0  0  0  0  0  0  0
  143.1335  140.3256  154.4617 H   0  0  0  0  0  0  0  0  0  0  0  0
  142.4142  139.7415  155.9609 H   0  0  0  0  0  0  0  0  0  0  0  0
  144.6729  139.4935  156.9689 H   0  0  0  0  0  0  0  0  0  0  0  0
  146.6959  140.3195  156.0018 H   0  0  0  0  0  0  0  0  0  0  0  0
  145.9633  139.2736  154.8031 H   0  0  0  0  0  0  0  0  0  0  0  0
  146.8883  140.7815  152.6059 H   0  0  0  0  0  0  0  0  0  0  0  0
  147.2765  142.3754  153.2076 H   0  0  0  0  0  0  0  0  0  0  0  0
  148.0602  139.9018  154.8134 H   0  0  0  0  0  0  0  0  0  0  0  0
  149.0953  140.5358  153.5551 H   0  0  0  0  0  0  0  0  0  0  0  0
  148.4814  142.7373  155.1166 H   0  0  0  0  0  0  0  0  0  0  0  0
  149.6392  143.5116  156.5190 H   0  0  0  0  0  0  0  0  0  0  0  0
  153.1100  141.5411  160.0151 H   0  0  0  0  0  0  0  0  0  0  0  0
  153.5061  144.2046  159.9553 H   0  0  0  0  0  0  0  0  0  0  0  0
  146.4476  142.8319  155.7549 H   0  0  0  0  0  0  0  0  0  0  0  0
  145.5774  143.4557  154.3664 H   0  0  0  0  0  0  0  0  0  0  0  0
  143.4615  142.4565  155.1561 H   0  0  0  0  0  0  0  0  0  0  0  0
  144.0119  144.7262  156.0247 H   0  0  0  0  0  0  0  0  0  0  0  0
  144.8363  144.0040  157.4056 H   0  0  0  0  0  0  0  0  0  0  0  0
  143.0990  143.7920  157.2055 H   0  0  0  0  0  0  0  0  0  0  0  0
  145.0717  141.2021  153.7469 H   0  0  0  0  0  0  0  0  0  0  0  0
  1  2  1  0  0  0  0
  1 20  1  0  0  0  0
  1 21  1  0  0  0  0
  1 22  1  0  0  0  0
  2 19  1  0  0  0  0
  2  3  1  0  0  0  0
  2 23  1  0  0  0  0
  3  4  1  0  0  0  0
  3 24  1  0  0  0  0
  3 25  1  0  0  0  0
  4  5  1  0  0  0  0
  4 16  1  0  0  0  0
  4 40  1  0  0  0  0
  5  6  1  0  0  0  0
  5 26  1  0  0  0  0
  5 27  1  0  0  0  0
  6  7  1  0  0  0  0
  6 28  1  0  0  0  0
  6 29  1  0  0  0  0
  7  8  1  0  0  0  0
  7 30  1  0  0  0  0
  8  9  2  0  0  0  0
  8 10  1  0  0  0  0
 10 11  1  0  0  0  0
 10 31  1  0  0  0  0
 11 15  1  0  0  0  0
 11 12  2  0  0  0  0
 12 13  1  0  0  0  0
 13 14  2  0  0  0  0
 13 32  1  0  0  0  0
 14 15  1  0  0  0  0
 14 33  1  0  0  0  0
 16 17  1  0  0  0  0
 16 34  1  0  0  0  0
 16 35  1  0  0  0  0
 17 18  1  0  0  0  0
 17 19  1  0  0  0  0
 17 36  1  0  0  0  0
 18 37  1  0  0  0  0
 18 38  1  0  0  0  0
 18 39  1  0  0  0  0
M  CHG  1   4   1
M  END
> <s_m_source_file>
AV-unprocessed.smi

> <i_m_source_file_index>
1815

> <i_lp_mmshare_version>
43012

> <i_f3d_flags>
0

> <s_epik_input>
W0NIM11bQ0BASF0xW0NIMl1OKFtDSDJdW0NASF0oTzEpW0NIM10pW0NIMl1bQ0gyXVtOSF1DKD1PKVtOSF1jMm5bY0hdW2NIXXMy

> <s_epik_cmdline>
J2VwaWtfcHl0aG9uJywgJy1waCcsICc3LjAnLCAnLXRuJywgJzgnLCAnLW1hJywgJzIwMCcsICctbWV0YWxfYmluZGluZycsICctaW1hZScsICc8aW5maWxlLm1hZT4nLCAnLW9tYWUnLCAnPG91dGZpbGUubWFlPic=

> <r_lp_tautomer_probability>
0.999

> <r_epik_Ionization_Penalty>
0.695838

> <r_epik_Ionization_Penalty_Charging>
0.695697

> <r_epik_Ionization_Penalty_Neutral>
0.000141198

> <r_epik_State_Penalty>
0.717972

> <r_epik_Charging_Adjusted_Penalty>
1.41367

> <i_epik_Tot_Q>
1

> <i_epik_Tot_abs_Q>
1

> <r_epik_Metal_State_Penalty>
0.756405

> <b_epik_Metal_Only>
0

> <s_lp_Force_Field>
OPLS_2005

> <r_lp_Energy>
15.0285

> <b_lp_Chiralities_Consistent>
1

> <s_lp_Variant>
AV-unprocessed.smi:1815-7

> <Gold.Version>
5.8.1

> <Gold.Id.Protein>
6NUR|6NUR_protein|mol2

> <Gold.PLP.Fitness>
42.5204

> <Gold.PLP.PLP>
-32.3260

> <Gold.PLP.part.hbond>
-2.9889

> <Gold.PLP.part.metal>
0.0000

> <Gold.PLP.part.buried>
-4.7220

> <Gold.PLP.part.nonpolar>
-25.2878

> <Gold.PLP.part.repulsive>
0.2949

> <Gold.PLP.ligand.clash>
0.0000

> <Gold.PLP.ligand.torsion>
0.5827

> <Gold.PLP.Chemscore.Hbond>
3.7817

> <Gold.PLP.Chemscore.CHOScore>
0.0000

> <Gold.PLP.Chemscore.Metal>
0.0000

> <Gold.Chemscore.Hbonds>
donor molecule, donor type, donor heavy atom, donor atom, acceptor molecule, acceptor atom, score
      L1  H     4    40       P1 10175  2.00
      L1  H     7    30       P1  8028  0.76
      L1  H    10    31       P1  8028  1.00

> <Gold.PLP.Chemscore.Internal.Correction>
0.0145

> <Gold.Rescore>
     Score         DG    S(hbond)    S(metal)    S(lipo)     H(rot)  DE(clash)    DE(int)     intcor
     15.37     -16.84       2.38        0.00      64.95       1.64       0.02       1.45       ----

> <Gold.Chemscore.Fitness>
15.3702

> <Gold.Chemscore.DG>
-16.8444

> <Gold.Chemscore.ZeroCoef>
-5.4800

> <Gold.Chemscore.Hbond>
2.3833

> <Gold.Chemscore.Metal>
0.0000

> <Gold.Chemscore.Lipo>
64.9450

> <Gold.Chemscore.Internal_Hbond>
0.0000

> <Gold.Chemscore.DEClash>
0.0211

> <Gold.Chemscore.DEInternal>
1.4531

> <Gold.Chemscore.Rot>
1.6385

> <Gold.Chemscore.Internal.Correction>
   9.000000E+99

> <Gold.Chemscore.Hbonds>
donor molecule, donor type, donor heavy atom, donor atom, acceptor molecule, acceptor atom, score
      L1  H     4    40       P1 10175  0.53
      L1  H     7    30       P1  8028  0.73
      L1  H    10    31       P1  8028  1.00

> <Gold.Chemscore.Hbond.Weighted>
-7.9603

> <Gold.Chemscore.Metal.Weighted>
-0.0000

> <Gold.Chemscore.Lipo.Weighted>
-7.5986

> <Gold.Chemscore.Internal_Hbond.Weighted>
0.0000

> <Gold.Chemscore.DEClash.Weighted>
0.0211

> <Gold.Chemscore.DEInternal.Weighted>
1.4531

> <Gold.Chemscore.Rot.Weighted>
4.1945

> <Gold.Chemscore.Internal.Correction.Weighted>
   9.000000E+99

> <Gold.Protein.RotatedTorsions>
[ 6907 6896 6895 6894 ] final   34.45 input  -60.11 | X-H torsion
[ 7974 7965 7964 7962 ] final    4.48 input  175.53 | X-H torsion
[ 8008 7997 7996 7995 ] final -150.90 input   59.86 | X-H torsion
[ 10167 10162 10161 10158 ] final   92.76 input  -65.29 | X-H torsion
[ 10718 10713 10712 10709 ] final  -79.91 input   66.30 | X-H torsion
[ 10763 10752 10751 10750 ] final  115.20 input  -60.55 | X-H torsion
[ 11005 11000 10999 10996 ] final  122.58 input  -57.11 | X-H torsion

> <Gold.Protein.ActiveResidues>
 VAL166  LYS551  ARG553  GLY616  TRP617  ASP618  TYR619  PRO620  LYS621  CYS622 
 ASP623  PHE694  ASN695  SER759  ASP760  ASP761  ALA762  ILE779  LEU786  VAL792 
 PHE793  MET794  SER795  GLU796  ALA797  LYS798  CYS799  TRP800  GLU811  SER814 

> <Gold.Protein.RotatedAtoms>
  152.1025  134.9331  160.0568 H   0  0  0  0  0  0  0  0  0  0  0  0  # atno 6907 bound_to 6896
  152.0540  133.4027  159.4397 H   0  0  0  0  0  0  0  0  0  0  0  0  # atno 6908 bound_to 6896
  150.6840  134.3196  159.4824 H   0  0  0  0  0  0  0  0  0  0  0  0  # atno 6909 bound_to 6896
  146.2444  140.0528  142.8374 H   0  0  0  0  0  0  0  0  0  0  0  0  # atno 7974 bound_to 7965
  155.6308  140.0691  157.2649 H   0  0  0  0  0  0  0  0  0  0  0  0  # atno 8008 bound_to 7997
  154.4206  140.1768  156.1519 H   0  0  0  0  0  0  0  0  0  0  0  0  # atno 8009 bound_to 7997
  155.9934  140.3343  155.6778 H   0  0  0  0  0  0  0  0  0  0  0  0  # atno 8010 bound_to 7997
  139.8245  144.6716  150.9477 H   0  0  0  0  0  0  0  0  0  0  0  0  # atno 10167 bound_to 10162
  156.0082  130.4559  150.3720 H   0  0  0  0  0  0  0  0  0  0  0  0  # atno 10718 bound_to 10713
  153.5186  135.3602  155.2621 H   0  0  0  0  0  0  0  0  0  0  0  0  # atno 10763 bound_to 10752
  154.8737  135.4040  154.3286 H   0  0  0  0  0  0  0  0  0  0  0  0  # atno 10764 bound_to 10752
  153.3952  135.7073  153.6533 H   0  0  0  0  0  0  0  0  0  0  0  0  # atno 10765 bound_to 10752
  139.9274  134.9641  156.8130 H   0  0  0  0  0  0  0  0  0  0  0  0  # atno 11005 bound_to 11000
  145.0969  140.9320  143.4736 LP  0  0  0  0  0  0  0  0  0  0  0  0  # atno 17320 bound_to 7965
  145.0713  139.3029  143.5830 LP  0  0  0  0  0  0  0  0  0  0  0  0  # atno 17321 bound_to 7965
  140.7811  143.4060  151.1071 LP  0  0  0  0  0  0  0  0  0  0  0  0  # atno 17342 bound_to 10162
  139.7718  143.8483  152.3122 LP  0  0  0  0  0  0  0  0  0  0  0  0  # atno 17343 bound_to 10162
  157.1804  131.0391  151.2751 LP  0  0  0  0  0  0  0  0  0  0  0  0  # atno 17370 bound_to 10713
  157.4150  130.7406  149.6869 LP  0  0  0  0  0  0  0  0  0  0  0  0  # atno 17371 bound_to 10713
  140.6296  133.9918  155.7656 LP  0  0  0  0  0  0  0  0  0  0  0  0  # atno 17394 bound_to 11000
  141.0842  134.0016  157.3340 LP  0  0  0  0  0  0  0  0  0  0  0  0  # atno 17395 bound_to 11000

$$$$
