AV-unprocessed.smi:1477|AV-procd|sdf|5981|dock5
  -GOLD-   22720 6 73D 1   1.00000     0.00000
 Structure written by MMmdl.
 33 34  0  0  0  0  0  0  0  0  1 V2000
  152.5244  144.4951  157.7769 C   0  0  0  0  0  0  0  0  0  0  0  0
  152.5277  143.9882  159.1511 N   0  0  0  0  0  0  0  0  0  0  0  0
  152.8278  142.6271  159.3477 C   0  0  0  0  0  0  0  0  0  0  0  0
  152.8563  142.0580  160.5668 C   0  0  0  0  0  0  0  0  0  0  0  0
  153.1687  140.6930  160.6420 N   0  0  0  0  0  0  0  0  0  0  0  0
  153.3401  139.7975  159.6493 C   0  0  0  0  0  0  0  0  0  0  0  0
  153.2546  140.0410  158.4470 O   0  0  0  0  0  0  0  0  0  0  0  0
  153.6488  138.3674  160.0928 C   0  0  0  0  0  0  0  0  0  0  0  0
  153.7087  138.3145  161.5102 O   0  0  0  0  0  0  0  0  0  0  0  0
  153.9650  137.0073  161.9936 C   0  0  0  0  0  0  0  0  0  0  0  0
  154.2794  137.0788  163.4726 C   0  0  0  0  0  0  0  0  0  0  0  0
  154.2767  135.8208  164.3114 C   0  0  0  0  0  0  0  0  0  0  0  0
  153.1988  136.8561  164.5066 C   0  0  0  0  0  0  0  0  0  0  0  0
  152.5652  142.9232  161.7013 C   0  0  0  0  0  0  0  0  0  0  0  0
  152.2785  144.2275  161.5198 C   0  0  0  0  0  0  0  0  0  0  0  0
  152.2471  144.8317  160.1857 C   0  0  0  0  0  0  0  0  0  0  0  0
  151.9861  146.0220  160.0084 O   0  0  0  0  0  0  0  0  0  0  0  0
  152.7276  143.7177  157.0397 H   0  0  0  0  0  0  0  0  0  0  0  0
  153.2841  145.2682  157.6536 H   0  0  0  0  0  0  0  0  0  0  0  0
  151.5546  144.9296  157.5303 H   0  0  0  0  0  0  0  0  0  0  0  0
  153.0321  142.0737  158.4421 H   0  0  0  0  0  0  0  0  0  0  0  0
  153.2874  140.3365  161.5793 H   0  0  0  0  0  0  0  0  0  0  0  0
  152.8696  137.7027  159.7174 H   0  0  0  0  0  0  0  0  0  0  0  0
  154.5991  138.0464  159.6626 H   0  0  0  0  0  0  0  0  0  0  0  0
  153.1024  136.3594  161.8285 H   0  0  0  0  0  0  0  0  0  0  0  0
  154.8182  136.5713  161.4719 H   0  0  0  0  0  0  0  0  0  0  0  0
  155.0459  137.8094  163.7244 H   0  0  0  0  0  0  0  0  0  0  0  0
  153.9937  134.8882  163.8272 H   0  0  0  0  0  0  0  0  0  0  0  0
  155.0361  135.7324  165.0856 H   0  0  0  0  0  0  0  0  0  0  0  0
  153.2386  137.4593  165.4113 H   0  0  0  0  0  0  0  0  0  0  0  0
  152.1988  136.6125  164.1529 H   0  0  0  0  0  0  0  0  0  0  0  0
  152.5747  142.5561  162.7142 H   0  0  0  0  0  0  0  0  0  0  0  0
  152.0690  144.8462  162.3800 H   0  0  0  0  0  0  0  0  0  0  0  0
  1  2  1  0  0  0  0
  1 18  1  0  0  0  0
  1 19  1  0  0  0  0
  1 20  1  0  0  0  0
  2 16  1  0  0  0  0
  2  3  1  0  0  0  0
  3  4  2  0  0  0  0
  3 21  1  0  0  0  0
  4  5  1  0  0  0  0
  4 14  1  0  0  0  0
  5  6  1  0  0  0  0
  5 22  1  0  0  0  0
  6  7  2  0  0  0  0
  6  8  1  0  0  0  0
  8  9  1  0  0  0  0
  8 23  1  0  0  0  0
  8 24  1  0  0  0  0
  9 10  1  0  0  0  0
 10 11  1  0  0  0  0
 10 25  1  0  0  0  0
 10 26  1  0  0  0  0
 11 13  1  0  0  0  0
 11 12  1  0  0  0  0
 11 27  1  0  0  0  0
 12 13  1  0  0  0  0
 12 28  1  0  0  0  0
 12 29  1  0  0  0  0
 13 30  1  0  0  0  0
 13 31  1  0  0  0  0
 14 15  2  0  0  0  0
 14 32  1  0  0  0  0
 15 16  1  0  0  0  0
 15 33  1  0  0  0  0
 16 17  2  0  0  0  0
M  END
> <s_m_source_file>
AV-unprocessed.smi

> <i_m_source_file_index>
1477

> <i_lp_mmshare_version>
43012

> <i_f3d_flags>
0

> <s_epik_input>
Tz1jMVtjSF1bY0hdYyhbY0hdbjFbQ0gzXSlbTkhdQyg9TylbQ0gyXU9bQ0gyXVtDSF0yW0NIMl1bQ0gyXTI=

> <s_epik_cmdline>
J2VwaWtfcHl0aG9uJywgJy1waCcsICc3LjAnLCAnLXRuJywgJzgnLCAnLW1hJywgJzIwMCcsICctbWV0YWxfYmluZGluZycsICctaW1hZScsICc8aW5maWxlLm1hZT4nLCAnLW9tYWUnLCAnPG91dGZpbGUubWFlPic=

> <r_lp_tautomer_probability>
1

> <r_epik_Ionization_Penalty>
2.50647e-06

> <r_epik_Ionization_Penalty_Charging>
2.2009e-06

> <r_epik_Ionization_Penalty_Neutral>
3.05566e-07

> <r_epik_State_Penalty>
-0

> <r_epik_Charging_Adjusted_Penalty>
2.2009e-06

> <i_epik_Tot_Q>
0

> <i_epik_Tot_abs_Q>
0

> <r_epik_Metal_State_Penalty>
-0

> <b_epik_Metal_Only>
0

> <s_lp_Force_Field>
OPLS_2005

> <r_lp_Energy>
27.664

> <b_lp_Chiralities_Consistent>
1

> <s_lp_Variant>
AV-unprocessed.smi:1477-1

> <Gold.Version>
5.8.1

> <Gold.Id.Protein>
6NUR|6NUR_protein|mol2

> <Gold.PLP.Fitness>
49.2665

> <Gold.PLP.PLP>
-46.3596

> <Gold.PLP.part.hbond>
-2.2537

> <Gold.PLP.part.metal>
0.0000

> <Gold.PLP.part.buried>
-5.7650

> <Gold.PLP.part.nonpolar>
-39.3463

> <Gold.PLP.part.repulsive>
0.3143

> <Gold.PLP.ligand.clash>
0.0000

> <Gold.PLP.ligand.torsion>
0.3270

> <Gold.PLP.Chemscore.Hbond>
1.0000

> <Gold.PLP.Chemscore.CHOScore>
0.0000

> <Gold.PLP.Chemscore.Metal>
0.0000

> <Gold.Chemscore.Hbonds>
donor molecule, donor type, donor heavy atom, donor atom, acceptor molecule, acceptor atom, score
      P1  H  7997  8008       L1     7  1.00

> <Gold.PLP.Chemscore.Internal.Correction>
0.5609

> <Gold.Rescore>
     Score         DG    S(hbond)    S(metal)    S(lipo)     H(rot)  DE(clash)    DE(int)     intcor
     14.46     -16.29       0.97        0.00      99.22       1.58       0.04       1.80       ----

> <Gold.Chemscore.Fitness>
14.4551

> <Gold.Chemscore.DG>
-16.2902

> <Gold.Chemscore.ZeroCoef>
-5.4800

> <Gold.Chemscore.Hbond>
0.9744

> <Gold.Chemscore.Metal>
0.0000

> <Gold.Chemscore.Lipo>
99.2240

> <Gold.Chemscore.Internal_Hbond>
0.0000

> <Gold.Chemscore.DEClash>
0.0388

> <Gold.Chemscore.DEInternal>
1.7963

> <Gold.Chemscore.Rot>
1.5834

> <Gold.Chemscore.Internal.Correction>
   9.000000E+99

> <Gold.Chemscore.Hbonds>
donor molecule, donor type, donor heavy atom, donor atom, acceptor molecule, acceptor atom, score
      P1  H  7997  8008       L1     7  0.94

> <Gold.Chemscore.Hbond.Weighted>
-3.2547

> <Gold.Chemscore.Metal.Weighted>
-0.0000

> <Gold.Chemscore.Lipo.Weighted>
-11.6092

> <Gold.Chemscore.Internal_Hbond.Weighted>
0.0000

> <Gold.Chemscore.DEClash.Weighted>
0.0388

> <Gold.Chemscore.DEInternal.Weighted>
1.7963

> <Gold.Chemscore.Rot.Weighted>
4.0536

> <Gold.Chemscore.Internal.Correction.Weighted>
   9.000000E+99

> <Gold.Protein.RotatedTorsions>
[ 6907 6896 6895 6894 ] final -173.47 input  -60.11 | X-H torsion
[ 7974 7965 7964 7962 ] final   10.24 input  175.53 | X-H torsion
[ 8008 7997 7996 7995 ] final  -81.67 input   59.86 | X-H torsion
[ 10167 10162 10161 10158 ] final   49.49 input  -65.29 | X-H torsion
[ 10718 10713 10712 10709 ] final -135.34 input   66.30 | X-H torsion
[ 10763 10752 10751 10750 ] final  176.51 input  -60.55 | X-H torsion
[ 11005 11000 10999 10996 ] final   29.41 input  -57.11 | X-H torsion

> <Gold.Protein.ActiveResidues>
 VAL166  LYS551  ARG553  GLY616  TRP617  ASP618  TYR619  PRO620  LYS621  CYS622 
 ASP623  PHE694  ASN695  SER759  ASP760  ASP761  ALA762  ILE779  LEU786  VAL792 
 PHE793  MET794  SER795  GLU796  ALA797  LYS798  CYS799  TRP800  GLU811  SER814 

> <Gold.Protein.RotatedAtoms>
  151.5566  133.3409  159.2962 H   0  0  0  0  0  0  0  0  0  0  0  0  # atno 6907 bound_to 6896
  150.8447  134.7754  159.6972 H   0  0  0  0  0  0  0  0  0  0  0  0  # atno 6908 bound_to 6896
  152.4507  134.5407  159.9890 H   0  0  0  0  0  0  0  0  0  0  0  0  # atno 6909 bound_to 6896
  146.2391  139.9664  142.8452 H   0  0  0  0  0  0  0  0  0  0  0  0  # atno 7974 bound_to 7965
  154.6007  140.0644  156.9364 H   0  0  0  0  0  0  0  0  0  0  0  0  # atno 8008 bound_to 7997
  155.2137  140.3324  155.4307 H   0  0  0  0  0  0  0  0  0  0  0  0  # atno 8009 bound_to 7997
  156.2316  140.1843  156.7211 H   0  0  0  0  0  0  0  0  0  0  0  0  # atno 8010 bound_to 7997
  140.2824  144.3141  150.6261 H   0  0  0  0  0  0  0  0  0  0  0  0  # atno 10167 bound_to 10162
  156.2651  130.7233  151.1181 H   0  0  0  0  0  0  0  0  0  0  0  0  # atno 10718 bound_to 10713
  154.4821  135.2775  155.1562 H   0  0  0  0  0  0  0  0  0  0  0  0  # atno 10763 bound_to 10752
  154.3268  135.6198  153.5536 H   0  0  0  0  0  0  0  0  0  0  0  0  # atno 10764 bound_to 10752
  152.9876  135.5756  154.5224 H   0  0  0  0  0  0  0  0  0  0  0  0  # atno 10765 bound_to 10752
  140.3052  134.2711  155.7745 H   0  0  0  0  0  0  0  0  0  0  0  0  # atno 11005 bound_to 11000
  145.1722  140.9726  143.4315 LP  0  0  0  0  0  0  0  0  0  0  0  0  # atno 17320 bound_to 7965
  145.0018  139.3591  143.6164 LP  0  0  0  0  0  0  0  0  0  0  0  0  # atno 17321 bound_to 7965
  140.5801  143.2173  151.7444 LP  0  0  0  0  0  0  0  0  0  0  0  0  # atno 17342 bound_to 10162
  139.4959  144.4093  152.0098 LP  0  0  0  0  0  0  0  0  0  0  0  0  # atno 17343 bound_to 10162
  157.7264  131.0646  150.5909 LP  0  0  0  0  0  0  0  0  0  0  0  0  # atno 17370 bound_to 10713
  156.6000  130.4352  149.5901 LP  0  0  0  0  0  0  0  0  0  0  0  0  # atno 17371 bound_to 10713
  141.2120  133.7672  156.9826 LP  0  0  0  0  0  0  0  0  0  0  0  0  # atno 17394 bound_to 11000
  140.1073  134.9498  157.2013 LP  0  0  0  0  0  0  0  0  0  0  0  0  # atno 17395 bound_to 11000

$$$$
