AV-unprocessed.smi:1840|AV-procd|sdf|7493|dock4
  -GOLD-   22720 9193D 1   1.00000     0.00000
 Structure written by MMmdl.
 43 44  0  0  0  0  0  0  0  0  1 V2000
  147.9076  138.7385  156.0111 C   0  0  0  0  0  0  0  0  0  0  0  0
  147.7183  139.0594  154.5223 C   0  0  1  0  0  0  0  0  0  0  0  0
  148.9406  139.8044  153.9460 C   0  0  0  0  0  0  0  0  0  0  0  0
  150.2023  139.2609  154.4195 N   0  0  0  0  0  0  0  0  0  0  0  0
  150.6231  137.9476  154.4194 C   0  0  0  0  0  0  0  0  0  0  0  0
  151.8704  137.9203  154.9742 C   0  0  0  0  0  0  0  0  0  0  0  0
  152.1336  139.2845  155.2803 C   0  0  0  0  0  0  0  0  0  0  0  0
  151.1347  140.0849  154.9450 N   0  0  0  0  0  0  0  0  0  0  0  0
  147.4785  137.8146  153.7929 N   0  0  0  0  0  0  0  0  0  0  0  0
  146.4151  137.0124  153.9480 C   0  0  0  0  0  0  0  0  0  0  0  0
  145.5099  137.2136  154.7580 O   0  0  0  0  0  0  0  0  0  0  0  0
  146.4501  135.9758  153.0984 N   0  0  0  0  0  0  0  0  0  0  0  0
  145.4379  134.9234  152.9848 C   0  0  2  0  0  0  0  0  0  0  0  0
  145.8036  133.7426  153.9074 C   0  0  0  0  0  0  0  0  0  0  0  0
  147.0256  132.9591  153.3975 C   0  0  0  0  0  0  0  0  0  0  0  0
  146.8201  132.4888  151.9500 C   0  0  0  0  0  0  0  0  0  0  0  0
  146.4871  133.6676  151.0220 C   0  0  0  0  0  0  0  0  0  0  0  0
  145.2540  134.4502  151.5190 C   0  0  2  0  0  0  0  0  0  0  0  0
  144.8866  135.5901  150.5538 C   0  0  0  0  0  0  0  0  0  0  0  0
  148.0664  139.6479  156.5913 H   0  0  0  0  0  0  0  0  0  0  0  0
  148.7676  138.0874  156.1712 H   0  0  0  0  0  0  0  0  0  0  0  0
  147.0291  138.2378  156.4200 H   0  0  0  0  0  0  0  0  0  0  0  0
  146.8465  139.7116  154.4436 H   0  0  0  0  0  0  0  0  0  0  0  0
  148.9389  139.7370  152.8574 H   0  0  0  0  0  0  0  0  0  0  0  0
  148.8917  140.8671  154.1906 H   0  0  0  0  0  0  0  0  0  0  0  0
  150.0033  137.1508  154.0358 H   0  0  0  0  0  0  0  0  0  0  0  0
  152.4978  137.0571  155.1384 H   0  0  0  0  0  0  0  0  0  0  0  0
  153.0134  139.7137  155.7362 H   0  0  0  0  0  0  0  0  0  0  0  0
  148.1624  137.5616  153.0948 H   0  0  0  0  0  0  0  0  0  0  0  0
  147.2350  135.9122  152.4671 H   0  0  0  0  0  0  0  0  0  0  0  0
  144.4805  135.3140  153.3342 H   0  0  0  0  0  0  0  0  0  0  0  0
  145.9846  134.0975  154.9227 H   0  0  0  0  0  0  0  0  0  0  0  0
  144.9515  133.0648  153.9734 H   0  0  0  0  0  0  0  0  0  0  0  0
  147.9170  133.5845  153.4561 H   0  0  0  0  0  0  0  0  0  0  0  0
  147.2101  132.1002  154.0433 H   0  0  0  0  0  0  0  0  0  0  0  0
  147.7154  131.9779  151.5947 H   0  0  0  0  0  0  0  0  0  0  0  0
  146.0121  131.7568  151.9146 H   0  0  0  0  0  0  0  0  0  0  0  0
  147.3486  134.3331  150.9536 H   0  0  0  0  0  0  0  0  0  0  0  0
  146.3083  133.2951  150.0129 H   0  0  0  0  0  0  0  0  0  0  0  0
  144.4112  133.7571  151.5143 H   0  0  0  0  0  0  0  0  0  0  0  0
  145.7115  136.2918  150.4316 H   0  0  0  0  0  0  0  0  0  0  0  0
  144.0227  136.1487  150.9146 H   0  0  0  0  0  0  0  0  0  0  0  0
  144.6395  135.2014  149.5658 H   0  0  0  0  0  0  0  0  0  0  0  0
  1  2  1  0  0  0  0
  1 20  1  0  0  0  0
  1 21  1  0  0  0  0
  1 22  1  0  0  0  0
  2  3  1  0  0  0  0
  2  9  1  0  0  0  0
  2 23  1  0  0  0  0
  3  4  1  0  0  0  0
  3 24  1  0  0  0  0
  3 25  1  0  0  0  0
  4  8  1  0  0  0  0
  4  5  1  0  0  0  0
  5  6  2  0  0  0  0
  5 26  1  0  0  0  0
  6  7  1  0  0  0  0
  6 27  1  0  0  0  0
  7  8  2  0  0  0  0
  7 28  1  0  0  0  0
  9 10  1  0  0  0  0
  9 29  1  0  0  0  0
 10 11  2  0  0  0  0
 10 12  1  0  0  0  0
 12 13  1  0  0  0  0
 12 30  1  0  0  0  0
 13 18  1  0  0  0  0
 13 14  1  0  0  0  0
 13 31  1  0  0  0  0
 14 15  1  0  0  0  0
 14 32  1  0  0  0  0
 14 33  1  0  0  0  0
 15 16  1  0  0  0  0
 15 34  1  0  0  0  0
 15 35  1  0  0  0  0
 16 17  1  0  0  0  0
 16 36  1  0  0  0  0
 16 37  1  0  0  0  0
 17 18  1  0  0  0  0
 17 38  1  0  0  0  0
 17 39  1  0  0  0  0
 18 19  1  0  0  0  0
 18 40  1  0  0  0  0
 19 41  1  0  0  0  0
 19 42  1  0  0  0  0
 19 43  1  0  0  0  0
M  END
> <s_m_source_file>
AV-unprocessed.smi

> <i_m_source_file_index>
1840

> <i_lp_mmshare_version>
43012

> <i_f3d_flags>
0

> <s_epik_input>
bjFbY0hdW2NIXVtjSF1uMVtDSDJdW0NAQEhdKFtDSDNdKVtOSF1DKD1PKVtOSF1bQ0BASF0yW0NIMl1bQ0gyXVtDSDJdW0NIMl1bQ0BIXTJbQ0gzXQ==

> <s_epik_cmdline>
J2VwaWtfcHl0aG9uJywgJy1waCcsICc3LjAnLCAnLXRuJywgJzgnLCAnLW1hJywgJzIwMCcsICctbWV0YWxfYmluZGluZycsICctaW1hZScsICc8aW5maWxlLm1hZT4nLCAnLW9tYWUnLCAnPG91dGZpbGUubWFlPic=

> <r_lp_tautomer_probability>
1

> <r_epik_Ionization_Penalty>
7.38659e-05

> <r_epik_Ionization_Penalty_Charging>
0

> <r_epik_Ionization_Penalty_Neutral>
7.38659e-05

> <r_epik_State_Penalty>
-0

> <r_epik_Charging_Adjusted_Penalty>
0

> <i_epik_Tot_Q>
0

> <i_epik_Tot_abs_Q>
0

> <r_epik_Metal_State_Penalty>
-0

> <b_epik_Metal_Only>
0

> <s_lp_Force_Field>
OPLS_2005

> <r_lp_Energy>
6.71394

> <b_lp_Chiralities_Consistent>
1

> <s_lp_Variant>
AV-unprocessed.smi:1840-6

> <Gold.Version>
5.8.1

> <Gold.Id.Protein>
6NUR|6NUR_protein|mol2

> <Gold.PLP.Fitness>
40.1800

> <Gold.PLP.PLP>
-29.4493

> <Gold.PLP.part.hbond>
-3.0000

> <Gold.PLP.part.metal>
0.0000

> <Gold.PLP.part.buried>
-1.2485

> <Gold.PLP.part.nonpolar>
-25.6777

> <Gold.PLP.part.repulsive>
0.1087

> <Gold.PLP.ligand.clash>
0.0000

> <Gold.PLP.ligand.torsion>
0.6541

> <Gold.PLP.Chemscore.Hbond>
3.0000

> <Gold.PLP.Chemscore.CHOScore>
0.9991

> <Gold.PLP.Chemscore.Metal>
0.0000

> <Gold.Chemscore.Hbonds>
donor molecule, donor type, donor heavy atom, donor atom, acceptor molecule, acceptor atom, score
      L1  H     9    29       P1  7948  1.00
      L1  H    12    30       P1  7948  1.00
      P1  H  7989  7998       L1     8  0.95
      L1  C     5    26       P1  7948  0.96

> <Gold.PLP.Chemscore.Internal.Correction>
0.0415

> <Gold.Rescore>
     Score         DG    S(hbond)    S(metal)    S(lipo)     H(rot)  DE(clash)    DE(int)     intcor
     14.96     -15.85       1.90        0.00      68.41       1.56       0.31       0.58       ----

> <Gold.Chemscore.Fitness>
14.9591

> <Gold.Chemscore.DG>
-15.8545

> <Gold.Chemscore.ZeroCoef>
-5.4800

> <Gold.Chemscore.Hbond>
1.9037

> <Gold.Chemscore.Metal>
0.0000

> <Gold.Chemscore.Lipo>
68.4084

> <Gold.Chemscore.Internal_Hbond>
0.0000

> <Gold.Chemscore.DEClash>
0.3140

> <Gold.Chemscore.DEInternal>
0.5814

> <Gold.Chemscore.Rot>
1.5576

> <Gold.Chemscore.Internal.Correction>
   9.000000E+99

> <Gold.Chemscore.Hbonds>
donor molecule, donor type, donor heavy atom, donor atom, acceptor molecule, acceptor atom, score
      L1  H     9    29       P1  7948  0.94
      L1  H    12    30       P1  7948  0.99
      P1  H  7989  7998       L1     8  0.11

> <Gold.Chemscore.Hbond.Weighted>
-6.3582

> <Gold.Chemscore.Metal.Weighted>
-0.0000

> <Gold.Chemscore.Lipo.Weighted>
-8.0038

> <Gold.Chemscore.Internal_Hbond.Weighted>
0.0000

> <Gold.Chemscore.DEClash.Weighted>
0.3140

> <Gold.Chemscore.DEInternal.Weighted>
0.5814

> <Gold.Chemscore.Rot.Weighted>
3.9875

> <Gold.Chemscore.Internal.Correction.Weighted>
   9.000000E+99

> <Gold.Protein.RotatedTorsions>
[ 6907 6896 6895 6894 ] final  -26.53 input  -60.11 | X-H torsion
[ 7974 7965 7964 7962 ] final   61.51 input  175.53 | X-H torsion
[ 8008 7997 7996 7995 ] final   82.12 input   59.86 | X-H torsion
[ 10167 10162 10161 10158 ] final   37.94 input  -65.29 | X-H torsion
[ 10718 10713 10712 10709 ] final   86.93 input   66.30 | X-H torsion
[ 10763 10752 10751 10750 ] final   43.96 input  -60.55 | X-H torsion
[ 11005 11000 10999 10996 ] final  -89.18 input  -57.11 | X-H torsion

> <Gold.Protein.ActiveResidues>
 VAL166  LYS551  ARG553  GLY616  TRP617  ASP618  TYR619  PRO620  LYS621  CYS622 
 ASP623  PHE694  ASN695  SER759  ASP760  ASP761  ALA762  ILE779  LEU786  VAL792 
 PHE793  MET794  SER795  GLU796  ALA797  LYS798  CYS799  TRP800  GLU811  SER814 

> <Gold.Protein.RotatedAtoms>
  151.1597  135.0267  159.8704 H   0  0  0  0  0  0  0  0  0  0  0  0  # atno 6907 bound_to 6896
  152.5451  134.1293  159.8442 H   0  0  0  0  0  0  0  0  0  0  0  0  # atno 6908 bound_to 6896
  151.1387  133.4940  159.2630 H   0  0  0  0  0  0  0  0  0  0  0  0  # atno 6909 bound_to 6896
  145.8840  139.3463  143.0689 H   0  0  0  0  0  0  0  0  0  0  0  0  # atno 7974 bound_to 7965
  155.9063  140.3430  155.6064 H   0  0  0  0  0  0  0  0  0  0  0  0  # atno 8008 bound_to 7997
  155.7441  140.0811  157.2251 H   0  0  0  0  0  0  0  0  0  0  0  0  # atno 8009 bound_to 7997
  154.4050  140.1565  156.2636 H   0  0  0  0  0  0  0  0  0  0  0  0  # atno 8010 bound_to 7997
  140.3984  144.1757  150.6133 H   0  0  0  0  0  0  0  0  0  0  0  0  # atno 10167 bound_to 10162
  157.6934  131.0235  150.3047 H   0  0  0  0  0  0  0  0  0  0  0  0  # atno 10718 bound_to 10713
  152.9850  135.6085  154.3196 H   0  0  0  0  0  0  0  0  0  0  0  0  # atno 10763 bound_to 10752
  154.2906  135.2775  155.2658 H   0  0  0  0  0  0  0  0  0  0  0  0  # atno 10764 bound_to 10752
  154.4955  135.5881  153.6548 H   0  0  0  0  0  0  0  0  0  0  0  0  # atno 10765 bound_to 10752
  141.1589  133.7615  156.9558 H   0  0  0  0  0  0  0  0  0  0  0  0  # atno 11005 bound_to 11000
  145.8989  140.9255  143.0513 LP  0  0  0  0  0  0  0  0  0  0  0  0  # atno 17320 bound_to 7965
  144.6728  140.1006  143.7460 LP  0  0  0  0  0  0  0  0  0  0  0  0  # atno 17321 bound_to 7965
  140.4766  143.2394  151.9014 LP  0  0  0  0  0  0  0  0  0  0  0  0  # atno 17342 bound_to 10162
  139.4785  144.5314  151.8661 LP  0  0  0  0  0  0  0  0  0  0  0  0  # atno 17343 bound_to 10162
  156.3558  130.3838  149.7292 LP  0  0  0  0  0  0  0  0  0  0  0  0  # atno 17370 bound_to 10713
  156.4754  130.8016  151.3033 LP  0  0  0  0  0  0  0  0  0  0  0  0  # atno 17371 bound_to 10713
  140.1226  134.9407  157.2225 LP  0  0  0  0  0  0  0  0  0  0  0  0  # atno 17394 bound_to 11000
  140.3053  134.3085  155.7280 LP  0  0  0  0  0  0  0  0  0  0  0  0  # atno 17395 bound_to 11000

$$$$
