AV-unprocessed.smi:899|AV-procd|sdf|4088|dock1
  -GOLD-   22720 1573D 1   1.00000     0.00000
 Structure written by MMmdl.
 32 33  0  0  0  0  0  0  0  0  2 V2000
  148.4778  144.6786  161.1286 N   0  0  0  0  0  0  0  0  0  0  0  0
  149.3743  144.7641  160.4019 C   0  0  0  0  0  0  0  0  0  0  0  0
  150.5133  144.8728  159.4777 C   0  0  0  0  0  0  0  0  0  0  0  0
  151.4534  143.6905  159.5911 C   0  0  0  0  0  0  0  0  0  0  0  0
  151.3119  142.5904  158.7231 C   0  0  0  0  0  0  0  0  0  0  0  0
  152.1869  141.4922  158.8266 C   0  0  0  0  0  0  0  0  0  0  0  0
  153.2138  141.4749  159.7927 C   0  0  0  0  0  0  0  0  0  0  0  0
  154.0274  140.3625  159.8204 O   0  0  0  0  0  0  0  0  0  0  0  0
  155.1680  140.3841  160.6676 C   0  0  0  0  0  0  0  0  0  0  0  0
  155.4364  138.9564  161.1649 C   0  0  0  0  0  0  0  0  0  0  0  0
  154.8212  137.9567  160.2820 N   0  0  0  0  0  0  0  0  0  0  0  0
  155.3434  137.8253  158.9841 C   0  0  0  0  0  0  0  0  0  0  0  0
  154.8439  136.9413  158.0986 C   0  0  0  0  0  0  0  0  0  0  0  0
  155.5060  136.8019  156.5088 Cl  0  0  0  0  0  0  0  0  0  0  0  0
  153.7223  136.1054  158.5223 C   0  0  0  0  0  0  0  0  0  0  0  0
  153.2445  135.2852  157.7398 O   0  0  0  0  0  0  0  0  0  0  0  0
  153.2467  136.2778  159.7905 N   0  5  0  0  0  0  0  0  0  0  0  0
  153.7659  137.1837  160.6756 C   0  0  0  0  0  0  0  0  0  0  0  0
  153.3138  137.3274  161.8119 O   0  0  0  0  0  0  0  0  0  0  0  0
  153.3492  142.5848  160.6649 C   0  0  0  0  0  0  0  0  0  0  0  0
  152.4736  143.6835  160.5627 C   0  0  0  0  0  0  0  0  0  0  0  0
  150.1276  144.9412  158.4601 H   0  0  0  0  0  0  0  0  0  0  0  0
  151.0427  145.8018  159.6916 H   0  0  0  0  0  0  0  0  0  0  0  0
  150.5316  142.5861  157.9761 H   0  0  0  0  0  0  0  0  0  0  0  0
  152.0700  140.6536  158.1558 H   0  0  0  0  0  0  0  0  0  0  0  0
  156.0361  140.7567  160.1212 H   0  0  0  0  0  0  0  0  0  0  0  0
  154.9905  141.0446  161.5180 H   0  0  0  0  0  0  0  0  0  0  0  0
  156.5126  138.7893  161.2274 H   0  0  0  0  0  0  0  0  0  0  0  0
  155.0707  138.8409  162.1866 H   0  0  0  0  0  0  0  0  0  0  0  0
  156.1667  138.4855  158.7532 H   0  0  0  0  0  0  0  0  0  0  0  0
  154.1182  142.6182  161.4216 H   0  0  0  0  0  0  0  0  0  0  0  0
  152.5891  144.5224  161.2333 H   0  0  0  0  0  0  0  0  0  0  0  0
  1  2  3  0  0  0  0
  2  3  1  0  0  0  0
  3  4  1  0  0  0  0
  3 22  1  0  0  0  0
  3 23  1  0  0  0  0
  4 21  1  0  0  0  0
  4  5  2  0  0  0  0
  5  6  1  0  0  0  0
  5 24  1  0  0  0  0
  6  7  2  0  0  0  0
  6 25  1  0  0  0  0
  7  8  1  0  0  0  0
  7 20  1  0  0  0  0
  8  9  1  0  0  0  0
  9 10  1  0  0  0  0
  9 26  1  0  0  0  0
  9 27  1  0  0  0  0
 10 11  1  0  0  0  0
 10 28  1  0  0  0  0
 10 29  1  0  0  0  0
 11 18  1  0  0  0  0
 11 12  1  0  0  0  0
 12 13  2  0  0  0  0
 12 30  1  0  0  0  0
 13 14  1  0  0  0  0
 13 15  1  0  0  0  0
 15 16  2  0  0  0  0
 15 17  1  0  0  0  0
 17 18  1  0  0  0  0
 18 19  2  0  0  0  0
 20 21  2  0  0  0  0
 20 31  1  0  0  0  0
 21 32  1  0  0  0  0
M  CHG  1  17  -1
M  END
> <s_m_source_file>
AV-unprocessed.smi

> <i_m_source_file_index>
899

> <i_lp_mmshare_version>
43012

> <i_f3d_flags>
0

> <s_epik_input>
TiNDW0NIMl1jMVtjSF1bY0hdYyhbY0hdW2NIXTEpT1tDSDJdW0NIMl1uMltjSF1jKENsKWMoPU8pW25IXWMyPU8=

> <s_epik_cmdline>
J2VwaWtfcHl0aG9uJywgJy1waCcsICc3LjAnLCAnLXRuJywgJzgnLCAnLW1hJywgJzIwMCcsICctbWV0YWxfYmluZGluZycsICctaW1hZScsICc8aW5maWxlLm1hZT4nLCAnLW9tYWUnLCAnPG91dGZpbGUubWFlPic=

> <r_lp_tautomer_probability>
1

> <r_epik_Ionization_Penalty>
1.54028

> <r_epik_Ionization_Penalty_Charging>
7.31917e-09

> <r_epik_Ionization_Penalty_Neutral>
1.54028

> <r_epik_State_Penalty>
1.63364

> <r_epik_Charging_Adjusted_Penalty>
1.63364

> <i_epik_Tot_Q>
-1

> <i_epik_Tot_abs_Q>
1

> <r_epik_Metal_State_Penalty>
0.00867927

> <b_epik_Metal_Only>
0

> <s_lp_Force_Field>
OPLS_2005

> <r_lp_Energy>
21.9466

> <b_lp_Chiralities_Consistent>
1

> <s_lp_Variant>
AV-unprocessed.smi:899-2

> <Gold.Version>
5.8.1

> <Gold.Id.Protein>
6NUR|6NUR_protein|mol2

> <Gold.PLP.Fitness>
43.3231

> <Gold.PLP.PLP>
-33.5136

> <Gold.PLP.part.hbond>
-3.0000

> <Gold.PLP.part.metal>
0.0000

> <Gold.PLP.part.buried>
-6.8918

> <Gold.PLP.part.nonpolar>
-25.4605

> <Gold.PLP.part.repulsive>
0.1658

> <Gold.PLP.ligand.clash>
0.0000

> <Gold.PLP.ligand.torsion>
0.9431

> <Gold.PLP.Chemscore.Hbond>
3.8938

> <Gold.PLP.Chemscore.CHOScore>
0.0000

> <Gold.PLP.Chemscore.Metal>
0.0000

> <Gold.Chemscore.Hbonds>
donor molecule, donor type, donor heavy atom, donor atom, acceptor molecule, acceptor atom, score
      P1  H  6896  6907       L1    17  2.00
      P1  H  6933  6944       L1     1  0.22

> <Gold.PLP.Chemscore.Internal.Correction>
0.0144

> <Gold.Rescore>
     Score         DG    S(hbond)    S(metal)    S(lipo)     H(rot)  DE(clash)    DE(int)     intcor
     17.88     -18.96       2.58        0.00      90.66       2.25       0.00       1.08       ----

> <Gold.Chemscore.Fitness>
17.8762

> <Gold.Chemscore.DG>
-18.9600

> <Gold.Chemscore.ZeroCoef>
-5.4800

> <Gold.Chemscore.Hbond>
2.5838

> <Gold.Chemscore.Metal>
0.0000

> <Gold.Chemscore.Lipo>
90.6631

> <Gold.Chemscore.Internal_Hbond>
0.0000

> <Gold.Chemscore.DEClash>
0.0000

> <Gold.Chemscore.DEInternal>
1.0838

> <Gold.Chemscore.Rot>
2.2491

> <Gold.Chemscore.Internal.Correction>
   9.000000E+99

> <Gold.Chemscore.Hbonds>
donor molecule, donor type, donor heavy atom, donor atom, acceptor molecule, acceptor atom, score
      P1  H  6896  6907       L1    17  0.40
      P1  H  6933  6944       L1     1  0.04
      P1  H 10752 10763       L1    16  0.01

> <Gold.Chemscore.Hbond.Weighted>
-8.6300

> <Gold.Chemscore.Metal.Weighted>
-0.0000

> <Gold.Chemscore.Lipo.Weighted>
-10.6076

> <Gold.Chemscore.Internal_Hbond.Weighted>
0.0000

> <Gold.Chemscore.DEClash.Weighted>
0.0000

> <Gold.Chemscore.DEInternal.Weighted>
1.0838

> <Gold.Chemscore.Rot.Weighted>
5.7576

> <Gold.Chemscore.Internal.Correction.Weighted>
   9.000000E+99

> <Gold.Protein.RotatedTorsions>
[ 6907 6896 6895 6894 ] final   43.91 input  -60.11 | X-H torsion
[ 7974 7965 7964 7962 ] final  -99.27 input  175.53 | X-H torsion
[ 8008 7997 7996 7995 ] final   -5.06 input   59.86 | X-H torsion
[ 10167 10162 10161 10158 ] final -156.60 input  -65.29 | X-H torsion
[ 10718 10713 10712 10709 ] final  -66.88 input   66.30 | X-H torsion
[ 10763 10752 10751 10750 ] final  154.32 input  -60.55 | X-H torsion
[ 11005 11000 10999 10996 ] final    9.24 input  -57.11 | X-H torsion

> <Gold.Protein.ActiveResidues>
 VAL166  LYS551  ARG553  GLY616  TRP617  ASP618  TYR619  PRO620  LYS621  CYS622 
 ASP623  PHE694  ASN695  SER759  ASP760  ASP761  ALA762  ILE779  LEU786  VAL792 
 PHE793  MET794  SER795  GLU796  ALA797  LYS798  CYS799  TRP800  GLU811  SER814 

> <Gold.Protein.RotatedAtoms>
  152.2261  134.8367  160.0479 H   0  0  0  0  0  0  0  0  0  0  0  0  # atno 6907 bound_to 6896
  151.9133  133.3561  159.3879 H   0  0  0  0  0  0  0  0  0  0  0  0  # atno 6908 bound_to 6896
  150.7013  134.4635  159.5436 H   0  0  0  0  0  0  0  0  0  0  0  0  # atno 6909 bound_to 6896
  145.3097  140.9397  143.2776 H   0  0  0  0  0  0  0  0  0  0  0  0  # atno 7974 bound_to 7965
  154.6078  140.2468  155.7708 H   0  0  0  0  0  0  0  0  0  0  0  0  # atno 8008 bound_to 7997
  156.2352  140.2953  156.0244 H   0  0  0  0  0  0  0  0  0  0  0  0  # atno 8009 bound_to 7997
  155.2103  140.0397  157.2922 H   0  0  0  0  0  0  0  0  0  0  0  0  # atno 8010 bound_to 7997
  139.6837  143.9538  152.2350 H   0  0  0  0  0  0  0  0  0  0  0  0  # atno 10167 bound_to 10162
  156.0588  130.4269  150.1772 H   0  0  0  0  0  0  0  0  0  0  0  0  # atno 10718 bound_to 10713
  154.1504  135.2815  155.3137 H   0  0  0  0  0  0  0  0  0  0  0  0  # atno 10763 bound_to 10752
  154.6221  135.5463  153.7590 H   0  0  0  0  0  0  0  0  0  0  0  0  # atno 10764 bound_to 10752
  153.0223  135.6441  154.1648 H   0  0  0  0  0  0  0  0  0  0  0  0  # atno 10765 bound_to 10752
  140.5279  134.0495  155.7864 H   0  0  0  0  0  0  0  0  0  0  0  0  # atno 11005 bound_to 11000
  144.9026  139.4630  143.6625 LP  0  0  0  0  0  0  0  0  0  0  0  0  # atno 17320 bound_to 7965
  146.3122  139.7788  142.9011 LP  0  0  0  0  0  0  0  0  0  0  0  0  # atno 17321 bound_to 7965
  139.9335  144.6726  150.8339 LP  0  0  0  0  0  0  0  0  0  0  0  0  # atno 17342 bound_to 10162
  140.7660  143.3293  151.2447 LP  0  0  0  0  0  0  0  0  0  0  0  0  # atno 17343 bound_to 10162
  156.9844  130.9874  151.3430 LP  0  0  0  0  0  0  0  0  0  0  0  0  # atno 17370 bound_to 10713
  157.5580  130.8227  149.8229 LP  0  0  0  0  0  0  0  0  0  0  0  0  # atno 17371 bound_to 10713
  141.1298  133.9322  157.2560 LP  0  0  0  0  0  0  0  0  0  0  0  0  # atno 17394 bound_to 11000
  139.9570  135.0163  156.9155 LP  0  0  0  0  0  0  0  0  0  0  0  0  # atno 17395 bound_to 11000

$$$$
