AV-unprocessed.smi:2482|AV-procd|sdf|9783|dock6
  -GOLD-   2272013423D 1   1.00000     0.00000
 Structure written by MMmdl.
 34 35  0  0  0  0  0  0  0  0  3 V2000
  152.3872  143.7720  161.1475 C   0  0  0  0  0  0  0  0  0  0  0  0
  152.8522  142.4130  160.6580 C   0  0  0  0  0  0  0  0  0  0  0  0
  153.6203  141.7148  161.5217 N   0  0  0  0  0  0  0  0  0  0  0  0
  154.0622  140.5032  161.1308 C   0  0  0  0  0  0  0  0  0  0  0  0
  153.7600  139.9379  159.8777 C   0  0  0  0  0  0  0  0  0  0  0  0
  152.9507  140.6531  158.9669 C   0  0  0  0  0  0  0  0  0  0  0  0
  152.6591  140.1285  157.7651 N   0  5  0  0  0  0  0  0  0  0  0  0
  152.3451  138.8147  157.6586 C   0  0  0  0  0  0  0  0  0  0  0  0
  152.0381  138.0250  158.5544 O   0  0  0  0  0  0  0  0  0  0  0  0
  152.4048  138.3363  156.1905 C   0  0  2  0  0  0  0  0  0  0  0  0
  151.5006  139.1327  155.2199 C   0  0  0  0  0  0  0  0  0  0  0  0
  150.0678  138.8443  155.4669 N   0  3  1  0  0  0  0  0  0  0  0  0
  149.1681  139.6386  154.6044 C   0  0  0  0  0  0  0  0  0  0  0  0
  149.8020  137.3902  155.3889 C   0  0  0  0  0  0  0  0  0  0  0  0
  150.7169  136.6276  156.3610 C   0  0  0  0  0  0  0  0  0  0  0  0
  152.0803  136.9446  156.0838 O   0  0  0  0  0  0  0  0  0  0  0  0
  152.4922  141.9325  159.3762 C   0  0  0  0  0  0  0  0  0  0  0  0
  151.5055  142.8999  158.3288 Cl  0  0  0  0  0  0  0  0  0  0  0  0
  151.2981  143.8107  161.1801 H   0  0  0  0  0  0  0  0  0  0  0  0
  152.7412  144.5568  160.4786 H   0  0  0  0  0  0  0  0  0  0  0  0
  152.7623  143.9882  162.1486 H   0  0  0  0  0  0  0  0  0  0  0  0
  154.6769  139.9665  161.8379 H   0  0  0  0  0  0  0  0  0  0  0  0
  154.1455  138.9619  159.6211 H   0  0  0  0  0  0  0  0  0  0  0  0
  153.4378  138.4546  155.8595 H   0  0  0  0  0  0  0  0  0  0  0  0
  151.6861  140.2034  155.3192 H   0  0  0  0  0  0  0  0  0  0  0  0
  151.7487  138.8698  154.1904 H   0  0  0  0  0  0  0  0  0  0  0  0
  149.3173  139.3938  153.5520 H   0  0  0  0  0  0  0  0  0  0  0  0
  149.3516  140.7052  154.7383 H   0  0  0  0  0  0  0  0  0  0  0  0
  148.1251  139.4460  154.8571 H   0  0  0  0  0  0  0  0  0  0  0  0
  148.7573  137.1913  155.6308 H   0  0  0  0  0  0  0  0  0  0  0  0
  149.9681  137.0416  154.3683 H   0  0  0  0  0  0  0  0  0  0  0  0
  150.4610  136.8545  157.3966 H   0  0  0  0  0  0  0  0  0  0  0  0
  150.5780  135.5535  156.2375 H   0  0  0  0  0  0  0  0  0  0  0  0
  149.8809  139.1238  156.4200 H   0  0  0  0  0  0  0  0  0  0  0  0
  1  2  1  0  0  0  0
  1 19  1  0  0  0  0
  1 20  1  0  0  0  0
  1 21  1  0  0  0  0
  2 17  1  0  0  0  0
  2  3  2  0  0  0  0
  3  4  1  0  0  0  0
  4  5  2  0  0  0  0
  4 22  1  0  0  0  0
  5  6  1  0  0  0  0
  5 23  1  0  0  0  0
  6  7  1  0  0  0  0
  6 17  2  0  0  0  0
  7  8  1  0  0  0  0
  8  9  2  0  0  0  0
  8 10  1  0  0  0  0
 10 16  1  0  0  0  0
 10 11  1  0  0  0  0
 10 24  1  0  0  0  0
 11 12  1  0  0  0  0
 11 25  1  0  0  0  0
 11 26  1  0  0  0  0
 12 13  1  0  0  0  0
 12 14  1  0  0  0  0
 12 34  1  0  0  0  0
 13 27  1  0  0  0  0
 13 28  1  0  0  0  0
 13 29  1  0  0  0  0
 14 15  1  0  0  0  0
 14 30  1  0  0  0  0
 14 31  1  0  0  0  0
 15 16  1  0  0  0  0
 15 32  1  0  0  0  0
 15 33  1  0  0  0  0
 17 18  1  0  0  0  0
M  CHG  1   7  -1
M  CHG  1  12   1
M  END
> <s_m_source_file>
AV-unprocessed.smi

> <i_m_source_file_index>
2482

> <i_lp_mmshare_version>
43012

> <i_f3d_flags>
0

> <s_epik_input>
W0NIM11jMW5bY0hdW2NIXWMoYzFDbClbTkhdQyg9TylbQ0BASF0yW0NIMl1OKFtDSDNdKVtDSDJdW0NIMl1PMg==

> <s_epik_cmdline>
J2VwaWtfcHl0aG9uJywgJy1waCcsICc3LjAnLCAnLXRuJywgJzgnLCAnLW1hJywgJzIwMCcsICctbWV0YWxfYmluZGluZycsICctaW1hZScsICc8aW5maWxlLm1hZT4nLCAnLW9tYWUnLCAnPG91dGZpbGUubWFlPic=

> <r_epik_Ionization_Penalty>
6.9249

> <r_epik_Ionization_Penalty_Charging>
6.74596

> <r_epik_Ionization_Penalty_Neutral>
0.178941

> <r_epik_State_Penalty>
6.78185

> <r_epik_Charging_Adjusted_Penalty>
13.5278

> <i_epik_Tot_Q>
0

> <i_epik_Tot_abs_Q>
2

> <r_epik_Metal_State_Penalty>
2.70608

> <b_epik_Metal_Only>
1

> <s_lp_Force_Field>
OPLS_2005

> <r_lp_Energy>
12.3895

> <b_lp_Chiralities_Consistent>
1

> <s_lp_Variant>
AV-unprocessed.smi:2482-9

> <Gold.Version>
5.8.1

> <Gold.Id.Protein>
6NUR|6NUR_protein|mol2

> <Gold.PLP.Fitness>
40.7384

> <Gold.PLP.PLP>
-32.3050

> <Gold.PLP.part.hbond>
-2.0000

> <Gold.PLP.part.metal>
0.0000

> <Gold.PLP.part.buried>
-3.4451

> <Gold.PLP.part.nonpolar>
-26.3991

> <Gold.PLP.part.repulsive>
0.0721

> <Gold.PLP.ligand.clash>
0.0000

> <Gold.PLP.ligand.torsion>
0.3866

> <Gold.PLP.Chemscore.Hbond>
2.9120

> <Gold.PLP.Chemscore.CHOScore>
0.0000

> <Gold.PLP.Chemscore.Metal>
0.0000

> <Gold.Chemscore.Hbonds>
donor molecule, donor type, donor heavy atom, donor atom, acceptor molecule, acceptor atom, score
      P1  H  7997  8009       L1     7  1.80
      P1  H 10752 10765       L1    16  0.78

> <Gold.PLP.Chemscore.Internal.Correction>
0.4706

> <Gold.Rescore>
     Score         DG    S(hbond)    S(metal)    S(lipo)     H(rot)  DE(clash)    DE(int)     intcor
     14.87     -17.80       1.04        0.00      97.39       1.00       0.00       2.93       ----

> <Gold.Chemscore.Fitness>
14.8724

> <Gold.Chemscore.DG>
-17.7997

> <Gold.Chemscore.ZeroCoef>
-5.4800

> <Gold.Chemscore.Hbond>
1.0433

> <Gold.Chemscore.Metal>
0.0000

> <Gold.Chemscore.Lipo>
97.3945

> <Gold.Chemscore.Internal_Hbond>
0.0000

> <Gold.Chemscore.DEClash>
0.0004

> <Gold.Chemscore.DEInternal>
2.9269

> <Gold.Chemscore.Rot>
1.0000

> <Gold.Chemscore.Internal.Correction>
   9.000000E+99

> <Gold.Chemscore.Hbonds>
donor molecule, donor type, donor heavy atom, donor atom, acceptor molecule, acceptor atom, score
      P1  H  7997  8009       L1     7  0.07
      P1  H 10752 10765       L1    16  0.63

> <Gold.Chemscore.Hbond.Weighted>
-3.4846

> <Gold.Chemscore.Metal.Weighted>
-0.0000

> <Gold.Chemscore.Lipo.Weighted>
-11.3952

> <Gold.Chemscore.Internal_Hbond.Weighted>
0.0000

> <Gold.Chemscore.DEClash.Weighted>
0.0004

> <Gold.Chemscore.DEInternal.Weighted>
2.9269

> <Gold.Chemscore.Rot.Weighted>
2.5600

> <Gold.Chemscore.Internal.Correction.Weighted>
   9.000000E+99

> <Gold.Protein.RotatedTorsions>
[ 6907 6896 6895 6894 ] final -152.15 input  -60.11 | X-H torsion
[ 7974 7965 7964 7962 ] final -112.73 input  175.53 | X-H torsion
[ 8008 7997 7996 7995 ] final  171.33 input   59.86 | X-H torsion
[ 10167 10162 10161 10158 ] final   80.20 input  -65.29 | X-H torsion
[ 10718 10713 10712 10709 ] final  -23.50 input   66.30 | X-H torsion
[ 10763 10752 10751 10750 ] final -169.40 input  -60.55 | X-H torsion
[ 11005 11000 10999 10996 ] final  151.67 input  -57.11 | X-H torsion

> <Gold.Protein.ActiveResidues>
 VAL166  LYS551  ARG553  GLY616  TRP617  ASP618  TYR619  PRO620  LYS621  CYS622 
 ASP623  PHE694  ASN695  SER759  ASP760  ASP761  ALA762  ILE779  LEU786  VAL792 
 PHE793  MET794  SER795  GLU796  ALA797  LYS798  CYS799  TRP800  GLU811  SER814 

> <Gold.Protein.RotatedAtoms>
  151.2236  133.4489  159.2601 H   0  0  0  0  0  0  0  0  0  0  0  0  # atno 6907 bound_to 6896
  151.0861  134.9888  159.8390 H   0  0  0  0  0  0  0  0  0  0  0  0  # atno 6908 bound_to 6896
  152.5429  134.2172  159.8826 H   0  0  0  0  0  0  0  0  0  0  0  0  # atno 6909 bound_to 6896
  145.1405  140.8775  143.3705 H   0  0  0  0  0  0  0  0  0  0  0  0  # atno 7974 bound_to 7965
  156.1282  140.1515  156.9105 H   0  0  0  0  0  0  0  0  0  0  0  0  # atno 8008 bound_to 7997
  154.4888  140.0857  156.7587 H   0  0  0  0  0  0  0  0  0  0  0  0  # atno 8009 bound_to 7997
  155.4305  140.3427  155.4282 H   0  0  0  0  0  0  0  0  0  0  0  0  # atno 8010 bound_to 7997
  139.9523  144.6018  150.8149 H   0  0  0  0  0  0  0  0  0  0  0  0  # atno 10167 bound_to 10162
  156.4902  130.4564  149.6760 H   0  0  0  0  0  0  0  0  0  0  0  0  # atno 10718 bound_to 10713
  154.6527  135.2913  154.9967 H   0  0  0  0  0  0  0  0  0  0  0  0  # atno 10763 bound_to 10752
  154.1054  135.6570  153.4879 H   0  0  0  0  0  0  0  0  0  0  0  0  # atno 10764 bound_to 10752
  153.0385  135.5252  154.7442 H   0  0  0  0  0  0  0  0  0  0  0  0  # atno 10765 bound_to 10752
  140.1240  134.8845  157.2111 H   0  0  0  0  0  0  0  0  0  0  0  0  # atno 11005 bound_to 11000
  145.0537  139.3161  143.5915 LP  0  0  0  0  0  0  0  0  0  0  0  0  # atno 17320 bound_to 7965
  146.3505  139.9954  142.8681 LP  0  0  0  0  0  0  0  0  0  0  0  0  # atno 17321 bound_to 7965
  140.7579  143.3096  151.2878 LP  0  0  0  0  0  0  0  0  0  0  0  0  # atno 17342 bound_to 10162
  139.6619  144.0175  152.2698 LP  0  0  0  0  0  0  0  0  0  0  0  0  # atno 17343 bound_to 10162
  156.3434  130.7394  151.2343 LP  0  0  0  0  0  0  0  0  0  0  0  0  # atno 17370 bound_to 10713
  157.7474  131.0397  150.4564 LP  0  0  0  0  0  0  0  0  0  0  0  0  # atno 17371 bound_to 10713
  140.2928  134.3221  155.7310 LP  0  0  0  0  0  0  0  0  0  0  0  0  # atno 17394 bound_to 11000
  141.2157  133.7545  156.9528 LP  0  0  0  0  0  0  0  0  0  0  0  0  # atno 17395 bound_to 11000

$$$$
