AV-unprocessed.smi:148|AV-procd|sdf|1215|dock6
  -GOLD-   2262018393D 1   1.00000     0.00000
 Structure written by MMmdl.
 63 67  0  0  0  0  0  0  0  0  1 V2000
  149.6230  141.0209  153.4955 O   0  0  0  0  0  0  0  0  0  0  0  0
  148.7001  141.4095  154.4918 C   0  0  0  0  0  0  0  0  0  0  0  0
  148.8588  140.5309  155.7548 C   0  0  1  0  0  0  0  0  0  0  0  0
  149.0228  139.0422  155.3580 C   0  0  0  0  0  0  0  0  0  0  0  0
  147.8213  138.4612  154.7849 N   0  0  0  0  0  0  0  0  0  0  0  0
  147.2883  138.7227  153.5430 C   0  0  0  0  0  0  0  0  0  0  0  0
  146.1996  138.0628  153.2563 N   0  0  0  0  0  0  0  0  0  0  0  0
  145.9564  137.2980  154.3911 C   0  0  0  0  0  0  0  0  0  0  0  0
  144.9530  136.3591  154.7660 C   0  0  0  0  0  0  0  0  0  0  0  0
  143.9155  135.9765  153.9861 N   0  0  0  0  0  0  0  0  0  0  0  0
  142.6602  136.3851  154.6185 C   0  0  0  0  0  0  0  0  0  0  0  0
  141.4621  136.1864  153.6815 C   0  0  0  0  0  0  0  0  0  0  0  0
  141.4066  134.7374  153.1884 C   0  0  0  0  0  0  0  0  0  0  0  0
  142.7325  134.3705  152.5103 C   0  0  0  0  0  0  0  0  0  0  0  0
  143.9422  134.5999  153.4573 C   0  0  1  0  0  0  0  0  0  0  0  0
  145.3087  134.2069  152.8098 C   0  0  1  0  0  0  0  0  0  0  0  0
  145.5500  132.6827  152.7588 C   0  0  0  0  0  0  0  0  0  0  0  0
  145.6075  132.3086  151.2772 C   0  0  0  0  0  0  0  0  0  0  0  0
  146.1894  133.5501  150.6103 C   0  0  0  0  0  0  0  0  0  0  0  0
  145.5341  134.7117  151.3619 C   0  0  2  0  0  0  0  0  0  0  0  0
  146.3578  135.8583  151.3146 O   0  0  0  0  0  0  0  0  0  0  0  0
  145.0559  135.7721  155.9841 N   0  0  0  0  0  0  0  0  0  0  0  0
  146.0619  136.0984  156.8013 C   0  0  0  0  0  0  0  0  0  0  0  0
  147.0589  136.9616  156.5951 N   0  0  0  0  0  0  0  0  0  0  0  0
  146.9677  137.5391  155.3629 C   0  0  0  0  0  0  0  0  0  0  0  0
  149.9804  141.0210  156.7131 C   0  0  2  0  0  0  0  0  0  0  0  0
  151.4133  140.7569  156.2476 C   0  0  0  0  0  0  0  0  0  0  0  0
  152.1045  140.1658  157.4774 C   0  0  0  0  0  0  0  0  0  0  0  0
  151.2898  140.5700  158.5666 O   0  0  0  0  0  0  0  0  0  0  0  0
  149.9460  140.4456  158.1340 C   0  0  0  0  0  0  0  0  0  0  0  0
  149.2005  140.4046  152.9169 H   0  0  0  0  0  0  0  0  0  0  0  0
  148.8572  142.4632  154.7230 H   0  0  0  0  0  0  0  0  0  0  0  0
  147.7021  141.3252  154.0641 H   0  0  0  0  0  0  0  0  0  0  0  0
  147.9289  140.6136  156.3200 H   0  0  0  0  0  0  0  0  0  0  0  0
  149.8254  138.9265  154.6289 H   0  0  0  0  0  0  0  0  0  0  0  0
  149.3101  138.4508  156.2283 H   0  0  0  0  0  0  0  0  0  0  0  0
  147.7403  139.4151  152.8477 H   0  0  0  0  0  0  0  0  0  0  0  0
  142.5122  135.8056  155.5313 H   0  0  0  0  0  0  0  0  0  0  0  0
  142.7142  137.4338  154.9154 H   0  0  0  0  0  0  0  0  0  0  0  0
  140.5372  136.4436  154.1983 H   0  0  0  0  0  0  0  0  0  0  0  0
  141.5441  136.8642  152.8307 H   0  0  0  0  0  0  0  0  0  0  0  0
  141.2205  134.0656  154.0274 H   0  0  0  0  0  0  0  0  0  0  0  0
  140.5780  134.6078  152.4917 H   0  0  0  0  0  0  0  0  0  0  0  0
  142.6831  133.3325  152.1843 H   0  0  0  0  0  0  0  0  0  0  0  0
  142.8281  134.9680  151.6050 H   0  0  0  0  0  0  0  0  0  0  0  0
  143.7912  133.9345  154.3074 H   0  0  0  0  0  0  0  0  0  0  0  0
  146.1124  134.5954  153.4367 H   0  0  0  0  0  0  0  0  0  0  0  0
  146.5144  132.4581  153.2168 H   0  0  0  0  0  0  0  0  0  0  0  0
  144.8080  132.1006  153.3053 H   0  0  0  0  0  0  0  0  0  0  0  0
  146.2029  131.4138  151.0928 H   0  0  0  0  0  0  0  0  0  0  0  0
  144.6002  132.1248  150.9010 H   0  0  0  0  0  0  0  0  0  0  0  0
  147.2710  133.5619  150.7568 H   0  0  0  0  0  0  0  0  0  0  0  0
  145.9982  133.5828  149.5375 H   0  0  0  0  0  0  0  0  0  0  0  0
  144.5918  134.9568  150.8760 H   0  0  0  0  0  0  0  0  0  0  0  0
  147.2450  135.5984  151.5141 H   0  0  0  0  0  0  0  0  0  0  0  0
  146.0707  135.5939  157.7562 H   0  0  0  0  0  0  0  0  0  0  0  0
  149.9090  142.1047  156.8100 H   0  0  0  0  0  0  0  0  0  0  0  0
  151.4859  140.0882  155.3904 H   0  0  0  0  0  0  0  0  0  0  0  0
  151.8873  141.6964  155.9598 H   0  0  0  0  0  0  0  0  0  0  0  0
  152.1180  139.0760  157.4240 H   0  0  0  0  0  0  0  0  0  0  0  0
  153.1308  140.5151  157.5924 H   0  0  0  0  0  0  0  0  0  0  0  0
  149.2634  140.9870  158.7893 H   0  0  0  0  0  0  0  0  0  0  0  0
  149.6694  139.3913  158.1501 H   0  0  0  0  0  0  0  0  0  0  0  0
  1  2  1  0  0  0  0
  1 31  1  0  0  0  0
  2  3  1  0  0  0  0
  2 32  1  0  0  0  0
  2 33  1  0  0  0  0
  3  4  1  0  0  0  0
  3 26  1  0  0  0  0
  3 34  1  0  0  0  0
  4  5  1  0  0  0  0
  4 35  1  0  0  0  0
  4 36  1  0  0  0  0
  5 25  1  0  0  0  0
  5  6  1  0  0  0  0
  6  7  2  0  0  0  0
  6 37  1  0  0  0  0
  7  8  1  0  0  0  0
  8 25  2  0  0  0  0
  8  9  1  0  0  0  0
  9 10  1  0  0  0  0
  9 22  2  0  0  0  0
 10 15  1  0  0  0  0
 10 11  1  0  0  0  0
 11 12  1  0  0  0  0
 11 38  1  0  0  0  0
 11 39  1  0  0  0  0
 12 13  1  0  0  0  0
 12 40  1  0  0  0  0
 12 41  1  0  0  0  0
 13 14  1  0  0  0  0
 13 42  1  0  0  0  0
 13 43  1  0  0  0  0
 14 15  1  0  0  0  0
 14 44  1  0  0  0  0
 14 45  1  0  0  0  0
 15 16  1  0  0  0  0
 15 46  1  0  0  0  0
 16 20  1  0  0  0  0
 16 17  1  0  0  0  0
 16 47  1  0  0  0  0
 17 18  1  0  0  0  0
 17 48  1  0  0  0  0
 17 49  1  0  0  0  0
 18 19  1  0  0  0  0
 18 50  1  0  0  0  0
 18 51  1  0  0  0  0
 19 20  1  0  0  0  0
 19 52  1  0  0  0  0
 19 53  1  0  0  0  0
 20 21  1  0  0  0  0
 20 54  1  0  0  0  0
 21 55  1  0  0  0  0
 22 23  1  0  0  0  0
 23 24  2  0  0  0  0
 23 56  1  0  0  0  0
 24 25  1  0  0  0  0
 26 30  1  0  0  0  0
 26 27  1  0  0  0  0
 26 57  1  0  0  0  0
 27 28  1  0  0  0  0
 27 58  1  0  0  0  0
 27 59  1  0  0  0  0
 28 29  1  0  0  0  0
 28 60  1  0  0  0  0
 28 61  1  0  0  0  0
 29 30  1  0  0  0  0
 30 62  1  0  0  0  0
 30 63  1  0  0  0  0
M  END
> <s_m_source_file>
AV-unprocessed.smi

> <i_m_source_file_index>
148

> <i_lp_mmshare_version>
43012

> <i_f3d_flags>
0

> <s_epik_input>
W0NIMl0xT1tDSDJdW0NIMl1bQ0BIXTFbQ0BIXShbQ0gyXVtPSF0pW0NIMl1uKFtjSF1uMiljKGMyMyluW2NIXW5jM040W0NIMl1bQ0gyXVtDSDJdW0NIMl1bQ0BIXTRbQ0BASF01W0NIMl1bQ0gyXVtDSDJdW0NASF01W09IXQ==

> <s_epik_cmdline>
J2VwaWtfcHl0aG9uJywgJy1waCcsICc3LjAnLCAnLXRuJywgJzgnLCAnLW1hJywgJzIwMCcsICctbWV0YWxfYmluZGluZycsICctaW1hZScsICc8aW5maWxlLm1hZT4nLCAnLW9tYWUnLCAnPG91dGZpbGUubWFlPic=

> <r_lp_tautomer_probability>
1

> <r_epik_Ionization_Penalty>
0.00556303

> <r_epik_Ionization_Penalty_Charging>
0

> <r_epik_Ionization_Penalty_Neutral>
0.00556303

> <r_epik_State_Penalty>
0.00401767

> <r_epik_Charging_Adjusted_Penalty>
0.00401767

> <i_epik_Tot_Q>
0

> <i_epik_Tot_abs_Q>
0

> <r_epik_Metal_State_Penalty>
-0

> <b_epik_Metal_Only>
0

> <s_lp_Force_Field>
OPLS_2005

> <r_lp_Energy>
68.8828

> <b_lp_Chiralities_Consistent>
1

> <s_lp_Variant>
AV-unprocessed.smi:148-14

> <Gold.Version>
5.8.1

> <Gold.Id.Protein>
6NUR|6NUR_protein|mol2

> <Gold.PLP.Fitness>
45.6155

> <Gold.PLP.PLP>
-36.2132

> <Gold.PLP.part.hbond>
-3.7846

> <Gold.PLP.part.metal>
0.0000

> <Gold.PLP.part.buried>
-4.5581

> <Gold.PLP.part.nonpolar>
-26.7961

> <Gold.PLP.part.repulsive>
0.2722

> <Gold.PLP.ligand.clash>
0.0000

> <Gold.PLP.ligand.torsion>
0.9821

> <Gold.PLP.Chemscore.Hbond>
2.7120

> <Gold.PLP.Chemscore.CHOScore>
0.9608

> <Gold.PLP.Chemscore.Metal>
0.0000

> <Gold.Chemscore.Hbonds>
donor molecule, donor type, donor heavy atom, donor atom, acceptor molecule, acceptor atom, score
      L1  H     1    31       P1  7957  0.56
      L1  H    21    55       P1  7948  0.90
      P1  H  7989  7998       L1     1  0.26
      P1  H  8011  8017       L1     1  0.95
      L1  C     6    37       P1  7957  0.88

> <Gold.PLP.Chemscore.Internal.Correction>
0.3483

> <Gold.Rescore>
     Score         DG    S(hbond)    S(metal)    S(lipo)     H(rot)  DE(clash)    DE(int)     intcor
     13.84     -14.87       2.19        0.00      90.37       3.32       0.06       0.97       ----

> <Gold.Chemscore.Fitness>
13.8402

> <Gold.Chemscore.DG>
-14.8705

> <Gold.Chemscore.ZeroCoef>
-5.4800

> <Gold.Chemscore.Hbond>
2.1909

> <Gold.Chemscore.Metal>
0.0000

> <Gold.Chemscore.Lipo>
90.3674

> <Gold.Chemscore.Internal_Hbond>
0.0000

> <Gold.Chemscore.DEClash>
0.0569

> <Gold.Chemscore.DEInternal>
0.9734

> <Gold.Chemscore.Rot>
3.3203

> <Gold.Chemscore.Internal.Correction>
   9.000000E+99

> <Gold.Chemscore.Hbonds>
donor molecule, donor type, donor heavy atom, donor atom, acceptor molecule, acceptor atom, score
      L1  H     1    31       P1  7957  0.56
      L1  H    21    55       P1  7948  0.87
      P1  H  7989  7998       L1     1  0.22
      P1  H  8011  8017       L1     1  0.14

> <Gold.Chemscore.Hbond.Weighted>
-7.3175

> <Gold.Chemscore.Metal.Weighted>
-0.0000

> <Gold.Chemscore.Lipo.Weighted>
-10.5730

> <Gold.Chemscore.Internal_Hbond.Weighted>
0.0000

> <Gold.Chemscore.DEClash.Weighted>
0.0569

> <Gold.Chemscore.DEInternal.Weighted>
0.9734

> <Gold.Chemscore.Rot.Weighted>
8.5000

> <Gold.Chemscore.Internal.Correction.Weighted>
   9.000000E+99

> <Gold.Protein.RotatedTorsions>
[ 6907 6896 6895 6894 ] final   36.30 input  -60.11 | X-H torsion
[ 7974 7965 7964 7962 ] final -177.14 input  175.53 | X-H torsion
[ 8008 7997 7996 7995 ] final  -54.12 input   59.86 | X-H torsion
[ 10167 10162 10161 10158 ] final   32.73 input  -65.29 | X-H torsion
[ 10718 10713 10712 10709 ] final  -16.86 input   66.30 | X-H torsion
[ 10763 10752 10751 10750 ] final -149.37 input  -60.55 | X-H torsion
[ 11005 11000 10999 10996 ] final -175.05 input  -57.11 | X-H torsion

> <Gold.Protein.ActiveResidues>
 VAL166  LYS551  ARG553  GLY616  TRP617  ASP618  TYR619  PRO620  LYS621  CYS622 
 ASP623  PHE694  ASN695  SER759  ASP760  ASP761  ALA762  ILE779  LEU786  VAL792 
 PHE793  MET794  SER795  GLU796  ALA797  LYS798  CYS799  TRP800  GLU811  SER814 

> <Gold.Protein.RotatedAtoms>
  152.1278  134.9158  160.0559 H   0  0  0  0  0  0  0  0  0  0  0  0  # atno 6907 bound_to 6896
  152.0274  133.3918  159.4291 H   0  0  0  0  0  0  0  0  0  0  0  0  # atno 6908 bound_to 6896
  150.6854  134.3480  159.4940 H   0  0  0  0  0  0  0  0  0  0  0  0  # atno 6909 bound_to 6896
  144.7127  140.1064  143.6413 H   0  0  0  0  0  0  0  0  0  0  0  0  # atno 7974 bound_to 7965
  154.4153  140.1184  156.5264 H   0  0  0  0  0  0  0  0  0  0  0  0  # atno 8008 bound_to 7997
  155.6650  140.3496  155.4777 H   0  0  0  0  0  0  0  0  0  0  0  0  # atno 8009 bound_to 7997
  155.9681  140.1136  157.0826 H   0  0  0  0  0  0  0  0  0  0  0  0  # atno 8010 bound_to 7997
  140.4472  144.1102  150.6184 H   0  0  0  0  0  0  0  0  0  0  0  0  # atno 10167 bound_to 10162
  156.5817  130.4776  149.6317 H   0  0  0  0  0  0  0  0  0  0  0  0  # atno 10718 bound_to 10713
  154.8181  135.3311  154.7119 H   0  0  0  0  0  0  0  0  0  0  0  0  # atno 10763 bound_to 10752
  153.7756  135.6922  153.4902 H   0  0  0  0  0  0  0  0  0  0  0  0  # atno 10764 bound_to 10752
  153.2015  135.4514  155.0220 H   0  0  0  0  0  0  0  0  0  0  0  0  # atno 10765 bound_to 10752
  140.4676  134.6196  157.4869 H   0  0  0  0  0  0  0  0  0  0  0  0  # atno 11005 bound_to 11000
  145.9492  139.2722  143.1222 LP  0  0  0  0  0  0  0  0  0  0  0  0  # atno 17320 bound_to 7965
  145.9341  140.9027  143.0341 LP  0  0  0  0  0  0  0  0  0  0  0  0  # atno 17321 bound_to 7965
  140.4250  143.2594  151.9668 LP  0  0  0  0  0  0  0  0  0  0  0  0  # atno 17342 bound_to 10162
  139.4793  144.5796  151.7954 LP  0  0  0  0  0  0  0  0  0  0  0  0  # atno 17343 bound_to 10162
  156.2626  130.6971  151.1744 LP  0  0  0  0  0  0  0  0  0  0  0  0  # atno 17370 bound_to 10713
  157.7325  131.0599  150.5626 LP  0  0  0  0  0  0  0  0  0  0  0  0  # atno 17371 bound_to 10713
  139.9905  134.6992  155.9697 LP  0  0  0  0  0  0  0  0  0  0  0  0  # atno 17394 bound_to 11000
  141.1592  133.6540  156.4262 LP  0  0  0  0  0  0  0  0  0  0  0  0  # atno 17395 bound_to 11000

$$$$
