AV-unprocessed.smi:3220|AV-procd|sdf|12298|dock7
  -GOLD-   2272018143D 1   1.00000     0.00000
 Structure written by MMmdl.
 33 34  0  0  0  0  0  0  0  0  1 V2000
  153.2666  139.5545  159.3855 C   0  0  0  0  0  0  0  0  0  0  0  0
  152.3788  140.7965  159.5409 C   0  0  1  0  0  0  0  0  0  0  0  0
  153.1496  141.9556  160.2097 C   0  0  0  0  0  0  0  0  0  0  0  0
  152.3896  143.1926  160.2456 N   0  0  0  0  0  0  0  0  0  0  0  0
  152.5119  144.2987  159.4306 C   0  0  0  0  0  0  0  0  0  0  0  0
  151.5748  145.2060  159.8343 C   0  0  0  0  0  0  0  0  0  0  0  0
  150.9224  144.5572  160.9199 C   0  0  0  0  0  0  0  0  0  0  0  0
  151.4151  143.3543  161.1665 N   0  0  0  0  0  0  0  0  0  0  0  0
  151.8847  141.1917  158.2222 N   0  0  0  0  0  0  0  0  0  0  0  0
  151.2758  140.3869  157.3369 C   0  0  0  0  0  0  0  0  0  0  0  0
  151.0826  139.1866  157.5346 O   0  0  0  0  0  0  0  0  0  0  0  0
  150.8099  141.0475  156.0306 C   0  0  2  0  0  0  0  0  0  0  0  0
  149.2842  140.9790  155.8195 C   0  0  0  0  0  0  0  0  0  0  0  0
  149.1192  140.2282  154.5093 C   0  0  0  0  0  0  0  0  0  0  0  0
  150.4178  139.4424  154.4010 C   0  0  0  0  0  0  0  0  0  0  0  0
  151.3792  140.3461  154.9260 O   0  0  0  0  0  0  0  0  0  0  0  0
  153.6364  139.2137  160.3530 H   0  0  0  0  0  0  0  0  0  0  0  0
  154.1312  139.7591  158.7528 H   0  0  0  0  0  0  0  0  0  0  0  0
  152.7124  138.7291  158.9374 H   0  0  0  0  0  0  0  0  0  0  0  0
  151.5411  140.5134  160.1812 H   0  0  0  0  0  0  0  0  0  0  0  0
  153.4076  141.6910  161.2364 H   0  0  0  0  0  0  0  0  0  0  0  0
  154.0923  142.1384  159.6917 H   0  0  0  0  0  0  0  0  0  0  0  0
  153.2419  144.3440  158.6358 H   0  0  0  0  0  0  0  0  0  0  0  0
  151.3832  146.1834  159.4172 H   0  0  0  0  0  0  0  0  0  0  0  0
  150.1116  144.9227  161.5328 H   0  0  0  0  0  0  0  0  0  0  0  0
  152.0059  142.1610  157.9663 H   0  0  0  0  0  0  0  0  0  0  0  0
  151.1539  142.0824  155.9929 H   0  0  0  0  0  0  0  0  0  0  0  0
  148.7803  140.4435  156.6261 H   0  0  0  0  0  0  0  0  0  0  0  0
  148.8370  141.9720  155.7658 H   0  0  0  0  0  0  0  0  0  0  0  0
  148.2340  139.5922  154.4889 H   0  0  0  0  0  0  0  0  0  0  0  0
  149.0486  140.9364  153.6827 H   0  0  0  0  0  0  0  0  0  0  0  0
  150.3814  138.5390  155.0118 H   0  0  0  0  0  0  0  0  0  0  0  0
  150.6529  139.1549  153.3760 H   0  0  0  0  0  0  0  0  0  0  0  0
  1  2  1  0  0  0  0
  1 17  1  0  0  0  0
  1 18  1  0  0  0  0
  1 19  1  0  0  0  0
  2  3  1  0  0  0  0
  2  9  1  0  0  0  0
  2 20  1  0  0  0  0
  3  4  1  0  0  0  0
  3 21  1  0  0  0  0
  3 22  1  0  0  0  0
  4  8  1  0  0  0  0
  4  5  1  0  0  0  0
  5  6  2  0  0  0  0
  5 23  1  0  0  0  0
  6  7  1  0  0  0  0
  6 24  1  0  0  0  0
  7  8  2  0  0  0  0
  7 25  1  0  0  0  0
  9 10  1  0  0  0  0
  9 26  1  0  0  0  0
 10 11  2  0  0  0  0
 10 12  1  0  0  0  0
 12 16  1  0  0  0  0
 12 13  1  0  0  0  0
 12 27  1  0  0  0  0
 13 14  1  0  0  0  0
 13 28  1  0  0  0  0
 13 29  1  0  0  0  0
 14 15  1  0  0  0  0
 14 30  1  0  0  0  0
 14 31  1  0  0  0  0
 15 16  1  0  0  0  0
 15 32  1  0  0  0  0
 15 33  1  0  0  0  0
M  END
> <s_m_source_file>
AV-unprocessed.smi

> <i_m_source_file_index>
3220

> <i_lp_mmshare_version>
43012

> <i_f3d_flags>
0

> <s_epik_input>
bjFbY0hdW2NIXVtjSF1uMVtDSDJdW0NAQEhdKFtDSDNdKVtOSF1DKD1PKVtDQEBIXTJbQ0gyXVtDSDJdW0NIMl1PMg==

> <s_epik_cmdline>
J2VwaWtfcHl0aG9uJywgJy1waCcsICc3LjAnLCAnLXRuJywgJzgnLCAnLW1hJywgJzIwMCcsICctbWV0YWxfYmluZGluZycsICctaW1hZScsICc8aW5maWxlLm1hZT4nLCAnLW9tYWUnLCAnPG91dGZpbGUubWFlPic=

> <r_lp_tautomer_probability>
1

> <r_epik_Ionization_Penalty>
0.00033363

> <r_epik_Ionization_Penalty_Charging>
0

> <r_epik_Ionization_Penalty_Neutral>
0.00033363

> <r_epik_State_Penalty>
-0

> <r_epik_Charging_Adjusted_Penalty>
0

> <i_epik_Tot_Q>
0

> <i_epik_Tot_abs_Q>
0

> <r_epik_Metal_State_Penalty>
-0

> <b_epik_Metal_Only>
0

> <s_lp_Force_Field>
OPLS_2005

> <r_lp_Energy>
18.0853

> <b_lp_Chiralities_Consistent>
1

> <s_lp_Variant>
AV-unprocessed.smi:3220-2

> <Gold.Version>
5.8.1

> <Gold.Id.Protein>
6NUR|6NUR_protein|mol2

> <Gold.PLP.Fitness>
41.6421

> <Gold.PLP.PLP>
-39.3021

> <Gold.PLP.part.hbond>
-1.1124

> <Gold.PLP.part.metal>
0.0000

> <Gold.PLP.part.buried>
-6.2806

> <Gold.PLP.part.nonpolar>
-33.0836

> <Gold.PLP.part.repulsive>
0.2546

> <Gold.PLP.ligand.clash>
0.0000

> <Gold.PLP.ligand.torsion>
0.3409

> <Gold.PLP.Chemscore.Hbond>
1.0000

> <Gold.PLP.Chemscore.CHOScore>
0.0000

> <Gold.PLP.Chemscore.Metal>
0.0000

> <Gold.Chemscore.Hbonds>
donor molecule, donor type, donor heavy atom, donor atom, acceptor molecule, acceptor atom, score
      P1  H  6933  6945       L1     8  0.07
      P1  H  7989  7998       L1    16  0.50

> <Gold.PLP.Chemscore.Internal.Correction>
0.0217

> <Gold.Rescore>
     Score         DG    S(hbond)    S(metal)    S(lipo)     H(rot)  DE(clash)    DE(int)     intcor
     13.18     -14.81       0.91        0.00      89.31       1.62       0.04       1.60       ----

> <Gold.Chemscore.Fitness>
13.1816

> <Gold.Chemscore.DG>
-14.8141

> <Gold.Chemscore.ZeroCoef>
-5.4800

> <Gold.Chemscore.Hbond>
0.9093

> <Gold.Chemscore.Metal>
0.0000

> <Gold.Chemscore.Lipo>
89.3063

> <Gold.Chemscore.Internal_Hbond>
0.0000

> <Gold.Chemscore.DEClash>
0.0363

> <Gold.Chemscore.DEInternal>
1.5961

> <Gold.Chemscore.Rot>
1.6219

> <Gold.Chemscore.Internal.Correction>
   9.000000E+99

> <Gold.Chemscore.Hbonds>
donor molecule, donor type, donor heavy atom, donor atom, acceptor molecule, acceptor atom, score
      P1  H  6933  6945       L1     8  0.07
      P1  H  7989  7998       L1    16  0.02

> <Gold.Chemscore.Hbond.Weighted>
-3.0372

> <Gold.Chemscore.Metal.Weighted>
-0.0000

> <Gold.Chemscore.Lipo.Weighted>
-10.4488

> <Gold.Chemscore.Internal_Hbond.Weighted>
0.0000

> <Gold.Chemscore.DEClash.Weighted>
0.0363

> <Gold.Chemscore.DEInternal.Weighted>
1.5961

> <Gold.Chemscore.Rot.Weighted>
4.1520

> <Gold.Chemscore.Internal.Correction.Weighted>
   9.000000E+99

> <Gold.Protein.RotatedTorsions>
[ 6907 6896 6895 6894 ] final -149.17 input  -60.11 | X-H torsion
[ 7974 7965 7964 7962 ] final    3.49 input  175.53 | X-H torsion
[ 8008 7997 7996 7995 ] final -107.31 input   59.86 | X-H torsion
[ 10167 10162 10161 10158 ] final -178.36 input  -65.29 | X-H torsion
[ 10718 10713 10712 10709 ] final   91.18 input   66.30 | X-H torsion
[ 10763 10752 10751 10750 ] final -130.90 input  -60.55 | X-H torsion
[ 11005 11000 10999 10996 ] final  165.76 input  -57.11 | X-H torsion

> <Gold.Protein.ActiveResidues>
 VAL166  LYS551  ARG553  GLY616  TRP617  ASP618  TYR619  PRO620  LYS621  CYS622 
 ASP623  PHE694  ASN695  SER759  ASP760  ASP761  ALA762  ILE779  LEU786  VAL792 
 PHE793  MET794  SER795  GLU796  ALA797  LYS798  CYS799  TRP800  GLU811  SER814 

> <Gold.Protein.RotatedAtoms>
  151.1803  133.4729  159.2593 H   0  0  0  0  0  0  0  0  0  0  0  0  # atno 6907 bound_to 6896
  151.1266  135.0108  159.8573 H   0  0  0  0  0  0  0  0  0  0  0  0  # atno 6908 bound_to 6896
  152.5458  134.1710  159.8649 H   0  0  0  0  0  0  0  0  0  0  0  0  # atno 6909 bound_to 6896
  146.2445  140.0677  142.8364 H   0  0  0  0  0  0  0  0  0  0  0  0  # atno 7974 bound_to 7965
  154.9275  140.0406  157.2030 H   0  0  0  0  0  0  0  0  0  0  0  0  # atno 8008 bound_to 7997
  154.8193  140.2881  155.5776 H   0  0  0  0  0  0  0  0  0  0  0  0  # atno 8009 bound_to 7997
  156.2978  140.2522  156.3097 H   0  0  0  0  0  0  0  0  0  0  0  0  # atno 8010 bound_to 7997
  139.5436  144.2296  152.0944 H   0  0  0  0  0  0  0  0  0  0  0  0  # atno 10167 bound_to 10162
  157.6960  131.0398  150.3691 H   0  0  0  0  0  0  0  0  0  0  0  0  # atno 10718 bound_to 10713
  154.8753  135.3847  154.4158 H   0  0  0  0  0  0  0  0  0  0  0  0  # atno 10763 bound_to 10752
  153.4867  135.7030  153.5912 H   0  0  0  0  0  0  0  0  0  0  0  0  # atno 10764 bound_to 10752
  153.4304  135.3880  155.2134 H   0  0  0  0  0  0  0  0  0  0  0  0  # atno 10765 bound_to 10752
  140.2595  134.7914  157.3576 H   0  0  0  0  0  0  0  0  0  0  0  0  # atno 11005 bound_to 11000
  145.0843  140.9242  143.4806 LP  0  0  0  0  0  0  0  0  0  0  0  0  # atno 17320 bound_to 7965
  145.0837  139.2941  143.5770 LP  0  0  0  0  0  0  0  0  0  0  0  0  # atno 17321 bound_to 7965
  140.1779  144.4873  150.6544 LP  0  0  0  0  0  0  0  0  0  0  0  0  # atno 17342 bound_to 10162
  140.6675  143.2273  151.5706 LP  0  0  0  0  0  0  0  0  0  0  0  0  # atno 17343 bound_to 10162
  156.4118  130.3935  149.6886 LP  0  0  0  0  0  0  0  0  0  0  0  0  # atno 17370 bound_to 10713
  156.4168  130.7749  151.2764 LP  0  0  0  0  0  0  0  0  0  0  0  0  # atno 17371 bound_to 10713
  140.1479  134.4888  155.7983 LP  0  0  0  0  0  0  0  0  0  0  0  0  # atno 17394 bound_to 11000
  141.2192  133.6851  156.7326 LP  0  0  0  0  0  0  0  0  0  0  0  0  # atno 17395 bound_to 11000

$$$$
