AV-unprocessed.smi:13|AV-procd|sdf|76|dock10
  -GOLD-   2262015203D 1   1.00000     0.00000
 Structure written by MMmdl.
 54 58  0  0  0  0  0  0  0  0  1 V2000
  151.2440  143.3458  157.6938 C   0  0  0  0  0  0  0  0  0  0  0  0
  150.8851  141.8599  157.6759 C   0  0  0  0  0  0  0  0  0  0  0  0
  151.6689  141.2072  158.8229 C   0  0  0  0  0  0  0  0  0  0  0  0
  149.3850  141.5322  157.6313 C   0  0  0  0  0  0  0  0  0  0  0  0
  149.7135  140.4926  156.6725 N   0  0  0  0  0  0  0  0  0  0  0  0
  148.7069  140.3095  155.6837 C   0  0  0  0  0  0  0  0  0  0  0  0
  148.7503  140.9619  154.4901 N   0  0  0  0  0  0  0  0  0  0  0  0
  147.7978  140.7772  153.5714 C   0  0  0  0  0  0  0  0  0  0  0  0
  146.7201  139.9946  153.6346 N   0  0  0  0  0  0  0  0  0  0  0  0
  146.6640  139.3345  154.8257 C   0  0  0  0  0  0  0  0  0  0  0  0
  147.6023  139.4395  155.8911 C   0  0  0  0  0  0  0  0  0  0  0  0
  147.2116  138.6277  156.9483 N   0  0  0  0  0  0  0  0  0  0  0  0
  146.1063  138.0731  156.5315 C   0  0  0  0  0  0  0  0  0  0  0  0
  145.7099  138.4316  155.2623 N   0  0  0  0  0  0  0  0  0  0  0  0
  144.5285  137.9659  154.5512 C   0  0  0  0  0  0  0  0  0  0  0  0
  144.8415  137.3198  153.1803 C   0  0  2  0  0  0  0  0  0  0  0  0
  145.3024  138.3193  152.2879 O   0  0  0  0  0  0  0  0  0  0  0  0
  143.6262  136.6464  152.5544 C   0  0  0  0  0  0  0  0  0  0  0  0
  144.2477  135.5303  151.7260 C   0  0  0  0  0  0  0  0  0  0  0  0
  145.2963  135.0672  152.5591 O   0  0  0  0  0  0  0  0  0  0  0  0
  145.8842  136.1829  153.2218 C   0  0  0  0  0  0  0  0  0  0  0  0
  150.9455  141.1782  156.2903 C   0  0  2  0  0  0  0  0  0  0  0  0
  152.0723  140.1992  155.9342 C   0  0  1  0  0  0  0  0  0  0  0  0
  152.1497  138.9724  156.8501 C   0  0  0  0  0  0  0  0  0  0  0  0
  151.1863  138.0084  156.1981 C   0  0  0  0  0  0  0  0  0  0  0  0
  151.4462  138.2838  154.7229 C   0  0  0  0  0  0  0  0  0  0  0  0
  151.7712  139.6685  154.6428 O   0  0  0  0  0  0  0  0  0  0  0  0
  150.9815  143.8113  158.6443 H   0  0  0  0  0  0  0  0  0  0  0  0
  150.7180  143.8935  156.9111 H   0  0  0  0  0  0  0  0  0  0  0  0
  152.3115  143.4997  157.5326 H   0  0  0  0  0  0  0  0  0  0  0  0
  151.4435  140.1443  158.9130 H   0  0  0  0  0  0  0  0  0  0  0  0
  151.4274  141.6651  159.7826 H   0  0  0  0  0  0  0  0  0  0  0  0
  152.7456  141.2989  158.6767 H   0  0  0  0  0  0  0  0  0  0  0  0
  148.9729  141.1523  158.5665 H   0  0  0  0  0  0  0  0  0  0  0  0
  148.7756  142.3322  157.2056 H   0  0  0  0  0  0  0  0  0  0  0  0
  147.9175  141.3353  152.6547 H   0  0  0  0  0  0  0  0  0  0  0  0
  145.5481  137.3801  157.1438 H   0  0  0  0  0  0  0  0  0  0  0  0
  144.0086  137.2525  155.1915 H   0  0  0  0  0  0  0  0  0  0  0  0
  143.8500  138.8104  154.4227 H   0  0  0  0  0  0  0  0  0  0  0  0
  144.7405  139.0749  152.3669 H   0  0  0  0  0  0  0  0  0  0  0  0
  142.9967  136.2051  153.3287 H   0  0  0  0  0  0  0  0  0  0  0  0
  143.0034  137.3221  151.9666 H   0  0  0  0  0  0  0  0  0  0  0  0
  143.5408  134.7353  151.4882 H   0  0  0  0  0  0  0  0  0  0  0  0
  144.6622  135.9171  150.7936 H   0  0  0  0  0  0  0  0  0  0  0  0
  146.8189  136.4606  152.7316 H   0  0  0  0  0  0  0  0  0  0  0  0
  146.1275  135.8786  154.2391 H   0  0  0  0  0  0  0  0  0  0  0  0
  150.7819  141.9303  155.5171 H   0  0  0  0  0  0  0  0  0  0  0  0
  153.0365  140.7076  155.9021 H   0  0  0  0  0  0  0  0  0  0  0  0
  153.1572  138.5555  156.8212 H   0  0  0  0  0  0  0  0  0  0  0  0
  151.9115  139.1799  157.8927 H   0  0  0  0  0  0  0  0  0  0  0  0
  151.3625  136.9692  156.4768 H   0  0  0  0  0  0  0  0  0  0  0  0
  150.1589  138.2651  156.4595 H   0  0  0  0  0  0  0  0  0  0  0  0
  152.3020  137.7054  154.3729 H   0  0  0  0  0  0  0  0  0  0  0  0
  150.5900  138.0383  154.0943 H   0  0  0  0  0  0  0  0  0  0  0  0
  1  2  1  0  0  0  0
  1 28  1  0  0  0  0
  1 29  1  0  0  0  0
  1 30  1  0  0  0  0
  2 22  1  0  0  0  0
  2  3  1  0  0  0  0
  2  4  1  0  0  0  0
  3 31  1  0  0  0  0
  3 32  1  0  0  0  0
  3 33  1  0  0  0  0
  4  5  1  0  0  0  0
  4 34  1  0  0  0  0
  4 35  1  0  0  0  0
  5  6  1  0  0  0  0
  5 22  1  0  0  0  0
  6 11  1  0  0  0  0
  6  7  2  0  0  0  0
  7  8  1  0  0  0  0
  8  9  2  0  0  0  0
  8 36  1  0  0  0  0
  9 10  1  0  0  0  0
 10 14  1  0  0  0  0
 10 11  2  0  0  0  0
 11 12  1  0  0  0  0
 12 13  2  0  0  0  0
 13 14  1  0  0  0  0
 13 37  1  0  0  0  0
 14 15  1  0  0  0  0
 15 16  1  0  0  0  0
 15 38  1  0  0  0  0
 15 39  1  0  0  0  0
 16 21  1  0  0  0  0
 16 17  1  0  0  0  0
 16 18  1  0  0  0  0
 17 40  1  0  0  0  0
 18 19  1  0  0  0  0
 18 41  1  0  0  0  0
 18 42  1  0  0  0  0
 19 20  1  0  0  0  0
 19 43  1  0  0  0  0
 19 44  1  0  0  0  0
 20 21  1  0  0  0  0
 21 45  1  0  0  0  0
 21 46  1  0  0  0  0
 22 23  1  0  0  0  0
 22 47  1  0  0  0  0
 23 27  1  0  0  0  0
 23 24  1  0  0  0  0
 23 48  1  0  0  0  0
 24 25  1  0  0  0  0
 24 49  1  0  0  0  0
 24 50  1  0  0  0  0
 25 26  1  0  0  0  0
 25 51  1  0  0  0  0
 25 52  1  0  0  0  0
 26 27  1  0  0  0  0
 26 53  1  0  0  0  0
 26 54  1  0  0  0  0
M  END
> <s_m_source_file>
AV-unprocessed.smi

> <i_m_source_file_index>
13

> <i_lp_mmshare_version>
43012

> <i_f3d_flags>
0

> <s_epik_input>
TzFbQ0gyXVtDSDJdW0NIMl1bQ0BIXTFbQ0BASF0yTihbQ0gyXUMyKFtDSDNdKVtDSDNdKWMobltjSF1uMyljKGMzNCluW2NIXW40W0NIMl1bQ0BAXTUoW09IXSlbQ0gyXVtDSDJdT1tDSDJdNQ==

> <s_epik_cmdline>
J2VwaWtfcHl0aG9uJywgJy1waCcsICc3LjAnLCAnLXRuJywgJzgnLCAnLW1hJywgJzIwMCcsICctbWV0YWxfYmluZGluZycsICctaW1hZScsICc8aW5maWxlLm1hZT4nLCAnLW9tYWUnLCAnPG91dGZpbGUubWFlPic=

> <r_lp_tautomer_probability>
1

> <r_epik_Ionization_Penalty>
0.00202764

> <r_epik_Ionization_Penalty_Charging>
0

> <r_epik_Ionization_Penalty_Neutral>
0.00202764

> <r_epik_State_Penalty>
0.00134017

> <r_epik_Charging_Adjusted_Penalty>
0.00134017

> <i_epik_Tot_Q>
0

> <i_epik_Tot_abs_Q>
0

> <r_epik_Metal_State_Penalty>
-0

> <b_epik_Metal_Only>
0

> <s_lp_Force_Field>
OPLS_2005

> <r_lp_Energy>
64.8662

> <b_lp_Chiralities_Consistent>
1

> <s_lp_Variant>
AV-unprocessed.smi:13-8

> <Gold.Version>
5.8.1

> <Gold.Id.Protein>
6NUR|6NUR_protein|mol2

> <Gold.PLP.Fitness>
38.4690

> <Gold.PLP.PLP>
-31.6847

> <Gold.PLP.part.hbond>
-3.0000

> <Gold.PLP.part.metal>
0.0000

> <Gold.PLP.part.buried>
-4.7229

> <Gold.PLP.part.nonpolar>
-24.6394

> <Gold.PLP.part.repulsive>
0.4757

> <Gold.PLP.ligand.clash>
0.0000

> <Gold.PLP.ligand.torsion>
0.7216

> <Gold.PLP.Chemscore.Hbond>
2.0000

> <Gold.PLP.Chemscore.CHOScore>
0.5973

> <Gold.PLP.Chemscore.Metal>
0.0000

> <Gold.Chemscore.Hbonds>
donor molecule, donor type, donor heavy atom, donor atom, acceptor molecule, acceptor atom, score
      L1  H    17    40       P1 10175  1.00
      P1  H  7989  7998       L1    27  1.00
      L1  C     8    36       P1  7957  0.50

> <Gold.PLP.Chemscore.Internal.Correction>
0.4356

> <Gold.Rescore>
     Score         DG    S(hbond)    S(metal)    S(lipo)     H(rot)  DE(clash)    DE(int)     intcor
     12.57     -14.75       1.91        0.00      75.01       2.30       0.09       2.09       ----

> <Gold.Chemscore.Fitness>
12.5691

> <Gold.Chemscore.DG>
-14.7492

> <Gold.Chemscore.ZeroCoef>
-5.4800

> <Gold.Chemscore.Hbond>
1.9101

> <Gold.Chemscore.Metal>
0.0000

> <Gold.Chemscore.Lipo>
75.0117

> <Gold.Chemscore.Internal_Hbond>
0.0000

> <Gold.Chemscore.DEClash>
0.0910

> <Gold.Chemscore.DEInternal>
2.0890

> <Gold.Chemscore.Rot>
2.2996

> <Gold.Chemscore.Internal.Correction>
   9.000000E+99

> <Gold.Chemscore.Hbonds>
donor molecule, donor type, donor heavy atom, donor atom, acceptor molecule, acceptor atom, score
      L1  H    17    40       P1 10175  1.00
      P1  H  7989  7998       L1    27  0.79

> <Gold.Chemscore.Hbond.Weighted>
-6.3797

> <Gold.Chemscore.Metal.Weighted>
-0.0000

> <Gold.Chemscore.Lipo.Weighted>
-8.7764

> <Gold.Chemscore.Internal_Hbond.Weighted>
0.0000

> <Gold.Chemscore.DEClash.Weighted>
0.0910

> <Gold.Chemscore.DEInternal.Weighted>
2.0890

> <Gold.Chemscore.Rot.Weighted>
5.8869

> <Gold.Chemscore.Internal.Correction.Weighted>
   9.000000E+99

> <Gold.Protein.RotatedTorsions>
[ 6907 6896 6895 6894 ] final  -20.45 input  -60.11 | X-H torsion
[ 7974 7965 7964 7962 ] final  -38.71 input  175.53 | X-H torsion
[ 8008 7997 7996 7995 ] final   95.70 input   59.86 | X-H torsion
[ 10167 10162 10161 10158 ] final  -95.17 input  -65.29 | X-H torsion
[ 10718 10713 10712 10709 ] final  -84.08 input   66.30 | X-H torsion
[ 10763 10752 10751 10750 ] final -145.50 input  -60.55 | X-H torsion
[ 11005 11000 10999 10996 ] final -175.15 input  -57.11 | X-H torsion

> <Gold.Protein.ActiveResidues>
 VAL166  LYS551  ARG553  GLY616  TRP617  ASP618  TYR619  PRO620  LYS621  CYS622 
 ASP623  PHE694  ASN695  SER759  ASP760  ASP761  ALA762  ILE779  LEU786  VAL792 
 PHE793  MET794  SER795  GLU796  ALA797  LYS798  CYS799  TRP800  GLU811  SER814 

> <Gold.Protein.RotatedAtoms>
  151.2480  135.0612  159.9050 H   0  0  0  0  0  0  0  0  0  0  0  0  # atno 6907 bound_to 6896
  152.5384  134.0362  159.8057 H   0  0  0  0  0  0  0  0  0  0  0  0  # atno 6908 bound_to 6896
  151.0566  133.5530  159.2669 H   0  0  0  0  0  0  0  0  0  0  0  0  # atno 6909 bound_to 6896
  146.0462  140.6543  142.9063 H   0  0  0  0  0  0  0  0  0  0  0  0  # atno 7974 bound_to 7965
  156.0717  140.3283  155.7584 H   0  0  0  0  0  0  0  0  0  0  0  0  # atno 8008 bound_to 7997
  155.5295  140.0592  157.2909 H   0  0  0  0  0  0  0  0  0  0  0  0  # atno 8009 bound_to 7997
  154.4533  140.1930  156.0470 H   0  0  0  0  0  0  0  0  0  0  0  0  # atno 8010 bound_to 7997
  140.3069  143.3128  152.0190 H   0  0  0  0  0  0  0  0  0  0  0  0  # atno 10167 bound_to 10162
  156.0010  130.4686  150.4355 H   0  0  0  0  0  0  0  0  0  0  0  0  # atno 10718 bound_to 10713
  154.8380  135.3411  154.6514 H   0  0  0  0  0  0  0  0  0  0  0  0  # atno 10763 bound_to 10752
  153.7127  135.6963  153.5037 H   0  0  0  0  0  0  0  0  0  0  0  0  # atno 10764 bound_to 10752
  153.2439  135.4375  155.0681 H   0  0  0  0  0  0  0  0  0  0  0  0  # atno 10765 bound_to 10752
  140.4665  134.6205  157.4864 H   0  0  0  0  0  0  0  0  0  0  0  0  # atno 11005 bound_to 11000
  144.7099  140.3998  143.7089 LP  0  0  0  0  0  0  0  0  0  0  0  0  # atno 17320 bound_to 7965
  145.6801  139.1617  143.2705 LP  0  0  0  0  0  0  0  0  0  0  0  0  # atno 17321 bound_to 7965
  139.4902  144.6414  151.6869 LP  0  0  0  0  0  0  0  0  0  0  0  0  # atno 17342 bound_to 10162
  140.5602  144.0281  150.6166 LP  0  0  0  0  0  0  0  0  0  0  0  0  # atno 17343 bound_to 10162
  157.2401  131.0523  151.2442 LP  0  0  0  0  0  0  0  0  0  0  0  0  # atno 17370 bound_to 10713
  157.3629  130.7140  149.6513 LP  0  0  0  0  0  0  0  0  0  0  0  0  # atno 17371 bound_to 10713
  139.9912  134.6982  155.9687 LP  0  0  0  0  0  0  0  0  0  0  0  0  # atno 17394 bound_to 11000
  141.1597  133.6540  156.4277 LP  0  0  0  0  0  0  0  0  0  0  0  0  # atno 17395 bound_to 11000

$$$$
