AV-unprocessed.smi:1244|AV-procd|sdf|5232|dock8
  -GOLD-   22720 4333D 1   1.00000     0.00000
 Structure written by MMmdl.
 56 58  0  0  0  0  0  0  0  0  3 V2000
  151.5969  139.4986  155.0752 C   0  0  0  0  0  0  0  0  0  0  0  0
  150.5255  138.4566  154.7347 C   0  0  1  0  0  0  0  0  0  0  0  0
  151.0357  137.0162  154.9265 C   0  0  0  0  0  0  0  0  0  0  0  0
  149.9510  136.0385  154.6630 N   0  3  1  0  0  0  0  0  0  0  0  0
  150.3889  134.6260  154.7887 C   0  0  0  0  0  0  0  0  0  0  0  0
  149.2467  133.6329  154.5000 C   0  0  0  0  0  0  0  0  0  0  0  0
  148.3168  134.1516  153.5031 N   0  0  0  0  0  0  0  0  0  0  0  0
  147.4863  133.3958  152.7705 C   0  0  0  0  0  0  0  0  0  0  0  0
  147.3910  132.1749  152.8959 O   0  0  0  0  0  0  0  0  0  0  0  0
  146.8012  134.1353  151.8823 N   0  0  0  0  0  0  0  0  0  0  0  0
  145.8953  133.6724  150.8866 C   0  0  0  0  0  0  0  0  0  0  0  0
  146.1600  132.4881  150.1520 C   0  0  0  0  0  0  0  0  0  0  0  0
  145.2606  132.0623  149.1564 C   0  0  0  0  0  0  0  0  0  0  0  0
  144.1061  132.8254  148.9122 C   0  0  0  0  0  0  0  0  0  0  0  0
  143.8722  133.9360  149.6416 N   0  3  0  0  0  0  0  0  0  0  0  0
  144.6918  134.3894  150.6230 C   0  0  0  0  0  0  0  0  0  0  0  0
  144.3114  135.5650  151.3090 N   0  0  0  0  0  0  0  0  0  0  0  0
  143.5273  135.4843  152.5359 C   0  0  0  0  0  0  0  0  0  0  0  0
  143.6133  136.8782  153.1519 C   0  0  0  0  0  0  0  0  0  0  0  0
  145.0270  137.3154  152.7793 C   0  0  0  0  0  0  0  0  0  0  0  0
  145.2592  136.6700  151.4088 C   0  0  0  0  0  0  0  0  0  0  0  0
  148.7699  136.3434  155.5048 C   0  0  0  0  0  0  0  0  0  0  0  0
  148.3199  137.8027  155.2987 C   0  0  1  0  0  0  0  0  0  0  0  0
  147.1491  138.1817  156.2121 C   0  0  0  0  0  0  0  0  0  0  0  0
  149.4089  138.6712  155.5908 O   0  0  0  0  0  0  0  0  0  0  0  0
  152.4779  139.3772  154.4443 H   0  0  0  0  0  0  0  0  0  0  0  0
  151.9153  139.4131  156.1146 H   0  0  0  0  0  0  0  0  0  0  0  0
  151.2186  140.5101  154.9252 H   0  0  0  0  0  0  0  0  0  0  0  0
  150.2174  138.6025  153.6977 H   0  0  0  0  0  0  0  0  0  0  0  0
  151.8765  136.8411  154.2562 H   0  0  0  0  0  0  0  0  0  0  0  0
  151.4066  136.8826  155.9444 H   0  0  0  0  0  0  0  0  0  0  0  0
  151.2427  134.4498  154.1327 H   0  0  0  0  0  0  0  0  0  0  0  0
  150.7416  134.4485  155.8058 H   0  0  0  0  0  0  0  0  0  0  0  0
  149.6580  132.6956  154.1246 H   0  0  0  0  0  0  0  0  0  0  0  0
  148.6925  133.3852  155.4058 H   0  0  0  0  0  0  0  0  0  0  0  0
  148.3320  135.1477  153.3381 H   0  0  0  0  0  0  0  0  0  0  0  0
  147.0533  135.1111  151.8251 H   0  0  0  0  0  0  0  0  0  0  0  0
  147.0428  131.8960  150.3414 H   0  0  0  0  0  0  0  0  0  0  0  0
  145.4563  131.1652  148.5873 H   0  0  0  0  0  0  0  0  0  0  0  0
  143.3635  132.5802  148.1666 H   0  0  0  0  0  0  0  0  0  0  0  0
  142.4959  135.1947  152.3313 H   0  0  0  0  0  0  0  0  0  0  0  0
  143.9622  134.7543  153.2200 H   0  0  0  0  0  0  0  0  0  0  0  0
  142.8833  137.5398  152.6835 H   0  0  0  0  0  0  0  0  0  0  0  0
  143.4335  136.8799  154.2273 H   0  0  0  0  0  0  0  0  0  0  0  0
  145.1474  138.3990  152.7628 H   0  0  0  0  0  0  0  0  0  0  0  0
  145.7370  136.9097  153.5015 H   0  0  0  0  0  0  0  0  0  0  0  0
  146.2921  136.3379  151.2966 H   0  0  0  0  0  0  0  0  0  0  0  0
  145.0439  137.3892  150.6184 H   0  0  0  0  0  0  0  0  0  0  0  0
  147.9519  135.6684  155.2491 H   0  0  0  0  0  0  0  0  0  0  0  0
  149.0153  136.1674  156.5539 H   0  0  0  0  0  0  0  0  0  0  0  0
  148.0122  137.9501  154.2618 H   0  0  0  0  0  0  0  0  0  0  0  0
  146.2785  137.5555  156.0155 H   0  0  0  0  0  0  0  0  0  0  0  0
  146.8531  139.2194  156.0556 H   0  0  0  0  0  0  0  0  0  0  0  0
  147.4137  138.0663  157.2635 H   0  0  0  0  0  0  0  0  0  0  0  0
  149.6569  136.1691  153.7055 H   0  0  0  0  0  0  0  0  0  0  0  0
  143.0211  134.4635  149.4463 H   0  0  0  0  0  0  0  0  0  0  0  0
  1  2  1  0  0  0  0
  1 26  1  0  0  0  0
  1 27  1  0  0  0  0
  1 28  1  0  0  0  0
  2 25  1  0  0  0  0
  2  3  1  0  0  0  0
  2 29  1  0  0  0  0
  3  4  1  0  0  0  0
  3 30  1  0  0  0  0
  3 31  1  0  0  0  0
  4  5  1  0  0  0  0
  4 22  1  0  0  0  0
  4 55  1  0  0  0  0
  5  6  1  0  0  0  0
  5 32  1  0  0  0  0
  5 33  1  0  0  0  0
  6  7  1  0  0  0  0
  6 34  1  0  0  0  0
  6 35  1  0  0  0  0
  7  8  1  0  0  0  0
  7 36  1  0  0  0  0
  8  9  2  0  0  0  0
  8 10  1  0  0  0  0
 10 11  1  0  0  0  0
 10 37  1  0  0  0  0
 11 16  1  0  0  0  0
 11 12  2  0  0  0  0
 12 13  1  0  0  0  0
 12 38  1  0  0  0  0
 13 14  2  0  0  0  0
 13 39  1  0  0  0  0
 14 15  1  0  0  0  0
 14 40  1  0  0  0  0
 15 16  2  0  0  0  0
 15 56  1  0  0  0  0
 16 17  1  0  0  0  0
 17 21  1  0  0  0  0
 17 18  1  0  0  0  0
 18 19  1  0  0  0  0
 18 41  1  0  0  0  0
 18 42  1  0  0  0  0
 19 20  1  0  0  0  0
 19 43  1  0  0  0  0
 19 44  1  0  0  0  0
 20 21  1  0  0  0  0
 20 45  1  0  0  0  0
 20 46  1  0  0  0  0
 21 47  1  0  0  0  0
 21 48  1  0  0  0  0
 22 23  1  0  0  0  0
 22 49  1  0  0  0  0
 22 50  1  0  0  0  0
 23 24  1  0  0  0  0
 23 25  1  0  0  0  0
 23 51  1  0  0  0  0
 24 52  1  0  0  0  0
 24 53  1  0  0  0  0
 24 54  1  0  0  0  0
M  CHG  1   4   1
M  CHG  1  15   1
M  END
> <s_m_source_file>
AV-unprocessed.smi

> <i_m_source_file_index>
1244

> <i_lp_mmshare_version>
43012

> <i_f3d_flags>
0

> <s_epik_input>
W0NIM11bQ0BASF0xW0NIMl1OKFtDSDJdW0NASF0oTzEpW0NIM10pW0NIMl1bQ0gyXVtOSF1DKD1PKVtOSF1jMltjSF1bY0hdW2NIXW5jMk4zW0NIMl1bQ0gyXVtDSDJdW0NIMl0z

> <s_epik_cmdline>
J2VwaWtfcHl0aG9uJywgJy1waCcsICc3LjAnLCAnLXRuJywgJzgnLCAnLW1hJywgJzIwMCcsICctbWV0YWxfYmluZGluZycsICctaW1hZScsICc8aW5maWxlLm1hZT4nLCAnLW9tYWUnLCAnPG91dGZpbGUubWFlPic=

> <r_lp_tautomer_probability>
0.999994

> <r_epik_Ionization_Penalty>
1.81601

> <r_epik_Ionization_Penalty_Charging>
1.81599

> <r_epik_Ionization_Penalty_Neutral>
2.01972e-05

> <r_epik_State_Penalty>
1.85672

> <r_epik_Charging_Adjusted_Penalty>
3.6727

> <i_epik_Tot_Q>
2

> <i_epik_Tot_abs_Q>
2

> <r_epik_Metal_State_Penalty>
1.93796

> <b_epik_Metal_Only>
0

> <s_lp_Force_Field>
OPLS_2005

> <r_lp_Energy>
51.4993

> <b_lp_Chiralities_Consistent>
1

> <s_lp_Variant>
AV-unprocessed.smi:1244-12

> <Gold.Version>
5.8.1

> <Gold.Id.Protein>
6NUR|6NUR_protein|mol2

> <Gold.PLP.Fitness>
53.3767

> <Gold.PLP.PLP>
-40.3131

> <Gold.PLP.part.hbond>
-4.6183

> <Gold.PLP.part.metal>
0.0000

> <Gold.PLP.part.buried>
-0.9870

> <Gold.PLP.part.nonpolar>
-34.2270

> <Gold.PLP.part.repulsive>
0.5115

> <Gold.PLP.ligand.clash>
0.0000

> <Gold.PLP.ligand.torsion>
1.0605

> <Gold.PLP.Chemscore.Hbond>
4.9224

> <Gold.PLP.Chemscore.CHOScore>
0.0000

> <Gold.PLP.Chemscore.Metal>
0.0000

> <Gold.Chemscore.Hbonds>
donor molecule, donor type, donor heavy atom, donor atom, acceptor molecule, acceptor atom, score
      L1  H     4    55       P1  7948  2.00
      L1  H     7    36       P1  7948  0.62
      L1  H    10    37       P1  7948  0.46
      L1  H    15    56       P1 10186  1.82

> <Gold.PLP.Chemscore.Internal.Correction>
0.4175

> <Gold.Rescore>
     Score         DG    S(hbond)    S(metal)    S(lipo)     H(rot)  DE(clash)    DE(int)     intcor
     17.58     -20.99       2.46        0.00      97.88       1.63       1.57       1.83       ----

> <Gold.Chemscore.Fitness>
17.5843

> <Gold.Chemscore.DG>
-20.9872

> <Gold.Chemscore.ZeroCoef>
-5.4800

> <Gold.Chemscore.Hbond>
2.4628

> <Gold.Chemscore.Metal>
0.0000

> <Gold.Chemscore.Lipo>
97.8837

> <Gold.Chemscore.Internal_Hbond>
0.0000

> <Gold.Chemscore.DEClash>
1.5693

> <Gold.Chemscore.DEInternal>
1.8336

> <Gold.Chemscore.Rot>
1.6293

> <Gold.Chemscore.Internal.Correction>
   9.000000E+99

> <Gold.Chemscore.Hbonds>
donor molecule, donor type, donor heavy atom, donor atom, acceptor molecule, acceptor atom, score
      L1  H     4    55       P1  7948  0.39
      L1  H     7    36       P1  7948  0.61
      L1  H    10    37       P1  7948  0.44
      L1  H    15    56       P1 10186  0.83

> <Gold.Chemscore.Hbond.Weighted>
-8.2256

> <Gold.Chemscore.Metal.Weighted>
-0.0000

> <Gold.Chemscore.Lipo.Weighted>
-11.4524

> <Gold.Chemscore.Internal_Hbond.Weighted>
0.0000

> <Gold.Chemscore.DEClash.Weighted>
1.5693

> <Gold.Chemscore.DEInternal.Weighted>
1.8336

> <Gold.Chemscore.Rot.Weighted>
4.1709

> <Gold.Chemscore.Internal.Correction.Weighted>
   9.000000E+99

> <Gold.Protein.RotatedTorsions>
[ 6907 6896 6895 6894 ] final    9.74 input  -60.11 | X-H torsion
[ 7974 7965 7964 7962 ] final -116.51 input  175.53 | X-H torsion
[ 8008 7997 7996 7995 ] final   43.56 input   59.86 | X-H torsion
[ 10167 10162 10161 10158 ] final   28.15 input  -65.29 | X-H torsion
[ 10718 10713 10712 10709 ] final -149.45 input   66.30 | X-H torsion
[ 10763 10752 10751 10750 ] final   91.31 input  -60.55 | X-H torsion
[ 11005 11000 10999 10996 ] final   -2.66 input  -57.11 | X-H torsion

> <Gold.Protein.ActiveResidues>
 VAL166  LYS551  ARG553  GLY616  TRP617  ASP618  TYR619  PRO620  LYS621  CYS622 
 ASP623  PHE694  ASN695  SER759  ASP760  ASP761  ALA762  ILE779  LEU786  VAL792 
 PHE793  MET794  SER795  GLU796  ALA797  LYS798  CYS799  TRP800  GLU811  SER814 

> <Gold.Protein.RotatedAtoms>
  151.7271  135.0882  160.0293 H   0  0  0  0  0  0  0  0  0  0  0  0  # atno 6907 bound_to 6896
  152.3565  133.6239  159.5991 H   0  0  0  0  0  0  0  0  0  0  0  0  # atno 6908 bound_to 6896
  150.7575  133.9408  159.3497 H   0  0  0  0  0  0  0  0  0  0  0  0  # atno 6909 bound_to 6896
  145.0959  140.8520  143.3955 H   0  0  0  0  0  0  0  0  0  0  0  0  # atno 7974 bound_to 7965
  155.3047  140.3387  155.4246 H   0  0  0  0  0  0  0  0  0  0  0  0  # atno 8008 bound_to 7997
  156.1984  140.1723  156.7988 H   0  0  0  0  0  0  0  0  0  0  0  0  # atno 8009 bound_to 7997
  154.5528  140.0702  156.8679 H   0  0  0  0  0  0  0  0  0  0  0  0  # atno 8010 bound_to 7997
  140.4877  144.0516  150.6286 H   0  0  0  0  0  0  0  0  0  0  0  0  # atno 10167 bound_to 10162
  156.4333  130.8086  151.2314 H   0  0  0  0  0  0  0  0  0  0  0  0  # atno 10718 bound_to 10713
  153.2069  135.4402  155.0334 H   0  0  0  0  0  0  0  0  0  0  0  0  # atno 10763 bound_to 10752
  154.8179  135.3323  154.7127 H   0  0  0  0  0  0  0  0  0  0  0  0  # atno 10764 bound_to 10752
  153.7568  135.6994  153.4989 H   0  0  0  0  0  0  0  0  0  0  0  0  # atno 10765 bound_to 10752
  140.6608  133.9321  155.8435 H   0  0  0  0  0  0  0  0  0  0  0  0  # atno 11005 bound_to 11000
  145.1012  139.2821  143.5685 LP  0  0  0  0  0  0  0  0  0  0  0  0  # atno 17320 bound_to 7965
  146.3531  140.0579  142.8631 LP  0  0  0  0  0  0  0  0  0  0  0  0  # atno 17321 bound_to 7965
  140.3776  143.2820  152.0207 LP  0  0  0  0  0  0  0  0  0  0  0  0  # atno 17342 bound_to 10162
  139.4845  144.6180  151.7309 LP  0  0  0  0  0  0  0  0  0  0  0  0  # atno 17343 bound_to 10162
  157.7508  131.0191  150.3654 LP  0  0  0  0  0  0  0  0  0  0  0  0  # atno 17370 bound_to 10713
  156.3996  130.3913  149.6969 LP  0  0  0  0  0  0  0  0  0  0  0  0  # atno 17371 bound_to 10713
  141.0466  134.0545  157.3836 LP  0  0  0  0  0  0  0  0  0  0  0  0  # atno 17394 bound_to 11000
  139.9013  135.0165  156.7283 LP  0  0  0  0  0  0  0  0  0  0  0  0  # atno 17395 bound_to 11000

$$$$
