AV-unprocessed.smi:889|AV-procd|sdf|4056|dock7
  -GOLD-   22720 1543D 1   1.00000     0.00000
 Structure written by MMmdl.
 43 44  0  0  0  0  0  0  0  0  1 V2000
  151.9976  145.3824  160.4429 C   0  0  0  0  0  0  0  0  0  0  0  0
  151.7765  144.2277  159.5264 C   0  0  0  0  0  0  0  0  0  0  0  0
  151.9414  144.0654  158.1805 C   0  0  0  0  0  0  0  0  0  0  0  0
  151.5504  142.7166  157.9528 C   0  0  0  0  0  0  0  0  0  0  0  0
  151.5256  141.9570  156.6535 C   0  0  0  0  0  0  0  0  0  0  0  0
  150.2313  141.1521  156.5311 C   0  0  0  0  0  0  0  0  0  0  0  0
  150.2636  139.9221  156.5663 O   0  0  0  0  0  0  0  0  0  0  0  0
  149.0990  141.8580  156.3988 N   0  0  0  0  0  0  0  0  0  0  0  0
  147.7632  141.2818  156.2985 C   0  0  0  0  0  0  0  0  0  0  0  0
  147.2257  141.3212  154.8529 C   0  0  0  0  0  0  0  0  0  0  0  0
  146.3971  142.6083  154.6270 C   0  0  0  0  0  0  0  0  0  0  0  0
  145.2652  142.9181  155.6391 C   0  0  0  0  0  0  0  0  0  0  0  0
  144.4686  141.6758  156.0706 C   0  0  0  0  0  0  0  0  0  0  0  0
  144.3195  143.9864  155.0689 C   0  0  0  0  0  0  0  0  0  0  0  0
  148.2974  141.0623  153.7682 C   0  0  0  0  0  0  0  0  0  0  0  0
  147.9330  139.5805  153.7737 C   0  0  0  0  0  0  0  0  0  0  0  0
  146.5873  140.0022  154.3575 C   0  0  0  0  0  0  0  0  0  0  0  0
  151.1813  142.1181  159.0748 N   0  0  0  0  0  0  0  0  0  0  0  0
  151.3196  143.0767  160.0846 O   0  0  0  0  0  0  0  0  0  0  0  0
  152.9797  145.8250  160.2755 H   0  0  0  0  0  0  0  0  0  0  0  0
  151.9419  145.0730  161.4869 H   0  0  0  0  0  0  0  0  0  0  0  0
  151.2461  146.1547  160.2786 H   0  0  0  0  0  0  0  0  0  0  0  0
  152.2887  144.7980  157.4672 H   0  0  0  0  0  0  0  0  0  0  0  0
  151.6035  142.6466  155.8122 H   0  0  0  0  0  0  0  0  0  0  0  0
  152.3788  141.2808  156.5775 H   0  0  0  0  0  0  0  0  0  0  0  0
  149.1656  142.8653  156.3725 H   0  0  0  0  0  0  0  0  0  0  0  0
  147.8175  140.2550  156.6624 H   0  0  0  0  0  0  0  0  0  0  0  0
  147.0810  141.7945  156.9776 H   0  0  0  0  0  0  0  0  0  0  0  0
  147.0697  143.4662  154.5893 H   0  0  0  0  0  0  0  0  0  0  0  0
  145.9527  142.5722  153.6314 H   0  0  0  0  0  0  0  0  0  0  0  0
  145.7083  143.3522  156.5354 H   0  0  0  0  0  0  0  0  0  0  0  0
  144.0597  141.1471  155.2092 H   0  0  0  0  0  0  0  0  0  0  0  0
  143.6351  141.9503  156.7177 H   0  0  0  0  0  0  0  0  0  0  0  0
  145.0871  140.9784  156.6334 H   0  0  0  0  0  0  0  0  0  0  0  0
  143.8188  143.6333  154.1670 H   0  0  0  0  0  0  0  0  0  0  0  0
  144.8626  144.8971  154.8140 H   0  0  0  0  0  0  0  0  0  0  0  0
  143.5499  144.2578  155.7921 H   0  0  0  0  0  0  0  0  0  0  0  0
  148.0663  141.5402  152.8146 H   0  0  0  0  0  0  0  0  0  0  0  0
  149.3231  141.2746  154.0727 H   0  0  0  0  0  0  0  0  0  0  0  0
  147.8797  139.1186  152.7875 H   0  0  0  0  0  0  0  0  0  0  0  0
  148.5357  138.9933  154.4679 H   0  0  0  0  0  0  0  0  0  0  0  0
  146.2188  139.3440  155.1447 H   0  0  0  0  0  0  0  0  0  0  0  0
  145.8308  140.1542  153.5856 H   0  0  0  0  0  0  0  0  0  0  0  0
  1  2  1  0  0  0  0
  1 20  1  0  0  0  0
  1 21  1  0  0  0  0
  1 22  1  0  0  0  0
  2 19  1  0  0  0  0
  2  3  2  0  0  0  0
  3  4  1  0  0  0  0
  3 23  1  0  0  0  0
  4  5  1  0  0  0  0
  4 18  2  0  0  0  0
  5  6  1  0  0  0  0
  5 24  1  0  0  0  0
  5 25  1  0  0  0  0
  6  7  2  0  0  0  0
  6  8  1  0  0  0  0
  8  9  1  0  0  0  0
  8 26  1  0  0  0  0
  9 10  1  0  0  0  0
  9 27  1  0  0  0  0
  9 28  1  0  0  0  0
 10 17  1  0  0  0  0
 10 11  1  0  0  0  0
 10 15  1  0  0  0  0
 11 12  1  0  0  0  0
 11 29  1  0  0  0  0
 11 30  1  0  0  0  0
 12 13  1  0  0  0  0
 12 14  1  0  0  0  0
 12 31  1  0  0  0  0
 13 32  1  0  0  0  0
 13 33  1  0  0  0  0
 13 34  1  0  0  0  0
 14 35  1  0  0  0  0
 14 36  1  0  0  0  0
 14 37  1  0  0  0  0
 15 16  1  0  0  0  0
 15 38  1  0  0  0  0
 15 39  1  0  0  0  0
 16 17  1  0  0  0  0
 16 40  1  0  0  0  0
 16 41  1  0  0  0  0
 17 42  1  0  0  0  0
 17 43  1  0  0  0  0
 18 19  1  0  0  0  0
M  END
> <s_m_source_file>
AV-unprocessed.smi

> <i_m_source_file_index>
889

> <i_lp_mmshare_version>
43012

> <i_f3d_flags>
0

> <s_epik_input>
W0NIM11jMVtjSF1jKG5vMSlbQ0gyXUMoPU8pW05IXVtDSDJdQzIoW0NIMl1bQ0hdKFtDSDNdKVtDSDNdKVtDSDJdW0NIMl1bQ0gyXTI=

> <s_epik_cmdline>
J2VwaWtfcHl0aG9uJywgJy1waCcsICc3LjAnLCAnLXRuJywgJzgnLCAnLW1hJywgJzIwMCcsICctbWV0YWxfYmluZGluZycsICctaW1hZScsICc8aW5maWxlLm1hZT4nLCAnLW9tYWUnLCAnPG91dGZpbGUubWFlPic=

> <r_lp_tautomer_probability>
1

> <r_epik_Ionization_Penalty>
7.05168e-08

> <r_epik_Ionization_Penalty_Charging>
0

> <r_epik_Ionization_Penalty_Neutral>
7.05168e-08

> <r_epik_State_Penalty>
-0

> <r_epik_Charging_Adjusted_Penalty>
0

> <i_epik_Tot_Q>
0

> <i_epik_Tot_abs_Q>
0

> <r_epik_Metal_State_Penalty>
-0

> <b_epik_Metal_Only>
0

> <s_lp_Force_Field>
OPLS_2005

> <r_lp_Energy>
19.2899

> <b_lp_Chiralities_Consistent>
1

> <s_lp_Variant>
AV-unprocessed.smi:889-1

> <Gold.Version>
5.8.1

> <Gold.Id.Protein>
6NUR|6NUR_protein|mol2

> <Gold.PLP.Fitness>
39.8646

> <Gold.PLP.PLP>
-39.0300

> <Gold.PLP.part.hbond>
-1.8461

> <Gold.PLP.part.metal>
0.0000

> <Gold.PLP.part.buried>
-4.7500

> <Gold.PLP.part.nonpolar>
-32.1995

> <Gold.PLP.part.repulsive>
0.1323

> <Gold.PLP.ligand.clash>
0.0000

> <Gold.PLP.ligand.torsion>
1.2956

> <Gold.PLP.Chemscore.Hbond>
1.0000

> <Gold.PLP.Chemscore.CHOScore>
0.0000

> <Gold.PLP.Chemscore.Metal>
0.0000

> <Gold.Chemscore.Hbonds>
donor molecule, donor type, donor heavy atom, donor atom, acceptor molecule, acceptor atom, score
      L1  H     8    26       P1  8028  1.00

> <Gold.PLP.Chemscore.Internal.Correction>
0.4257

> <Gold.Rescore>
     Score         DG    S(hbond)    S(metal)    S(lipo)     H(rot)  DE(clash)    DE(int)     intcor
     14.39     -16.45       0.94        0.00     103.63       1.68       0.86       1.20       ----

> <Gold.Chemscore.Fitness>
14.3931

> <Gold.Chemscore.DG>
-16.4464

> <Gold.Chemscore.ZeroCoef>
-5.4800

> <Gold.Chemscore.Hbond>
0.9443

> <Gold.Chemscore.Metal>
0.0000

> <Gold.Chemscore.Lipo>
103.6342

> <Gold.Chemscore.Internal_Hbond>
0.0000

> <Gold.Chemscore.DEClash>
0.8554

> <Gold.Chemscore.DEInternal>
1.1979

> <Gold.Chemscore.Rot>
1.6846

> <Gold.Chemscore.Internal.Correction>
   9.000000E+99

> <Gold.Chemscore.Hbonds>
donor molecule, donor type, donor heavy atom, donor atom, acceptor molecule, acceptor atom, score
      L1  H     8    26       P1  8028  0.95

> <Gold.Chemscore.Hbond.Weighted>
-3.1539

> <Gold.Chemscore.Metal.Weighted>
-0.0000

> <Gold.Chemscore.Lipo.Weighted>
-12.1252

> <Gold.Chemscore.Internal_Hbond.Weighted>
0.0000

> <Gold.Chemscore.DEClash.Weighted>
0.8554

> <Gold.Chemscore.DEInternal.Weighted>
1.1979

> <Gold.Chemscore.Rot.Weighted>
4.3127

> <Gold.Chemscore.Internal.Correction.Weighted>
   9.000000E+99

> <Gold.Protein.RotatedTorsions>
[ 6907 6896 6895 6894 ] final   81.42 input  -60.11 | X-H torsion
[ 7974 7965 7964 7962 ] final   17.32 input  175.53 | X-H torsion
[ 8008 7997 7996 7995 ] final  159.03 input   59.86 | X-H torsion
[ 10167 10162 10161 10158 ] final  112.23 input  -65.29 | X-H torsion
[ 10718 10713 10712 10709 ] final -169.42 input   66.30 | X-H torsion
[ 10763 10752 10751 10750 ] final  -53.79 input  -60.55 | X-H torsion
[ 11005 11000 10999 10996 ] final  142.78 input  -57.11 | X-H torsion

> <Gold.Protein.ActiveResidues>
 VAL166  LYS551  ARG553  GLY616  TRP617  ASP618  TYR619  PRO620  LYS621  CYS622 
 ASP623  PHE694  ASN695  SER759  ASP760  ASP761  ALA762  ILE779  LEU786  VAL792 
 PHE793  MET794  SER795  GLU796  ALA797  LYS798  CYS799  TRP800  GLU811  SER814 

> <Gold.Protein.RotatedAtoms>
  152.5268  134.3206  159.9146 H   0  0  0  0  0  0  0  0  0  0  0  0  # atno 6907 bound_to 6896
  151.3155  133.4056  159.2658 H   0  0  0  0  0  0  0  0  0  0  0  0  # atno 6908 bound_to 6896
  151.0003  134.9333  159.8007 H   0  0  0  0  0  0  0  0  0  0  0  0  # atno 6909 bound_to 6896
  146.2222  139.8619  142.8603 H   0  0  0  0  0  0  0  0  0  0  0  0  # atno 7974 bound_to 7965
  156.2265  140.1842  156.7350 H   0  0  0  0  0  0  0  0  0  0  0  0  # atno 8008 bound_to 7997
  154.5950  140.0645  156.9318 H   0  0  0  0  0  0  0  0  0  0  0  0  # atno 8009 bound_to 7997
  155.2272  140.3312  155.4310 H   0  0  0  0  0  0  0  0  0  0  0  0  # atno 8010 bound_to 7997
  139.6551  144.7129  151.1972 H   0  0  0  0  0  0  0  0  0  0  0  0  # atno 10167 bound_to 10162
  156.7112  130.9234  151.3089 H   0  0  0  0  0  0  0  0  0  0  0  0  # atno 10718 bound_to 10713
  154.1644  135.6469  153.4994 H   0  0  0  0  0  0  0  0  0  0  0  0  # atno 10763 bound_to 10752
  153.0101  135.5368  154.6677 H   0  0  0  0  0  0  0  0  0  0  0  0  # atno 10764 bound_to 10752
  154.6000  135.2943  155.0517 H   0  0  0  0  0  0  0  0  0  0  0  0  # atno 10765 bound_to 10752
  140.0503  134.9259  157.1004 H   0  0  0  0  0  0  0  0  0  0  0  0  # atno 11005 bound_to 11000
  145.2695  141.0104  143.3780 LP  0  0  0  0  0  0  0  0  0  0  0  0  # atno 17320 bound_to 7965
  144.9234  139.4384  143.6530 LP  0  0  0  0  0  0  0  0  0  0  0  0  # atno 17321 bound_to 7965
  140.7555  143.6085  150.8629 LP  0  0  0  0  0  0  0  0  0  0  0  0  # atno 17342 bound_to 10162
  139.9737  143.6028  152.2965 LP  0  0  0  0  0  0  0  0  0  0  0  0  # atno 17343 bound_to 10162
  157.6935  130.9258  150.0579 LP  0  0  0  0  0  0  0  0  0  0  0  0  # atno 17370 bound_to 10713
  156.1659  130.3645  149.9232 LP  0  0  0  0  0  0  0  0  0  0  0  0  # atno 17371 bound_to 10713
  140.3928  134.2166  155.7165 LP  0  0  0  0  0  0  0  0  0  0  0  0  # atno 17394 bound_to 11000
  141.1927  133.8167  157.0829 LP  0  0  0  0  0  0  0  0  0  0  0  0  # atno 17395 bound_to 11000

$$$$
