AV-unprocessed.smi:73|AV-procd|sdf|759|dock6
  -GOLD-   2262017 93D 1   1.00000     0.00000
 Structure written by MMmdl.
 35 36  0  0  0  0  0  0  0  0  2 V2000
  146.0294  141.2305  157.7945 C   0  0  0  0  0  0  0  0  0  0  0  0
  147.2833  141.9931  157.3424 C   0  0  0  0  0  0  0  0  0  0  0  0
  148.0965  141.4200  156.2449 N   0  0  0  0  0  0  0  0  0  0  0  0
  149.4788  141.9129  156.3930 C   0  0  0  0  0  0  0  0  0  0  0  0
  150.5315  140.8806  156.1362 C   0  0  0  0  0  0  0  0  0  0  0  0
  151.4338  140.4107  157.0009 N   0  0  0  0  0  0  0  0  0  0  0  0
  152.1827  139.4932  156.2978 N   0  0  0  0  0  0  0  0  0  0  0  0
  151.6744  139.4788  155.0632 C   0  0  0  0  0  0  0  0  0  0  0  0
  152.1251  138.6530  153.9074 C   0  0  0  0  0  0  0  0  0  0  0  0
  150.6287  140.3295  154.8987 O   0  0  0  0  0  0  0  0  0  0  0  0
  147.5455  141.7527  154.9066 C   0  0  2  0  0  0  0  0  0  0  0  0
  145.9930  141.7521  154.8400 C   0  0  0  0  0  0  0  0  0  0  0  0
  145.5674  140.8651  153.7454 N   0  3  0  0  0  0  0  0  0  0  0  0
  146.7066  140.7239  152.8419 C   0  0  0  0  0  0  0  0  0  0  0  0
  147.9183  140.7684  153.7657 C   0  0  1  0  0  0  0  0  0  0  0  0
  149.0389  141.2150  153.0279 O   0  0  0  0  0  0  0  0  0  0  0  0
  148.0924  139.7640  154.1555 H   0  0  0  0  0  0  0  0  0  0  0  0
  145.6812  141.6192  158.7516 H   0  0  0  0  0  0  0  0  0  0  0  0
  146.2361  140.1688  157.9329 H   0  0  0  0  0  0  0  0  0  0  0  0
  145.2001  141.3443  157.0984 H   0  0  0  0  0  0  0  0  0  0  0  0
  147.0097  143.0213  157.1003 H   0  0  0  0  0  0  0  0  0  0  0  0
  147.8927  142.0682  158.2422 H   0  0  0  0  0  0  0  0  0  0  0  0
  149.6901  142.7127  155.6870 H   0  0  0  0  0  0  0  0  0  0  0  0
  149.6258  142.3343  157.3887 H   0  0  0  0  0  0  0  0  0  0  0  0
  153.1651  138.3541  154.0396 H   0  0  0  0  0  0  0  0  0  0  0  0
  152.0404  139.2225  152.9816 H   0  0  0  0  0  0  0  0  0  0  0  0
  151.5090  137.7576  153.8273 H   0  0  0  0  0  0  0  0  0  0  0  0
  147.8895  142.7474  154.6169 H   0  0  0  0  0  0  0  0  0  0  0  0
  145.5235  141.3634  155.7417 H   0  0  0  0  0  0  0  0  0  0  0  0
  145.6157  142.7593  154.6609 H   0  0  0  0  0  0  0  0  0  0  0  0
  145.3622  139.9568  154.1372 H   0  0  0  0  0  0  0  0  0  0  0  0
  146.6507  139.8081  152.2527 H   0  0  0  0  0  0  0  0  0  0  0  0
  146.7049  141.5735  152.1564 H   0  0  0  0  0  0  0  0  0  0  0  0
  149.1394  140.6644  152.2663 H   0  0  0  0  0  0  0  0  0  0  0  0
  144.7531  141.2248  153.2680 H   0  0  0  0  0  0  0  0  0  0  0  0
  1  2  1  0  0  0  0
  1 18  1  0  0  0  0
  1 19  1  0  0  0  0
  1 20  1  0  0  0  0
  2  3  1  0  0  0  0
  2 21  1  0  0  0  0
  2 22  1  0  0  0  0
  3  4  1  0  0  0  0
  3 11  1  0  0  0  0
  4  5  1  0  0  0  0
  4 23  1  0  0  0  0
  4 24  1  0  0  0  0
  5 10  1  0  0  0  0
  5  6  2  0  0  0  0
  6  7  1  0  0  0  0
  7  8  2  0  0  0  0
  8  9  1  0  0  0  0
  8 10  1  0  0  0  0
  9 25  1  0  0  0  0
  9 26  1  0  0  0  0
  9 27  1  0  0  0  0
 11 15  1  0  0  0  0
 11 12  1  0  0  0  0
 11 28  1  0  0  0  0
 12 13  1  0  0  0  0
 12 29  1  0  0  0  0
 12 30  1  0  0  0  0
 13 14  1  0  0  0  0
 13 31  1  0  0  0  0
 13 35  1  0  0  0  0
 14 15  1  0  0  0  0
 14 32  1  0  0  0  0
 14 33  1  0  0  0  0
 15 17  1  0  0  0  0
 15 16  1  0  0  0  0
 16 34  1  0  0  0  0
M  CHG  1  13   1
M  END
> <s_m_source_file>
AV-unprocessed.smi

> <i_m_source_file_index>
73

> <i_lp_mmshare_version>
43012

> <i_f3d_flags>
0

> <s_epik_input>
W09IXVtDQEBIXTFbQ0gyXVtOSF1bQ0gyXVtDQEhdMU4oW0NIMl1bQ0gzXSlbQ0gyXWMybm5jKG8yKVtDSDNd

> <s_epik_cmdline>
J2VwaWtfcHl0aG9uJywgJy1waCcsICc3LjAnLCAnLXRuJywgJzgnLCAnLW1hJywgJzIwMCcsICctbWV0YWxfYmluZGluZycsICctaW1hZScsICc8aW5maWxlLm1hZT4nLCAnLW9tYWUnLCAnPG91dGZpbGUubWFlPic=

> <r_lp_tautomer_probability>
1

> <r_epik_Ionization_Penalty>
0.00160433

> <r_epik_Ionization_Penalty_Charging>
0.000122314

> <r_epik_Ionization_Penalty_Neutral>
0.00148202

> <r_epik_State_Penalty>
-0

> <r_epik_Charging_Adjusted_Penalty>
0.000122314

> <i_epik_Tot_Q>
1

> <i_epik_Tot_abs_Q>
1

> <r_epik_Metal_State_Penalty>
-0

> <b_epik_Metal_Only>
0

> <s_lp_Force_Field>
OPLS_2005

> <r_lp_Energy>
42.0904

> <b_lp_Chiralities_Consistent>
1

> <s_lp_Variant>
AV-unprocessed.smi:73-1

> <Gold.Version>
5.8.1

> <Gold.Id.Protein>
6NUR|6NUR_protein|mol2

> <Gold.PLP.Fitness>
42.9045

> <Gold.PLP.PLP>
-28.4351

> <Gold.PLP.part.hbond>
-5.1346

> <Gold.PLP.part.metal>
0.0000

> <Gold.PLP.part.buried>
-2.5558

> <Gold.PLP.part.nonpolar>
-20.4460

> <Gold.PLP.part.repulsive>
0.1417

> <Gold.PLP.ligand.clash>
0.0000

> <Gold.PLP.ligand.torsion>
1.3025

> <Gold.PLP.Chemscore.Hbond>
5.6864

> <Gold.PLP.Chemscore.CHOScore>
0.0000

> <Gold.PLP.Chemscore.Metal>
0.0000

> <Gold.Chemscore.Hbonds>
donor molecule, donor type, donor heavy atom, donor atom, acceptor molecule, acceptor atom, score
      L1  H    13    35       P1 10175  1.00
      L1  H    16    34       P1  7957  0.54
      P1  H  7989  7998       L1    10  0.10
      P1  H  7997  8010       L1     7  0.47
      P1  H  8011  8017       L1    16  0.60

> <Gold.PLP.Chemscore.Internal.Correction>
0.0152

> <Gold.Rescore>
     Score         DG    S(hbond)    S(metal)    S(lipo)     H(rot)  DE(clash)    DE(int)     intcor
     10.45     -12.31       2.50        0.00      41.73       2.51       0.06       1.80       ----

> <Gold.Chemscore.Fitness>
10.4457

> <Gold.Chemscore.DG>
-12.3090

> <Gold.Chemscore.ZeroCoef>
-5.4800

> <Gold.Chemscore.Hbond>
2.5030

> <Gold.Chemscore.Metal>
0.0000

> <Gold.Chemscore.Lipo>
41.7281

> <Gold.Chemscore.Internal_Hbond>
0.0000

> <Gold.Chemscore.DEClash>
0.0640

> <Gold.Chemscore.DEInternal>
1.7993

> <Gold.Chemscore.Rot>
2.5051

> <Gold.Chemscore.Internal.Correction>
   9.000000E+99

> <Gold.Chemscore.Hbonds>
donor molecule, donor type, donor heavy atom, donor atom, acceptor molecule, acceptor atom, score
      L1  H    13    35       P1 10175  0.08
      L1  H    16    34       P1  7957  0.54
      P1  H  7997  8010       L1     7  0.29
      P1  H  8011  8017       L1    16  0.04

> <Gold.Chemscore.Hbond.Weighted>
-8.3599

> <Gold.Chemscore.Metal.Weighted>
-0.0000

> <Gold.Chemscore.Lipo.Weighted>
-4.8822

> <Gold.Chemscore.Internal_Hbond.Weighted>
0.0000

> <Gold.Chemscore.DEClash.Weighted>
0.0640

> <Gold.Chemscore.DEInternal.Weighted>
1.7993

> <Gold.Chemscore.Rot.Weighted>
6.4131

> <Gold.Chemscore.Internal.Correction.Weighted>
   9.000000E+99

> <Gold.Protein.RotatedTorsions>
[ 6907 6896 6895 6894 ] final  -18.85 input  -60.11 | X-H torsion
[ 7974 7965 7964 7962 ] final  172.26 input  175.53 | X-H torsion
[ 8008 7997 7996 7995 ] final   76.22 input   59.86 | X-H torsion
[ 10167 10162 10161 10158 ] final  -72.27 input  -65.29 | X-H torsion
[ 10718 10713 10712 10709 ] final  -44.45 input   66.30 | X-H torsion
[ 10763 10752 10751 10750 ] final -128.16 input  -60.55 | X-H torsion
[ 11005 11000 10999 10996 ] final  -21.01 input  -57.11 | X-H torsion

> <Gold.Protein.ActiveResidues>
 VAL166  LYS551  ARG553  GLY616  TRP617  ASP618  TYR619  PRO620  LYS621  CYS622 
 ASP623  PHE694  ASN695  SER759  ASP760  ASP761  ALA762  ILE779  LEU786  VAL792 
 PHE793  MET794  SER795  GLU796  ALA797  LYS798  CYS799  TRP800  GLU811  SER814 

> <Gold.Protein.RotatedAtoms>
  151.2719  135.0687  159.9136 H   0  0  0  0  0  0  0  0  0  0  0  0  # atno 6907 bound_to 6896
  152.5349  134.0122  159.7953 H   0  0  0  0  0  0  0  0  0  0  0  0  # atno 6908 bound_to 6896
  151.0361  133.5697  159.2686 H   0  0  0  0  0  0  0  0  0  0  0  0  # atno 6909 bound_to 6896
  144.7273  139.9472  143.6430 H   0  0  0  0  0  0  0  0  0  0  0  0  # atno 7974 bound_to 7965
  155.8242  140.3468  155.5532 H   0  0  0  0  0  0  0  0  0  0  0  0  # atno 8008 bound_to 7997
  155.8310  140.0927  157.1812 H   0  0  0  0  0  0  0  0  0  0  0  0  # atno 8009 bound_to 7997
  154.4004  140.1412  156.3602 H   0  0  0  0  0  0  0  0  0  0  0  0  # atno 8010 bound_to 7997
  140.5206  143.2332  151.7437 H   0  0  0  0  0  0  0  0  0  0  0  0  # atno 10167 bound_to 10162
  156.2384  130.4178  149.8790 H   0  0  0  0  0  0  0  0  0  0  0  0  # atno 10718 bound_to 10713
  154.8755  135.3938  154.3711 H   0  0  0  0  0  0  0  0  0  0  0  0  # atno 10763 bound_to 10752
  153.4470  135.7027  153.6138 H   0  0  0  0  0  0  0  0  0  0  0  0  # atno 10764 bound_to 10752
  153.4694  135.3794  155.2351 H   0  0  0  0  0  0  0  0  0  0  0  0  # atno 10765 bound_to 10752
  140.8520  133.7850  155.9977 H   0  0  0  0  0  0  0  0  0  0  0  0  # atno 11005 bound_to 11000
  146.0739  139.3728  143.0506 LP  0  0  0  0  0  0  0  0  0  0  0  0  # atno 17320 bound_to 7965
  145.7931  140.9805  143.1038 LP  0  0  0  0  0  0  0  0  0  0  0  0  # atno 17321 bound_to 7965
  139.4922  144.4261  151.9924 LP  0  0  0  0  0  0  0  0  0  0  0  0  # atno 17342 bound_to 10162
  140.3357  144.3263  150.5977 LP  0  0  0  0  0  0  0  0  0  0  0  0  # atno 17343 bound_to 10162
  156.6380  130.8693  151.3508 LP  0  0  0  0  0  0  0  0  0  0  0  0  # atno 17370 bound_to 10713
  157.7164  130.9503  150.1273 LP  0  0  0  0  0  0  0  0  0  0  0  0  # atno 17371 bound_to 10713
  140.8779  134.2647  157.5158 LP  0  0  0  0  0  0  0  0  0  0  0  0  # atno 17394 bound_to 11000
  139.8704  134.9600  156.4351 LP  0  0  0  0  0  0  0  0  0  0  0  0  # atno 17395 bound_to 11000

$$$$
