AV-unprocessed.smi:1392|AV-procd|sdf|5661|dock2
  -GOLD-   22720 5283D 1   1.00000     0.00000
 Structure written by MMmdl.
 39 40  0  0  0  0  0  0  0  0  1 V2000
  150.6616  141.9833  156.1163 C   0  0  0  0  0  0  0  0  0  0  0  0
  150.6522  140.6867  155.4505 N   0  0  0  0  0  0  0  0  0  0  0  0
  151.8349  139.8334  155.5025 C   0  0  0  0  0  0  0  0  0  0  0  0
  149.5083  140.2617  154.7362 C   0  0  0  0  0  0  0  0  0  0  0  0
  148.4955  141.1745  154.3501 C   0  0  0  0  0  0  0  0  0  0  0  0
  147.3760  140.7042  153.6371 C   0  0  0  0  0  0  0  0  0  0  0  0
  147.2942  139.3297  153.3171 C   0  0  0  0  0  0  0  0  0  0  0  0
  146.2105  138.7306  152.6196 N   0  0  0  0  0  0  0  0  0  0  0  0
  145.7598  137.4670  152.6995 C   0  0  0  0  0  0  0  0  0  0  0  0
  146.2112  136.5943  153.4408 O   0  0  0  0  0  0  0  0  0  0  0  0
  144.7252  137.2684  151.8706 N   0  0  0  0  0  0  0  0  0  0  0  0
  144.0021  136.0100  151.7201 C   0  0  0  0  0  0  0  0  0  0  0  0
  144.7898  134.9851  150.8820 C   0  0  2  0  0  0  0  0  0  0  0  0
  144.0901  133.6555  150.6806 C   0  0  0  0  0  0  0  0  0  0  0  0
  145.2502  132.7491  150.2809 C   0  0  0  0  0  0  0  0  0  0  0  0
  146.3949  133.2607  150.9577 O   0  0  0  0  0  0  0  0  0  0  0  0
  146.1004  134.5338  151.5254 C   0  0  0  0  0  0  0  0  0  0  0  0
  148.3410  138.4961  153.7558 C   0  0  0  0  0  0  0  0  0  0  0  0
  149.4157  138.9426  154.4381 N   0  0  0  0  0  0  0  0  0  0  0  0
  149.8807  142.0299  156.8757 H   0  0  0  0  0  0  0  0  0  0  0  0
  150.4982  142.7854  155.3959 H   0  0  0  0  0  0  0  0  0  0  0  0
  151.6155  142.1699  156.6097 H   0  0  0  0  0  0  0  0  0  0  0  0
  151.5946  138.8725  155.9582 H   0  0  0  0  0  0  0  0  0  0  0  0
  152.6306  140.2907  156.0902 H   0  0  0  0  0  0  0  0  0  0  0  0
  152.2222  139.6543  154.4991 H   0  0  0  0  0  0  0  0  0  0  0  0
  148.5506  142.2255  154.5894 H   0  0  0  0  0  0  0  0  0  0  0  0
  146.6014  141.4041  153.3654 H   0  0  0  0  0  0  0  0  0  0  0  0
  145.6830  139.3533  152.0255 H   0  0  0  0  0  0  0  0  0  0  0  0
  144.4152  138.0422  151.3012 H   0  0  0  0  0  0  0  0  0  0  0  0
  143.7705  135.5949  152.7024 H   0  0  0  0  0  0  0  0  0  0  0  0
  143.0447  136.2268  151.2455 H   0  0  0  0  0  0  0  0  0  0  0  0
  145.0179  135.4096  149.9027 H   0  0  0  0  0  0  0  0  0  0  0  0
  143.6509  133.3100  151.6174 H   0  0  0  0  0  0  0  0  0  0  0  0
  143.3034  133.6928  149.9264 H   0  0  0  0  0  0  0  0  0  0  0  0
  145.0696  131.7047  150.5352 H   0  0  0  0  0  0  0  0  0  0  0  0
  145.4275  132.8108  149.2065 H   0  0  0  0  0  0  0  0  0  0  0  0
  146.9123  135.2418  151.3575 H   0  0  0  0  0  0  0  0  0  0  0  0
  145.9801  134.4076  152.6021 H   0  0  0  0  0  0  0  0  0  0  0  0
  148.3210  137.4359  153.5496 H   0  0  0  0  0  0  0  0  0  0  0  0
  1  2  1  0  0  0  0
  1 20  1  0  0  0  0
  1 21  1  0  0  0  0
  1 22  1  0  0  0  0
  2  3  1  0  0  0  0
  2  4  1  0  0  0  0
  3 23  1  0  0  0  0
  3 24  1  0  0  0  0
  3 25  1  0  0  0  0
  4 19  1  0  0  0  0
  4  5  2  0  0  0  0
  5  6  1  0  0  0  0
  5 26  1  0  0  0  0
  6  7  2  0  0  0  0
  6 27  1  0  0  0  0
  7  8  1  0  0  0  0
  7 18  1  0  0  0  0
  8  9  1  0  0  0  0
  8 28  1  0  0  0  0
  9 10  2  0  0  0  0
  9 11  1  0  0  0  0
 11 12  1  0  0  0  0
 11 29  1  0  0  0  0
 12 13  1  0  0  0  0
 12 30  1  0  0  0  0
 12 31  1  0  0  0  0
 13 17  1  0  0  0  0
 13 14  1  0  0  0  0
 13 32  1  0  0  0  0
 14 15  1  0  0  0  0
 14 33  1  0  0  0  0
 14 34  1  0  0  0  0
 15 16  1  0  0  0  0
 15 35  1  0  0  0  0
 15 36  1  0  0  0  0
 16 17  1  0  0  0  0
 17 37  1  0  0  0  0
 17 38  1  0  0  0  0
 18 19  2  0  0  0  0
 18 39  1  0  0  0  0
M  END
> <s_m_source_file>
AV-unprocessed.smi

> <i_m_source_file_index>
1392

> <i_lp_mmshare_version>
43012

> <i_f3d_flags>
0

> <s_epik_input>
W0NIM11OKFtDSDNdKWMxW2NIXVtjSF1jKFtjSF1uMSlbTkhdQyg9TylbTkhdW0NIMl1bQ0BASF0yW0NIMl1bQ0gyXU9bQ0gyXTI=

> <s_epik_cmdline>
J2VwaWtfcHl0aG9uJywgJy1waCcsICc3LjAnLCAnLXRuJywgJzgnLCAnLW1hJywgJzIwMCcsICctbWV0YWxfYmluZGluZycsICctaW1hZScsICc8aW5maWxlLm1hZT4nLCAnLW9tYWUnLCAnPG91dGZpbGUubWFlPic=

> <r_lp_tautomer_probability>
1

> <r_epik_Ionization_Penalty>
0.612298

> <r_epik_Ionization_Penalty_Charging>
0

> <r_epik_Ionization_Penalty_Neutral>
0.612298

> <r_epik_State_Penalty>
0.626495

> <r_epik_Charging_Adjusted_Penalty>
0.626495

> <i_epik_Tot_Q>
0

> <i_epik_Tot_abs_Q>
0

> <r_epik_Metal_State_Penalty>
0.304101

> <b_epik_Metal_Only>
0

> <s_lp_Force_Field>
OPLS_2005

> <r_lp_Energy>
22.6053

> <b_lp_Chiralities_Consistent>
1

> <s_lp_Variant>
AV-unprocessed.smi:1392-3

> <Gold.Version>
5.8.1

> <Gold.Id.Protein>
6NUR|6NUR_protein|mol2

> <Gold.PLP.Fitness>
40.6174

> <Gold.PLP.PLP>
-34.9375

> <Gold.PLP.part.hbond>
-1.8949

> <Gold.PLP.part.metal>
0.0000

> <Gold.PLP.part.buried>
-2.6135

> <Gold.PLP.part.nonpolar>
-30.6106

> <Gold.PLP.part.repulsive>
0.5348

> <Gold.PLP.ligand.clash>
0.0000

> <Gold.PLP.ligand.torsion>
0.4029

> <Gold.PLP.Chemscore.Hbond>
1.1555

> <Gold.PLP.Chemscore.CHOScore>
1.0000

> <Gold.PLP.Chemscore.Metal>
0.0000

> <Gold.Chemscore.Hbonds>
donor molecule, donor type, donor heavy atom, donor atom, acceptor molecule, acceptor atom, score
      L1  H     8    28       P1 10175  0.16
      L1  H    11    29       P1 10171  0.98
      L1  C    18    39       P1  7948  1.00

> <Gold.PLP.Chemscore.Internal.Correction>
0.0192

> <Gold.Rescore>
     Score         DG    S(hbond)    S(metal)    S(lipo)     H(rot)  DE(clash)    DE(int)     intcor
     11.60     -13.91       0.92        0.00      72.45       1.21       0.23       2.08       ----

> <Gold.Chemscore.Fitness>
11.6027

> <Gold.Chemscore.DG>
-13.9068

> <Gold.Chemscore.ZeroCoef>
-5.4800

> <Gold.Chemscore.Hbond>
0.9160

> <Gold.Chemscore.Metal>
0.0000

> <Gold.Chemscore.Lipo>
72.4495

> <Gold.Chemscore.Internal_Hbond>
0.0000

> <Gold.Chemscore.DEClash>
0.2274

> <Gold.Chemscore.DEInternal>
2.0768

> <Gold.Chemscore.Rot>
1.2146

> <Gold.Chemscore.Internal.Correction>
   9.000000E+99

> <Gold.Chemscore.Hbonds>
donor molecule, donor type, donor heavy atom, donor atom, acceptor molecule, acceptor atom, score
      L1  H     8    28       P1 10175  0.16
      L1  H    11    29       P1 10171  0.93

> <Gold.Chemscore.Hbond.Weighted>
-3.0595

> <Gold.Chemscore.Metal.Weighted>
-0.0000

> <Gold.Chemscore.Lipo.Weighted>
-8.4766

> <Gold.Chemscore.Internal_Hbond.Weighted>
0.0000

> <Gold.Chemscore.DEClash.Weighted>
0.2274

> <Gold.Chemscore.DEInternal.Weighted>
2.0768

> <Gold.Chemscore.Rot.Weighted>
3.1093

> <Gold.Chemscore.Internal.Correction.Weighted>
   9.000000E+99

> <Gold.Protein.RotatedTorsions>
[ 6907 6896 6895 6894 ] final  107.12 input  -60.11 | X-H torsion
[ 7974 7965 7964 7962 ] final -166.57 input  175.53 | X-H torsion
[ 8008 7997 7996 7995 ] final  169.64 input   59.86 | X-H torsion
[ 10167 10162 10161 10158 ] final  130.48 input  -65.29 | X-H torsion
[ 10718 10713 10712 10709 ] final  125.42 input   66.30 | X-H torsion
[ 10763 10752 10751 10750 ] final -104.89 input  -60.55 | X-H torsion
[ 11005 11000 10999 10996 ] final   95.03 input  -57.11 | X-H torsion

> <Gold.Protein.ActiveResidues>
 VAL166  LYS551  ARG553  GLY616  TRP617  ASP618  TYR619  PRO620  LYS621  CYS622 
 ASP623  PHE694  ASN695  SER759  ASP760  ASP761  ALA762  ILE779  LEU786  VAL792 
 PHE793  MET794  SER795  GLU796  ALA797  LYS798  CYS799  TRP800  GLU811  SER814 

> <Gold.Protein.RotatedAtoms>
  152.5167  133.9281  159.7566 H   0  0  0  0  0  0  0  0  0  0  0  0  # atno 6907 bound_to 6896
  150.9637  133.6409  159.2757 H   0  0  0  0  0  0  0  0  0  0  0  0  # atno 6908 bound_to 6896
  151.3645  135.0916  159.9498 H   0  0  0  0  0  0  0  0  0  0  0  0  # atno 6909 bound_to 6896
  144.7242  140.2647  143.6259 H   0  0  0  0  0  0  0  0  0  0  0  0  # atno 7974 bound_to 7965
  156.1439  140.1559  156.8877 H   0  0  0  0  0  0  0  0  0  0  0  0  # atno 8008 bound_to 7997
  154.5011  140.0825  156.7838 H   0  0  0  0  0  0  0  0  0  0  0  0  # atno 8009 bound_to 7997
  155.4026  140.3415  155.4260 H   0  0  0  0  0  0  0  0  0  0  0  0  # atno 8010 bound_to 7997
  139.5428  144.6746  151.4570 H   0  0  0  0  0  0  0  0  0  0  0  0  # atno 10167 bound_to 10162
  157.5505  131.1094  150.8711 H   0  0  0  0  0  0  0  0  0  0  0  0  # atno 10718 bound_to 10713
  154.7909  135.4769  154.0051 H   0  0  0  0  0  0  0  0  0  0  0  0  # atno 10763 bound_to 10752
  153.1630  135.6812  153.8723 H   0  0  0  0  0  0  0  0  0  0  0  0  # atno 10764 bound_to 10752
  153.8330  135.3189  155.3398 H   0  0  0  0  0  0  0  0  0  0  0  0  # atno 10765 bound_to 10752
  139.8793  134.8877  156.3951 H   0  0  0  0  0  0  0  0  0  0  0  0  # atno 11005 bound_to 11000
  145.8101  139.2000  143.1998 LP  0  0  0  0  0  0  0  0  0  0  0  0  # atno 17320 bound_to 7965
  146.0603  140.7978  142.9738 LP  0  0  0  0  0  0  0  0  0  0  0  0  # atno 17321 bound_to 7965
  140.6664  143.8388  150.6947 LP  0  0  0  0  0  0  0  0  0  0  0  0  # atno 17342 bound_to 10162
  140.1798  143.4124  152.1941 LP  0  0  0  0  0  0  0  0  0  0  0  0  # atno 17343 bound_to 10162
  156.9237  130.5324  149.5279 LP  0  0  0  0  0  0  0  0  0  0  0  0  # atno 17370 bound_to 10713
  156.0572  130.5631  150.9117 LP  0  0  0  0  0  0  0  0  0  0  0  0  # atno 17371 bound_to 10713
  140.9306  133.7582  156.0020 LP  0  0  0  0  0  0  0  0  0  0  0  0  # atno 17394 bound_to 11000
  140.8335  134.3151  157.5340 LP  0  0  0  0  0  0  0  0  0  0  0  0  # atno 17395 bound_to 11000

$$$$
