AV-unprocessed.smi:1780|AV-procd|sdf|7183|dock2
  -GOLD-   22720 8423D 1   1.00000     0.00000
 Structure written by MMmdl.
 43 44  0  0  0  0  0  0  0  0  1 V2000
  151.1687  141.7436  157.4690 C   0  0  0  0  0  0  0  0  0  0  0  0
  150.5153  142.0380  156.1134 C   0  0  0  0  0  0  0  0  0  0  0  0
  150.3410  140.8326  155.3266 N   0  0  0  0  0  0  0  0  0  0  0  0
  149.1727  140.3162  154.8019 C   0  0  0  0  0  0  0  0  0  0  0  0
  149.5313  139.1773  154.1456 C   0  0  0  0  0  0  0  0  0  0  0  0
  148.6337  138.3221  153.4588 N   0  0  0  0  0  0  0  0  0  0  0  0
  147.3063  138.4758  153.3274 C   0  0  0  0  0  0  0  0  0  0  0  0
  146.6459  139.3804  153.8378 O   0  0  0  0  0  0  0  0  0  0  0  0
  146.7802  137.5151  152.5536 N   0  0  0  0  0  0  0  0  0  0  0  0
  145.3697  137.3927  152.1900 C   0  0  0  0  0  0  0  0  0  0  0  0
  144.8637  135.9213  152.1799 C   0  0  2  0  0  0  0  0  0  0  0  0
  145.2797  135.2474  150.8474 C   0  0  0  0  0  0  0  0  0  0  0  0
  143.4109  135.8028  152.4498 N   0  0  0  0  0  0  0  0  0  0  0  0
  142.9856  136.5651  153.6296 C   0  0  0  0  0  0  0  0  0  0  0  0
  141.4834  136.4184  153.9276 C   0  0  0  0  0  0  0  0  0  0  0  0
  141.1586  135.0453  154.0921 O   0  0  0  0  0  0  0  0  0  0  0  0
  141.4796  134.2815  152.9383 C   0  0  0  0  0  0  0  0  0  0  0  0
  142.9819  134.4108  152.6328 C   0  0  0  0  0  0  0  0  0  0  0  0
  150.9401  139.0594  154.3133 C   0  0  0  0  0  0  0  0  0  0  0  0
  151.4190  140.0656  155.0295 N   0  0  0  0  0  0  0  0  0  0  0  0
  151.3026  142.6613  158.0416 H   0  0  0  0  0  0  0  0  0  0  0  0
  152.1491  141.2839  157.3418 H   0  0  0  0  0  0  0  0  0  0  0  0
  150.5557  141.0669  158.0651 H   0  0  0  0  0  0  0  0  0  0  0  0
  149.5416  142.5086  156.2554 H   0  0  0  0  0  0  0  0  0  0  0  0
  151.1274  142.7399  155.5460 H   0  0  0  0  0  0  0  0  0  0  0  0
  148.2135  140.7933  154.9386 H   0  0  0  0  0  0  0  0  0  0  0  0
  149.0486  137.5252  152.9988 H   0  0  0  0  0  0  0  0  0  0  0  0
  147.4038  136.8150  152.1797 H   0  0  0  0  0  0  0  0  0  0  0  0
  144.8460  137.9822  152.9401 H   0  0  0  0  0  0  0  0  0  0  0  0
  145.1629  137.8675  151.2294 H   0  0  0  0  0  0  0  0  0  0  0  0
  145.3951  135.3986  152.9769 H   0  0  0  0  0  0  0  0  0  0  0  0
  146.3456  135.3452  150.6479 H   0  0  0  0  0  0  0  0  0  0  0  0
  144.7461  135.6836  150.0022 H   0  0  0  0  0  0  0  0  0  0  0  0
  145.0964  134.1745  150.8458 H   0  0  0  0  0  0  0  0  0  0  0  0
  143.5604  136.2495  154.5016 H   0  0  0  0  0  0  0  0  0  0  0  0
  143.1746  137.6275  153.4905 H   0  0  0  0  0  0  0  0  0  0  0  0
  141.2246  136.9566  154.8394 H   0  0  0  0  0  0  0  0  0  0  0  0
  140.8858  136.8480  153.1219 H   0  0  0  0  0  0  0  0  0  0  0  0
  141.2184  133.2388  153.1189 H   0  0  0  0  0  0  0  0  0  0  0  0
  140.8818  134.6182  152.0900 H   0  0  0  0  0  0  0  0  0  0  0  0
  143.1724  133.8276  151.7341 H   0  0  0  0  0  0  0  0  0  0  0  0
  143.5552  133.9503  153.4387 H   0  0  0  0  0  0  0  0  0  0  0  0
  151.6217  138.3025  153.9552 H   0  0  0  0  0  0  0  0  0  0  0  0
  1  2  1  0  0  0  0
  1 21  1  0  0  0  0
  1 22  1  0  0  0  0
  1 23  1  0  0  0  0
  2  3  1  0  0  0  0
  2 24  1  0  0  0  0
  2 25  1  0  0  0  0
  3 20  1  0  0  0  0
  3  4  1  0  0  0  0
  4  5  2  0  0  0  0
  4 26  1  0  0  0  0
  5  6  1  0  0  0  0
  5 19  1  0  0  0  0
  6  7  1  0  0  0  0
  6 27  1  0  0  0  0
  7  8  2  0  0  0  0
  7  9  1  0  0  0  0
  9 10  1  0  0  0  0
  9 28  1  0  0  0  0
 10 11  1  0  0  0  0
 10 29  1  0  0  0  0
 10 30  1  0  0  0  0
 11 12  1  0  0  0  0
 11 13  1  0  0  0  0
 11 31  1  0  0  0  0
 12 32  1  0  0  0  0
 12 33  1  0  0  0  0
 12 34  1  0  0  0  0
 13 18  1  0  0  0  0
 13 14  1  0  0  0  0
 14 15  1  0  0  0  0
 14 35  1  0  0  0  0
 14 36  1  0  0  0  0
 15 16  1  0  0  0  0
 15 37  1  0  0  0  0
 15 38  1  0  0  0  0
 16 17  1  0  0  0  0
 17 18  1  0  0  0  0
 17 39  1  0  0  0  0
 17 40  1  0  0  0  0
 18 41  1  0  0  0  0
 18 42  1  0  0  0  0
 19 20  2  0  0  0  0
 19 43  1  0  0  0  0
M  END
> <s_m_source_file>
AV-unprocessed.smi

> <i_m_source_file_index>
1780

> <i_lp_mmshare_version>
43012

> <i_f3d_flags>
0

> <s_epik_input>
W0NIM11bQ0gyXW4xW2NIXWMoW2NIXW4xKVtOSF1DKD1PKVtOSF1bQ0gyXVtDQEhdKFtDSDNdKU4yW0NIMl1bQ0gyXU9bQ0gyXVtDSDJdMg==

> <s_epik_cmdline>
J2VwaWtfcHl0aG9uJywgJy1waCcsICc3LjAnLCAnLXRuJywgJzgnLCAnLW1hJywgJzIwMCcsICctbWV0YWxfYmluZGluZycsICctaW1hZScsICc8aW5maWxlLm1hZT4nLCAnLW9tYWUnLCAnPG91dGZpbGUubWFlPic=

> <r_lp_tautomer_probability>
1

> <r_epik_Ionization_Penalty>
0.242902

> <r_epik_Ionization_Penalty_Charging>
0

> <r_epik_Ionization_Penalty_Neutral>
0.242902

> <r_epik_State_Penalty>
0.233765

> <r_epik_Charging_Adjusted_Penalty>
0.233765

> <i_epik_Tot_Q>
0

> <i_epik_Tot_abs_Q>
0

> <r_epik_Metal_State_Penalty>
0.233759

> <b_epik_Metal_Only>
0

> <s_lp_Force_Field>
OPLS_2005

> <r_lp_Energy>
32.6304

> <b_lp_Chiralities_Consistent>
1

> <s_lp_Variant>
AV-unprocessed.smi:1780-1

> <Gold.Version>
5.8.1

> <Gold.Id.Protein>
6NUR|6NUR_protein|mol2

> <Gold.PLP.Fitness>
44.3902

> <Gold.PLP.PLP>
-35.8111

> <Gold.PLP.part.hbond>
-4.8266

> <Gold.PLP.part.metal>
0.0000

> <Gold.PLP.part.buried>
-2.5110

> <Gold.PLP.part.nonpolar>
-28.5870

> <Gold.PLP.part.repulsive>
0.6026

> <Gold.PLP.ligand.clash>
0.0000

> <Gold.PLP.ligand.torsion>
0.4777

> <Gold.PLP.Chemscore.Hbond>
3.1650

> <Gold.PLP.Chemscore.CHOScore>
0.0000

> <Gold.PLP.Chemscore.Metal>
0.0000

> <Gold.Chemscore.Hbonds>
donor molecule, donor type, donor heavy atom, donor atom, acceptor molecule, acceptor atom, score
      L1  H     6    27       P1  7948  1.00
      L1  H     9    28       P1  7948  1.00
      P1  H  7989  7998       L1    20  0.18
      P1  H 11000 11005       L1    16  1.00

> <Gold.PLP.Chemscore.Internal.Correction>
0.0394

> <Gold.Rescore>
     Score         DG    S(hbond)    S(metal)    S(lipo)     H(rot)  DE(clash)    DE(int)     intcor
     17.40     -19.25       2.88        0.00      70.74       1.61       0.08       1.77       ----

> <Gold.Chemscore.Fitness>
17.3991

> <Gold.Chemscore.DG>
-19.2470

> <Gold.Chemscore.ZeroCoef>
-5.4800

> <Gold.Chemscore.Hbond>
2.8791

> <Gold.Chemscore.Metal>
0.0000

> <Gold.Chemscore.Lipo>
70.7413

> <Gold.Chemscore.Internal_Hbond>
0.0000

> <Gold.Chemscore.DEClash>
0.0758

> <Gold.Chemscore.DEInternal>
1.7722

> <Gold.Chemscore.Rot>
1.6117

> <Gold.Chemscore.Internal.Correction>
   9.000000E+99

> <Gold.Chemscore.Hbonds>
donor molecule, donor type, donor heavy atom, donor atom, acceptor molecule, acceptor atom, score
      L1  H     6    27       P1  7948  0.95
      L1  H     9    28       P1  7948  0.96
      P1  H 11000 11005       L1    16  0.93

> <Gold.Chemscore.Hbond.Weighted>
-9.6163

> <Gold.Chemscore.Metal.Weighted>
-0.0000

> <Gold.Chemscore.Lipo.Weighted>
-8.2767

> <Gold.Chemscore.Internal_Hbond.Weighted>
0.0000

> <Gold.Chemscore.DEClash.Weighted>
0.0758

> <Gold.Chemscore.DEInternal.Weighted>
1.7722

> <Gold.Chemscore.Rot.Weighted>
4.1260

> <Gold.Chemscore.Internal.Correction.Weighted>
   9.000000E+99

> <Gold.Protein.RotatedTorsions>
[ 6907 6896 6895 6894 ] final  158.30 input  -60.11 | X-H torsion
[ 7974 7965 7964 7962 ] final -118.43 input  175.53 | X-H torsion
[ 8008 7997 7996 7995 ] final    2.67 input   59.86 | X-H torsion
[ 10167 10162 10161 10158 ] final  169.36 input  -65.29 | X-H torsion
[ 10718 10713 10712 10709 ] final   37.30 input   66.30 | X-H torsion
[ 10763 10752 10751 10750 ] final   73.88 input  -60.55 | X-H torsion
[ 11005 11000 10999 10996 ] final   23.87 input  -57.11 | X-H torsion

> <Gold.Protein.ActiveResidues>
 VAL166  LYS551  ARG553  GLY616  TRP617  ASP618  TYR619  PRO620  LYS621  CYS622 
 ASP623  PHE694  ASN695  SER759  ASP760  ASP761  ALA762  ILE779  LEU786  VAL792 
 PHE793  MET794  SER795  GLU796  ALA797  LYS798  CYS799  TRP800  GLU811  SER814 

> <Gold.Protein.RotatedAtoms>
  152.0025  133.3830  159.4187 H   0  0  0  0  0  0  0  0  0  0  0  0  # atno 6907 bound_to 6896
  150.6908  134.3819  159.5047 H   0  0  0  0  0  0  0  0  0  0  0  0  # atno 6908 bound_to 6896
  152.1568  134.8944  160.0595 H   0  0  0  0  0  0  0  0  0  0  0  0  # atno 6909 bound_to 6896
  145.0739  140.8378  143.4079 H   0  0  0  0  0  0  0  0  0  0  0  0  # atno 7974 bound_to 7965
  154.6944  140.2660  155.6781 H   0  0  0  0  0  0  0  0  0  0  0  0  # atno 8008 bound_to 7997
  156.2743  140.2784  156.1457 H   0  0  0  0  0  0  0  0  0  0  0  0  # atno 8009 bound_to 7997
  155.0852  140.0373  157.2641 H   0  0  0  0  0  0  0  0  0  0  0  0  # atno 8010 bound_to 7997
  139.4990  144.3714  151.9720 H   0  0  0  0  0  0  0  0  0  0  0  0  # atno 10167 bound_to 10162
  157.3453  130.7569  149.6940 H   0  0  0  0  0  0  0  0  0  0  0  0  # atno 10718 bound_to 10713
  153.0550  135.5046  154.7959 H   0  0  0  0  0  0  0  0  0  0  0  0  # atno 10763 bound_to 10752
  154.6792  135.2965  154.9638 H   0  0  0  0  0  0  0  0  0  0  0  0  # atno 10764 bound_to 10752
  154.0430  135.6714  153.4845 H   0  0  0  0  0  0  0  0  0  0  0  0  # atno 10765 bound_to 10752
  140.3648  134.2086  155.7670 H   0  0  0  0  0  0  0  0  0  0  0  0  # atno 11005 bound_to 11000
  145.1259  139.2663  143.5564 LP  0  0  0  0  0  0  0  0  0  0  0  0  # atno 17320 bound_to 7965
  146.3529  140.0897  142.8613 LP  0  0  0  0  0  0  0  0  0  0  0  0  # atno 17321 bound_to 7965
  140.3150  144.3494  150.6024 LP  0  0  0  0  0  0  0  0  0  0  0  0  # atno 17342 bound_to 10162
  140.5768  143.2176  151.7500 LP  0  0  0  0  0  0  0  0  0  0  0  0  # atno 17343 bound_to 10162
  155.9713  130.4156  150.4189 LP  0  0  0  0  0  0  0  0  0  0  0  0  # atno 17370 bound_to 10713
  157.2243  131.0489  151.2528 LP  0  0  0  0  0  0  0  0  0  0  0  0  # atno 17371 bound_to 10713
  141.1973  133.8063  157.0635 LP  0  0  0  0  0  0  0  0  0  0  0  0  # atno 17394 bound_to 11000
  140.0598  134.9761  157.1284 LP  0  0  0  0  0  0  0  0  0  0  0  0  # atno 17395 bound_to 11000

$$$$
