AV-unprocessed.smi:551|AV-procd|sdf|2899|dock1
  -GOLD-   2262023393D 1   1.00000     0.00000
 Structure written by MMmdl.
 39 40  0  0  0  0  0  0  0  0  2 V2000
  148.7433  139.1509  156.6802 C   0  0  0  0  0  0  0  0  0  0  0  0
  150.0106  139.4139  155.8558 C   0  0  1  0  0  0  0  0  0  0  0  0
  149.6708  139.6569  154.3690 C   0  0  0  0  0  0  0  0  0  0  0  0
  148.4365  140.4266  154.1796 N   0  0  0  0  0  0  0  0  0  0  0  0
  148.1970  141.7228  154.5588 C   0  0  0  0  0  0  0  0  0  0  0  0
  146.9182  142.0162  154.1608 C   0  0  0  0  0  0  0  0  0  0  0  0
  146.4296  140.8859  153.5619 N   0  3  0  0  0  0  0  0  0  0  0  0
  147.3526  139.9188  153.5789 C   0  0  0  0  0  0  0  0  0  0  0  0
  150.7164  140.5605  156.4262 N   0  0  0  0  0  0  0  0  0  0  0  0
  151.2124  140.6371  157.6717 C   0  0  0  0  0  0  0  0  0  0  0  0
  151.1155  139.7264  158.4952 O   0  0  0  0  0  0  0  0  0  0  0  0
  151.9491  141.9326  158.0341 C   0  0  0  0  0  0  0  0  0  0  0  0
  152.4031  141.9104  159.5093 C   0  0  0  0  0  0  0  0  0  0  0  0
  153.1383  143.2071  159.8859 C   0  0  0  0  0  0  0  0  0  0  0  0
  152.2696  144.4429  159.6012 C   0  0  0  0  0  0  0  0  0  0  0  0
  151.8001  144.4691  158.1379 C   0  0  0  0  0  0  0  0  0  0  0  0
  151.0671  143.1701  157.7642 C   0  0  0  0  0  0  0  0  0  0  0  0
  148.2046  138.2805  156.3045 H   0  0  0  0  0  0  0  0  0  0  0  0
  148.0627  140.0023  156.6473 H   0  0  0  0  0  0  0  0  0  0  0  0
  148.9869  138.9588  157.7259 H   0  0  0  0  0  0  0  0  0  0  0  0
  150.6347  138.5219  155.9352 H   0  0  0  0  0  0  0  0  0  0  0  0
  150.4752  140.2079  153.8797 H   0  0  0  0  0  0  0  0  0  0  0  0
  149.5663  138.7109  153.8353 H   0  0  0  0  0  0  0  0  0  0  0  0
  148.9376  142.3270  155.0628 H   0  0  0  0  0  0  0  0  0  0  0  0
  146.3352  142.9206  154.2554 H   0  0  0  0  0  0  0  0  0  0  0  0
  147.2472  138.9274  153.1757 H   0  0  0  0  0  0  0  0  0  0  0  0
  150.8413  141.3607  155.8227 H   0  0  0  0  0  0  0  0  0  0  0  0
  152.8392  142.0079  157.4063 H   0  0  0  0  0  0  0  0  0  0  0  0
  151.5417  141.7829  160.1670 H   0  0  0  0  0  0  0  0  0  0  0  0
  153.0569  141.0558  159.6891 H   0  0  0  0  0  0  0  0  0  0  0  0
  153.4172  143.1843  160.9397 H   0  0  0  0  0  0  0  0  0  0  0  0
  154.0690  143.2765  159.3213 H   0  0  0  0  0  0  0  0  0  0  0  0
  151.4022  144.4396  160.2626 H   0  0  0  0  0  0  0  0  0  0  0  0
  152.8286  145.3511  159.8285 H   0  0  0  0  0  0  0  0  0  0  0  0
  151.1457  145.3256  157.9733 H   0  0  0  0  0  0  0  0  0  0  0  0
  152.6597  144.6059  157.4804 H   0  0  0  0  0  0  0  0  0  0  0  0
  150.7787  143.2045  156.7126 H   0  0  0  0  0  0  0  0  0  0  0  0
  150.1399  143.1054  158.3363 H   0  0  0  0  0  0  0  0  0  0  0  0
  145.5050  140.7937  153.1601 H   0  0  0  0  0  0  0  0  0  0  0  0
  1  2  1  0  0  0  0
  1 18  1  0  0  0  0
  1 19  1  0  0  0  0
  1 20  1  0  0  0  0
  2  3  1  0  0  0  0
  2  9  1  0  0  0  0
  2 21  1  0  0  0  0
  3  4  1  0  0  0  0
  3 22  1  0  0  0  0
  3 23  1  0  0  0  0
  4  8  1  0  0  0  0
  4  5  1  0  0  0  0
  5  6  2  0  0  0  0
  5 24  1  0  0  0  0
  6  7  1  0  0  0  0
  6 25  1  0  0  0  0
  7  8  2  0  0  0  0
  7 39  1  0  0  0  0
  8 26  1  0  0  0  0
  9 10  1  0  0  0  0
  9 27  1  0  0  0  0
 10 11  2  0  0  0  0
 10 12  1  0  0  0  0
 12 17  1  0  0  0  0
 12 13  1  0  0  0  0
 12 28  1  0  0  0  0
 13 14  1  0  0  0  0
 13 29  1  0  0  0  0
 13 30  1  0  0  0  0
 14 15  1  0  0  0  0
 14 31  1  0  0  0  0
 14 32  1  0  0  0  0
 15 16  1  0  0  0  0
 15 33  1  0  0  0  0
 15 34  1  0  0  0  0
 16 17  1  0  0  0  0
 16 35  1  0  0  0  0
 16 36  1  0  0  0  0
 17 37  1  0  0  0  0
 17 38  1  0  0  0  0
M  CHG  1   7   1
M  END
> <s_m_source_file>
AV-unprocessed.smi

> <i_m_source_file_index>
551

> <i_lp_mmshare_version>
43012

> <i_f3d_flags>
0

> <s_epik_input>
W2NIXTFuW2NIXVtjSF1uMVtDSDJdW0NAQEhdKFtDSDNdKVtOSF1DKD1PKVtDSF0yW0NIMl1bQ0gyXVtDSDJdW0NIMl1bQ0gyXTI=

> <s_epik_cmdline>
J2VwaWtfcHl0aG9uJywgJy1waCcsICc3LjAnLCAnLXRuJywgJzgnLCAnLW1hJywgJzIwMCcsICctbWV0YWxfYmluZGluZycsICctaW1hZScsICc8aW5maWxlLm1hZT4nLCAnLW9tYWUnLCAnPG91dGZpbGUubWFlPic=

> <r_lp_tautomer_probability>
1

> <r_epik_Ionization_Penalty>
0.244425

> <r_epik_Ionization_Penalty_Charging>
0

> <r_epik_Ionization_Penalty_Neutral>
0.244425

> <r_epik_State_Penalty>
0.23553

> <r_epik_Charging_Adjusted_Penalty>
0.23553

> <i_epik_Tot_Q>
1

> <i_epik_Tot_abs_Q>
1

> <r_epik_Metal_State_Penalty>
0.528799

> <b_epik_Metal_Only>
0

> <s_lp_Force_Field>
OPLS_2005

> <r_lp_Energy>
13.1921

> <b_lp_Chiralities_Consistent>
1

> <s_lp_Variant>
AV-unprocessed.smi:551-2

> <Gold.Version>
5.8.1

> <Gold.Id.Protein>
6NUR|6NUR_protein|mol2

> <Gold.PLP.Fitness>
46.6889

> <Gold.PLP.PLP>
-38.3152

> <Gold.PLP.part.hbond>
-1.0000

> <Gold.PLP.part.metal>
0.0000

> <Gold.PLP.part.buried>
-3.5975

> <Gold.PLP.part.nonpolar>
-33.6744

> <Gold.PLP.part.repulsive>
0.0986

> <Gold.PLP.ligand.clash>
0.0000

> <Gold.PLP.ligand.torsion>
0.3179

> <Gold.PLP.Chemscore.Hbond>
2.0000

> <Gold.PLP.Chemscore.CHOScore>
0.9834

> <Gold.PLP.Chemscore.Metal>
0.0000

> <Gold.Chemscore.Hbonds>
donor molecule, donor type, donor heavy atom, donor atom, acceptor molecule, acceptor atom, score
      L1  H     7    39       P1 10175  2.00
      L1  C     5    24       P1  8028  0.98

> <Gold.PLP.Chemscore.Internal.Correction>
0.0593

> <Gold.Rescore>
     Score         DG    S(hbond)    S(metal)    S(lipo)     H(rot)  DE(clash)    DE(int)     intcor
     14.75     -15.19       0.96        0.00      95.07       1.80       0.00       0.43       ----

> <Gold.Chemscore.Fitness>
14.7547

> <Gold.Chemscore.DG>
-15.1905

> <Gold.Chemscore.ZeroCoef>
-5.4800

> <Gold.Chemscore.Hbond>
0.9561

> <Gold.Chemscore.Metal>
0.0000

> <Gold.Chemscore.Lipo>
95.0687

> <Gold.Chemscore.Internal_Hbond>
0.0000

> <Gold.Chemscore.DEClash>
0.0029

> <Gold.Chemscore.DEInternal>
0.4328

> <Gold.Chemscore.Rot>
1.7991

> <Gold.Chemscore.Internal.Correction>
   9.000000E+99

> <Gold.Chemscore.Hbonds>
donor molecule, donor type, donor heavy atom, donor atom, acceptor molecule, acceptor atom, score
      L1  H     7    39       P1 10175  0.64

> <Gold.Chemscore.Hbond.Weighted>
-3.1932

> <Gold.Chemscore.Metal.Weighted>
-0.0000

> <Gold.Chemscore.Lipo.Weighted>
-11.1230

> <Gold.Chemscore.Internal_Hbond.Weighted>
0.0000

> <Gold.Chemscore.DEClash.Weighted>
0.0029

> <Gold.Chemscore.DEInternal.Weighted>
0.4328

> <Gold.Chemscore.Rot.Weighted>
4.6058

> <Gold.Chemscore.Internal.Correction.Weighted>
   9.000000E+99

> <Gold.Protein.RotatedTorsions>
[ 6907 6896 6895 6894 ] final  118.96 input  -60.11 | X-H torsion
[ 7974 7965 7964 7962 ] final  144.87 input  175.53 | X-H torsion
[ 8008 7997 7996 7995 ] final    2.96 input   59.86 | X-H torsion
[ 10167 10162 10161 10158 ] final -177.63 input  -65.29 | X-H torsion
[ 10718 10713 10712 10709 ] final  119.27 input   66.30 | X-H torsion
[ 10763 10752 10751 10750 ] final  -93.99 input  -60.55 | X-H torsion
[ 11005 11000 10999 10996 ] final   81.01 input  -57.11 | X-H torsion

> <Gold.Protein.ActiveResidues>
 VAL166  LYS551  ARG553  GLY616  TRP617  ASP618  TYR619  PRO620  LYS621  CYS622 
 ASP623  PHE694  ASN695  SER759  ASP760  ASP761  ALA762  ILE779  LEU786  VAL792 
 PHE793  MET794  SER795  GLU796  ALA797  LYS798  CYS799  TRP800  GLU811  SER814 

> <Gold.Protein.RotatedAtoms>
  152.4506  133.7622  159.6752 H   0  0  0  0  0  0  0  0  0  0  0  0  # atno 6907 bound_to 6896
  150.8417  133.7915  159.3064 H   0  0  0  0  0  0  0  0  0  0  0  0  # atno 6908 bound_to 6896
  151.5538  135.1069  160.0008 H   0  0  0  0  0  0  0  0  0  0  0  0  # atno 6909 bound_to 6896
  144.8800  139.5714  143.5847 H   0  0  0  0  0  0  0  0  0  0  0  0  # atno 7974 bound_to 7965
  154.6978  140.2667  155.6749 H   0  0  0  0  0  0  0  0  0  0  0  0  # atno 8008 bound_to 7997
  156.2754  140.2778  156.1502 H   0  0  0  0  0  0  0  0  0  0  0  0  # atno 8009 bound_to 7997
  155.0806  140.0372  157.2628 H   0  0  0  0  0  0  0  0  0  0  0  0  # atno 8010 bound_to 7997
  139.5471  144.2207  152.1008 H   0  0  0  0  0  0  0  0  0  0  0  0  # atno 10167 bound_to 10162
  157.5973  131.1056  150.7872 H   0  0  0  0  0  0  0  0  0  0  0  0  # atno 10718 bound_to 10713
  154.7012  135.5174  153.8529 H   0  0  0  0  0  0  0  0  0  0  0  0  # atno 10763 bound_to 10752
  153.0705  135.6599  154.0266 H   0  0  0  0  0  0  0  0  0  0  0  0  # atno 10764 bound_to 10752
  154.0125  135.3001  155.3370 H   0  0  0  0  0  0  0  0  0  0  0  0  # atno 10765 bound_to 10752
  139.9113  134.7964  156.1985 H   0  0  0  0  0  0  0  0  0  0  0  0  # atno 11005 bound_to 11000
  146.2988  139.7361  142.9107 LP  0  0  0  0  0  0  0  0  0  0  0  0  # atno 17320 bound_to 7965
  145.3972  141.0380  143.3091 LP  0  0  0  0  0  0  0  0  0  0  0  0  # atno 17321 bound_to 7965
  140.1696  144.4948  150.6587 LP  0  0  0  0  0  0  0  0  0  0  0  0  # atno 17342 bound_to 10162
  140.6722  143.2290  151.5596 LP  0  0  0  0  0  0  0  0  0  0  0  0  # atno 17343 bound_to 10162
  156.8279  130.5006  149.5335 LP  0  0  0  0  0  0  0  0  0  0  0  0  # atno 17370 bound_to 10713
  156.1039  130.5989  150.9938 LP  0  0  0  0  0  0  0  0  0  0  0  0  # atno 17371 bound_to 10713
  141.0539  133.6875  156.1824 LP  0  0  0  0  0  0  0  0  0  0  0  0  # atno 17394 bound_to 11000
  140.6767  134.4811  157.5588 LP  0  0  0  0  0  0  0  0  0  0  0  0  # atno 17395 bound_to 11000

$$$$
