AV-unprocessed.smi:246|AV-procd|sdf|1886|dock6
  -GOLD-   2262020543D 1   1.00000     0.00000
 Structure written by MMmdl.
 57 60  0  0  0  0  0  0  0  0  1 V2000
  153.4409  142.0800  161.9984 C   0  0  0  0  0  0  0  0  0  0  0  0
  153.0428  142.4223  160.5564 C   0  0  0  0  0  0  0  0  0  0  0  0
  152.2002  141.4244  159.9984 O   0  0  0  0  0  0  0  0  0  0  0  0
  151.8380  141.6577  158.6453 C   0  0  0  0  0  0  0  0  0  0  0  0
  151.5573  140.3106  157.9744 C   0  0  0  0  0  0  0  0  0  0  0  0
  151.1626  140.5472  156.6320 O   0  0  0  0  0  0  0  0  0  0  0  0
  150.0344  141.4015  156.5039 C   0  0  1  0  0  0  0  0  0  0  0  0
  149.9236  141.9432  155.0742 C   0  0  0  0  0  0  0  0  0  0  0  0
  149.1868  140.8299  154.3356 C   0  0  0  0  0  0  0  0  0  0  0  0
  148.2774  140.2705  155.3250 N   0  0  0  0  0  0  0  0  0  0  0  0
  147.5644  139.1429  155.0662 C   0  0  0  0  0  0  0  0  0  0  0  0
  147.3675  138.2472  156.0703 N   0  0  0  0  0  0  0  0  0  0  0  0
  146.6686  137.1291  155.8570 C   0  0  0  0  0  0  0  0  0  0  0  0
  146.0883  136.7104  154.7317 N   0  0  0  0  0  0  0  0  0  0  0  0
  146.2884  137.5962  153.7145 C   0  0  0  0  0  0  0  0  0  0  0  0
  147.0141  138.8203  153.7899 C   0  0  0  0  0  0  0  0  0  0  0  0
  147.0234  139.4334  152.5411 N   0  0  0  0  0  0  0  0  0  0  0  0
  146.3356  138.6280  151.7800 C   0  0  0  0  0  0  0  0  0  0  0  0
  145.8424  137.5070  152.4072 N   0  0  0  0  0  0  0  0  0  0  0  0
  145.0448  136.4516  151.8029 C   0  0  0  0  0  0  0  0  0  0  0  0
  145.8648  135.3775  151.0507 C   0  0  1  0  0  0  0  0  0  0  0  0
  146.8928  134.8510  151.8674 O   0  0  0  0  0  0  0  0  0  0  0  0
  145.0366  134.2336  150.4214 C   0  0  1  0  0  0  0  0  0  0  0  0
  145.8268  133.2141  149.5952 C   0  0  0  0  0  0  0  0  0  0  0  0
  144.9138  132.0097  149.6485 C   0  0  0  0  0  0  0  0  0  0  0  0
  144.3876  132.0874  151.0784 C   0  0  0  0  0  0  0  0  0  0  0  0
  144.3066  133.4759  151.3838 O   0  0  0  0  0  0  0  0  0  0  0  0
  148.7771  140.5361  156.6683 C   0  0  0  0  0  0  0  0  0  0  0  0
  150.0623  142.1949  157.2531 H   0  0  0  0  0  0  0  0  0  0  0  0
  154.1541  142.8088  162.3836 H   0  0  0  0  0  0  0  0  0  0  0  0
  153.9093  141.0968  162.0497 H   0  0  0  0  0  0  0  0  0  0  0  0
  152.5818  142.0774  162.6684 H   0  0  0  0  0  0  0  0  0  0  0  0
  152.5785  143.4079  160.4980 H   0  0  0  0  0  0  0  0  0  0  0  0
  153.9446  142.4686  159.9453 H   0  0  0  0  0  0  0  0  0  0  0  0
  150.9663  142.3075  158.5634 H   0  0  0  0  0  0  0  0  0  0  0  0
  152.6653  142.1532  158.1354 H   0  0  0  0  0  0  0  0  0  0  0  0
  152.4645  139.7050  157.9728 H   0  0  0  0  0  0  0  0  0  0  0  0
  150.7984  139.7606  158.5320 H   0  0  0  0  0  0  0  0  0  0  0  0
  149.3105  142.8453  155.0746 H   0  0  0  0  0  0  0  0  0  0  0  0
  150.8810  142.1919  154.6168 H   0  0  0  0  0  0  0  0  0  0  0  0
  148.6520  141.2094  153.4642 H   0  0  0  0  0  0  0  0  0  0  0  0
  149.8901  140.0639  154.0053 H   0  0  0  0  0  0  0  0  0  0  0  0
  146.5573  136.4778  156.7112 H   0  0  0  0  0  0  0  0  0  0  0  0
  146.1562  138.8376  150.7356 H   0  0  0  0  0  0  0  0  0  0  0  0
  144.4496  135.9802  152.5859 H   0  0  0  0  0  0  0  0  0  0  0  0
  144.3317  136.9169  151.1211 H   0  0  0  0  0  0  0  0  0  0  0  0
  146.3728  135.8884  150.2319 H   0  0  0  0  0  0  0  0  0  0  0  0
  147.7151  135.2320  151.5994 H   0  0  0  0  0  0  0  0  0  0  0  0
  144.2872  134.6785  149.7648 H   0  0  0  0  0  0  0  0  0  0  0  0
  146.0273  133.5546  148.5790 H   0  0  0  0  0  0  0  0  0  0  0  0
  146.7796  132.9697  150.0662 H   0  0  0  0  0  0  0  0  0  0  0  0
  144.0949  132.1266  148.9375 H   0  0  0  0  0  0  0  0  0  0  0  0
  145.4256  131.0714  149.4324 H   0  0  0  0  0  0  0  0  0  0  0  0
  143.4227  131.5944  151.1981 H   0  0  0  0  0  0  0  0  0  0  0  0
  145.0935  131.6229  151.7680 H   0  0  0  0  0  0  0  0  0  0  0  0
  148.9964  139.6195  157.2174 H   0  0  0  0  0  0  0  0  0  0  0  0
  148.0112  141.0845  157.2174 H   0  0  0  0  0  0  0  0  0  0  0  0
  1  2  1  0  0  0  0
  1 30  1  0  0  0  0
  1 31  1  0  0  0  0
  1 32  1  0  0  0  0
  2  3  1  0  0  0  0
  2 33  1  0  0  0  0
  2 34  1  0  0  0  0
  3  4  1  0  0  0  0
  4  5  1  0  0  0  0
  4 35  1  0  0  0  0
  4 36  1  0  0  0  0
  5  6  1  0  0  0  0
  5 37  1  0  0  0  0
  5 38  1  0  0  0  0
  6  7  1  0  0  0  0
  7 29  1  0  0  0  0
  7 28  1  0  0  0  0
  7  8  1  0  0  0  0
  8  9  1  0  0  0  0
  8 39  1  0  0  0  0
  8 40  1  0  0  0  0
  9 10  1  0  0  0  0
  9 41  1  0  0  0  0
  9 42  1  0  0  0  0
 10 11  1  0  0  0  0
 10 28  1  0  0  0  0
 11 16  1  0  0  0  0
 11 12  2  0  0  0  0
 12 13  1  0  0  0  0
 13 14  2  0  0  0  0
 13 43  1  0  0  0  0
 14 15  1  0  0  0  0
 15 19  1  0  0  0  0
 15 16  2  0  0  0  0
 16 17  1  0  0  0  0
 17 18  2  0  0  0  0
 18 19  1  0  0  0  0
 18 44  1  0  0  0  0
 19 20  1  0  0  0  0
 20 21  1  0  0  0  0
 20 45  1  0  0  0  0
 20 46  1  0  0  0  0
 21 22  1  0  0  0  0
 21 23  1  0  0  0  0
 21 47  1  0  0  0  0
 22 48  1  0  0  0  0
 23 27  1  0  0  0  0
 23 24  1  0  0  0  0
 23 49  1  0  0  0  0
 24 25  1  0  0  0  0
 24 50  1  0  0  0  0
 24 51  1  0  0  0  0
 25 26  1  0  0  0  0
 25 52  1  0  0  0  0
 25 53  1  0  0  0  0
 26 27  1  0  0  0  0
 26 54  1  0  0  0  0
 26 55  1  0  0  0  0
 28 56  1  0  0  0  0
 28 57  1  0  0  0  0
M  END
> <s_m_source_file>
AV-unprocessed.smi

> <i_m_source_file_index>
246

> <i_lp_mmshare_version>
43012

> <i_f3d_flags>
0

> <s_epik_input>
W0NIM11bQ0gyXU9bQ0gyXVtDSDJdT1tDQEhdMVtDSDJdW0NIMl1OKFtDSDJdMSljKG5bY0hdbjIpYyhjMjMpbltjSF1uM1tDSDJdW0NASF0oW09IXSlbQ0BASF00W0NIMl1bQ0gyXVtDSDJdTzQ=

> <s_epik_cmdline>
J2VwaWtfcHl0aG9uJywgJy1waCcsICc3LjAnLCAnLXRuJywgJzgnLCAnLW1hJywgJzIwMCcsICctbWV0YWxfYmluZGluZycsICctaW1hZScsICc8aW5maWxlLm1hZT4nLCAnLW9tYWUnLCAnPG91dGZpbGUubWFlPic=

> <r_lp_tautomer_probability>
1

> <r_epik_Ionization_Penalty>
0.0024631

> <r_epik_Ionization_Penalty_Charging>
0

> <r_epik_Ionization_Penalty_Neutral>
0.0024631

> <r_epik_State_Penalty>
0.00162428

> <r_epik_Charging_Adjusted_Penalty>
0.00162428

> <i_epik_Tot_Q>
0

> <i_epik_Tot_abs_Q>
0

> <r_epik_Metal_State_Penalty>
-0

> <b_epik_Metal_Only>
0

> <s_lp_Force_Field>
OPLS_2005

> <r_lp_Energy>
53.5717

> <b_lp_Chiralities_Consistent>
1

> <s_lp_Variant>
AV-unprocessed.smi:246-7

> <Gold.Version>
5.8.1

> <Gold.Id.Protein>
6NUR|6NUR_protein|mol2

> <Gold.PLP.Fitness>
46.0021

> <Gold.PLP.PLP>
-41.9485

> <Gold.PLP.part.hbond>
-1.5741

> <Gold.PLP.part.metal>
0.0000

> <Gold.PLP.part.buried>
-4.2615

> <Gold.PLP.part.nonpolar>
-36.8495

> <Gold.PLP.part.repulsive>
0.9739

> <Gold.PLP.ligand.clash>
0.0000

> <Gold.PLP.ligand.torsion>
0.9931

> <Gold.PLP.Chemscore.Hbond>
1.0000

> <Gold.PLP.Chemscore.CHOScore>
0.7433

> <Gold.PLP.Chemscore.Metal>
0.0000

> <Gold.Chemscore.Hbonds>
donor molecule, donor type, donor heavy atom, donor atom, acceptor molecule, acceptor atom, score
      L1  H    22    48       P1  7948  1.00
      L1  C    18    44       P1 10171  0.81

> <Gold.PLP.Chemscore.Internal.Correction>
0.8099

> <Gold.Rescore>
     Score         DG    S(hbond)    S(metal)    S(lipo)     H(rot)  DE(clash)    DE(int)     intcor
     10.98     -13.54       0.97        0.00     109.15       3.10       1.66       0.90       ----

> <Gold.Chemscore.Fitness>
10.9793

> <Gold.Chemscore.DG>
-13.5371

> <Gold.Chemscore.ZeroCoef>
-5.4800

> <Gold.Chemscore.Hbond>
0.9670

> <Gold.Chemscore.Metal>
0.0000

> <Gold.Chemscore.Lipo>
109.1457

> <Gold.Chemscore.Internal_Hbond>
0.0000

> <Gold.Chemscore.DEClash>
1.6555

> <Gold.Chemscore.DEInternal>
0.9024

> <Gold.Chemscore.Rot>
3.1026

> <Gold.Chemscore.Internal.Correction>
   9.000000E+99

> <Gold.Chemscore.Hbonds>
donor molecule, donor type, donor heavy atom, donor atom, acceptor molecule, acceptor atom, score
      L1  H    22    48       P1  7948  0.65

> <Gold.Chemscore.Hbond.Weighted>
-3.2297

> <Gold.Chemscore.Metal.Weighted>
-0.0000

> <Gold.Chemscore.Lipo.Weighted>
-12.7700

> <Gold.Chemscore.Internal_Hbond.Weighted>
0.0000

> <Gold.Chemscore.DEClash.Weighted>
1.6555

> <Gold.Chemscore.DEInternal.Weighted>
0.9024

> <Gold.Chemscore.Rot.Weighted>
7.9426

> <Gold.Chemscore.Internal.Correction.Weighted>
   9.000000E+99

> <Gold.Protein.RotatedTorsions>
[ 6907 6896 6895 6894 ] final  -91.47 input  -60.11 | X-H torsion
[ 7974 7965 7964 7962 ] final  -36.52 input  175.53 | X-H torsion
[ 8008 7997 7996 7995 ] final   83.50 input   59.86 | X-H torsion
[ 10167 10162 10161 10158 ] final   58.04 input  -65.29 | X-H torsion
[ 10718 10713 10712 10709 ] final  102.55 input   66.30 | X-H torsion
[ 10763 10752 10751 10750 ] final  -87.15 input  -60.55 | X-H torsion
[ 11005 11000 10999 10996 ] final  -18.75 input  -57.11 | X-H torsion

> <Gold.Protein.ActiveResidues>
 VAL166  LYS551  ARG553  GLY616  TRP617  ASP618  TYR619  PRO620  LYS621  CYS622 
 ASP623  PHE694  ASN695  SER759  ASP760  ASP761  ALA762  ILE779  LEU786  VAL792 
 PHE793  MET794  SER795  GLU796  ALA797  LYS798  CYS799  TRP800  GLU811  SER814 

> <Gold.Protein.RotatedAtoms>
  150.6893  134.2271  159.4419 H   0  0  0  0  0  0  0  0  0  0  0  0  # atno 6907 bound_to 6896
  152.0224  134.9812  160.0580 H   0  0  0  0  0  0  0  0  0  0  0  0  # atno 6908 bound_to 6896
  152.1384  133.4414  159.4791 H   0  0  0  0  0  0  0  0  0  0  0  0  # atno 6909 bound_to 6896
  146.0654  140.6288  142.8977 H   0  0  0  0  0  0  0  0  0  0  0  0  # atno 7974 bound_to 7965
  155.9248  140.3419  155.6201 H   0  0  0  0  0  0  0  0  0  0  0  0  # atno 8008 bound_to 7997
  155.7229  140.0786  157.2341 H   0  0  0  0  0  0  0  0  0  0  0  0  # atno 8009 bound_to 7997
  154.4075  140.1602  156.2410 H   0  0  0  0  0  0  0  0  0  0  0  0  # atno 8010 bound_to 7997
  140.1915  144.4081  150.6569 H   0  0  0  0  0  0  0  0  0  0  0  0  # atno 10167 bound_to 10162
  157.6799  131.0756  150.5420 H   0  0  0  0  0  0  0  0  0  0  0  0  # atno 10718 bound_to 10713
  154.6304  135.5424  153.7674 H   0  0  0  0  0  0  0  0  0  0  0  0  # atno 10763 bound_to 10752
  153.0281  135.6434  154.1310 H   0  0  0  0  0  0  0  0  0  0  0  0  # atno 10764 bound_to 10752
  154.1240  135.2918  155.3181 H   0  0  0  0  0  0  0  0  0  0  0  0  # atno 10765 bound_to 10752
  140.8299  133.8005  155.9747 H   0  0  0  0  0  0  0  0  0  0  0  0  # atno 11005 bound_to 11000
  144.7199  140.4339  143.7016 LP  0  0  0  0  0  0  0  0  0  0  0  0  # atno 17320 bound_to 7965
  145.6486  139.1561  143.2875 LP  0  0  0  0  0  0  0  0  0  0  0  0  # atno 17321 bound_to 7965
  140.6452  143.2212  151.6201 LP  0  0  0  0  0  0  0  0  0  0  0  0  # atno 17342 bound_to 10162
  139.5254  144.3076  152.1020 LP  0  0  0  0  0  0  0  0  0  0  0  0  # atno 17343 bound_to 10162
  156.5727  130.4284  149.6012 LP  0  0  0  0  0  0  0  0  0  0  0  0  # atno 17370 bound_to 10713
  156.2727  130.7026  151.1828 LP  0  0  0  0  0  0  0  0  0  0  0  0  # atno 17371 bound_to 10713
  140.9009  134.2379  157.5042 LP  0  0  0  0  0  0  0  0  0  0  0  0  # atno 17394 bound_to 11000
  139.8705  134.9706  156.4707 LP  0  0  0  0  0  0  0  0  0  0  0  0  # atno 17395 bound_to 11000

$$$$
