AV-unprocessed.smi:639|AV-procd|sdf|3145|dock1
  -GOLD-   22720 0 73D 1   1.00000     0.00000
 Structure written by MMmdl.
 24 25  0  0  0  0  0  0  0  0  1 V2000
  152.3432  145.0092  158.5563 C   0  0  0  0  0  0  0  0  0  0  0  0
  152.1245  143.5977  158.3232 N   0  0  0  0  0  0  0  0  0  0  0  0
  151.2958  142.9981  157.4008 C   0  0  0  0  0  0  0  0  0  0  0  0
  151.4168  141.6431  157.5490 C   0  0  0  0  0  0  0  0  0  0  0  0
  150.7204  140.5418  156.7737 C   0  0  2  0  0  0  0  0  0  0  0  0
  149.7158  141.0956  155.7463 C   0  0  0  0  0  0  0  0  0  0  0  0
  150.0846  139.5611  157.6412 N   0  0  0  0  0  0  0  0  0  0  0  0
  150.6538  138.3504  157.5630 C   0  0  0  0  0  0  0  0  0  0  0  0
  150.3250  137.3546  158.2032 O   0  0  0  0  0  0  0  0  0  0  0  0
  151.6369  138.4166  156.6601 N   0  0  0  0  0  0  0  0  0  0  0  0
  151.7544  139.6304  156.1242 C   0  0  0  0  0  0  0  0  0  0  0  0
  152.5530  139.9768  155.2550 O   0  0  0  0  0  0  0  0  0  0  0  0
  152.3616  141.5213  158.6112 C   0  0  0  0  0  0  0  0  0  0  0  0
  152.7799  142.6885  159.0718 N   0  0  0  0  0  0  0  0  0  0  0  0
  152.0499  145.5817  157.6759 H   0  0  0  0  0  0  0  0  0  0  0  0
  153.3976  145.1965  158.7627 H   0  0  0  0  0  0  0  0  0  0  0  0
  151.7472  145.3362  159.4087 H   0  0  0  0  0  0  0  0  0  0  0  0
  150.6938  143.5784  156.7171 H   0  0  0  0  0  0  0  0  0  0  0  0
  150.1998  141.7632  155.0327 H   0  0  0  0  0  0  0  0  0  0  0  0
  148.9242  141.6602  156.2400 H   0  0  0  0  0  0  0  0  0  0  0  0
  149.2414  140.2957  155.1759 H   0  0  0  0  0  0  0  0  0  0  0  0
  149.3101  139.7880  158.2480 H   0  0  0  0  0  0  0  0  0  0  0  0
  152.2180  137.6316  156.4044 H   0  0  0  0  0  0  0  0  0  0  0  0
  152.7553  140.6210  159.0595 H   0  0  0  0  0  0  0  0  0  0  0  0
  1  2  1  0  0  0  0
  1 15  1  0  0  0  0
  1 16  1  0  0  0  0
  1 17  1  0  0  0  0
  2 14  1  0  0  0  0
  2  3  1  0  0  0  0
  3  4  2  0  0  0  0
  3 18  1  0  0  0  0
  4  5  1  0  0  0  0
  4 13  1  0  0  0  0
  5 11  1  0  0  0  0
  5  6  1  0  0  0  0
  5  7  1  0  0  0  0
  6 19  1  0  0  0  0
  6 20  1  0  0  0  0
  6 21  1  0  0  0  0
  7  8  1  0  0  0  0
  7 22  1  0  0  0  0
  8  9  2  0  0  0  0
  8 10  1  0  0  0  0
 10 11  1  0  0  0  0
 10 23  1  0  0  0  0
 11 12  2  0  0  0  0
 13 14  2  0  0  0  0
 13 24  1  0  0  0  0
M  END
> <s_m_source_file>
AV-unprocessed.smi

> <i_m_source_file_index>
639

> <i_lp_mmshare_version>
43012

> <i_f3d_flags>
0

> <s_epik_input>
W0NIM11uMVtjSF1jKFtjSF1uMSlbQ0BAXTIoW0NIM10pW05IXUMoPU8pW05IXUMyPU8=

> <s_epik_cmdline>
J2VwaWtfcHl0aG9uJywgJy1waCcsICc3LjAnLCAnLXRuJywgJzgnLCAnLW1hJywgJzIwMCcsICctbWV0YWxfYmluZGluZycsICctaW1hZScsICc8aW5maWxlLm1hZT4nLCAnLW9tYWUnLCAnPG91dGZpbGUubWFlPic=

> <r_lp_tautomer_probability>
1

> <r_epik_Ionization_Penalty>
0.0282779

> <r_epik_Ionization_Penalty_Charging>
0

> <r_epik_Ionization_Penalty_Neutral>
0.0282779

> <r_epik_State_Penalty>
0.022996

> <r_epik_Charging_Adjusted_Penalty>
0.022996

> <i_epik_Tot_Q>
0

> <i_epik_Tot_abs_Q>
0

> <r_epik_Metal_State_Penalty>
0.428533

> <b_epik_Metal_Only>
0

> <s_lp_Force_Field>
OPLS_2005

> <r_lp_Energy>
13.4697

> <b_lp_Chiralities_Consistent>
1

> <s_lp_Variant>
AV-unprocessed.smi:639-2

> <Gold.Version>
5.8.1

> <Gold.Id.Protein>
6NUR|6NUR_protein|mol2

> <Gold.PLP.Fitness>
31.9126

> <Gold.PLP.PLP>
-24.6419

> <Gold.PLP.part.hbond>
-2.0000

> <Gold.PLP.part.metal>
0.0000

> <Gold.PLP.part.buried>
-3.3452

> <Gold.PLP.part.nonpolar>
-19.3074

> <Gold.PLP.part.repulsive>
0.1589

> <Gold.PLP.ligand.clash>
0.0000

> <Gold.PLP.ligand.torsion>
0.0880

> <Gold.PLP.Chemscore.Hbond>
1.4399

> <Gold.PLP.Chemscore.CHOScore>
1.0000

> <Gold.PLP.Chemscore.Metal>
0.0000

> <Gold.Chemscore.Hbonds>
donor molecule, donor type, donor heavy atom, donor atom, acceptor molecule, acceptor atom, score
      P1  H  7989  7998       L1    12  0.40
      P1  H  7997  8009       L1    12  1.00
      L1  C     3    18       P1  8028  1.00

> <Gold.PLP.Chemscore.Internal.Correction>
0.1269

> <Gold.Rescore>
     Score         DG    S(hbond)    S(metal)    S(lipo)     H(rot)  DE(clash)    DE(int)     intcor
     12.57     -12.67       1.17        0.00      49.92       1.00       0.00       0.10       ----

> <Gold.Chemscore.Fitness>
12.5672

> <Gold.Chemscore.DG>
-12.6658

> <Gold.Chemscore.ZeroCoef>
-5.4800

> <Gold.Chemscore.Hbond>
1.1694

> <Gold.Chemscore.Metal>
0.0000

> <Gold.Chemscore.Lipo>
49.9159

> <Gold.Chemscore.Internal_Hbond>
0.0000

> <Gold.Chemscore.DEClash>
0.0000

> <Gold.Chemscore.DEInternal>
0.0986

> <Gold.Chemscore.Rot>
1.0000

> <Gold.Chemscore.Internal.Correction>
   9.000000E+99

> <Gold.Chemscore.Hbonds>
donor molecule, donor type, donor heavy atom, donor atom, acceptor molecule, acceptor atom, score
      P1  H  7989  7998       L1    12  0.38
      P1  H  7997  8009       L1    12  0.51

> <Gold.Chemscore.Hbond.Weighted>
-3.9057

> <Gold.Chemscore.Metal.Weighted>
-0.0000

> <Gold.Chemscore.Lipo.Weighted>
-5.8402

> <Gold.Chemscore.Internal_Hbond.Weighted>
0.0000

> <Gold.Chemscore.DEClash.Weighted>
0.0000

> <Gold.Chemscore.DEInternal.Weighted>
0.0986

> <Gold.Chemscore.Rot.Weighted>
2.5600

> <Gold.Chemscore.Internal.Correction.Weighted>
   9.000000E+99

> <Gold.Protein.RotatedTorsions>
[ 6907 6896 6895 6894 ] final  162.35 input  -60.11 | X-H torsion
[ 7974 7965 7964 7962 ] final  122.80 input  175.53 | X-H torsion
[ 8008 7997 7996 7995 ] final -154.21 input   59.86 | X-H torsion
[ 10167 10162 10161 10158 ] final -132.41 input  -65.29 | X-H torsion
[ 10718 10713 10712 10709 ] final -135.80 input   66.30 | X-H torsion
[ 10763 10752 10751 10750 ] final  112.87 input  -60.55 | X-H torsion
[ 11005 11000 10999 10996 ] final  -34.27 input  -57.11 | X-H torsion

> <Gold.Protein.ActiveResidues>
 VAL166  LYS551  ARG553  GLY616  TRP617  ASP618  TYR619  PRO620  LYS621  CYS622 
 ASP623  PHE694  ASN695  SER759  ASP760  ASP761  ALA762  ILE779  LEU786  VAL792 
 PHE793  MET794  SER795  GLU796  ALA797  LYS798  CYS799  TRP800  GLU811  SER814 

> <Gold.Protein.RotatedAtoms>
  151.9418  133.3640  159.3967 H   0  0  0  0  0  0  0  0  0  0  0  0  # atno 6907 bound_to 6896
  150.6997  134.4431  159.5311 H   0  0  0  0  0  0  0  0  0  0  0  0  # atno 6908 bound_to 6896
  152.2090  134.8519  160.0550 H   0  0  0  0  0  0  0  0  0  0  0  0  # atno 6909 bound_to 6896
  145.1033  139.3503  143.4801 H   0  0  0  0  0  0  0  0  0  0  0  0  # atno 7974 bound_to 7965
  155.6828  140.0746  157.2478 H   0  0  0  0  0  0  0  0  0  0  0  0  # atno 8008 bound_to 7997
  154.4102  140.1679  156.2053 H   0  0  0  0  0  0  0  0  0  0  0  0  # atno 8009 bound_to 7997
  155.9520  140.3376  155.6419 H   0  0  0  0  0  0  0  0  0  0  0  0  # atno 8010 bound_to 7997
  139.9089  143.6518  152.2579 H   0  0  0  0  0  0  0  0  0  0  0  0  # atno 10167 bound_to 10162
  156.2701  130.7260  151.1224 H   0  0  0  0  0  0  0  0  0  0  0  0  # atno 10718 bound_to 10713
  153.4841  135.3673  155.2458 H   0  0  0  0  0  0  0  0  0  0  0  0  # atno 10763 bound_to 10752
  154.8754  135.3961  154.3665 H   0  0  0  0  0  0  0  0  0  0  0  0  # atno 10764 bound_to 10752
  153.4274  135.7081  153.6319 H   0  0  0  0  0  0  0  0  0  0  0  0  # atno 10765 bound_to 10752
  140.9703  133.7113  156.1512 H   0  0  0  0  0  0  0  0  0  0  0  0  # atno 11005 bound_to 11000
  146.3529  140.0919  142.8612 LP  0  0  0  0  0  0  0  0  0  0  0  0  # atno 17320 bound_to 7965
  145.0931  140.9297  143.4757 LP  0  0  0  0  0  0  0  0  0  0  0  0  # atno 17321 bound_to 7965
  139.6960  144.7641  151.1355 LP  0  0  0  0  0  0  0  0  0  0  0  0  # atno 17342 bound_to 10162
  140.7690  143.5523  150.9191 LP  0  0  0  0  0  0  0  0  0  0  0  0  # atno 17343 bound_to 10162
  157.7281  131.0634  150.5836 LP  0  0  0  0  0  0  0  0  0  0  0  0  # atno 17370 bound_to 10713
  156.5932  130.4334  149.5928 LP  0  0  0  0  0  0  0  0  0  0  0  0  # atno 17371 bound_to 10713
  140.7339  134.4224  157.5563 LP  0  0  0  0  0  0  0  0  0  0  0  0  # atno 17394 bound_to 11000
  139.8910  134.8791  156.2343 LP  0  0  0  0  0  0  0  0  0  0  0  0  # atno 17395 bound_to 11000

$$$$
