AV-unprocessed.smi:3112|AV-procd|sdf|11836|dock2
  -GOLD-   2272017213D 1   1.00000     0.00000
 Structure written by MMmdl.
 37 37  0  0  0  0  0  0  0  0  2 V2000
  145.2492  136.1573  151.0248 C   0  0  0  0  0  0  0  0  0  0  0  0
  145.8219  136.6763  152.3508 C   0  0  0  0  0  0  0  0  0  0  0  0
  146.1689  138.1761  152.3239 C   0  0  2  0  0  0  0  0  0  0  0  0
  146.8080  138.4758  151.0982 O   0  0  0  0  0  0  0  0  0  0  0  0
  147.1170  138.5669  153.4692 C   0  0  0  0  0  0  0  0  0  0  0  0
  148.5174  138.6356  152.9989 N   0  3  0  0  0  0  0  0  0  0  0  0
  149.5123  139.0901  153.9979 C   0  0  2  0  0  0  0  0  0  0  0  0
  150.0735  137.8550  154.7260 C   0  0  0  0  0  0  0  0  0  0  0  0
  148.9198  140.1739  154.9452 C   0  0  2  0  0  0  0  0  0  0  0  0
  148.3711  141.3973  154.1846 C   0  0  0  0  0  0  0  0  0  0  0  0
  149.8418  140.5612  156.0105 N   0  0  0  0  0  0  0  0  0  0  0  0
  150.3297  141.8228  156.2872 C   0  0  0  0  0  0  0  0  0  0  0  0
  151.1325  141.7224  157.3868 C   0  0  0  0  0  0  0  0  0  0  0  0
  151.0699  140.3426  157.7253 C   0  0  0  0  0  0  0  0  0  0  0  0
  150.2924  139.6532  156.9068 N   0  0  0  0  0  0  0  0  0  0  0  0
  144.9929  135.1007  151.1025 H   0  0  0  0  0  0  0  0  0  0  0  0
  145.9666  136.2627  150.2107 H   0  0  0  0  0  0  0  0  0  0  0  0
  144.3440  136.6978  150.7472 H   0  0  0  0  0  0  0  0  0  0  0  0
  145.0859  136.4932  153.1347 H   0  0  0  0  0  0  0  0  0  0  0  0
  146.7032  136.0931  152.6221 H   0  0  0  0  0  0  0  0  0  0  0  0
  145.2503  138.7604  152.3943 H   0  0  0  0  0  0  0  0  0  0  0  0
  146.1441  138.6290  150.4424 H   0  0  0  0  0  0  0  0  0  0  0  0
  146.8393  139.5462  153.8610 H   0  0  0  0  0  0  0  0  0  0  0  0
  147.0166  137.8564  154.2894 H   0  0  0  0  0  0  0  0  0  0  0  0
  148.7941  137.7253  152.6589 H   0  0  0  0  0  0  0  0  0  0  0  0
  150.3423  139.5364  153.4479 H   0  0  0  0  0  0  0  0  0  0  0  0
  150.8372  138.1264  155.4542 H   0  0  0  0  0  0  0  0  0  0  0  0
  150.5387  137.1682  154.0181 H   0  0  0  0  0  0  0  0  0  0  0  0
  149.2940  137.3004  155.2481 H   0  0  0  0  0  0  0  0  0  0  0  0
  148.0504  139.7458  155.4433 H   0  0  0  0  0  0  0  0  0  0  0  0
  147.6223  141.0968  153.4516 H   0  0  0  0  0  0  0  0  0  0  0  0
  149.1513  141.9422  153.6533 H   0  0  0  0  0  0  0  0  0  0  0  0
  147.8928  142.0978  154.8699 H   0  0  0  0  0  0  0  0  0  0  0  0
  150.0683  142.6803  155.6845 H   0  0  0  0  0  0  0  0  0  0  0  0
  151.6802  142.5145  157.8758 H   0  0  0  0  0  0  0  0  0  0  0  0
  151.5591  139.8259  158.5379 H   0  0  0  0  0  0  0  0  0  0  0  0
  148.5407  139.2829  152.2241 H   0  0  0  0  0  0  0  0  0  0  0  0
  1  2  1  0  0  0  0
  1 16  1  0  0  0  0
  1 17  1  0  0  0  0
  1 18  1  0  0  0  0
  2  3  1  0  0  0  0
  2 19  1  0  0  0  0
  2 20  1  0  0  0  0
  3  4  1  0  0  0  0
  3  5  1  0  0  0  0
  3 21  1  0  0  0  0
  4 22  1  0  0  0  0
  5  6  1  0  0  0  0
  5 23  1  0  0  0  0
  5 24  1  0  0  0  0
  6  7  1  0  0  0  0
  6 25  1  0  0  0  0
  6 37  1  0  0  0  0
  7  8  1  0  0  0  0
  7  9  1  0  0  0  0
  7 26  1  0  0  0  0
  8 27  1  0  0  0  0
  8 28  1  0  0  0  0
  8 29  1  0  0  0  0
  9 10  1  0  0  0  0
  9 11  1  0  0  0  0
  9 30  1  0  0  0  0
 10 31  1  0  0  0  0
 10 32  1  0  0  0  0
 10 33  1  0  0  0  0
 11 15  1  0  0  0  0
 11 12  1  0  0  0  0
 12 13  2  0  0  0  0
 12 34  1  0  0  0  0
 13 14  1  0  0  0  0
 13 35  1  0  0  0  0
 14 15  2  0  0  0  0
 14 36  1  0  0  0  0
M  CHG  1   6   1
M  END
> <s_m_source_file>
AV-unprocessed.smi

> <i_m_source_file_index>
3112

> <i_lp_mmshare_version>
43012

> <i_f3d_flags>
0

> <s_epik_input>
W0NIM11bQ0gyXVtDQEhdKFtPSF0pW0NIMl1bTkhdW0NASF0oW0NIM10pW0NASF0oW0NIM10pbjFbY0hdW2NIXVtjSF1uMQ==

> <s_epik_cmdline>
J2VwaWtfcHl0aG9uJywgJy1waCcsICc3LjAnLCAnLXRuJywgJzgnLCAnLW1hJywgJzIwMCcsICctbWV0YWxfYmluZGluZycsICctaW1hZScsICc8aW5maWxlLm1hZT4nLCAnLW9tYWUnLCAnPG91dGZpbGUubWFlPic=

> <r_lp_tautomer_probability>
1

> <r_epik_Ionization_Penalty>
0.0154842

> <r_epik_Ionization_Penalty_Charging>
0.0154724

> <r_epik_Ionization_Penalty_Neutral>
1.17979e-05

> <r_epik_State_Penalty>
0.0121607

> <r_epik_Charging_Adjusted_Penalty>
0.0276331

> <i_epik_Tot_Q>
1

> <i_epik_Tot_abs_Q>
1

> <r_epik_Metal_State_Penalty>
0.0121863

> <b_epik_Metal_Only>
0

> <s_lp_Force_Field>
OPLS_2005

> <r_lp_Energy>
12.3071

> <b_lp_Chiralities_Consistent>
1

> <s_lp_Variant>
AV-unprocessed.smi:3112-1

> <Gold.Version>
5.8.1

> <Gold.Id.Protein>
6NUR|6NUR_protein|mol2

> <Gold.PLP.Fitness>
43.0860

> <Gold.PLP.PLP>
-29.4712

> <Gold.PLP.part.hbond>
-4.1944

> <Gold.PLP.part.metal>
0.0000

> <Gold.PLP.part.buried>
-0.0256

> <Gold.PLP.part.nonpolar>
-25.1081

> <Gold.PLP.part.repulsive>
0.0824

> <Gold.PLP.ligand.clash>
0.0000

> <Gold.PLP.ligand.torsion>
1.1154

> <Gold.PLP.Chemscore.Hbond>
4.2080

> <Gold.PLP.Chemscore.CHOScore>
1.0000

> <Gold.PLP.Chemscore.Metal>
0.0000

> <Gold.Chemscore.Hbonds>
donor molecule, donor type, donor heavy atom, donor atom, acceptor molecule, acceptor atom, score
      L1  H     4    22       P1 10171  0.24
      L1  H     6    25       P1  7948  2.00
      L1  H     6    37       P1  7957  0.85
      P1  H  7954  7966       L1     4  0.80
      L1  C    12    34       P1  8028  1.00

> <Gold.PLP.Chemscore.Internal.Correction>
0.2216

> <Gold.Rescore>
     Score         DG    S(hbond)    S(metal)    S(lipo)     H(rot)  DE(clash)    DE(int)     intcor
     13.54     -18.03       3.06        0.00      72.68       2.41       1.77       2.72       ----

> <Gold.Chemscore.Fitness>
13.5378

> <Gold.Chemscore.DG>
-18.0277

> <Gold.Chemscore.ZeroCoef>
-5.4800

> <Gold.Chemscore.Hbond>
3.0571

> <Gold.Chemscore.Metal>
0.0000

> <Gold.Chemscore.Lipo>
72.6809

> <Gold.Chemscore.Internal_Hbond>
0.0000

> <Gold.Chemscore.DEClash>
1.7713

> <Gold.Chemscore.DEInternal>
2.7186

> <Gold.Chemscore.Rot>
2.4089

> <Gold.Chemscore.Internal.Correction>
   9.000000E+99

> <Gold.Chemscore.Hbonds>
donor molecule, donor type, donor heavy atom, donor atom, acceptor molecule, acceptor atom, score
      L1  H     4    22       P1 10171  0.24
      L1  H     6    25       P1  7948  1.00
      L1  H     6    37       P1  7957  0.83
      P1  H  7954  7966       L1     4  0.11

> <Gold.Chemscore.Hbond.Weighted>
-10.2107

> <Gold.Chemscore.Metal.Weighted>
-0.0000

> <Gold.Chemscore.Lipo.Weighted>
-8.5037

> <Gold.Chemscore.Internal_Hbond.Weighted>
0.0000

> <Gold.Chemscore.DEClash.Weighted>
1.7713

> <Gold.Chemscore.DEInternal.Weighted>
2.7186

> <Gold.Chemscore.Rot.Weighted>
6.1667

> <Gold.Chemscore.Internal.Correction.Weighted>
   9.000000E+99

> <Gold.Protein.RotatedTorsions>
[ 6907 6896 6895 6894 ] final  117.11 input  -60.11 | X-H torsion
[ 7974 7965 7964 7962 ] final   83.34 input  175.53 | X-H torsion
[ 8008 7997 7996 7995 ] final -159.20 input   59.86 | X-H torsion
[ 10167 10162 10161 10158 ] final -114.44 input  -65.29 | X-H torsion
[ 10718 10713 10712 10709 ] final   -8.73 input   66.30 | X-H torsion
[ 10763 10752 10751 10750 ] final -147.69 input  -60.55 | X-H torsion
[ 11005 11000 10999 10996 ] final  -16.59 input  -57.11 | X-H torsion

> <Gold.Protein.ActiveResidues>
 VAL166  LYS551  ARG553  GLY616  TRP617  ASP618  TYR619  PRO620  LYS621  CYS622 
 ASP623  PHE694  ASN695  SER759  ASP760  ASP761  ALA762  ILE779  LEU786  VAL792 
 PHE793  MET794  SER795  GLU796  ALA797  LYS798  CYS799  TRP800  GLU811  SER814 

> <Gold.Protein.RotatedAtoms>
  152.4634  133.7870  159.6881 H   0  0  0  0  0  0  0  0  0  0  0  0  # atno 6907 bound_to 6896
  150.8587  133.7666  159.3006 H   0  0  0  0  0  0  0  0  0  0  0  0  # atno 6908 bound_to 6896
  151.5238  135.1070  159.9937 H   0  0  0  0  0  0  0  0  0  0  0  0  # atno 6909 bound_to 6896
  145.6132  139.2372  143.2180 H   0  0  0  0  0  0  0  0  0  0  0  0  # atno 7974 bound_to 7965
  155.7590  140.0836  157.2164 H   0  0  0  0  0  0  0  0  0  0  0  0  # atno 8008 bound_to 7997
  154.4005  140.1546  156.2868 H   0  0  0  0  0  0  0  0  0  0  0  0  # atno 8009 bound_to 7997
  155.8857  140.3418  155.5922 H   0  0  0  0  0  0  0  0  0  0  0  0  # atno 8010 bound_to 7997
  140.1010  143.4613  152.1812 H   0  0  0  0  0  0  0  0  0  0  0  0  # atno 10167 bound_to 10162
  156.6983  130.5086  149.5924 H   0  0  0  0  0  0  0  0  0  0  0  0  # atno 10718 bound_to 10713
  154.8272  135.3353  154.6858 H   0  0  0  0  0  0  0  0  0  0  0  0  # atno 10763 bound_to 10752
  153.7482  135.6941  153.4956 H   0  0  0  0  0  0  0  0  0  0  0  0  # atno 10764 bound_to 10752
  153.2195  135.4454  155.0423 H   0  0  0  0  0  0  0  0  0  0  0  0  # atno 10765 bound_to 10752
  140.8083  133.8160  155.9538 H   0  0  0  0  0  0  0  0  0  0  0  0  # atno 11005 bound_to 11000
  146.1488  140.6955  142.9332 LP  0  0  0  0  0  0  0  0  0  0  0  0  # atno 17320 bound_to 7965
  144.7261  140.4529  143.6972 LP  0  0  0  0  0  0  0  0  0  0  0  0  # atno 17321 bound_to 7965
  139.5671  144.7442  151.3991 LP  0  0  0  0  0  0  0  0  0  0  0  0  # atno 17342 bound_to 10162
  140.6978  143.7707  150.7354 LP  0  0  0  0  0  0  0  0  0  0  0  0  # atno 17343 bound_to 10162
  156.1747  130.6460  151.0880 LP  0  0  0  0  0  0  0  0  0  0  0  0  # atno 17370 bound_to 10713
  157.6983  131.0786  150.6901 LP  0  0  0  0  0  0  0  0  0  0  0  0  # atno 17371 bound_to 10713
  140.9224  134.2125  157.4918 LP  0  0  0  0  0  0  0  0  0  0  0  0  # atno 17394 bound_to 11000
  139.8716  134.9798  156.5050 LP  0  0  0  0  0  0  0  0  0  0  0  0  # atno 17395 bound_to 11000

$$$$
