AV-unprocessed.smi:675|AV-procd|sdf|3303|dock1
  -GOLD-   22720 0263D 1   1.00000     0.00000
 Structure written by MMmdl.
 29 30  0  0  0  0  0  0  0  0  1 V2000
  146.8362  140.0096  152.6161 O   0  0  0  0  0  0  0  0  0  0  0  0
  147.7367  140.2984  153.4018 C   0  0  0  0  0  0  0  0  0  0  0  0
  148.8562  139.4686  153.5128 N   0  0  0  0  0  0  0  0  0  0  0  0
  149.9430  139.6779  154.3621 C   0  0  0  0  0  0  0  0  0  0  0  0
  150.8674  138.8654  154.3800 O   0  0  0  0  0  0  0  0  0  0  0  0
  149.9012  140.8355  155.1758 N   0  0  0  0  0  0  0  0  0  0  0  0
  150.9822  141.0777  156.1035 C   0  0  0  0  0  0  0  0  0  0  0  0
  150.7296  142.2723  157.0518 C   0  0  2  0  0  0  0  0  0  0  0  0
  150.9025  143.4624  156.3086 O   0  0  0  0  0  0  0  0  0  0  0  0
  151.5990  142.2394  158.3090 C   0  0  0  0  0  0  0  0  0  0  0  0
  152.2045  141.0215  158.6954 C   0  0  0  0  0  0  0  0  0  0  0  0
  152.9967  140.9483  159.8562 C   0  0  0  0  0  0  0  0  0  0  0  0
  153.1896  142.0943  160.6480 C   0  0  0  0  0  0  0  0  0  0  0  0
  152.5884  143.3108  160.2770 C   0  0  0  0  0  0  0  0  0  0  0  0
  151.7945  143.3911  159.1153 C   0  0  0  0  0  0  0  0  0  0  0  0
  151.0692  144.9124  158.7275 Cl  0  0  0  0  0  0  0  0  0  0  0  0
  148.8089  141.6852  155.0988 C   0  0  0  0  0  0  0  0  0  0  0  0
  147.7567  141.4726  154.2726 C   0  0  0  0  0  0  0  0  0  0  0  0
  146.4278  142.5752  154.2441 Cl  0  0  0  0  0  0  0  0  0  0  0  0
  148.8782  138.6441  152.9304 H   0  0  0  0  0  0  0  0  0  0  0  0
  151.2061  140.1546  156.6416 H   0  0  0  0  0  0  0  0  0  0  0  0
  151.8533  141.2677  155.4735 H   0  0  0  0  0  0  0  0  0  0  0  0
  149.6783  142.2729  157.3356 H   0  0  0  0  0  0  0  0  0  0  0  0
  150.1139  143.9781  156.3819 H   0  0  0  0  0  0  0  0  0  0  0  0
  152.0564  140.1302  158.1036 H   0  0  0  0  0  0  0  0  0  0  0  0
  153.4533  140.0118  160.1408 H   0  0  0  0  0  0  0  0  0  0  0  0
  153.7949  142.0398  161.5408 H   0  0  0  0  0  0  0  0  0  0  0  0
  152.7344  144.1874  160.8908 H   0  0  0  0  0  0  0  0  0  0  0  0
  148.7905  142.5575  155.7367 H   0  0  0  0  0  0  0  0  0  0  0  0
  1  2  2  0  0  0  0
  2 18  1  0  0  0  0
  2  3  1  0  0  0  0
  3 20  1  0  0  0  0
  3  4  1  0  0  0  0
  4  5  2  0  0  0  0
  4  6  1  0  0  0  0
  6  7  1  0  0  0  0
  6 17  1  0  0  0  0
  7  8  1  0  0  0  0
  7 21  1  0  0  0  0
  7 22  1  0  0  0  0
  8  9  1  0  0  0  0
  8 10  1  0  0  0  0
  8 23  1  0  0  0  0
  9 24  1  0  0  0  0
 10 15  1  0  0  0  0
 10 11  2  0  0  0  0
 11 12  1  0  0  0  0
 11 25  1  0  0  0  0
 12 13  2  0  0  0  0
 12 26  1  0  0  0  0
 13 14  1  0  0  0  0
 13 27  1  0  0  0  0
 14 15  2  0  0  0  0
 14 28  1  0  0  0  0
 15 16  1  0  0  0  0
 17 18  2  0  0  0  0
 17 29  1  0  0  0  0
 18 19  1  0  0  0  0
M  END
> <s_m_source_file>
AV-unprocessed.smi

> <i_m_source_file_index>
675

> <i_lp_mmshare_version>
43012

> <i_f3d_flags>
0

> <s_epik_input>
Tz1jMVtuSF1jKD1PKW4oW2NIXWMxQ2wpW0NIMl1bQ0BIXShbT0hdKWMyW2NIXVtjSF1bY0hdW2NIXWMyQ2w=

> <s_epik_cmdline>
J2VwaWtfcHl0aG9uJywgJy1waCcsICc3LjAnLCAnLXRuJywgJzgnLCAnLW1hJywgJzIwMCcsICctbWV0YWxfYmluZGluZycsICctaW1hZScsICc8aW5maWxlLm1hZT4nLCAnLW9tYWUnLCAnPG91dGZpbGUubWFlPic=

> <r_lp_tautomer_probability>
0.999537

> <r_epik_Ionization_Penalty>
0.029206

> <r_epik_Ionization_Penalty_Charging>
0.0292057

> <r_epik_Ionization_Penalty_Neutral>
2.68278e-07

> <r_epik_State_Penalty>
0.0240115

> <r_epik_Charging_Adjusted_Penalty>
0.0532172

> <i_epik_Tot_Q>
0

> <i_epik_Tot_abs_Q>
0

> <r_epik_Metal_State_Penalty>
2.21956

> <b_epik_Metal_Only>
0

> <s_lp_Force_Field>
OPLS_2005

> <r_lp_Energy>
11.7134

> <b_lp_Chiralities_Consistent>
1

> <s_lp_Variant>
AV-unprocessed.smi:675-1

> <Gold.Version>
5.8.1

> <Gold.Id.Protein>
6NUR|6NUR_protein|mol2

> <Gold.PLP.Fitness>
50.0977

> <Gold.PLP.PLP>
-45.4996

> <Gold.PLP.part.hbond>
-1.9572

> <Gold.PLP.part.metal>
0.0000

> <Gold.PLP.part.buried>
-2.1507

> <Gold.PLP.part.nonpolar>
-42.1337

> <Gold.PLP.part.repulsive>
0.6654

> <Gold.PLP.ligand.clash>
0.0000

> <Gold.PLP.ligand.torsion>
0.7277

> <Gold.PLP.Chemscore.Hbond>
1.0000

> <Gold.PLP.Chemscore.CHOScore>
1.0000

> <Gold.PLP.Chemscore.Metal>
0.0000

> <Gold.Chemscore.Hbonds>
donor molecule, donor type, donor heavy atom, donor atom, acceptor molecule, acceptor atom, score
      L1  H     9    24       P1  8028  0.98
      L1  C    17    29       P1  8028  1.00

> <Gold.PLP.Chemscore.Internal.Correction>
0.0536

> <Gold.Rescore>
     Score         DG    S(hbond)    S(metal)    S(lipo)     H(rot)  DE(clash)    DE(int)     intcor
     15.55     -17.55       1.87        0.00      97.34       2.18       0.05       1.95       ----

> <Gold.Chemscore.Fitness>
15.5547

> <Gold.Chemscore.DG>
-17.5507

> <Gold.Chemscore.ZeroCoef>
-5.4800

> <Gold.Chemscore.Hbond>
1.8731

> <Gold.Chemscore.Metal>
0.0000

> <Gold.Chemscore.Lipo>
97.3422

> <Gold.Chemscore.Internal_Hbond>
0.0000

> <Gold.Chemscore.DEClash>
0.0456

> <Gold.Chemscore.DEInternal>
1.9505

> <Gold.Chemscore.Rot>
2.1775

> <Gold.Chemscore.Internal.Correction>
   9.000000E+99

> <Gold.Chemscore.Hbonds>
donor molecule, donor type, donor heavy atom, donor atom, acceptor molecule, acceptor atom, score
      L1  H     9    24       P1  8028  0.92

> <Gold.Chemscore.Hbond.Weighted>
-6.2562

> <Gold.Chemscore.Metal.Weighted>
-0.0000

> <Gold.Chemscore.Lipo.Weighted>
-11.3890

> <Gold.Chemscore.Internal_Hbond.Weighted>
0.0000

> <Gold.Chemscore.DEClash.Weighted>
0.0456

> <Gold.Chemscore.DEInternal.Weighted>
1.9505

> <Gold.Chemscore.Rot.Weighted>
5.5745

> <Gold.Chemscore.Internal.Correction.Weighted>
   9.000000E+99

> <Gold.Protein.RotatedTorsions>
[ 6907 6896 6895 6894 ] final -121.56 input  -60.11 | X-H torsion
[ 7974 7965 7964 7962 ] final  -89.24 input  175.53 | X-H torsion
[ 8008 7997 7996 7995 ] final -158.02 input   59.86 | X-H torsion
[ 10167 10162 10161 10158 ] final   44.24 input  -65.29 | X-H torsion
[ 10718 10713 10712 10709 ] final  145.91 input   66.30 | X-H torsion
[ 10763 10752 10751 10750 ] final  174.20 input  -60.55 | X-H torsion
[ 11005 11000 10999 10996 ] final -102.58 input  -57.11 | X-H torsion

> <Gold.Protein.ActiveResidues>
 VAL166  LYS551  ARG553  GLY616  TRP617  ASP618  TYR619  PRO620  LYS621  CYS622 
 ASP623  PHE694  ASN695  SER759  ASP760  ASP761  ALA762  ILE779  LEU786  VAL792 
 PHE793  MET794  SER795  GLU796  ALA797  LYS798  CYS799  TRP800  GLU811  SER814 

> <Gold.Protein.RotatedAtoms>
  150.8495  133.7809  159.3030 H   0  0  0  0  0  0  0  0  0  0  0  0  # atno 6907 bound_to 6896
  151.5486  135.1066  159.9953 H   0  0  0  0  0  0  0  0  0  0  0  0  # atno 6908 bound_to 6896
  152.4541  133.7644  159.6820 H   0  0  0  0  0  0  0  0  0  0  0  0  # atno 6909 bound_to 6896
  145.4425  140.9559  143.2067 H   0  0  0  0  0  0  0  0  0  0  0  0  # atno 7974 bound_to 7965
  155.7412  140.0814  157.2245 H   0  0  0  0  0  0  0  0  0  0  0  0  # atno 8008 bound_to 7997
  154.4022  140.1577  156.2673 H   0  0  0  0  0  0  0  0  0  0  0  0  # atno 8009 bound_to 7997
  155.9018  140.3409  155.6035 H   0  0  0  0  0  0  0  0  0  0  0  0  # atno 8010 bound_to 7997
  140.3363  144.2526  150.6161 H   0  0  0  0  0  0  0  0  0  0  0  0  # atno 10167 bound_to 10162
  157.3395  131.0933  151.1094 H   0  0  0  0  0  0  0  0  0  0  0  0  # atno 10718 bound_to 10713
  154.4506  135.2764  155.1784 H   0  0  0  0  0  0  0  0  0  0  0  0  # atno 10763 bound_to 10752
  154.3612  135.6129  153.5695 H   0  0  0  0  0  0  0  0  0  0  0  0  # atno 10764 bound_to 10752
  152.9847  135.5835  154.4850 H   0  0  0  0  0  0  0  0  0  0  0  0  # atno 10765 bound_to 10752
  141.1183  133.8570  157.1377 H   0  0  0  0  0  0  0  0  0  0  0  0  # atno 11005 bound_to 11000
  144.8113  139.5958  143.7028 LP  0  0  0  0  0  0  0  0  0  0  0  0  # atno 17320 bound_to 7965
  146.2549  139.6280  142.9402 LP  0  0  0  0  0  0  0  0  0  0  0  0  # atno 17321 bound_to 7965
  140.5351  143.2235  151.8176 LP  0  0  0  0  0  0  0  0  0  0  0  0  # atno 17342 bound_to 10162
  139.4848  144.4672  151.9470 LP  0  0  0  0  0  0  0  0  0  0  0  0  # atno 17343 bound_to 10162
  157.2311  130.6526  149.5850 LP  0  0  0  0  0  0  0  0  0  0  0  0  # atno 17370 bound_to 10713
  155.9706  130.4598  150.6050 LP  0  0  0  0  0  0  0  0  0  0  0  0  # atno 17371 bound_to 10713
  140.0121  134.9983  157.0417 LP  0  0  0  0  0  0  0  0  0  0  0  0  # atno 17394 bound_to 11000
  140.4582  134.1512  155.7188 LP  0  0  0  0  0  0  0  0  0  0  0  0  # atno 17395 bound_to 11000

$$$$
