AV-unprocessed.smi:864|AV-procd|sdf|3986|dock3
  -GOLD-   22720 1463D 1   1.00000     0.00000
 Structure written by MMmdl.
 44 46  0  0  0  0  0  0  0  0  1 V2000
  153.1573  130.5533  157.8235 C   0  0  0  0  0  0  0  0  0  0  0  0
  152.0714  131.1537  156.9554 C   0  0  0  0  0  0  0  0  0  0  0  0
  151.5254  130.4305  155.8741 C   0  0  0  0  0  0  0  0  0  0  0  0
  150.5208  131.0402  155.0980 C   0  0  0  0  0  0  0  0  0  0  0  0
  150.1013  132.3437  155.4323 C   0  0  0  0  0  0  0  0  0  0  0  0
  149.0319  133.0512  154.6171 C   0  0  0  0  0  0  0  0  0  0  0  0
  148.6047  134.4114  155.2076 C   0  0  0  0  0  0  0  0  0  0  0  0
  149.0567  135.5476  154.4097 N   0  0  0  0  0  0  0  0  0  0  0  0
  149.6363  136.6501  154.9029 C   0  0  0  0  0  0  0  0  0  0  0  0
  149.8048  136.8635  156.1037 O   0  0  0  0  0  0  0  0  0  0  0  0
  150.0483  137.4729  153.9292 N   0  0  0  0  0  0  0  0  0  0  0  0
  150.8285  138.6875  154.1470 C   0  0  2  0  0  0  0  0  0  0  0  0
  152.0161  138.4447  155.0874 C   0  0  0  0  0  0  0  0  0  0  0  0
  151.8956  139.5553  156.1172 C   0  0  0  0  0  0  0  0  0  0  0  0
  152.7172  139.7105  157.0200 O   0  0  0  0  0  0  0  0  0  0  0  0
  150.8042  140.3017  155.9101 N   0  0  0  0  0  0  0  0  0  0  0  0
  150.3409  141.3331  156.7934 C   0  0  0  0  0  0  0  0  0  0  0  0
  151.2749  142.4143  157.3047 C   0  0  0  0  0  0  0  0  0  0  0  0
  150.8225  141.3095  158.2266 C   0  0  0  0  0  0  0  0  0  0  0  0
  149.9830  139.7826  154.8259 C   0  0  0  0  0  0  0  0  0  0  0  0
  150.7076  132.9773  156.5385 C   0  0  0  0  0  0  0  0  0  0  0  0
  151.6744  132.4025  157.2851 N   0  0  0  0  0  0  0  0  0  0  0  0
  153.4579  129.5710  157.4583 H   0  0  0  0  0  0  0  0  0  0  0  0
  152.8039  130.4422  158.8490 H   0  0  0  0  0  0  0  0  0  0  0  0
  154.0374  131.1972  157.8304 H   0  0  0  0  0  0  0  0  0  0  0  0
  151.8671  129.4326  155.6412 H   0  0  0  0  0  0  0  0  0  0  0  0
  150.0842  130.5176  154.2597 H   0  0  0  0  0  0  0  0  0  0  0  0
  149.3967  133.1920  153.5992 H   0  0  0  0  0  0  0  0  0  0  0  0
  148.1638  132.3961  154.5334 H   0  0  0  0  0  0  0  0  0  0  0  0
  147.5162  134.4605  155.2481 H   0  0  0  0  0  0  0  0  0  0  0  0
  148.9565  134.5092  156.2357 H   0  0  0  0  0  0  0  0  0  0  0  0
  148.9683  135.4629  153.4077 H   0  0  0  0  0  0  0  0  0  0  0  0
  149.8626  137.2128  152.9716 H   0  0  0  0  0  0  0  0  0  0  0  0
  151.2105  139.0572  153.1932 H   0  0  0  0  0  0  0  0  0  0  0  0
  151.9593  137.4786  155.5912 H   0  0  0  0  0  0  0  0  0  0  0  0
  152.9696  138.5050  154.5618 H   0  0  0  0  0  0  0  0  0  0  0  0
  149.3111  141.6541  156.6429 H   0  0  0  0  0  0  0  0  0  0  0  0
  152.3193  142.4104  157.0012 H   0  0  0  0  0  0  0  0  0  0  0  0
  150.8496  143.4026  157.4658 H   0  0  0  0  0  0  0  0  0  0  0  0
  150.1027  141.5640  159.0017 H   0  0  0  0  0  0  0  0  0  0  0  0
  151.5578  140.5562  158.5031 H   0  0  0  0  0  0  0  0  0  0  0  0
  149.7266  140.5680  154.1141 H   0  0  0  0  0  0  0  0  0  0  0  0
  149.0547  139.3852  155.2414 H   0  0  0  0  0  0  0  0  0  0  0  0
  150.4194  133.9780  156.8259 H   0  0  0  0  0  0  0  0  0  0  0  0
  1  2  1  0  0  0  0
  1 23  1  0  0  0  0
  1 24  1  0  0  0  0
  1 25  1  0  0  0  0
  2 22  1  0  0  0  0
  2  3  2  0  0  0  0
  3  4  1  0  0  0  0
  3 26  1  0  0  0  0
  4  5  2  0  0  0  0
  4 27  1  0  0  0  0
  5  6  1  0  0  0  0
  5 21  1  0  0  0  0
  6  7  1  0  0  0  0
  6 28  1  0  0  0  0
  6 29  1  0  0  0  0
  7  8  1  0  0  0  0
  7 30  1  0  0  0  0
  7 31  1  0  0  0  0
  8  9  1  0  0  0  0
  8 32  1  0  0  0  0
  9 10  2  0  0  0  0
  9 11  1  0  0  0  0
 11 12  1  0  0  0  0
 11 33  1  0  0  0  0
 12 20  1  0  0  0  0
 12 13  1  0  0  0  0
 12 34  1  0  0  0  0
 13 14  1  0  0  0  0
 13 35  1  0  0  0  0
 13 36  1  0  0  0  0
 14 15  2  0  0  0  0
 14 16  1  0  0  0  0
 16 17  1  0  0  0  0
 16 20  1  0  0  0  0
 17 19  1  0  0  0  0
 17 18  1  0  0  0  0
 17 37  1  0  0  0  0
 18 19  1  0  0  0  0
 18 38  1  0  0  0  0
 18 39  1  0  0  0  0
 19 40  1  0  0  0  0
 19 41  1  0  0  0  0
 20 42  1  0  0  0  0
 20 43  1  0  0  0  0
 21 22  2  0  0  0  0
 21 44  1  0  0  0  0
M  END
> <s_m_source_file>
AV-unprocessed.smi

> <i_m_source_file_index>
864

> <i_lp_mmshare_version>
43012

> <i_f3d_flags>
0

> <s_epik_input>
W0NIM11jMVtjSF1bY0hdYyhbY0hdbjEpW0NIMl1bQ0gyXVtOSF1DKD1PKVtOSF1bQ0BASF0yW0NIMl1DKD1PKU4oW0NIMl0yKVtDSF0zW0NIMl1bQ0gyXTM=

> <s_epik_cmdline>
J2VwaWtfcHl0aG9uJywgJy1waCcsICc3LjAnLCAnLXRuJywgJzgnLCAnLW1hJywgJzIwMCcsICctbWV0YWxfYmluZGluZycsICctaW1hZScsICc8aW5maWxlLm1hZT4nLCAnLW9tYWUnLCAnPG91dGZpbGUubWFlPic=

> <r_epik_Ionization_Penalty>
0.0559435

> <r_epik_Ionization_Penalty_Charging>
0

> <r_epik_Ionization_Penalty_Neutral>
0.0559435

> <r_epik_State_Penalty>
0.0481757

> <r_epik_Charging_Adjusted_Penalty>
0.0481757

> <i_epik_Tot_Q>
0

> <i_epik_Tot_abs_Q>
0

> <r_epik_Metal_State_Penalty>
0.0439988

> <b_epik_Metal_Only>
0

> <s_lp_Force_Field>
OPLS_2005

> <r_lp_Energy>
33.3792

> <b_lp_Chiralities_Consistent>
1

> <s_lp_Variant>
AV-unprocessed.smi:864-1

> <Gold.Version>
5.8.1

> <Gold.Id.Protein>
6NUR|6NUR_protein|mol2

> <Gold.PLP.Fitness>
47.5073

> <Gold.PLP.PLP>
-37.4616

> <Gold.PLP.part.hbond>
-4.6135

> <Gold.PLP.part.metal>
0.0000

> <Gold.PLP.part.buried>
-3.1410

> <Gold.PLP.part.nonpolar>
-29.4942

> <Gold.PLP.part.repulsive>
0.0909

> <Gold.PLP.ligand.clash>
0.0000

> <Gold.PLP.ligand.torsion>
1.1195

> <Gold.PLP.Chemscore.Hbond>
4.0000

> <Gold.PLP.Chemscore.CHOScore>
0.0000

> <Gold.PLP.Chemscore.Metal>
0.0000

> <Gold.Chemscore.Hbonds>
donor molecule, donor type, donor heavy atom, donor atom, acceptor molecule, acceptor atom, score
      L1  H     8    32       P1  7948  0.99
      L1  H    11    33       P1  7948  0.99
      P1  H  6896  6907       L1    22  0.65
      P1  H  7997  8010       L1    15  1.00

> <Gold.PLP.Chemscore.Internal.Correction>
0.2846

> <Gold.Rescore>
     Score         DG    S(hbond)    S(metal)    S(lipo)     H(rot)  DE(clash)    DE(int)     intcor
     18.47     -22.18       3.60        0.00      78.38       1.75       0.02       3.68       ----

> <Gold.Chemscore.Fitness>
18.4708

> <Gold.Chemscore.DG>
-22.1765

> <Gold.Chemscore.ZeroCoef>
-5.4800

> <Gold.Chemscore.Hbond>
3.5959

> <Gold.Chemscore.Metal>
0.0000

> <Gold.Chemscore.Lipo>
78.3836

> <Gold.Chemscore.Internal_Hbond>
0.0000

> <Gold.Chemscore.DEClash>
0.0222

> <Gold.Chemscore.DEInternal>
3.6836

> <Gold.Chemscore.Rot>
1.7518

> <Gold.Chemscore.Internal.Correction>
   9.000000E+99

> <Gold.Chemscore.Hbonds>
donor molecule, donor type, donor heavy atom, donor atom, acceptor molecule, acceptor atom, score
      L1  H     8    32       P1  7948  0.65
      L1  H    11    33       P1  7948  0.24
      P1  H  6896  6907       L1    22  0.44
      P1  H  7997  8010       L1    15  0.99

> <Gold.Chemscore.Hbond.Weighted>
-12.0102

> <Gold.Chemscore.Metal.Weighted>
-0.0000

> <Gold.Chemscore.Lipo.Weighted>
-9.1709

> <Gold.Chemscore.Internal_Hbond.Weighted>
0.0000

> <Gold.Chemscore.DEClash.Weighted>
0.0222

> <Gold.Chemscore.DEInternal.Weighted>
3.6836

> <Gold.Chemscore.Rot.Weighted>
4.4846

> <Gold.Chemscore.Internal.Correction.Weighted>
   9.000000E+99

> <Gold.Protein.RotatedTorsions>
[ 6907 6896 6895 6894 ] final  178.17 input  -60.11 | X-H torsion
[ 7974 7965 7964 7962 ] final  -79.09 input  175.53 | X-H torsion
[ 8008 7997 7996 7995 ] final   56.96 input   59.86 | X-H torsion
[ 10167 10162 10161 10158 ] final  133.18 input  -65.29 | X-H torsion
[ 10718 10713 10712 10709 ] final  -75.93 input   66.30 | X-H torsion
[ 10763 10752 10751 10750 ] final -176.00 input  -60.55 | X-H torsion
[ 11005 11000 10999 10996 ] final   59.21 input  -57.11 | X-H torsion

> <Gold.Protein.ActiveResidues>
 VAL166  LYS551  ARG553  GLY616  TRP617  ASP618  TYR619  PRO620  LYS621  CYS622 
 ASP623  PHE694  ASN695  SER759  ASP760  ASP761  ALA762  ILE779  LEU786  VAL792 
 PHE793  MET794  SER795  GLU796  ALA797  LYS798  CYS799  TRP800  GLU811  SER814 

> <Gold.Protein.RotatedAtoms>
  151.6922  133.3311  159.3245 H   0  0  0  0  0  0  0  0  0  0  0  0  # atno 6907 bound_to 6896
  150.7774  134.6689  159.6390 H   0  0  0  0  0  0  0  0  0  0  0  0  # atno 6908 bound_to 6896
  152.3820  134.6578  160.0191 H   0  0  0  0  0  0  0  0  0  0  0  0  # atno 6909 bound_to 6896
  145.5779  140.9454  143.1360 H   0  0  0  0  0  0  0  0  0  0  0  0  # atno 7974 bound_to 7965
  155.5260  140.3481  155.4416 H   0  0  0  0  0  0  0  0  0  0  0  0  # atno 8008 bound_to 7997
  156.0751  140.1372  156.9808 H   0  0  0  0  0  0  0  0  0  0  0  0  # atno 8009 bound_to 7997
  154.4549  140.0957  156.6703 H   0  0  0  0  0  0  0  0  0  0  0  0  # atno 8010 bound_to 7997
  139.5308  144.6628  151.4958 H   0  0  0  0  0  0  0  0  0  0  0  0  # atno 10167 bound_to 10162
  156.0191  130.4453  150.3117 H   0  0  0  0  0  0  0  0  0  0  0  0  # atno 10718 bound_to 10713
  154.5776  135.2833  155.0765 H   0  0  0  0  0  0  0  0  0  0  0  0  # atno 10763 bound_to 10752
  154.2113  135.6407  153.5120 H   0  0  0  0  0  0  0  0  0  0  0  0  # atno 10764 bound_to 10752
  153.0078  135.5492  154.6420 H   0  0  0  0  0  0  0  0  0  0  0  0  # atno 10765 bound_to 10752
  140.0320  134.5997  155.9494 H   0  0  0  0  0  0  0  0  0  0  0  0  # atno 11005 bound_to 11000
  144.7407  139.7456  143.7312 LP  0  0  0  0  0  0  0  0  0  0  0  0  # atno 17320 bound_to 7965
  146.1737  139.4899  142.9911 LP  0  0  0  0  0  0  0  0  0  0  0  0  # atno 17321 bound_to 7965
  140.6484  143.8746  150.6761 LP  0  0  0  0  0  0  0  0  0  0  0  0  # atno 17342 bound_to 10162
  140.2103  143.3889  152.1723 LP  0  0  0  0  0  0  0  0  0  0  0  0  # atno 17343 bound_to 10162
  157.1219  131.0249  151.3006 LP  0  0  0  0  0  0  0  0  0  0  0  0  # atno 17370 bound_to 10713
  157.4621  130.7659  149.7245 LP  0  0  0  0  0  0  0  0  0  0  0  0  # atno 17371 bound_to 10713
  141.1836  133.6551  156.5125 LP  0  0  0  0  0  0  0  0  0  0  0  0  # atno 17394 bound_to 11000
  140.4209  134.7188  157.4889 LP  0  0  0  0  0  0  0  0  0  0  0  0  # atno 17395 bound_to 11000

$$$$
