AV-unprocessed.smi:2942|AV-procd|sdf|11267|dock3
  -GOLD-   2272016163D 1   1.00000     0.00000
 Structure written by MMmdl.
 46 49  0  0  0  0  0  0  0  0  2 V2000
  147.0754  137.3099  154.2414 O   0  0  0  0  0  0  0  0  0  0  0  0
  146.4788  138.3083  153.8368 C   0  0  0  0  0  0  0  0  0  0  0  0
  145.3712  138.2208  153.0815 N   0  0  0  0  0  0  0  0  0  0  0  0
  144.6990  136.9797  152.7100 C   0  0  0  0  0  0  0  0  0  0  0  0
  144.9332  136.5802  151.2373 C   0  0  0  0  0  0  0  0  0  0  0  0
  145.2384  135.1043  151.0406 C   0  0  0  0  0  0  0  0  0  0  0  0
  144.2415  134.1760  150.6708 C   0  0  0  0  0  0  0  0  0  0  0  0
  144.5870  132.8165  150.5210 C   0  0  0  0  0  0  0  0  0  0  0  0
  145.9198  132.4133  150.7465 C   0  0  0  0  0  0  0  0  0  0  0  0
  146.8759  133.3822  151.1135 C   0  0  0  0  0  0  0  0  0  0  0  0
  146.5060  134.6748  151.2428 N   0  3  0  0  0  0  0  0  0  0  0  0
  146.9834  139.7152  154.2330 C   0  0  0  0  0  0  0  0  0  0  0  0
  147.1867  140.5599  152.9445 C   0  0  0  0  0  0  0  0  0  0  0  0
  147.6436  141.9894  153.3046 C   0  0  1  0  0  0  0  0  0  0  0  0
  146.5697  142.6680  154.1800 C   0  0  0  0  0  0  0  0  0  0  0  0
  146.3766  141.8494  155.4737 C   0  0  2  0  0  0  0  0  0  0  0  0
  147.7078  141.7889  156.2506 C   0  0  0  0  0  0  0  0  0  0  0  0
  148.7803  141.1140  155.3707 C   0  0  2  0  0  0  0  0  0  0  0  0
  148.9786  141.9279  154.0752 C   0  0  0  0  0  0  0  0  0  0  0  0
  148.3306  139.6810  155.0158 C   0  0  0  0  0  0  0  0  0  0  0  0
  145.9175  140.4186  155.1171 C   0  0  0  0  0  0  0  0  0  0  0  0
  144.9425  139.0816  152.7724 H   0  0  0  0  0  0  0  0  0  0  0  0
  145.0845  136.1952  153.3615 H   0  0  0  0  0  0  0  0  0  0  0  0
  143.6305  137.0543  152.9183 H   0  0  0  0  0  0  0  0  0  0  0  0
  144.0563  136.8436  150.6449 H   0  0  0  0  0  0  0  0  0  0  0  0
  145.7569  137.1635  150.8233 H   0  0  0  0  0  0  0  0  0  0  0  0
  143.2237  134.4992  150.5067 H   0  0  0  0  0  0  0  0  0  0  0  0
  143.8379  132.0911  150.2392 H   0  0  0  0  0  0  0  0  0  0  0  0
  146.2038  131.3766  150.6401 H   0  0  0  0  0  0  0  0  0  0  0  0
  147.9162  133.1646  151.3075 H   0  0  0  0  0  0  0  0  0  0  0  0
  147.9275  140.0907  152.2953 H   0  0  0  0  0  0  0  0  0  0  0  0
  146.2636  140.6113  152.3648 H   0  0  0  0  0  0  0  0  0  0  0  0
  147.7810  142.5662  152.3895 H   0  0  0  0  0  0  0  0  0  0  0  0
  146.8673  143.6897  154.4195 H   0  0  0  0  0  0  0  0  0  0  0  0
  145.6278  142.7411  153.6349 H   0  0  0  0  0  0  0  0  0  0  0  0
  145.6181  142.3282  156.0936 H   0  0  0  0  0  0  0  0  0  0  0  0
  148.0271  142.7932  156.5321 H   0  0  0  0  0  0  0  0  0  0  0  0
  147.5774  141.2346  157.1809 H   0  0  0  0  0  0  0  0  0  0  0  0
  149.7223  141.0723  155.9186 H   0  0  0  0  0  0  0  0  0  0  0  0
  149.7521  141.4717  153.4561 H   0  0  0  0  0  0  0  0  0  0  0  0
  149.3260  142.9348  154.3106 H   0  0  0  0  0  0  0  0  0  0  0  0
  148.2283  139.0975  155.9325 H   0  0  0  0  0  0  0  0  0  0  0  0
  149.1092  139.1966  154.4243 H   0  0  0  0  0  0  0  0  0  0  0  0
  144.9557  140.4645  154.6036 H   0  0  0  0  0  0  0  0  0  0  0  0
  145.7469  139.8481  156.0315 H   0  0  0  0  0  0  0  0  0  0  0  0
  147.2132  135.3595  151.5121 H   0  0  0  0  0  0  0  0  0  0  0  0
  1  2  2  0  0  0  0
  2  3  1  0  0  0  0
  2 12  1  0  0  0  0
  3  4  1  0  0  0  0
  3 22  1  0  0  0  0
  4  5  1  0  0  0  0
  4 23  1  0  0  0  0
  4 24  1  0  0  0  0
  5  6  1  0  0  0  0
  5 25  1  0  0  0  0
  5 26  1  0  0  0  0
  6 11  1  0  0  0  0
  6  7  2  0  0  0  0
  7  8  1  0  0  0  0
  7 27  1  0  0  0  0
  8  9  2  0  0  0  0
  8 28  1  0  0  0  0
  9 10  1  0  0  0  0
  9 29  1  0  0  0  0
 10 11  2  0  0  0  0
 10 30  1  0  0  0  0
 11 46  1  0  0  0  0
 12 20  1  0  0  0  0
 12 21  1  0  0  0  0
 12 13  1  0  0  0  0
 13 14  1  0  0  0  0
 13 31  1  0  0  0  0
 13 32  1  0  0  0  0
 14 19  1  0  0  0  0
 14 15  1  0  0  0  0
 14 33  1  0  0  0  0
 15 16  1  0  0  0  0
 15 34  1  0  0  0  0
 15 35  1  0  0  0  0
 16 17  1  0  0  0  0
 16 21  1  0  0  0  0
 16 36  1  0  0  0  0
 17 18  1  0  0  0  0
 17 37  1  0  0  0  0
 17 38  1  0  0  0  0
 18 19  1  0  0  0  0
 18 20  1  0  0  0  0
 18 39  1  0  0  0  0
 19 40  1  0  0  0  0
 19 41  1  0  0  0  0
 20 42  1  0  0  0  0
 20 43  1  0  0  0  0
 21 44  1  0  0  0  0
 21 45  1  0  0  0  0
M  CHG  1  11   1
M  END
> <s_m_source_file>
AV-unprocessed.smi

> <i_m_source_file_index>
2942

> <i_lp_mmshare_version>
43012

> <i_f3d_flags>
0

> <s_epik_input>
W0NIMl0xW0NASF0oW0NIMl0yKVtDSDJdW0NASF0oW0NIMl0zKVtDSDJdW0NAQEhdMVtDSDJdQzIzQyg9TylbTkhdW0NIMl1bQ0gyXWM0W2NIXVtjSF1bY0hdW2NIXW40

> <s_epik_cmdline>
J2VwaWtfcHl0aG9uJywgJy1waCcsICc3LjAnLCAnLXRuJywgJzgnLCAnLW1hJywgJzIwMCcsICctbWV0YWxfYmluZGluZycsICctaW1hZScsICc8aW5maWxlLm1hZT4nLCAnLW9tYWUnLCAnPG91dGZpbGUubWFlPic=

> <r_epik_Ionization_Penalty>
1.81477

> <r_epik_Ionization_Penalty_Charging>
1.81477

> <r_epik_Ionization_Penalty_Neutral>
2.68418e-08

> <r_epik_State_Penalty>
1.92951

> <r_epik_Charging_Adjusted_Penalty>
3.74429

> <i_epik_Tot_Q>
1

> <i_epik_Tot_abs_Q>
1

> <r_epik_Metal_State_Penalty>
1.95679

> <b_epik_Metal_Only>
0

> <s_lp_Force_Field>
OPLS_2005

> <r_lp_Energy>
40.8466

> <b_lp_Chiralities_Consistent>
1

> <s_lp_Variant>
AV-unprocessed.smi:2942-2

> <Gold.Version>
5.8.1

> <Gold.Id.Protein>
6NUR|6NUR_protein|mol2

> <Gold.PLP.Fitness>
40.6499

> <Gold.PLP.PLP>
-33.2213

> <Gold.PLP.part.hbond>
-2.0000

> <Gold.PLP.part.metal>
0.0000

> <Gold.PLP.part.buried>
-2.7610

> <Gold.PLP.part.nonpolar>
-29.2464

> <Gold.PLP.part.repulsive>
0.1252

> <Gold.PLP.ligand.clash>
0.0000

> <Gold.PLP.ligand.torsion>
0.7991

> <Gold.PLP.Chemscore.Hbond>
3.0000

> <Gold.PLP.Chemscore.CHOScore>
0.0000

> <Gold.PLP.Chemscore.Metal>
0.0000

> <Gold.Chemscore.Hbonds>
donor molecule, donor type, donor heavy atom, donor atom, acceptor molecule, acceptor atom, score
      L1  H     3    22       P1 10175  1.00
      L1  H    11    46       P1  7948  2.00

> <Gold.PLP.Chemscore.Internal.Correction>
0.0268

> <Gold.Rescore>
     Score         DG    S(hbond)    S(metal)    S(lipo)     H(rot)  DE(clash)    DE(int)     intcor
     16.76     -18.00       1.79        0.00      86.96       1.41       0.42       0.82       ----

> <Gold.Chemscore.Fitness>
16.7598

> <Gold.Chemscore.DG>
-17.9993

> <Gold.Chemscore.ZeroCoef>
-5.4800

> <Gold.Chemscore.Hbond>
1.7863

> <Gold.Chemscore.Metal>
0.0000

> <Gold.Chemscore.Lipo>
86.9587

> <Gold.Chemscore.Internal_Hbond>
0.0000

> <Gold.Chemscore.DEClash>
0.4237

> <Gold.Chemscore.DEInternal>
0.8158

> <Gold.Chemscore.Rot>
1.4145

> <Gold.Chemscore.Internal.Correction>
   9.000000E+99

> <Gold.Chemscore.Hbonds>
donor molecule, donor type, donor heavy atom, donor atom, acceptor molecule, acceptor atom, score
      L1  H     3    22       P1 10175  1.00
      L1  H    11    46       P1  7948  0.93

> <Gold.Chemscore.Hbond.Weighted>
-5.9661

> <Gold.Chemscore.Metal.Weighted>
-0.0000

> <Gold.Chemscore.Lipo.Weighted>
-10.1742

> <Gold.Chemscore.Internal_Hbond.Weighted>
0.0000

> <Gold.Chemscore.DEClash.Weighted>
0.4237

> <Gold.Chemscore.DEInternal.Weighted>
0.8158

> <Gold.Chemscore.Rot.Weighted>
3.6210

> <Gold.Chemscore.Internal.Correction.Weighted>
   9.000000E+99

> <Gold.Protein.RotatedTorsions>
[ 6907 6896 6895 6894 ] final -145.21 input  -60.11 | X-H torsion
[ 7974 7965 7964 7962 ] final -179.33 input  175.53 | X-H torsion
[ 8008 7997 7996 7995 ] final -173.82 input   59.86 | X-H torsion
[ 10167 10162 10161 10158 ] final  -33.02 input  -65.29 | X-H torsion
[ 10718 10713 10712 10709 ] final -172.87 input   66.30 | X-H torsion
[ 10763 10752 10751 10750 ] final  112.06 input  -60.55 | X-H torsion
[ 11005 11000 10999 10996 ] final -157.72 input  -57.11 | X-H torsion

> <Gold.Protein.ActiveResidues>
 VAL166  LYS551  ARG553  GLY616  TRP617  ASP618  TYR619  PRO620  LYS621  CYS622 
 ASP623  PHE694  ASN695  SER759  ASP760  ASP761  ALA762  ILE779  LEU786  VAL792 
 PHE793  MET794  SER795  GLU796  ALA797  LYS798  CYS799  TRP800  GLU811  SER814 

> <Gold.Protein.RotatedAtoms>
  151.1247  133.5079  159.2600 H   0  0  0  0  0  0  0  0  0  0  0  0  # atno 6907 bound_to 6896
  151.1823  135.0366  159.8807 H   0  0  0  0  0  0  0  0  0  0  0  0  # atno 6908 bound_to 6896
  152.5457  134.1097  159.8407 H   0  0  0  0  0  0  0  0  0  0  0  0  # atno 6909 bound_to 6896
  144.7136  140.0734  143.6428 H   0  0  0  0  0  0  0  0  0  0  0  0  # atno 7974 bound_to 7965
  155.9623  140.1147  157.0885 H   0  0  0  0  0  0  0  0  0  0  0  0  # atno 8008 bound_to 7997
  154.4135  140.1179  156.5262 H   0  0  0  0  0  0  0  0  0  0  0  0  # atno 8009 bound_to 7997
  155.6705  140.3473  155.4818 H   0  0  0  0  0  0  0  0  0  0  0  0  # atno 8010 bound_to 7997
  140.7211  143.3651  151.1886 H   0  0  0  0  0  0  0  0  0  0  0  0  # atno 10167 bound_to 10162
  156.7619  130.9417  151.3118 H   0  0  0  0  0  0  0  0  0  0  0  0  # atno 10718 bound_to 10713
  153.4724  135.3697  155.2398 H   0  0  0  0  0  0  0  0  0  0  0  0  # atno 10763 bound_to 10752
  154.8757  135.3934  154.3796 H   0  0  0  0  0  0  0  0  0  0  0  0  # atno 10764 bound_to 10752
  153.4386  135.7083  153.6248 H   0  0  0  0  0  0  0  0  0  0  0  0  # atno 10765 bound_to 10752
  140.6615  134.4344  157.5234 H   0  0  0  0  0  0  0  0  0  0  0  0  # atno 11005 bound_to 11000
  145.9764  139.2908  143.1068 LP  0  0  0  0  0  0  0  0  0  0  0  0  # atno 17320 bound_to 7965
  145.9060  140.9212  143.0478 LP  0  0  0  0  0  0  0  0  0  0  0  0  # atno 17321 bound_to 7965
  139.7211  143.9221  152.2986 LP  0  0  0  0  0  0  0  0  0  0  0  0  # atno 17342 bound_to 10162
  139.8978  144.6929  150.8698 LP  0  0  0  0  0  0  0  0  0  0  0  0  # atno 17343 bound_to 10162
  157.6730  130.9069  150.0085 LP  0  0  0  0  0  0  0  0  0  0  0  0  # atno 17370 bound_to 10713
  156.1333  130.3643  149.9696 LP  0  0  0  0  0  0  0  0  0  0  0  0  # atno 17371 bound_to 10713
  139.9011  134.8554  156.1892 LP  0  0  0  0  0  0  0  0  0  0  0  0  # atno 17394 bound_to 11000
  141.0461  133.6912  156.1686 LP  0  0  0  0  0  0  0  0  0  0  0  0  # atno 17395 bound_to 11000

$$$$
