AV-unprocessed.smi:544|AV-procd|sdf|2878|dock1
  -GOLD-   2262023373D 1   1.00000     0.00000
 Structure written by MMmdl.
 49 51  0  0  0  0  0  0  0  0  1 V2000
  147.6321  141.5945  153.9293 C   0  0  0  0  0  0  0  0  0  0  0  0
  148.8028  141.3373  154.8806 C   0  0  0  0  0  0  0  0  0  0  0  0
  148.4157  141.7221  156.1873 O   0  0  0  0  0  0  0  0  0  0  0  0
  149.1927  141.1101  157.2029 C   0  0  0  0  0  0  0  0  0  0  0  0
  150.6595  141.5742  157.1280 C   0  0  0  0  0  0  0  0  0  0  0  0
  151.6119  140.6370  157.7226 N   0  0  0  0  0  0  0  0  0  0  0  0
  152.4990  140.8500  158.7333 C   0  0  0  0  0  0  0  0  0  0  0  0
  152.6375  142.0911  159.3544 N   0  0  0  0  0  0  0  0  0  0  0  0
  152.4593  143.3897  158.7082 C   0  0  0  0  0  0  0  0  0  0  0  0
  151.5839  144.3332  159.5497 C   0  0  0  0  0  0  0  0  0  0  0  0
  152.1898  144.5212  160.9470 C   0  0  0  0  0  0  0  0  0  0  0  0
  152.4701  143.1544  161.5960 C   0  0  2  0  0  0  0  0  0  0  0  0
  153.1553  143.3077  162.9605 C   0  0  0  0  0  0  0  0  0  0  0  0
  153.3055  142.2774  160.6411 C   0  0  0  0  0  0  0  0  0  0  0  0
  153.1863  139.7684  159.1101 N   0  0  0  0  0  0  0  0  0  0  0  0
  152.7126  138.7831  158.2584 C   0  0  0  0  0  0  0  0  0  0  0  0
  151.7593  139.2784  157.4289 C   0  0  0  0  0  0  0  0  0  0  0  0
  151.0561  138.4357  156.4502 C   0  0  0  0  0  0  0  0  0  0  0  0
  150.1611  138.8477  155.7155 O   0  0  0  0  0  0  0  0  0  0  0  0
  151.4925  137.1530  156.4415 N   0  0  0  0  0  0  0  0  0  0  0  0
  152.4569  136.5972  157.2362 C   0  0  0  0  0  0  0  0  0  0  0  0
  152.7543  135.4102  157.1030 O   0  0  0  0  0  0  0  0  0  0  0  0
  153.0594  137.4051  158.1660 N   0  0  0  0  0  0  0  0  0  0  0  0
  154.0858  136.8622  159.0579 C   0  0  0  0  0  0  0  0  0  0  0  0
  151.0523  136.5355  155.7751 H   0  0  0  0  0  0  0  0  0  0  0  0
  147.8893  141.3107  152.9088 H   0  0  0  0  0  0  0  0  0  0  0  0
  147.3563  142.6495  153.9248 H   0  0  0  0  0  0  0  0  0  0  0  0
  146.7540  141.0203  154.2262 H   0  0  0  0  0  0  0  0  0  0  0  0
  149.0728  140.2805  154.8619 H   0  0  0  0  0  0  0  0  0  0  0  0
  149.6757  141.9094  154.5624 H   0  0  0  0  0  0  0  0  0  0  0  0
  148.7622  141.3435  158.1746 H   0  0  0  0  0  0  0  0  0  0  0  0
  149.1534  140.0250  157.0980 H   0  0  0  0  0  0  0  0  0  0  0  0
  150.9420  141.7712  156.0951 H   0  0  0  0  0  0  0  0  0  0  0  0
  150.7648  142.5325  157.6350 H   0  0  0  0  0  0  0  0  0  0  0  0
  153.4415  143.8399  158.5571 H   0  0  0  0  0  0  0  0  0  0  0  0
  152.0432  143.2584  157.7129 H   0  0  0  0  0  0  0  0  0  0  0  0
  151.4896  145.2983  159.0517 H   0  0  0  0  0  0  0  0  0  0  0  0
  150.5749  143.9309  159.6364 H   0  0  0  0  0  0  0  0  0  0  0  0
  153.1184  145.0879  160.8651 H   0  0  0  0  0  0  0  0  0  0  0  0
  151.5173  145.1108  161.5709 H   0  0  0  0  0  0  0  0  0  0  0  0
  151.5137  142.6551  161.7607 H   0  0  0  0  0  0  0  0  0  0  0  0
  154.1249  143.7977  162.8641 H   0  0  0  0  0  0  0  0  0  0  0  0
  153.3181  142.3365  163.4281 H   0  0  0  0  0  0  0  0  0  0  0  0
  152.5466  143.9038  163.6410 H   0  0  0  0  0  0  0  0  0  0  0  0
  153.4779  141.3021  161.0980 H   0  0  0  0  0  0  0  0  0  0  0  0
  154.2886  142.7203  160.4758 H   0  0  0  0  0  0  0  0  0  0  0  0
  153.7609  135.9215  159.5050 H   0  0  0  0  0  0  0  0  0  0  0  0
  154.3220  137.5383  159.8798 H   0  0  0  0  0  0  0  0  0  0  0  0
  155.0069  136.6774  158.5043 H   0  0  0  0  0  0  0  0  0  0  0  0
  1  2  1  0  0  0  0
  1 26  1  0  0  0  0
  1 27  1  0  0  0  0
  1 28  1  0  0  0  0
  2  3  1  0  0  0  0
  2 29  1  0  0  0  0
  2 30  1  0  0  0  0
  3  4  1  0  0  0  0
  4  5  1  0  0  0  0
  4 31  1  0  0  0  0
  4 32  1  0  0  0  0
  5  6  1  0  0  0  0
  5 33  1  0  0  0  0
  5 34  1  0  0  0  0
  6 17  1  0  0  0  0
  6  7  1  0  0  0  0
  7  8  1  0  0  0  0
  7 15  2  0  0  0  0
  8 14  1  0  0  0  0
  8  9  1  0  0  0  0
  9 10  1  0  0  0  0
  9 35  1  0  0  0  0
  9 36  1  0  0  0  0
 10 11  1  0  0  0  0
 10 37  1  0  0  0  0
 10 38  1  0  0  0  0
 11 12  1  0  0  0  0
 11 39  1  0  0  0  0
 11 40  1  0  0  0  0
 12 13  1  0  0  0  0
 12 14  1  0  0  0  0
 12 41  1  0  0  0  0
 13 42  1  0  0  0  0
 13 43  1  0  0  0  0
 13 44  1  0  0  0  0
 14 45  1  0  0  0  0
 14 46  1  0  0  0  0
 15 16  1  0  0  0  0
 16 23  1  0  0  0  0
 16 17  2  0  0  0  0
 17 18  1  0  0  0  0
 18 19  2  0  0  0  0
 18 20  1  0  0  0  0
 20 25  1  0  0  0  0
 20 21  1  0  0  0  0
 21 22  2  0  0  0  0
 21 23  1  0  0  0  0
 23 24  1  0  0  0  0
 24 47  1  0  0  0  0
 24 48  1  0  0  0  0
 24 49  1  0  0  0  0
M  END
> <s_m_source_file>
AV-unprocessed.smi

> <i_m_source_file_index>
544

> <i_lp_mmshare_version>
43012

> <i_f3d_flags>
0

> <s_epik_input>
W0NIM11uMWMoPU8pW25IXWMoPU8pYyhjMTIpbihbQ0gyXVtDSDJdT1tDSDJdW0NIM10pYyhuMilOM1tDSDJdW0NIMl1bQ0gyXVtDQEBIXShbQ0gzXSlbQ0gyXTM=

> <s_epik_cmdline>
J2VwaWtfcHl0aG9uJywgJy1waCcsICc3LjAnLCAnLXRuJywgJzgnLCAnLW1hJywgJzIwMCcsICctbWV0YWxfYmluZGluZycsICctaW1hZScsICc8aW5maWxlLm1hZT4nLCAnLW9tYWUnLCAnPG91dGZpbGUubWFlPic=

> <r_lp_tautomer_probability>
1

> <r_epik_Ionization_Penalty>
0.000382477

> <r_epik_Ionization_Penalty_Charging>
0.000119472

> <r_epik_Ionization_Penalty_Neutral>
0.000263005

> <r_epik_State_Penalty>
-0

> <r_epik_Charging_Adjusted_Penalty>
0.000119472

> <i_epik_Tot_Q>
0

> <i_epik_Tot_abs_Q>
0

> <r_epik_Metal_State_Penalty>
0.0919313

> <b_epik_Metal_Only>
0

> <s_lp_Force_Field>
OPLS_2005

> <r_lp_Energy>
37.0872

> <b_lp_Chiralities_Consistent>
1

> <s_lp_Variant>
AV-unprocessed.smi:544-2

> <Gold.Version>
5.8.1

> <Gold.Id.Protein>
6NUR|6NUR_protein|mol2

> <Gold.PLP.Fitness>
49.8066

> <Gold.PLP.PLP>
-47.2836

> <Gold.PLP.part.hbond>
-1.0827

> <Gold.PLP.part.metal>
0.0000

> <Gold.PLP.part.buried>
-7.3583

> <Gold.PLP.part.nonpolar>
-38.7272

> <Gold.PLP.part.repulsive>
0.9076

> <Gold.PLP.ligand.clash>
0.0000

> <Gold.PLP.ligand.torsion>
0.5170

> <Gold.PLP.Chemscore.Hbond>
1.0000

> <Gold.PLP.Chemscore.CHOScore>
0.0000

> <Gold.PLP.Chemscore.Metal>
0.0000

> <Gold.Chemscore.Hbonds>
donor molecule, donor type, donor heavy atom, donor atom, acceptor molecule, acceptor atom, score
      P1  H 10752 10763       L1    22  1.00

> <Gold.PLP.Chemscore.Internal.Correction>
0.5570

> <Gold.Rescore>
     Score         DG    S(hbond)    S(metal)    S(lipo)     H(rot)  DE(clash)    DE(int)     intcor
     13.69     -16.65       0.93        0.00     103.57       1.58       0.31       2.65       ----

> <Gold.Chemscore.Fitness>
13.6922

> <Gold.Chemscore.DG>
-16.6493

> <Gold.Chemscore.ZeroCoef>
-5.4800

> <Gold.Chemscore.Hbond>
0.9274

> <Gold.Chemscore.Metal>
0.0000

> <Gold.Chemscore.Lipo>
103.5726

> <Gold.Chemscore.Internal_Hbond>
0.0000

> <Gold.Chemscore.DEClash>
0.3084

> <Gold.Chemscore.DEInternal>
2.6488

> <Gold.Chemscore.Rot>
1.5806

> <Gold.Chemscore.Internal.Correction>
   9.000000E+99

> <Gold.Chemscore.Hbonds>
donor molecule, donor type, donor heavy atom, donor atom, acceptor molecule, acceptor atom, score
      P1  H 10752 10763       L1    22  0.30

> <Gold.Chemscore.Hbond.Weighted>
-3.0976

> <Gold.Chemscore.Metal.Weighted>
-0.0000

> <Gold.Chemscore.Lipo.Weighted>
-12.1180

> <Gold.Chemscore.Internal_Hbond.Weighted>
0.0000

> <Gold.Chemscore.DEClash.Weighted>
0.3084

> <Gold.Chemscore.DEInternal.Weighted>
2.6488

> <Gold.Chemscore.Rot.Weighted>
4.0463

> <Gold.Chemscore.Internal.Correction.Weighted>
   9.000000E+99

> <Gold.Protein.RotatedTorsions>
[ 6907 6896 6895 6894 ] final    4.60 input  -60.11 | X-H torsion
[ 7974 7965 7964 7962 ] final  161.21 input  175.53 | X-H torsion
[ 8008 7997 7996 7995 ] final -114.40 input   59.86 | X-H torsion
[ 10167 10162 10161 10158 ] final -151.30 input  -65.29 | X-H torsion
[ 10718 10713 10712 10709 ] final   17.58 input   66.30 | X-H torsion
[ 10763 10752 10751 10750 ] final  106.87 input  -60.55 | X-H torsion
[ 11005 11000 10999 10996 ] final  134.76 input  -57.11 | X-H torsion

> <Gold.Protein.ActiveResidues>
 VAL166  LYS551  ARG553  GLY616  TRP617  ASP618  TYR619  PRO620  LYS621  CYS622 
 ASP623  PHE694  ASN695  SER759  ASP760  ASP761  ALA762  ILE779  LEU786  VAL792 
 PHE793  MET794  SER795  GLU796  ALA797  LYS798  CYS799  TRP800  GLU811  SER814 

> <Gold.Protein.RotatedAtoms>
  151.6440  135.1009  160.0146 H   0  0  0  0  0  0  0  0  0  0  0  0  # atno 6907 bound_to 6896
  152.4038  133.6854  159.6347 H   0  0  0  0  0  0  0  0  0  0  0  0  # atno 6908 bound_to 6896
  150.7935  133.8661  159.3286 H   0  0  0  0  0  0  0  0  0  0  0  0  # atno 6909 bound_to 6896
  144.7697  139.7866  143.6302 H   0  0  0  0  0  0  0  0  0  0  0  0  # atno 7974 bound_to 7965
  155.0358  140.0392  157.2491 H   0  0  0  0  0  0  0  0  0  0  0  0  # atno 8008 bound_to 7997
  154.7258  140.2721  155.6476 H   0  0  0  0  0  0  0  0  0  0  0  0  # atno 8009 bound_to 7997
  156.2829  140.2694  156.1944 H   0  0  0  0  0  0  0  0  0  0  0  0  # atno 8010 bound_to 7997
  139.7279  143.8854  152.2525 H   0  0  0  0  0  0  0  0  0  0  0  0  # atno 10167 bound_to 10162
  157.0842  130.6400  149.5833 H   0  0  0  0  0  0  0  0  0  0  0  0  # atno 10718 bound_to 10713
  153.3988  135.3863  155.1974 H   0  0  0  0  0  0  0  0  0  0  0  0  # atno 10763 bound_to 10752
  154.8727  135.3766  154.4644 H   0  0  0  0  0  0  0  0  0  0  0  0  # atno 10764 bound_to 10752
  153.5139  135.7087  153.5828 H   0  0  0  0  0  0  0  0  0  0  0  0  # atno 10765 bound_to 10752
  139.9936  134.9506  156.9912 H   0  0  0  0  0  0  0  0  0  0  0  0  # atno 11005 bound_to 11000
  146.1834  139.5037  142.9852 LP  0  0  0  0  0  0  0  0  0  0  0  0  # atno 17320 bound_to 7965
  145.6361  141.0294  143.1837 LP  0  0  0  0  0  0  0  0  0  0  0  0  # atno 17321 bound_to 7965
  139.8769  144.7038  150.8923 LP  0  0  0  0  0  0  0  0  0  0  0  0  # atno 17342 bound_to 10162
  140.7766  143.3693  151.1680 LP  0  0  0  0  0  0  0  0  0  0  0  0  # atno 17343 bound_to 10162
  155.9915  130.4970  150.7303 LP  0  0  0  0  0  0  0  0  0  0  0  0  # atno 17370 bound_to 10713
  157.4775  131.0899  151.0573 LP  0  0  0  0  0  0  0  0  0  0  0  0  # atno 17371 bound_to 10713
  140.4861  134.1240  155.7225 LP  0  0  0  0  0  0  0  0  0  0  0  0  # atno 17394 bound_to 11000
  141.1586  133.8836  157.1910 LP  0  0  0  0  0  0  0  0  0  0  0  0  # atno 17395 bound_to 11000

$$$$
