AV-unprocessed.smi:199|AV-procd|sdf|1571|dock9
  -GOLD-   2262019453D 1   1.00000     0.00000
 Structure written by MMmdl.
 51 55  0  0  0  0  0  0  0  0  1 V2000
  150.8402  140.5836  157.3895 C   0  0  0  0  0  0  0  0  0  0  0  0
  151.3184  140.3733  155.9444 C   0  0  1  0  0  0  0  0  0  0  0  0
  152.4373  139.4911  155.9856 O   0  0  0  0  0  0  0  0  0  0  0  0
  152.4666  138.7303  154.7909 C   0  0  0  0  0  0  0  0  0  0  0  0
  150.9950  138.4215  154.5645 C   0  0  0  0  0  0  0  0  0  0  0  0
  150.3059  139.7255  154.9572 C   0  0  2  0  0  0  0  0  0  0  0  0
  150.2476  140.5472  153.8028 O   0  0  0  0  0  0  0  0  0  0  0  0
  148.8564  139.5330  155.4772 C   0  0  0  0  0  0  0  0  0  0  0  0
  148.0236  138.7442  154.5813 N   0  0  0  0  0  0  0  0  0  0  0  0
  147.6830  139.0535  153.2850 C   0  0  0  0  0  0  0  0  0  0  0  0
  146.9269  138.1758  152.6858 N   0  0  0  0  0  0  0  0  0  0  0  0
  146.7262  137.1821  153.6375 C   0  0  0  0  0  0  0  0  0  0  0  0
  146.0176  135.9441  153.6599 C   0  0  0  0  0  0  0  0  0  0  0  0
  145.3249  135.4343  152.6033 N   0  0  0  0  0  0  0  0  0  0  0  0
  145.9745  135.2192  151.3178 C   0  0  1  0  0  0  0  0  0  0  0  0
  146.8659  133.9847  151.5543 C   0  0  0  0  0  0  0  0  0  0  0  0
  146.0013  133.1770  152.5341 C   0  0  0  0  0  0  0  0  0  0  0  0
  144.7614  134.0917  152.6722 C   0  0  2  0  0  0  0  0  0  0  0  0
  143.8903  134.0617  151.3978 C   0  0  2  0  0  0  0  0  0  0  0  0
  143.4087  132.6755  150.9307 C   0  0  0  0  0  0  0  0  0  0  0  0
  142.7435  132.7890  149.6910 O   0  0  0  0  0  0  0  0  0  0  0  0
  144.7994  134.8149  150.4088 C   0  0  0  0  0  0  0  0  0  0  0  0
  146.0246  135.2480  154.8281 N   0  0  0  0  0  0  0  0  0  0  0  0
  146.6947  135.7041  155.8891 C   0  0  0  0  0  0  0  0  0  0  0  0
  147.4117  136.8219  156.0033 N   0  0  0  0  0  0  0  0  0  0  0  0
  147.3976  137.5381  154.8433 C   0  0  0  0  0  0  0  0  0  0  0  0
  149.9846  141.2577  157.4324 H   0  0  0  0  0  0  0  0  0  0  0  0
  151.6324  141.0240  157.9952 H   0  0  0  0  0  0  0  0  0  0  0  0
  150.5587  139.6409  157.8591 H   0  0  0  0  0  0  0  0  0  0  0  0
  151.6687  141.3316  155.5558 H   0  0  0  0  0  0  0  0  0  0  0  0
  152.8747  139.3324  153.9774 H   0  0  0  0  0  0  0  0  0  0  0  0
  153.0757  137.8328  154.8993 H   0  0  0  0  0  0  0  0  0  0  0  0
  150.7745  138.0931  153.5478 H   0  0  0  0  0  0  0  0  0  0  0  0
  150.6999  137.6210  155.2438 H   0  0  0  0  0  0  0  0  0  0  0  0
  150.0609  140.0004  153.0552 H   0  0  0  0  0  0  0  0  0  0  0  0
  148.8603  139.0338  156.4462 H   0  0  0  0  0  0  0  0  0  0  0  0
  148.3727  140.4987  155.6303 H   0  0  0  0  0  0  0  0  0  0  0  0
  148.0203  139.9538  152.7922 H   0  0  0  0  0  0  0  0  0  0  0  0
  146.5183  136.0700  150.9123 H   0  0  0  0  0  0  0  0  0  0  0  0
  147.0875  133.4415  150.6351 H   0  0  0  0  0  0  0  0  0  0  0  0
  147.8123  134.2669  152.0174 H   0  0  0  0  0  0  0  0  0  0  0  0
  145.7732  132.1727  152.1804 H   0  0  0  0  0  0  0  0  0  0  0  0
  146.5144  133.0725  153.4908 H   0  0  0  0  0  0  0  0  0  0  0  0
  144.1769  133.8898  153.5705 H   0  0  0  0  0  0  0  0  0  0  0  0
  143.0100  134.6765  151.5964 H   0  0  0  0  0  0  0  0  0  0  0  0
  144.2364  131.9759  150.8171 H   0  0  0  0  0  0  0  0  0  0  0  0
  142.7162  132.2504  151.6575 H   0  0  0  0  0  0  0  0  0  0  0  0
  142.0807  132.1171  149.6430 H   0  0  0  0  0  0  0  0  0  0  0  0
  144.2879  135.6936  150.0142 H   0  0  0  0  0  0  0  0  0  0  0  0
  145.1209  134.2063  149.5629 H   0  0  0  0  0  0  0  0  0  0  0  0
  146.6502  135.0841  156.7722 H   0  0  0  0  0  0  0  0  0  0  0  0
  1  2  1  0  0  0  0
  1 27  1  0  0  0  0
  1 28  1  0  0  0  0
  1 29  1  0  0  0  0
  2  6  1  0  0  0  0
  2  3  1  0  0  0  0
  2 30  1  0  0  0  0
  3  4  1  0  0  0  0
  4  5  1  0  0  0  0
  4 31  1  0  0  0  0
  4 32  1  0  0  0  0
  5  6  1  0  0  0  0
  5 33  1  0  0  0  0
  5 34  1  0  0  0  0
  6  7  1  0  0  0  0
  6  8  1  0  0  0  0
  7 35  1  0  0  0  0
  8  9  1  0  0  0  0
  8 36  1  0  0  0  0
  8 37  1  0  0  0  0
  9 26  1  0  0  0  0
  9 10  1  0  0  0  0
 10 11  2  0  0  0  0
 10 38  1  0  0  0  0
 11 12  1  0  0  0  0
 12 26  2  0  0  0  0
 12 13  1  0  0  0  0
 13 14  1  0  0  0  0
 13 23  2  0  0  0  0
 14 18  1  0  0  0  0
 14 15  1  0  0  0  0
 15 22  1  0  0  0  0
 15 16  1  0  0  0  0
 15 39  1  0  0  0  0
 16 17  1  0  0  0  0
 16 40  1  0  0  0  0
 16 41  1  0  0  0  0
 17 18  1  0  0  0  0
 17 42  1  0  0  0  0
 17 43  1  0  0  0  0
 18 19  1  0  0  0  0
 18 44  1  0  0  0  0
 19 20  1  0  0  0  0
 19 22  1  0  0  0  0
 19 45  1  0  0  0  0
 20 21  1  0  0  0  0
 20 46  1  0  0  0  0
 20 47  1  0  0  0  0
 21 48  1  0  0  0  0
 22 49  1  0  0  0  0
 22 50  1  0  0  0  0
 23 24  1  0  0  0  0
 24 25  2  0  0  0  0
 24 51  1  0  0  0  0
 25 26  1  0  0  0  0
M  END
> <s_m_source_file>
AV-unprocessed.smi

> <i_m_source_file_index>
199

> <i_lp_mmshare_version>
43012

> <i_f3d_flags>
0

> <s_epik_input>
W0NIMl0xW0NIMl1PW0NAQEhdKFtDSDNdKVtDQEBdMShbT0hdKVtDSDJdbihbY0hdbjIpYyhjMjMpbltjSF1uYzNOKFtDQEBIXTQ1KVtDQEhdKFtDSDJdW0NIMl00KVtDQEhdKFtDSDJdNSlbQ0gyXVtPSF0=

> <s_epik_cmdline>
J2VwaWtfcHl0aG9uJywgJy1waCcsICc3LjAnLCAnLXRuJywgJzgnLCAnLW1hJywgJzIwMCcsICctbWV0YWxfYmluZGluZycsICctaW1hZScsICc8aW5maWxlLm1hZT4nLCAnLW9tYWUnLCAnPG91dGZpbGUubWFlPic=

> <r_lp_tautomer_probability>
1

> <r_epik_Ionization_Penalty>
0.00583903

> <r_epik_Ionization_Penalty_Charging>
0

> <r_epik_Ionization_Penalty_Neutral>
0.00583903

> <r_epik_State_Penalty>
-0

> <r_epik_Charging_Adjusted_Penalty>
0

> <i_epik_Tot_Q>
0

> <i_epik_Tot_abs_Q>
0

> <r_epik_Metal_State_Penalty>
-0

> <b_epik_Metal_Only>
0

> <s_lp_Force_Field>
OPLS_2005

> <r_lp_Energy>
83.1527

> <b_lp_Chiralities_Consistent>
1

> <s_lp_Variant>
AV-unprocessed.smi:199-12

> <Gold.Version>
5.8.1

> <Gold.Id.Protein>
6NUR|6NUR_protein|mol2

> <Gold.PLP.Fitness>
49.3778

> <Gold.PLP.PLP>
-36.8795

> <Gold.PLP.part.hbond>
-3.9439

> <Gold.PLP.part.metal>
0.0000

> <Gold.PLP.part.buried>
-3.1753

> <Gold.PLP.part.nonpolar>
-28.8928

> <Gold.PLP.part.repulsive>
1.4480

> <Gold.PLP.ligand.clash>
0.0000

> <Gold.PLP.ligand.torsion>
0.1471

> <Gold.PLP.Chemscore.Hbond>
3.3550

> <Gold.PLP.Chemscore.CHOScore>
0.9034

> <Gold.PLP.Chemscore.Metal>
0.0000

> <Gold.Chemscore.Hbonds>
donor molecule, donor type, donor heavy atom, donor atom, acceptor molecule, acceptor atom, score
      L1  H     7    35       P1  7957  0.86
      L1  H    21    48       P1 10952  0.67
      P1  H  7989  7998       L1     7  0.46
      P1  H  7997  8010       L1     3  1.00
      P1  H  8011  8017       L1     7  0.01
      L1  C    10    38       P1  7957  0.90

> <Gold.PLP.Chemscore.Internal.Correction>
0.0174

> <Gold.Rescore>
     Score         DG    S(hbond)    S(metal)    S(lipo)     H(rot)  DE(clash)    DE(int)     intcor
     13.75     -14.39       2.28        0.00      78.30       3.07       0.33       0.30       ----

> <Gold.Chemscore.Fitness>
13.7502

> <Gold.Chemscore.DG>
-14.3871

> <Gold.Chemscore.ZeroCoef>
-5.4800

> <Gold.Chemscore.Hbond>
2.2792

> <Gold.Chemscore.Metal>
0.0000

> <Gold.Chemscore.Lipo>
78.2998

> <Gold.Chemscore.Internal_Hbond>
0.0000

> <Gold.Chemscore.DEClash>
0.3329

> <Gold.Chemscore.DEInternal>
0.3039

> <Gold.Chemscore.Rot>
3.0729

> <Gold.Chemscore.Internal.Correction>
   9.000000E+99

> <Gold.Chemscore.Hbonds>
donor molecule, donor type, donor heavy atom, donor atom, acceptor molecule, acceptor atom, score
      L1  H     7    35       P1  7957  0.84
      L1  H    21    48       P1 10952  0.67
      P1  H  7989  7998       L1     7  0.05
      P1  H  7997  8010       L1     3  0.51

> <Gold.Chemscore.Hbond.Weighted>
-7.6127

> <Gold.Chemscore.Metal.Weighted>
-0.0000

> <Gold.Chemscore.Lipo.Weighted>
-9.1611

> <Gold.Chemscore.Internal_Hbond.Weighted>
0.0000

> <Gold.Chemscore.DEClash.Weighted>
0.3329

> <Gold.Chemscore.DEInternal.Weighted>
0.3039

> <Gold.Chemscore.Rot.Weighted>
7.8667

> <Gold.Chemscore.Internal.Correction.Weighted>
   9.000000E+99

> <Gold.Protein.RotatedTorsions>
[ 6907 6896 6895 6894 ] final  124.57 input  -60.11 | X-H torsion
[ 7974 7965 7964 7962 ] final    0.68 input  175.53 | X-H torsion
[ 8008 7997 7996 7995 ] final   80.29 input   59.86 | X-H torsion
[ 10167 10162 10161 10158 ] final   45.21 input  -65.29 | X-H torsion
[ 10718 10713 10712 10709 ] final  -49.83 input   66.30 | X-H torsion
[ 10763 10752 10751 10750 ] final   63.59 input  -60.55 | X-H torsion
[ 11005 11000 10999 10996 ] final   31.07 input  -57.11 | X-H torsion

> <Gold.Protein.ActiveResidues>
 VAL166  LYS551  ARG553  GLY616  TRP617  ASP618  TYR619  PRO620  LYS621  CYS622 
 ASP623  PHE694  ASN695  SER759  ASP760  ASP761  ALA762  ILE779  LEU786  VAL792 
 PHE793  MET794  SER795  GLU796  ALA797  LYS798  CYS799  TRP800  GLU811  SER814 

> <Gold.Protein.RotatedAtoms>
  152.4067  133.6900  159.6362 H   0  0  0  0  0  0  0  0  0  0  0  0  # atno 6907 bound_to 6896
  150.7951  133.8696  159.3264 H   0  0  0  0  0  0  0  0  0  0  0  0  # atno 6908 bound_to 6896
  151.6449  135.1010  160.0200 H   0  0  0  0  0  0  0  0  0  0  0  0  # atno 6909 bound_to 6896
  146.2436  140.1101  142.8344 H   0  0  0  0  0  0  0  0  0  0  0  0  # atno 7974 bound_to 7965
  155.8814  140.3444  155.5890 H   0  0  0  0  0  0  0  0  0  0  0  0  # atno 8008 bound_to 7997
  155.7715  140.0846  157.2124 H   0  0  0  0  0  0  0  0  0  0  0  0  # atno 8009 bound_to 7997
  154.4025  140.1517  156.2935 H   0  0  0  0  0  0  0  0  0  0  0  0  # atno 8010 bound_to 7997
  140.3265  144.2642  150.6174 H   0  0  0  0  0  0  0  0  0  0  0  0  # atno 10167 bound_to 10162
  156.1856  130.4151  149.9444 H   0  0  0  0  0  0  0  0  0  0  0  0  # atno 10718 bound_to 10713
  153.0023  135.5424  154.6376 H   0  0  0  0  0  0  0  0  0  0  0  0  # atno 10763 bound_to 10752
  154.5638  135.2836  155.0895 H   0  0  0  0  0  0  0  0  0  0  0  0  # atno 10764 bound_to 10752
  154.2087  135.6471  153.5161 H   0  0  0  0  0  0  0  0  0  0  0  0  # atno 10765 bound_to 10752
  140.2878  134.2899  155.7784 H   0  0  0  0  0  0  0  0  0  0  0  0  # atno 11005 bound_to 11000
  145.0494  140.9006  143.5004 LP  0  0  0  0  0  0  0  0  0  0  0  0  # atno 17320 bound_to 7965
  145.1196  139.2702  143.5595 LP  0  0  0  0  0  0  0  0  0  0  0  0  # atno 17321 bound_to 7965
  140.5436  143.2219  151.8043 LP  0  0  0  0  0  0  0  0  0  0  0  0  # atno 17342 bound_to 10162
  139.4864  144.4568  151.9589 LP  0  0  0  0  0  0  0  0  0  0  0  0  # atno 17343 bound_to 10162
  156.7200  130.9003  151.3617 LP  0  0  0  0  0  0  0  0  0  0  0  0  # atno 17370 bound_to 10713
  157.6897  130.9221  150.0480 LP  0  0  0  0  0  0  0  0  0  0  0  0  # atno 17371 bound_to 10713
  141.2152  133.7566  156.9578 LP  0  0  0  0  0  0  0  0  0  0  0  0  # atno 17394 bound_to 11000
  140.1224  134.9409  157.2222 LP  0  0  0  0  0  0  0  0  0  0  0  0  # atno 17395 bound_to 11000

$$$$
