AV-unprocessed.smi:338|AV-procd|sdf|2376|dock2
  -GOLD-   2262022293D 1   1.00000     0.00000
 Structure written by MMmdl.
 42 44  0  0  0  0  0  0  0  0  2 V2000
  147.5953  134.3252  162.0780 C   0  0  0  0  0  0  0  0  0  0  0  0
  147.9367  135.6748  161.4479 C   0  0  0  0  0  0  0  0  0  0  0  0
  147.7101  136.6996  162.0907 O   0  0  0  0  0  0  0  0  0  0  0  0
  148.5304  135.6747  160.0797 C   0  0  0  0  0  0  0  0  0  0  0  0
  148.3817  134.5714  159.2072 C   0  0  0  0  0  0  0  0  0  0  0  0
  148.9542  134.5997  157.9226 C   0  0  0  0  0  0  0  0  0  0  0  0
  149.6795  135.7268  157.4972 C   0  0  0  0  0  0  0  0  0  0  0  0
  149.8413  136.8393  158.3457 C   0  0  0  0  0  0  0  0  0  0  0  0
  150.5680  137.9005  157.8493 O   0  0  0  0  0  0  0  0  0  0  0  0
  151.3422  137.6994  156.6740 C   0  0  0  0  0  0  0  0  0  0  0  0
  151.9808  139.0345  156.2634 C   0  0  2  0  0  0  0  0  0  0  0  0
  153.1592  138.7610  155.5312 O   0  0  0  0  0  0  0  0  0  0  0  0
  152.3072  139.9287  157.4762 C   0  0  0  0  0  0  0  0  0  0  0  0
  151.6988  141.2634  157.3808 N   0  0  0  0  0  0  0  0  0  0  0  0
  150.8411  141.7598  156.4484 C   0  0  0  0  0  0  0  0  0  0  0  0
  150.5558  143.0458  156.7939 N   0  3  0  0  0  0  0  0  0  0  0  0
  151.2427  143.3777  157.9635 C   0  0  0  0  0  0  0  0  0  0  0  0
  151.2731  144.5601  158.6967 C   0  0  0  0  0  0  0  0  0  0  0  0
  152.0861  144.5695  159.8491 C   0  0  0  0  0  0  0  0  0  0  0  0
  152.8292  143.4344  160.2327 C   0  0  0  0  0  0  0  0  0  0  0  0
  152.7898  142.2406  159.4825 C   0  0  0  0  0  0  0  0  0  0  0  0
  151.9818  142.2380  158.3455 C   0  0  0  0  0  0  0  0  0  0  0  0
  149.2604  136.8039  159.6389 C   0  0  0  0  0  0  0  0  0  0  0  0
  148.4867  133.7025  162.1560 H   0  0  0  0  0  0  0  0  0  0  0  0
  146.8505  133.8014  161.4786 H   0  0  0  0  0  0  0  0  0  0  0  0
  147.1885  134.4642  163.0799 H   0  0  0  0  0  0  0  0  0  0  0  0
  147.8314  133.6904  159.5017 H   0  0  0  0  0  0  0  0  0  0  0  0
  148.8363  133.7540  157.2613 H   0  0  0  0  0  0  0  0  0  0  0  0
  150.1159  135.7378  156.5090 H   0  0  0  0  0  0  0  0  0  0  0  0
  152.1171  136.9500  156.8455 H   0  0  0  0  0  0  0  0  0  0  0  0
  150.6952  137.3419  155.8710 H   0  0  0  0  0  0  0  0  0  0  0  0
  151.2979  139.5634  155.5971 H   0  0  0  0  0  0  0  0  0  0  0  0
  152.9414  138.7318  154.6120 H   0  0  0  0  0  0  0  0  0  0  0  0
  151.9237  139.4710  158.3890 H   0  0  0  0  0  0  0  0  0  0  0  0
  153.3834  140.0295  157.6173 H   0  0  0  0  0  0  0  0  0  0  0  0
  150.4556  141.2284  155.5903 H   0  0  0  0  0  0  0  0  0  0  0  0
  150.7062  145.4316  158.4038 H   0  0  0  0  0  0  0  0  0  0  0  0
  152.1423  145.4660  160.4495 H   0  0  0  0  0  0  0  0  0  0  0  0
  153.4439  143.4798  161.1200 H   0  0  0  0  0  0  0  0  0  0  0  0
  153.3683  141.3796  159.7831 H   0  0  0  0  0  0  0  0  0  0  0  0
  149.3703  137.6431  160.3090 H   0  0  0  0  0  0  0  0  0  0  0  0
  149.9379  143.6503  156.2677 H   0  0  0  0  0  0  0  0  0  0  0  0
  1  2  1  0  0  0  0
  1 24  1  0  0  0  0
  1 25  1  0  0  0  0
  1 26  1  0  0  0  0
  2  3  2  0  0  0  0
  2  4  1  0  0  0  0
  4 23  1  0  0  0  0
  4  5  2  0  0  0  0
  5  6  1  0  0  0  0
  5 27  1  0  0  0  0
  6  7  2  0  0  0  0
  6 28  1  0  0  0  0
  7  8  1  0  0  0  0
  7 29  1  0  0  0  0
  8  9  1  0  0  0  0
  8 23  2  0  0  0  0
  9 10  1  0  0  0  0
 10 11  1  0  0  0  0
 10 30  1  0  0  0  0
 10 31  1  0  0  0  0
 11 12  1  0  0  0  0
 11 13  1  0  0  0  0
 11 32  1  0  0  0  0
 12 33  1  0  0  0  0
 13 14  1  0  0  0  0
 13 34  1  0  0  0  0
 13 35  1  0  0  0  0
 14 22  1  0  0  0  0
 14 15  1  0  0  0  0
 15 16  2  0  0  0  0
 15 36  1  0  0  0  0
 16 17  1  0  0  0  0
 16 42  1  0  0  0  0
 17 22  2  0  0  0  0
 17 18  1  0  0  0  0
 18 19  2  0  0  0  0
 18 37  1  0  0  0  0
 19 20  1  0  0  0  0
 19 38  1  0  0  0  0
 20 21  2  0  0  0  0
 20 39  1  0  0  0  0
 21 22  1  0  0  0  0
 21 40  1  0  0  0  0
 23 41  1  0  0  0  0
M  CHG  1  16   1
M  END
> <s_m_source_file>
AV-unprocessed.smi

> <i_m_source_file_index>
338

> <i_lp_mmshare_version>
43012

> <i_f3d_flags>
0

> <s_epik_input>
W0NIM11DKD1PKWMxW2NIXVtjSF1bY0hdYyhbY0hdMSlPW0NIMl1bQ0BIXShbT0hdKVtDSDJdbihbY0hdbjIpYyhjMjMpW2NIXVtjSF1bY0hdW2NIXTM=

> <s_epik_cmdline>
J2VwaWtfcHl0aG9uJywgJy1waCcsICc3LjAnLCAnLXRuJywgJzgnLCAnLW1hJywgJzIwMCcsICctbWV0YWxfYmluZGluZycsICctaW1hZScsICc8aW5maWxlLm1hZT4nLCAnLW9tYWUnLCAnPG91dGZpbGUubWFlPic=

> <r_lp_tautomer_probability>
0.99995

> <r_epik_Ionization_Penalty>
1.35015

> <r_epik_Ionization_Penalty_Charging>
1.35015

> <r_epik_Ionization_Penalty_Neutral>
2.3993e-06

> <r_epik_State_Penalty>
1.42814

> <r_epik_Charging_Adjusted_Penalty>
2.77829

> <i_epik_Tot_Q>
1

> <i_epik_Tot_abs_Q>
1

> <r_epik_Metal_State_Penalty>
5.46522

> <b_epik_Metal_Only>
0

> <s_lp_Force_Field>
OPLS_2005

> <r_lp_Energy>
26.3487

> <b_lp_Chiralities_Consistent>
1

> <s_lp_Variant>
AV-unprocessed.smi:338-3

> <Gold.Version>
5.8.1

> <Gold.Id.Protein>
6NUR|6NUR_protein|mol2

> <Gold.PLP.Fitness>
56.3128

> <Gold.PLP.PLP>
-47.4609

> <Gold.PLP.part.hbond>
-4.0000

> <Gold.PLP.part.metal>
0.0000

> <Gold.PLP.part.buried>
-5.6931

> <Gold.PLP.part.nonpolar>
-37.2206

> <Gold.PLP.part.repulsive>
0.0716

> <Gold.PLP.ligand.clash>
1.5180

> <Gold.PLP.ligand.torsion>
1.4399

> <Gold.PLP.Chemscore.Hbond>
4.3788

> <Gold.PLP.Chemscore.CHOScore>
0.0000

> <Gold.PLP.Chemscore.Metal>
0.0000

> <Gold.Chemscore.Hbonds>
donor molecule, donor type, donor heavy atom, donor atom, acceptor molecule, acceptor atom, score
      L1  H    16    42       P1  8028  2.00
      P1  H  6931  6943       L1     3  0.98
      P1  H  7997  8010       L1    12  1.00

> <Gold.PLP.Chemscore.Internal.Correction>
0.1133

> <Gold.Rescore>
     Score         DG    S(hbond)    S(metal)    S(lipo)     H(rot)  DE(clash)    DE(int)     intcor
     19.58     -20.97       2.50        0.00     115.47       2.48       0.00       1.39       ----

> <Gold.Chemscore.Fitness>
19.5845

> <Gold.Chemscore.DG>
-20.9705

> <Gold.Chemscore.ZeroCoef>
-5.4800

> <Gold.Chemscore.Hbond>
2.4970

> <Gold.Chemscore.Metal>
0.0000

> <Gold.Chemscore.Lipo>
115.4686

> <Gold.Chemscore.Internal_Hbond>
0.0000

> <Gold.Chemscore.DEClash>
0.0004

> <Gold.Chemscore.DEInternal>
1.3856

> <Gold.Chemscore.Rot>
2.4842

> <Gold.Chemscore.Internal.Correction>
   9.000000E+99

> <Gold.Chemscore.Hbonds>
donor molecule, donor type, donor heavy atom, donor atom, acceptor molecule, acceptor atom, score
      L1  H    16    42       P1  8028  0.99
      P1  H  6931  6943       L1     3  0.87
      P1  H  7997  8010       L1    12  0.33

> <Gold.Chemscore.Hbond.Weighted>
-8.3401

> <Gold.Chemscore.Metal.Weighted>
-0.0000

> <Gold.Chemscore.Lipo.Weighted>
-13.5098

> <Gold.Chemscore.Internal_Hbond.Weighted>
0.0000

> <Gold.Chemscore.DEClash.Weighted>
0.0004

> <Gold.Chemscore.DEInternal.Weighted>
1.3856

> <Gold.Chemscore.Rot.Weighted>
6.3594

> <Gold.Chemscore.Internal.Correction.Weighted>
   9.000000E+99

> <Gold.Protein.RotatedTorsions>
[ 6907 6896 6895 6894 ] final  157.63 input  -60.11 | X-H torsion
[ 7974 7965 7964 7962 ] final -105.20 input  175.53 | X-H torsion
[ 8008 7997 7996 7995 ] final   84.96 input   59.86 | X-H torsion
[ 10167 10162 10161 10158 ] final  -34.45 input  -65.29 | X-H torsion
[ 10718 10713 10712 10709 ] final   22.62 input   66.30 | X-H torsion
[ 10763 10752 10751 10750 ] final  -29.14 input  -60.55 | X-H torsion
[ 11005 11000 10999 10996 ] final  178.27 input  -57.11 | X-H torsion

> <Gold.Protein.ActiveResidues>
 VAL166  LYS551  ARG553  GLY616  TRP617  ASP618  TYR619  PRO620  LYS621  CYS622 
 ASP623  PHE694  ASN695  SER759  ASP760  ASP761  ALA762  ILE779  LEU786  VAL792 
 PHE793  MET794  SER795  GLU796  ALA797  LYS798  CYS799  TRP800  GLU811  SER814 

> <Gold.Protein.RotatedAtoms>
  152.0123  133.3866  159.4224 H   0  0  0  0  0  0  0  0  0  0  0  0  # atno 6907 bound_to 6896
  150.6898  134.3716  159.5004 H   0  0  0  0  0  0  0  0  0  0  0  0  # atno 6908 bound_to 6896
  152.1479  134.9011  160.0600 H   0  0  0  0  0  0  0  0  0  0  0  0  # atno 6909 bound_to 6896
  145.2335  140.9179  143.3191 H   0  0  0  0  0  0  0  0  0  0  0  0  # atno 7974 bound_to 7965
  155.9439  140.3406  155.6350 H   0  0  0  0  0  0  0  0  0  0  0  0  # atno 8008 bound_to 7997
  155.7006  140.0760  157.2430 H   0  0  0  0  0  0  0  0  0  0  0  0  # atno 8009 bound_to 7997
  154.4108  140.1641  156.2174 H   0  0  0  0  0  0  0  0  0  0  0  0  # atno 8010 bound_to 7997
  140.7185  143.3547  151.2083 H   0  0  0  0  0  0  0  0  0  0  0  0  # atno 10167 bound_to 10162
  157.1548  130.6691  149.6024 H   0  0  0  0  0  0  0  0  0  0  0  0  # atno 10718 bound_to 10713
  153.7598  135.6920  153.4928 H   0  0  0  0  0  0  0  0  0  0  0  0  # atno 10763 bound_to 10752
  153.1946  135.4458  155.0190 H   0  0  0  0  0  0  0  0  0  0  0  0  # atno 10764 bound_to 10752
  154.8157  135.3398  154.7114 H   0  0  0  0  0  0  0  0  0  0  0  0  # atno 10765 bound_to 10752
  140.3932  134.6843  157.4520 H   0  0  0  0  0  0  0  0  0  0  0  0  # atno 11005 bound_to 11000
  144.9654  139.3935  143.6335 LP  0  0  0  0  0  0  0  0  0  0  0  0  # atno 17320 bound_to 7965
  146.3347  139.8727  142.8837 LP  0  0  0  0  0  0  0  0  0  0  0  0  # atno 17321 bound_to 7965
  139.7086  143.9414  152.2937 LP  0  0  0  0  0  0  0  0  0  0  0  0  # atno 17342 bound_to 10162
  139.9131  144.6844  150.8541 LP  0  0  0  0  0  0  0  0  0  0  0  0  # atno 17343 bound_to 10162
  155.9764  130.4732  150.6525 LP  0  0  0  0  0  0  0  0  0  0  0  0  # atno 17370 bound_to 10713
  157.4187  131.0834  151.1152 LP  0  0  0  0  0  0  0  0  0  0  0  0  # atno 17371 bound_to 10713
  140.0391  134.6294  155.9004 LP  0  0  0  0  0  0  0  0  0  0  0  0  # atno 17394 bound_to 11000
  141.1883  133.6562  156.5319 LP  0  0  0  0  0  0  0  0  0  0  0  0  # atno 17395 bound_to 11000

$$$$
