AV-unprocessed.smi:3032|AV-procd|sdf|11563|dock6
  -GOLD-   2272016533D 1   1.00000     0.00000
 Structure written by MMmdl.
 37 38  0  0  0  0  0  0  0  0  1 V2000
  153.6907  141.7427  161.1680 C   0  0  0  0  0  0  0  0  0  0  0  0
  153.0235  142.4764  159.9961 C   0  0  2  0  0  0  0  0  0  0  0  0
  152.4976  143.8602  160.4244 C   0  0  0  0  0  0  0  0  0  0  0  0
  151.8228  144.5945  159.2550 C   0  0  0  0  0  0  0  0  0  0  0  0
  150.6969  143.7479  158.6417 C   0  0  0  0  0  0  0  0  0  0  0  0
  151.2181  142.3669  158.1942 C   0  0  2  0  0  0  0  0  0  0  0  0
  150.0832  141.5269  157.5941 C   0  0  0  0  0  0  0  0  0  0  0  0
  149.8889  140.3744  157.9820 O   0  0  0  0  0  0  0  0  0  0  0  0
  149.3324  142.1222  156.6551 N   0  0  0  0  0  0  0  0  0  0  0  0
  148.1687  141.5244  156.0079 C   0  0  0  0  0  0  0  0  0  0  0  0
  148.4180  141.1770  154.5260 C   0  0  0  0  0  0  0  0  0  0  0  0
  149.2726  139.9648  154.3294 C   0  0  0  0  0  0  0  0  0  0  0  0
  148.7659  138.8421  153.8166 N   0  0  0  0  0  0  0  0  0  0  0  0
  149.8301  138.0112  153.8482 N   0  0  0  0  0  0  0  0  0  0  0  0
  150.8680  138.6629  154.3698 C   0  0  0  0  0  0  0  0  0  0  0  0
  150.5877  139.9143  154.7073 N   0  0  0  0  0  0  0  0  0  0  0  0
  151.8878  141.6367  159.3784 C   0  0  0  0  0  0  0  0  0  0  0  0
  152.9815  141.5577  161.9756 H   0  0  0  0  0  0  0  0  0  0  0  0
  154.5165  142.3253  161.5769 H   0  0  0  0  0  0  0  0  0  0  0  0
  154.0925  140.7801  160.8509 H   0  0  0  0  0  0  0  0  0  0  0  0
  153.7843  142.6285  159.2290 H   0  0  0  0  0  0  0  0  0  0  0  0
  151.7832  143.7465  161.2411 H   0  0  0  0  0  0  0  0  0  0  0  0
  153.3159  144.4674  160.8132 H   0  0  0  0  0  0  0  0  0  0  0  0
  151.4246  145.5501  159.5974 H   0  0  0  0  0  0  0  0  0  0  0  0
  152.5652  144.8255  158.4900 H   0  0  0  0  0  0  0  0  0  0  0  0
  149.8963  143.6298  159.3738 H   0  0  0  0  0  0  0  0  0  0  0  0
  150.2632  144.2789  157.7931 H   0  0  0  0  0  0  0  0  0  0  0  0
  151.9736  142.5235  157.4218 H   0  0  0  0  0  0  0  0  0  0  0  0
  149.5617  143.0708  156.3957 H   0  0  0  0  0  0  0  0  0  0  0  0
  147.9213  140.6148  156.5557 H   0  0  0  0  0  0  0  0  0  0  0  0
  147.3054  142.1847  156.1025 H   0  0  0  0  0  0  0  0  0  0  0  0
  147.4634  141.0251  154.0209 H   0  0  0  0  0  0  0  0  0  0  0  0
  148.8909  142.0219  154.0239 H   0  0  0  0  0  0  0  0  0  0  0  0
  151.8413  138.2156  154.5077 H   0  0  0  0  0  0  0  0  0  0  0  0
  152.2835  140.6769  159.0427 H   0  0  0  0  0  0  0  0  0  0  0  0
  151.1467  141.4114  160.1472 H   0  0  0  0  0  0  0  0  0  0  0  0
  149.7984  137.0558  153.5223 H   0  0  0  0  0  0  0  0  0  0  0  0
  1  2  1  0  0  0  0
  1 18  1  0  0  0  0
  1 19  1  0  0  0  0
  1 20  1  0  0  0  0
  2 17  1  0  0  0  0
  2  3  1  0  0  0  0
  2 21  1  0  0  0  0
  3  4  1  0  0  0  0
  3 22  1  0  0  0  0
  3 23  1  0  0  0  0
  4  5  1  0  0  0  0
  4 24  1  0  0  0  0
  4 25  1  0  0  0  0
  5  6  1  0  0  0  0
  5 26  1  0  0  0  0
  5 27  1  0  0  0  0
  6  7  1  0  0  0  0
  6 17  1  0  0  0  0
  6 28  1  0  0  0  0
  7  8  2  0  0  0  0
  7  9  1  0  0  0  0
  9 10  1  0  0  0  0
  9 29  1  0  0  0  0
 10 11  1  0  0  0  0
 10 30  1  0  0  0  0
 10 31  1  0  0  0  0
 11 32  1  0  0  0  0
 11 33  1  0  0  0  0
 11 12  1  0  0  0  0
 12 16  1  0  0  0  0
 12 13  2  0  0  0  0
 13 14  1  0  0  0  0
 14 15  1  0  0  0  0
 14 37  1  0  0  0  0
 15 16  2  0  0  0  0
 15 34  1  0  0  0  0
 17 35  1  0  0  0  0
 17 36  1  0  0  0  0
M  END
> <s_m_source_file>
AV-unprocessed.smi

> <i_m_source_file_index>
3032

> <i_lp_mmshare_version>
43012

> <i_f3d_flags>
0

> <s_epik_input>
W0NIM11bQ0BASF0xW0NIMl1bQ0gyXVtDSDJdW0NASF0oW0NIMl0xKUMoPU8pW05IXVtDSDJdW0NIMl1jMm5uW2NIXVtuSF0y

> <s_epik_cmdline>
J2VwaWtfcHl0aG9uJywgJy1waCcsICc3LjAnLCAnLXRuJywgJzgnLCAnLW1hJywgJzIwMCcsICctbWV0YWxfYmluZGluZycsICctaW1hZScsICc8aW5maWxlLm1hZT4nLCAnLW9tYWUnLCAnPG91dGZpbGUubWFlPic=

> <r_epik_Ionization_Penalty>
0.000752022

> <r_epik_Ionization_Penalty_Charging>
0

> <r_epik_Ionization_Penalty_Neutral>
0.000752022

> <r_epik_State_Penalty>
0.639926

> <r_epik_Charging_Adjusted_Penalty>
0.639926

> <i_epik_Tot_Q>
0

> <i_epik_Tot_abs_Q>
0

> <r_epik_Metal_State_Penalty>
0.76532

> <b_epik_Metal_Only>
0

> <s_lp_Force_Field>
OPLS_2005

> <r_lp_Energy>
8.90132

> <b_lp_Chiralities_Consistent>
1

> <s_lp_Variant>
AV-unprocessed.smi:3032-7

> <Gold.Version>
5.8.1

> <Gold.Id.Protein>
6NUR|6NUR_protein|mol2

> <Gold.PLP.Fitness>
44.2325

> <Gold.PLP.PLP>
-37.0780

> <Gold.PLP.part.hbond>
-3.0037

> <Gold.PLP.part.metal>
0.0000

> <Gold.PLP.part.buried>
-6.1439

> <Gold.PLP.part.nonpolar>
-29.4150

> <Gold.PLP.part.repulsive>
1.1348

> <Gold.PLP.ligand.clash>
0.0000

> <Gold.PLP.ligand.torsion>
0.2852

> <Gold.PLP.Chemscore.Hbond>
2.5680

> <Gold.PLP.Chemscore.CHOScore>
0.0000

> <Gold.PLP.Chemscore.Metal>
0.0000

> <Gold.Chemscore.Hbonds>
donor molecule, donor type, donor heavy atom, donor atom, acceptor molecule, acceptor atom, score
      L1  H     9    29       P1  8028  0.91
      L1  H    14    37       P1  7948  0.62
      P1  H  7989  7998       L1    16  1.00

> <Gold.PLP.Chemscore.Internal.Correction>
0.0210

> <Gold.Rescore>
     Score         DG    S(hbond)    S(metal)    S(lipo)     H(rot)  DE(clash)    DE(int)     intcor
     17.34     -17.98       2.37        0.00      88.41       2.25       0.21       0.43       ----

> <Gold.Chemscore.Fitness>
17.3380

> <Gold.Chemscore.DG>
-17.9763

> <Gold.Chemscore.ZeroCoef>
-5.4800

> <Gold.Chemscore.Hbond>
2.3691

> <Gold.Chemscore.Metal>
0.0000

> <Gold.Chemscore.Lipo>
88.4080

> <Gold.Chemscore.Internal_Hbond>
0.0000

> <Gold.Chemscore.DEClash>
0.2089

> <Gold.Chemscore.DEInternal>
0.4294

> <Gold.Chemscore.Rot>
2.2501

> <Gold.Chemscore.Internal.Correction>
   9.000000E+99

> <Gold.Chemscore.Hbonds>
donor molecule, donor type, donor heavy atom, donor atom, acceptor molecule, acceptor atom, score
      L1  H     9    29       P1  8028  0.88
      L1  H    14    37       P1  7948  0.34
      P1  H  7989  7998       L1    16  0.26

> <Gold.Chemscore.Hbond.Weighted>
-7.9129

> <Gold.Chemscore.Metal.Weighted>
-0.0000

> <Gold.Chemscore.Lipo.Weighted>
-10.3437

> <Gold.Chemscore.Internal_Hbond.Weighted>
0.0000

> <Gold.Chemscore.DEClash.Weighted>
0.2089

> <Gold.Chemscore.DEInternal.Weighted>
0.4294

> <Gold.Chemscore.Rot.Weighted>
5.7603

> <Gold.Chemscore.Internal.Correction.Weighted>
   9.000000E+99

> <Gold.Protein.RotatedTorsions>
[ 6907 6896 6895 6894 ] final  133.26 input  -60.11 | X-H torsion
[ 7974 7965 7964 7962 ] final   23.43 input  175.53 | X-H torsion
[ 8008 7997 7996 7995 ] final  -31.32 input   59.86 | X-H torsion
[ 10167 10162 10161 10158 ] final  130.83 input  -65.29 | X-H torsion
[ 10718 10713 10712 10709 ] final  -19.45 input   66.30 | X-H torsion
[ 10763 10752 10751 10750 ] final   97.06 input  -60.55 | X-H torsion
[ 11005 11000 10999 10996 ] final  -49.23 input  -57.11 | X-H torsion

> <Gold.Protein.ActiveResidues>
 VAL166  LYS551  ARG553  GLY616  TRP617  ASP618  TYR619  PRO620  LYS621  CYS622 
 ASP623  PHE694  ASN695  SER759  ASP760  ASP761  ALA762  ILE779  LEU786  VAL792 
 PHE793  MET794  SER795  GLU796  ALA797  LYS798  CYS799  TRP800  GLU811  SER814 

> <Gold.Protein.RotatedAtoms>
  152.3238  133.5883  159.5762 H   0  0  0  0  0  0  0  0  0  0  0  0  # atno 6907 bound_to 6896
  150.7386  133.9971  159.3635 H   0  0  0  0  0  0  0  0  0  0  0  0  # atno 6908 bound_to 6896
  151.7853  135.0751  160.0430 H   0  0  0  0  0  0  0  0  0  0  0  0  # atno 6909 bound_to 6896
  146.1984  139.7745  142.8780 H   0  0  0  0  0  0  0  0  0  0  0  0  # atno 7974 bound_to 7965
  154.4218  140.1767  156.1548 H   0  0  0  0  0  0  0  0  0  0  0  0  # atno 8008 bound_to 7997
  155.9886  140.3371  155.6706 H   0  0  0  0  0  0  0  0  0  0  0  0  # atno 8009 bound_to 7997
  155.6403  140.0679  157.2611 H   0  0  0  0  0  0  0  0  0  0  0  0  # atno 8010 bound_to 7997
  139.5412  144.6732  151.4620 H   0  0  0  0  0  0  0  0  0  0  0  0  # atno 10167 bound_to 10162
  156.5455  130.4689  149.6477 H   0  0  0  0  0  0  0  0  0  0  0  0  # atno 10718 bound_to 10713
  153.2724  135.4196  155.1000 H   0  0  0  0  0  0  0  0  0  0  0  0  # atno 10763 bound_to 10752
  154.8460  135.3475  154.6226 H   0  0  0  0  0  0  0  0  0  0  0  0  # atno 10764 bound_to 10752
  153.6646  135.7046  153.5224 H   0  0  0  0  0  0  0  0  0  0  0  0  # atno 10765 bound_to 10752
  141.0747  133.6669  156.3555 H   0  0  0  0  0  0  0  0  0  0  0  0  # atno 11005 bound_to 11000
  145.3565  141.0318  143.3309 LP  0  0  0  0  0  0  0  0  0  0  0  0  # atno 17320 bound_to 7965
  144.8630  139.5149  143.6803 LP  0  0  0  0  0  0  0  0  0  0  0  0  # atno 17321 bound_to 7965
  140.6642  143.8433  150.6923 LP  0  0  0  0  0  0  0  0  0  0  0  0  # atno 17342 bound_to 10162
  140.1837  143.4093  152.1914 LP  0  0  0  0  0  0  0  0  0  0  0  0  # atno 17343 bound_to 10162
  156.2932  130.7136  151.1990 LP  0  0  0  0  0  0  0  0  0  0  0  0  # atno 17370 bound_to 10713
  157.7397  131.0525  150.5212 LP  0  0  0  0  0  0  0  0  0  0  0  0  # atno 17371 bound_to 10713
  140.5599  134.5945  157.5431 LP  0  0  0  0  0  0  0  0  0  0  0  0  # atno 17394 bound_to 11000
  139.9559  134.7535  156.0342 LP  0  0  0  0  0  0  0  0  0  0  0  0  # atno 17395 bound_to 11000

$$$$
