AV-unprocessed.smi:227|AV-procd|sdf|1737|dock10
  -GOLD-   2262020233D 1   1.00000     0.00000
 Structure written by MMmdl.
 54 58  0  0  0  0  0  0  0  0  1 V2000
  153.2781  139.1800  158.1066 O   0  0  0  0  0  0  0  0  0  0  0  0
  151.9083  139.4811  158.2765 C   0  0  0  0  0  0  0  0  0  0  0  0
  151.4743  140.6687  157.3824 C   0  0  2  0  0  0  0  0  0  0  0  0
  151.7060  140.3996  155.8746 C   0  0  0  0  0  0  0  0  0  0  0  0
  151.2577  139.0831  155.4547 N   0  0  0  0  0  0  0  0  0  0  0  0
  151.9132  138.2295  154.5985 C   0  0  0  0  0  0  0  0  0  0  0  0
  151.3039  137.0988  154.3693 N   0  0  0  0  0  0  0  0  0  0  0  0
  150.1373  137.1762  155.1226 C   0  0  0  0  0  0  0  0  0  0  0  0
  149.0260  136.3090  155.3343 C   0  0  0  0  0  0  0  0  0  0  0  0
  148.8977  135.0886  154.7461 N   0  0  0  0  0  0  0  0  0  0  0  0
  149.8278  134.0095  155.0436 C   0  0  1  0  0  0  0  0  0  0  0  0
  149.4181  133.5327  156.4531 C   0  0  0  0  0  0  0  0  0  0  0  0
  147.8981  133.7542  156.4139 C   0  0  0  0  0  0  0  0  0  0  0  0
  147.7070  134.2853  154.9787 C   0  0  2  0  0  0  0  0  0  0  0  0
  147.8838  133.1170  153.9831 C   0  0  1  0  0  0  0  0  0  0  0  0
  147.3492  133.4278  152.5728 C   0  0  0  0  0  0  0  0  0  0  0  0
  147.0910  132.2313  151.8696 O   0  0  0  0  0  0  0  0  0  0  0  0
  149.4162  132.9435  154.0152 C   0  0  0  0  0  0  0  0  0  0  0  0
  148.0642  136.7307  156.1982 N   0  0  0  0  0  0  0  0  0  0  0  0
  148.1605  137.9229  156.7923 C   0  0  0  0  0  0  0  0  0  0  0  0
  149.1238  138.8372  156.6740 N   0  0  0  0  0  0  0  0  0  0  0  0
  150.1031  138.4155  155.8244 C   0  0  0  0  0  0  0  0  0  0  0  0
  152.1197  142.0044  157.8310 C   0  0  1  0  0  0  0  0  0  0  0  0
  151.1981  143.2101  157.7767 C   0  0  0  0  0  0  0  0  0  0  0  0
  151.9216  144.2052  158.6764 C   0  0  0  0  0  0  0  0  0  0  0  0
  152.5500  143.4204  159.6827 O   0  0  0  0  0  0  0  0  0  0  0  0
  152.5480  142.0476  159.3023 C   0  0  0  0  0  0  0  0  0  0  0  0
  153.5900  138.7447  158.8854 H   0  0  0  0  0  0  0  0  0  0  0  0
  151.3237  138.5880  158.0554 H   0  0  0  0  0  0  0  0  0  0  0  0
  151.7285  139.7015  159.3284 H   0  0  0  0  0  0  0  0  0  0  0  0
  150.3969  140.7730  157.5185 H   0  0  0  0  0  0  0  0  0  0  0  0
  151.1765  141.1343  155.2679 H   0  0  0  0  0  0  0  0  0  0  0  0
  152.7636  140.5046  155.6297 H   0  0  0  0  0  0  0  0  0  0  0  0
  152.8615  138.4761  154.1435 H   0  0  0  0  0  0  0  0  0  0  0  0
  150.8821  134.2775  154.9652 H   0  0  0  0  0  0  0  0  0  0  0  0
  149.6905  132.4933  156.6392 H   0  0  0  0  0  0  0  0  0  0  0  0
  149.8756  134.1458  157.2304 H   0  0  0  0  0  0  0  0  0  0  0  0
  147.3296  132.8443  156.6093 H   0  0  0  0  0  0  0  0  0  0  0  0
  147.5999  134.5027  157.1493 H   0  0  0  0  0  0  0  0  0  0  0  0
  146.7568  134.7995  154.8479 H   0  0  0  0  0  0  0  0  0  0  0  0
  147.3933  132.2155  154.3538 H   0  0  0  0  0  0  0  0  0  0  0  0
  146.4360  134.0223  152.6195 H   0  0  0  0  0  0  0  0  0  0  0  0
  148.0828  134.0053  152.0097 H   0  0  0  0  0  0  0  0  0  0  0  0
  147.8331  132.0435  151.3151 H   0  0  0  0  0  0  0  0  0  0  0  0
  149.8619  133.1611  153.0433 H   0  0  0  0  0  0  0  0  0  0  0  0
  149.7221  131.9378  154.3051 H   0  0  0  0  0  0  0  0  0  0  0  0
  147.3500  138.1806  157.4579 H   0  0  0  0  0  0  0  0  0  0  0  0
  152.9919  142.2157  157.2098 H   0  0  0  0  0  0  0  0  0  0  0  0
  151.0498  143.5954  156.7675 H   0  0  0  0  0  0  0  0  0  0  0  0
  150.2217  142.9653  158.1977 H   0  0  0  0  0  0  0  0  0  0  0  0
  152.6935  144.7332  158.1151 H   0  0  0  0  0  0  0  0  0  0  0  0
  151.2484  144.9465  159.1074 H   0  0  0  0  0  0  0  0  0  0  0  0
  151.8280  141.5227  159.9315 H   0  0  0  0  0  0  0  0  0  0  0  0
  153.5273  141.5965  159.4635 H   0  0  0  0  0  0  0  0  0  0  0  0
  1  2  1  0  0  0  0
  1 28  1  0  0  0  0
  2  3  1  0  0  0  0
  2 29  1  0  0  0  0
  2 30  1  0  0  0  0
  3  4  1  0  0  0  0
  3 23  1  0  0  0  0
  3 31  1  0  0  0  0
  4  5  1  0  0  0  0
  4 32  1  0  0  0  0
  4 33  1  0  0  0  0
  5 22  1  0  0  0  0
  5  6  1  0  0  0  0
  6  7  2  0  0  0  0
  6 34  1  0  0  0  0
  7  8  1  0  0  0  0
  8 22  2  0  0  0  0
  8  9  1  0  0  0  0
  9 10  1  0  0  0  0
  9 19  2  0  0  0  0
 10 14  1  0  0  0  0
 10 11  1  0  0  0  0
 11 18  1  0  0  0  0
 11 12  1  0  0  0  0
 11 35  1  0  0  0  0
 12 13  1  0  0  0  0
 12 36  1  0  0  0  0
 12 37  1  0  0  0  0
 13 14  1  0  0  0  0
 13 38  1  0  0  0  0
 13 39  1  0  0  0  0
 14 15  1  0  0  0  0
 14 40  1  0  0  0  0
 15 16  1  0  0  0  0
 15 18  1  0  0  0  0
 15 41  1  0  0  0  0
 16 17  1  0  0  0  0
 16 42  1  0  0  0  0
 16 43  1  0  0  0  0
 17 44  1  0  0  0  0
 18 45  1  0  0  0  0
 18 46  1  0  0  0  0
 19 20  1  0  0  0  0
 20 21  2  0  0  0  0
 20 47  1  0  0  0  0
 21 22  1  0  0  0  0
 23 27  1  0  0  0  0
 23 24  1  0  0  0  0
 23 48  1  0  0  0  0
 24 25  1  0  0  0  0
 24 49  1  0  0  0  0
 24 50  1  0  0  0  0
 25 26  1  0  0  0  0
 25 51  1  0  0  0  0
 25 52  1  0  0  0  0
 26 27  1  0  0  0  0
 27 53  1  0  0  0  0
 27 54  1  0  0  0  0
M  END
> <s_m_source_file>
AV-unprocessed.smi

> <i_m_source_file_index>
227

> <i_lp_mmshare_version>
43012

> <i_f3d_flags>
0

> <s_epik_input>
W0NIMl0xT1tDSDJdW0NIMl1bQ0BIXTFbQ0BIXShbQ0gyXVtPSF0pW0NIMl1uKFtjSF1uMiljKGMyMyluW2NIXW5jM04oW0NASF00NSlbQ0BASF0oW0NIMl1bQ0gyXTQpW0NASF0oW0NIMl01KVtDSDJdW09IXQ==

> <s_epik_cmdline>
J2VwaWtfcHl0aG9uJywgJy1waCcsICc3LjAnLCAnLXRuJywgJzgnLCAnLW1hJywgJzIwMCcsICctbWV0YWxfYmluZGluZycsICctaW1hZScsICc8aW5maWxlLm1hZT4nLCAnLW9tYWUnLCAnPG91dGZpbGUubWFlPic=

> <r_lp_tautomer_probability>
1

> <r_epik_Ionization_Penalty>
0.0055791

> <r_epik_Ionization_Penalty_Charging>
0

> <r_epik_Ionization_Penalty_Neutral>
0.0055791

> <r_epik_State_Penalty>
0.00401299

> <r_epik_Charging_Adjusted_Penalty>
0.00401299

> <i_epik_Tot_Q>
0

> <i_epik_Tot_abs_Q>
0

> <r_epik_Metal_State_Penalty>
-0

> <b_epik_Metal_Only>
0

> <s_lp_Force_Field>
OPLS_2005

> <r_lp_Energy>
87.9703

> <b_lp_Chiralities_Consistent>
1

> <s_lp_Variant>
AV-unprocessed.smi:227-11

> <Gold.Version>
5.8.1

> <Gold.Id.Protein>
6NUR|6NUR_protein|mol2

> <Gold.PLP.Fitness>
46.1897

> <Gold.PLP.PLP>
-40.1088

> <Gold.PLP.part.hbond>
-3.0000

> <Gold.PLP.part.metal>
0.0000

> <Gold.PLP.part.buried>
-7.8284

> <Gold.PLP.part.nonpolar>
-28.7280

> <Gold.PLP.part.repulsive>
0.3523

> <Gold.PLP.ligand.clash>
0.0000

> <Gold.PLP.ligand.torsion>
1.5473

> <Gold.PLP.Chemscore.Hbond>
2.9920

> <Gold.PLP.Chemscore.CHOScore>
0.0000

> <Gold.PLP.Chemscore.Metal>
0.0000

> <Gold.Chemscore.Hbonds>
donor molecule, donor type, donor heavy atom, donor atom, acceptor molecule, acceptor atom, score
      L1  H    17    44       P1 10747  1.00
      P1  H  7997  8009       L1     1  1.00
      P1  H 10752 10765       L1     7  0.60

> <Gold.PLP.Chemscore.Internal.Correction>
0.1995

> <Gold.Rescore>
     Score         DG    S(hbond)    S(metal)    S(lipo)     H(rot)  DE(clash)    DE(int)     intcor
     13.37     -16.60       2.76        0.00      95.24       3.61       0.04       3.20       ----

> <Gold.Chemscore.Fitness>
13.3728

> <Gold.Chemscore.DG>
-16.6041

> <Gold.Chemscore.ZeroCoef>
-5.4800

> <Gold.Chemscore.Hbond>
2.7590

> <Gold.Chemscore.Metal>
0.0000

> <Gold.Chemscore.Lipo>
95.2398

> <Gold.Chemscore.Internal_Hbond>
0.0000

> <Gold.Chemscore.DEClash>
0.0354

> <Gold.Chemscore.DEInternal>
3.1959

> <Gold.Chemscore.Rot>
3.6071

> <Gold.Chemscore.Internal.Correction>
   9.000000E+99

> <Gold.Chemscore.Hbonds>
donor molecule, donor type, donor heavy atom, donor atom, acceptor molecule, acceptor atom, score
      L1  H    17    44       P1 10747  0.97
      P1  H  7997  8009       L1     1  0.88
      P1  H 10752 10765       L1     7  0.24

> <Gold.Chemscore.Hbond.Weighted>
-9.2152

> <Gold.Chemscore.Metal.Weighted>
-0.0000

> <Gold.Chemscore.Lipo.Weighted>
-11.1431

> <Gold.Chemscore.Internal_Hbond.Weighted>
0.0000

> <Gold.Chemscore.DEClash.Weighted>
0.0354

> <Gold.Chemscore.DEInternal.Weighted>
3.1959

> <Gold.Chemscore.Rot.Weighted>
9.2342

> <Gold.Chemscore.Internal.Correction.Weighted>
   9.000000E+99

> <Gold.Protein.RotatedTorsions>
[ 6907 6896 6895 6894 ] final   54.02 input  -60.11 | X-H torsion
[ 7974 7965 7964 7962 ] final  -47.59 input  175.53 | X-H torsion
[ 8008 7997 7996 7995 ] final  149.75 input   59.86 | X-H torsion
[ 10167 10162 10161 10158 ] final  117.77 input  -65.29 | X-H torsion
[ 10718 10713 10712 10709 ] final -133.55 input   66.30 | X-H torsion
[ 10763 10752 10751 10750 ] final  171.38 input  -60.55 | X-H torsion
[ 11005 11000 10999 10996 ] final  146.58 input  -57.11 | X-H torsion

> <Gold.Protein.ActiveResidues>
 VAL166  LYS551  ARG553  GLY616  TRP617  ASP618  TYR619  PRO620  LYS621  CYS622 
 ASP623  PHE694  ASN695  SER759  ASP760  ASP761  ALA762  ILE779  LEU786  VAL792 
 PHE793  MET794  SER795  GLU796  ALA797  LYS798  CYS799  TRP800  GLU811  SER814 

> <Gold.Protein.RotatedAtoms>
  152.3396  134.7152  160.0267 H   0  0  0  0  0  0  0  0  0  0  0  0  # atno 6907 bound_to 6896
  151.7541  133.3324  159.3408 H   0  0  0  0  0  0  0  0  0  0  0  0  # atno 6908 bound_to 6896
  150.7471  134.6097  159.6124 H   0  0  0  0  0  0  0  0  0  0  0  0  # atno 6909 bound_to 6896
  145.9600  140.7489  142.9462 H   0  0  0  0  0  0  0  0  0  0  0  0  # atno 7974 bound_to 7965
  156.2743  140.2093  156.5908 H   0  0  0  0  0  0  0  0  0  0  0  0  # atno 8008 bound_to 7997
  154.6984  140.0523  157.0457 H   0  0  0  0  0  0  0  0  0  0  0  0  # atno 8009 bound_to 7997
  155.0769  140.3182  155.4616 H   0  0  0  0  0  0  0  0  0  0  0  0  # atno 8010 bound_to 7997
  139.6156  144.7091  151.2747 H   0  0  0  0  0  0  0  0  0  0  0  0  # atno 10167 bound_to 10162
  156.2461  130.7125  151.1006 H   0  0  0  0  0  0  0  0  0  0  0  0  # atno 10718 bound_to 10713
  154.4110  135.2756  155.2037 H   0  0  0  0  0  0  0  0  0  0  0  0  # atno 10763 bound_to 10752
  154.4022  135.6042  153.5907 H   0  0  0  0  0  0  0  0  0  0  0  0  # atno 10764 bound_to 10752
  152.9831  135.5929  154.4392 H   0  0  0  0  0  0  0  0  0  0  0  0  # atno 10765 bound_to 10752
  140.0805  134.9100  157.1492 H   0  0  0  0  0  0  0  0  0  0  0  0  # atno 11005 bound_to 11000
  144.6813  140.2575  143.7323 LP  0  0  0  0  0  0  0  0  0  0  0  0  # atno 17320 bound_to 7965
  145.8053  139.1981  143.2024 LP  0  0  0  0  0  0  0  0  0  0  0  0  # atno 17321 bound_to 7965
  140.7348  143.6754  150.8046 LP  0  0  0  0  0  0  0  0  0  0  0  0  # atno 17342 bound_to 10162
  140.0356  143.5399  152.2741 LP  0  0  0  0  0  0  0  0  0  0  0  0  # atno 17343 bound_to 10162
  157.7196  131.0690  150.6191 LP  0  0  0  0  0  0  0  0  0  0  0  0  # atno 17370 bound_to 10713
  156.6268  130.4421  149.5801 LP  0  0  0  0  0  0  0  0  0  0  0  0  # atno 17371 bound_to 10713
  140.3495  134.2614  155.7200 LP  0  0  0  0  0  0  0  0  0  0  0  0  # atno 17394 bound_to 11000
  141.2045  133.7885  157.0285 LP  0  0  0  0  0  0  0  0  0  0  0  0  # atno 17395 bound_to 11000

$$$$
