AV-unprocessed.smi:2413|AV-procd|sdf|9535|dock8
  -GOLD-   2272013163D 1   1.00000     0.00000
 Structure written by MMmdl.
 45 46  0  0  0  0  0  0  0  0  1 V2000
  153.8766  136.8365  158.1021 C   0  0  0  0  0  0  0  0  0  0  0  0
  153.0188  136.9832  156.8498 C   0  0  0  0  0  0  0  0  0  0  0  0
  152.2582  136.0767  156.5118 O   0  0  0  0  0  0  0  0  0  0  0  0
  153.1519  138.1321  156.1707 N   0  0  0  0  0  0  0  0  0  0  0  0
  152.4382  138.4672  154.9432 C   0  0  0  0  0  0  0  0  0  0  0  0
  151.0680  139.1012  155.2371 C   0  0  1  0  0  0  0  0  0  0  0  0
  151.1896  140.3114  156.1828 C   0  0  0  0  0  0  0  0  0  0  0  0
  149.8970  140.9710  156.3512 N   0  0  0  0  0  0  0  0  0  0  0  0
  149.7478  141.9070  157.4003 C   0  0  0  0  0  0  0  0  0  0  0  0
  148.4838  142.2928  157.9120 C   0  0  0  0  0  0  0  0  0  0  0  0
  148.4801  143.2529  158.9418 C   0  0  0  0  0  0  0  0  0  0  0  0
  149.6213  143.7813  159.4280 N   0  0  0  0  0  0  0  0  0  0  0  0
  150.7735  143.3328  158.9162 C   0  0  0  0  0  0  0  0  0  0  0  0
  152.0658  144.0391  159.3610 C   0  0  0  0  0  0  0  0  0  0  0  0
  152.7813  144.6983  158.1581 C   0  0  0  0  0  0  0  0  0  0  0  0
  153.0746  143.0305  159.9589 C   0  0  0  0  0  0  0  0  0  0  0  0
  151.7268  145.1129  160.4110 C   0  0  0  0  0  0  0  0  0  0  0  0
  150.8765  142.4559  157.9098 N   0  0  0  0  0  0  0  0  0  0  0  0
  149.2106  141.2733  155.0949 C   0  0  0  0  0  0  0  0  0  0  0  0
  149.1760  140.0357  154.1837 C   0  0  0  0  0  0  0  0  0  0  0  0
  150.4950  139.5333  154.0061 O   0  0  0  0  0  0  0  0  0  0  0  0
  154.9211  137.0580  157.8802 H   0  0  0  0  0  0  0  0  0  0  0  0
  153.8197  135.8206  158.4945 H   0  0  0  0  0  0  0  0  0  0  0  0
  153.5347  137.5224  158.8775 H   0  0  0  0  0  0  0  0  0  0  0  0
  153.8063  138.8175  156.5187 H   0  0  0  0  0  0  0  0  0  0  0  0
  153.0460  139.1410  154.3367 H   0  0  0  0  0  0  0  0  0  0  0  0
  152.3116  137.5557  154.3582 H   0  0  0  0  0  0  0  0  0  0  0  0
  150.4184  138.3532  155.6965 H   0  0  0  0  0  0  0  0  0  0  0  0
  151.5610  139.9576  157.1447 H   0  0  0  0  0  0  0  0  0  0  0  0
  151.9110  141.0305  155.7923 H   0  0  0  0  0  0  0  0  0  0  0  0
  147.5496  141.8900  157.5526 H   0  0  0  0  0  0  0  0  0  0  0  0
  147.5544  143.6034  159.3735 H   0  0  0  0  0  0  0  0  0  0  0  0
  153.7217  145.1611  158.4598 H   0  0  0  0  0  0  0  0  0  0  0  0
  152.1766  145.4842  157.7036 H   0  0  0  0  0  0  0  0  0  0  0  0
  153.0101  143.9670  157.3819 H   0  0  0  0  0  0  0  0  0  0  0  0
  153.3156  142.2403  159.2469 H   0  0  0  0  0  0  0  0  0  0  0  0
  152.6911  142.5560  160.8629 H   0  0  0  0  0  0  0  0  0  0  0  0
  154.0097  143.5197  160.2340 H   0  0  0  0  0  0  0  0  0  0  0  0
  152.6216  145.6360  160.7499 H   0  0  0  0  0  0  0  0  0  0  0  0
  151.2511  144.6726  161.2879 H   0  0  0  0  0  0  0  0  0  0  0  0
  151.0425  145.8596  160.0068 H   0  0  0  0  0  0  0  0  0  0  0  0
  148.1864  141.6054  155.2637 H   0  0  0  0  0  0  0  0  0  0  0  0
  149.7339  142.0902  154.5967 H   0  0  0  0  0  0  0  0  0  0  0  0
  148.5315  139.2611  154.6027 H   0  0  0  0  0  0  0  0  0  0  0  0
  148.7628  140.2995  153.2100 H   0  0  0  0  0  0  0  0  0  0  0  0
  1  2  1  0  0  0  0
  1 22  1  0  0  0  0
  1 23  1  0  0  0  0
  1 24  1  0  0  0  0
  2  3  2  0  0  0  0
  2  4  1  0  0  0  0
  4  5  1  0  0  0  0
  4 25  1  0  0  0  0
  5  6  1  0  0  0  0
  5 26  1  0  0  0  0
  5 27  1  0  0  0  0
  6 21  1  0  0  0  0
  6  7  1  0  0  0  0
  6 28  1  0  0  0  0
  7  8  1  0  0  0  0
  7 29  1  0  0  0  0
  7 30  1  0  0  0  0
  8  9  1  0  0  0  0
  8 19  1  0  0  0  0
  9 18  1  0  0  0  0
  9 10  2  0  0  0  0
 10 11  1  0  0  0  0
 10 31  1  0  0  0  0
 11 12  2  0  0  0  0
 11 32  1  0  0  0  0
 12 13  1  0  0  0  0
 13 14  1  0  0  0  0
 13 18  2  0  0  0  0
 14 15  1  0  0  0  0
 14 16  1  0  0  0  0
 14 17  1  0  0  0  0
 15 33  1  0  0  0  0
 15 34  1  0  0  0  0
 15 35  1  0  0  0  0
 16 36  1  0  0  0  0
 16 37  1  0  0  0  0
 16 38  1  0  0  0  0
 17 39  1  0  0  0  0
 17 40  1  0  0  0  0
 17 41  1  0  0  0  0
 19 20  1  0  0  0  0
 19 42  1  0  0  0  0
 19 43  1  0  0  0  0
 20 21  1  0  0  0  0
 20 44  1  0  0  0  0
 20 45  1  0  0  0  0
M  END
> <s_m_source_file>
AV-unprocessed.smi

> <i_m_source_file_index>
2413

> <i_lp_mmshare_version>
43012

> <i_f3d_flags>
0

> <s_epik_input>
W0NIM11DKD1PKVtOSF1bQ0gyXVtDQEBIXTFbQ0gyXU4oW0NIMl1bQ0gyXU8xKWMyW2NIXVtjSF1uYyhuMilDKFtDSDNdKShbQ0gzXSlbQ0gzXQ==

> <s_epik_cmdline>
J2VwaWtfcHl0aG9uJywgJy1waCcsICc3LjAnLCAnLXRuJywgJzgnLCAnLW1hJywgJzIwMCcsICctbWV0YWxfYmluZGluZycsICctaW1hZScsICc8aW5maWxlLm1hZT4nLCAnLW9tYWUnLCAnPG91dGZpbGUubWFlPic=

> <r_lp_tautomer_probability>
1

> <r_epik_Ionization_Penalty>
0.0132021

> <r_epik_Ionization_Penalty_Charging>
0

> <r_epik_Ionization_Penalty_Neutral>
0.0132021

> <r_epik_State_Penalty>
0.0102452

> <r_epik_Charging_Adjusted_Penalty>
0.0102452

> <i_epik_Tot_Q>
0

> <i_epik_Tot_abs_Q>
0

> <r_epik_Metal_State_Penalty>
0.0100219

> <b_epik_Metal_Only>
0

> <s_lp_Force_Field>
OPLS_2005

> <r_lp_Energy>
8.35197

> <b_lp_Chiralities_Consistent>
1

> <s_lp_Variant>
AV-unprocessed.smi:2413-2

> <Gold.Version>
5.8.1

> <Gold.Id.Protein>
6NUR|6NUR_protein|mol2

> <Gold.PLP.Fitness>
44.9165

> <Gold.PLP.PLP>
-39.4236

> <Gold.PLP.part.hbond>
-2.2625

> <Gold.PLP.part.metal>
0.0000

> <Gold.PLP.part.buried>
-4.3684

> <Gold.PLP.part.nonpolar>
-34.0694

> <Gold.PLP.part.repulsive>
1.1067

> <Gold.PLP.ligand.clash>
0.0000

> <Gold.PLP.ligand.torsion>
0.5678

> <Gold.PLP.Chemscore.Hbond>
2.0000

> <Gold.PLP.Chemscore.CHOScore>
0.0000

> <Gold.PLP.Chemscore.Metal>
0.0000

> <Gold.Chemscore.Hbonds>
donor molecule, donor type, donor heavy atom, donor atom, acceptor molecule, acceptor atom, score
      P1  H  7989  7998       L1    21  1.00
      P1  H 10752 10763       L1     3  0.75

> <Gold.PLP.Chemscore.Internal.Correction>
0.6285

> <Gold.Rescore>
     Score         DG    S(hbond)    S(metal)    S(lipo)     H(rot)  DE(clash)    DE(int)     intcor
     15.28     -17.15       1.45        0.00      96.32       1.73       1.29       0.58       ----

> <Gold.Chemscore.Fitness>
15.2752

> <Gold.Chemscore.DG>
-17.1475

> <Gold.Chemscore.ZeroCoef>
-5.4800

> <Gold.Chemscore.Hbond>
1.4476

> <Gold.Chemscore.Metal>
0.0000

> <Gold.Chemscore.Lipo>
96.3204

> <Gold.Chemscore.Internal_Hbond>
0.0000

> <Gold.Chemscore.DEClash>
1.2947

> <Gold.Chemscore.DEInternal>
0.5776

> <Gold.Chemscore.Rot>
1.7332

> <Gold.Chemscore.Internal.Correction>
   9.000000E+99

> <Gold.Chemscore.Hbonds>
donor molecule, donor type, donor heavy atom, donor atom, acceptor molecule, acceptor atom, score
      P1  H  7989  7998       L1    21  0.31
      P1  H 10752 10763       L1     3  0.09

> <Gold.Chemscore.Hbond.Weighted>
-4.8350

> <Gold.Chemscore.Metal.Weighted>
-0.0000

> <Gold.Chemscore.Lipo.Weighted>
-11.2695

> <Gold.Chemscore.Internal_Hbond.Weighted>
0.0000

> <Gold.Chemscore.DEClash.Weighted>
1.2947

> <Gold.Chemscore.DEInternal.Weighted>
0.5776

> <Gold.Chemscore.Rot.Weighted>
4.4370

> <Gold.Chemscore.Internal.Correction.Weighted>
   9.000000E+99

> <Gold.Protein.RotatedTorsions>
[ 6907 6896 6895 6894 ] final -131.80 input  -60.11 | X-H torsion
[ 7974 7965 7964 7962 ] final   84.70 input  175.53 | X-H torsion
[ 8008 7997 7996 7995 ] final   29.54 input   59.86 | X-H torsion
[ 10167 10162 10161 10158 ] final   62.49 input  -65.29 | X-H torsion
[ 10718 10713 10712 10709 ] final   63.41 input   66.30 | X-H torsion
[ 10763 10752 10751 10750 ] final  108.19 input  -60.55 | X-H torsion
[ 11005 11000 10999 10996 ] final  -17.41 input  -57.11 | X-H torsion

> <Gold.Protein.ActiveResidues>
 VAL166  LYS551  ARG553  GLY616  TRP617  ASP618  TYR619  PRO620  LYS621  CYS622 
 ASP623  PHE694  ASN695  SER759  ASP760  ASP761  ALA762  ILE779  LEU786  VAL792 
 PHE793  MET794  SER795  GLU796  ALA797  LYS798  CYS799  TRP800  GLU811  SER814 

> <Gold.Protein.RotatedAtoms>
  150.9551  133.6506  159.2764 H   0  0  0  0  0  0  0  0  0  0  0  0  # atno 6907 bound_to 6896
  151.3848  135.0945  159.9517 H   0  0  0  0  0  0  0  0  0  0  0  0  # atno 6908 bound_to 6896
  152.5126  133.9078  159.7527 H   0  0  0  0  0  0  0  0  0  0  0  0  # atno 6909 bound_to 6896
  145.5953  139.2344  143.2276 H   0  0  0  0  0  0  0  0  0  0  0  0  # atno 7974 bound_to 7965
  155.0761  140.3205  155.4615 H   0  0  0  0  0  0  0  0  0  0  0  0  # atno 8008 bound_to 7997
  156.2778  140.2103  156.5834 H   0  0  0  0  0  0  0  0  0  0  0  0  # atno 8009 bound_to 7997
  154.7016  140.0506  157.0450 H   0  0  0  0  0  0  0  0  0  0  0  0  # atno 8010 bound_to 7997
  140.1434  144.4532  150.6798 H   0  0  0  0  0  0  0  0  0  0  0  0  # atno 10167 bound_to 10162
  157.5969  130.9104  149.9713 H   0  0  0  0  0  0  0  0  0  0  0  0  # atno 10718 bound_to 10713
  153.4172  135.3820  155.2088 H   0  0  0  0  0  0  0  0  0  0  0  0  # atno 10763 bound_to 10752
  154.8742  135.3808  154.4428 H   0  0  0  0  0  0  0  0  0  0  0  0  # atno 10764 bound_to 10752
  153.4943  135.7088  153.5929 H   0  0  0  0  0  0  0  0  0  0  0  0  # atno 10765 bound_to 10752
  140.8165  133.8101  155.9616 H   0  0  0  0  0  0  0  0  0  0  0  0  # atno 11005 bound_to 11000
  146.1617  140.6778  142.9274 LP  0  0  0  0  0  0  0  0  0  0  0  0  # atno 17320 bound_to 7965
  144.7333  140.4737  143.6922 LP  0  0  0  0  0  0  0  0  0  0  0  0  # atno 17321 bound_to 7965
  140.6747  143.2300  151.5538 LP  0  0  0  0  0  0  0  0  0  0  0  0  # atno 17342 bound_to 10162
  139.5461  144.2518  152.1444 LP  0  0  0  0  0  0  0  0  0  0  0  0  # atno 17343 bound_to 10162
  156.1034  130.3654  150.0177 LP  0  0  0  0  0  0  0  0  0  0  0  0  # atno 17370 bound_to 10713
  156.8288  130.9385  151.3638 LP  0  0  0  0  0  0  0  0  0  0  0  0  # atno 17371 bound_to 10713
  140.9143  134.2221  157.4966 LP  0  0  0  0  0  0  0  0  0  0  0  0  # atno 17394 bound_to 11000
  139.8711  134.9764  156.4920 LP  0  0  0  0  0  0  0  0  0  0  0  0  # atno 17395 bound_to 11000

$$$$
