AV-unprocessed.smi:837|AV-procd|sdf|3892|dock7
  -GOLD-   22720 1353D 1   1.00000     0.00000
 Structure written by MMmdl.
 49 51  0  0  0  0  0  0  0  0  1 V2000
  152.8941  139.0781  158.2829 C   0  0  0  0  0  0  0  0  0  0  0  0
  152.6123  140.5393  157.8702 C   0  0  2  0  0  0  0  0  0  0  0  0
  152.3123  141.3934  159.1212 C   0  0  0  0  0  0  0  0  0  0  0  0
  152.0851  142.8721  158.7700 C   0  0  0  0  0  0  0  0  0  0  0  0
  150.9630  143.0336  157.7353 C   0  0  0  0  0  0  0  0  0  0  0  0
  151.2564  142.2049  156.4749 C   0  0  0  0  0  0  0  0  0  0  0  0
  151.4855  140.7102  156.8038 C   0  0  2  0  0  0  0  0  0  0  0  0
  150.2452  140.0676  157.2061 N   0  0  0  0  0  0  0  0  0  0  0  0
  149.8627  139.0979  156.3655 C   0  0  0  0  0  0  0  0  0  0  0  0
  148.8583  138.4006  156.4985 O   0  0  0  0  0  0  0  0  0  0  0  0
  150.7654  139.0204  155.3710 N   0  0  0  0  0  0  0  0  0  0  0  0
  150.7224  138.0398  154.2797 C   0  0  0  0  0  0  0  0  0  0  0  0
  150.8587  136.5970  154.7841 C   0  0  0  0  0  0  0  0  0  0  0  0
  151.8930  136.2200  155.3363 O   0  0  0  0  0  0  0  0  0  0  0  0
  149.7958  135.8015  154.5933 N   0  0  0  0  0  0  0  0  0  0  0  0
  149.7180  134.3939  154.9731 C   0  0  0  0  0  0  0  0  0  0  0  0
  150.2904  133.4444  153.9009 C   0  0  0  0  0  0  0  0  0  0  0  0
  149.2444  132.5499  153.2576 C   0  0  0  0  0  0  0  0  0  0  0  0
  149.2348  131.1598  153.4952 C   0  0  0  0  0  0  0  0  0  0  0  0
  148.2516  130.3708  152.8686 C   0  0  0  0  0  0  0  0  0  0  0  0
  147.3161  131.0076  152.0292 C   0  0  0  0  0  0  0  0  0  0  0  0
  147.3136  132.3381  151.7965 N   0  0  0  0  0  0  0  0  0  0  0  0
  148.2602  133.0875  152.4018 C   0  0  0  0  0  0  0  0  0  0  0  0
  151.7481  139.9173  155.5304 C   0  0  0  0  0  0  0  0  0  0  0  0
  152.7211  140.0921  154.7966 O   0  0  0  0  0  0  0  0  0  0  0  0
  152.0262  138.6199  158.7576 H   0  0  0  0  0  0  0  0  0  0  0  0
  153.7184  139.0285  158.9947 H   0  0  0  0  0  0  0  0  0  0  0  0
  153.1721  138.4582  157.4313 H   0  0  0  0  0  0  0  0  0  0  0  0
  153.5353  140.9255  157.4339 H   0  0  0  0  0  0  0  0  0  0  0  0
  151.4320  141.0036  159.6342 H   0  0  0  0  0  0  0  0  0  0  0  0
  153.1371  141.3160  159.8305 H   0  0  0  0  0  0  0  0  0  0  0  0
  151.8411  143.4344  159.6719 H   0  0  0  0  0  0  0  0  0  0  0  0
  153.0085  143.3011  158.3786 H   0  0  0  0  0  0  0  0  0  0  0  0
  150.0120  142.7244  158.1709 H   0  0  0  0  0  0  0  0  0  0  0  0
  150.8526  144.0853  157.4697 H   0  0  0  0  0  0  0  0  0  0  0  0
  150.4376  142.3215  155.7628 H   0  0  0  0  0  0  0  0  0  0  0  0
  152.1425  142.6130  155.9857 H   0  0  0  0  0  0  0  0  0  0  0  0
  149.7428  140.3257  158.0430 H   0  0  0  0  0  0  0  0  0  0  0  0
  149.7858  138.1254  153.7265 H   0  0  0  0  0  0  0  0  0  0  0  0
  151.5142  138.2576  153.5601 H   0  0  0  0  0  0  0  0  0  0  0  0
  148.9873  136.1938  154.1325 H   0  0  0  0  0  0  0  0  0  0  0  0
  150.2174  134.2338  155.9298 H   0  0  0  0  0  0  0  0  0  0  0  0
  148.6648  134.1628  155.1338 H   0  0  0  0  0  0  0  0  0  0  0  0
  150.7853  134.0251  153.1214 H   0  0  0  0  0  0  0  0  0  0  0  0
  151.0656  132.8177  154.3427 H   0  0  0  0  0  0  0  0  0  0  0  0
  149.9716  130.7027  154.1389 H   0  0  0  0  0  0  0  0  0  0  0  0
  148.2197  129.3027  153.0240 H   0  0  0  0  0  0  0  0  0  0  0  0
  146.5496  130.4328  151.5310 H   0  0  0  0  0  0  0  0  0  0  0  0
  148.2339  134.1470  152.1935 H   0  0  0  0  0  0  0  0  0  0  0  0
  1  2  1  0  0  0  0
  1 26  1  0  0  0  0
  1 27  1  0  0  0  0
  1 28  1  0  0  0  0
  2  7  1  0  0  0  0
  2  3  1  0  0  0  0
  2 29  1  0  0  0  0
  3  4  1  0  0  0  0
  3 30  1  0  0  0  0
  3 31  1  0  0  0  0
  4  5  1  0  0  0  0
  4 32  1  0  0  0  0
  4 33  1  0  0  0  0
  5  6  1  0  0  0  0
  5 34  1  0  0  0  0
  5 35  1  0  0  0  0
  6  7  1  0  0  0  0
  6 36  1  0  0  0  0
  6 37  1  0  0  0  0
  7 24  1  0  0  0  0
  7  8  1  0  0  0  0
  8  9  1  0  0  0  0
  8 38  1  0  0  0  0
  9 10  2  0  0  0  0
  9 11  1  0  0  0  0
 11 12  1  0  0  0  0
 11 24  1  0  0  0  0
 12 13  1  0  0  0  0
 12 39  1  0  0  0  0
 12 40  1  0  0  0  0
 13 14  2  0  0  0  0
 13 15  1  0  0  0  0
 15 16  1  0  0  0  0
 15 41  1  0  0  0  0
 16 17  1  0  0  0  0
 16 42  1  0  0  0  0
 16 43  1  0  0  0  0
 17 18  1  0  0  0  0
 17 44  1  0  0  0  0
 17 45  1  0  0  0  0
 18 23  1  0  0  0  0
 18 19  2  0  0  0  0
 19 20  1  0  0  0  0
 19 46  1  0  0  0  0
 20 21  2  0  0  0  0
 20 47  1  0  0  0  0
 21 22  1  0  0  0  0
 21 48  1  0  0  0  0
 22 23  2  0  0  0  0
 23 49  1  0  0  0  0
 24 25  2  0  0  0  0
M  END
> <s_m_source_file>
AV-unprocessed.smi

> <i_m_source_file_index>
837

> <i_lp_mmshare_version>
43012

> <i_f3d_flags>
0

> <s_epik_input>
W0NIMl0xW0NIMl1bQ0gyXVtDSDJdW0NAQEhdKFtDSDNdKVtDQEBdMTJbTkhdQyg9TylOKEMyPU8pW0NIMl1DKD1PKVtOSF1bQ0gyXVtDSDJdYzNbY0hdW2NIXVtjSF1uW2NIXTM=

> <s_epik_cmdline>
J2VwaWtfcHl0aG9uJywgJy1waCcsICc3LjAnLCAnLXRuJywgJzgnLCAnLW1hJywgJzIwMCcsICctbWV0YWxfYmluZGluZycsICctaW1hZScsICc8aW5maWxlLm1hZT4nLCAnLW9tYWUnLCAnPG91dGZpbGUubWFlPic=

> <r_lp_tautomer_probability>
1

> <r_epik_Ionization_Penalty>
0.0127837

> <r_epik_Ionization_Penalty_Charging>
0

> <r_epik_Ionization_Penalty_Neutral>
0.0127837

> <r_epik_State_Penalty>
0.00987657

> <r_epik_Charging_Adjusted_Penalty>
0.00987657

> <i_epik_Tot_Q>
0

> <i_epik_Tot_abs_Q>
0

> <r_epik_Metal_State_Penalty>
0.0309865

> <b_epik_Metal_Only>
0

> <s_lp_Force_Field>
OPLS_2005

> <r_lp_Energy>
21.3574

> <b_lp_Chiralities_Consistent>
1

> <s_lp_Variant>
AV-unprocessed.smi:837-1

> <Gold.Version>
5.8.1

> <Gold.Id.Protein>
6NUR|6NUR_protein|mol2

> <Gold.PLP.Fitness>
49.9648

> <Gold.PLP.PLP>
-41.0935

> <Gold.PLP.part.hbond>
-4.0000

> <Gold.PLP.part.metal>
0.0000

> <Gold.PLP.part.buried>
-3.3335

> <Gold.PLP.part.nonpolar>
-33.1303

> <Gold.PLP.part.repulsive>
0.2905

> <Gold.PLP.ligand.clash>
0.0000

> <Gold.PLP.ligand.torsion>
0.6644

> <Gold.PLP.Chemscore.Hbond>
2.3873

> <Gold.PLP.Chemscore.CHOScore>
1.0000

> <Gold.PLP.Chemscore.Metal>
0.0000

> <Gold.Chemscore.Hbonds>
donor molecule, donor type, donor heavy atom, donor atom, acceptor molecule, acceptor atom, score
      L1  H    15    41       P1  7948  0.15
      P1  H  7989  7998       L1    25  0.26
      P1  H  7997  8009       L1    25  0.93
      P1  H 10752 10765       L1    14  0.68
      L1  C    23    49       P1  7948  0.55

> <Gold.PLP.Chemscore.Internal.Correction>
0.0382

> <Gold.Rescore>
     Score         DG    S(hbond)    S(metal)    S(lipo)     H(rot)  DE(clash)    DE(int)     intcor
     18.49     -19.38       2.19        0.00      96.89       1.86       0.13       0.76       ----

> <Gold.Chemscore.Fitness>
18.4866

> <Gold.Chemscore.DG>
-19.3751

> <Gold.Chemscore.ZeroCoef>
-5.4800

> <Gold.Chemscore.Hbond>
2.1884

> <Gold.Chemscore.Metal>
0.0000

> <Gold.Chemscore.Lipo>
96.8860

> <Gold.Chemscore.Internal_Hbond>
0.0000

> <Gold.Chemscore.DEClash>
0.1279

> <Gold.Chemscore.DEInternal>
0.7606

> <Gold.Chemscore.Rot>
1.8553

> <Gold.Chemscore.Internal.Correction>
   9.000000E+99

> <Gold.Chemscore.Hbonds>
donor molecule, donor type, donor heavy atom, donor atom, acceptor molecule, acceptor atom, score
      L1  H    15    41       P1  7948  0.15
      P1  H  7989  7998       L1    25  0.02
      P1  H  7997  8009       L1    25  0.58
      P1  H 10752 10765       L1    14  0.67

> <Gold.Chemscore.Hbond.Weighted>
-7.3091

> <Gold.Chemscore.Metal.Weighted>
-0.0000

> <Gold.Chemscore.Lipo.Weighted>
-11.3357

> <Gold.Chemscore.Internal_Hbond.Weighted>
0.0000

> <Gold.Chemscore.DEClash.Weighted>
0.1279

> <Gold.Chemscore.DEInternal.Weighted>
0.7606

> <Gold.Chemscore.Rot.Weighted>
4.7497

> <Gold.Chemscore.Internal.Correction.Weighted>
   9.000000E+99

> <Gold.Protein.RotatedTorsions>
[ 6907 6896 6895 6894 ] final   69.55 input  -60.11 | X-H torsion
[ 7974 7965 7964 7962 ] final   80.08 input  175.53 | X-H torsion
[ 8008 7997 7996 7995 ] final -142.51 input   59.86 | X-H torsion
[ 10167 10162 10161 10158 ] final   -2.59 input  -65.29 | X-H torsion
[ 10718 10713 10712 10709 ] final  -27.79 input   66.30 | X-H torsion
[ 10763 10752 10751 10750 ] final -163.75 input  -60.55 | X-H torsion
[ 11005 11000 10999 10996 ] final   90.46 input  -57.11 | X-H torsion

> <Gold.Protein.ActiveResidues>
 VAL166  LYS551  ARG553  GLY616  TRP617  ASP618  TYR619  PRO620  LYS621  CYS622 
 ASP623  PHE694  ASN695  SER759  ASP760  ASP761  ALA762  ILE779  LEU786  VAL792 
 PHE793  MET794  SER795  GLU796  ALA797  LYS798  CYS799  TRP800  GLU811  SER814 

> <Gold.Protein.RotatedAtoms>
  152.4693  134.4998  159.9721 H   0  0  0  0  0  0  0  0  0  0  0  0  # atno 6907 bound_to 6896
  151.5029  133.3495  159.2880 H   0  0  0  0  0  0  0  0  0  0  0  0  # atno 6908 bound_to 6896
  150.8695  134.8093  159.7205 H   0  0  0  0  0  0  0  0  0  0  0  0  # atno 6909 bound_to 6896
  145.6559  139.2459  143.1950 H   0  0  0  0  0  0  0  0  0  0  0  0  # atno 7974 bound_to 7965
  155.4954  140.0571  157.2947 H   0  0  0  0  0  0  0  0  0  0  0  0  # atno 8008 bound_to 7997
  154.4607  140.1995  156.0203 H   0  0  0  0  0  0  0  0  0  0  0  0  # atno 8009 bound_to 7997
  156.0884  140.3237  155.7788 H   0  0  0  0  0  0  0  0  0  0  0  0  # atno 8010 bound_to 7997
  140.6857  143.6639  150.8243 H   0  0  0  0  0  0  0  0  0  0  0  0  # atno 10167 bound_to 10162
  156.4336  130.4450  149.7100 H   0  0  0  0  0  0  0  0  0  0  0  0  # atno 10718 bound_to 10713
  154.7093  135.3003  154.9221 H   0  0  0  0  0  0  0  0  0  0  0  0  # atno 10763 bound_to 10752
  154.0128  135.6692  153.4770 H   0  0  0  0  0  0  0  0  0  0  0  0  # atno 10764 bound_to 10752
  153.0742  135.5044  154.8282 H   0  0  0  0  0  0  0  0  0  0  0  0  # atno 10765 bound_to 10752
  139.8856  134.8615  156.3288 H   0  0  0  0  0  0  0  0  0  0  0  0  # atno 11005 bound_to 11000
  146.1165  140.7363  142.9478 LP  0  0  0  0  0  0  0  0  0  0  0  0  # atno 17320 bound_to 7965
  144.7106  140.4023  143.7083 LP  0  0  0  0  0  0  0  0  0  0  0  0  # atno 17321 bound_to 7965
  140.0345  143.5409  152.2745 LP  0  0  0  0  0  0  0  0  0  0  0  0  # atno 17342 bound_to 10162
  139.6214  144.7629  151.2733 LP  0  0  0  0  0  0  0  0  0  0  0  0  # atno 17343 bound_to 10162
  156.3993  130.7666  151.2673 LP  0  0  0  0  0  0  0  0  0  0  0  0  # atno 17370 bound_to 10713
  157.7508  131.0244  150.3877 LP  0  0  0  0  0  0  0  0  0  0  0  0  # atno 17371 bound_to 10713
  140.9737  133.7311  156.0571 LP  0  0  0  0  0  0  0  0  0  0  0  0  # atno 17394 bound_to 11000
  140.7838  134.3695  157.5481 LP  0  0  0  0  0  0  0  0  0  0  0  0  # atno 17395 bound_to 11000

$$$$
