AV-unprocessed.smi:3252|AV-procd|sdf|12443|dock5
  -GOLD-   2272018333D 1   1.00000     0.00000
 Structure written by MMmdl.
 36 37  0  0  0  0  0  0  0  0  1 V2000
  153.0699  142.9541  162.4067 C   0  0  0  0  0  0  0  0  0  0  0  0
  153.0042  142.2854  161.0260 C   0  0  0  0  0  0  0  0  0  0  0  0
  152.0272  142.8648  160.1057 N   0  0  0  0  0  0  0  0  0  0  0  0
  152.4992  144.1044  159.4940 C   0  0  0  0  0  0  0  0  0  0  0  0
  151.4748  144.6789  158.5012 C   0  0  0  0  0  0  0  0  0  0  0  0
  151.1648  143.6983  157.5177 O   0  0  0  0  0  0  0  0  0  0  0  0
  150.6359  142.4960  158.0724 C   0  0  1  0  0  0  0  0  0  0  0  0
  150.3228  141.5094  156.9346 C   0  0  0  0  0  0  0  0  0  0  0  0
  149.3932  142.0638  155.9567 N   0  0  0  0  0  0  0  0  0  0  0  0
  148.8198  141.2655  154.9561 C   0  0  0  0  0  0  0  0  0  0  0  0
  149.5056  140.1012  154.5499 C   0  0  0  0  0  0  0  0  0  0  0  0
  148.9394  139.2936  153.5441 C   0  0  0  0  0  0  0  0  0  0  0  0
  147.7083  139.6789  152.9779 C   0  0  0  0  0  0  0  0  0  0  0  0
  147.0828  138.8794  151.9387 C   0  0  0  0  0  0  0  0  0  0  0  0
  146.5849  138.2422  151.1111 N   0  0  0  0  0  0  0  0  0  0  0  0
  147.0994  140.8612  153.4452 C   0  0  0  0  0  0  0  0  0  0  0  0
  147.6393  141.6398  154.4073 N   0  0  0  0  0  0  0  0  0  0  0  0
  151.6791  141.9194  159.0501 C   0  0  0  0  0  0  0  0  0  0  0  0
  153.7358  142.4001  163.0682 H   0  0  0  0  0  0  0  0  0  0  0  0
  152.0864  142.9836  162.8765 H   0  0  0  0  0  0  0  0  0  0  0  0
  153.4483  143.9743  162.3483 H   0  0  0  0  0  0  0  0  0  0  0  0
  153.9953  142.2934  160.5701 H   0  0  0  0  0  0  0  0  0  0  0  0
  152.7566  141.2350  161.1847 H   0  0  0  0  0  0  0  0  0  0  0  0
  152.7000  144.8527  160.2600 H   0  0  0  0  0  0  0  0  0  0  0  0
  153.4423  143.9254  158.9748 H   0  0  0  0  0  0  0  0  0  0  0  0
  150.5646  144.9869  159.0182 H   0  0  0  0  0  0  0  0  0  0  0  0
  151.8784  145.5630  158.0079 H   0  0  0  0  0  0  0  0  0  0  0  0
  149.7178  142.7203  158.6192 H   0  0  0  0  0  0  0  0  0  0  0  0
  151.2391  141.1558  156.4612 H   0  0  0  0  0  0  0  0  0  0  0  0
  149.8426  140.6250  157.3536 H   0  0  0  0  0  0  0  0  0  0  0  0
  149.3699  143.0671  155.8456 H   0  0  0  0  0  0  0  0  0  0  0  0
  150.4487  139.8271  155.0000 H   0  0  0  0  0  0  0  0  0  0  0  0
  149.4458  138.3968  153.2176 H   0  0  0  0  0  0  0  0  0  0  0  0
  146.1558  141.1966  153.0394 H   0  0  0  0  0  0  0  0  0  0  0  0
  152.5768  141.6366  158.4976 H   0  0  0  0  0  0  0  0  0  0  0  0
  151.2865  141.0038  159.4940 H   0  0  0  0  0  0  0  0  0  0  0  0
  1  2  1  0  0  0  0
  1 19  1  0  0  0  0
  1 20  1  0  0  0  0
  1 21  1  0  0  0  0
  2  3  1  0  0  0  0
  2 22  1  0  0  0  0
  2 23  1  0  0  0  0
  3 18  1  0  0  0  0
  3  4  1  0  0  0  0
  4  5  1  0  0  0  0
  4 24  1  0  0  0  0
  4 25  1  0  0  0  0
  5  6  1  0  0  0  0
  5 26  1  0  0  0  0
  5 27  1  0  0  0  0
  6  7  1  0  0  0  0
  7  8  1  0  0  0  0
  7 18  1  0  0  0  0
  7 28  1  0  0  0  0
  8  9  1  0  0  0  0
  8 29  1  0  0  0  0
  8 30  1  0  0  0  0
  9 10  1  0  0  0  0
  9 31  1  0  0  0  0
 10 17  1  0  0  0  0
 10 11  2  0  0  0  0
 11 12  1  0  0  0  0
 11 32  1  0  0  0  0
 12 13  2  0  0  0  0
 12 33  1  0  0  0  0
 13 14  1  0  0  0  0
 13 16  1  0  0  0  0
 14 15  3  0  0  0  0
 16 17  2  0  0  0  0
 16 34  1  0  0  0  0
 18 35  1  0  0  0  0
 18 36  1  0  0  0  0
M  END
> <s_m_source_file>
AV-unprocessed.smi

> <i_m_source_file_index>
3252

> <i_lp_mmshare_version>
43012

> <i_f3d_flags>
0

> <s_epik_input>
W0NIM11bQ0gyXU4xW0NIMl1bQ0gyXU9bQ0BIXShbQ0gyXTEpW0NIMl1bTkhdYzJbY0hdW2NIXWMoQyNOKVtjSF1uMg==

> <s_epik_cmdline>
J2VwaWtfcHl0aG9uJywgJy1waCcsICc3LjAnLCAnLXRuJywgJzgnLCAnLW1hJywgJzIwMCcsICctbWV0YWxfYmluZGluZycsICctaW1hZScsICc8aW5maWxlLm1hZT4nLCAnLW9tYWUnLCAnPG91dGZpbGUubWFlPic=

> <r_epik_Ionization_Penalty>
0.797836

> <r_epik_Ionization_Penalty_Charging>
0

> <r_epik_Ionization_Penalty_Neutral>
0.797836

> <r_epik_State_Penalty>
0.828842

> <r_epik_Charging_Adjusted_Penalty>
0.828842

> <i_epik_Tot_Q>
0

> <i_epik_Tot_abs_Q>
0

> <r_epik_Metal_State_Penalty>
0.828842

> <b_epik_Metal_Only>
0

> <s_lp_Force_Field>
OPLS_2005

> <r_lp_Energy>
23.221

> <b_lp_Chiralities_Consistent>
1

> <s_lp_Variant>
AV-unprocessed.smi:3252-5

> <Gold.Version>
5.8.1

> <Gold.Id.Protein>
6NUR|6NUR_protein|mol2

> <Gold.PLP.Fitness>
43.1381

> <Gold.PLP.PLP>
-35.6804

> <Gold.PLP.part.hbond>
-2.0000

> <Gold.PLP.part.metal>
0.0000

> <Gold.PLP.part.buried>
2.4578

> <Gold.PLP.part.nonpolar>
-38.4809

> <Gold.PLP.part.repulsive>
1.7227

> <Gold.PLP.ligand.clash>
0.0000

> <Gold.PLP.ligand.torsion>
0.3625

> <Gold.PLP.Chemscore.Hbond>
2.0000

> <Gold.PLP.Chemscore.CHOScore>
0.7240

> <Gold.PLP.Chemscore.Metal>
0.0000

> <Gold.Chemscore.Hbonds>
donor molecule, donor type, donor heavy atom, donor atom, acceptor molecule, acceptor atom, score
      L1  H     9    31       P1  8028  1.00
      P1  H  7954  7966       L1    15  1.00
      L1  C    16    34       P1 10175  0.72

> <Gold.PLP.Chemscore.Internal.Correction>
0.0109

> <Gold.Rescore>
     Score         DG    S(hbond)    S(metal)    S(lipo)     H(rot)  DE(clash)    DE(int)     intcor
     15.53     -16.11       0.99        0.00      93.89       1.43       0.03       0.56       ----

> <Gold.Chemscore.Fitness>
15.5331

> <Gold.Chemscore.DG>
-16.1148

> <Gold.Chemscore.ZeroCoef>
-5.4800

> <Gold.Chemscore.Hbond>
0.9937

> <Gold.Chemscore.Metal>
0.0000

> <Gold.Chemscore.Lipo>
93.8852

> <Gold.Chemscore.Internal_Hbond>
0.0000

> <Gold.Chemscore.DEClash>
0.0252

> <Gold.Chemscore.DEInternal>
0.5564

> <Gold.Chemscore.Rot>
1.4331

> <Gold.Chemscore.Internal.Correction>
   9.000000E+99

> <Gold.Chemscore.Hbonds>
donor molecule, donor type, donor heavy atom, donor atom, acceptor molecule, acceptor atom, score
      L1  H     9    31       P1  8028  1.00
      P1  H  7954  7966       L1    15  0.28

> <Gold.Chemscore.Hbond.Weighted>
-3.3190

> <Gold.Chemscore.Metal.Weighted>
-0.0000

> <Gold.Chemscore.Lipo.Weighted>
-10.9846

> <Gold.Chemscore.Internal_Hbond.Weighted>
0.0000

> <Gold.Chemscore.DEClash.Weighted>
0.0252

> <Gold.Chemscore.DEInternal.Weighted>
0.5564

> <Gold.Chemscore.Rot.Weighted>
3.6688

> <Gold.Chemscore.Internal.Correction.Weighted>
   9.000000E+99

> <Gold.Protein.RotatedTorsions>
[ 6907 6896 6895 6894 ] final -105.87 input  -60.11 | X-H torsion
[ 7974 7965 7964 7962 ] final -123.53 input  175.53 | X-H torsion
[ 8008 7997 7996 7995 ] final    7.62 input   59.86 | X-H torsion
[ 10167 10162 10161 10158 ] final  156.14 input  -65.29 | X-H torsion
[ 10718 10713 10712 10709 ] final  -95.31 input   66.30 | X-H torsion
[ 10763 10752 10751 10750 ] final  -22.05 input  -60.55 | X-H torsion
[ 11005 11000 10999 10996 ] final -117.93 input  -57.11 | X-H torsion

> <Gold.Protein.ActiveResidues>
 VAL166  LYS551  ARG553  GLY616  TRP617  ASP618  TYR619  PRO620  LYS621  CYS622 
 ASP623  PHE694  ASN695  SER759  ASP760  ASP761  ALA762  ILE779  LEU786  VAL792 
 PHE793  MET794  SER795  GLU796  ALA797  LYS798  CYS799  TRP800  GLU811  SER814 

> <Gold.Protein.RotatedAtoms>
  150.7359  134.0061  159.3653 H   0  0  0  0  0  0  0  0  0  0  0  0  # atno 6907 bound_to 6896
  151.8018  135.0704  160.0410 H   0  0  0  0  0  0  0  0  0  0  0  0  # atno 6908 bound_to 6896
  152.3135  133.5741  159.5733 H   0  0  0  0  0  0  0  0  0  0  0  0  # atno 6909 bound_to 6896
  145.0178  140.7961  143.4399 H   0  0  0  0  0  0  0  0  0  0  0  0  # atno 7974 bound_to 7965
  154.7562  140.2776  155.6251 H   0  0  0  0  0  0  0  0  0  0  0  0  # atno 8008 bound_to 7997
  156.2906  140.2669  156.2256 H   0  0  0  0  0  0  0  0  0  0  0  0  # atno 8009 bound_to 7997
  155.0074  140.0372  157.2375 H   0  0  0  0  0  0  0  0  0  0  0  0  # atno 8010 bound_to 7997
  139.4821  144.5035  151.8132 H   0  0  0  0  0  0  0  0  0  0  0  0  # atno 10167 bound_to 10162
  156.0041  130.5104  150.6058 H   0  0  0  0  0  0  0  0  0  0  0  0  # atno 10718 bound_to 10713
  153.6457  135.6983  153.5226 H   0  0  0  0  0  0  0  0  0  0  0  0  # atno 10763 bound_to 10752
  153.2746  135.4204  155.1020 H   0  0  0  0  0  0  0  0  0  0  0  0  # atno 10764 bound_to 10752
  154.8489  135.3587  154.6002 H   0  0  0  0  0  0  0  0  0  0  0  0  # atno 10765 bound_to 10752
  141.0321  133.9966  157.3128 H   0  0  0  0  0  0  0  0  0  0  0  0  # atno 11005 bound_to 11000
  145.1937  139.2288  143.5229 LP  0  0  0  0  0  0  0  0  0  0  0  0  # atno 17320 bound_to 7965
  146.3480  140.1738  142.8589 LP  0  0  0  0  0  0  0  0  0  0  0  0  # atno 17321 bound_to 7965
  140.4531  144.1827  150.5899 LP  0  0  0  0  0  0  0  0  0  0  0  0  # atno 17342 bound_to 10162
  140.4564  143.2466  151.9279 LP  0  0  0  0  0  0  0  0  0  0  0  0  # atno 17343 bound_to 10162
  157.3899  131.0794  151.1403 LP  0  0  0  0  0  0  0  0  0  0  0  0  # atno 17370 bound_to 10713
  157.2098  130.6432  149.5770 LP  0  0  0  0  0  0  0  0  0  0  0  0  # atno 17371 bound_to 10713
  139.9215  135.0200  156.8080 LP  0  0  0  0  0  0  0  0  0  0  0  0  # atno 17394 bound_to 11000
  140.6389  133.9837  155.7698 LP  0  0  0  0  0  0  0  0  0  0  0  0  # atno 17395 bound_to 11000

$$$$
