AV-unprocessed.smi:1887|AV-procd|sdf|7656|dock5
  -GOLD-   22720 9393D 1   1.00000     0.00000
 Structure written by MMmdl.
 43 45  0  0  0  0  0  0  0  0  2 V2000
  155.7185  140.9584  160.1284 C   0  0  0  0  0  0  0  0  0  0  0  0
  155.2845  139.8829  159.3165 O   0  0  0  0  0  0  0  0  0  0  0  0
  154.5505  138.9109  160.0422 C   0  0  0  0  0  0  0  0  0  0  0  0
  153.1233  139.4205  160.2855 C   0  0  0  0  0  0  0  0  0  0  0  0
  152.3605  139.5320  159.0442 N   0  0  0  0  0  0  0  0  0  0  0  0
  151.7620  140.6362  158.5275 C   0  0  0  0  0  0  0  0  0  0  0  0
  151.8258  141.8856  159.1791 N   0  0  0  0  0  0  0  0  0  0  0  0
  152.1138  141.9478  160.4958 N   0  0  0  0  0  0  0  0  0  0  0  0
  152.0831  143.2364  160.7897 C   0  0  0  0  0  0  0  0  0  0  0  0
  152.3823  143.6681  162.1964 C   0  0  0  0  0  0  0  0  0  0  0  0
  151.7553  144.0441  159.6613 C   0  0  0  0  0  0  0  0  0  0  0  0
  151.6251  145.5419  159.6143 C   0  0  0  0  0  0  0  0  0  0  0  0
  151.5907  143.1401  158.6465 C   0  0  0  0  0  0  0  0  0  0  0  0
  151.2290  143.3523  157.2100 C   0  0  0  0  0  0  0  0  0  0  0  0
  151.1484  140.4508  157.3572 N   0  0  0  0  0  0  0  0  0  0  0  0
  151.3730  139.1046  157.1074 C   0  0  0  0  0  0  0  0  0  0  0  0
  152.1045  138.5323  158.1019 C   0  0  0  0  0  0  0  0  0  0  0  0
  152.5242  137.1142  158.1056 C   0  0  0  0  0  0  0  0  0  0  0  0
  153.1940  136.6531  159.0277 O   0  0  0  0  0  0  0  0  0  0  0  0
  152.0856  136.4432  156.9936 N   0  5  0  0  0  0  0  0  0  0  0  0
  151.3433  136.9804  155.9636 C   0  0  0  0  0  0  0  0  0  0  0  0
  150.9947  136.3063  154.9935 O   0  0  0  0  0  0  0  0  0  0  0  0
  150.9767  138.3005  156.0039 N   0  0  0  0  0  0  0  0  0  0  0  0
  150.1896  138.8987  154.9220 C   0  0  0  0  0  0  0  0  0  0  0  0
  156.2710  141.6742  159.5200 H   0  0  0  0  0  0  0  0  0  0  0  0
  156.3801  140.6098  160.9223 H   0  0  0  0  0  0  0  0  0  0  0  0
  154.8728  141.4796  160.5786 H   0  0  0  0  0  0  0  0  0  0  0  0
  154.5247  137.9707  159.4896 H   0  0  0  0  0  0  0  0  0  0  0  0
  155.0401  138.7140  160.9968 H   0  0  0  0  0  0  0  0  0  0  0  0
  152.5926  138.7619  160.9717 H   0  0  0  0  0  0  0  0  0  0  0  0
  153.1596  140.3867  160.7859 H   0  0  0  0  0  0  0  0  0  0  0  0
  152.0809  144.7008  162.3704 H   0  0  0  0  0  0  0  0  0  0  0  0
  153.4491  143.5946  162.4078 H   0  0  0  0  0  0  0  0  0  0  0  0
  151.8552  143.0461  162.9203 H   0  0  0  0  0  0  0  0  0  0  0  0
  151.1022  145.8815  158.7202 H   0  0  0  0  0  0  0  0  0  0  0  0
  152.6007  146.0279  159.6203 H   0  0  0  0  0  0  0  0  0  0  0  0
  151.0685  145.9257  160.4691 H   0  0  0  0  0  0  0  0  0  0  0  0
  151.5677  144.3277  156.8618 H   0  0  0  0  0  0  0  0  0  0  0  0
  150.1487  143.3009  157.0751 H   0  0  0  0  0  0  0  0  0  0  0  0
  151.6836  142.5996  156.5658 H   0  0  0  0  0  0  0  0  0  0  0  0
  149.2620  138.3452  154.7693 H   0  0  0  0  0  0  0  0  0  0  0  0
  150.7543  138.8829  153.9890 H   0  0  0  0  0  0  0  0  0  0  0  0
  149.9169  139.9346  155.1233 H   0  0  0  0  0  0  0  0  0  0  0  0
  1  2  1  0  0  0  0
  1 25  1  0  0  0  0
  1 26  1  0  0  0  0
  1 27  1  0  0  0  0
  2  3  1  0  0  0  0
  3  4  1  0  0  0  0
  3 28  1  0  0  0  0
  3 29  1  0  0  0  0
  4  5  1  0  0  0  0
  4 30  1  0  0  0  0
  4 31  1  0  0  0  0
  5 17  1  0  0  0  0
  5  6  1  0  0  0  0
  6  7  1  0  0  0  0
  6 15  2  0  0  0  0
  7 13  1  0  0  0  0
  7  8  1  0  0  0  0
  8  9  2  0  0  0  0
  9 10  1  0  0  0  0
  9 11  1  0  0  0  0
 10 32  1  0  0  0  0
 10 33  1  0  0  0  0
 10 34  1  0  0  0  0
 11 12  1  0  0  0  0
 11 13  2  0  0  0  0
 12 35  1  0  0  0  0
 12 36  1  0  0  0  0
 12 37  1  0  0  0  0
 13 14  1  0  0  0  0
 14 38  1  0  0  0  0
 14 39  1  0  0  0  0
 14 40  1  0  0  0  0
 15 16  1  0  0  0  0
 16 23  1  0  0  0  0
 16 17  2  0  0  0  0
 17 18  1  0  0  0  0
 18 19  2  0  0  0  0
 18 20  1  0  0  0  0
 20 21  1  0  0  0  0
 21 22  2  0  0  0  0
 21 23  1  0  0  0  0
 23 24  1  0  0  0  0
 24 41  1  0  0  0  0
 24 42  1  0  0  0  0
 24 43  1  0  0  0  0
M  CHG  1  20  -1
M  END
> <s_m_source_file>
AV-unprocessed.smi

> <i_m_source_file_index>
1887

> <i_lp_mmshare_version>
43012

> <i_f3d_flags>
0

> <s_epik_input>
W0NIM11uMWMoPU8pW25IXWMoPU8pYyhjMTIpbihbQ0gyXVtDSDJdT1tDSDNdKWMobjIpLW4zbmMoW0NIM10pYyhbQ0gzXSljM1tDSDNd

> <s_epik_cmdline>
J2VwaWtfcHl0aG9uJywgJy1waCcsICc3LjAnLCAnLXRuJywgJzgnLCAnLW1hJywgJzIwMCcsICctbWV0YWxfYmluZGluZycsICctaW1hZScsICc8aW5maWxlLm1hZT4nLCAnLW9tYWUnLCAnPG91dGZpbGUubWFlPic=

> <r_lp_tautomer_probability>
1

> <r_epik_Ionization_Penalty>
3.98818

> <r_epik_Ionization_Penalty_Charging>
0.0180637

> <r_epik_Ionization_Penalty_Neutral>
3.97012

> <r_epik_State_Penalty>
3.96767

> <r_epik_Charging_Adjusted_Penalty>
3.98573

> <i_epik_Tot_Q>
-1

> <i_epik_Tot_abs_Q>
1

> <r_epik_Metal_State_Penalty>
0.612715

> <b_epik_Metal_Only>
1

> <s_lp_Force_Field>
OPLS_2005

> <r_lp_Energy>
28.3599

> <b_lp_Chiralities_Consistent>
1

> <s_lp_Variant>
AV-unprocessed.smi:1887-2

> <Gold.Version>
5.8.1

> <Gold.Id.Protein>
6NUR|6NUR_protein|mol2

> <Gold.PLP.Fitness>
44.8723

> <Gold.PLP.PLP>
-40.9441

> <Gold.PLP.part.hbond>
-3.5079

> <Gold.PLP.part.metal>
0.0000

> <Gold.PLP.part.buried>
-7.1712

> <Gold.PLP.part.nonpolar>
-31.9190

> <Gold.PLP.part.repulsive>
0.1647

> <Gold.PLP.ligand.clash>
0.7408

> <Gold.PLP.ligand.torsion>
0.2482

> <Gold.PLP.Chemscore.Hbond>
1.5834

> <Gold.PLP.Chemscore.CHOScore>
0.0000

> <Gold.PLP.Chemscore.Metal>
0.0000

> <Gold.Chemscore.Hbonds>
donor molecule, donor type, donor heavy atom, donor atom, acceptor molecule, acceptor atom, score
      P1  H  6896  6908       L1    19  0.19
      P1  H  7997  8010       L1     2  0.99
      P1  H 10752 10764       L1    22  0.52

> <Gold.PLP.Chemscore.Internal.Correction>
0.4152

> <Gold.Rescore>
     Score         DG    S(hbond)    S(metal)    S(lipo)     H(rot)  DE(clash)    DE(int)     intcor
     14.33     -17.69       1.54        0.00      92.81       1.48       0.09       3.28       ----

> <Gold.Chemscore.Fitness>
14.3265

> <Gold.Chemscore.DG>
-17.6910

> <Gold.Chemscore.ZeroCoef>
-5.4800

> <Gold.Chemscore.Hbond>
1.5416

> <Gold.Chemscore.Metal>
0.0000

> <Gold.Chemscore.Lipo>
92.8105

> <Gold.Chemscore.Internal_Hbond>
0.0000

> <Gold.Chemscore.DEClash>
0.0884

> <Gold.Chemscore.DEInternal>
3.2761

> <Gold.Chemscore.Rot>
1.4832

> <Gold.Chemscore.Internal.Correction>
   9.000000E+99

> <Gold.Chemscore.Hbonds>
donor molecule, donor type, donor heavy atom, donor atom, acceptor molecule, acceptor atom, score
      P1  H  6896  6908       L1    19  0.18
      P1  H  7997  8010       L1     2  0.88
      P1  H 10752 10764       L1    22  0.04

> <Gold.Chemscore.Hbond.Weighted>
-5.1491

> <Gold.Chemscore.Metal.Weighted>
-0.0000

> <Gold.Chemscore.Lipo.Weighted>
-10.8588

> <Gold.Chemscore.Internal_Hbond.Weighted>
0.0000

> <Gold.Chemscore.DEClash.Weighted>
0.0884

> <Gold.Chemscore.DEInternal.Weighted>
3.2761

> <Gold.Chemscore.Rot.Weighted>
3.7970

> <Gold.Chemscore.Internal.Correction.Weighted>
   9.000000E+99

> <Gold.Protein.RotatedTorsions>
[ 6907 6896 6895 6894 ] final  -58.86 input  -60.11 | X-H torsion
[ 7974 7965 7964 7962 ] final  -57.20 input  175.53 | X-H torsion
[ 8008 7997 7996 7995 ] final  -25.62 input   59.86 | X-H torsion
[ 10167 10162 10161 10158 ] final -128.85 input  -65.29 | X-H torsion
[ 10718 10713 10712 10709 ] final  -90.93 input   66.30 | X-H torsion
[ 10763 10752 10751 10750 ] final  -53.96 input  -60.55 | X-H torsion
[ 11005 11000 10999 10996 ] final -144.26 input  -57.11 | X-H torsion

> <Gold.Protein.ActiveResidues>
 VAL166  LYS551  ARG553  GLY616  TRP617  ASP618  TYR619  PRO620  LYS621  CYS622 
 ASP623  PHE694  ASN695  SER759  ASP760  ASP761  ALA762  ILE779  LEU786  VAL792 
 PHE793  MET794  SER795  GLU796  ALA797  LYS798  CYS799  TRP800  GLU811  SER814 

> <Gold.Protein.RotatedAtoms>
  150.7974  134.7044  159.6567 H   0  0  0  0  0  0  0  0  0  0  0  0  # atno 6907 bound_to 6896
  152.4088  134.6157  160.0047 H   0  0  0  0  0  0  0  0  0  0  0  0  # atno 6908 bound_to 6896
  151.6406  133.3289  159.3165 H   0  0  0  0  0  0  0  0  0  0  0  0  # atno 6909 bound_to 6896
  145.8538  140.8334  142.9972 H   0  0  0  0  0  0  0  0  0  0  0  0  # atno 7974 bound_to 7965
  154.4466  140.1921  156.0648 H   0  0  0  0  0  0  0  0  0  0  0  0  # atno 8008 bound_to 7997
  156.0556  140.3303  155.7374 H   0  0  0  0  0  0  0  0  0  0  0  0  # atno 8009 bound_to 7997
  155.5491  140.0593  157.2844 H   0  0  0  0  0  0  0  0  0  0  0  0  # atno 8010 bound_to 7997
  139.9460  143.6110  152.2490 H   0  0  0  0  0  0  0  0  0  0  0  0  # atno 10167 bound_to 10162
  155.9990  130.4928  150.5398 H   0  0  0  0  0  0  0  0  0  0  0  0  # atno 10718 bound_to 10713
  154.1671  135.6465  153.5000 H   0  0  0  0  0  0  0  0  0  0  0  0  # atno 10763 bound_to 10752
  153.0094  135.5374  154.6651 H   0  0  0  0  0  0  0  0  0  0  0  0  # atno 10764 bound_to 10752
  154.5980  135.2941  155.0538 H   0  0  0  0  0  0  0  0  0  0  0  0  # atno 10765 bound_to 10752
  140.8043  134.2820  157.4966 H   0  0  0  0  0  0  0  0  0  0  0  0  # atno 11005 bound_to 11000
  144.6728  140.0993  143.7461 LP  0  0  0  0  0  0  0  0  0  0  0  0  # atno 17320 bound_to 7965
  145.9327  139.2617  143.1315 LP  0  0  0  0  0  0  0  0  0  0  0  0  # atno 17321 bound_to 7965
  139.6667  144.7662  151.1861 LP  0  0  0  0  0  0  0  0  0  0  0  0  # atno 17342 bound_to 10162
  140.7597  143.5928  150.8779 LP  0  0  0  0  0  0  0  0  0  0  0  0  # atno 17343 bound_to 10162
  157.3336  131.0704  151.1842 LP  0  0  0  0  0  0  0  0  0  0  0  0  # atno 17370 bound_to 10713
  157.2715  130.6706  149.6021 LP  0  0  0  0  0  0  0  0  0  0  0  0  # atno 17371 bound_to 10713
  139.8719  134.9447  156.3888 LP  0  0  0  0  0  0  0  0  0  0  0  0  # atno 17394 bound_to 11000
  140.9263  133.7610  155.9969 LP  0  0  0  0  0  0  0  0  0  0  0  0  # atno 17395 bound_to 11000

$$$$
