AV-unprocessed.smi:707|AV-procd|sdf|3455|dock5
  -GOLD-   22720 0443D 1   1.00000     0.00000
 Structure written by MMmdl.
 44 45  0  0  0  0  0  0  0  0  1 V2000
  145.0802  139.9750  156.3553 C   0  0  0  0  0  0  0  0  0  0  0  0
  145.7018  140.8859  157.3637 C   0  0  0  0  0  0  0  0  0  0  0  0
  145.9354  140.5395  158.6350 N   0  0  0  0  0  0  0  0  0  0  0  0
  146.5126  141.6486  159.2217 N   0  0  0  0  0  0  0  0  0  0  0  0
  146.5689  142.5535  158.2452 C   0  0  0  0  0  0  0  0  0  0  0  0
  146.0800  142.1452  157.0643 N   0  0  0  0  0  0  0  0  0  0  0  0
  145.9975  142.8815  155.8166 C   0  0  0  0  0  0  0  0  0  0  0  0
  146.9348  142.2957  154.7522 C   0  0  0  0  0  0  0  0  0  0  0  0
  148.3242  142.4302  155.1652 N   0  0  0  0  0  0  0  0  0  0  0  0
  149.0694  141.4306  155.6586 C   0  0  0  0  0  0  0  0  0  0  0  0
  148.6487  140.2838  155.8084 O   0  0  0  0  0  0  0  0  0  0  0  0
  150.5135  141.7693  156.0237 C   0  0  0  0  0  0  0  0  0  0  0  0
  150.8361  141.1473  157.2607 O   0  0  0  0  0  0  0  0  0  0  0  0
  151.8953  141.7724  157.9741 C   0  0  2  0  0  0  0  0  0  0  0  0
  152.2910  140.9444  159.2138 C   0  0  0  0  0  0  0  0  0  0  0  0
  153.3426  141.6783  160.0602 C   0  0  0  0  0  0  0  0  0  0  0  0
  152.8576  143.0792  160.4650 C   0  0  0  0  0  0  0  0  0  0  0  0
  152.4612  143.9168  159.2341 C   0  0  2  0  0  0  0  0  0  0  0  0
  151.9709  145.3140  159.6399 C   0  0  0  0  0  0  0  0  0  0  0  0
  151.4063  143.1699  158.3943 C   0  0  0  0  0  0  0  0  0  0  0  0
  144.9072  138.9891  156.7876 H   0  0  0  0  0  0  0  0  0  0  0  0
  145.7359  139.8621  155.4920 H   0  0  0  0  0  0  0  0  0  0  0  0
  144.1243  140.3796  156.0225 H   0  0  0  0  0  0  0  0  0  0  0  0
  146.9791  143.5414  158.3953 H   0  0  0  0  0  0  0  0  0  0  0  0
  144.9638  142.8702  155.4688 H   0  0  0  0  0  0  0  0  0  0  0  0
  146.2518  143.9240  156.0142 H   0  0  0  0  0  0  0  0  0  0  0  0
  146.7097  141.2402  154.5912 H   0  0  0  0  0  0  0  0  0  0  0  0
  146.7857  142.8061  153.7993 H   0  0  0  0  0  0  0  0  0  0  0  0
  148.7483  143.3426  155.0775 H   0  0  0  0  0  0  0  0  0  0  0  0
  151.1762  141.4301  155.2273 H   0  0  0  0  0  0  0  0  0  0  0  0
  150.6138  142.8528  156.1029 H   0  0  0  0  0  0  0  0  0  0  0  0
  152.7606  141.8959  157.3200 H   0  0  0  0  0  0  0  0  0  0  0  0
  151.4064  140.7483  159.8212 H   0  0  0  0  0  0  0  0  0  0  0  0
  152.6854  139.9720  158.9201 H   0  0  0  0  0  0  0  0  0  0  0  0
  153.5753  141.0944  160.9512 H   0  0  0  0  0  0  0  0  0  0  0  0
  154.2714  141.7626  159.4946 H   0  0  0  0  0  0  0  0  0  0  0  0
  152.0051  142.9870  161.1394 H   0  0  0  0  0  0  0  0  0  0  0  0
  153.6415  143.5884  161.0267 H   0  0  0  0  0  0  0  0  0  0  0  0
  153.3508  144.0485  158.6162 H   0  0  0  0  0  0  0  0  0  0  0  0
  151.0760  145.2559  160.2603 H   0  0  0  0  0  0  0  0  0  0  0  0
  151.7300  145.9152  158.7628 H   0  0  0  0  0  0  0  0  0  0  0  0
  152.7341  145.8491  160.2058 H   0  0  0  0  0  0  0  0  0  0  0  0
  151.1605  143.7517  157.5053 H   0  0  0  0  0  0  0  0  0  0  0  0
  150.4818  143.0764  158.9663 H   0  0  0  0  0  0  0  0  0  0  0  0
  1  2  1  0  0  0  0
  1 21  1  0  0  0  0
  1 22  1  0  0  0  0
  1 23  1  0  0  0  0
  2  6  1  0  0  0  0
  2  3  2  0  0  0  0
  3  4  1  0  0  0  0
  4  5  2  0  0  0  0
  5  6  1  0  0  0  0
  5 24  1  0  0  0  0
  6  7  1  0  0  0  0
  7  8  1  0  0  0  0
  7 25  1  0  0  0  0
  7 26  1  0  0  0  0
  8  9  1  0  0  0  0
  8 27  1  0  0  0  0
  8 28  1  0  0  0  0
  9 10  1  0  0  0  0
  9 29  1  0  0  0  0
 10 11  2  0  0  0  0
 10 12  1  0  0  0  0
 12 13  1  0  0  0  0
 12 30  1  0  0  0  0
 12 31  1  0  0  0  0
 13 14  1  0  0  0  0
 14 20  1  0  0  0  0
 14 15  1  0  0  0  0
 14 32  1  0  0  0  0
 15 16  1  0  0  0  0
 15 33  1  0  0  0  0
 15 34  1  0  0  0  0
 16 17  1  0  0  0  0
 16 35  1  0  0  0  0
 16 36  1  0  0  0  0
 17 18  1  0  0  0  0
 17 37  1  0  0  0  0
 17 38  1  0  0  0  0
 18 19  1  0  0  0  0
 18 20  1  0  0  0  0
 18 39  1  0  0  0  0
 19 40  1  0  0  0  0
 19 41  1  0  0  0  0
 19 42  1  0  0  0  0
 20 43  1  0  0  0  0
 20 44  1  0  0  0  0
M  END
> <s_m_source_file>
AV-unprocessed.smi

> <i_m_source_file_index>
707

> <i_lp_mmshare_version>
43012

> <i_f3d_flags>
0

> <s_epik_input>
W0NIM11jMW5uW2NIXW4xW0NIMl1bQ0gyXVtOSF1DKD1PKVtDSDJdT1tDQEBIXTJbQ0gyXVtDSDJdW0NIMl1bQ0BASF0oW0NIM10pW0NIMl0y

> <s_epik_cmdline>
J2VwaWtfcHl0aG9uJywgJy1waCcsICc3LjAnLCAnLXRuJywgJzgnLCAnLW1hJywgJzIwMCcsICctbWV0YWxfYmluZGluZycsICctaW1hZScsICc8aW5maWxlLm1hZT4nLCAnLW9tYWUnLCAnPG91dGZpbGUubWFlPic=

> <r_lp_tautomer_probability>
1

> <r_epik_Ionization_Penalty>
0.000271783

> <r_epik_Ionization_Penalty_Charging>
0

> <r_epik_Ionization_Penalty_Neutral>
0.000271783

> <r_epik_State_Penalty>
-0

> <r_epik_Charging_Adjusted_Penalty>
0

> <i_epik_Tot_Q>
0

> <i_epik_Tot_abs_Q>
0

> <r_epik_Metal_State_Penalty>
-0

> <b_epik_Metal_Only>
0

> <s_lp_Force_Field>
OPLS_2005

> <r_lp_Energy>
13.3138

> <b_lp_Chiralities_Consistent>
1

> <s_lp_Variant>
AV-unprocessed.smi:707-3

> <Gold.Version>
5.8.1

> <Gold.Id.Protein>
6NUR|6NUR_protein|mol2

> <Gold.PLP.Fitness>
44.2662

> <Gold.PLP.PLP>
-39.2152

> <Gold.PLP.part.hbond>
-2.6021

> <Gold.PLP.part.metal>
0.0000

> <Gold.PLP.part.buried>
-6.1260

> <Gold.PLP.part.nonpolar>
-31.2648

> <Gold.PLP.part.repulsive>
0.2704

> <Gold.PLP.ligand.clash>
0.0000

> <Gold.PLP.ligand.torsion>
0.5604

> <Gold.PLP.Chemscore.Hbond>
1.2778

> <Gold.PLP.Chemscore.CHOScore>
0.7483

> <Gold.PLP.Chemscore.Metal>
0.0000

> <Gold.Chemscore.Hbonds>
donor molecule, donor type, donor heavy atom, donor atom, acceptor molecule, acceptor atom, score
      L1  H     9    29       P1  8028  0.83
      P1  H  6934  6946       L1     4  0.60
      L1  C     5    24       P1  8029  0.36

> <Gold.PLP.Chemscore.Internal.Correction>
0.0937

> <Gold.Rescore>
     Score         DG    S(hbond)    S(metal)    S(lipo)     H(rot)  DE(clash)    DE(int)     intcor
     15.45     -15.95       1.65        0.00      95.26       2.42       0.07       0.44       ----

> <Gold.Chemscore.Fitness>
15.4472

> <Gold.Chemscore.DG>
-15.9525

> <Gold.Chemscore.ZeroCoef>
-5.4800

> <Gold.Chemscore.Hbond>
1.6528

> <Gold.Chemscore.Metal>
0.0000

> <Gold.Chemscore.Lipo>
95.2567

> <Gold.Chemscore.Internal_Hbond>
0.0000

> <Gold.Chemscore.DEClash>
0.0650

> <Gold.Chemscore.DEInternal>
0.4403

> <Gold.Chemscore.Rot>
2.4191

> <Gold.Chemscore.Internal.Correction>
   9.000000E+99

> <Gold.Chemscore.Hbonds>
donor molecule, donor type, donor heavy atom, donor atom, acceptor molecule, acceptor atom, score
      L1  H     9    29       P1  8028  0.78
      P1  H  6934  6946       L1     4  0.07

> <Gold.Chemscore.Hbond.Weighted>
-5.5204

> <Gold.Chemscore.Metal.Weighted>
-0.0000

> <Gold.Chemscore.Lipo.Weighted>
-11.1450

> <Gold.Chemscore.Internal_Hbond.Weighted>
0.0000

> <Gold.Chemscore.DEClash.Weighted>
0.0650

> <Gold.Chemscore.DEInternal.Weighted>
0.4403

> <Gold.Chemscore.Rot.Weighted>
6.1929

> <Gold.Chemscore.Internal.Correction.Weighted>
   9.000000E+99

> <Gold.Protein.RotatedTorsions>
[ 6907 6896 6895 6894 ] final   43.12 input  -60.11 | X-H torsion
[ 7974 7965 7964 7962 ] final  161.67 input  175.53 | X-H torsion
[ 8008 7997 7996 7995 ] final  -25.58 input   59.86 | X-H torsion
[ 10167 10162 10161 10158 ] final   25.65 input  -65.29 | X-H torsion
[ 10718 10713 10712 10709 ] final -101.29 input   66.30 | X-H torsion
[ 10763 10752 10751 10750 ] final   18.77 input  -60.55 | X-H torsion
[ 11005 11000 10999 10996 ] final  -59.63 input  -57.11 | X-H torsion

> <Gold.Protein.ActiveResidues>
 VAL166  LYS551  ARG553  GLY616  TRP617  ASP618  TYR619  PRO620  LYS621  CYS622 
 ASP623  PHE694  ASN695  SER759  ASP760  ASP761  ALA762  ILE779  LEU786  VAL792 
 PHE793  MET794  SER795  GLU796  ALA797  LYS798  CYS799  TRP800  GLU811  SER814 

> <Gold.Protein.RotatedAtoms>
  152.2164  134.8454  160.0491 H   0  0  0  0  0  0  0  0  0  0  0  0  # atno 6907 bound_to 6896
  151.9254  133.3591  159.3920 H   0  0  0  0  0  0  0  0  0  0  0  0  # atno 6908 bound_to 6896
  150.6989  134.4517  159.5383 H   0  0  0  0  0  0  0  0  0  0  0  0  # atno 6909 bound_to 6896
  144.7674  139.7930  143.6310 H   0  0  0  0  0  0  0  0  0  0  0  0  # atno 7974 bound_to 7965
  154.4468  140.1922  156.0641 H   0  0  0  0  0  0  0  0  0  0  0  0  # atno 8008 bound_to 7997
  156.0560  140.3302  155.7379 H   0  0  0  0  0  0  0  0  0  0  0  0  # atno 8009 bound_to 7997
  155.5484  140.0592  157.2846 H   0  0  0  0  0  0  0  0  0  0  0  0  # atno 8010 bound_to 7997
  140.5088  144.0194  150.6364 H   0  0  0  0  0  0  0  0  0  0  0  0  # atno 10167 bound_to 10162
  156.0190  130.5367  150.6942 H   0  0  0  0  0  0  0  0  0  0  0  0  # atno 10718 bound_to 10713
  153.1220  135.6721  153.9320 H   0  0  0  0  0  0  0  0  0  0  0  0  # atno 10763 bound_to 10752
  153.8833  135.3055  155.3447 H   0  0  0  0  0  0  0  0  0  0  0  0  # atno 10764 bound_to 10752
  154.7630  135.4978  153.9580 H   0  0  0  0  0  0  0  0  0  0  0  0  # atno 10765 bound_to 10752
  141.1256  133.6617  156.5101 H   0  0  0  0  0  0  0  0  0  0  0  0  # atno 11005 bound_to 11000
  146.1793  139.4979  142.9876 LP  0  0  0  0  0  0  0  0  0  0  0  0  # atno 17320 bound_to 7965
  145.6427  141.0281  143.1803 LP  0  0  0  0  0  0  0  0  0  0  0  0  # atno 17321 bound_to 7965
  140.3511  143.2963  152.0486 LP  0  0  0  0  0  0  0  0  0  0  0  0  # atno 17342 bound_to 10162
  139.4890  144.6373  151.6949 LP  0  0  0  0  0  0  0  0  0  0  0  0  # atno 17343 bound_to 10162
  157.4617  131.0884  151.0739 LP  0  0  0  0  0  0  0  0  0  0  0  0  # atno 17370 bound_to 10713
  157.1225  130.6068  149.5508 LP  0  0  0  0  0  0  0  0  0  0  0  0  # atno 17371 bound_to 10713
  140.4376  134.7045  157.4975 LP  0  0  0  0  0  0  0  0  0  0  0  0  # atno 17394 bound_to 11000
  140.0251  134.6489  155.9184 LP  0  0  0  0  0  0  0  0  0  0  0  0  # atno 17395 bound_to 11000

$$$$
