AV-unprocessed.smi:249|AV-procd|sdf|1919|dock2
  -GOLD-   2262021 23D 1   1.00000     0.00000
 Structure written by MMmdl.
 64 67  0  0  0  0  0  0  0  0  2 V2000
  150.9520  143.4047  157.7623 C   0  0  0  0  0  0  0  0  0  0  0  0
  150.7065  142.1936  156.8476 C   0  0  0  0  0  0  0  0  0  0  0  0
  149.3612  142.2002  156.2032 N   0  3  1  0  0  0  0  0  0  0  0  0
  149.3766  141.4861  154.8934 C   0  0  0  0  0  0  0  0  0  0  0  0
  148.0164  141.5433  154.1794 C   0  0  0  0  0  0  0  0  0  0  0  0
  146.8992  140.9436  155.0485 C   0  0  1  0  0  0  0  0  0  0  0  0
  147.0581  139.4918  155.2379 N   0  0  0  0  0  0  0  0  0  0  0  0
  147.1844  138.6615  154.0446 C   0  0  0  0  0  0  0  0  0  0  0  0
  146.2391  138.9048  156.1394 C   0  0  0  0  0  0  0  0  0  0  0  0
  144.9159  138.8774  155.8453 N   0  0  0  0  0  0  0  0  0  0  0  0
  144.0578  138.2940  156.6874 C   0  0  0  0  0  0  0  0  0  0  0  0
  144.3104  137.6884  157.8497 N   0  0  0  0  0  0  0  0  0  0  0  0
  145.6401  137.7241  158.1510 C   0  0  0  0  0  0  0  0  0  0  0  0
  146.6660  138.3165  157.3631 C   0  0  0  0  0  0  0  0  0  0  0  0
  147.8954  138.1680  157.9937 N   0  0  0  0  0  0  0  0  0  0  0  0
  147.6151  137.5092  159.0850 C   0  0  0  0  0  0  0  0  0  0  0  0
  146.2870  137.1871  159.2498 N   0  0  0  0  0  0  0  0  0  0  0  0
  145.7094  136.4373  160.3514 C   0  0  0  0  0  0  0  0  0  0  0  0
  146.6825  136.2649  161.5456 C   0  0  1  0  0  0  0  0  0  0  0  0
  146.5214  137.4321  162.5488 C   0  0  0  0  0  0  0  0  0  0  0  0
  147.6715  137.5581  163.3592 O   0  0  0  0  0  0  0  0  0  0  0  0
  146.5794  134.8557  162.1983 C   0  0  2  0  0  0  0  0  0  0  0  0
  147.0632  133.6742  161.3579 C   0  0  0  0  0  0  0  0  0  0  0  0
  146.0393  132.5711  161.6388 C   0  0  0  0  0  0  0  0  0  0  0  0
  145.3228  133.0175  162.7804 O   0  0  0  0  0  0  0  0  0  0  0  0
  145.1833  134.4222  162.6540 C   0  0  0  0  0  0  0  0  0  0  0  0
  146.8987  141.7485  156.3666 C   0  0  0  0  0  0  0  0  0  0  0  0
  148.2614  141.7087  157.0966 C   0  0  2  0  0  0  0  0  0  0  0  0
  148.1377  142.5170  158.4053 C   0  0  0  0  0  0  0  0  0  0  0  0
  151.8736  143.2710  158.3296 H   0  0  0  0  0  0  0  0  0  0  0  0
  150.1404  143.5294  158.4797 H   0  0  0  0  0  0  0  0  0  0  0  0
  151.0600  144.3333  157.2026 H   0  0  0  0  0  0  0  0  0  0  0  0
  151.4837  142.1287  156.0846 H   0  0  0  0  0  0  0  0  0  0  0  0
  150.8221  141.3172  157.4804 H   0  0  0  0  0  0  0  0  0  0  0  0
  150.1141  141.9310  154.2277 H   0  0  0  0  0  0  0  0  0  0  0  0
  149.6790  140.4491  155.0467 H   0  0  0  0  0  0  0  0  0  0  0  0
  147.7777  142.5832  153.9523 H   0  0  0  0  0  0  0  0  0  0  0  0
  148.0756  141.0426  153.2131 H   0  0  0  0  0  0  0  0  0  0  0  0
  145.9508  141.1086  154.5365 H   0  0  0  0  0  0  0  0  0  0  0  0
  147.0344  137.6023  154.2619 H   0  0  0  0  0  0  0  0  0  0  0  0
  148.1815  138.7649  153.6170 H   0  0  0  0  0  0  0  0  0  0  0  0
  146.4548  138.9587  153.2905 H   0  0  0  0  0  0  0  0  0  0  0  0
  143.0211  138.3099  156.3847 H   0  0  0  0  0  0  0  0  0  0  0  0
  148.3758  137.2259  159.7982 H   0  0  0  0  0  0  0  0  0  0  0  0
  144.8046  136.9588  160.6646 H   0  0  0  0  0  0  0  0  0  0  0  0
  145.3887  135.4624  159.9829 H   0  0  0  0  0  0  0  0  0  0  0  0
  147.6952  136.3310  161.1439 H   0  0  0  0  0  0  0  0  0  0  0  0
  146.3517  138.3780  162.0348 H   0  0  0  0  0  0  0  0  0  0  0  0
  145.6768  137.2775  163.2169 H   0  0  0  0  0  0  0  0  0  0  0  0
  147.7585  136.7759  163.8822 H   0  0  0  0  0  0  0  0  0  0  0  0
  147.1752  134.8523  163.1116 H   0  0  0  0  0  0  0  0  0  0  0  0
  147.1105  133.8883  160.2909 H   0  0  0  0  0  0  0  0  0  0  0  0
  148.0611  133.3687  161.6727 H   0  0  0  0  0  0  0  0  0  0  0  0
  145.3484  132.4699  160.8006 H   0  0  0  0  0  0  0  0  0  0  0  0
  146.5048  131.6011  161.8152 H   0  0  0  0  0  0  0  0  0  0  0  0
  144.8914  134.8806  163.5993 H   0  0  0  0  0  0  0  0  0  0  0  0
  144.4076  134.6337  161.9193 H   0  0  0  0  0  0  0  0  0  0  0  0
  146.6485  142.7863  156.1412 H   0  0  0  0  0  0  0  0  0  0  0  0
  146.1043  141.4078  157.0310 H   0  0  0  0  0  0  0  0  0  0  0  0
  148.4818  140.6738  157.3627 H   0  0  0  0  0  0  0  0  0  0  0  0
  147.2338  142.2409  158.9494 H   0  0  0  0  0  0  0  0  0  0  0  0
  148.0864  143.5886  158.2089 H   0  0  0  0  0  0  0  0  0  0  0  0
  148.9645  142.3329  159.0901 H   0  0  0  0  0  0  0  0  0  0  0  0
  149.1451  143.1659  156.0018 H   0  0  0  0  0  0  0  0  0  0  0  0
  1  2  1  0  0  0  0
  1 30  1  0  0  0  0
  1 31  1  0  0  0  0
  1 32  1  0  0  0  0
  2  3  1  0  0  0  0
  2 33  1  0  0  0  0
  2 34  1  0  0  0  0
  3 28  1  0  0  0  0
  3  4  1  0  0  0  0
  3 64  1  0  0  0  0
  4  5  1  0  0  0  0
  4 35  1  0  0  0  0
  4 36  1  0  0  0  0
  5  6  1  0  0  0  0
  5 37  1  0  0  0  0
  5 38  1  0  0  0  0
  6  7  1  0  0  0  0
  6 27  1  0  0  0  0
  6 39  1  0  0  0  0
  7  8  1  0  0  0  0
  7  9  1  0  0  0  0
  8 40  1  0  0  0  0
  8 41  1  0  0  0  0
  8 42  1  0  0  0  0
  9 14  1  0  0  0  0
  9 10  2  0  0  0  0
 10 11  1  0  0  0  0
 11 12  2  0  0  0  0
 11 43  1  0  0  0  0
 12 13  1  0  0  0  0
 13 17  1  0  0  0  0
 13 14  2  0  0  0  0
 14 15  1  0  0  0  0
 15 16  2  0  0  0  0
 16 17  1  0  0  0  0
 16 44  1  0  0  0  0
 17 18  1  0  0  0  0
 18 19  1  0  0  0  0
 18 45  1  0  0  0  0
 18 46  1  0  0  0  0
 19 20  1  0  0  0  0
 19 22  1  0  0  0  0
 19 47  1  0  0  0  0
 20 21  1  0  0  0  0
 20 48  1  0  0  0  0
 20 49  1  0  0  0  0
 21 50  1  0  0  0  0
 22 26  1  0  0  0  0
 22 23  1  0  0  0  0
 22 51  1  0  0  0  0
 23 24  1  0  0  0  0
 23 52  1  0  0  0  0
 23 53  1  0  0  0  0
 24 25  1  0  0  0  0
 24 54  1  0  0  0  0
 24 55  1  0  0  0  0
 25 26  1  0  0  0  0
 26 56  1  0  0  0  0
 26 57  1  0  0  0  0
 27 28  1  0  0  0  0
 27 58  1  0  0  0  0
 27 59  1  0  0  0  0
 28 29  1  0  0  0  0
 28 60  1  0  0  0  0
 29 61  1  0  0  0  0
 29 62  1  0  0  0  0
 29 63  1  0  0  0  0
M  CHG  1   3   1
M  END
> <s_m_source_file>
AV-unprocessed.smi

> <i_m_source_file_index>
249

> <i_lp_mmshare_version>
43012

> <i_f3d_flags>
0

> <s_epik_input>
W0NIM11bQ0gyXU4xW0NIMl1bQ0gyXVtDQEhdKFtDSDJdW0NASF0xW0NIM10pTihbQ0gzXSljKG5bY0hdbjIpYyhjMjMpbltjSF1uM1tDSDJdW0NASF0oW0NIMl1bT0hdKVtDQEBIXTRbQ0gyXVtDSDJdT1tDSDJdNA==

> <s_epik_cmdline>
J2VwaWtfcHl0aG9uJywgJy1waCcsICc3LjAnLCAnLXRuJywgJzgnLCAnLW1hJywgJzIwMCcsICctbWV0YWxfYmluZGluZycsICctaW1hZScsICc8aW5maWxlLm1hZT4nLCAnLW9tYWUnLCAnPG91dGZpbGUubWFlPic=

> <r_lp_tautomer_probability>
1

> <r_epik_Ionization_Penalty>
0.00294688

> <r_epik_Ionization_Penalty_Charging>
0.00169971

> <r_epik_Ionization_Penalty_Neutral>
0.00124717

> <r_epik_State_Penalty>
-0

> <r_epik_Charging_Adjusted_Penalty>
0.00169971

> <i_epik_Tot_Q>
1

> <i_epik_Tot_abs_Q>
1

> <r_epik_Metal_State_Penalty>
-0

> <b_epik_Metal_Only>
0

> <s_lp_Force_Field>
OPLS_2005

> <r_lp_Energy>
56.7339

> <b_lp_Chiralities_Consistent>
1

> <s_lp_Variant>
AV-unprocessed.smi:249-22

> <Gold.Version>
5.8.1

> <Gold.Id.Protein>
6NUR|6NUR_protein|mol2

> <Gold.PLP.Fitness>
42.7745

> <Gold.PLP.PLP>
-37.0961

> <Gold.PLP.part.hbond>
-2.3288

> <Gold.PLP.part.metal>
0.0000

> <Gold.PLP.part.buried>
-3.2304

> <Gold.PLP.part.nonpolar>
-30.1469

> <Gold.PLP.part.repulsive>
0.2782

> <Gold.PLP.ligand.clash>
0.0000

> <Gold.PLP.ligand.torsion>
1.3476

> <Gold.PLP.Chemscore.Hbond>
2.4320

> <Gold.PLP.Chemscore.CHOScore>
0.0000

> <Gold.PLP.Chemscore.Metal>
0.0000

> <Gold.Chemscore.Hbonds>
donor molecule, donor type, donor heavy atom, donor atom, acceptor molecule, acceptor atom, score
      L1  H     3    64       P1  8028  2.00
      P1  H  6931  6943       L1    21  0.36

> <Gold.PLP.Chemscore.Internal.Correction>
1.0775

> <Gold.Rescore>
     Score         DG    S(hbond)    S(metal)    S(lipo)     H(rot)  DE(clash)    DE(int)     intcor
     12.07     -13.64       1.39        0.00      93.52       2.90       0.01       1.56       ----

> <Gold.Chemscore.Fitness>
12.0705

> <Gold.Chemscore.DG>
-13.6365

> <Gold.Chemscore.ZeroCoef>
-5.4800

> <Gold.Chemscore.Hbond>
1.3892

> <Gold.Chemscore.Metal>
0.0000

> <Gold.Chemscore.Lipo>
93.5236

> <Gold.Chemscore.Internal_Hbond>
0.0000

> <Gold.Chemscore.DEClash>
0.0073

> <Gold.Chemscore.DEInternal>
1.5586

> <Gold.Chemscore.Rot>
2.9006

> <Gold.Chemscore.Internal.Correction>
   9.000000E+99

> <Gold.Chemscore.Hbonds>
donor molecule, donor type, donor heavy atom, donor atom, acceptor molecule, acceptor atom, score
      L1  H     3    64       P1  8028  0.99
      P1  H  6931  6943       L1    21  0.09

> <Gold.Chemscore.Hbond.Weighted>
-4.6399

> <Gold.Chemscore.Metal.Weighted>
-0.0000

> <Gold.Chemscore.Lipo.Weighted>
-10.9423

> <Gold.Chemscore.Internal_Hbond.Weighted>
0.0000

> <Gold.Chemscore.DEClash.Weighted>
0.0073

> <Gold.Chemscore.DEInternal.Weighted>
1.5586

> <Gold.Chemscore.Rot.Weighted>
7.4256

> <Gold.Chemscore.Internal.Correction.Weighted>
   9.000000E+99

> <Gold.Protein.RotatedTorsions>
[ 6907 6896 6895 6894 ] final  -58.67 input  -60.11 | X-H torsion
[ 7974 7965 7964 7962 ] final  -97.67 input  175.53 | X-H torsion
[ 8008 7997 7996 7995 ] final  -29.06 input   59.86 | X-H torsion
[ 10167 10162 10161 10158 ] final -168.62 input  -65.29 | X-H torsion
[ 10718 10713 10712 10709 ] final  139.91 input   66.30 | X-H torsion
[ 10763 10752 10751 10750 ] final  115.93 input  -60.55 | X-H torsion
[ 11005 11000 10999 10996 ] final -128.61 input  -57.11 | X-H torsion

> <Gold.Protein.ActiveResidues>
 VAL166  LYS551  ARG553  GLY616  TRP617  ASP618  TYR619  PRO620  LYS621  CYS622 
 ASP623  PHE694  ASN695  SER759  ASP760  ASP761  ALA762  ILE779  LEU786  VAL792 
 PHE793  MET794  SER795  GLU796  ALA797  LYS798  CYS799  TRP800  GLU811  SER814 

> <Gold.Protein.RotatedAtoms>
  150.7989  134.7069  159.6581 H   0  0  0  0  0  0  0  0  0  0  0  0  # atno 6907 bound_to 6896
  152.4104  134.6131  160.0040 H   0  0  0  0  0  0  0  0  0  0  0  0  # atno 6908 bound_to 6896
  151.6375  133.3291  159.3159 H   0  0  0  0  0  0  0  0  0  0  0  0  # atno 6909 bound_to 6896
  145.3306  140.9441  143.2664 H   0  0  0  0  0  0  0  0  0  0  0  0  # atno 7974 bound_to 7965
  154.4306  140.1828  156.1188 H   0  0  0  0  0  0  0  0  0  0  0  0  # atno 8008 bound_to 7997
  156.0160  140.3346  155.6964 H   0  0  0  0  0  0  0  0  0  0  0  0  # atno 8009 bound_to 7997
  155.6044  140.0643  157.2714 H   0  0  0  0  0  0  0  0  0  0  0  0  # atno 8010 bound_to 7997
  139.5973  144.1084  152.1704 H   0  0  0  0  0  0  0  0  0  0  0  0  # atno 10167 bound_to 10162
  157.4092  131.1026  151.0472 H   0  0  0  0  0  0  0  0  0  0  0  0  # atno 10718 bound_to 10713
  153.5295  135.3581  155.2669 H   0  0  0  0  0  0  0  0  0  0  0  0  # atno 10763 bound_to 10752
  154.8728  135.4065  154.3167 H   0  0  0  0  0  0  0  0  0  0  0  0  # atno 10764 bound_to 10752
  153.3853  135.7070  153.6602 H   0  0  0  0  0  0  0  0  0  0  0  0  # atno 10765 bound_to 10752
  140.9501  134.1077  157.4070 H   0  0  0  0  0  0  0  0  0  0  0  0  # atno 11005 bound_to 11000
  144.8867  139.4830  143.6697 LP  0  0  0  0  0  0  0  0  0  0  0  0  # atno 17320 bound_to 7965
  146.3047  139.7540  142.9065 LP  0  0  0  0  0  0  0  0  0  0  0  0  # atno 17321 bound_to 7965
  140.0672  144.5808  150.7218 LP  0  0  0  0  0  0  0  0  0  0  0  0  # atno 17342 bound_to 10162
  140.7222  143.2600  151.4240 LP  0  0  0  0  0  0  0  0  0  0  0  0  # atno 17343 bound_to 10162
  157.1442  130.6156  149.5564 LP  0  0  0  0  0  0  0  0  0  0  0  0  # atno 17370 bound_to 10713
  155.9845  130.4871  150.6988 LP  0  0  0  0  0  0  0  0  0  0  0  0  # atno 17371 bound_to 10713
  139.8845  135.0063  156.6373 LP  0  0  0  0  0  0  0  0  0  0  0  0  # atno 17394 bound_to 11000
  140.7614  133.8814  155.8421 LP  0  0  0  0  0  0  0  0  0  0  0  0  # atno 17395 bound_to 11000

$$$$
