AV-unprocessed.smi:3031|AV-procd|sdf|11552|dock7
  -GOLD-   2272016513D 1   1.00000     0.00000
 Structure written by MMmdl.
 48 49  0  0  0  0  0  0  0  0  3 V2000
  150.3241  139.9961  159.0741 C   0  0  0  0  0  0  0  0  0  0  0  0
  150.0280  140.1999  157.6161 C   0  0  0  0  0  0  0  0  0  0  0  0
  150.5452  139.4666  156.5116 C   0  0  0  0  0  0  0  0  0  0  0  0
  150.0828  139.8960  155.3492 N   0  0  0  0  0  0  0  0  0  0  0  0
  149.2655  140.9240  155.6659 N   0  0  0  0  0  0  0  0  0  0  0  0
  148.5495  141.6402  154.6216 C   0  0  0  0  0  0  0  0  0  0  0  0
  147.0068  141.4998  154.6858 C   0  0  1  0  0  0  0  0  0  0  0  0
  146.3353  142.7690  154.1432 C   0  0  0  0  0  0  0  0  0  0  0  0
  146.4969  140.3322  153.9257 N   0  3  0  0  0  0  0  0  0  0  0  0
  147.2908  139.9165  152.7484 C   0  0  0  0  0  0  0  0  0  0  0  0
  146.6536  138.7187  152.0216 C   0  0  1  0  0  0  0  0  0  0  0  0
  147.6594  138.0650  151.2740 O   0  0  0  0  0  0  0  0  0  0  0  0
  146.0593  137.6845  153.0018 C   0  0  0  0  0  0  0  0  0  0  0  0
  146.0755  136.2971  152.4701 N   0  3  0  0  0  0  0  0  0  0  0  0
  145.6695  135.2723  153.4639 C   0  0  0  0  0  0  0  0  0  0  0  0
  145.7421  133.8645  152.8469 C   0  0  0  0  0  0  0  0  0  0  0  0
  144.9300  133.8101  151.6809 O   0  0  0  0  0  0  0  0  0  0  0  0
  145.3686  134.7242  150.6843 C   0  0  0  0  0  0  0  0  0  0  0  0
  145.2779  136.1598  151.2282 C   0  0  0  0  0  0  0  0  0  0  0  0
  149.1993  141.1147  157.0305 C   0  0  0  0  0  0  0  0  0  0  0  0
  150.3013  138.9402  159.3448 H   0  0  0  0  0  0  0  0  0  0  0  0
  149.6004  140.5050  159.7113 H   0  0  0  0  0  0  0  0  0  0  0  0
  151.3105  140.3758  159.3407 H   0  0  0  0  0  0  0  0  0  0  0  0
  151.2377  138.6379  156.5209 H   0  0  0  0  0  0  0  0  0  0  0  0
  148.8274  142.6909  154.7156 H   0  0  0  0  0  0  0  0  0  0  0  0
  148.9204  141.3124  153.6494 H   0  0  0  0  0  0  0  0  0  0  0  0
  146.6859  141.3989  155.7233 H   0  0  0  0  0  0  0  0  0  0  0  0
  146.6391  143.6489  154.7112 H   0  0  0  0  0  0  0  0  0  0  0  0
  145.2491  142.6991  154.2079 H   0  0  0  0  0  0  0  0  0  0  0  0
  146.5965  142.9421  153.0984 H   0  0  0  0  0  0  0  0  0  0  0  0
  146.4859  139.5508  154.5656 H   0  0  0  0  0  0  0  0  0  0  0  0
  147.3923  140.7523  152.0571 H   0  0  0  0  0  0  0  0  0  0  0  0
  148.2939  139.6474  153.0808 H   0  0  0  0  0  0  0  0  0  0  0  0
  145.8925  139.0657  151.3226 H   0  0  0  0  0  0  0  0  0  0  0  0
  147.9789  137.3261  151.7704 H   0  0  0  0  0  0  0  0  0  0  0  0
  146.5886  137.7090  153.9561 H   0  0  0  0  0  0  0  0  0  0  0  0
  145.0291  137.9722  153.2195 H   0  0  0  0  0  0  0  0  0  0  0  0
  146.3147  135.3138  154.3409 H   0  0  0  0  0  0  0  0  0  0  0  0
  144.6528  135.4746  153.8047 H   0  0  0  0  0  0  0  0  0  0  0  0
  146.7713  133.5984  152.6006 H   0  0  0  0  0  0  0  0  0  0  0  0
  145.3839  133.1224  153.5607 H   0  0  0  0  0  0  0  0  0  0  0  0
  146.3886  134.4868  150.3779 H   0  0  0  0  0  0  0  0  0  0  0  0
  144.7377  134.6160  149.8020 H   0  0  0  0  0  0  0  0  0  0  0  0
  144.2373  136.4188  151.4300 H   0  0  0  0  0  0  0  0  0  0  0  0
  145.6428  136.8584  150.4741 H   0  0  0  0  0  0  0  0  0  0  0  0
  148.5793  141.8834  157.4688 H   0  0  0  0  0  0  0  0  0  0  0  0
  145.5460  140.5112  153.6345 H   0  0  0  0  0  0  0  0  0  0  0  0
  147.0301  136.0948  152.2097 H   0  0  0  0  0  0  0  0  0  0  0  0
  1  2  1  0  0  0  0
  1 21  1  0  0  0  0
  1 22  1  0  0  0  0
  1 23  1  0  0  0  0
  2 20  2  0  0  0  0
  2  3  1  0  0  0  0
  3  4  2  0  0  0  0
  3 24  1  0  0  0  0
  4  5  1  0  0  0  0
  5  6  1  0  0  0  0
  5 20  1  0  0  0  0
  6  7  1  0  0  0  0
  6 25  1  0  0  0  0
  6 26  1  0  0  0  0
  7  8  1  0  0  0  0
  7  9  1  0  0  0  0
  7 27  1  0  0  0  0
  8 28  1  0  0  0  0
  8 29  1  0  0  0  0
  8 30  1  0  0  0  0
  9 10  1  0  0  0  0
  9 31  1  0  0  0  0
  9 47  1  0  0  0  0
 10 11  1  0  0  0  0
 10 32  1  0  0  0  0
 10 33  1  0  0  0  0
 11 12  1  0  0  0  0
 11 13  1  0  0  0  0
 11 34  1  0  0  0  0
 12 35  1  0  0  0  0
 13 14  1  0  0  0  0
 13 36  1  0  0  0  0
 13 37  1  0  0  0  0
 14 19  1  0  0  0  0
 14 15  1  0  0  0  0
 14 48  1  0  0  0  0
 15 16  1  0  0  0  0
 15 38  1  0  0  0  0
 15 39  1  0  0  0  0
 16 17  1  0  0  0  0
 16 40  1  0  0  0  0
 16 41  1  0  0  0  0
 17 18  1  0  0  0  0
 18 19  1  0  0  0  0
 18 42  1  0  0  0  0
 18 43  1  0  0  0  0
 19 44  1  0  0  0  0
 19 45  1  0  0  0  0
 20 46  1  0  0  0  0
M  CHG  1   9   1
M  CHG  1  14   1
M  END
> <s_m_source_file>
AV-unprocessed.smi

> <i_m_source_file_index>
3031

> <i_lp_mmshare_version>
43012

> <i_f3d_flags>
0

> <s_epik_input>
W0NIM11jMVtjSF1ubihbY0hdMSlbQ0gyXVtDQEhdKFtDSDNdKVtOSF1bQ0gyXVtDQEhdKFtPSF0pW0NIMl1OMltDSDJdW0NIMl1PW0NIMl1bQ0gyXTI=

> <s_epik_cmdline>
J2VwaWtfcHl0aG9uJywgJy1waCcsICc3LjAnLCAnLXRuJywgJzgnLCAnLW1hJywgJzIwMCcsICctbWV0YWxfYmluZGluZycsICctaW1hZScsICc8aW5maWxlLm1hZT4nLCAnLW9tYWUnLCAnPG91dGZpbGUubWFlPic=

> <r_lp_tautomer_probability>
1

> <r_epik_Ionization_Penalty>
1.76542

> <r_epik_Ionization_Penalty_Charging>
1.76348

> <r_epik_Ionization_Penalty_Neutral>
0.00194017

> <r_epik_State_Penalty>
1.49348

> <r_epik_Charging_Adjusted_Penalty>
3.25696

> <i_epik_Tot_Q>
2

> <i_epik_Tot_abs_Q>
2

> <r_epik_Metal_State_Penalty>
1.49349

> <b_epik_Metal_Only>
0

> <s_lp_Force_Field>
OPLS_2005

> <r_lp_Energy>
29.0022

> <b_lp_Chiralities_Consistent>
1

> <s_lp_Variant>
AV-unprocessed.smi:3031-12

> <Gold.Version>
5.8.1

> <Gold.Id.Protein>
6NUR|6NUR_protein|mol2

> <Gold.PLP.Fitness>
57.1224

> <Gold.PLP.PLP>
-38.0958

> <Gold.PLP.part.hbond>
-5.4818

> <Gold.PLP.part.metal>
0.0000

> <Gold.PLP.part.buried>
-0.1052

> <Gold.PLP.part.nonpolar>
-33.1272

> <Gold.PLP.part.repulsive>
0.1883

> <Gold.PLP.ligand.clash>
0.0000

> <Gold.PLP.ligand.torsion>
1.3748

> <Gold.PLP.Chemscore.Hbond>
6.5275

> <Gold.PLP.Chemscore.CHOScore>
0.6710

> <Gold.PLP.Chemscore.Metal>
0.0000

> <Gold.Chemscore.Hbonds>
donor molecule, donor type, donor heavy atom, donor atom, acceptor molecule, acceptor atom, score
      L1  H     9    47       P1 10175  1.20
      L1  H    12    35       P1  7948  0.68
      L1  H    14    48       P1  7948  2.00
      P1  H  7954  7966       L1    12  0.86

> <Gold.PLP.Chemscore.Internal.Correction>
0.1807

> <Gold.Rescore>
     Score         DG    S(hbond)    S(metal)    S(lipo)     H(rot)  DE(clash)    DE(int)     intcor
     18.32     -20.62       4.02        0.00      74.73       2.74       1.00       1.30       ----

> <Gold.Chemscore.Fitness>
18.3193

> <Gold.Chemscore.DG>
-20.6220

> <Gold.Chemscore.ZeroCoef>
-5.4800

> <Gold.Chemscore.Hbond>
4.0183

> <Gold.Chemscore.Metal>
0.0000

> <Gold.Chemscore.Lipo>
74.7343

> <Gold.Chemscore.Internal_Hbond>
0.0000

> <Gold.Chemscore.DEClash>
0.9998

> <Gold.Chemscore.DEInternal>
1.3029

> <Gold.Chemscore.Rot>
2.7434

> <Gold.Chemscore.Internal.Correction>
   9.000000E+99

> <Gold.Chemscore.Hbonds>
donor molecule, donor type, donor heavy atom, donor atom, acceptor molecule, acceptor atom, score
      L1  H     9    47       P1 10175  0.59
      L1  H    12    35       P1  7948  0.68
      L1  H    14    48       P1  7948  0.99
      P1  H  7954  7966       L1    12  0.42

> <Gold.Chemscore.Hbond.Weighted>
-13.4212

> <Gold.Chemscore.Metal.Weighted>
-0.0000

> <Gold.Chemscore.Lipo.Weighted>
-8.7439

> <Gold.Chemscore.Internal_Hbond.Weighted>
0.0000

> <Gold.Chemscore.DEClash.Weighted>
0.9998

> <Gold.Chemscore.DEInternal.Weighted>
1.3029

> <Gold.Chemscore.Rot.Weighted>
7.0231

> <Gold.Chemscore.Internal.Correction.Weighted>
   9.000000E+99

> <Gold.Protein.RotatedTorsions>
[ 6907 6896 6895 6894 ] final   23.40 input  -60.11 | X-H torsion
[ 7974 7965 7964 7962 ] final -129.68 input  175.53 | X-H torsion
[ 8008 7997 7996 7995 ] final   87.17 input   59.86 | X-H torsion
[ 10167 10162 10161 10158 ] final -103.66 input  -65.29 | X-H torsion
[ 10718 10713 10712 10709 ] final  -84.40 input   66.30 | X-H torsion
[ 10763 10752 10751 10750 ] final   16.96 input  -60.55 | X-H torsion
[ 11005 11000 10999 10996 ] final  -72.34 input  -57.11 | X-H torsion

> <Gold.Protein.ActiveResidues>
 VAL166  LYS551  ARG553  GLY616  TRP617  ASP618  TYR619  PRO620  LYS621  CYS622 
 ASP623  PHE694  ASN695  SER759  ASP760  ASP761  ALA762  ILE779  LEU786  VAL792 
 PHE793  MET794  SER795  GLU796  ALA797  LYS798  CYS799  TRP800  GLU811  SER814 

> <Gold.Protein.RotatedAtoms>
  151.9418  135.0210  160.0536 H   0  0  0  0  0  0  0  0  0  0  0  0  # atno 6907 bound_to 6896
  152.2030  133.4850  159.5077 H   0  0  0  0  0  0  0  0  0  0  0  0  # atno 6908 bound_to 6896
  150.6959  134.1483  159.4173 H   0  0  0  0  0  0  0  0  0  0  0  0  # atno 6909 bound_to 6896
  144.9548  140.7384  143.4765 H   0  0  0  0  0  0  0  0  0  0  0  0  # atno 7974 bound_to 7965
  155.9720  140.3385  155.6584 H   0  0  0  0  0  0  0  0  0  0  0  0  # atno 8008 bound_to 7997
  155.6662  140.0721  157.2555 H   0  0  0  0  0  0  0  0  0  0  0  0  # atno 8009 bound_to 7997
  154.4169  140.1700  156.1817 H   0  0  0  0  0  0  0  0  0  0  0  0  # atno 8010 bound_to 7997
  140.2176  143.3700  152.0997 H   0  0  0  0  0  0  0  0  0  0  0  0  # atno 10167 bound_to 10162
  156.0007  130.4697  150.4404 H   0  0  0  0  0  0  0  0  0  0  0  0  # atno 10718 bound_to 10713
  153.1383  135.6754  153.9068 H   0  0  0  0  0  0  0  0  0  0  0  0  # atno 10763 bound_to 10752
  153.8533  135.3090  155.3435 H   0  0  0  0  0  0  0  0  0  0  0  0  # atno 10764 bound_to 10752
  154.7766  135.4911  153.9840 H   0  0  0  0  0  0  0  0  0  0  0  0  # atno 10765 bound_to 10752
  141.1607  133.6844  156.7044 H   0  0  0  0  0  0  0  0  0  0  0  0  # atno 11005 bound_to 11000
  145.2788  139.1926  143.4802 LP  0  0  0  0  0  0  0  0  0  0  0  0  # atno 17320 bound_to 7965
  146.3333  140.2747  142.8607 LP  0  0  0  0  0  0  0  0  0  0  0  0  # atno 17321 bound_to 7965
  139.5156  144.6965  151.5614 LP  0  0  0  0  0  0  0  0  0  0  0  0  # atno 17342 bound_to 10162
  140.6278  143.9134  150.6580 LP  0  0  0  0  0  0  0  0  0  0  0  0  # atno 17343 bound_to 10162
  157.2446  131.0533  151.2416 LP  0  0  0  0  0  0  0  0  0  0  0  0  # atno 17370 bound_to 10713
  157.3587  130.7120  149.6488 LP  0  0  0  0  0  0  0  0  0  0  0  0  # atno 17371 bound_to 10713
  140.2934  134.8222  157.4036 LP  0  0  0  0  0  0  0  0  0  0  0  0  # atno 17394 bound_to 11000
  140.1326  134.5075  155.8093 LP  0  0  0  0  0  0  0  0  0  0  0  0  # atno 17395 bound_to 11000

$$$$
