AV-unprocessed.smi:1875|AV-procd|sdf|7618|dock7
  -GOLD-   22720 9343D 1   1.00000     0.00000
 Structure written by MMmdl.
 48 50  0  0  0  0  0  0  0  0  2 V2000
  151.5128  132.0187  156.5027 C   0  0  0  0  0  0  0  0  0  0  0  0
  150.7919  132.8296  155.4458 C   0  0  0  0  0  0  0  0  0  0  0  0
  150.1282  132.1488  154.5059 N   0  0  0  0  0  0  0  0  0  0  0  0
  149.4869  132.8750  153.5643 C   0  0  0  0  0  0  0  0  0  0  0  0
  149.5128  134.2845  153.5683 C   0  0  0  0  0  0  0  0  0  0  0  0
  150.2456  134.8908  154.6107 C   0  0  0  0  0  0  0  0  0  0  0  0
  150.3558  136.3979  154.7229 C   0  0  0  0  0  0  0  0  0  0  0  0
  151.6235  136.8964  154.1987 N   0  0  0  0  0  0  0  0  0  0  0  0
  151.7051  138.3543  154.1806 C   0  0  0  0  0  0  0  0  0  0  0  0
  152.5328  138.8842  155.3630 C   0  0  2  0  0  0  0  0  0  0  0  0
  153.4373  137.8736  155.7641 O   0  0  0  0  0  0  0  0  0  0  0  0
  151.6378  139.2526  156.5628 C   0  0  0  0  0  0  0  0  0  0  0  0
  151.2574  140.6716  156.5799 N   0  0  0  0  0  0  0  0  0  0  0  0
  150.6162  141.4160  155.6385 C   0  0  0  0  0  0  0  0  0  0  0  0
  150.4968  142.6814  156.1275 N   0  3  0  0  0  0  0  0  0  0  0  0
  151.0715  142.7456  157.3988 C   0  0  0  0  0  0  0  0  0  0  0  0
  151.1994  143.8056  158.2884 C   0  0  0  0  0  0  0  0  0  0  0  0
  151.8430  143.5411  159.5185 C   0  0  0  0  0  0  0  0  0  0  0  0
  152.0029  144.6793  160.5123 C   0  0  0  0  0  0  0  0  0  0  0  0
  152.3309  142.2437  159.8235 C   0  0  0  0  0  0  0  0  0  0  0  0
  153.0202  141.9711  161.1497 C   0  0  0  0  0  0  0  0  0  0  0  0
  152.1902  141.1783  158.9054 C   0  0  0  0  0  0  0  0  0  0  0  0
  151.5579  141.4578  157.6966 C   0  0  0  0  0  0  0  0  0  0  0  0
  150.8853  134.1585  155.5497 N   0  0  0  0  0  0  0  0  0  0  0  0
  151.3806  130.9474  156.3459 H   0  0  0  0  0  0  0  0  0  0  0  0
  151.1321  132.2661  157.4941 H   0  0  0  0  0  0  0  0  0  0  0  0
  152.5814  132.2353  156.4821 H   0  0  0  0  0  0  0  0  0  0  0  0
  148.9501  132.3287  152.8030 H   0  0  0  0  0  0  0  0  0  0  0  0
  149.0000  134.8640  152.8151 H   0  0  0  0  0  0  0  0  0  0  0  0
  149.5219  136.8462  154.1814 H   0  0  0  0  0  0  0  0  0  0  0  0
  150.2416  136.6883  155.7685 H   0  0  0  0  0  0  0  0  0  0  0  0
  151.7588  136.5405  153.2580 H   0  0  0  0  0  0  0  0  0  0  0  0
  152.1790  138.6678  153.2494 H   0  0  0  0  0  0  0  0  0  0  0  0
  150.7086  138.7986  154.1834 H   0  0  0  0  0  0  0  0  0  0  0  0
  153.1011  139.7636  155.0562 H   0  0  0  0  0  0  0  0  0  0  0  0
  153.4922  137.8826  156.7080 H   0  0  0  0  0  0  0  0  0  0  0  0
  150.7285  138.6506  156.5739 H   0  0  0  0  0  0  0  0  0  0  0  0
  152.1565  139.0435  157.4996 H   0  0  0  0  0  0  0  0  0  0  0  0
  150.2634  141.0656  154.6790 H   0  0  0  0  0  0  0  0  0  0  0  0
  150.8244  144.7902  158.0499 H   0  0  0  0  0  0  0  0  0  0  0  0
  153.0577  144.8648  160.7153 H   0  0  0  0  0  0  0  0  0  0  0  0
  151.5058  144.4402  161.4523 H   0  0  0  0  0  0  0  0  0  0  0  0
  151.5691  145.6048  160.1327 H   0  0  0  0  0  0  0  0  0  0  0  0
  153.3312  140.9294  161.2314 H   0  0  0  0  0  0  0  0  0  0  0  0
  152.3492  142.1844  161.9821 H   0  0  0  0  0  0  0  0  0  0  0  0
  153.9098  142.5929  161.2531 H   0  0  0  0  0  0  0  0  0  0  0  0
  152.5610  140.1904  159.1361 H   0  0  0  0  0  0  0  0  0  0  0  0
  150.0542  143.4423  155.6282 H   0  0  0  0  0  0  0  0  0  0  0  0
  1  2  1  0  0  0  0
  1 25  1  0  0  0  0
  1 26  1  0  0  0  0
  1 27  1  0  0  0  0
  2 24  1  0  0  0  0
  2  3  2  0  0  0  0
  3  4  1  0  0  0  0
  4  5  2  0  0  0  0
  4 28  1  0  0  0  0
  5  6  1  0  0  0  0
  5 29  1  0  0  0  0
  6  7  1  0  0  0  0
  6 24  2  0  0  0  0
  7  8  1  0  0  0  0
  7 30  1  0  0  0  0
  7 31  1  0  0  0  0
  8  9  1  0  0  0  0
  8 32  1  0  0  0  0
  9 10  1  0  0  0  0
  9 33  1  0  0  0  0
  9 34  1  0  0  0  0
 10 11  1  0  0  0  0
 10 12  1  0  0  0  0
 10 35  1  0  0  0  0
 11 36  1  0  0  0  0
 12 13  1  0  0  0  0
 12 37  1  0  0  0  0
 12 38  1  0  0  0  0
 13 23  1  0  0  0  0
 13 14  1  0  0  0  0
 14 15  2  0  0  0  0
 14 39  1  0  0  0  0
 15 16  1  0  0  0  0
 15 48  1  0  0  0  0
 16 23  2  0  0  0  0
 16 17  1  0  0  0  0
 17 18  2  0  0  0  0
 17 40  1  0  0  0  0
 18 19  1  0  0  0  0
 18 20  1  0  0  0  0
 19 41  1  0  0  0  0
 19 42  1  0  0  0  0
 19 43  1  0  0  0  0
 20 21  1  0  0  0  0
 20 22  2  0  0  0  0
 21 44  1  0  0  0  0
 21 45  1  0  0  0  0
 21 46  1  0  0  0  0
 22 23  1  0  0  0  0
 22 47  1  0  0  0  0
M  CHG  1  15   1
M  END
> <s_m_source_file>
AV-unprocessed.smi

> <i_m_source_file_index>
1875

> <i_lp_mmshare_version>
43012

> <i_f3d_flags>
0

> <s_epik_input>
W0NIM11jMW5bY0hdW2NIXWMobjEpW0NIMl1bTkhdW0NIMl1bQ0BIXShbT0hdKVtDSDJdbihbY0hdbjIpYyhjMjMpW2NIXWMoW0NIM10pYyhbY0hdMylbQ0gzXQ==

> <s_epik_cmdline>
J2VwaWtfcHl0aG9uJywgJy1waCcsICc3LjAnLCAnLXRuJywgJzgnLCAnLW1hJywgJzIwMCcsICctbWV0YWxfYmluZGluZycsICctaW1hZScsICc8aW5maWxlLm1hZT4nLCAnLW9tYWUnLCAnPG91dGZpbGUubWFlPic=

> <r_epik_Ionization_Penalty>
2.02862

> <r_epik_Ionization_Penalty_Charging>
1.0004

> <r_epik_Ionization_Penalty_Neutral>
1.02823

> <r_epik_State_Penalty>
2.23022

> <r_epik_Charging_Adjusted_Penalty>
3.23062

> <i_epik_Tot_Q>
1

> <i_epik_Tot_abs_Q>
1

> <r_epik_Metal_State_Penalty>
2.31249

> <b_epik_Metal_Only>
0

> <s_epik_Chemistry_Notes>
This compound contains an electron-poor aromatic ring that is susceptible to covalent hydrolysis at low pH, typically resulting in measured values for nitrogen ring protonation that are around two units higher than predicted values.

> <s_lp_Force_Field>
OPLS_2005

> <r_lp_Energy>
18.1078

> <b_lp_Chiralities_Consistent>
1

> <s_lp_Variant>
AV-unprocessed.smi:1875-7

> <Gold.Version>
5.8.1

> <Gold.Id.Protein>
6NUR|6NUR_protein|mol2

> <Gold.PLP.Fitness>
62.2663

> <Gold.PLP.PLP>
-55.5379

> <Gold.PLP.part.hbond>
-4.1857

> <Gold.PLP.part.metal>
0.0000

> <Gold.PLP.part.buried>
-5.9907

> <Gold.PLP.part.nonpolar>
-44.2887

> <Gold.PLP.part.repulsive>
0.1354

> <Gold.PLP.ligand.clash>
0.0000

> <Gold.PLP.ligand.torsion>
1.4931

> <Gold.PLP.Chemscore.Hbond>
3.2014

> <Gold.PLP.Chemscore.CHOScore>
0.0000

> <Gold.PLP.Chemscore.Metal>
0.0000

> <Gold.Chemscore.Hbonds>
donor molecule, donor type, donor heavy atom, donor atom, acceptor molecule, acceptor atom, score
      L1  H     8    32       P1  7949  1.00
      L1  H    15    48       P1  8028  1.92
      P1  H 10752 10763       L1     8  0.19
      L1  C     4    28       P1 10747  0.08

> <Gold.PLP.Chemscore.Internal.Correction>
0.1105

> <Gold.Rescore>
     Score         DG    S(hbond)    S(metal)    S(lipo)     H(rot)  DE(clash)    DE(int)     intcor
     18.42     -19.91       1.91        0.00     130.21       2.80       0.26       1.23       ----

> <Gold.Chemscore.Fitness>
18.4174

> <Gold.Chemscore.DG>
-19.9126

> <Gold.Chemscore.ZeroCoef>
-5.4800

> <Gold.Chemscore.Hbond>
1.9083

> <Gold.Chemscore.Metal>
0.0000

> <Gold.Chemscore.Lipo>
130.2139

> <Gold.Chemscore.Internal_Hbond>
0.0000

> <Gold.Chemscore.DEClash>
0.2617

> <Gold.Chemscore.DEInternal>
1.2335

> <Gold.Chemscore.Rot>
2.8032

> <Gold.Chemscore.Internal.Correction>
   9.000000E+99

> <Gold.Chemscore.Hbonds>
donor molecule, donor type, donor heavy atom, donor atom, acceptor molecule, acceptor atom, score
      L1  H     8    32       P1  7949  0.96
      L1  H    15    48       P1  8028  0.92

> <Gold.Chemscore.Hbond.Weighted>
-6.3737

> <Gold.Chemscore.Metal.Weighted>
-0.0000

> <Gold.Chemscore.Lipo.Weighted>
-15.2350

> <Gold.Chemscore.Internal_Hbond.Weighted>
0.0000

> <Gold.Chemscore.DEClash.Weighted>
0.2617

> <Gold.Chemscore.DEInternal.Weighted>
1.2335

> <Gold.Chemscore.Rot.Weighted>
7.1761

> <Gold.Chemscore.Internal.Correction.Weighted>
   9.000000E+99

> <Gold.Protein.RotatedTorsions>
[ 6907 6896 6895 6894 ] final  137.17 input  -60.11 | X-H torsion
[ 7974 7965 7964 7962 ] final  153.14 input  175.53 | X-H torsion
[ 8008 7997 7996 7995 ] final  -46.19 input   59.86 | X-H torsion
[ 10167 10162 10161 10158 ] final -173.74 input  -65.29 | X-H torsion
[ 10718 10713 10712 10709 ] final -141.10 input   66.30 | X-H torsion
[ 10763 10752 10751 10750 ] final   80.29 input  -60.55 | X-H torsion
[ 11005 11000 10999 10996 ] final -172.40 input  -57.11 | X-H torsion

> <Gold.Protein.ActiveResidues>
 VAL166  LYS551  ARG553  GLY616  TRP617  ASP618  TYR619  PRO620  LYS621  CYS622 
 ASP623  PHE694  ASN695  SER759  ASP760  ASP761  ALA762  ILE779  LEU786  VAL792 
 PHE793  MET794  SER795  GLU796  ALA797  LYS798  CYS799  TRP800  GLU811  SER814 

> <Gold.Protein.RotatedAtoms>
  152.2811  133.5471  159.5497 H   0  0  0  0  0  0  0  0  0  0  0  0  # atno 6907 bound_to 6896
  150.7196  134.0563  159.3824 H   0  0  0  0  0  0  0  0  0  0  0  0  # atno 6908 bound_to 6896
  151.8473  135.0570  160.0506 H   0  0  0  0  0  0  0  0  0  0  0  0  # atno 6909 bound_to 6896
  144.8175  139.6761  143.6115 H   0  0  0  0  0  0  0  0  0  0  0  0  # atno 7974 bound_to 7965
  154.4005  140.1378  156.3970 H   0  0  0  0  0  0  0  0  0  0  0  0  # atno 8008 bound_to 7997
  155.7860  140.3480  155.5303 H   0  0  0  0  0  0  0  0  0  0  0  0  # atno 8009 bound_to 7997
  155.8626  140.0959  157.1593 H   0  0  0  0  0  0  0  0  0  0  0  0  # atno 8010 bound_to 7997
  139.5672  144.1728  152.1329 H   0  0  0  0  0  0  0  0  0  0  0  0  # atno 10167 bound_to 10162
  156.3301  130.7581  151.1697 H   0  0  0  0  0  0  0  0  0  0  0  0  # atno 10718 bound_to 10713
  153.1022  135.4808  154.8887 H   0  0  0  0  0  0  0  0  0  0  0  0  # atno 10763 bound_to 10752
  154.7391  135.3078  154.8762 H   0  0  0  0  0  0  0  0  0  0  0  0  # atno 10764 bound_to 10752
  153.9375  135.6838  153.4798 H   0  0  0  0  0  0  0  0  0  0  0  0  # atno 10765 bound_to 10752
  140.4974  134.5926  157.4976 H   0  0  0  0  0  0  0  0  0  0  0  0  # atno 11005 bound_to 11000
  146.2478  139.6136  142.9447 LP  0  0  0  0  0  0  0  0  0  0  0  0  # atno 17320 bound_to 7965
  145.5182  141.0433  143.2450 LP  0  0  0  0  0  0  0  0  0  0  0  0  # atno 17321 bound_to 7965
  140.1254  144.5336  150.6836 LP  0  0  0  0  0  0  0  0  0  0  0  0  # atno 17342 bound_to 10162
  140.6955  143.2401  151.5012 LP  0  0  0  0  0  0  0  0  0  0  0  0  # atno 17343 bound_to 10162
  157.7429  131.0483  150.4991 LP  0  0  0  0  0  0  0  0  0  0  0  0  # atno 17370 bound_to 10713
  156.5156  130.4149  149.6278 LP  0  0  0  0  0  0  0  0  0  0  0  0  # atno 17371 bound_to 10713
  139.9733  134.7257  155.9999 LP  0  0  0  0  0  0  0  0  0  0  0  0  # atno 17394 bound_to 11000
  141.1453  133.6557  156.3849 LP  0  0  0  0  0  0  0  0  0  0  0  0  # atno 17395 bound_to 11000

$$$$
