AV-unprocessed.smi:832|AV-procd|sdf|3876|dock2
  -GOLD-   22720 1333D 1   1.00000     0.00000
 Structure written by MMmdl.
 42 43  0  0  0  0  0  0  0  0  2 V2000
  150.6682  142.0254  156.2027 C   0  0  0  0  0  0  0  0  0  0  0  0
  150.2967  140.8117  155.4219 C   0  0  0  0  0  0  0  0  0  0  0  0
  149.0956  140.2711  155.0586 C   0  0  0  0  0  0  0  0  0  0  0  0
  149.4773  139.1118  154.3226 C   0  0  0  0  0  0  0  0  0  0  0  0
  148.6019  138.1802  153.7074 N   0  0  0  0  0  0  0  0  0  0  0  0
  147.2615  138.2224  153.6253 C   0  0  0  0  0  0  0  0  0  0  0  0
  146.5441  139.1059  154.0945 O   0  0  0  0  0  0  0  0  0  0  0  0
  146.7824  137.1595  152.9632 N   0  0  0  0  0  0  0  0  0  0  0  0
  145.3700  136.9016  152.7030 C   0  0  0  0  0  0  0  0  0  0  0  0
  145.1568  136.0595  151.4301 C   0  0  2  0  0  0  0  0  0  0  0  0
  143.8635  135.2466  151.4056 C   0  0  0  0  0  0  0  0  0  0  0  0
  144.1563  134.0801  150.4525 C   0  0  0  0  0  0  0  0  0  0  0  0
  145.6260  134.0439  150.2408 N   0  3  2  0  0  0  0  0  0  0  0  0
  146.2295  132.6814  150.2105 C   0  0  0  0  0  0  0  0  0  0  0  0
  145.7079  131.8509  149.0218 C   0  0  0  0  0  0  0  0  0  0  0  0
  145.9558  131.9247  151.5241 C   0  0  0  0  0  0  0  0  0  0  0  0
  146.2192  134.9840  151.2171 C   0  0  0  0  0  0  0  0  0  0  0  0
  150.7873  138.9662  154.2458 N   0  0  0  0  0  0  0  0  0  0  0  0
  151.3211  140.0516  154.9502 O   0  0  0  0  0  0  0  0  0  0  0  0
  149.7796  142.5705  156.5219 H   0  0  0  0  0  0  0  0  0  0  0  0
  151.2799  142.6988  155.6023 H   0  0  0  0  0  0  0  0  0  0  0  0
  151.2360  141.7532  157.0924 H   0  0  0  0  0  0  0  0  0  0  0  0
  148.1146  140.6576  155.2891 H   0  0  0  0  0  0  0  0  0  0  0  0
  149.0530  137.3828  153.2838 H   0  0  0  0  0  0  0  0  0  0  0  0
  147.4425  136.4827  152.6086 H   0  0  0  0  0  0  0  0  0  0  0  0
  144.9205  136.4050  153.5645 H   0  0  0  0  0  0  0  0  0  0  0  0
  144.8651  137.8632  152.6057 H   0  0  0  0  0  0  0  0  0  0  0  0
  145.1643  136.7152  150.5576 H   0  0  0  0  0  0  0  0  0  0  0  0
  143.6478  134.8566  152.4016 H   0  0  0  0  0  0  0  0  0  0  0  0
  143.0039  135.8386  151.0896 H   0  0  0  0  0  0  0  0  0  0  0  0
  143.7803  133.1510  150.8831 H   0  0  0  0  0  0  0  0  0  0  0  0
  143.6646  134.2232  149.4897 H   0  0  0  0  0  0  0  0  0  0  0  0
  147.3091  132.7916  150.0958 H   0  0  0  0  0  0  0  0  0  0  0  0
  146.1279  130.8448  149.0356 H   0  0  0  0  0  0  0  0  0  0  0  0
  145.9810  132.2906  148.0624 H   0  0  0  0  0  0  0  0  0  0  0  0
  144.6218  131.7550  149.0507 H   0  0  0  0  0  0  0  0  0  0  0  0
  146.3764  130.9193  151.4904 H   0  0  0  0  0  0  0  0  0  0  0  0
  144.8856  131.8275  151.7090 H   0  0  0  0  0  0  0  0  0  0  0  0
  146.3978  132.4227  152.3866 H   0  0  0  0  0  0  0  0  0  0  0  0
  147.1580  135.4045  150.8553 H   0  0  0  0  0  0  0  0  0  0  0  0
  146.4173  134.4623  152.1551 H   0  0  0  0  0  0  0  0  0  0  0  0
  145.7850  134.4572  149.3330 H   0  0  0  0  0  0  0  0  0  0  0  0
  1  2  1  0  0  0  0
  1 20  1  0  0  0  0
  1 21  1  0  0  0  0
  1 22  1  0  0  0  0
  2 19  1  0  0  0  0
  2  3  2  0  0  0  0
  3  4  1  0  0  0  0
  3 23  1  0  0  0  0
  4  5  1  0  0  0  0
  4 18  2  0  0  0  0
  5  6  1  0  0  0  0
  5 24  1  0  0  0  0
  6  7  2  0  0  0  0
  6  8  1  0  0  0  0
  8  9  1  0  0  0  0
  8 25  1  0  0  0  0
  9 10  1  0  0  0  0
  9 26  1  0  0  0  0
  9 27  1  0  0  0  0
 10 17  1  0  0  0  0
 10 11  1  0  0  0  0
 10 28  1  0  0  0  0
 11 12  1  0  0  0  0
 11 29  1  0  0  0  0
 11 30  1  0  0  0  0
 12 13  1  0  0  0  0
 12 31  1  0  0  0  0
 12 32  1  0  0  0  0
 13 14  1  0  0  0  0
 13 17  1  0  0  0  0
 13 42  1  0  0  0  0
 14 15  1  0  0  0  0
 14 16  1  0  0  0  0
 14 33  1  0  0  0  0
 15 34  1  0  0  0  0
 15 35  1  0  0  0  0
 15 36  1  0  0  0  0
 16 37  1  0  0  0  0
 16 38  1  0  0  0  0
 16 39  1  0  0  0  0
 17 40  1  0  0  0  0
 17 41  1  0  0  0  0
 18 19  1  0  0  0  0
M  CHG  1  13   1
M  END
> <s_m_source_file>
AV-unprocessed.smi

> <i_m_source_file_index>
832

> <i_lp_mmshare_version>
43012

> <i_f3d_flags>
0

> <s_epik_input>
W0NIM11jMVtjSF1jKG5vMSlbTkhdQyg9TylbTkhdW0NIMl1bQ0BASF0yW0NIMl1bQ0gyXU4oW0NIMl0yKVtDSF0oW0NIM10pW0NIM10=

> <s_epik_cmdline>
J2VwaWtfcHl0aG9uJywgJy1waCcsICc3LjAnLCAnLXRuJywgJzgnLCAnLW1hJywgJzIwMCcsICctbWV0YWxfYmluZGluZycsICctaW1hZScsICc8aW5maWxlLm1hZT4nLCAnLW9tYWUnLCAnPG91dGZpbGUubWFlPic=

> <r_lp_tautomer_probability>
1

> <r_epik_Ionization_Penalty>
0.000242791

> <r_epik_Ionization_Penalty_Charging>
0.000220876

> <r_epik_Ionization_Penalty_Neutral>
2.19143e-05

> <r_epik_State_Penalty>
-0

> <r_epik_Charging_Adjusted_Penalty>
0.000220876

> <i_epik_Tot_Q>
1

> <i_epik_Tot_abs_Q>
1

> <r_epik_Metal_State_Penalty>
-0

> <b_epik_Metal_Only>
0

> <s_lp_Force_Field>
OPLS_2005

> <r_lp_Energy>
29.381

> <b_lp_Chiralities_Consistent>
1

> <s_lp_Variant>
AV-unprocessed.smi:832-1

> <Gold.Version>
5.8.1

> <Gold.Id.Protein>
6NUR|6NUR_protein|mol2

> <Gold.PLP.Fitness>
41.4813

> <Gold.PLP.PLP>
-32.1966

> <Gold.PLP.part.hbond>
-4.5027

> <Gold.PLP.part.metal>
0.0000

> <Gold.PLP.part.buried>
-2.3703

> <Gold.PLP.part.nonpolar>
-26.0525

> <Gold.PLP.part.repulsive>
0.5103

> <Gold.PLP.ligand.clash>
0.0000

> <Gold.PLP.ligand.torsion>
0.4885

> <Gold.PLP.Chemscore.Hbond>
3.4080

> <Gold.PLP.Chemscore.CHOScore>
0.0000

> <Gold.PLP.Chemscore.Metal>
0.0000

> <Gold.Chemscore.Hbonds>
donor molecule, donor type, donor heavy atom, donor atom, acceptor molecule, acceptor atom, score
      L1  H     5    24       P1  7948  0.88
      L1  H     8    25       P1  7948  0.93
      L1  H    13    42       P1  7921  1.00
      P1  H  7989  7998       L1    19  0.55

> <Gold.PLP.Chemscore.Internal.Correction>
0.0378

> <Gold.Rescore>
     Score         DG    S(hbond)    S(metal)    S(lipo)     H(rot)  DE(clash)    DE(int)     intcor
     18.38     -20.38       2.86        0.00      78.93       1.51       0.41       1.59       ----

> <Gold.Chemscore.Fitness>
18.3803

> <Gold.Chemscore.DG>
-20.3779

> <Gold.Chemscore.ZeroCoef>
-5.4800

> <Gold.Chemscore.Hbond>
2.8564

> <Gold.Chemscore.Metal>
0.0000

> <Gold.Chemscore.Lipo>
78.9320

> <Gold.Chemscore.Internal_Hbond>
0.0000

> <Gold.Chemscore.DEClash>
0.4063

> <Gold.Chemscore.DEInternal>
1.5913

> <Gold.Chemscore.Rot>
1.5146

> <Gold.Chemscore.Internal.Correction>
   9.000000E+99

> <Gold.Chemscore.Hbonds>
donor molecule, donor type, donor heavy atom, donor atom, acceptor molecule, acceptor atom, score
      L1  H     5    24       P1  7948  0.86
      L1  H     8    25       P1  7948  0.91
      L1  H    13    42       P1  7921  0.74
      P1  H  7989  7998       L1    19  0.01

> <Gold.Chemscore.Hbond.Weighted>
-9.5402

> <Gold.Chemscore.Metal.Weighted>
-0.0000

> <Gold.Chemscore.Lipo.Weighted>
-9.2350

> <Gold.Chemscore.Internal_Hbond.Weighted>
0.0000

> <Gold.Chemscore.DEClash.Weighted>
0.4063

> <Gold.Chemscore.DEInternal.Weighted>
1.5913

> <Gold.Chemscore.Rot.Weighted>
3.8774

> <Gold.Chemscore.Internal.Correction.Weighted>
   9.000000E+99

> <Gold.Protein.RotatedTorsions>
[ 6907 6896 6895 6894 ] final  -31.36 input  -60.11 | X-H torsion
[ 7974 7965 7964 7962 ] final -101.33 input  175.53 | X-H torsion
[ 8008 7997 7996 7995 ] final -139.36 input   59.86 | X-H torsion
[ 10167 10162 10161 10158 ] final  -27.65 input  -65.29 | X-H torsion
[ 10718 10713 10712 10709 ] final   71.71 input   66.30 | X-H torsion
[ 10763 10752 10751 10750 ] final  -55.19 input  -60.55 | X-H torsion
[ 11005 11000 10999 10996 ] final   69.17 input  -57.11 | X-H torsion

> <Gold.Protein.ActiveResidues>
 VAL166  LYS551  ARG553  GLY616  TRP617  ASP618  TYR619  PRO620  LYS621  CYS622 
 ASP623  PHE694  ASN695  SER759  ASP760  ASP761  ALA762  ILE779  LEU786  VAL792 
 PHE793  MET794  SER795  GLU796  ALA797  LYS798  CYS799  TRP800  GLU811  SER814 

> <Gold.Protein.RotatedAtoms>
  151.0931  134.9928  159.8412 H   0  0  0  0  0  0  0  0  0  0  0  0  # atno 6907 bound_to 6896
  152.5431  134.2041  159.8734 H   0  0  0  0  0  0  0  0  0  0  0  0  # atno 6908 bound_to 6896
  151.2078  133.4529  159.2631 H   0  0  0  0  0  0  0  0  0  0  0  0  # atno 6909 bound_to 6896
  145.2831  140.9332  143.2921 H   0  0  0  0  0  0  0  0  0  0  0  0  # atno 7974 bound_to 7965
  155.4436  140.0533  157.3008 H   0  0  0  0  0  0  0  0  0  0  0  0  # atno 8008 bound_to 7997
  154.4807  140.2080  155.9727 H   0  0  0  0  0  0  0  0  0  0  0  0  # atno 8009 bound_to 7997
  156.1201  140.3189  155.8201 H   0  0  0  0  0  0  0  0  0  0  0  0  # atno 8010 bound_to 7997
  140.7276  143.4076  151.1160 H   0  0  0  0  0  0  0  0  0  0  0  0  # atno 10167 bound_to 10162
  157.6465  130.9542  150.0827 H   0  0  0  0  0  0  0  0  0  0  0  0  # atno 10718 bound_to 10713
  154.1868  135.6434  153.5049 H   0  0  0  0  0  0  0  0  0  0  0  0  # atno 10763 bound_to 10752
  153.0045  135.5419  154.6457 H   0  0  0  0  0  0  0  0  0  0  0  0  # atno 10764 bound_to 10752
  154.5835  135.2927  155.0681 H   0  0  0  0  0  0  0  0  0  0  0  0  # atno 10765 bound_to 10752
  139.9669  134.6965  156.0527 H   0  0  0  0  0  0  0  0  0  0  0  0  # atno 11005 bound_to 11000
  144.9237  139.4381  143.6529 LP  0  0  0  0  0  0  0  0  0  0  0  0  # atno 17320 bound_to 7965
  146.3210  139.8110  142.8946 LP  0  0  0  0  0  0  0  0  0  0  0  0  # atno 17321 bound_to 7965
  139.7704  143.8502  152.3119 LP  0  0  0  0  0  0  0  0  0  0  0  0  # atno 17342 bound_to 10162
  139.8419  144.7206  150.9321 LP  0  0  0  0  0  0  0  0  0  0  0  0  # atno 17343 bound_to 10162
  156.1799  130.3649  149.9050 LP  0  0  0  0  0  0  0  0  0  0  0  0  # atno 17370 bound_to 10713
  156.7004  130.8931  151.3599 LP  0  0  0  0  0  0  0  0  0  0  0  0  # atno 17371 bound_to 10713
  141.1349  133.6577  156.3565 LP  0  0  0  0  0  0  0  0  0  0  0  0  # atno 17394 bound_to 11000
  140.5377  134.6151  157.5370 LP  0  0  0  0  0  0  0  0  0  0  0  0  # atno 17395 bound_to 11000

$$$$
