AV-unprocessed.smi:2739|AV-procd|sdf|10550|dock10
  -GOLD-   2272015 03D 1   1.00000     0.00000
 Structure written by MMmdl.
 35 35  0  0  0  0  0  0  0  0  1 V2000
  152.4892  143.5407  160.5373 C   0  0  0  0  0  0  0  0  0  0  0  0
  152.6047  142.9108  159.1418 C   0  0  0  0  0  0  0  0  0  0  0  0
  152.1148  141.4521  159.0788 C   0  0  2  0  0  0  0  0  0  0  0  0
  153.0491  140.5081  159.8520 C   0  0  0  0  0  0  0  0  0  0  0  0
  152.0095  141.0123  157.6898 N   0  0  0  0  0  0  0  0  0  0  0  0
  150.8644  140.7795  157.0296 C   0  0  0  0  0  0  0  0  0  0  0  0
  149.7480  140.9425  157.5217 O   0  0  0  0  0  0  0  0  0  0  0  0
  150.9993  140.2662  155.5962 C   0  0  0  0  0  0  0  0  0  0  0  0
  149.7688  140.4803  154.8568 N   0  0  0  0  0  0  0  0  0  0  0  0
  149.1521  141.6740  154.5498 C   0  0  0  0  0  0  0  0  0  0  0  0
  148.0130  141.3753  153.8596 C   0  0  0  0  0  0  0  0  0  0  0  0
  148.0108  139.9514  153.7933 C   0  0  0  0  0  0  0  0  0  0  0  0
  146.9959  139.0434  153.1492 C   0  0  2  0  0  0  0  0  0  0  0  0
  146.8501  139.3370  151.6501 C   0  0  0  0  0  0  0  0  0  0  0  0
  145.7227  139.1581  153.7501 O   0  0  0  0  0  0  0  0  0  0  0  0
  149.0704  139.4228  154.3893 N   0  0  0  0  0  0  0  0  0  0  0  0
  152.8944  144.5528  160.5387 H   0  0  0  0  0  0  0  0  0  0  0  0
  153.0430  142.9611  161.2766 H   0  0  0  0  0  0  0  0  0  0  0  0
  151.4517  143.6012  160.8663 H   0  0  0  0  0  0  0  0  0  0  0  0
  152.0516  143.5189  158.4247 H   0  0  0  0  0  0  0  0  0  0  0  0
  153.6491  142.9505  158.8297 H   0  0  0  0  0  0  0  0  0  0  0  0
  151.1288  141.4123  159.5456 H   0  0  0  0  0  0  0  0  0  0  0  0
  153.1344  140.8090  160.8963 H   0  0  0  0  0  0  0  0  0  0  0  0
  154.0519  140.5041  159.4233 H   0  0  0  0  0  0  0  0  0  0  0  0
  152.6763  139.4833  159.8361 H   0  0  0  0  0  0  0  0  0  0  0  0
  152.8766  140.8457  157.1999 H   0  0  0  0  0  0  0  0  0  0  0  0
  151.8104  140.7903  155.0890 H   0  0  0  0  0  0  0  0  0  0  0  0
  151.2503  139.2039  155.5918 H   0  0  0  0  0  0  0  0  0  0  0  0
  149.5689  142.6248  154.8481 H   0  0  0  0  0  0  0  0  0  0  0  0
  147.2870  142.0696  153.4632 H   0  0  0  0  0  0  0  0  0  0  0  0
  147.3093  138.0057  153.2709 H   0  0  0  0  0  0  0  0  0  0  0  0
  147.7994  139.2051  151.1303 H   0  0  0  0  0  0  0  0  0  0  0  0
  146.5162  140.3608  151.4777 H   0  0  0  0  0  0  0  0  0  0  0  0
  146.1256  138.6671  151.1863 H   0  0  0  0  0  0  0  0  0  0  0  0
  145.0935  139.3669  153.0766 H   0  0  0  0  0  0  0  0  0  0  0  0
  1  2  1  0  0  0  0
  1 17  1  0  0  0  0
  1 18  1  0  0  0  0
  1 19  1  0  0  0  0
  2  3  1  0  0  0  0
  2 20  1  0  0  0  0
  2 21  1  0  0  0  0
  3  4  1  0  0  0  0
  3  5  1  0  0  0  0
  3 22  1  0  0  0  0
  4 23  1  0  0  0  0
  4 24  1  0  0  0  0
  4 25  1  0  0  0  0
  5  6  1  0  0  0  0
  5 26  1  0  0  0  0
  6  7  2  0  0  0  0
  6  8  1  0  0  0  0
  8  9  1  0  0  0  0
  8 27  1  0  0  0  0
  8 28  1  0  0  0  0
  9 16  1  0  0  0  0
  9 10  1  0  0  0  0
 10 11  2  0  0  0  0
 10 29  1  0  0  0  0
 11 12  1  0  0  0  0
 11 30  1  0  0  0  0
 12 13  1  0  0  0  0
 12 16  2  0  0  0  0
 13 14  1  0  0  0  0
 13 15  1  0  0  0  0
 13 31  1  0  0  0  0
 14 32  1  0  0  0  0
 14 33  1  0  0  0  0
 14 34  1  0  0  0  0
 15 35  1  0  0  0  0
M  END
> <s_m_source_file>
AV-unprocessed.smi

> <i_m_source_file_index>
2739

> <i_lp_mmshare_version>
43012

> <i_f3d_flags>
0

> <s_epik_input>
W0NIM11bQ0gyXVtDQEhdKFtDSDNdKVtOSF1DKD1PKVtDSDJdbjFbY0hdW2NIXWMobjEpW0NASF0oW0NIM10pW09IXQ==

> <s_epik_cmdline>
J2VwaWtfcHl0aG9uJywgJy1waCcsICc3LjAnLCAnLXRuJywgJzgnLCAnLW1hJywgJzIwMCcsICctbWV0YWxfYmluZGluZycsICctaW1hZScsICc8aW5maWxlLm1hZT4nLCAnLW9tYWUnLCAnPG91dGZpbGUubWFlPic=

> <r_lp_tautomer_probability>
1

> <r_epik_Ionization_Penalty>
5.22246e-06

> <r_epik_Ionization_Penalty_Charging>
0

> <r_epik_Ionization_Penalty_Neutral>
5.22246e-06

> <r_epik_State_Penalty>
-0

> <r_epik_Charging_Adjusted_Penalty>
0

> <i_epik_Tot_Q>
0

> <i_epik_Tot_abs_Q>
0

> <r_epik_Metal_State_Penalty>
-0

> <b_epik_Metal_Only>
0

> <s_lp_Force_Field>
OPLS_2005

> <r_lp_Energy>
0.862384

> <b_lp_Chiralities_Consistent>
1

> <s_lp_Variant>
AV-unprocessed.smi:2739-1

> <Gold.Version>
5.8.1

> <Gold.Id.Protein>
6NUR|6NUR_protein|mol2

> <Gold.PLP.Fitness>
38.7473

> <Gold.PLP.PLP>
-33.5588

> <Gold.PLP.part.hbond>
-1.0000

> <Gold.PLP.part.metal>
0.0000

> <Gold.PLP.part.buried>
1.3002

> <Gold.PLP.part.nonpolar>
-33.1346

> <Gold.PLP.part.repulsive>
0.2522

> <Gold.PLP.ligand.clash>
0.0000

> <Gold.PLP.ligand.torsion>
0.4193

> <Gold.PLP.Chemscore.Hbond>
1.0000

> <Gold.PLP.Chemscore.CHOScore>
1.0000

> <Gold.PLP.Chemscore.Metal>
0.0000

> <Gold.Chemscore.Hbonds>
donor molecule, donor type, donor heavy atom, donor atom, acceptor molecule, acceptor atom, score
      L1  H    15    35       P1 10175  0.98
      L1  C    10    29       P1  8028  1.00

> <Gold.PLP.Chemscore.Internal.Correction>
0.0271

> <Gold.Rescore>
     Score         DG    S(hbond)    S(metal)    S(lipo)     H(rot)  DE(clash)    DE(int)     intcor
     12.39     -12.93       0.99        0.00      86.64       2.34       0.19       0.36       ----

> <Gold.Chemscore.Fitness>
12.3873

> <Gold.Chemscore.DG>
-12.9347

> <Gold.Chemscore.ZeroCoef>
-5.4800

> <Gold.Chemscore.Hbond>
0.9943

> <Gold.Chemscore.Metal>
0.0000

> <Gold.Chemscore.Lipo>
86.6364

> <Gold.Chemscore.Internal_Hbond>
0.0000

> <Gold.Chemscore.DEClash>
0.1894

> <Gold.Chemscore.DEInternal>
0.3580

> <Gold.Chemscore.Rot>
2.3448

> <Gold.Chemscore.Internal.Correction>
   9.000000E+99

> <Gold.Chemscore.Hbonds>
donor molecule, donor type, donor heavy atom, donor atom, acceptor molecule, acceptor atom, score
      L1  H    15    35       P1 10175  0.93

> <Gold.Chemscore.Hbond.Weighted>
-3.3210

> <Gold.Chemscore.Metal.Weighted>
-0.0000

> <Gold.Chemscore.Lipo.Weighted>
-10.1365

> <Gold.Chemscore.Internal_Hbond.Weighted>
0.0000

> <Gold.Chemscore.DEClash.Weighted>
0.1894

> <Gold.Chemscore.DEInternal.Weighted>
0.3580

> <Gold.Chemscore.Rot.Weighted>
6.0027

> <Gold.Chemscore.Internal.Correction.Weighted>
   9.000000E+99

> <Gold.Protein.RotatedTorsions>
[ 6907 6896 6895 6894 ] final  138.79 input  -60.11 | X-H torsion
[ 7974 7965 7964 7962 ] final  -24.23 input  175.53 | X-H torsion
[ 8008 7997 7996 7995 ] final   36.48 input   59.86 | X-H torsion
[ 10167 10162 10161 10158 ] final  -73.47 input  -65.29 | X-H torsion
[ 10718 10713 10712 10709 ] final   44.15 input   66.30 | X-H torsion
[ 10763 10752 10751 10750 ] final  101.02 input  -60.55 | X-H torsion
[ 11005 11000 10999 10996 ] final  115.23 input  -57.11 | X-H torsion

> <Gold.Protein.ActiveResidues>
 VAL166  LYS551  ARG553  GLY616  TRP617  ASP618  TYR619  PRO620  LYS621  CYS622 
 ASP623  PHE694  ASN695  SER759  ASP760  ASP761  ALA762  ILE779  LEU786  VAL792 
 PHE793  MET794  SER795  GLU796  ALA797  LYS798  CYS799  TRP800  GLU811  SER814 

> <Gold.Protein.RotatedAtoms>
  152.2625  133.5310  159.5389 H   0  0  0  0  0  0  0  0  0  0  0  0  # atno 6907 bound_to 6896
  150.7130  134.0810  159.3907 H   0  0  0  0  0  0  0  0  0  0  0  0  # atno 6908 bound_to 6896
  151.8728  135.0483  160.0532 H   0  0  0  0  0  0  0  0  0  0  0  0  # atno 6909 bound_to 6896
  146.1567  140.4724  142.8588 H   0  0  0  0  0  0  0  0  0  0  0  0  # atno 7974 bound_to 7965
  155.1881  140.3305  155.4363 H   0  0  0  0  0  0  0  0  0  0  0  0  # atno 8008 bound_to 7997
  156.2452  140.1915  156.6926 H   0  0  0  0  0  0  0  0  0  0  0  0  # atno 8009 bound_to 7997
  154.6225  140.0593  156.9618 H   0  0  0  0  0  0  0  0  0  0  0  0  # atno 8010 bound_to 7997
  140.5108  143.2345  151.7597 H   0  0  0  0  0  0  0  0  0  0  0  0  # atno 10167 bound_to 10162
  157.4237  130.7984  149.7538 H   0  0  0  0  0  0  0  0  0  0  0  0  # atno 10718 bound_to 10713
  153.3213  135.4059  155.1419 H   0  0  0  0  0  0  0  0  0  0  0  0  # atno 10763 bound_to 10752
  154.8601  135.3588  154.5592 H   0  0  0  0  0  0  0  0  0  0  0  0  # atno 10764 bound_to 10752
  153.6026  135.7070  153.5437 H   0  0  0  0  0  0  0  0  0  0  0  0  # atno 10765 bound_to 10752
  139.9003  134.9580  156.7013 H   0  0  0  0  0  0  0  0  0  0  0  0  # atno 11005 bound_to 11000
  144.7973  140.6146  143.6502 LP  0  0  0  0  0  0  0  0  0  0  0  0  # atno 17320 bound_to 7965
  145.4690  139.1505  143.3824 LP  0  0  0  0  0  0  0  0  0  0  0  0  # atno 17321 bound_to 7965
  139.4895  144.4394  151.9782 LP  0  0  0  0  0  0  0  0  0  0  0  0  # atno 17342 bound_to 10162
  140.3486  144.3117  150.5953 LP  0  0  0  0  0  0  0  0  0  0  0  0  # atno 17343 bound_to 10162
  155.9889  130.3956  150.3097 LP  0  0  0  0  0  0  0  0  0  0  0  0  # atno 17370 bound_to 10713
  157.1247  131.0256  151.2994 LP  0  0  0  0  0  0  0  0  0  0  0  0  # atno 17371 bound_to 10713
  140.7148  133.9192  155.8108 LP  0  0  0  0  0  0  0  0  0  0  0  0  # atno 17394 bound_to 11000
  141.0272  134.0806  157.4054 LP  0  0  0  0  0  0  0  0  0  0  0  0  # atno 17395 bound_to 11000

$$$$
