AV-unprocessed.smi:2093|AV-procd|sdf|8551|dock4
  -GOLD-   2272011273D 1   1.00000     0.00000
 Structure written by MMmdl.
 30 31  0  0  0  0  0  0  0  0  2 V2000
  151.2573  140.6018  157.6882 C   0  0  0  0  0  0  0  0  0  0  0  0
  151.3094  142.0269  157.1088 C   0  0  1  0  0  0  0  0  0  0  0  0
  150.1922  142.2235  156.1875 N   0  0  0  0  0  0  0  0  0  0  0  0
  149.8519  141.4199  155.1695 C   0  0  0  0  0  0  0  0  0  0  0  0
  150.5072  140.3998  154.9438 O   0  0  0  0  0  0  0  0  0  0  0  0
  148.7717  141.8478  154.4769 N   0  5  0  0  0  0  0  0  0  0  0  0
  148.0671  140.9829  153.7293 C   0  0  0  0  0  0  0  0  0  0  0  0
  148.1999  139.6550  153.8281 N   0  0  0  0  0  0  0  0  0  0  0  0
  147.3654  138.9476  152.9609 C   0  0  0  0  0  0  0  0  0  0  0  0
  146.5709  139.7556  152.1912 C   0  0  0  0  0  0  0  0  0  0  0  0
  146.8511  141.4392  152.5328 S   0  0  0  0  0  0  0  0  0  0  0  0
  151.2500  143.1046  158.2086 C   0  0  1  0  0  0  0  0  0  0  0  0
  152.3468  143.0010  159.2705 C   0  0  0  0  0  0  0  0  0  0  0  0
  152.5018  144.4278  159.7759 C   0  0  0  0  0  0  0  0  0  0  0  0
  151.7412  145.2727  158.7512 C   0  0  0  0  0  0  0  0  0  0  0  0
  151.4935  144.3934  157.6646 O   0  0  0  0  0  0  0  0  0  0  0  0
  152.1016  140.4101  158.3502 H   0  0  0  0  0  0  0  0  0  0  0  0
  151.2919  139.8523  156.8971 H   0  0  0  0  0  0  0  0  0  0  0  0
  150.3421  140.4401  158.2585 H   0  0  0  0  0  0  0  0  0  0  0  0
  152.2469  142.1488  156.5632 H   0  0  0  0  0  0  0  0  0  0  0  0
  149.6301  143.0501  156.3278 H   0  0  0  0  0  0  0  0  0  0  0  0
  147.4013  137.8684  152.9602 H   0  0  0  0  0  0  0  0  0  0  0  0
  145.8423  139.4665  151.4491 H   0  0  0  0  0  0  0  0  0  0  0  0
  150.2691  143.1056  158.6891 H   0  0  0  0  0  0  0  0  0  0  0  0
  152.0956  142.2976  160.0648 H   0  0  0  0  0  0  0  0  0  0  0  0
  153.2828  142.6736  158.8156 H   0  0  0  0  0  0  0  0  0  0  0  0
  152.0753  144.5519  160.7720 H   0  0  0  0  0  0  0  0  0  0  0  0
  153.5548  144.7074  159.8237 H   0  0  0  0  0  0  0  0  0  0  0  0
  150.7889  145.6101  159.1626 H   0  0  0  0  0  0  0  0  0  0  0  0
  152.3029  146.1497  158.4289 H   0  0  0  0  0  0  0  0  0  0  0  0
  1  2  1  0  0  0  0
  1 17  1  0  0  0  0
  1 18  1  0  0  0  0
  1 19  1  0  0  0  0
  2  3  1  0  0  0  0
  2 12  1  0  0  0  0
  2 20  1  0  0  0  0
  3  4  1  0  0  0  0
  3 21  1  0  0  0  0
  4  5  2  0  0  0  0
  4  6  1  0  0  0  0
  6  7  1  0  0  0  0
  7 11  1  0  0  0  0
  7  8  2  0  0  0  0
  8  9  1  0  0  0  0
  9 10  2  0  0  0  0
  9 22  1  0  0  0  0
 10 11  1  0  0  0  0
 10 23  1  0  0  0  0
 12 16  1  0  0  0  0
 12 13  1  0  0  0  0
 12 24  1  0  0  0  0
 13 14  1  0  0  0  0
 13 25  1  0  0  0  0
 13 26  1  0  0  0  0
 14 15  1  0  0  0  0
 14 27  1  0  0  0  0
 14 28  1  0  0  0  0
 15 16  1  0  0  0  0
 15 29  1  0  0  0  0
 15 30  1  0  0  0  0
M  CHG  1   6  -1
M  END
> <s_m_source_file>
AV-unprocessed.smi

> <i_m_source_file_index>
2093

> <i_lp_mmshare_version>
43012

> <i_f3d_flags>
0

> <s_epik_input>
TzFbQ0gyXVtDSDJdW0NIMl1bQ0BIXTFbQ0BIXShbQ0gzXSlbTkhdQyg9TylbTkhdYzJuW2NIXVtjSF1zMg==

> <s_epik_cmdline>
J2VwaWtfcHl0aG9uJywgJy1waCcsICc3LjAnLCAnLXRuJywgJzgnLCAnLW1hJywgJzIwMCcsICctbWV0YWxfYmluZGluZycsICctaW1hZScsICc8aW5maWxlLm1hZT4nLCAnLW9tYWUnLCAnPG91dGZpbGUubWFlPic=

> <r_lp_tautomer_probability>
0.999

> <r_epik_Ionization_Penalty>
8.26346

> <r_epik_Ionization_Penalty_Charging>
6.6559

> <r_epik_Ionization_Penalty_Neutral>
1.60756

> <r_epik_State_Penalty>
6.65607

> <r_epik_Charging_Adjusted_Penalty>
13.312

> <i_epik_Tot_Q>
-1

> <i_epik_Tot_abs_Q>
1

> <r_epik_Metal_State_Penalty>
2.5789

> <b_epik_Metal_Only>
1

> <s_lp_Force_Field>
OPLS_2005

> <r_lp_Energy>
13.9073

> <b_lp_Chiralities_Consistent>
1

> <s_lp_Variant>
AV-unprocessed.smi:2093-8

> <Gold.Version>
5.8.1

> <Gold.Id.Protein>
6NUR|6NUR_protein|mol2

> <Gold.PLP.Fitness>
41.1153

> <Gold.PLP.PLP>
-29.4368

> <Gold.PLP.part.hbond>
-2.5904

> <Gold.PLP.part.metal>
0.0000

> <Gold.PLP.part.buried>
-2.0235

> <Gold.PLP.part.nonpolar>
-25.4858

> <Gold.PLP.part.repulsive>
1.1803

> <Gold.PLP.ligand.clash>
0.0000

> <Gold.PLP.ligand.torsion>
0.2209

> <Gold.PLP.Chemscore.Hbond>
1.9600

> <Gold.PLP.Chemscore.CHOScore>
2.0672

> <Gold.PLP.Chemscore.Metal>
0.0000

> <Gold.Chemscore.Hbonds>
donor molecule, donor type, donor heavy atom, donor atom, acceptor molecule, acceptor atom, score
      L1  H     3    21       P1  8028  1.00
      P1  H  7989  7998       L1     5  1.00
      L1  C     9    22       P1  7948  1.00
      L1  C    10    23       P1 10171  0.62
      L1  C    10    23       P1 10175  0.39

> <Gold.PLP.Chemscore.Internal.Correction>
0.0386

> <Gold.Rescore>
     Score         DG    S(hbond)    S(metal)    S(lipo)     H(rot)  DE(clash)    DE(int)     intcor
     12.53     -17.64       1.60        0.00      86.16       1.28       2.13       2.98       ----

> <Gold.Chemscore.Fitness>
12.5295

> <Gold.Chemscore.DG>
-17.6443

> <Gold.Chemscore.ZeroCoef>
-5.4800

> <Gold.Chemscore.Hbond>
1.6033

> <Gold.Chemscore.Metal>
0.0000

> <Gold.Chemscore.Lipo>
86.1586

> <Gold.Chemscore.Internal_Hbond>
0.0000

> <Gold.Chemscore.DEClash>
2.1300

> <Gold.Chemscore.DEInternal>
2.9848

> <Gold.Chemscore.Rot>
1.2778

> <Gold.Chemscore.Internal.Correction>
   9.000000E+99

> <Gold.Chemscore.Hbonds>
donor molecule, donor type, donor heavy atom, donor atom, acceptor molecule, acceptor atom, score
      L1  H     3    21       P1  8028  0.93
      P1  H  7989  7998       L1     5  0.43

> <Gold.Chemscore.Hbond.Weighted>
-5.3549

> <Gold.Chemscore.Metal.Weighted>
-0.0000

> <Gold.Chemscore.Lipo.Weighted>
-10.0806

> <Gold.Chemscore.Internal_Hbond.Weighted>
0.0000

> <Gold.Chemscore.DEClash.Weighted>
2.1300

> <Gold.Chemscore.DEInternal.Weighted>
2.9848

> <Gold.Chemscore.Rot.Weighted>
3.2711

> <Gold.Chemscore.Internal.Correction.Weighted>
   9.000000E+99

> <Gold.Protein.RotatedTorsions>
[ 6907 6896 6895 6894 ] final  171.41 input  -60.11 | X-H torsion
[ 7974 7965 7964 7962 ] final -179.33 input  175.53 | X-H torsion
[ 8008 7997 7996 7995 ] final   99.59 input   59.86 | X-H torsion
[ 10167 10162 10161 10158 ] final  -71.16 input  -65.29 | X-H torsion
[ 10718 10713 10712 10709 ] final  -17.38 input   66.30 | X-H torsion
[ 10763 10752 10751 10750 ] final -169.80 input  -60.55 | X-H torsion
[ 11005 11000 10999 10996 ] final  -10.36 input  -57.11 | X-H torsion

> <Gold.Protein.ActiveResidues>
 VAL166  LYS551  ARG553  GLY616  TRP617  ASP618  TYR619  PRO620  LYS621  CYS622 
 ASP623  PHE694  ASN695  SER759  ASP760  ASP761  ALA762  ILE779  LEU786  VAL792 
 PHE793  MET794  SER795  GLU796  ALA797  LYS798  CYS799  TRP800  GLU811  SER814 

> <Gold.Protein.RotatedAtoms>
  151.8007  133.3369  159.3525 H   0  0  0  0  0  0  0  0  0  0  0  0  # atno 6907 bound_to 6896
  150.7359  134.5756  159.5922 H   0  0  0  0  0  0  0  0  0  0  0  0  # atno 6908 bound_to 6896
  152.3145  134.7458  160.0380 H   0  0  0  0  0  0  0  0  0  0  0  0  # atno 6909 bound_to 6896
  144.7136  140.0734  143.6428 H   0  0  0  0  0  0  0  0  0  0  0  0  # atno 7974 bound_to 7965
  156.1120  140.3226  155.8086 H   0  0  0  0  0  0  0  0  0  0  0  0  # atno 8008 bound_to 7997
  155.4656  140.0543  157.3003 H   0  0  0  0  0  0  0  0  0  0  0  0  # atno 8009 bound_to 7997
  154.4766  140.2035  155.9877 H   0  0  0  0  0  0  0  0  0  0  0  0  # atno 8010 bound_to 7997
  140.5295  143.2323  151.7288 H   0  0  0  0  0  0  0  0  0  0  0  0  # atno 10167 bound_to 10162
  156.5744  130.4758  149.6348 H   0  0  0  0  0  0  0  0  0  0  0  0  # atno 10718 bound_to 10713
  154.6484  135.2908  155.0017 H   0  0  0  0  0  0  0  0  0  0  0  0  # atno 10763 bound_to 10752
  154.1119  135.6561  153.4890 H   0  0  0  0  0  0  0  0  0  0  0  0  # atno 10764 bound_to 10752
  153.0363  135.5267  154.7381 H   0  0  0  0  0  0  0  0  0  0  0  0  # atno 10765 bound_to 10752
  140.7439  133.8648  155.8990 H   0  0  0  0  0  0  0  0  0  0  0  0  # atno 11005 bound_to 11000
  145.9764  139.2908  143.1068 LP  0  0  0  0  0  0  0  0  0  0  0  0  # atno 17320 bound_to 7965
  145.9059  140.9212  143.0479 LP  0  0  0  0  0  0  0  0  0  0  0  0  # atno 17321 bound_to 7965
  139.4949  144.4136  152.0054 LP  0  0  0  0  0  0  0  0  0  0  0  0  # atno 17342 bound_to 10162
  140.3237  144.3398  150.6003 LP  0  0  0  0  0  0  0  0  0  0  0  0  # atno 17343 bound_to 10162
  156.2686  130.7004  151.1794 LP  0  0  0  0  0  0  0  0  0  0  0  0  # atno 17370 bound_to 10713
  157.7341  131.0585  150.5543 LP  0  0  0  0  0  0  0  0  0  0  0  0  # atno 17371 bound_to 10713
  140.9812  134.1403  157.4492 LP  0  0  0  0  0  0  0  0  0  0  0  0  # atno 17394 bound_to 11000
  139.8800  135.0011  156.6048 LP  0  0  0  0  0  0  0  0  0  0  0  0  # atno 17395 bound_to 11000

$$$$
