AV-unprocessed.smi:155|AV-procd|sdf|1277|dock1
  -GOLD-   2262018543D 1   1.00000     0.00000
 Structure written by MMmdl.
 63 66  0  0  0  0  0  0  0  0  2 V2000
  148.2397  129.0064  153.1520 C   0  0  0  0  0  0  0  0  0  0  0  0
  147.6010  130.1805  152.5161 N   0  3  0  0  0  0  0  0  0  0  0  0
  146.2816  129.8344  151.9387 C   0  0  0  0  0  0  0  0  0  0  0  0
  147.5577  131.3515  153.4272 C   0  0  0  0  0  0  0  0  0  0  0  0
  148.7966  131.4315  154.3453 C   0  0  0  0  0  0  0  0  0  0  0  0
  148.8948  132.7314  155.0137 N   0  0  0  0  0  0  0  0  0  0  0  0
  149.5409  132.5697  156.3212 C   0  0  0  0  0  0  0  0  0  0  0  0
  149.5327  133.8523  157.1714 C   0  0  0  0  0  0  0  0  0  0  0  0
  150.6423  134.8451  156.7876 C   0  0  0  0  0  0  0  0  0  0  0  0
  150.3553  135.6114  155.5744 N   0  0  0  0  0  0  0  0  0  0  0  0
  150.6869  136.9298  155.5763 C   0  0  0  0  0  0  0  0  0  0  0  0
  150.4681  137.6718  154.4576 N   0  0  0  0  0  0  0  0  0  0  0  0
  150.7696  138.9733  154.4374 C   0  0  0  0  0  0  0  0  0  0  0  0
  151.2938  139.7237  155.4079 N   0  0  0  0  0  0  0  0  0  0  0  0
  151.5259  138.9857  156.5307 C   0  0  0  0  0  0  0  0  0  0  0  0
  151.2552  137.5978  156.7004 C   0  0  0  0  0  0  0  0  0  0  0  0
  151.6370  137.1981  157.9771 N   0  0  0  0  0  0  0  0  0  0  0  0
  152.0947  138.2868  158.5318 C   0  0  0  0  0  0  0  0  0  0  0  0
  152.0628  139.4072  157.7344 N   0  0  0  0  0  0  0  0  0  0  0  0
  152.5055  140.7414  158.0988 C   0  0  0  0  0  0  0  0  0  0  0  0
  151.5160  141.4514  159.0436 C   0  0  2  0  0  0  0  0  0  0  0  0
  150.2475  141.5265  158.4210 O   0  0  0  0  0  0  0  0  0  0  0  0
  151.9777  142.8741  159.4077 C   0  0  1  0  0  0  0  0  0  0  0  0
  152.0166  143.8476  158.2302 C   0  0  0  0  0  0  0  0  0  0  0  0
  151.9696  145.1831  158.9376 C   0  0  0  0  0  0  0  0  0  0  0  0
  151.0475  144.8970  160.1219 C   0  0  0  0  0  0  0  0  0  0  0  0
  151.0569  143.4832  160.3070 O   0  0  0  0  0  0  0  0  0  0  0  0
  149.4126  135.1140  154.5724 C   0  0  0  0  0  0  0  0  0  0  0  0
  149.6729  133.6501  154.1799 C   0  0  0  0  0  0  0  0  0  0  0  0
  147.6669  128.6713  154.0177 H   0  0  0  0  0  0  0  0  0  0  0  0
  149.2515  129.2451  153.4823 H   0  0  0  0  0  0  0  0  0  0  0  0
  148.3124  128.1767  152.4481 H   0  0  0  0  0  0  0  0  0  0  0  0
  145.5633  129.5889  152.7221 H   0  0  0  0  0  0  0  0  0  0  0  0
  146.3677  128.9732  151.2752 H   0  0  0  0  0  0  0  0  0  0  0  0
  145.8772  130.6545  151.3463 H   0  0  0  0  0  0  0  0  0  0  0  0
  147.4542  132.2696  152.8463 H   0  0  0  0  0  0  0  0  0  0  0  0
  146.6534  131.2694  154.0284 H   0  0  0  0  0  0  0  0  0  0  0  0
  148.7957  130.6269  155.0827 H   0  0  0  0  0  0  0  0  0  0  0  0
  149.6783  131.2786  153.7231 H   0  0  0  0  0  0  0  0  0  0  0  0
  149.0123  131.8087  156.8921 H   0  0  0  0  0  0  0  0  0  0  0  0
  150.5611  132.2011  156.2013 H   0  0  0  0  0  0  0  0  0  0  0  0
  148.5508  134.3277  157.1689 H   0  0  0  0  0  0  0  0  0  0  0  0
  149.7100  133.5555  158.2055 H   0  0  0  0  0  0  0  0  0  0  0  0
  150.7694  135.5334  157.6242 H   0  0  0  0  0  0  0  0  0  0  0  0
  151.5933  134.3250  156.6685 H   0  0  0  0  0  0  0  0  0  0  0  0
  150.5596  139.4874  153.5111 H   0  0  0  0  0  0  0  0  0  0  0  0
  152.4690  138.3035  159.5452 H   0  0  0  0  0  0  0  0  0  0  0  0
  153.4840  140.6531  158.5723 H   0  0  0  0  0  0  0  0  0  0  0  0
  152.6528  141.3256  157.1895 H   0  0  0  0  0  0  0  0  0  0  0  0
  151.4071  140.8644  159.9564 H   0  0  0  0  0  0  0  0  0  0  0  0
  150.1601  142.3779  158.0201 H   0  0  0  0  0  0  0  0  0  0  0  0
  152.9563  142.8466  159.8910 H   0  0  0  0  0  0  0  0  0  0  0  0
  152.9022  143.7279  157.6054 H   0  0  0  0  0  0  0  0  0  0  0  0
  151.1336  143.7261  157.6008 H   0  0  0  0  0  0  0  0  0  0  0  0
  152.9655  145.4479  159.2952 H   0  0  0  0  0  0  0  0  0  0  0  0
  151.6095  145.9925  158.3023 H   0  0  0  0  0  0  0  0  0  0  0  0
  151.3776  145.4119  161.0246 H   0  0  0  0  0  0  0  0  0  0  0  0
  150.0264  145.2124  159.9062 H   0  0  0  0  0  0  0  0  0  0  0  0
  148.3853  135.2607  154.9086 H   0  0  0  0  0  0  0  0  0  0  0  0
  149.5247  135.7115  153.6666 H   0  0  0  0  0  0  0  0  0  0  0  0
  150.7362  133.4035  154.1765 H   0  0  0  0  0  0  0  0  0  0  0  0
  149.3336  133.5508  153.1482 H   0  0  0  0  0  0  0  0  0  0  0  0
  148.1991  130.4388  151.7441 H   0  0  0  0  0  0  0  0  0  0  0  0
  1  2  1  0  0  0  0
  1 30  1  0  0  0  0
  1 31  1  0  0  0  0
  1 32  1  0  0  0  0
  2  3  1  0  0  0  0
  2  4  1  0  0  0  0
  2 63  1  0  0  0  0
  3 33  1  0  0  0  0
  3 34  1  0  0  0  0
  3 35  1  0  0  0  0
  4  5  1  0  0  0  0
  4 36  1  0  0  0  0
  4 37  1  0  0  0  0
  5  6  1  0  0  0  0
  5 38  1  0  0  0  0
  5 39  1  0  0  0  0
  6 29  1  0  0  0  0
  6  7  1  0  0  0  0
  7  8  1  0  0  0  0
  7 40  1  0  0  0  0
  7 41  1  0  0  0  0
  8  9  1  0  0  0  0
  8 42  1  0  0  0  0
  8 43  1  0  0  0  0
  9 10  1  0  0  0  0
  9 44  1  0  0  0  0
  9 45  1  0  0  0  0
 10 11  1  0  0  0  0
 10 28  1  0  0  0  0
 11 16  1  0  0  0  0
 11 12  2  0  0  0  0
 12 13  1  0  0  0  0
 13 14  2  0  0  0  0
 13 46  1  0  0  0  0
 14 15  1  0  0  0  0
 15 19  1  0  0  0  0
 15 16  2  0  0  0  0
 16 17  1  0  0  0  0
 17 18  2  0  0  0  0
 18 19  1  0  0  0  0
 18 47  1  0  0  0  0
 19 20  1  0  0  0  0
 20 21  1  0  0  0  0
 20 48  1  0  0  0  0
 20 49  1  0  0  0  0
 21 22  1  0  0  0  0
 21 23  1  0  0  0  0
 21 50  1  0  0  0  0
 22 51  1  0  0  0  0
 23 27  1  0  0  0  0
 23 24  1  0  0  0  0
 23 52  1  0  0  0  0
 24 25  1  0  0  0  0
 24 53  1  0  0  0  0
 24 54  1  0  0  0  0
 25 26  1  0  0  0  0
 25 55  1  0  0  0  0
 25 56  1  0  0  0  0
 26 27  1  0  0  0  0
 26 57  1  0  0  0  0
 26 58  1  0  0  0  0
 28 29  1  0  0  0  0
 28 59  1  0  0  0  0
 28 60  1  0  0  0  0
 29 61  1  0  0  0  0
 29 62  1  0  0  0  0
M  CHG  1   2   1
M  END
> <s_m_source_file>
AV-unprocessed.smi

> <i_m_source_file_index>
155

> <i_lp_mmshare_version>
43012

> <i_f3d_flags>
0

> <s_epik_input>
W0NIM11OKFtDSDNdKVtDSDJdW0NIMl1OMVtDSDJdW0NIMl1bQ0gyXU4oW0NIMl1bQ0gyXTEpYyhuW2NIXW4yKWMoYzIzKW5bY0hdbjNbQ0gyXVtDQEhdKFtPSF0pW0NAQEhdNFtDSDJdW0NIMl1bQ0gyXU80

> <s_epik_cmdline>
J2VwaWtfcHl0aG9uJywgJy1waCcsICc3LjAnLCAnLXRuJywgJzgnLCAnLW1hJywgJzIwMCcsICctbWV0YWxfYmluZGluZycsICctaW1hZScsICc8aW5maWxlLm1hZT4nLCAnLW9tYWUnLCAnPG91dGZpbGUubWFlPic=

> <r_lp_tautomer_probability>
1

> <r_epik_Ionization_Penalty>
0.0599493

> <r_epik_Ionization_Penalty_Charging>
0.00816363

> <r_epik_Ionization_Penalty_Neutral>
0.0517857

> <r_epik_State_Penalty>
0.460607

> <r_epik_Charging_Adjusted_Penalty>
0.468771

> <i_epik_Tot_Q>
1

> <i_epik_Tot_abs_Q>
1

> <r_epik_Metal_State_Penalty>
0.45965

> <b_epik_Metal_Only>
0

> <s_lp_Force_Field>
OPLS_2005

> <r_lp_Energy>
54.9456

> <b_lp_Chiralities_Consistent>
1

> <s_lp_Variant>
AV-unprocessed.smi:155-11

> <Gold.Version>
5.8.1

> <Gold.Id.Protein>
6NUR|6NUR_protein|mol2

> <Gold.PLP.Fitness>
50.1860

> <Gold.PLP.PLP>
-45.6439

> <Gold.PLP.part.hbond>
-2.4688

> <Gold.PLP.part.metal>
0.0000

> <Gold.PLP.part.buried>
-4.8949

> <Gold.PLP.part.nonpolar>
-39.0097

> <Gold.PLP.part.repulsive>
0.3619

> <Gold.PLP.ligand.clash>
0.0000

> <Gold.PLP.ligand.torsion>
0.9191

> <Gold.PLP.Chemscore.Hbond>
1.0000

> <Gold.PLP.Chemscore.CHOScore>
1.0000

> <Gold.PLP.Chemscore.Metal>
0.0000

> <Gold.Chemscore.Hbonds>
donor molecule, donor type, donor heavy atom, donor atom, acceptor molecule, acceptor atom, score
      L1  H     2    63       P1 10747  1.00
      L1  C    13    46       P1  7957  0.87

> <Gold.PLP.Chemscore.Internal.Correction>
0.3803

> <Gold.Rescore>
     Score         DG    S(hbond)    S(metal)    S(lipo)     H(rot)  DE(clash)    DE(int)     intcor
     12.25     -15.42       1.03        0.00     114.72       2.71       1.06       2.10       ----

> <Gold.Chemscore.Fitness>
12.2521

> <Gold.Chemscore.DG>
-15.4193

> <Gold.Chemscore.ZeroCoef>
-5.4800

> <Gold.Chemscore.Hbond>
1.0327

> <Gold.Chemscore.Metal>
0.0000

> <Gold.Chemscore.Lipo>
114.7234

> <Gold.Chemscore.Internal_Hbond>
0.0000

> <Gold.Chemscore.DEClash>
1.0637

> <Gold.Chemscore.DEInternal>
2.1035

> <Gold.Chemscore.Rot>
2.7080

> <Gold.Chemscore.Internal.Correction>
   9.000000E+99

> <Gold.Chemscore.Hbonds>
donor molecule, donor type, donor heavy atom, donor atom, acceptor molecule, acceptor atom, score
      L1  H     2    63       P1 10747  0.98

> <Gold.Chemscore.Hbond.Weighted>
-3.4492

> <Gold.Chemscore.Metal.Weighted>
-0.0000

> <Gold.Chemscore.Lipo.Weighted>
-13.4226

> <Gold.Chemscore.Internal_Hbond.Weighted>
0.0000

> <Gold.Chemscore.DEClash.Weighted>
1.0637

> <Gold.Chemscore.DEInternal.Weighted>
2.1035

> <Gold.Chemscore.Rot.Weighted>
6.9326

> <Gold.Chemscore.Internal.Correction.Weighted>
   9.000000E+99

> <Gold.Protein.RotatedTorsions>
[ 6907 6896 6895 6894 ] final  -94.07 input  -60.11 | X-H torsion
[ 7974 7965 7964 7962 ] final  100.06 input  175.53 | X-H torsion
[ 8008 7997 7996 7995 ] final  135.55 input   59.86 | X-H torsion
[ 10167 10162 10161 10158 ] final  -24.54 input  -65.29 | X-H torsion
[ 10718 10713 10712 10709 ] final   90.52 input   66.30 | X-H torsion
[ 10763 10752 10751 10750 ] final  147.42 input  -60.55 | X-H torsion
[ 11005 11000 10999 10996 ] final  -38.93 input  -57.11 | X-H torsion

> <Gold.Protein.ActiveResidues>
 VAL166  LYS551  ARG553  GLY616  TRP617  ASP618  TYR619  PRO620  LYS621  CYS622 
 ASP623  PHE694  ASN695  SER759  ASP760  ASP761  ALA762  ILE779  LEU786  VAL792 
 PHE793  MET794  SER795  GLU796  ALA797  LYS798  CYS799  TRP800  GLU811  SER814 

> <Gold.Protein.RotatedAtoms>
  150.6934  134.1869  159.4269 H   0  0  0  0  0  0  0  0  0  0  0  0  # atno 6907 bound_to 6896
  151.9841  135.0011  160.0568 H   0  0  0  0  0  0  0  0  0  0  0  0  # atno 6908 bound_to 6896
  152.1728  133.4620  159.4954 H   0  0  0  0  0  0  0  0  0  0  0  0  # atno 6909 bound_to 6896
  145.3906  139.2363  143.3354 H   0  0  0  0  0  0  0  0  0  0  0  0  # atno 7974 bound_to 7965
  156.3003  140.2468  156.3599 H   0  0  0  0  0  0  0  0  0  0  0  0  # atno 8008 bound_to 7997
  154.8887  140.0410  157.1845 H   0  0  0  0  0  0  0  0  0  0  0  0  # atno 8009 bound_to 7997
  154.8620  140.2922  155.5537 H   0  0  0  0  0  0  0  0  0  0  0  0  # atno 8010 bound_to 7997
  140.7288  143.4344  151.0752 H   0  0  0  0  0  0  0  0  0  0  0  0  # atno 10167 bound_to 10162
  157.6959  131.0373  150.3590 H   0  0  0  0  0  0  0  0  0  0  0  0  # atno 10718 bound_to 10713
  154.0381  135.2892  155.3359 H   0  0  0  0  0  0  0  0  0  0  0  0  # atno 10763 bound_to 10752
  154.6946  135.5213  153.8444 H   0  0  0  0  0  0  0  0  0  0  0  0  # atno 10764 bound_to 10752
  153.0611  135.6614  154.0587 H   0  0  0  0  0  0  0  0  0  0  0  0  # atno 10765 bound_to 10752
  141.0064  133.6929  156.2119 H   0  0  0  0  0  0  0  0  0  0  0  0  # atno 11005 bound_to 11000
  146.2799  140.4589  142.8780 LP  0  0  0  0  0  0  0  0  0  0  0  0  # atno 17320 bound_to 7965
  144.8442  140.6904  143.6209 LP  0  0  0  0  0  0  0  0  0  0  0  0  # atno 17321 bound_to 7965
  139.8004  143.8092  152.3162 LP  0  0  0  0  0  0  0  0  0  0  0  0  # atno 17342 bound_to 10162
  139.8106  144.7337  150.9702 LP  0  0  0  0  0  0  0  0  0  0  0  0  # atno 17343 bound_to 10162
  156.4029  130.3919  149.6947 LP  0  0  0  0  0  0  0  0  0  0  0  0  # atno 17370 bound_to 10713
  156.4258  130.7791  151.2809 LP  0  0  0  0  0  0  0  0  0  0  0  0  # atno 17371 bound_to 10713
  140.6805  134.4772  157.5589 LP  0  0  0  0  0  0  0  0  0  0  0  0  # atno 17394 bound_to 11000
  139.9066  134.8436  156.1684 LP  0  0  0  0  0  0  0  0  0  0  0  0  # atno 17395 bound_to 11000

$$$$
