AV-unprocessed.smi:193|AV-procd|sdf|1518|dock9
  -GOLD-   2262019353D 1   1.00000     0.00000
 Structure written by MMmdl.
 61 65  0  0  0  0  0  0  0  0  1 V2000
  148.5362  141.6918  153.5765 C   0  0  0  0  0  0  0  0  0  0  0  0
  148.8038  140.6767  154.6988 C   0  0  2  0  0  0  0  0  0  0  0  0
  147.5718  139.7613  154.8678 C   0  0  0  0  0  0  0  0  0  0  0  0
  147.8447  138.5032  155.5665 N   0  0  0  0  0  0  0  0  0  0  0  0
  147.2959  137.3696  155.0531 C   0  0  0  0  0  0  0  0  0  0  0  0
  147.6006  136.1705  155.6177 N   0  0  0  0  0  0  0  0  0  0  0  0
  147.0892  135.0388  155.1257 C   0  0  0  0  0  0  0  0  0  0  0  0
  146.2605  134.8781  154.0932 N   0  0  0  0  0  0  0  0  0  0  0  0
  145.9383  136.0754  153.5268 C   0  0  0  0  0  0  0  0  0  0  0  0
  146.4073  137.3563  153.9376 C   0  0  0  0  0  0  0  0  0  0  0  0
  145.8551  138.3395  153.1237 N   0  0  0  0  0  0  0  0  0  0  0  0
  145.1149  137.6788  152.2769 C   0  0  0  0  0  0  0  0  0  0  0  0
  145.0962  136.3140  152.4539 N   0  0  0  0  0  0  0  0  0  0  0  0
  144.3553  135.3438  151.6606 C   0  0  0  0  0  0  0  0  0  0  0  0
  145.2312  134.5377  150.6625 C   0  0  0  0  0  0  0  0  0  0  0  0
  145.7235  135.4460  149.6945 O   0  0  0  0  0  0  0  0  0  0  0  0
  146.4530  133.9034  151.3564 C   0  0  0  0  0  0  0  0  0  0  0  0
  146.0555  132.6773  152.1980 C   0  0  0  0  0  0  0  0  0  0  0  0
  145.3746  131.7269  151.3857 O   0  0  0  0  0  0  0  0  0  0  0  0
  144.1647  132.2314  150.8315 C   0  0  0  0  0  0  0  0  0  0  0  0
  144.4690  133.4259  149.9100 C   0  0  0  0  0  0  0  0  0  0  0  0
  148.9544  138.3843  156.5124 C   0  0  0  0  0  0  0  0  0  0  0  0
  149.0214  139.5535  157.5054 C   0  0  0  0  0  0  0  0  0  0  0  0
  149.8668  140.6233  156.9836 N   0  0  0  0  0  0  0  0  0  0  0  0
  150.2394  141.4951  158.0879 C   0  0  1  0  0  0  0  0  0  0  0  0
  151.5930  141.2755  158.7250 C   0  0  0  0  0  0  0  0  0  0  0  0
  151.3595  142.4863  157.8521 C   0  0  2  0  0  0  0  0  0  0  0  0
  151.3020  143.8720  158.4576 C   0  0  0  0  0  0  0  0  0  0  0  0
  149.1477  141.4334  156.0013 C   0  0  0  0  0  0  0  0  0  0  0  0
  147.6895  142.3353  153.8178 H   0  0  0  0  0  0  0  0  0  0  0  0
  148.3154  141.1898  152.6341 H   0  0  0  0  0  0  0  0  0  0  0  0
  149.4031  142.3311  153.4070 H   0  0  0  0  0  0  0  0  0  0  0  0
  149.6623  140.0825  154.3811 H   0  0  0  0  0  0  0  0  0  0  0  0
  146.7721  140.2917  155.3858 H   0  0  0  0  0  0  0  0  0  0  0  0
  147.1905  139.5313  153.8721 H   0  0  0  0  0  0  0  0  0  0  0  0
  147.3879  134.1323  155.6313 H   0  0  0  0  0  0  0  0  0  0  0  0
  144.5520  138.1734  151.4984 H   0  0  0  0  0  0  0  0  0  0  0  0
  143.8531  134.6629  152.3495 H   0  0  0  0  0  0  0  0  0  0  0  0
  143.5600  135.8746  151.1380 H   0  0  0  0  0  0  0  0  0  0  0  0
  146.0067  134.9532  148.9397 H   0  0  0  0  0  0  0  0  0  0  0  0
  147.1747  133.5801  150.6043 H   0  0  0  0  0  0  0  0  0  0  0  0
  146.9684  134.6373  151.9772 H   0  0  0  0  0  0  0  0  0  0  0  0
  146.9478  132.2057  152.6101 H   0  0  0  0  0  0  0  0  0  0  0  0
  145.4321  132.9613  153.0466 H   0  0  0  0  0  0  0  0  0  0  0  0
  143.6824  131.4365  150.2625 H   0  0  0  0  0  0  0  0  0  0  0  0
  143.4761  132.5079  151.6301 H   0  0  0  0  0  0  0  0  0  0  0  0
  143.5510  133.8043  149.4609 H   0  0  0  0  0  0  0  0  0  0  0  0
  145.0790  133.0650  149.0806 H   0  0  0  0  0  0  0  0  0  0  0  0
  148.8115  137.4754  157.0985 H   0  0  0  0  0  0  0  0  0  0  0  0
  149.8979  138.2597  155.9793 H   0  0  0  0  0  0  0  0  0  0  0  0
  148.0318  139.9120  157.7944 H   0  0  0  0  0  0  0  0  0  0  0  0
  149.4883  139.1722  158.4147 H   0  0  0  0  0  0  0  0  0  0  0  0
  149.4579  141.8278  158.7696 H   0  0  0  0  0  0  0  0  0  0  0  0
  151.6699  141.4302  159.7993 H   0  0  0  0  0  0  0  0  0  0  0  0
  152.2224  140.4828  158.3242 H   0  0  0  0  0  0  0  0  0  0  0  0
  151.8296  142.4601  156.8706 H   0  0  0  0  0  0  0  0  0  0  0  0
  150.8261  143.8474  159.4385 H   0  0  0  0  0  0  0  0  0  0  0  0
  150.7309  144.5386  157.8112 H   0  0  0  0  0  0  0  0  0  0  0  0
  152.3093  144.2735  158.5699 H   0  0  0  0  0  0  0  0  0  0  0  0
  149.7920  142.2760  155.7459 H   0  0  0  0  0  0  0  0  0  0  0  0
  148.2472  141.8628  156.4438 H   0  0  0  0  0  0  0  0  0  0  0  0
  1  2  1  0  0  0  0
  1 30  1  0  0  0  0
  1 31  1  0  0  0  0
  1 32  1  0  0  0  0
  2 29  1  0  0  0  0
  2  3  1  0  0  0  0
  2 33  1  0  0  0  0
  3  4  1  0  0  0  0
  3 34  1  0  0  0  0
  3 35  1  0  0  0  0
  4  5  1  0  0  0  0
  4 22  1  0  0  0  0
  5 10  1  0  0  0  0
  5  6  2  0  0  0  0
  6  7  1  0  0  0  0
  7  8  2  0  0  0  0
  7 36  1  0  0  0  0
  8  9  1  0  0  0  0
  9 13  1  0  0  0  0
  9 10  2  0  0  0  0
 10 11  1  0  0  0  0
 11 12  2  0  0  0  0
 12 13  1  0  0  0  0
 12 37  1  0  0  0  0
 13 14  1  0  0  0  0
 14 15  1  0  0  0  0
 14 38  1  0  0  0  0
 14 39  1  0  0  0  0
 15 21  1  0  0  0  0
 15 16  1  0  0  0  0
 15 17  1  0  0  0  0
 16 40  1  0  0  0  0
 17 18  1  0  0  0  0
 17 41  1  0  0  0  0
 17 42  1  0  0  0  0
 18 19  1  0  0  0  0
 18 43  1  0  0  0  0
 18 44  1  0  0  0  0
 19 20  1  0  0  0  0
 20 21  1  0  0  0  0
 20 45  1  0  0  0  0
 20 46  1  0  0  0  0
 21 47  1  0  0  0  0
 21 48  1  0  0  0  0
 22 23  1  0  0  0  0
 22 49  1  0  0  0  0
 22 50  1  0  0  0  0
 23 24  1  0  0  0  0
 23 51  1  0  0  0  0
 23 52  1  0  0  0  0
 24 25  1  0  0  0  0
 24 29  1  0  0  0  0
 25 27  1  0  0  0  0
 25 26  1  0  0  0  0
 25 53  1  0  0  0  0
 26 27  1  0  0  0  0
 26 54  1  0  0  0  0
 26 55  1  0  0  0  0
 27 28  1  0  0  0  0
 27 56  1  0  0  0  0
 28 57  1  0  0  0  0
 28 58  1  0  0  0  0
 28 59  1  0  0  0  0
 29 60  1  0  0  0  0
 29 61  1  0  0  0  0
M  END
> <s_m_source_file>
AV-unprocessed.smi

> <i_m_source_file_index>
193

> <i_lp_mmshare_version>
43012

> <i_f3d_flags>
0

> <s_epik_input>
W0NIM11bQ0BASF0xW0NIMl1bQ0BIXTFOKFtDSDJdMilbQ0gyXVtDSDJdTihbQ0gyXVtDQEhdMltDSDNdKWMobltjSF1uMyljKGMzNCluW2NIXW40W0NIMl1DNShbT0hdKVtDSDJdW0NIMl1PW0NIMl1bQ0gyXTU=

> <s_epik_cmdline>
J2VwaWtfcHl0aG9uJywgJy1waCcsICc3LjAnLCAnLXRuJywgJzgnLCAnLW1hJywgJzIwMCcsICctbWV0YWxfYmluZGluZycsICctaW1hZScsICc8aW5maWxlLm1hZT4nLCAnLW9tYWUnLCAnPG91dGZpbGUubWFlPic=

> <r_lp_tautomer_probability>
1

> <r_epik_Ionization_Penalty>
1.45227

> <r_epik_Ionization_Penalty_Charging>
0

> <r_epik_Ionization_Penalty_Neutral>
1.45227

> <r_epik_State_Penalty>
2.02377

> <r_epik_Charging_Adjusted_Penalty>
2.02377

> <i_epik_Tot_Q>
0

> <i_epik_Tot_abs_Q>
0

> <r_epik_Metal_State_Penalty>
2.01937

> <b_epik_Metal_Only>
0

> <s_lp_Force_Field>
OPLS_2005

> <r_lp_Energy>
49.0818

> <b_lp_Chiralities_Consistent>
1

> <s_lp_Variant>
AV-unprocessed.smi:193-23

> <Gold.Version>
5.8.1

> <Gold.Id.Protein>
6NUR|6NUR_protein|mol2

> <Gold.PLP.Fitness>
44.8414

> <Gold.PLP.PLP>
-36.9478

> <Gold.PLP.part.hbond>
-1.6809

> <Gold.PLP.part.metal>
0.0000

> <Gold.PLP.part.buried>
-8.1916

> <Gold.PLP.part.nonpolar>
-28.6386

> <Gold.PLP.part.repulsive>
0.4907

> <Gold.PLP.ligand.clash>
0.0000

> <Gold.PLP.ligand.torsion>
0.8889

> <Gold.PLP.Chemscore.Hbond>
1.0000

> <Gold.PLP.Chemscore.CHOScore>
1.8041

> <Gold.PLP.Chemscore.Metal>
0.0000

> <Gold.Chemscore.Hbonds>
donor molecule, donor type, donor heavy atom, donor atom, acceptor molecule, acceptor atom, score
      L1  H    16    40       P1  7921  0.46
      L1  C    12    37       P1 10171  0.58
      L1  C    12    37       P1 10175  0.47

> <Gold.PLP.Chemscore.Internal.Correction>
1.2593

> <Gold.Rescore>
     Score         DG    S(hbond)    S(metal)    S(lipo)     H(rot)  DE(clash)    DE(int)     intcor
     12.97     -15.67       1.00        0.00     100.40       1.91       0.38       2.32       ----

> <Gold.Chemscore.Fitness>
12.9719

> <Gold.Chemscore.DG>
-15.6742

> <Gold.Chemscore.ZeroCoef>
-5.4800

> <Gold.Chemscore.Hbond>
0.9968

> <Gold.Chemscore.Metal>
0.0000

> <Gold.Chemscore.Lipo>
100.3954

> <Gold.Chemscore.Internal_Hbond>
0.0000

> <Gold.Chemscore.DEClash>
0.3777

> <Gold.Chemscore.DEInternal>
2.3246

> <Gold.Chemscore.Rot>
1.9068

> <Gold.Chemscore.Internal.Correction>
   9.000000E+99

> <Gold.Chemscore.Hbonds>
donor molecule, donor type, donor heavy atom, donor atom, acceptor molecule, acceptor atom, score
      L1  H    16    40       P1  7921  0.38

> <Gold.Chemscore.Hbond.Weighted>
-3.3294

> <Gold.Chemscore.Metal.Weighted>
-0.0000

> <Gold.Chemscore.Lipo.Weighted>
-11.7463

> <Gold.Chemscore.Internal_Hbond.Weighted>
0.0000

> <Gold.Chemscore.DEClash.Weighted>
0.3777

> <Gold.Chemscore.DEInternal.Weighted>
2.3246

> <Gold.Chemscore.Rot.Weighted>
4.8814

> <Gold.Chemscore.Internal.Correction.Weighted>
   9.000000E+99

> <Gold.Protein.RotatedTorsions>
[ 6907 6896 6895 6894 ] final  -25.15 input  -60.11 | X-H torsion
[ 7974 7965 7964 7962 ] final   16.87 input  175.53 | X-H torsion
[ 8008 7997 7996 7995 ] final  -56.31 input   59.86 | X-H torsion
[ 10167 10162 10161 10158 ] final   23.97 input  -65.29 | X-H torsion
[ 10718 10713 10712 10709 ] final   94.36 input   66.30 | X-H torsion
[ 10763 10752 10751 10750 ] final   88.20 input  -60.55 | X-H torsion
[ 11005 11000 10999 10996 ] final  140.55 input  -57.11 | X-H torsion

> <Gold.Protein.ActiveResidues>
 VAL166  LYS551  ARG553  GLY616  TRP617  ASP618  TYR619  PRO620  LYS621  CYS622 
 ASP623  PHE694  ASN695  SER759  ASP760  ASP761  ALA762  ILE779  LEU786  VAL792 
 PHE793  MET794  SER795  GLU796  ALA797  LYS798  CYS799  TRP800  GLU811  SER814 

> <Gold.Protein.RotatedAtoms>
  151.1793  135.0353  159.8785 H   0  0  0  0  0  0  0  0  0  0  0  0  # atno 6907 bound_to 6896
  152.5445  134.1081  159.8357 H   0  0  0  0  0  0  0  0  0  0  0  0  # atno 6908 bound_to 6896
  151.1196  133.5067  159.2635 H   0  0  0  0  0  0  0  0  0  0  0  0  # atno 6909 bound_to 6896
  146.2236  139.8685  142.8591 H   0  0  0  0  0  0  0  0  0  0  0  0  # atno 7974 bound_to 7965
  154.4225  140.1132  156.5617 H   0  0  0  0  0  0  0  0  0  0  0  0  # atno 8008 bound_to 7997
  155.6304  140.3495  155.4662 H   0  0  0  0  0  0  0  0  0  0  0  0  # atno 8009 bound_to 7997
  155.9952  140.1188  157.0590 H   0  0  0  0  0  0  0  0  0  0  0  0  # atno 8010 bound_to 7997
  140.5226  143.9977  150.6424 H   0  0  0  0  0  0  0  0  0  0  0  0  # atno 10167 bound_to 10162
  157.6948  131.0509  150.4174 H   0  0  0  0  0  0  0  0  0  0  0  0  # atno 10718 bound_to 10713
  153.1744  135.4516  154.9945 H   0  0  0  0  0  0  0  0  0  0  0  0  # atno 10763 bound_to 10752
  154.7988  135.3248  154.7604 H   0  0  0  0  0  0  0  0  0  0  0  0  # atno 10764 bound_to 10752
  153.8076  135.6957  153.4901 H   0  0  0  0  0  0  0  0  0  0  0  0  # atno 10765 bound_to 10752
  140.0336  134.9340  157.0709 H   0  0  0  0  0  0  0  0  0  0  0  0  # atno 11005 bound_to 11000
  145.2632  141.0084  143.3814 LP  0  0  0  0  0  0  0  0  0  0  0  0  # atno 17320 bound_to 7965
  144.9282  139.4330  143.6508 LP  0  0  0  0  0  0  0  0  0  0  0  0  # atno 17321 bound_to 7965
  140.3330  143.3066  152.0668 LP  0  0  0  0  0  0  0  0  0  0  0  0  # atno 17342 bound_to 10162
  139.4928  144.6496  151.6704 LP  0  0  0  0  0  0  0  0  0  0  0  0  # atno 17343 bound_to 10162
  156.4552  130.4020  149.6610 LP  0  0  0  0  0  0  0  0  0  0  0  0  # atno 17370 bound_to 10713
  156.3745  130.7547  151.2534 LP  0  0  0  0  0  0  0  0  0  0  0  0  # atno 17371 bound_to 10713
  140.4185  134.1906  155.7164 LP  0  0  0  0  0  0  0  0  0  0  0  0  # atno 17394 bound_to 11000
  141.1845  133.8343  157.1139 LP  0  0  0  0  0  0  0  0  0  0  0  0  # atno 17395 bound_to 11000

$$$$
