AV-unprocessed.smi:117|AV-procd|sdf|1130|dock3
  -GOLD-   2262018253D 1   1.00000     0.00000
 Structure written by MMmdl.
 53 55  0  0  0  0  0  0  0  0  1 V2000
  144.2277  134.2879  150.1551 C   0  0  0  0  0  0  0  0  0  0  0  0
  145.1895  133.5560  151.0755 C   0  0  0  0  0  0  0  0  0  0  0  0
  145.2484  132.1486  151.0161 C   0  0  0  0  0  0  0  0  0  0  0  0
  146.1374  131.4395  151.8407 C   0  0  0  0  0  0  0  0  0  0  0  0
  146.9726  132.1340  152.7318 C   0  0  0  0  0  0  0  0  0  0  0  0
  146.9174  133.5448  152.8157 C   0  0  0  0  0  0  0  0  0  0  0  0
  147.8045  134.2530  153.6692 N   0  0  0  0  0  0  0  0  0  0  0  0
  148.2602  133.8915  154.8847 C   0  0  0  0  0  0  0  0  0  0  0  0
  147.9087  132.8671  155.4689 O   0  0  0  0  0  0  0  0  0  0  0  0
  149.2699  134.8257  155.5730 C   0  0  0  0  0  0  0  0  0  0  0  0
  149.7436  135.9106  154.7149 N   0  0  0  0  0  0  0  0  0  0  0  0
  150.8050  136.7012  154.9509 C   0  0  0  0  0  0  0  0  0  0  0  0
  151.5745  136.5217  155.8936 O   0  0  0  0  0  0  0  0  0  0  0  0
  151.0175  137.9142  154.0265 C   0  0  0  0  0  0  0  0  0  0  0  0
  150.5299  139.2015  154.5780 N   0  0  0  0  0  0  0  0  0  0  0  0
  149.2057  139.6165  154.2928 C   0  0  0  0  0  0  0  0  0  0  0  0
  148.4546  138.9281  153.6012 O   0  0  0  0  0  0  0  0  0  0  0  0
  148.8071  140.8923  154.8772 C   0  0  0  0  0  0  0  0  0  0  0  0
  147.5791  141.3809  154.6344 F   0  0  0  0  0  0  0  0  0  0  0  0
  149.6517  141.5905  155.6641 C   0  0  0  0  0  0  0  0  0  0  0  0
  150.9248  141.1532  155.9729 N   0  0  0  0  0  0  0  0  0  0  0  0
  151.7958  142.0018  156.8739 C   0  0  1  0  0  0  0  0  0  0  0  0
  151.1931  143.3804  157.1802 C   0  0  0  0  0  0  0  0  0  0  0  0
  151.6718  143.6015  158.5979 C   0  0  0  0  0  0  0  0  0  0  0  0
  151.6234  142.1895  159.1710 C   0  0  0  0  0  0  0  0  0  0  0  0
  151.9952  141.3376  158.0889 O   0  0  0  0  0  0  0  0  0  0  0  0
  151.4045  139.9531  155.4004 C   0  0  0  0  0  0  0  0  0  0  0  0
  152.5504  139.5591  155.6164 O   0  0  0  0  0  0  0  0  0  0  0  0
  146.0240  134.2650  151.9774 C   0  0  0  0  0  0  0  0  0  0  0  0
  145.9325  135.7881  152.0351 C   0  0  0  0  0  0  0  0  0  0  0  0
  143.6838  133.5934  149.5146 H   0  0  0  0  0  0  0  0  0  0  0  0
  144.7685  134.9806  149.5099 H   0  0  0  0  0  0  0  0  0  0  0  0
  143.4951  134.8502  150.7342 H   0  0  0  0  0  0  0  0  0  0  0  0
  144.6153  131.6048  150.3303 H   0  0  0  0  0  0  0  0  0  0  0  0
  146.1858  130.3621  151.7833 H   0  0  0  0  0  0  0  0  0  0  0  0
  147.6679  131.5697  153.3352 H   0  0  0  0  0  0  0  0  0  0  0  0
  148.0634  135.1780  153.3572 H   0  0  0  0  0  0  0  0  0  0  0  0
  148.8264  135.2199  156.4886 H   0  0  0  0  0  0  0  0  0  0  0  0
  150.1351  134.2361  155.8775 H   0  0  0  0  0  0  0  0  0  0  0  0
  149.1713  136.1282  153.9122 H   0  0  0  0  0  0  0  0  0  0  0  0
  152.0827  137.9893  153.8000 H   0  0  0  0  0  0  0  0  0  0  0  0
  150.5609  137.6838  153.0632 H   0  0  0  0  0  0  0  0  0  0  0  0
  149.3054  142.5283  156.0739 H   0  0  0  0  0  0  0  0  0  0  0  0
  152.7607  142.0828  156.3720 H   0  0  0  0  0  0  0  0  0  0  0  0
  151.5506  144.1310  156.4750 H   0  0  0  0  0  0  0  0  0  0  0  0
  150.1055  143.3562  157.1429 H   0  0  0  0  0  0  0  0  0  0  0  0
  152.6988  143.9688  158.5934 H   0  0  0  0  0  0  0  0  0  0  0  0
  151.0569  144.3098  159.1530 H   0  0  0  0  0  0  0  0  0  0  0  0
  152.2898  142.0623  160.0241 H   0  0  0  0  0  0  0  0  0  0  0  0
  150.6124  141.9454  159.4968 H   0  0  0  0  0  0  0  0  0  0  0  0
  144.9122  136.0942  152.2670 H   0  0  0  0  0  0  0  0  0  0  0  0
  146.2050  136.2192  151.0720 H   0  0  0  0  0  0  0  0  0  0  0  0
  146.5763  136.2410  152.7877 H   0  0  0  0  0  0  0  0  0  0  0  0
  1  2  1  0  0  0  0
  1 31  1  0  0  0  0
  1 32  1  0  0  0  0
  1 33  1  0  0  0  0
  2 29  1  0  0  0  0
  2  3  2  0  0  0  0
  3  4  1  0  0  0  0
  3 34  1  0  0  0  0
  4  5  2  0  0  0  0
  4 35  1  0  0  0  0
  5  6  1  0  0  0  0
  5 36  1  0  0  0  0
  6  7  1  0  0  0  0
  6 29  2  0  0  0  0
  7  8  1  0  0  0  0
  7 37  1  0  0  0  0
  8  9  2  0  0  0  0
  8 10  1  0  0  0  0
 10 11  1  0  0  0  0
 10 38  1  0  0  0  0
 10 39  1  0  0  0  0
 11 12  1  0  0  0  0
 11 40  1  0  0  0  0
 12 13  2  0  0  0  0
 12 14  1  0  0  0  0
 14 15  1  0  0  0  0
 14 41  1  0  0  0  0
 14 42  1  0  0  0  0
 15 27  1  0  0  0  0
 15 16  1  0  0  0  0
 16 17  2  0  0  0  0
 16 18  1  0  0  0  0
 18 19  1  0  0  0  0
 18 20  2  0  0  0  0
 20 21  1  0  0  0  0
 20 43  1  0  0  0  0
 21 22  1  0  0  0  0
 21 27  1  0  0  0  0
 22 26  1  0  0  0  0
 22 23  1  0  0  0  0
 22 44  1  0  0  0  0
 23 24  1  0  0  0  0
 23 45  1  0  0  0  0
 23 46  1  0  0  0  0
 24 25  1  0  0  0  0
 24 47  1  0  0  0  0
 24 48  1  0  0  0  0
 25 26  1  0  0  0  0
 25 49  1  0  0  0  0
 25 50  1  0  0  0  0
 27 28  2  0  0  0  0
 29 30  1  0  0  0  0
 30 51  1  0  0  0  0
 30 52  1  0  0  0  0
 30 53  1  0  0  0  0
M  END
> <s_m_source_file>
AV-unprocessed.smi

> <i_m_source_file_index>
117

> <i_lp_mmshare_version>
43012

> <i_f3d_flags>
0

> <s_epik_input>
W0NIM11jMVtjSF1bY0hdW2NIXWMoYzFbQ0gzXSlbTkhdQyg9TylbQ0gyXVtOSF1DKD1PKVtDSDJdbjJjKD1PKWMoRilbY0hdbihjMj1PKVtDQEBIXTNbQ0gyXVtDSDJdW0NIMl1PMw==

> <s_epik_cmdline>
J2VwaWtfcHl0aG9uJywgJy1waCcsICc3LjAnLCAnLXRuJywgJzgnLCAnLW1hJywgJzIwMCcsICctbWV0YWxfYmluZGluZycsICctaW1hZScsICc8aW5maWxlLm1hZT4nLCAnLW9tYWUnLCAnPG91dGZpbGUubWFlPic=

> <r_lp_tautomer_probability>
1

> <r_epik_Ionization_Penalty>
1.58439e-06

> <r_epik_Ionization_Penalty_Charging>
4.14583e-09

> <r_epik_Ionization_Penalty_Neutral>
1.58025e-06

> <r_epik_State_Penalty>
-0

> <r_epik_Charging_Adjusted_Penalty>
4.14583e-09

> <i_epik_Tot_Q>
0

> <i_epik_Tot_abs_Q>
0

> <r_epik_Metal_State_Penalty>
-0

> <b_epik_Metal_Only>
0

> <s_epik_Chemistry_Notes>
This compound contains an acetal/aminal-like group ( X-CH(R)-Y where X, Y are N, S, or O) that may be acid/base labile, releasing an aldehyde.

> <s_lp_Force_Field>
OPLS_2005

> <r_lp_Energy>
23.1061

> <b_lp_Chiralities_Consistent>
1

> <s_lp_Variant>
AV-unprocessed.smi:117-2

> <Gold.Version>
5.8.1

> <Gold.Id.Protein>
6NUR|6NUR_protein|mol2

> <Gold.PLP.Fitness>
60.4312

> <Gold.PLP.PLP>
-48.3435

> <Gold.PLP.part.hbond>
-4.0000

> <Gold.PLP.part.metal>
0.0000

> <Gold.PLP.part.buried>
-4.4935

> <Gold.PLP.part.nonpolar>
-42.1883

> <Gold.PLP.part.repulsive>
1.0750

> <Gold.PLP.ligand.clash>
0.0000

> <Gold.PLP.ligand.torsion>
1.2010

> <Gold.PLP.Chemscore.Hbond>
3.8156

> <Gold.PLP.Chemscore.CHOScore>
1.0000

> <Gold.PLP.Chemscore.Metal>
0.0000

> <Gold.Chemscore.Hbonds>
donor molecule, donor type, donor heavy atom, donor atom, acceptor molecule, acceptor atom, score
      L1  H     7    37       P1  7948  0.86
      L1  H    11    40       P1  7948  0.94
      P1  H  7997  8009       L1    28  1.00
      P1  H 10752 10763       L1    13  0.88
      L1  C    20    43       P1  8028  1.00

> <Gold.PLP.Chemscore.Internal.Correction>
0.0429

> <Gold.Rescore>
     Score         DG    S(hbond)    S(metal)    S(lipo)     H(rot)  DE(clash)    DE(int)     intcor
     19.14     -22.51       3.24        0.00     103.64       2.32       0.82       2.55       ----

> <Gold.Chemscore.Fitness>
19.1383

> <Gold.Chemscore.DG>
-22.5056

> <Gold.Chemscore.ZeroCoef>
-5.4800

> <Gold.Chemscore.Hbond>
3.2427

> <Gold.Chemscore.Metal>
0.0000

> <Gold.Chemscore.Lipo>
103.6385

> <Gold.Chemscore.Internal_Hbond>
0.0000

> <Gold.Chemscore.DEClash>
0.8213

> <Gold.Chemscore.DEInternal>
2.5461

> <Gold.Chemscore.Rot>
2.3166

> <Gold.Chemscore.Internal.Correction>
   9.000000E+99

> <Gold.Chemscore.Hbonds>
donor molecule, donor type, donor heavy atom, donor atom, acceptor molecule, acceptor atom, score
      L1  H     7    37       P1  7948  0.80
      L1  H    11    40       P1  7948  0.78
      P1  H  7997  8009       L1    28  0.92
      P1  H 10752 10763       L1    13  0.42

> <Gold.Chemscore.Hbond.Weighted>
-10.8305

> <Gold.Chemscore.Metal.Weighted>
-0.0000

> <Gold.Chemscore.Lipo.Weighted>
-12.1257

> <Gold.Chemscore.Internal_Hbond.Weighted>
0.0000

> <Gold.Chemscore.DEClash.Weighted>
0.8213

> <Gold.Chemscore.DEInternal.Weighted>
2.5461

> <Gold.Chemscore.Rot.Weighted>
5.9306

> <Gold.Chemscore.Internal.Correction.Weighted>
   9.000000E+99

> <Gold.Protein.RotatedTorsions>
[ 6907 6896 6895 6894 ] final -173.44 input  -60.11 | X-H torsion
[ 7974 7965 7964 7962 ] final -140.90 input  175.53 | X-H torsion
[ 8008 7997 7996 7995 ] final -134.54 input   59.86 | X-H torsion
[ 10167 10162 10161 10158 ] final -127.17 input  -65.29 | X-H torsion
[ 10718 10713 10712 10709 ] final   -0.90 input   66.30 | X-H torsion
[ 10763 10752 10751 10750 ] final   93.09 input  -60.55 | X-H torsion
[ 11005 11000 10999 10996 ] final  162.89 input  -57.11 | X-H torsion

> <Gold.Protein.ActiveResidues>
 VAL166  LYS551  ARG553  GLY616  TRP617  ASP618  TYR619  PRO620  LYS621  CYS622 
 ASP623  PHE694  ASN695  SER759  ASP760  ASP761  ALA762  ILE779  LEU786  VAL792 
 PHE793  MET794  SER795  GLU796  ALA797  LYS798  CYS799  TRP800  GLU811  SER814 

> <Gold.Protein.RotatedAtoms>
  151.5563  133.3410  159.2962 H   0  0  0  0  0  0  0  0  0  0  0  0  # atno 6907 bound_to 6896
  150.8449  134.7757  159.6973 H   0  0  0  0  0  0  0  0  0  0  0  0  # atno 6908 bound_to 6896
  152.4509  134.5403  159.9889 H   0  0  0  0  0  0  0  0  0  0  0  0  # atno 6909 bound_to 6896
  144.8561  140.6144  143.5359 H   0  0  0  0  0  0  0  0  0  0  0  0  # atno 7974 bound_to 7965
  155.3637  140.0484  157.3046 H   0  0  0  0  0  0  0  0  0  0  0  0  # atno 8008 bound_to 7997
  154.5165  140.2210  155.9020 H   0  0  0  0  0  0  0  0  0  0  0  0  # atno 8009 bound_to 7997
  156.1642  140.3110  155.8865 H   0  0  0  0  0  0  0  0  0  0  0  0  # atno 8010 bound_to 7997
  139.9637  143.5922  152.2436 H   0  0  0  0  0  0  0  0  0  0  0  0  # atno 10167 bound_to 10162
  156.8136  130.5433  149.5705 H   0  0  0  0  0  0  0  0  0  0  0  0  # atno 10718 bound_to 10713
  153.2264  135.4338  155.0547 H   0  0  0  0  0  0  0  0  0  0  0  0  # atno 10763 bound_to 10752
  154.8275  135.3369  154.6851 H   0  0  0  0  0  0  0  0  0  0  0  0  # atno 10764 bound_to 10752
  153.7280  135.7013  153.5052 H   0  0  0  0  0  0  0  0  0  0  0  0  # atno 10765 bound_to 10752
  140.2302  134.8129  157.3309 H   0  0  0  0  0  0  0  0  0  0  0  0  # atno 11005 bound_to 11000
  145.4404  139.1536  143.3973 LP  0  0  0  0  0  0  0  0  0  0  0  0  # atno 17320 bound_to 7965
  146.2824  140.4525  142.8771 LP  0  0  0  0  0  0  0  0  0  0  0  0  # atno 17321 bound_to 7965
  139.6534  144.7661  151.2103 LP  0  0  0  0  0  0  0  0  0  0  0  0  # atno 17342 bound_to 10162
  140.7545  143.6124  150.8592 LP  0  0  0  0  0  0  0  0  0  0  0  0  # atno 17343 bound_to 10162
  156.1030  130.5983  150.9924 LP  0  0  0  0  0  0  0  0  0  0  0  0  # atno 17370 bound_to 10713
  157.6493  131.0899  150.8086 LP  0  0  0  0  0  0  0  0  0  0  0  0  # atno 17371 bound_to 10713
  140.1758  134.4551  155.7803 LP  0  0  0  0  0  0  0  0  0  0  0  0  # atno 17394 bound_to 11000
  141.2218  133.6961  156.7785 LP  0  0  0  0  0  0  0  0  0  0  0  0  # atno 17395 bound_to 11000

$$$$
