AV-unprocessed.smi:35|AV-procd|sdf|247|dock1
  -GOLD-   2262016 03D 1   1.00000     0.00000
 Structure written by MMmdl.
 29 30  0  0  0  0  0  0  0  0  1 V2000
  153.6841  139.3279  160.3859 O   0  0  0  0  0  0  0  0  0  0  0  0
  153.2134  139.3252  159.2505 C   0  0  0  0  0  0  0  0  0  0  0  0
  153.3009  138.1814  158.4527 N   0  0  0  0  0  0  0  0  0  0  0  0
  152.8005  138.0578  157.1555 C   0  0  0  0  0  0  0  0  0  0  0  0
  152.9490  137.0040  156.5378 O   0  0  0  0  0  0  0  0  0  0  0  0
  152.1325  139.1760  156.6059 N   0  0  0  0  0  0  0  0  0  0  0  0
  151.5958  139.0626  155.1888 C   0  0  2  0  0  0  0  0  0  0  0  0
  150.8553  140.2059  154.8765 O   0  0  0  0  0  0  0  0  0  0  0  0
  149.4701  139.9525  155.0894 C   0  0  1  0  0  0  0  0  0  0  0  0
  148.5938  141.0099  154.3963 C   0  0  0  0  0  0  0  0  0  0  0  0
  149.1936  141.4110  153.1829 O   0  0  0  0  0  0  0  0  0  0  0  0
  149.3323  138.5212  154.5626 C   0  0  1  0  0  0  0  0  0  0  0  0
  149.2273  138.5207  153.1475 O   0  0  0  0  0  0  0  0  0  0  0  0
  150.6219  137.8679  155.0597 C   0  0  1  0  0  0  0  0  0  0  0  0
  151.0857  136.8500  154.1914 O   0  0  0  0  0  0  0  0  0  0  0  0
  152.0467  140.3457  157.3548 C   0  0  0  0  0  0  0  0  0  0  0  0
  152.5419  140.4504  158.6106 C   0  0  0  0  0  0  0  0  0  0  0  0
  152.3120  142.2007  159.5100 Br  0  0  0  0  0  0  0  0  0  0  0  0
  153.7698  137.3787  158.8467 H   0  0  0  0  0  0  0  0  0  0  0  0
  152.4773  139.0095  154.5468 H   0  0  0  0  0  0  0  0  0  0  0  0
  149.2611  139.9405  156.1608 H   0  0  0  0  0  0  0  0  0  0  0  0
  147.5856  140.6366  154.2140 H   0  0  0  0  0  0  0  0  0  0  0  0
  148.5055  141.8960  155.0257 H   0  0  0  0  0  0  0  0  0  0  0  0
  149.0538  140.7320  152.5405 H   0  0  0  0  0  0  0  0  0  0  0  0
  148.4496  138.0252  154.9680 H   0  0  0  0  0  0  0  0  0  0  0  0
  149.5139  139.3634  152.8289 H   0  0  0  0  0  0  0  0  0  0  0  0
  150.4421  137.4381  156.0465 H   0  0  0  0  0  0  0  0  0  0  0  0
  150.7596  137.0291  153.3222 H   0  0  0  0  0  0  0  0  0  0  0  0
  151.5744  141.2249  156.9438 H   0  0  0  0  0  0  0  0  0  0  0  0
  1  2  2  0  0  0  0
  2 17  1  0  0  0  0
  2  3  1  0  0  0  0
  3 19  1  0  0  0  0
  3  4  1  0  0  0  0
  4  5  2  0  0  0  0
  4  6  1  0  0  0  0
  6  7  1  0  0  0  0
  6 16  1  0  0  0  0
  7 14  1  0  0  0  0
  7  8  1  0  0  0  0
  7 20  1  0  0  0  0
  8  9  1  0  0  0  0
  9 10  1  0  0  0  0
  9 12  1  0  0  0  0
  9 21  1  0  0  0  0
 10 11  1  0  0  0  0
 10 22  1  0  0  0  0
 10 23  1  0  0  0  0
 11 24  1  0  0  0  0
 12 13  1  0  0  0  0
 12 14  1  0  0  0  0
 12 25  1  0  0  0  0
 13 26  1  0  0  0  0
 14 15  1  0  0  0  0
 14 27  1  0  0  0  0
 15 28  1  0  0  0  0
 16 17  2  0  0  0  0
 16 29  1  0  0  0  0
 17 18  1  0  0  0  0
M  END
> <s_m_source_file>
AV-unprocessed.smi

> <i_m_source_file_index>
35

> <i_lp_mmshare_version>
43012

> <i_f3d_flags>
0

> <s_epik_input>
Tz1jMVtuSF1jKD1PKW4oW2NIXWMxQnIpW0NAQEhdMk9bQ0BASF0oW0NIMl1bT0hdKVtDQEBIXShbT0hdKVtDQEhdMltPSF0=

> <s_epik_cmdline>
J2VwaWtfcHl0aG9uJywgJy1waCcsICc3LjAnLCAnLXRuJywgJzgnLCAnLW1hJywgJzIwMCcsICctbWV0YWxfYmluZGluZycsICctaW1hZScsICc8aW5maWxlLm1hZT4nLCAnLW9tYWUnLCAnPG91dGZpbGUubWFlPic=

> <r_lp_tautomer_probability>
0.999537

> <r_epik_Ionization_Penalty>
0.10812

> <r_epik_Ionization_Penalty_Charging>
0.108119

> <r_epik_Ionization_Penalty_Neutral>
4.93006e-07

> <r_epik_State_Penalty>
0.0979238

> <r_epik_Charging_Adjusted_Penalty>
0.206043

> <i_epik_Tot_Q>
0

> <i_epik_Tot_abs_Q>
0

> <r_epik_Metal_State_Penalty>
3.07911

> <b_epik_Metal_Only>
0

> <s_epik_Chemistry_Notes>
This compound contains an acetal/aminal-like group ( X-CH(R)-Y where X, Y are N, S, or O) that may be acid/base labile, releasing an aldehyde.

> <s_lp_Force_Field>
OPLS_2005

> <r_lp_Energy>
33.4515

> <b_lp_Chiralities_Consistent>
1

> <s_lp_Variant>
AV-unprocessed.smi:35-1

> <Gold.Version>
5.8.1

> <Gold.Id.Protein>
6NUR|6NUR_protein|mol2

> <Gold.PLP.Fitness>
48.4096

> <Gold.PLP.PLP>
-32.0616

> <Gold.PLP.part.hbond>
-8.5218

> <Gold.PLP.part.metal>
0.0000

> <Gold.PLP.part.buried>
-3.4805

> <Gold.PLP.part.nonpolar>
-19.5493

> <Gold.PLP.part.repulsive>
0.1513

> <Gold.PLP.ligand.clash>
0.0000

> <Gold.PLP.ligand.torsion>
0.3154

> <Gold.PLP.Chemscore.Hbond>
5.6518

> <Gold.PLP.Chemscore.CHOScore>
0.0000

> <Gold.PLP.Chemscore.Metal>
0.0000

> <Gold.Chemscore.Hbonds>
donor molecule, donor type, donor heavy atom, donor atom, acceptor molecule, acceptor atom, score
      L1  H    11    24       P1  7957  0.90
      L1  H    13    26       P1  7957  0.62
      L1  H    15    28       P1  7949  0.31
      P1  H  7989  7998       L1     8  1.00
      P1  H  8011  8017       L1    11  0.74
      P1  H 10752 10764       L1    15  0.36
      P1  H 10752 10765       L1     5  0.28

> <Gold.PLP.Chemscore.Internal.Correction>
0.0234

> <Gold.Rescore>
     Score         DG    S(hbond)    S(metal)    S(lipo)     H(rot)  DE(clash)    DE(int)     intcor
     15.39     -16.85       4.58        0.00      46.79       3.67       0.07       1.38       ----

> <Gold.Chemscore.Fitness>
15.3942

> <Gold.Chemscore.DG>
-16.8463

> <Gold.Chemscore.ZeroCoef>
-5.4800

> <Gold.Chemscore.Hbond>
4.5771

> <Gold.Chemscore.Metal>
0.0000

> <Gold.Chemscore.Lipo>
46.7893

> <Gold.Chemscore.Internal_Hbond>
0.0000

> <Gold.Chemscore.DEClash>
0.0727

> <Gold.Chemscore.DEInternal>
1.3794

> <Gold.Chemscore.Rot>
3.6701

> <Gold.Chemscore.Internal.Correction>
   9.000000E+99

> <Gold.Chemscore.Hbonds>
donor molecule, donor type, donor heavy atom, donor atom, acceptor molecule, acceptor atom, score
      L1  H    11    24       P1  7957  0.88
      L1  H    13    26       P1  7957  0.62
      L1  H    15    28       P1  7949  0.04
      P1  H  7989  7998       L1     8  0.50
      P1  H  8011  8017       L1    11  0.16
      P1  H 10752 10764       L1    15  0.21
      P1  H 10752 10765       L1     5  0.28

> <Gold.Chemscore.Hbond.Weighted>
-15.2874

> <Gold.Chemscore.Metal.Weighted>
-0.0000

> <Gold.Chemscore.Lipo.Weighted>
-5.4744

> <Gold.Chemscore.Internal_Hbond.Weighted>
0.0000

> <Gold.Chemscore.DEClash.Weighted>
0.0727

> <Gold.Chemscore.DEInternal.Weighted>
1.3794

> <Gold.Chemscore.Rot.Weighted>
9.3955

> <Gold.Chemscore.Internal.Correction.Weighted>
   9.000000E+99

> <Gold.Protein.RotatedTorsions>
[ 6907 6896 6895 6894 ] final   34.31 input  -60.11 | X-H torsion
[ 7974 7965 7964 7962 ] final   74.48 input  175.53 | X-H torsion
[ 8008 7997 7996 7995 ] final  -46.27 input   59.86 | X-H torsion
[ 10167 10162 10161 10158 ] final -158.71 input  -65.29 | X-H torsion
[ 10718 10713 10712 10709 ] final -108.94 input   66.30 | X-H torsion
[ 10763 10752 10751 10750 ] final  -99.17 input  -60.55 | X-H torsion
[ 11005 11000 10999 10996 ] final -175.57 input  -57.11 | X-H torsion

> <Gold.Protein.ActiveResidues>
 VAL166  LYS551  ARG553  GLY616  TRP617  ASP618  TYR619  PRO620  LYS621  CYS622 
 ASP623  PHE694  ASN695  SER759  ASP760  ASP761  ALA762  ILE779  LEU786  VAL792 
 PHE793  MET794  SER795  GLU796  ALA797  LYS798  CYS799  TRP800  GLU811  SER814 

> <Gold.Protein.RotatedAtoms>
  152.1006  134.9344  160.0569 H   0  0  0  0  0  0  0  0  0  0  0  0  # atno 6907 bound_to 6896
  152.0560  133.4035  159.4405 H   0  0  0  0  0  0  0  0  0  0  0  0  # atno 6908 bound_to 6896
  150.6839  134.3174  159.4816 H   0  0  0  0  0  0  0  0  0  0  0  0  # atno 6909 bound_to 6896
  145.7278  139.2672  143.1559 H   0  0  0  0  0  0  0  0  0  0  0  0  # atno 7974 bound_to 7965
  154.4006  140.1375  156.3984 H   0  0  0  0  0  0  0  0  0  0  0  0  # atno 8008 bound_to 7997
  155.7847  140.3480  155.5296 H   0  0  0  0  0  0  0  0  0  0  0  0  # atno 8009 bound_to 7997
  155.8639  140.0961  157.1586 H   0  0  0  0  0  0  0  0  0  0  0  0  # atno 8010 bound_to 7997
  139.6671  143.9810  152.2261 H   0  0  0  0  0  0  0  0  0  0  0  0  # atno 10167 bound_to 10162
  156.0511  130.5738  150.8031 H   0  0  0  0  0  0  0  0  0  0  0  0  # atno 10718 bound_to 10713
  154.7475  135.4982  153.9230 H   0  0  0  0  0  0  0  0  0  0  0  0  # atno 10763 bound_to 10752
  153.1108  135.6708  153.9512 H   0  0  0  0  0  0  0  0  0  0  0  0  # atno 10764 bound_to 10752
  153.9272  135.3082  155.3425 H   0  0  0  0  0  0  0  0  0  0  0  0  # atno 10765 bound_to 10752
  140.4618  134.6248  157.4845 H   0  0  0  0  0  0  0  0  0  0  0  0  # atno 11005 bound_to 11000
  146.0566  140.8014  142.9755 LP  0  0  0  0  0  0  0  0  0  0  0  0  # atno 17320 bound_to 7965
  144.6900  140.3133  143.7244 LP  0  0  0  0  0  0  0  0  0  0  0  0  # atno 17321 bound_to 7965
  139.9564  144.6586  150.8121 LP  0  0  0  0  0  0  0  0  0  0  0  0  # atno 17342 bound_to 10162
  140.7604  143.3149  151.2756 LP  0  0  0  0  0  0  0  0  0  0  0  0  # atno 17343 bound_to 10162
  157.5438  131.0941  150.9791 LP  0  0  0  0  0  0  0  0  0  0  0  0  # atno 17370 bound_to 10713
  157.0067  130.5621  149.5316 LP  0  0  0  0  0  0  0  0  0  0  0  0  # atno 17371 bound_to 10713
  139.9941  134.6939  155.9640 LP  0  0  0  0  0  0  0  0  0  0  0  0  # atno 17394 bound_to 11000
  141.1618  133.6538  156.4344 LP  0  0  0  0  0  0  0  0  0  0  0  0  # atno 17395 bound_to 11000

$$$$
