AV-unprocessed.smi:21|AV-procd|sdf|163|dock10
  -GOLD-   2262015403D 1   1.00000     0.00000
 Structure written by MMmdl.
 61 64  0  0  0  0  0  0  0  0  1 V2000
  144.1815  132.7398  149.7509 C   0  0  0  0  0  0  0  0  0  0  0  0
  144.9822  133.8771  150.0304 O   0  0  0  0  0  0  0  0  0  0  0  0
  145.0710  134.1801  151.4156 C   0  0  1  0  0  0  0  0  0  0  0  0
  146.1191  135.2779  151.6581 C   0  0  0  0  0  0  0  0  0  0  0  0
  145.3236  136.4513  152.2526 C   0  0  2  0  0  0  0  0  0  0  0  0
  146.1604  137.3610  153.1778 C   0  0  0  0  0  0  0  0  0  0  0  0
  146.3813  138.6919  152.6042 N   0  0  0  0  0  0  0  0  0  0  0  0
  146.1849  138.8493  151.1683 C   0  0  0  0  0  0  0  0  0  0  0  0
  146.9891  139.6783  153.3270 C   0  0  0  0  0  0  0  0  0  0  0  0
  146.3120  140.8410  153.5281 N   0  0  0  0  0  0  0  0  0  0  0  0
  146.8510  141.8430  154.2258 C   0  0  0  0  0  0  0  0  0  0  0  0
  148.0480  141.9017  154.8074 N   0  0  0  0  0  0  0  0  0  0  0  0
  148.7442  140.7465  154.6141 C   0  0  0  0  0  0  0  0  0  0  0  0
  148.2995  139.5962  153.8963 C   0  0  0  0  0  0  0  0  0  0  0  0
  149.2955  138.6235  153.9337 N   0  0  0  0  0  0  0  0  0  0  0  0
  150.2618  139.1641  154.6226 C   0  0  0  0  0  0  0  0  0  0  0  0
  150.0121  140.4375  155.0745 N   0  0  0  0  0  0  0  0  0  0  0  0
  150.9094  141.2690  155.8588 C   0  0  0  0  0  0  0  0  0  0  0  0
  151.1837  140.7116  157.2787 C   0  0  2  0  0  0  0  0  0  0  0  0
  149.8598  140.4191  158.0313 C   0  0  0  0  0  0  0  0  0  0  0  0
  149.2220  139.2592  157.5391 O   0  0  0  0  0  0  0  0  0  0  0  0
  152.1082  141.6823  158.0648 C   0  0  1  0  0  0  0  0  0  0  0  0
  151.5120  143.0388  158.4011 C   0  0  0  0  0  0  0  0  0  0  0  0
  152.4268  143.5305  159.5160 C   0  0  0  0  0  0  0  0  0  0  0  0
  152.8185  142.3632  160.2271 O   0  0  0  0  0  0  0  0  0  0  0  0
  152.4939  141.2015  159.4699 C   0  0  0  0  0  0  0  0  0  0  0  0
  144.1764  135.8270  152.8922 N   0  0  0  0  0  0  0  0  0  0  0  0
  143.0913  136.7525  153.1905 C   0  0  0  0  0  0  0  0  0  0  0  0
  143.7735  134.7995  151.9526 C   0  0  0  0  0  0  0  0  0  0  0  0
  145.3448  133.2927  151.9896 H   0  0  0  0  0  0  0  0  0  0  0  0
  144.9580  137.0524  151.4177 H   0  0  0  0  0  0  0  0  0  0  0  0
  144.1673  132.5598  148.6760 H   0  0  0  0  0  0  0  0  0  0  0  0
  143.1513  132.8830  150.0782 H   0  0  0  0  0  0  0  0  0  0  0  0
  144.5813  131.8475  150.2342 H   0  0  0  0  0  0  0  0  0  0  0  0
  146.8619  134.9140  152.3685 H   0  0  0  0  0  0  0  0  0  0  0  0
  146.6475  135.5679  150.7491 H   0  0  0  0  0  0  0  0  0  0  0  0
  145.6327  137.5072  154.1198 H   0  0  0  0  0  0  0  0  0  0  0  0
  147.0897  136.8639  153.4549 H   0  0  0  0  0  0  0  0  0  0  0  0
  145.6607  139.7795  150.9476 H   0  0  0  0  0  0  0  0  0  0  0  0
  145.5862  138.0323  150.7650 H   0  0  0  0  0  0  0  0  0  0  0  0
  147.1422  138.8470  150.6463 H   0  0  0  0  0  0  0  0  0  0  0  0
  146.2338  142.7227  154.3329 H   0  0  0  0  0  0  0  0  0  0  0  0
  151.1874  138.6448  154.8245 H   0  0  0  0  0  0  0  0  0  0  0  0
  151.8357  141.3587  155.2914 H   0  0  0  0  0  0  0  0  0  0  0  0
  150.4919  142.2743  155.9237 H   0  0  0  0  0  0  0  0  0  0  0  0
  151.7121  139.7652  157.1534 H   0  0  0  0  0  0  0  0  0  0  0  0
  150.0372  140.3149  159.1022 H   0  0  0  0  0  0  0  0  0  0  0  0
  149.1410  141.2283  157.9115 H   0  0  0  0  0  0  0  0  0  0  0  0
  148.4952  139.0517  158.1067 H   0  0  0  0  0  0  0  0  0  0  0  0
  153.0245  141.8451  157.4946 H   0  0  0  0  0  0  0  0  0  0  0  0
  151.4934  143.7250  157.5544 H   0  0  0  0  0  0  0  0  0  0  0  0
  150.4936  142.9266  158.7756 H   0  0  0  0  0  0  0  0  0  0  0  0
  153.3186  143.9986  159.0975 H   0  0  0  0  0  0  0  0  0  0  0  0
  151.9387  144.2534  160.1699 H   0  0  0  0  0  0  0  0  0  0  0  0
  151.6513  140.7058  159.9541 H   0  0  0  0  0  0  0  0  0  0  0  0
  153.3320  140.5044  159.4560 H   0  0  0  0  0  0  0  0  0  0  0  0
  142.2376  136.2189  153.6095 H   0  0  0  0  0  0  0  0  0  0  0  0
  142.7568  137.2742  152.2929 H   0  0  0  0  0  0  0  0  0  0  0  0
  143.4018  137.4983  153.9219 H   0  0  0  0  0  0  0  0  0  0  0  0
  143.2212  135.2524  151.1271 H   0  0  0  0  0  0  0  0  0  0  0  0
  143.1219  134.0604  152.4199 H   0  0  0  0  0  0  0  0  0  0  0  0
  1  2  1  0  0  0  0
  1 32  1  0  0  0  0
  1 33  1  0  0  0  0
  1 34  1  0  0  0  0
  2  3  1  0  0  0  0
  3 30  1  0  0  0  0
  3 29  1  0  0  0  0
  3  4  1  0  0  0  0
  4  5  1  0  0  0  0
  4 35  1  0  0  0  0
  4 36  1  0  0  0  0
  5 31  1  0  0  0  0
  5  6  1  0  0  0  0
  5 27  1  0  0  0  0
  6  7  1  0  0  0  0
  6 37  1  0  0  0  0
  6 38  1  0  0  0  0
  7  8  1  0  0  0  0
  7  9  1  0  0  0  0
  8 39  1  0  0  0  0
  8 40  1  0  0  0  0
  8 41  1  0  0  0  0
  9 14  1  0  0  0  0
  9 10  2  0  0  0  0
 10 11  1  0  0  0  0
 11 12  2  0  0  0  0
 11 42  1  0  0  0  0
 12 13  1  0  0  0  0
 13 17  1  0  0  0  0
 13 14  2  0  0  0  0
 14 15  1  0  0  0  0
 15 16  2  0  0  0  0
 16 17  1  0  0  0  0
 16 43  1  0  0  0  0
 17 18  1  0  0  0  0
 18 19  1  0  0  0  0
 18 44  1  0  0  0  0
 18 45  1  0  0  0  0
 19 20  1  0  0  0  0
 19 22  1  0  0  0  0
 19 46  1  0  0  0  0
 20 21  1  0  0  0  0
 20 47  1  0  0  0  0
 20 48  1  0  0  0  0
 21 49  1  0  0  0  0
 22 26  1  0  0  0  0
 22 23  1  0  0  0  0
 22 50  1  0  0  0  0
 23 24  1  0  0  0  0
 23 51  1  0  0  0  0
 23 52  1  0  0  0  0
 24 25  1  0  0  0  0
 24 53  1  0  0  0  0
 24 54  1  0  0  0  0
 25 26  1  0  0  0  0
 26 55  1  0  0  0  0
 26 56  1  0  0  0  0
 27 28  1  0  0  0  0
 27 29  1  0  0  0  0
 28 57  1  0  0  0  0
 28 58  1  0  0  0  0
 28 59  1  0  0  0  0
 29 60  1  0  0  0  0
 29 61  1  0  0  0  0
M  END
> <s_m_source_file>
AV-unprocessed.smi

> <i_m_source_file_index>
21

> <i_lp_mmshare_version>
43012

> <i_f3d_flags>
0

> <s_epik_input>
W0NIM11PW0NASF0xW0NIMl1bQ0BIXShOKFtDSDNdKVtDSDJdMSlbQ0gyXU4oW0NIM10pYyhuW2NIXW4yKWMoYzIzKW5bY0hdbjNbQ0gyXVtDQEhdKFtDSDJdW09IXSlbQ0BASF00W0NIMl1bQ0gyXU9bQ0gyXTQ=

> <s_epik_cmdline>
J2VwaWtfcHl0aG9uJywgJy1waCcsICc3LjAnLCAnLXRuJywgJzgnLCAnLW1hJywgJzIwMCcsICctbWV0YWxfYmluZGluZycsICctaW1hZScsICc8aW5maWxlLm1hZT4nLCAnLW9tYWUnLCAnPG91dGZpbGUubWFlPic=

> <r_lp_tautomer_probability>
1

> <r_epik_Ionization_Penalty>
2.17574

> <r_epik_Ionization_Penalty_Charging>
0

> <r_epik_Ionization_Penalty_Neutral>
2.17574

> <r_epik_State_Penalty>
2.31336

> <r_epik_Charging_Adjusted_Penalty>
2.31336

> <i_epik_Tot_Q>
0

> <i_epik_Tot_abs_Q>
0

> <r_epik_Metal_State_Penalty>
2.31025

> <b_epik_Metal_Only>
0

> <s_lp_Force_Field>
OPLS_2005

> <r_lp_Energy>
69.6605

> <b_lp_Chiralities_Consistent>
1

> <s_lp_Variant>
AV-unprocessed.smi:21-43

> <Gold.Version>
5.8.1

> <Gold.Id.Protein>
6NUR|6NUR_protein|mol2

> <Gold.PLP.Fitness>
45.7427

> <Gold.PLP.PLP>
-49.7266

> <Gold.PLP.part.hbond>
-0.3217

> <Gold.PLP.part.metal>
0.0000

> <Gold.PLP.part.buried>
-2.6749

> <Gold.PLP.part.nonpolar>
-47.1699

> <Gold.PLP.part.repulsive>
1.2617

> <Gold.PLP.ligand.clash>
0.0000

> <Gold.PLP.ligand.torsion>
2.3237

> <Gold.PLP.Chemscore.Hbond>
0.0000

> <Gold.PLP.Chemscore.CHOScore>
0.0000

> <Gold.PLP.Chemscore.Metal>
0.0000

> <Gold.PLP.Chemscore.Internal.Correction>
0.6636

> <Gold.Rescore>
     Score         DG    S(hbond)    S(metal)    S(lipo)     H(rot)  DE(clash)    DE(int)     intcor
      7.00     -10.34       0.00        0.00     107.27       3.00       1.16       2.19       ----

> <Gold.Chemscore.Fitness>
6.9971

> <Gold.Chemscore.DG>
-10.3425

> <Gold.Chemscore.ZeroCoef>
-5.4800

> <Gold.Chemscore.Hbond>
0.0000

> <Gold.Chemscore.Metal>
0.0000

> <Gold.Chemscore.Lipo>
107.2688

> <Gold.Chemscore.Internal_Hbond>
0.0000

> <Gold.Chemscore.DEClash>
1.1602

> <Gold.Chemscore.DEInternal>
2.1852

> <Gold.Chemscore.Rot>
3.0031

> <Gold.Chemscore.Internal.Correction>
   9.000000E+99

> <Gold.Chemscore.Hbond.Weighted>
-0.0000

> <Gold.Chemscore.Metal.Weighted>
-0.0000

> <Gold.Chemscore.Lipo.Weighted>
-12.5505

> <Gold.Chemscore.Internal_Hbond.Weighted>
0.0000

> <Gold.Chemscore.DEClash.Weighted>
1.1602

> <Gold.Chemscore.DEInternal.Weighted>
2.1852

> <Gold.Chemscore.Rot.Weighted>
7.6880

> <Gold.Chemscore.Internal.Correction.Weighted>
   9.000000E+99

> <Gold.Protein.RotatedTorsions>
[ 6907 6896 6895 6894 ] final  -14.47 input  -60.11 | X-H torsion
[ 7974 7965 7964 7962 ] final -117.26 input  175.53 | X-H torsion
[ 8008 7997 7996 7995 ] final   68.64 input   59.86 | X-H torsion
[ 10167 10162 10161 10158 ] final  122.31 input  -65.29 | X-H torsion
[ 10718 10713 10712 10709 ] final -178.46 input   66.30 | X-H torsion
[ 10763 10752 10751 10750 ] final   91.20 input  -60.55 | X-H torsion
[ 11005 11000 10999 10996 ] final -105.92 input  -57.11 | X-H torsion

> <Gold.Protein.ActiveResidues>
 VAL166  LYS551  ARG553  GLY616  TRP617  ASP618  TYR619  PRO620  LYS621  CYS622 
 ASP623  PHE694  ASN695  SER759  ASP760  ASP761  ALA762  ILE779  LEU786  VAL792 
 PHE793  MET794  SER795  GLU796  ALA797  LYS798  CYS799  TRP800  GLU811  SER814 

> <Gold.Protein.RotatedAtoms>
  151.3389  135.0859  159.9363 H   0  0  0  0  0  0  0  0  0  0  0  0  # atno 6907 bound_to 6896
  152.5216  133.9467  159.7663 H   0  0  0  0  0  0  0  0  0  0  0  0  # atno 6908 bound_to 6896
  150.9820  133.6182  159.2751 H   0  0  0  0  0  0  0  0  0  0  0  0  # atno 6909 bound_to 6896
  145.0873  140.8466  143.4003 H   0  0  0  0  0  0  0  0  0  0  0  0  # atno 7974 bound_to 7965
  155.7113  140.3494  155.4975 H   0  0  0  0  0  0  0  0  0  0  0  0  # atno 8008 bound_to 7997
  155.9353  140.1091  157.1122 H   0  0  0  0  0  0  0  0  0  0  0  0  # atno 8009 bound_to 7997
  154.4092  140.1223  156.4842 H   0  0  0  0  0  0  0  0  0  0  0  0  # atno 8010 bound_to 7997
  139.5866  144.7009  151.3393 H   0  0  0  0  0  0  0  0  0  0  0  0  # atno 10167 bound_to 10162
  156.8446  130.9698  151.3097 H   0  0  0  0  0  0  0  0  0  0  0  0  # atno 10718 bound_to 10713
  153.2057  135.4406  155.0320 H   0  0  0  0  0  0  0  0  0  0  0  0  # atno 10763 bound_to 10752
  154.8172  135.3321  154.7144 H   0  0  0  0  0  0  0  0  0  0  0  0  # atno 10764 bound_to 10752
  153.7586  135.6993  153.4986 H   0  0  0  0  0  0  0  0  0  0  0  0  # atno 10765 bound_to 10752
  141.1030  133.8849  157.1794 H   0  0  0  0  0  0  0  0  0  0  0  0  # atno 11005 bound_to 11000
  145.1107  139.2759  143.5638 LP  0  0  0  0  0  0  0  0  0  0  0  0  # atno 17320 bound_to 7965
  146.3531  140.0702  142.8623 LP  0  0  0  0  0  0  0  0  0  0  0  0  # atno 17321 bound_to 7965
  140.7137  143.7324  150.7614 LP  0  0  0  0  0  0  0  0  0  0  0  0  # atno 17342 bound_to 10162
  140.0869  143.4914  152.2500 LP  0  0  0  0  0  0  0  0  0  0  0  0  # atno 17343 bound_to 10162
  157.6337  130.8749  149.9320 LP  0  0  0  0  0  0  0  0  0  0  0  0  # atno 17370 bound_to 10713
  156.0862  130.3668  150.0484 LP  0  0  0  0  0  0  0  0  0  0  0  0  # atno 17371 bound_to 10713
  139.9888  135.0072  156.9927 LP  0  0  0  0  0  0  0  0  0  0  0  0  # atno 17394 bound_to 11000
  140.4975  134.1131  155.7244 LP  0  0  0  0  0  0  0  0  0  0  0  0  # atno 17395 bound_to 11000

$$$$
