AV-unprocessed.smi:2320|AV-procd|sdf|9279|dock9
  -GOLD-   2272012503D 1   1.00000     0.00000
 Structure written by MMmdl.
 41 42  0  0  0  0  0  0  0  0  1 V2000
  151.4906  145.0376  159.4549 C   0  0  0  0  0  0  0  0  0  0  0  0
  151.4982  143.5387  159.2361 C   0  0  0  0  0  0  0  0  0  0  0  0
  152.2955  142.7032  160.0431 C   0  0  0  0  0  0  0  0  0  0  0  0
  152.2988  141.3112  159.8312 C   0  0  0  0  0  0  0  0  0  0  0  0
  151.5105  140.7327  158.8152 C   0  0  0  0  0  0  0  0  0  0  0  0
  151.5755  139.3629  158.6775 O   0  0  0  0  0  0  0  0  0  0  0  0
  150.4752  138.6915  158.0748 C   0  0  0  0  0  0  0  0  0  0  0  0
  150.3238  137.2834  158.6755 C   0  0  2  0  0  0  0  0  0  0  0  0
  151.4739  136.5383  158.3282 O   0  0  0  0  0  0  0  0  0  0  0  0
  149.0444  136.5585  158.2005 C   0  0  0  0  0  0  0  0  0  0  0  0
  148.7732  135.3374  158.9772 N   0  0  0  0  0  0  0  0  0  0  0  0
  148.8963  134.1206  158.2868 C   0  0  0  0  0  0  0  0  0  0  0  0
  148.6816  132.9856  158.8674 N   0  0  0  0  0  0  0  0  0  0  0  0
  148.3173  132.9503  160.2166 C   0  0  0  0  0  0  0  0  0  0  0  0
  148.0880  131.5667  160.7982 C   0  0  0  0  0  0  0  0  0  0  0  0
  148.1841  134.0936  160.9430 C   0  0  0  0  0  0  0  0  0  0  0  0
  147.7915  134.1166  162.4149 C   0  0  0  0  0  0  0  0  0  0  0  0
  148.4313  135.3929  160.2970 C   0  0  0  0  0  0  0  0  0  0  0  0
  148.3419  136.4657  160.8971 O   0  0  0  0  0  0  0  0  0  0  0  0
  150.7107  141.5792  158.0065 C   0  0  0  0  0  0  0  0  0  0  0  0
  150.7073  142.9719  158.2175 C   0  0  0  0  0  0  0  0  0  0  0  0
  151.9476  145.3009  160.4092 H   0  0  0  0  0  0  0  0  0  0  0  0
  150.4688  145.4182  159.4529 H   0  0  0  0  0  0  0  0  0  0  0  0
  152.0451  145.5366  158.6600 H   0  0  0  0  0  0  0  0  0  0  0  0
  152.9077  143.1251  160.8268 H   0  0  0  0  0  0  0  0  0  0  0  0
  152.9139  140.6799  160.4557 H   0  0  0  0  0  0  0  0  0  0  0  0
  149.5514  139.2602  158.1965 H   0  0  0  0  0  0  0  0  0  0  0  0
  150.6640  138.5924  157.0046 H   0  0  0  0  0  0  0  0  0  0  0  0
  150.3209  137.3865  159.7612 H   0  0  0  0  0  0  0  0  0  0  0  0
  151.2988  136.0694  157.5269 H   0  0  0  0  0  0  0  0  0  0  0  0
  148.1903  137.2296  158.3089 H   0  0  0  0  0  0  0  0  0  0  0  0
  149.0939  136.3611  157.1273 H   0  0  0  0  0  0  0  0  0  0  0  0
  149.1867  134.2022  157.2379 H   0  0  0  0  0  0  0  0  0  0  0  0
  147.0609  131.4655  161.1496 H   0  0  0  0  0  0  0  0  0  0  0  0
  148.7632  131.3868  161.6350 H   0  0  0  0  0  0  0  0  0  0  0  0
  148.2647  130.7889  160.0542 H   0  0  0  0  0  0  0  0  0  0  0  0
  148.5942  134.5522  163.0106 H   0  0  0  0  0  0  0  0  0  0  0  0
  147.5814  133.1279  162.8189 H   0  0  0  0  0  0  0  0  0  0  0  0
  146.8968  134.7236  162.5570 H   0  0  0  0  0  0  0  0  0  0  0  0
  150.0905  141.1853  157.2160 H   0  0  0  0  0  0  0  0  0  0  0  0
  150.0942  143.6053  157.5932 H   0  0  0  0  0  0  0  0  0  0  0  0
  1  2  1  0  0  0  0
  1 22  1  0  0  0  0
  1 23  1  0  0  0  0
  1 24  1  0  0  0  0
  2 21  1  0  0  0  0
  2  3  2  0  0  0  0
  3  4  1  0  0  0  0
  3 25  1  0  0  0  0
  4  5  2  0  0  0  0
  4 26  1  0  0  0  0
  5  6  1  0  0  0  0
  5 20  1  0  0  0  0
  6  7  1  0  0  0  0
  7  8  1  0  0  0  0
  7 27  1  0  0  0  0
  7 28  1  0  0  0  0
  8  9  1  0  0  0  0
  8 10  1  0  0  0  0
  8 29  1  0  0  0  0
  9 30  1  0  0  0  0
 10 11  1  0  0  0  0
 10 31  1  0  0  0  0
 10 32  1  0  0  0  0
 11 18  1  0  0  0  0
 11 12  1  0  0  0  0
 12 13  2  0  0  0  0
 12 33  1  0  0  0  0
 13 14  1  0  0  0  0
 14 15  1  0  0  0  0
 14 16  2  0  0  0  0
 15 34  1  0  0  0  0
 15 35  1  0  0  0  0
 15 36  1  0  0  0  0
 16 17  1  0  0  0  0
 16 18  1  0  0  0  0
 17 37  1  0  0  0  0
 17 38  1  0  0  0  0
 17 39  1  0  0  0  0
 18 19  2  0  0  0  0
 20 21  2  0  0  0  0
 20 40  1  0  0  0  0
 21 41  1  0  0  0  0
M  END
> <s_m_source_file>
AV-unprocessed.smi

> <i_m_source_file_index>
2320

> <i_lp_mmshare_version>
43012

> <i_f3d_flags>
0

> <s_epik_input>
W0NIM11jMVtjSF1bY0hdYyhbY0hdW2NIXTEpT1tDSDJdW0NASF0oW09IXSlbQ0gyXW4yW2NIXW5jKFtDSDNdKWMoW0NIM10pYzI9Tw==

> <s_epik_cmdline>
J2VwaWtfcHl0aG9uJywgJy1waCcsICc3LjAnLCAnLXRuJywgJzgnLCAnLW1hJywgJzIwMCcsICctbWV0YWxfYmluZGluZycsICctaW1hZScsICc8aW5maWxlLm1hZT4nLCAnLW9tYWUnLCAnPG91dGZpbGUubWFlPic=

> <r_lp_tautomer_probability>
1

> <r_epik_Ionization_Penalty>
3.74127e-05

> <r_epik_Ionization_Penalty_Charging>
8.43242e-08

> <r_epik_Ionization_Penalty_Neutral>
3.73284e-05

> <r_epik_State_Penalty>
-0

> <r_epik_Charging_Adjusted_Penalty>
8.43242e-08

> <i_epik_Tot_Q>
0

> <i_epik_Tot_abs_Q>
0

> <r_epik_Metal_State_Penalty>
-0

> <b_epik_Metal_Only>
0

> <s_lp_Force_Field>
OPLS_2005

> <r_lp_Energy>
24.611

> <b_lp_Chiralities_Consistent>
1

> <s_lp_Variant>
AV-unprocessed.smi:2320-1

> <Gold.Version>
5.8.1

> <Gold.Id.Protein>
6NUR|6NUR_protein|mol2

> <Gold.PLP.Fitness>
50.2925

> <Gold.PLP.PLP>
-44.7387

> <Gold.PLP.part.hbond>
-3.0000

> <Gold.PLP.part.metal>
0.0000

> <Gold.PLP.part.buried>
-5.2814

> <Gold.PLP.part.nonpolar>
-36.5935

> <Gold.PLP.part.repulsive>
0.0000

> <Gold.PLP.ligand.clash>
0.0000

> <Gold.PLP.ligand.torsion>
0.6732

> <Gold.PLP.Chemscore.Hbond>
2.2880

> <Gold.PLP.Chemscore.CHOScore>
0.0000

> <Gold.PLP.Chemscore.Metal>
0.0000

> <Gold.Chemscore.Hbonds>
donor molecule, donor type, donor heavy atom, donor atom, acceptor molecule, acceptor atom, score
      P1  H  6896  6907       L1     9  0.38
      P1  H  6931  6943       L1    19  0.68

> <Gold.PLP.Chemscore.Internal.Correction>
0.0363

> <Gold.Rescore>
     Score         DG    S(hbond)    S(metal)    S(lipo)     H(rot)  DE(clash)    DE(int)     intcor
     15.81     -17.49       1.74        0.00     104.40       2.35       0.01       1.67       ----

> <Gold.Chemscore.Fitness>
15.8120

> <Gold.Chemscore.DG>
-17.4912

> <Gold.Chemscore.ZeroCoef>
-5.4800

> <Gold.Chemscore.Hbond>
1.7395

> <Gold.Chemscore.Metal>
0.0000

> <Gold.Chemscore.Lipo>
104.3986

> <Gold.Chemscore.Internal_Hbond>
0.0000

> <Gold.Chemscore.DEClash>
0.0089

> <Gold.Chemscore.DEInternal>
1.6703

> <Gold.Chemscore.Rot>
2.3490

> <Gold.Chemscore.Internal.Correction>
   9.000000E+99

> <Gold.Chemscore.Hbonds>
donor molecule, donor type, donor heavy atom, donor atom, acceptor molecule, acceptor atom, score
      P1  H  6896  6907       L1     9  0.10
      P1  H  6931  6943       L1    19  0.68

> <Gold.Chemscore.Hbond.Weighted>
-5.8101

> <Gold.Chemscore.Metal.Weighted>
-0.0000

> <Gold.Chemscore.Lipo.Weighted>
-12.2146

> <Gold.Chemscore.Internal_Hbond.Weighted>
0.0000

> <Gold.Chemscore.DEClash.Weighted>
0.0089

> <Gold.Chemscore.DEInternal.Weighted>
1.6703

> <Gold.Chemscore.Rot.Weighted>
6.0136

> <Gold.Chemscore.Internal.Correction.Weighted>
   9.000000E+99

> <Gold.Protein.RotatedTorsions>
[ 6907 6896 6895 6894 ] final    4.45 input  -60.11 | X-H torsion
[ 7974 7965 7964 7962 ] final -164.58 input  175.53 | X-H torsion
[ 8008 7997 7996 7995 ] final -152.49 input   59.86 | X-H torsion
[ 10167 10162 10161 10158 ] final -167.77 input  -65.29 | X-H torsion
[ 10718 10713 10712 10709 ] final -150.90 input   66.30 | X-H torsion
[ 10763 10752 10751 10750 ] final -112.71 input  -60.55 | X-H torsion
[ 11005 11000 10999 10996 ] final  -39.61 input  -57.11 | X-H torsion

> <Gold.Protein.ActiveResidues>
 VAL166  LYS551  ARG553  GLY616  TRP617  ASP618  TYR619  PRO620  LYS621  CYS622 
 ASP623  PHE694  ASN695  SER759  ASP760  ASP761  ALA762  ILE779  LEU786  VAL792 
 PHE793  MET794  SER795  GLU796  ALA797  LYS798  CYS799  TRP800  GLU811  SER814 

> <Gold.Protein.RotatedAtoms>
  151.6415  135.1012  160.0142 H   0  0  0  0  0  0  0  0  0  0  0  0  # atno 6907 bound_to 6896
  152.4051  133.6872  159.6358 H   0  0  0  0  0  0  0  0  0  0  0  0  # atno 6908 bound_to 6896
  150.7946  133.8640  159.3281 H   0  0  0  0  0  0  0  0  0  0  0  0  # atno 6909 bound_to 6896
  144.7293  140.2940  143.6216 H   0  0  0  0  0  0  0  0  0  0  0  0  # atno 7974 bound_to 7965
  155.6560  140.0717  157.2570 H   0  0  0  0  0  0  0  0  0  0  0  0  # atno 8008 bound_to 7997
  154.4152  140.1725  156.1776 H   0  0  0  0  0  0  0  0  0  0  0  0  # atno 8009 bound_to 7997
  155.9737  140.3360  155.6602 H   0  0  0  0  0  0  0  0  0  0  0  0  # atno 8010 bound_to 7997
  139.6028  144.0975  152.1761 H   0  0  0  0  0  0  0  0  0  0  0  0  # atno 10167 bound_to 10162
  156.4521  130.8173  151.2404 H   0  0  0  0  0  0  0  0  0  0  0  0  # atno 10718 bound_to 10713
  154.8363  135.4480  154.1237 H   0  0  0  0  0  0  0  0  0  0  0  0  # atno 10763 bound_to 10752
  153.2466  135.6922  153.7731 H   0  0  0  0  0  0  0  0  0  0  0  0  # atno 10764 bound_to 10752
  153.7059  135.3364  155.3211 H   0  0  0  0  0  0  0  0  0  0  0  0  # atno 10765 bound_to 10752
  141.0114  133.6906  156.2209 H   0  0  0  0  0  0  0  0  0  0  0  0  # atno 11005 bound_to 11000
  145.7827  139.1897  143.2148 LP  0  0  0  0  0  0  0  0  0  0  0  0  # atno 17320 bound_to 7965
  146.0821  140.7753  142.9636 LP  0  0  0  0  0  0  0  0  0  0  0  0  # atno 17321 bound_to 7965
  140.0576  144.5883  150.7288 LP  0  0  0  0  0  0  0  0  0  0  0  0  # atno 17342 bound_to 10162
  140.7262  143.2639  151.4111 LP  0  0  0  0  0  0  0  0  0  0  0  0  # atno 17343 bound_to 10162
  157.7502  131.0134  150.3424 LP  0  0  0  0  0  0  0  0  0  0  0  0  # atno 17370 bound_to 10713
  156.3805  130.3879  149.7105 LP  0  0  0  0  0  0  0  0  0  0  0  0  # atno 17371 bound_to 10713
  140.6727  134.4851  157.5587 LP  0  0  0  0  0  0  0  0  0  0  0  0  # atno 17394 bound_to 11000
  139.9092  134.8382  156.1591 LP  0  0  0  0  0  0  0  0  0  0  0  0  # atno 17395 bound_to 11000

$$$$
