AV-unprocessed.smi:276|AV-procd|sdf|2084|dock4
  -GOLD-   2262021353D 1   1.00000     0.00000
 Structure written by MMmdl.
 57 61  0  0  0  0  0  0  0  0  1 V2000
  149.4150  145.1493  160.5121 C   0  0  0  0  0  0  0  0  0  0  0  0
  149.5615  143.7828  160.1678 O   0  0  0  0  0  0  0  0  0  0  0  0
  149.6726  143.5819  158.7678 C   0  0  2  0  0  0  0  0  0  0  0  0
  149.3148  142.1665  158.2991 C   0  0  0  0  0  0  0  0  0  0  0  0
  150.4671  142.2985  157.2941 C   0  0  2  0  0  0  0  0  0  0  0  0
  151.1853  141.0413  157.0708 N   0  0  0  0  0  0  0  0  0  0  0  0
  151.4057  140.2106  158.2480 C   0  0  0  0  0  0  0  0  0  0  0  0
  150.7470  140.2804  156.0421 C   0  0  0  0  0  0  0  0  0  0  0  0
  151.6214  139.3781  155.5303 N   0  0  0  0  0  0  0  0  0  0  0  0
  151.2596  138.6005  154.5056 C   0  0  0  0  0  0  0  0  0  0  0  0
  150.0914  138.5575  153.8615 N   0  0  0  0  0  0  0  0  0  0  0  0
  149.2025  139.4472  154.3893 C   0  0  0  0  0  0  0  0  0  0  0  0
  149.4407  140.3363  155.4753 C   0  0  0  0  0  0  0  0  0  0  0  0
  148.2921  141.0744  155.7391 N   0  0  0  0  0  0  0  0  0  0  0  0
  147.4313  140.6569  154.8515 C   0  0  0  0  0  0  0  0  0  0  0  0
  147.8965  139.6813  154.0003 N   0  0  0  0  0  0  0  0  0  0  0  0
  147.1602  139.0382  152.9270 C   0  0  0  0  0  0  0  0  0  0  0  0
  146.1963  137.9533  153.4436 C   0  0  1  0  0  0  0  0  0  0  0  0
  145.4335  138.4423  154.5312 O   0  0  0  0  0  0  0  0  0  0  0  0
  145.2815  137.3963  152.3335 C   0  0  1  0  0  0  0  0  0  0  0  0
  145.9648  136.6486  151.1844 C   0  0  0  0  0  0  0  0  0  0  0  0
  144.8834  135.6983  150.6854 C   0  0  0  0  0  0  0  0  0  0  0  0
  143.7489  135.8322  151.7064 C   0  0  0  0  0  0  0  0  0  0  0  0
  144.3382  136.4625  152.8339 O   0  0  0  0  0  0  0  0  0  0  0  0
  151.1104  143.3010  158.2898 C   0  0  0  0  0  0  0  0  0  0  0  0
  152.0118  144.4489  157.8166 C   0  0  0  0  0  0  0  0  0  0  0  0
  153.1995  143.7709  158.5077 C   0  0  0  0  0  0  0  0  0  0  0  0
  152.2116  142.9026  159.2939 C   0  0  0  0  0  0  0  0  0  0  0  0
  149.3463  145.2482  161.5954 H   0  0  0  0  0  0  0  0  0  0  0  0
  148.5087  145.5735  160.0780 H   0  0  0  0  0  0  0  0  0  0  0  0
  150.2717  145.7341  160.1743 H   0  0  0  0  0  0  0  0  0  0  0  0
  149.1907  144.3624  158.1743 H   0  0  0  0  0  0  0  0  0  0  0  0
  149.4884  141.4095  159.0667 H   0  0  0  0  0  0  0  0  0  0  0  0
  148.3253  142.0711  157.8516 H   0  0  0  0  0  0  0  0  0  0  0  0
  150.1238  142.7872  156.3812 H   0  0  0  0  0  0  0  0  0  0  0  0
  150.4579  139.8457  158.6459 H   0  0  0  0  0  0  0  0  0  0  0  0
  151.9081  140.7764  159.0325 H   0  0  0  0  0  0  0  0  0  0  0  0
  152.0331  139.3501  158.0108 H   0  0  0  0  0  0  0  0  0  0  0  0
  152.0153  137.9159  154.1498 H   0  0  0  0  0  0  0  0  0  0  0  0
  146.4255  141.0474  154.7962 H   0  0  0  0  0  0  0  0  0  0  0  0
  146.6155  139.8034  152.3722 H   0  0  0  0  0  0  0  0  0  0  0  0
  147.8805  138.6032  152.2332 H   0  0  0  0  0  0  0  0  0  0  0  0
  146.7882  137.1228  153.8308 H   0  0  0  0  0  0  0  0  0  0  0  0
  145.0096  137.7107  154.9529 H   0  0  0  0  0  0  0  0  0  0  0  0
  144.7127  138.2274  151.9114 H   0  0  0  0  0  0  0  0  0  0  0  0
  146.3204  137.3268  150.4084 H   0  0  0  0  0  0  0  0  0  0  0  0
  146.8181  136.0666  151.5330 H   0  0  0  0  0  0  0  0  0  0  0  0
  144.5411  135.9578  149.6832 H   0  0  0  0  0  0  0  0  0  0  0  0
  145.2624  134.6761  150.6541 H   0  0  0  0  0  0  0  0  0  0  0  0
  142.9557  136.4712  151.3152 H   0  0  0  0  0  0  0  0  0  0  0  0
  143.3091  134.8713  151.9739 H   0  0  0  0  0  0  0  0  0  0  0  0
  152.1102  144.5383  156.7350 H   0  0  0  0  0  0  0  0  0  0  0  0
  151.7502  145.4032  158.2759 H   0  0  0  0  0  0  0  0  0  0  0  0
  153.8206  143.1976  157.8197 H   0  0  0  0  0  0  0  0  0  0  0  0
  153.8010  144.4380  159.1252 H   0  0  0  0  0  0  0  0  0  0  0  0
  152.0425  143.2920  160.2982 H   0  0  0  0  0  0  0  0  0  0  0  0
  152.4625  141.8427  159.3239 H   0  0  0  0  0  0  0  0  0  0  0  0
  1  2  1  0  0  0  0
  1 29  1  0  0  0  0
  1 30  1  0  0  0  0
  1 31  1  0  0  0  0
  2  3  1  0  0  0  0
  3 25  1  0  0  0  0
  3  4  1  0  0  0  0
  3 32  1  0  0  0  0
  4  5  1  0  0  0  0
  4 33  1  0  0  0  0
  4 34  1  0  0  0  0
  5  6  1  0  0  0  0
  5 25  1  0  0  0  0
  5 35  1  0  0  0  0
  6  7  1  0  0  0  0
  6  8  1  0  0  0  0
  7 36  1  0  0  0  0
  7 37  1  0  0  0  0
  7 38  1  0  0  0  0
  8 13  1  0  0  0  0
  8  9  2  0  0  0  0
  9 10  1  0  0  0  0
 10 11  2  0  0  0  0
 10 39  1  0  0  0  0
 11 12  1  0  0  0  0
 12 16  1  0  0  0  0
 12 13  2  0  0  0  0
 13 14  1  0  0  0  0
 14 15  2  0  0  0  0
 15 16  1  0  0  0  0
 15 40  1  0  0  0  0
 16 17  1  0  0  0  0
 17 18  1  0  0  0  0
 17 41  1  0  0  0  0
 17 42  1  0  0  0  0
 18 19  1  0  0  0  0
 18 20  1  0  0  0  0
 18 43  1  0  0  0  0
 19 44  1  0  0  0  0
 20 24  1  0  0  0  0
 20 21  1  0  0  0  0
 20 45  1  0  0  0  0
 21 22  1  0  0  0  0
 21 46  1  0  0  0  0
 21 47  1  0  0  0  0
 22 23  1  0  0  0  0
 22 48  1  0  0  0  0
 22 49  1  0  0  0  0
 23 24  1  0  0  0  0
 23 50  1  0  0  0  0
 23 51  1  0  0  0  0
 25 28  1  0  0  0  0
 25 26  1  0  0  0  0
 26 27  1  0  0  0  0
 26 52  1  0  0  0  0
 26 53  1  0  0  0  0
 27 28  1  0  0  0  0
 27 54  1  0  0  0  0
 27 55  1  0  0  0  0
 28 56  1  0  0  0  0
 28 57  1  0  0  0  0
M  END
> <s_m_source_file>
AV-unprocessed.smi

> <i_m_source_file_index>
276

> <i_lp_mmshare_version>
43012

> <i_f3d_flags>
0

> <s_epik_input>
W0NIMl0xW0NIMl1bQ0gyXUMxMltDQEhdKE9bQ0gzXSlbQ0gyXVtDQEhdMk4oW0NIM10pYyhuW2NIXW4zKWMoYzM0KW5bY0hdbjRbQ0gyXVtDQEhdKFtPSF0pW0NAQEhdNVtDSDJdW0NIMl1bQ0gyXU81

> <s_epik_cmdline>
J2VwaWtfcHl0aG9uJywgJy1waCcsICc3LjAnLCAnLXRuJywgJzgnLCAnLW1hJywgJzIwMCcsICctbWV0YWxfYmluZGluZycsICctaW1hZScsICc8aW5maWxlLm1hZT4nLCAnLW9tYWUnLCAnPG91dGZpbGUubWFlPic=

> <r_lp_tautomer_probability>
1

> <r_epik_Ionization_Penalty>
0.00204117

> <r_epik_Ionization_Penalty_Charging>
0

> <r_epik_Ionization_Penalty_Neutral>
0.00204117

> <r_epik_State_Penalty>
0.00127401

> <r_epik_Charging_Adjusted_Penalty>
0.00127401

> <i_epik_Tot_Q>
0

> <i_epik_Tot_abs_Q>
0

> <r_epik_Metal_State_Penalty>
-0

> <b_epik_Metal_Only>
0

> <s_lp_Force_Field>
OPLS_2005

> <r_lp_Energy>
58.0628

> <b_lp_Chiralities_Consistent>
1

> <s_lp_Variant>
AV-unprocessed.smi:276-15

> <Gold.Version>
5.8.1

> <Gold.Id.Protein>
6NUR|6NUR_protein|mol2

> <Gold.PLP.Fitness>
44.2161

> <Gold.PLP.PLP>
-45.5247

> <Gold.PLP.part.hbond>
-1.0000

> <Gold.PLP.part.metal>
0.0000

> <Gold.PLP.part.buried>
-4.9121

> <Gold.PLP.part.nonpolar>
-41.4779

> <Gold.PLP.part.repulsive>
1.2586

> <Gold.PLP.ligand.clash>
0.0640

> <Gold.PLP.ligand.torsion>
1.4773

> <Gold.PLP.Chemscore.Hbond>
0.3360

> <Gold.PLP.Chemscore.CHOScore>
0.0000

> <Gold.PLP.Chemscore.Metal>
0.0000

> <Gold.Chemscore.Hbonds>
donor molecule, donor type, donor heavy atom, donor atom, acceptor molecule, acceptor atom, score
      P1  H  6933  6944       L1     2  0.22

> <Gold.PLP.Chemscore.Internal.Correction>
0.7021

> <Gold.Rescore>
     Score         DG    S(hbond)    S(metal)    S(lipo)     H(rot)  DE(clash)    DE(int)     intcor
      6.93     -13.30       0.41        0.00     114.68       2.72       1.02       5.36       ----

> <Gold.Chemscore.Fitness>
6.9286

> <Gold.Chemscore.DG>
-13.3037

> <Gold.Chemscore.ZeroCoef>
-5.4800

> <Gold.Chemscore.Hbond>
0.4079

> <Gold.Chemscore.Metal>
0.0000

> <Gold.Chemscore.Lipo>
114.6779

> <Gold.Chemscore.Internal_Hbond>
0.0000

> <Gold.Chemscore.DEClash>
1.0160

> <Gold.Chemscore.DEInternal>
5.3591

> <Gold.Chemscore.Rot>
2.7172

> <Gold.Chemscore.Internal.Correction>
   9.000000E+99

> <Gold.Chemscore.Hbonds>
donor molecule, donor type, donor heavy atom, donor atom, acceptor molecule, acceptor atom, score
      P1  H  6933  6944       L1     2  0.21

> <Gold.Chemscore.Hbond.Weighted>
-1.3624

> <Gold.Chemscore.Metal.Weighted>
-0.0000

> <Gold.Chemscore.Lipo.Weighted>
-13.4173

> <Gold.Chemscore.Internal_Hbond.Weighted>
0.0000

> <Gold.Chemscore.DEClash.Weighted>
1.0160

> <Gold.Chemscore.DEInternal.Weighted>
5.3591

> <Gold.Chemscore.Rot.Weighted>
6.9560

> <Gold.Chemscore.Internal.Correction.Weighted>
   9.000000E+99

> <Gold.Protein.RotatedTorsions>
[ 6907 6896 6895 6894 ] final  141.90 input  -60.11 | X-H torsion
[ 7974 7965 7964 7962 ] final    3.33 input  175.53 | X-H torsion
[ 8008 7997 7996 7995 ] final   28.62 input   59.86 | X-H torsion
[ 10167 10162 10161 10158 ] final   44.17 input  -65.29 | X-H torsion
[ 10718 10713 10712 10709 ] final  -20.91 input   66.30 | X-H torsion
[ 10763 10752 10751 10750 ] final  136.49 input  -60.55 | X-H torsion
[ 11005 11000 10999 10996 ] final  -35.53 input  -57.11 | X-H torsion

> <Gold.Protein.ActiveResidues>
 VAL166  LYS551  ARG553  GLY616  TRP617  ASP618  TYR619  PRO620  LYS621  CYS622 
 ASP623  PHE694  ASN695  SER759  ASP760  ASP761  ALA762  ILE779  LEU786  VAL792 
 PHE793  MET794  SER795  GLU796  ALA797  LYS798  CYS799  TRP800  GLU811  SER814 

> <Gold.Protein.RotatedAtoms>
  152.2254  133.5016  159.5185 H   0  0  0  0  0  0  0  0  0  0  0  0  # atno 6907 bound_to 6896
  150.7023  134.1288  159.4071 H   0  0  0  0  0  0  0  0  0  0  0  0  # atno 6908 bound_to 6896
  151.9208  135.0299  160.0572 H   0  0  0  0  0  0  0  0  0  0  0  0  # atno 6909 bound_to 6896
  146.2445  140.0701  142.8363 H   0  0  0  0  0  0  0  0  0  0  0  0  # atno 7974 bound_to 7965
  155.0615  140.3190  155.4659 H   0  0  0  0  0  0  0  0  0  0  0  0  # atno 8008 bound_to 7997
  156.2812  140.2128  156.5686 H   0  0  0  0  0  0  0  0  0  0  0  0  # atno 8009 bound_to 7997
  154.7128  140.0496  157.0554 H   0  0  0  0  0  0  0  0  0  0  0  0  # atno 8010 bound_to 7997
  140.3370  144.2517  150.6160 H   0  0  0  0  0  0  0  0  0  0  0  0  # atno 10167 bound_to 10162
  156.5254  130.4642  149.6575 H   0  0  0  0  0  0  0  0  0  0  0  0  # atno 10718 bound_to 10713
  153.8575  135.3071  155.3436 H   0  0  0  0  0  0  0  0  0  0  0  0  # atno 10763 bound_to 10752
  154.7864  135.4807  153.9958 H   0  0  0  0  0  0  0  0  0  0  0  0  # atno 10764 bound_to 10752
  153.1482  135.6838  153.9017 H   0  0  0  0  0  0  0  0  0  0  0  0  # atno 10765 bound_to 10752
  140.9803  133.7060  156.1673 H   0  0  0  0  0  0  0  0  0  0  0  0  # atno 11005 bound_to 11000
  145.0823  140.9229  143.4818 LP  0  0  0  0  0  0  0  0  0  0  0  0  # atno 17320 bound_to 7965
  145.0857  139.2927  143.5761 LP  0  0  0  0  0  0  0  0  0  0  0  0  # atno 17321 bound_to 7965
  140.5344  143.2236  151.8187 LP  0  0  0  0  0  0  0  0  0  0  0  0  # atno 17342 bound_to 10162
  139.4846  144.4680  151.9460 LP  0  0  0  0  0  0  0  0  0  0  0  0  # atno 17343 bound_to 10162
  156.3110  130.7229  151.2121 LP  0  0  0  0  0  0  0  0  0  0  0  0  # atno 17370 bound_to 10713
  157.7430  131.0481  150.4979 LP  0  0  0  0  0  0  0  0  0  0  0  0  # atno 17371 bound_to 10713
  140.7196  134.4373  157.5576 LP  0  0  0  0  0  0  0  0  0  0  0  0  # atno 17394 bound_to 11000
  139.8947  134.8699  156.2163 LP  0  0  0  0  0  0  0  0  0  0  0  0  # atno 17395 bound_to 11000

$$$$
