AV-unprocessed.smi:2279|AV-procd|sdf|9190|dock1
  -GOLD-   2272012403D 1   1.00000     0.00000
 Structure written by MMmdl.
 57 59  0  0  0  0  0  0  0  0  2 V2000
  151.5030  145.4540  159.4041 C   0  0  0  0  0  0  0  0  0  0  0  0
  151.9085  143.9954  159.3631 C   0  0  0  0  0  0  0  0  0  0  0  0
  152.7546  143.4517  160.3486 C   0  0  0  0  0  0  0  0  0  0  0  0
  153.0936  142.0879  160.2541 C   0  0  0  0  0  0  0  0  0  0  0  0
  153.9999  141.4381  161.2783 C   0  0  0  0  0  0  0  0  0  0  0  0
  152.6496  141.2853  159.2634 N   0  0  0  0  0  0  0  0  0  0  0  0
  151.8359  141.7983  158.3076 C   0  0  0  0  0  0  0  0  0  0  0  0
  151.3230  141.0407  157.2208 N   0  0  0  0  0  0  0  0  0  0  0  0
  150.0959  141.1020  156.6740 C   0  0  0  0  0  0  0  0  0  0  0  0
  149.2028  141.8796  157.0117 O   0  0  0  0  0  0  0  0  0  0  0  0
  149.9497  140.1955  155.6957 N   0  0  0  0  0  0  0  0  0  0  0  0
  148.7323  140.0006  154.9132 C   0  0  2  0  0  0  0  0  0  0  0  0
  148.5319  141.1511  153.9050 C   0  0  0  0  0  0  0  0  0  0  0  0
  147.1811  141.0186  153.1775 C   0  0  0  0  0  0  0  0  0  0  0  0
  146.0394  140.9879  154.1355 N   0  3  2  0  0  0  0  0  0  0  0  0
  145.7293  142.2925  154.8131 C   0  0  0  0  0  0  0  0  0  0  0  0
  144.5420  142.1659  155.7975 C   0  0  0  0  0  0  0  0  0  0  0  0
  144.1447  143.5208  156.4072 C   0  0  0  0  0  0  0  0  0  0  0  0
  143.7836  144.4610  155.3504 N   0  0  0  0  0  0  0  0  0  0  0  0
  143.3429  145.7126  155.9501 C   0  0  0  0  0  0  0  0  0  0  0  0
  144.9484  144.7135  154.5073 C   0  0  0  0  0  0  0  0  0  0  0  0
  145.3847  143.4163  153.8059 C   0  0  0  0  0  0  0  0  0  0  0  0
  146.1998  139.8210  155.0506 C   0  0  0  0  0  0  0  0  0  0  0  0
  147.5158  139.8920  155.8509 C   0  0  0  0  0  0  0  0  0  0  0  0
  151.4439  143.1556  158.3309 C   0  0  0  0  0  0  0  0  0  0  0  0
  151.9393  145.9635  160.2637 H   0  0  0  0  0  0  0  0  0  0  0  0
  150.4184  145.5426  159.4696 H   0  0  0  0  0  0  0  0  0  0  0  0
  151.8358  145.9641  158.4999 H   0  0  0  0  0  0  0  0  0  0  0  0
  153.1336  144.0629  161.1548 H   0  0  0  0  0  0  0  0  0  0  0  0
  154.1378  142.0812  162.1479 H   0  0  0  0  0  0  0  0  0  0  0  0
  154.9787  141.2373  160.8418 H   0  0  0  0  0  0  0  0  0  0  0  0
  153.5758  140.4931  161.6199 H   0  0  0  0  0  0  0  0  0  0  0  0
  151.9578  140.3609  156.8294 H   0  0  0  0  0  0  0  0  0  0  0  0
  150.7347  139.5992  155.4774 H   0  0  0  0  0  0  0  0  0  0  0  0
  148.8164  139.0618  154.3619 H   0  0  0  0  0  0  0  0  0  0  0  0
  148.5907  142.1142  154.4135 H   0  0  0  0  0  0  0  0  0  0  0  0
  149.3368  141.1484  153.1693 H   0  0  0  0  0  0  0  0  0  0  0  0
  147.0649  141.7926  152.4215 H   0  0  0  0  0  0  0  0  0  0  0  0
  147.1760  140.0843  152.6143 H   0  0  0  0  0  0  0  0  0  0  0  0
  146.6034  142.6143  155.3793 H   0  0  0  0  0  0  0  0  0  0  0  0
  143.6807  141.7275  155.2910 H   0  0  0  0  0  0  0  0  0  0  0  0
  144.7892  141.5041  156.6259 H   0  0  0  0  0  0  0  0  0  0  0  0
  143.2936  143.3804  157.0752 H   0  0  0  0  0  0  0  0  0  0  0  0
  144.9620  143.9213  157.0097 H   0  0  0  0  0  0  0  0  0  0  0  0
  143.0644  146.4304  155.1777 H   0  0  0  0  0  0  0  0  0  0  0  0
  144.1262  146.1587  156.5648 H   0  0  0  0  0  0  0  0  0  0  0  0
  142.4671  145.5481  156.5790 H   0  0  0  0  0  0  0  0  0  0  0  0
  144.6978  145.4637  153.7560 H   0  0  0  0  0  0  0  0  0  0  0  0
  145.7685  145.1186  155.1028 H   0  0  0  0  0  0  0  0  0  0  0  0
  146.2475  143.6645  153.1891 H   0  0  0  0  0  0  0  0  0  0  0  0
  144.5960  143.0846  153.1286 H   0  0  0  0  0  0  0  0  0  0  0  0
  145.3475  139.6997  155.7154 H   0  0  0  0  0  0  0  0  0  0  0  0
  146.2061  138.9142  154.4438 H   0  0  0  0  0  0  0  0  0  0  0  0
  147.6108  139.0025  156.4749 H   0  0  0  0  0  0  0  0  0  0  0  0
  147.4900  140.7393  156.5369 H   0  0  0  0  0  0  0  0  0  0  0  0
  150.7950  143.5529  157.5637 H   0  0  0  0  0  0  0  0  0  0  0  0
  145.2228  140.7871  153.5757 H   0  0  0  0  0  0  0  0  0  0  0  0
  1  2  1  0  0  0  0
  1 26  1  0  0  0  0
  1 27  1  0  0  0  0
  1 28  1  0  0  0  0
  2 25  1  0  0  0  0
  2  3  2  0  0  0  0
  3  4  1  0  0  0  0
  3 29  1  0  0  0  0
  4  5  1  0  0  0  0
  4  6  2  0  0  0  0
  5 30  1  0  0  0  0
  5 31  1  0  0  0  0
  5 32  1  0  0  0  0
  6  7  1  0  0  0  0
  7  8  1  0  0  0  0
  7 25  2  0  0  0  0
  8  9  1  0  0  0  0
  8 33  1  0  0  0  0
  9 10  2  0  0  0  0
  9 11  1  0  0  0  0
 11 12  1  0  0  0  0
 11 34  1  0  0  0  0
 12 24  1  0  0  0  0
 12 13  1  0  0  0  0
 12 35  1  0  0  0  0
 13 14  1  0  0  0  0
 13 36  1  0  0  0  0
 13 37  1  0  0  0  0
 14 15  1  0  0  0  0
 14 38  1  0  0  0  0
 14 39  1  0  0  0  0
 15 16  1  0  0  0  0
 15 23  1  0  0  0  0
 15 57  1  0  0  0  0
 16 22  1  0  0  0  0
 16 17  1  0  0  0  0
 16 40  1  0  0  0  0
 17 18  1  0  0  0  0
 17 41  1  0  0  0  0
 17 42  1  0  0  0  0
 18 19  1  0  0  0  0
 18 43  1  0  0  0  0
 18 44  1  0  0  0  0
 19 20  1  0  0  0  0
 19 21  1  0  0  0  0
 20 45  1  0  0  0  0
 20 46  1  0  0  0  0
 20 47  1  0  0  0  0
 21 22  1  0  0  0  0
 21 48  1  0  0  0  0
 21 49  1  0  0  0  0
 22 50  1  0  0  0  0
 22 51  1  0  0  0  0
 23 24  1  0  0  0  0
 23 52  1  0  0  0  0
 23 53  1  0  0  0  0
 24 54  1  0  0  0  0
 24 55  1  0  0  0  0
 25 56  1  0  0  0  0
M  CHG  1  15   1
M  END
> <s_m_source_file>
AV-unprocessed.smi

> <i_m_source_file_index>
2279

> <i_lp_mmshare_version>
43012

> <i_f3d_flags>
0

> <s_epik_input>
W0NIM11jMVtjSF1jKFtDSDNdKW5jKFtjSF0xKVtOSF1DKD1PKVtOSF1bQ0hdMltDSDJdW0NIMl1OKFtDSDJdW0NIMl0yKVtDSF0zW0NIMl1bQ0gyXU4oW0NIM10pW0NIMl1bQ0gyXTM=

> <s_epik_cmdline>
J2VwaWtfcHl0aG9uJywgJy1waCcsICc3LjAnLCAnLXRuJywgJzgnLCAnLW1hJywgJzIwMCcsICctbWV0YWxfYmluZGluZycsICctaW1hZScsICc8aW5maWxlLm1hZT4nLCAnLW9tYWUnLCAnPG91dGZpbGUubWFlPic=

> <r_epik_Ionization_Penalty>
1.37263

> <r_epik_Ionization_Penalty_Charging>
0.00081195

> <r_epik_Ionization_Penalty_Neutral>
1.37182

> <r_epik_State_Penalty>
1.55149

> <r_epik_Charging_Adjusted_Penalty>
1.5523

> <i_epik_Tot_Q>
1

> <i_epik_Tot_abs_Q>
1

> <r_epik_Metal_State_Penalty>
1.5515

> <b_epik_Metal_Only>
0

> <s_lp_Force_Field>
OPLS_2005

> <r_lp_Energy>
33.7825

> <b_lp_Chiralities_Consistent>
1

> <s_lp_Variant>
AV-unprocessed.smi:2279-8

> <Gold.Version>
5.8.1

> <Gold.Id.Protein>
6NUR|6NUR_protein|mol2

> <Gold.PLP.Fitness>
49.1406

> <Gold.PLP.PLP>
-44.0276

> <Gold.PLP.part.hbond>
-1.0000

> <Gold.PLP.part.metal>
0.0000

> <Gold.PLP.part.buried>
-6.2253

> <Gold.PLP.part.nonpolar>
-37.1974

> <Gold.PLP.part.repulsive>
0.5206

> <Gold.PLP.ligand.clash>
0.0000

> <Gold.PLP.ligand.torsion>
0.4685

> <Gold.PLP.Chemscore.Hbond>
2.0000

> <Gold.PLP.Chemscore.CHOScore>
0.0000

> <Gold.PLP.Chemscore.Metal>
0.0000

> <Gold.Chemscore.Hbonds>
donor molecule, donor type, donor heavy atom, donor atom, acceptor molecule, acceptor atom, score
      L1  H    15    57       P1 10175  2.00

> <Gold.PLP.Chemscore.Internal.Correction>
0.0501

> <Gold.Rescore>
     Score         DG    S(hbond)    S(metal)    S(lipo)     H(rot)  DE(clash)    DE(int)     intcor
     15.41     -19.70       0.97        0.00     119.91       1.19       1.20       3.08       ----

> <Gold.Chemscore.Fitness>
15.4149

> <Gold.Chemscore.DG>
-19.6952

> <Gold.Chemscore.ZeroCoef>
-5.4800

> <Gold.Chemscore.Hbond>
0.9687

> <Gold.Chemscore.Metal>
0.0000

> <Gold.Chemscore.Lipo>
119.9105

> <Gold.Chemscore.Internal_Hbond>
0.0000

> <Gold.Chemscore.DEClash>
1.2034

> <Gold.Chemscore.DEInternal>
3.0769

> <Gold.Chemscore.Rot>
1.1913

> <Gold.Chemscore.Internal.Correction>
   9.000000E+99

> <Gold.Chemscore.Hbonds>
donor molecule, donor type, donor heavy atom, donor atom, acceptor molecule, acceptor atom, score
      L1  H    15    57       P1 10175  0.88

> <Gold.Chemscore.Hbond.Weighted>
-3.2354

> <Gold.Chemscore.Metal.Weighted>
-0.0000

> <Gold.Chemscore.Lipo.Weighted>
-14.0295

> <Gold.Chemscore.Internal_Hbond.Weighted>
0.0000

> <Gold.Chemscore.DEClash.Weighted>
1.2034

> <Gold.Chemscore.DEInternal.Weighted>
3.0769

> <Gold.Chemscore.Rot.Weighted>
3.0497

> <Gold.Chemscore.Internal.Correction.Weighted>
   9.000000E+99

> <Gold.Protein.RotatedTorsions>
[ 6907 6896 6895 6894 ] final   50.11 input  -60.11 | X-H torsion
[ 7974 7965 7964 7962 ] final  -64.67 input  175.53 | X-H torsion
[ 8008 7997 7996 7995 ] final  -78.09 input   59.86 | X-H torsion
[ 10167 10162 10161 10158 ] final  -74.63 input  -65.29 | X-H torsion
[ 10718 10713 10712 10709 ] final  -80.07 input   66.30 | X-H torsion
[ 10763 10752 10751 10750 ] final  154.95 input  -60.55 | X-H torsion
[ 11005 11000 10999 10996 ] final  -74.09 input  -57.11 | X-H torsion

> <Gold.Protein.ActiveResidues>
 VAL166  LYS551  ARG553  GLY616  TRP617  ASP618  TYR619  PRO620  LYS621  CYS622 
 ASP623  PHE694  ASN695  SER759  ASP760  ASP761  ALA762  ILE779  LEU786  VAL792 
 PHE793  MET794  SER795  GLU796  ALA797  LYS798  CYS799  TRP800  GLU811  SER814 

> <Gold.Protein.RotatedAtoms>
  152.2982  134.7642  160.0363 H   0  0  0  0  0  0  0  0  0  0  0  0  # atno 6907 bound_to 6896
  151.8164  133.3383  159.3579 H   0  0  0  0  0  0  0  0  0  0  0  0  # atno 6908 bound_to 6896
  150.7261  134.5544  159.5855 H   0  0  0  0  0  0  0  0  0  0  0  0  # atno 6909 bound_to 6896
  145.7638  140.8848  143.0416 H   0  0  0  0  0  0  0  0  0  0  0  0  # atno 7974 bound_to 7965
  154.5656  140.0700  156.8887 H   0  0  0  0  0  0  0  0  0  0  0  0  # atno 8008 bound_to 7997
  155.2729  140.3366  155.4246 H   0  0  0  0  0  0  0  0  0  0  0  0  # atno 8009 bound_to 7997
  156.2078  140.1747  156.7747 H   0  0  0  0  0  0  0  0  0  0  0  0  # atno 8010 bound_to 7997
  140.5011  143.2361  151.7751 H   0  0  0  0  0  0  0  0  0  0  0  0  # atno 10167 bound_to 10162
  156.0078  130.4563  150.3744 H   0  0  0  0  0  0  0  0  0  0  0  0  # atno 10718 bound_to 10713
  154.1606  135.2810  155.3110 H   0  0  0  0  0  0  0  0  0  0  0  0  # atno 10763 bound_to 10752
  154.6149  135.5486  153.7516 H   0  0  0  0  0  0  0  0  0  0  0  0  # atno 10764 bound_to 10752
  153.0193  135.6424  154.1748 H   0  0  0  0  0  0  0  0  0  0  0  0  # atno 10765 bound_to 10752
  141.1631  133.6900  156.7311 H   0  0  0  0  0  0  0  0  0  0  0  0  # atno 11005 bound_to 11000
  144.6825  139.9760  143.7483 LP  0  0  0  0  0  0  0  0  0  0  0  0  # atno 17320 bound_to 7965
  146.0237  139.3274  143.0797 LP  0  0  0  0  0  0  0  0  0  0  0  0  # atno 17321 bound_to 7965
  139.4872  144.4521  151.9642 LP  0  0  0  0  0  0  0  0  0  0  0  0  # atno 17342 bound_to 10162
  140.3610  144.2973  150.5933 LP  0  0  0  0  0  0  0  0  0  0  0  0  # atno 17343 bound_to 10162
  157.1827  131.0396  151.2740 LP  0  0  0  0  0  0  0  0  0  0  0  0  # atno 17370 bound_to 10713
  157.4131  130.7396  149.6855 LP  0  0  0  0  0  0  0  0  0  0  0  0  # atno 17371 bound_to 10713
  140.2744  134.8366  157.3877 LP  0  0  0  0  0  0  0  0  0  0  0  0  # atno 17394 bound_to 11000
  140.1491  134.4873  155.7974 LP  0  0  0  0  0  0  0  0  0  0  0  0  # atno 17395 bound_to 11000

$$$$
