AV-unprocessed.smi:1758|AV-procd|sdf|7084|dock7
  -GOLD-   22720 8303D 1   1.00000     0.00000
 Structure written by MMmdl.
 44 46  0  0  0  0  0  0  0  0  2 V2000
  145.4563  142.9470  154.5717 C   0  0  0  0  0  0  0  0  0  0  0  0
  146.8087  142.8219  153.8604 C   0  0  0  0  0  0  0  0  0  0  0  0
  147.2313  141.4397  153.7486 N   0  0  0  0  0  0  0  0  0  0  0  0
  146.6420  140.4228  153.0242 C   0  0  0  0  0  0  0  0  0  0  0  0
  147.4166  139.3184  153.2414 C   0  0  0  0  0  0  0  0  0  0  0  0
  147.2699  138.0030  152.7342 N   0  0  0  0  0  0  0  0  0  0  0  0
  146.1319  137.3020  152.6063 C   0  0  0  0  0  0  0  0  0  0  0  0
  145.0134  137.6999  152.9322 O   0  0  0  0  0  0  0  0  0  0  0  0
  146.3627  136.0910  152.0804 N   0  0  0  0  0  0  0  0  0  0  0  0
  145.3433  135.0763  151.8304 C   0  0  1  0  0  0  0  0  0  0  0  0
  144.6035  135.2848  150.4973 C   0  0  0  0  0  0  0  0  0  0  0  0
  144.3667  133.8686  149.9355 C   0  0  0  0  0  0  0  0  0  0  0  0
  144.8776  132.9467  150.9680 N   0  3  1  0  0  0  0  0  0  0  0  0
  145.3009  131.6018  150.5208 C   0  0  0  0  0  0  0  0  0  0  0  0
  145.7194  130.7663  151.7474 C   0  0  0  0  0  0  0  0  0  0  0  0
  146.7771  131.4945  152.6017 C   0  0  0  0  0  0  0  0  0  0  0  0
  146.3190  132.9220  152.9578 C   0  0  0  0  0  0  0  0  0  0  0  0
  145.9428  133.6770  151.6716 C   0  0  2  0  0  0  0  0  0  0  0  0
  148.4582  139.7398  154.1082 C   0  0  0  0  0  0  0  0  0  0  0  0
  148.3385  141.0232  154.4118 N   0  0  0  0  0  0  0  0  0  0  0  0
  145.1553  143.9915  154.6507 H   0  0  0  0  0  0  0  0  0  0  0  0
  145.5032  142.5363  155.5805 H   0  0  0  0  0  0  0  0  0  0  0  0
  144.6732  142.4162  154.0294 H   0  0  0  0  0  0  0  0  0  0  0  0
  146.7549  143.2544  152.8606 H   0  0  0  0  0  0  0  0  0  0  0  0
  147.5725  143.3778  154.4051 H   0  0  0  0  0  0  0  0  0  0  0  0
  145.7505  140.5804  152.4352 H   0  0  0  0  0  0  0  0  0  0  0  0
  148.1221  137.5499  152.4379 H   0  0  0  0  0  0  0  0  0  0  0  0
  147.3141  135.8520  151.8417 H   0  0  0  0  0  0  0  0  0  0  0  0
  144.6036  135.0669  152.6340 H   0  0  0  0  0  0  0  0  0  0  0  0
  143.6678  135.8248  150.6474 H   0  0  0  0  0  0  0  0  0  0  0  0
  145.2049  135.8630  149.7940 H   0  0  0  0  0  0  0  0  0  0  0  0
  143.3139  133.6723  149.7308 H   0  0  0  0  0  0  0  0  0  0  0  0
  144.9231  133.7380  149.0061 H   0  0  0  0  0  0  0  0  0  0  0  0
  144.4788  131.1145  149.9953 H   0  0  0  0  0  0  0  0  0  0  0  0
  146.1295  131.6877  149.8161 H   0  0  0  0  0  0  0  0  0  0  0  0
  144.8410  130.5632  152.3617 H   0  0  0  0  0  0  0  0  0  0  0  0
  146.1007  129.7964  151.4267 H   0  0  0  0  0  0  0  0  0  0  0  0
  146.9823  130.9278  153.5103 H   0  0  0  0  0  0  0  0  0  0  0  0
  147.7167  131.5435  152.0496 H   0  0  0  0  0  0  0  0  0  0  0  0
  145.4645  132.8818  153.6348 H   0  0  0  0  0  0  0  0  0  0  0  0
  147.1154  133.4448  153.4879 H   0  0  0  0  0  0  0  0  0  0  0  0
  146.8153  133.7347  151.0166 H   0  0  0  0  0  0  0  0  0  0  0  0
  149.2792  139.1707  154.5185 H   0  0  0  0  0  0  0  0  0  0  0  0
  144.1300  132.8208  151.6356 H   0  0  0  0  0  0  0  0  0  0  0  0
  1  2  1  0  0  0  0
  1 21  1  0  0  0  0
  1 22  1  0  0  0  0
  1 23  1  0  0  0  0
  2  3  1  0  0  0  0
  2 24  1  0  0  0  0
  2 25  1  0  0  0  0
  3 20  1  0  0  0  0
  3  4  1  0  0  0  0
  4  5  2  0  0  0  0
  4 26  1  0  0  0  0
  5  6  1  0  0  0  0
  5 19  1  0  0  0  0
  6  7  1  0  0  0  0
  6 27  1  0  0  0  0
  7  8  2  0  0  0  0
  7  9  1  0  0  0  0
  9 10  1  0  0  0  0
  9 28  1  0  0  0  0
 10 18  1  0  0  0  0
 10 11  1  0  0  0  0
 10 29  1  0  0  0  0
 11 12  1  0  0  0  0
 11 30  1  0  0  0  0
 11 31  1  0  0  0  0
 12 13  1  0  0  0  0
 12 32  1  0  0  0  0
 12 33  1  0  0  0  0
 13 18  1  0  0  0  0
 13 14  1  0  0  0  0
 13 44  1  0  0  0  0
 14 15  1  0  0  0  0
 14 34  1  0  0  0  0
 14 35  1  0  0  0  0
 15 16  1  0  0  0  0
 15 36  1  0  0  0  0
 15 37  1  0  0  0  0
 16 17  1  0  0  0  0
 16 38  1  0  0  0  0
 16 39  1  0  0  0  0
 17 18  1  0  0  0  0
 17 40  1  0  0  0  0
 17 41  1  0  0  0  0
 18 42  1  0  0  0  0
 19 20  2  0  0  0  0
 19 43  1  0  0  0  0
M  CHG  1  13   1
M  END
> <s_m_source_file>
AV-unprocessed.smi

> <i_m_source_file_index>
1758

> <i_lp_mmshare_version>
43012

> <i_f3d_flags>
0

> <s_epik_input>
W0NIM11bQ0gyXW4xW2NIXWMoW2NIXW4xKVtOSF1DKD1PKVtOSF1bQ0BIXShbQ0gyXVtDSDJdMilbQ0BASF0oTjIzKVtDSDJdW0NIMl1bQ0gyXVtDSDJdMw==

> <s_epik_cmdline>
J2VwaWtfcHl0aG9uJywgJy1waCcsICc3LjAnLCAnLXRuJywgJzgnLCAnLW1hJywgJzIwMCcsICctbWV0YWxfYmluZGluZycsICctaW1hZScsICc8aW5maWxlLm1hZT4nLCAnLW9tYWUnLCAnPG91dGZpbGUubWFlPic=

> <r_lp_tautomer_probability>
1

> <r_epik_Ionization_Penalty>
0.00111541

> <r_epik_Ionization_Penalty_Charging>
0.000974069

> <r_epik_Ionization_Penalty_Neutral>
0.000141346

> <r_epik_State_Penalty>
0.000633842

> <r_epik_Charging_Adjusted_Penalty>
0.00160791

> <i_epik_Tot_Q>
1

> <i_epik_Tot_abs_Q>
1

> <r_epik_Metal_State_Penalty>
-0

> <b_epik_Metal_Only>
0

> <s_lp_Force_Field>
OPLS_2005

> <r_lp_Energy>
38.7451

> <b_lp_Chiralities_Consistent>
1

> <s_lp_Variant>
AV-unprocessed.smi:1758-6

> <Gold.Version>
5.8.1

> <Gold.Id.Protein>
6NUR|6NUR_protein|mol2

> <Gold.PLP.Fitness>
41.4720

> <Gold.PLP.PLP>
-33.7759

> <Gold.PLP.part.hbond>
-2.0000

> <Gold.PLP.part.metal>
0.0000

> <Gold.PLP.part.buried>
-0.4195

> <Gold.PLP.part.nonpolar>
-30.6813

> <Gold.PLP.part.repulsive>
0.6825

> <Gold.PLP.ligand.clash>
0.0000

> <Gold.PLP.ligand.torsion>
0.6568

> <Gold.PLP.Chemscore.Hbond>
2.0000

> <Gold.PLP.Chemscore.CHOScore>
1.0000

> <Gold.PLP.Chemscore.Metal>
0.0000

> <Gold.Chemscore.Hbonds>
donor molecule, donor type, donor heavy atom, donor atom, acceptor molecule, acceptor atom, score
      L1  H     6    27       P1  7948  1.00
      L1  H     9    28       P1  7948  1.00
      L1  C     4    26       P1 10175  1.00

> <Gold.PLP.Chemscore.Internal.Correction>
0.0098

> <Gold.Rescore>
     Score         DG    S(hbond)    S(metal)    S(lipo)     H(rot)  DE(clash)    DE(int)     intcor
     17.53     -19.21       1.85        0.00      90.43       1.19       0.94       0.74       ----

> <Gold.Chemscore.Fitness>
17.5331

> <Gold.Chemscore.DG>
-19.2110

> <Gold.Chemscore.ZeroCoef>
-5.4800

> <Gold.Chemscore.Hbond>
1.8542

> <Gold.Chemscore.Metal>
0.0000

> <Gold.Chemscore.Lipo>
90.4286

> <Gold.Chemscore.Internal_Hbond>
0.0000

> <Gold.Chemscore.DEClash>
0.9371

> <Gold.Chemscore.DEInternal>
0.7408

> <Gold.Chemscore.Rot>
1.1884

> <Gold.Chemscore.Internal.Correction>
   9.000000E+99

> <Gold.Chemscore.Hbonds>
donor molecule, donor type, donor heavy atom, donor atom, acceptor molecule, acceptor atom, score
      L1  H     6    27       P1  7948  0.97
      L1  H     9    28       P1  7948  0.95

> <Gold.Chemscore.Hbond.Weighted>
-6.1931

> <Gold.Chemscore.Metal.Weighted>
-0.0000

> <Gold.Chemscore.Lipo.Weighted>
-10.5801

> <Gold.Chemscore.Internal_Hbond.Weighted>
0.0000

> <Gold.Chemscore.DEClash.Weighted>
0.9371

> <Gold.Chemscore.DEInternal.Weighted>
0.7408

> <Gold.Chemscore.Rot.Weighted>
3.0423

> <Gold.Chemscore.Internal.Correction.Weighted>
   9.000000E+99

> <Gold.Protein.RotatedTorsions>
[ 6907 6896 6895 6894 ] final  -48.49 input  -60.11 | X-H torsion
[ 7974 7965 7964 7962 ] final   23.92 input  175.53 | X-H torsion
[ 8008 7997 7996 7995 ] final -125.53 input   59.86 | X-H torsion
[ 10167 10162 10161 10158 ] final  106.99 input  -65.29 | X-H torsion
[ 10718 10713 10712 10709 ] final -105.47 input   66.30 | X-H torsion
[ 10763 10752 10751 10750 ] final  165.74 input  -60.55 | X-H torsion
[ 11005 11000 10999 10996 ] final  -50.81 input  -57.11 | X-H torsion

> <Gold.Protein.ActiveResidues>
 VAL166  LYS551  ARG553  GLY616  TRP617  ASP618  TYR619  PRO620  LYS621  CYS622 
 ASP623  PHE694  ASN695  SER759  ASP760  ASP761  ALA762  ILE779  LEU786  VAL792 
 PHE793  MET794  SER795  GLU796  ALA797  LYS798  CYS799  TRP800  GLU811  SER814 

> <Gold.Protein.RotatedAtoms>
  150.8900  134.8302  159.7285 H   0  0  0  0  0  0  0  0  0  0  0  0  # atno 6907 bound_to 6896
  152.4831  134.4663  159.9631 H   0  0  0  0  0  0  0  0  0  0  0  0  # atno 6908 bound_to 6896
  151.4727  133.3526  159.2861 H   0  0  0  0  0  0  0  0  0  0  0  0  # atno 6909 bound_to 6896
  146.1962  139.7676  142.8796 H   0  0  0  0  0  0  0  0  0  0  0  0  # atno 7974 bound_to 7965
  155.2148  140.0420  157.2939 H   0  0  0  0  0  0  0  0  0  0  0  0  # atno 8008 bound_to 7997
  154.5988  140.2446  155.7792 H   0  0  0  0  0  0  0  0  0  0  0  0  # atno 8009 bound_to 7997
  156.2307  140.2939  156.0191 H   0  0  0  0  0  0  0  0  0  0  0  0  # atno 8010 bound_to 7997
  139.6963  144.7101  151.1261 H   0  0  0  0  0  0  0  0  0  0  0  0  # atno 10167 bound_to 10162
  156.0347  130.5565  150.7543 H   0  0  0  0  0  0  0  0  0  0  0  0  # atno 10718 bound_to 10713
  154.3285  135.2755  155.2483 H   0  0  0  0  0  0  0  0  0  0  0  0  # atno 10763 bound_to 10752
  154.4806  135.5859  153.6390 H   0  0  0  0  0  0  0  0  0  0  0  0  # atno 10764 bound_to 10752
  152.9869  135.6110  154.3476 H   0  0  0  0  0  0  0  0  0  0  0  0  # atno 10765 bound_to 10752
  141.0837  133.6647  156.3786 H   0  0  0  0  0  0  0  0  0  0  0  0  # atno 11005 bound_to 11000
  145.3637  141.0330  143.3270 LP  0  0  0  0  0  0  0  0  0  0  0  0  # atno 17320 bound_to 7965
  144.8585  139.5213  143.6823 LP  0  0  0  0  0  0  0  0  0  0  0  0  # atno 17321 bound_to 7965
  140.7697  143.5486  150.9230 LP  0  0  0  0  0  0  0  0  0  0  0  0  # atno 17342 bound_to 10162
  139.9166  143.6656  152.3105 LP  0  0  0  0  0  0  0  0  0  0  0  0  # atno 17343 bound_to 10162
  157.5079  131.0923  151.0234 LP  0  0  0  0  0  0  0  0  0  0  0  0  # atno 17370 bound_to 10713
  157.0597  130.5820  149.5384 LP  0  0  0  0  0  0  0  0  0  0  0  0  # atno 17371 bound_to 10713
  140.5412  134.6118  157.5380 LP  0  0  0  0  0  0  0  0  0  0  0  0  # atno 17394 bound_to 11000
  139.9653  134.7384  156.0152 LP  0  0  0  0  0  0  0  0  0  0  0  0  # atno 17395 bound_to 11000

$$$$
