AV-unprocessed.smi:2215|AV-procd|sdf|8963|dock6
  -GOLD-   2272012183D 1   1.00000     0.00000
 Structure written by MMmdl.
 40 41  0  0  0  0  0  0  0  0  1 V2000
  151.0183  142.1124  156.6625 C   0  0  0  0  0  0  0  0  0  0  0  0
  150.2907  141.0990  155.8044 C   0  0  0  0  0  0  0  0  0  0  0  0
  150.9320  139.9258  155.3645 C   0  0  0  0  0  0  0  0  0  0  0  0
  150.2079  139.0121  154.5750 C   0  0  0  0  0  0  0  0  0  0  0  0
  148.8620  139.2899  154.2461 C   0  0  0  0  0  0  0  0  0  0  0  0
  148.2196  138.2994  153.4565 N   0  0  0  0  0  0  0  0  0  0  0  0
  146.9052  138.0301  153.3671 C   0  0  0  0  0  0  0  0  0  0  0  0
  146.0091  138.6504  153.9403 O   0  0  0  0  0  0  0  0  0  0  0  0
  146.6791  136.9838  152.5598 N   0  0  0  0  0  0  0  0  0  0  0  0
  145.3632  136.4328  152.2505 C   0  0  0  0  0  0  0  0  0  0  0  0
  145.4388  135.0241  151.6132 C   0  0  1  0  0  0  0  0  0  0  0  0
  145.4974  133.9197  152.6951 C   0  0  0  0  0  0  0  0  0  0  0  0
  145.5307  132.5095  152.0865 C   0  0  0  0  0  0  0  0  0  0  0  0
  144.3301  132.2791  151.1595 C   0  0  0  0  0  0  0  0  0  0  0  0
  144.2821  133.3479  150.0598 C   0  0  0  0  0  0  0  0  0  0  0  0
  144.2487  134.7679  150.6550 C   0  0  2  0  0  0  0  0  0  0  0  0
  144.2776  135.6837  149.5783 O   0  0  0  0  0  0  0  0  0  0  0  0
  148.2531  140.4241  154.6741 N   0  0  0  0  0  0  0  0  0  0  0  0
  148.9480  141.2999  155.4301 C   0  0  0  0  0  0  0  0  0  0  0  0
  152.0974  142.0394  156.5230 H   0  0  0  0  0  0  0  0  0  0  0  0
  150.7950  141.9415  157.7156 H   0  0  0  0  0  0  0  0  0  0  0  0
  150.7113  143.1266  156.4051 H   0  0  0  0  0  0  0  0  0  0  0  0
  151.9603  139.7250  155.6274 H   0  0  0  0  0  0  0  0  0  0  0  0
  150.6848  138.1059  154.2308 H   0  0  0  0  0  0  0  0  0  0  0  0
  148.8349  137.7131  152.9123 H   0  0  0  0  0  0  0  0  0  0  0  0
  147.4732  136.5339  152.1287 H   0  0  0  0  0  0  0  0  0  0  0  0
  144.7914  136.3899  153.1778 H   0  0  0  0  0  0  0  0  0  0  0  0
  144.8307  137.1271  151.5988 H   0  0  0  0  0  0  0  0  0  0  0  0
  146.3575  134.9630  151.0270 H   0  0  0  0  0  0  0  0  0  0  0  0
  146.3770  134.0501  153.3259 H   0  0  0  0  0  0  0  0  0  0  0  0
  144.6321  134.0067  153.3534 H   0  0  0  0  0  0  0  0  0  0  0  0
  146.4578  132.3731  151.5278 H   0  0  0  0  0  0  0  0  0  0  0  0
  145.5352  131.7625  152.8807 H   0  0  0  0  0  0  0  0  0  0  0  0
  144.3887  131.2864  150.7122 H   0  0  0  0  0  0  0  0  0  0  0  0
  143.4063  132.3050  151.7391 H   0  0  0  0  0  0  0  0  0  0  0  0
  145.1549  133.2374  149.4142 H   0  0  0  0  0  0  0  0  0  0  0  0
  143.4081  133.1855  149.4278 H   0  0  0  0  0  0  0  0  0  0  0  0
  143.3109  134.9084  151.1941 H   0  0  0  0  0  0  0  0  0  0  0  0
  145.0855  135.5644  149.1027 H   0  0  0  0  0  0  0  0  0  0  0  0
  148.4143  142.1839  155.7469 H   0  0  0  0  0  0  0  0  0  0  0  0
  1  2  1  0  0  0  0
  1 20  1  0  0  0  0
  1 21  1  0  0  0  0
  1 22  1  0  0  0  0
  2 19  1  0  0  0  0
  2  3  2  0  0  0  0
  3  4  1  0  0  0  0
  3 23  1  0  0  0  0
  4  5  2  0  0  0  0
  4 24  1  0  0  0  0
  5  6  1  0  0  0  0
  5 18  1  0  0  0  0
  6  7  1  0  0  0  0
  6 25  1  0  0  0  0
  7  8  2  0  0  0  0
  7  9  1  0  0  0  0
  9 10  1  0  0  0  0
  9 26  1  0  0  0  0
 10 11  1  0  0  0  0
 10 27  1  0  0  0  0
 10 28  1  0  0  0  0
 11 16  1  0  0  0  0
 11 12  1  0  0  0  0
 11 29  1  0  0  0  0
 12 13  1  0  0  0  0
 12 30  1  0  0  0  0
 12 31  1  0  0  0  0
 13 14  1  0  0  0  0
 13 32  1  0  0  0  0
 13 33  1  0  0  0  0
 14 15  1  0  0  0  0
 14 34  1  0  0  0  0
 14 35  1  0  0  0  0
 15 16  1  0  0  0  0
 15 36  1  0  0  0  0
 15 37  1  0  0  0  0
 16 17  1  0  0  0  0
 16 38  1  0  0  0  0
 17 39  1  0  0  0  0
 18 19  2  0  0  0  0
 19 40  1  0  0  0  0
M  END
> <s_m_source_file>
AV-unprocessed.smi

> <i_m_source_file_index>
2215

> <i_lp_mmshare_version>
43012

> <i_f3d_flags>
0

> <s_epik_input>
W0NIM11jMVtjSF1bY0hdYyhuW2NIXTEpW05IXUMoPU8pW05IXVtDSDJdW0NAQEhdMltDSDJdW0NIMl1bQ0gyXVtDSDJdW0NASF0yW09IXQ==

> <s_epik_cmdline>
J2VwaWtfcHl0aG9uJywgJy1waCcsICc3LjAnLCAnLXRuJywgJzgnLCAnLW1hJywgJzIwMCcsICctbWV0YWxfYmluZGluZycsICctaW1hZScsICc8aW5maWxlLm1hZT4nLCAnLW9tYWUnLCAnPG91dGZpbGUubWFlPic=

> <r_lp_tautomer_probability>
1

> <r_epik_Ionization_Penalty>
6.08491e-05

> <r_epik_Ionization_Penalty_Charging>
0

> <r_epik_Ionization_Penalty_Neutral>
6.08491e-05

> <r_epik_State_Penalty>
-0

> <r_epik_Charging_Adjusted_Penalty>
0

> <i_epik_Tot_Q>
0

> <i_epik_Tot_abs_Q>
0

> <r_epik_Metal_State_Penalty>
-0

> <b_epik_Metal_Only>
0

> <s_lp_Force_Field>
OPLS_2005

> <r_lp_Energy>
14.1492

> <b_lp_Chiralities_Consistent>
1

> <s_lp_Variant>
AV-unprocessed.smi:2215-4

> <Gold.Version>
5.8.1

> <Gold.Id.Protein>
6NUR|6NUR_protein|mol2

> <Gold.PLP.Fitness>
45.2345

> <Gold.PLP.PLP>
-34.9998

> <Gold.PLP.part.hbond>
-4.5748

> <Gold.PLP.part.metal>
0.0000

> <Gold.PLP.part.buried>
-3.1655

> <Gold.PLP.part.nonpolar>
-28.6805

> <Gold.PLP.part.repulsive>
0.4014

> <Gold.PLP.ligand.clash>
0.0000

> <Gold.PLP.ligand.torsion>
0.5685

> <Gold.PLP.Chemscore.Hbond>
2.7893

> <Gold.PLP.Chemscore.CHOScore>
1.0000

> <Gold.PLP.Chemscore.Metal>
0.0000

> <Gold.Chemscore.Hbonds>
donor molecule, donor type, donor heavy atom, donor atom, acceptor molecule, acceptor atom, score
      L1  H     6    25       P1  7948  0.94
      L1  H     9    26       P1  7948  0.98
      L1  H    17    39       P1  7921  1.00
      L1  C    19    40       P1  8028  0.90

> <Gold.PLP.Chemscore.Internal.Correction>
0.0038

> <Gold.Rescore>
     Score         DG    S(hbond)    S(metal)    S(lipo)     H(rot)  DE(clash)    DE(int)     intcor
     17.76     -19.80       2.91        0.00      77.29       1.73       0.43       1.61       ----

> <Gold.Chemscore.Fitness>
17.7586

> <Gold.Chemscore.DG>
-19.7956

> <Gold.Chemscore.ZeroCoef>
-5.4800

> <Gold.Chemscore.Hbond>
2.9075

> <Gold.Chemscore.Metal>
0.0000

> <Gold.Chemscore.Lipo>
77.2930

> <Gold.Chemscore.Internal_Hbond>
0.0000

> <Gold.Chemscore.DEClash>
0.4254

> <Gold.Chemscore.DEInternal>
1.6116

> <Gold.Chemscore.Rot>
1.7339

> <Gold.Chemscore.Internal.Correction>
   9.000000E+99

> <Gold.Chemscore.Hbonds>
donor molecule, donor type, donor heavy atom, donor atom, acceptor molecule, acceptor atom, score
      L1  H     6    25       P1  7948  0.91
      L1  H     9    26       P1  7948  0.90
      L1  H    17    39       P1  7921  0.96

> <Gold.Chemscore.Hbond.Weighted>
-9.7110

> <Gold.Chemscore.Metal.Weighted>
-0.0000

> <Gold.Chemscore.Lipo.Weighted>
-9.0433

> <Gold.Chemscore.Internal_Hbond.Weighted>
0.0000

> <Gold.Chemscore.DEClash.Weighted>
0.4254

> <Gold.Chemscore.DEInternal.Weighted>
1.6116

> <Gold.Chemscore.Rot.Weighted>
4.4387

> <Gold.Chemscore.Internal.Correction.Weighted>
   9.000000E+99

> <Gold.Protein.RotatedTorsions>
[ 6907 6896 6895 6894 ] final   38.50 input  -60.11 | X-H torsion
[ 7974 7965 7964 7962 ] final  -70.83 input  175.53 | X-H torsion
[ 8008 7997 7996 7995 ] final  163.89 input   59.86 | X-H torsion
[ 10167 10162 10161 10158 ] final  -74.53 input  -65.29 | X-H torsion
[ 10718 10713 10712 10709 ] final -156.43 input   66.30 | X-H torsion
[ 10763 10752 10751 10750 ] final -163.88 input  -60.55 | X-H torsion
[ 11005 11000 10999 10996 ] final  -78.70 input  -57.11 | X-H torsion

> <Gold.Protein.ActiveResidues>
 VAL166  LYS551  ARG553  GLY616  TRP617  ASP618  TYR619  PRO620  LYS621  CYS622 
 ASP623  PHE694  ASN695  SER759  ASP760  ASP761  ALA762  ILE779  LEU786  VAL792 
 PHE793  MET794  SER795  GLU796  ALA797  LYS798  CYS799  TRP800  GLU811  SER814 

> <Gold.Protein.RotatedAtoms>
  152.1573  134.8940  160.0543 H   0  0  0  0  0  0  0  0  0  0  0  0  # atno 6907 bound_to 6896
  151.9950  133.3799  159.4167 H   0  0  0  0  0  0  0  0  0  0  0  0  # atno 6908 bound_to 6896
  150.6883  134.3818  159.5081 H   0  0  0  0  0  0  0  0  0  0  0  0  # atno 6909 bound_to 6896
  145.6859  140.9171  143.0807 H   0  0  0  0  0  0  0  0  0  0  0  0  # atno 7974 bound_to 7965
  156.1922  140.1711  156.8069 H   0  0  0  0  0  0  0  0  0  0  0  0  # atno 8008 bound_to 7997
  154.5485  140.0722  156.8661 H   0  0  0  0  0  0  0  0  0  0  0  0  # atno 8009 bound_to 7997
  155.3074  140.3365  155.4247 H   0  0  0  0  0  0  0  0  0  0  0  0  # atno 8010 bound_to 7997
  140.5019  143.2360  151.7738 H   0  0  0  0  0  0  0  0  0  0  0  0  # atno 10167 bound_to 10162
  156.5265  130.8501  151.2701 H   0  0  0  0  0  0  0  0  0  0  0  0  # atno 10718 bound_to 10713
  154.7081  135.3001  154.9239 H   0  0  0  0  0  0  0  0  0  0  0  0  # atno 10763 bound_to 10752
  154.0149  135.6690  153.4772 H   0  0  0  0  0  0  0  0  0  0  0  0  # atno 10764 bound_to 10752
  153.0733  135.5048  154.8264 H   0  0  0  0  0  0  0  0  0  0  0  0  # atno 10765 bound_to 10752
  141.1665  133.7074  156.8011 H   0  0  0  0  0  0  0  0  0  0  0  0  # atno 11005 bound_to 11000
  144.7011  139.8757  143.7444 LP  0  0  0  0  0  0  0  0  0  0  0  0  # atno 17320 bound_to 7965
  146.0924  139.3915  143.0397 LP  0  0  0  0  0  0  0  0  0  0  0  0  # atno 17321 bound_to 7965
  139.4874  144.4510  151.9654 LP  0  0  0  0  0  0  0  0  0  0  0  0  # atno 17342 bound_to 10162
  140.3600  144.2985  150.5935 LP  0  0  0  0  0  0  0  0  0  0  0  0  # atno 17343 bound_to 10162
  157.7428  130.9899  150.2548 LP  0  0  0  0  0  0  0  0  0  0  0  0  # atno 17370 bound_to 10713
  156.3100  130.3770  149.7670 LP  0  0  0  0  0  0  0  0  0  0  0  0  # atno 17371 bound_to 10713
  140.2256  134.8724  157.3423 LP  0  0  0  0  0  0  0  0  0  0  0  0  # atno 17394 bound_to 11000
  140.1943  134.4332  155.7698 LP  0  0  0  0  0  0  0  0  0  0  0  0  # atno 17395 bound_to 11000

$$$$
