AV-unprocessed.smi:2855|AV-procd|sdf|10983|dock1
  -GOLD-   2272015433D 1   1.00000     0.00000
 Structure written by MMmdl.
 47 48  0  0  0  0  0  0  0  0  1 V2000
  152.6752  145.2498  157.4141 C   0  0  0  0  0  0  0  0  0  0  0  0
  152.0187  144.2254  158.3504 C   0  0  2  0  0  0  0  0  0  0  0  0
  152.7977  144.0883  159.6753 C   0  0  0  0  0  0  0  0  0  0  0  0
  152.1983  142.9999  160.5878 C   0  0  0  0  0  0  0  0  0  0  0  0
  152.1314  141.6203  159.8847 C   0  0  2  0  0  0  0  0  0  0  0  0
  153.5485  140.9869  159.6477 C   0  0  0  0  0  0  0  0  0  0  0  0
  153.5193  139.5716  159.0386 C   0  0  0  0  0  0  0  0  0  0  0  0
  154.3868  140.9344  160.9413 C   0  0  0  0  0  0  0  0  0  0  0  0
  151.2345  141.8289  158.6279 C   0  0  2  0  0  0  0  0  0  0  0  0
  150.8782  140.5979  157.9314 N   0  0  0  0  0  0  0  0  0  0  0  0
  149.6305  140.1706  157.6709 C   0  0  0  0  0  0  0  0  0  0  0  0
  148.6275  140.8033  157.9994 O   0  0  0  0  0  0  0  0  0  0  0  0
  149.4598  138.8252  156.9442 C   0  0  0  0  0  0  0  0  0  0  0  0
  148.7524  138.9024  155.6546 N   0  0  0  0  0  0  0  0  0  0  0  0
  147.5093  138.3036  155.5058 C   0  0  0  0  0  0  0  0  0  0  0  0
  146.8052  138.3231  154.3495 C   0  0  0  0  0  0  0  0  0  0  0  0
  147.3392  138.9973  153.1710 C   0  0  0  0  0  0  0  0  0  0  0  0
  146.7787  139.0686  152.0797 O   0  0  0  0  0  0  0  0  0  0  0  0
  148.5909  139.5889  153.3606 N   0  0  0  0  0  0  0  0  0  0  0  0
  149.3221  139.5719  154.5492 C   0  0  0  0  0  0  0  0  0  0  0  0
  150.4229  140.1181  154.6058 O   0  0  0  0  0  0  0  0  0  0  0  0
  151.8478  142.8566  157.6597 C   0  0  0  0  0  0  0  0  0  0  0  0
  149.0010  140.0669  152.5713 H   0  0  0  0  0  0  0  0  0  0  0  0
  153.6819  144.9400  157.1313 H   0  0  0  0  0  0  0  0  0  0  0  0
  152.7490  146.2273  157.8917 H   0  0  0  0  0  0  0  0  0  0  0  0
  152.0955  145.3736  156.4990 H   0  0  0  0  0  0  0  0  0  0  0  0
  151.0221  144.5976  158.5931 H   0  0  0  0  0  0  0  0  0  0  0  0
  153.8447  143.8643  159.4703 H   0  0  0  0  0  0  0  0  0  0  0  0
  152.7941  145.0429  160.2023 H   0  0  0  0  0  0  0  0  0  0  0  0
  152.7449  142.9500  161.5280 H   0  0  0  0  0  0  0  0  0  0  0  0
  151.1898  143.3027  160.8738 H   0  0  0  0  0  0  0  0  0  0  0  0
  151.5969  140.9497  160.5593 H   0  0  0  0  0  0  0  0  0  0  0  0
  154.1023  141.6102  158.9466 H   0  0  0  0  0  0  0  0  0  0  0  0
  152.8376  138.9150  159.5803 H   0  0  0  0  0  0  0  0  0  0  0  0
  154.5064  139.1088  159.0584 H   0  0  0  0  0  0  0  0  0  0  0  0
  153.2242  139.5903  157.9909 H   0  0  0  0  0  0  0  0  0  0  0  0
  153.8534  140.4172  161.7394 H   0  0  0  0  0  0  0  0  0  0  0  0
  154.6525  141.9286  161.2983 H   0  0  0  0  0  0  0  0  0  0  0  0
  155.3298  140.4105  160.7823 H   0  0  0  0  0  0  0  0  0  0  0  0
  150.2894  142.2601  158.9655 H   0  0  0  0  0  0  0  0  0  0  0  0
  151.6442  140.0153  157.6261 H   0  0  0  0  0  0  0  0  0  0  0  0
  150.4516  138.3953  156.7955 H   0  0  0  0  0  0  0  0  0  0  0  0
  148.9505  138.1316  157.6157 H   0  0  0  0  0  0  0  0  0  0  0  0
  147.0770  137.7878  156.3515 H   0  0  0  0  0  0  0  0  0  0  0  0
  145.8421  137.8362  154.2957 H   0  0  0  0  0  0  0  0  0  0  0  0
  151.2001  142.9719  156.7893 H   0  0  0  0  0  0  0  0  0  0  0  0
  152.8048  142.4980  157.2800 H   0  0  0  0  0  0  0  0  0  0  0  0
  1  2  1  0  0  0  0
  1 24  1  0  0  0  0
  1 25  1  0  0  0  0
  1 26  1  0  0  0  0
  2 22  1  0  0  0  0
  2  3  1  0  0  0  0
  2 27  1  0  0  0  0
  3  4  1  0  0  0  0
  3 28  1  0  0  0  0
  3 29  1  0  0  0  0
  4  5  1  0  0  0  0
  4 30  1  0  0  0  0
  4 31  1  0  0  0  0
  5  6  1  0  0  0  0
  5  9  1  0  0  0  0
  5 32  1  0  0  0  0
  6  7  1  0  0  0  0
  6  8  1  0  0  0  0
  6 33  1  0  0  0  0
  7 34  1  0  0  0  0
  7 35  1  0  0  0  0
  7 36  1  0  0  0  0
  8 37  1  0  0  0  0
  8 38  1  0  0  0  0
  8 39  1  0  0  0  0
  9 10  1  0  0  0  0
  9 22  1  0  0  0  0
  9 40  1  0  0  0  0
 10 11  1  0  0  0  0
 10 41  1  0  0  0  0
 11 12  2  0  0  0  0
 11 13  1  0  0  0  0
 13 14  1  0  0  0  0
 13 42  1  0  0  0  0
 13 43  1  0  0  0  0
 14 20  1  0  0  0  0
 14 15  1  0  0  0  0
 15 16  2  0  0  0  0
 15 44  1  0  0  0  0
 16 17  1  0  0  0  0
 16 45  1  0  0  0  0
 17 18  2  0  0  0  0
 17 19  1  0  0  0  0
 19 23  1  0  0  0  0
 19 20  1  0  0  0  0
 20 21  2  0  0  0  0
 22 46  1  0  0  0  0
 22 47  1  0  0  0  0
M  END
> <s_m_source_file>
AV-unprocessed.smi

> <i_m_source_file_index>
2855

> <i_lp_mmshare_version>
43012

> <i_f3d_flags>
0

> <s_epik_input>
W0NIM11bQ0BASF0xW0NIMl1bQ0gyXVtDQEBIXShbQ0hdKFtDSDNdKVtDSDNdKVtDQEhdKFtDSDJdMSlbTkhdQyg9TylbQ0gyXW4yW2NIXVtjSF1jKD1PKVtuSF1jMj1P

> <s_epik_cmdline>
J2VwaWtfcHl0aG9uJywgJy1waCcsICc3LjAnLCAnLXRuJywgJzgnLCAnLW1hJywgJzIwMCcsICctbWV0YWxfYmluZGluZycsICctaW1hZScsICc8aW5maWxlLm1hZT4nLCAnLW9tYWUnLCAnPG91dGZpbGUubWFlPic=

> <r_lp_tautomer_probability>
0.999537

> <r_epik_Ionization_Penalty>
0.00306256

> <r_epik_Ionization_Penalty_Charging>
0.00306254

> <r_epik_Ionization_Penalty_Neutral>
2.0223e-08

> <r_epik_State_Penalty>
0.0021533

> <r_epik_Charging_Adjusted_Penalty>
0.00521583

> <i_epik_Tot_Q>
0

> <i_epik_Tot_abs_Q>
0

> <r_epik_Metal_State_Penalty>
0.362116

> <b_epik_Metal_Only>
0

> <s_lp_Force_Field>
OPLS_2005

> <r_lp_Energy>
18.1406

> <b_lp_Chiralities_Consistent>
1

> <s_lp_Variant>
AV-unprocessed.smi:2855-7

> <Gold.Version>
5.8.1

> <Gold.Id.Protein>
6NUR|6NUR_protein|mol2

> <Gold.PLP.Fitness>
41.5911

> <Gold.PLP.PLP>
-35.7915

> <Gold.PLP.part.hbond>
-1.9221

> <Gold.PLP.part.metal>
0.0000

> <Gold.PLP.part.buried>
-6.8944

> <Gold.PLP.part.nonpolar>
-26.3094

> <Gold.PLP.part.repulsive>
0.8646

> <Gold.PLP.ligand.clash>
0.0000

> <Gold.PLP.ligand.torsion>
0.1249

> <Gold.PLP.Chemscore.Hbond>
2.0000

> <Gold.PLP.Chemscore.CHOScore>
0.0000

> <Gold.PLP.Chemscore.Metal>
0.0000

> <Gold.Chemscore.Hbonds>
donor molecule, donor type, donor heavy atom, donor atom, acceptor molecule, acceptor atom, score
      L1  H    19    23       P1  7957  1.00
      P1  H  7989  7998       L1    21  1.00

> <Gold.PLP.Chemscore.Internal.Correction>
0.0494

> <Gold.Rescore>
     Score         DG    S(hbond)    S(metal)    S(lipo)     H(rot)  DE(clash)    DE(int)     intcor
     17.24     -20.16       1.97        0.00     109.76       1.85       1.78       1.14       ----

> <Gold.Chemscore.Fitness>
17.2424

> <Gold.Chemscore.DG>
-20.1619

> <Gold.Chemscore.ZeroCoef>
-5.4800

> <Gold.Chemscore.Hbond>
1.9719

> <Gold.Chemscore.Metal>
0.0000

> <Gold.Chemscore.Lipo>
109.7596

> <Gold.Chemscore.Internal_Hbond>
0.0000

> <Gold.Chemscore.DEClash>
1.7795

> <Gold.Chemscore.DEInternal>
1.1400

> <Gold.Chemscore.Rot>
1.8539

> <Gold.Chemscore.Internal.Correction>
   9.000000E+99

> <Gold.Chemscore.Hbonds>
donor molecule, donor type, donor heavy atom, donor atom, acceptor molecule, acceptor atom, score
      L1  H    19    23       P1  7957  0.88
      P1  H  7989  7998       L1    21  1.00

> <Gold.Chemscore.Hbond.Weighted>
-6.5861

> <Gold.Chemscore.Metal.Weighted>
-0.0000

> <Gold.Chemscore.Lipo.Weighted>
-12.8419

> <Gold.Chemscore.Internal_Hbond.Weighted>
0.0000

> <Gold.Chemscore.DEClash.Weighted>
1.7795

> <Gold.Chemscore.DEInternal.Weighted>
1.1400

> <Gold.Chemscore.Rot.Weighted>
4.7460

> <Gold.Chemscore.Internal.Correction.Weighted>
   9.000000E+99

> <Gold.Protein.RotatedTorsions>
[ 6907 6896 6895 6894 ] final -160.36 input  -60.11 | X-H torsion
[ 7974 7965 7964 7962 ] final  -47.70 input  175.53 | X-H torsion
[ 8008 7997 7996 7995 ] final   70.31 input   59.86 | X-H torsion
[ 10167 10162 10161 10158 ] final   68.03 input  -65.29 | X-H torsion
[ 10718 10713 10712 10709 ] final  -12.04 input   66.30 | X-H torsion
[ 10763 10752 10751 10750 ] final -107.23 input  -60.55 | X-H torsion
[ 11005 11000 10999 10996 ] final  156.49 input  -57.11 | X-H torsion

> <Gold.Protein.ActiveResidues>
 VAL166  LYS551  ARG553  GLY616  TRP617  ASP618  TYR619  PRO620  LYS621  CYS622 
 ASP623  PHE694  ASN695  SER759  ASP760  ASP761  ALA762  ILE779  LEU786  VAL792 
 PHE793  MET794  SER795  GLU796  ALA797  LYS798  CYS799  TRP800  GLU811  SER814 

> <Gold.Protein.RotatedAtoms>
  151.3479  133.3937  159.2677 H   0  0  0  0  0  0  0  0  0  0  0  0  # atno 6907 bound_to 6896
  150.9825  134.9178  159.7863 H   0  0  0  0  0  0  0  0  0  0  0  0  # atno 6908 bound_to 6896
  152.5222  134.3442  159.9280 H   0  0  0  0  0  0  0  0  0  0  0  0  # atno 6909 bound_to 6896
  145.9589  140.7499  142.9467 H   0  0  0  0  0  0  0  0  0  0  0  0  # atno 7974 bound_to 7965
  155.7368  140.3491  155.5085 H   0  0  0  0  0  0  0  0  0  0  0  0  # atno 8008 bound_to 7997
  155.9131  140.1054  157.1285 H   0  0  0  0  0  0  0  0  0  0  0  0  # atno 8009 bound_to 7997
  154.4059  140.1264  156.4570 H   0  0  0  0  0  0  0  0  0  0  0  0  # atno 8010 bound_to 7997
  140.0831  144.5053  150.7148 H   0  0  0  0  0  0  0  0  0  0  0  0  # atno 10167 bound_to 10162
  156.6503  130.4953  149.6064 H   0  0  0  0  0  0  0  0  0  0  0  0  # atno 10718 bound_to 10713
  154.8062  135.4682  154.0399 H   0  0  0  0  0  0  0  0  0  0  0  0  # atno 10763 bound_to 10752
  153.1866  135.6848  153.8415 H   0  0  0  0  0  0  0  0  0  0  0  0  # atno 10764 bound_to 10752
  153.7947  135.3238  155.3360 H   0  0  0  0  0  0  0  0  0  0  0  0  # atno 10765 bound_to 10752
  140.1680  134.8563  157.2655 H   0  0  0  0  0  0  0  0  0  0  0  0  # atno 11005 bound_to 11000
  144.6811  140.2557  143.7325 LP  0  0  0  0  0  0  0  0  0  0  0  0  # atno 17320 bound_to 7965
  145.8068  139.1987  143.2016 LP  0  0  0  0  0  0  0  0  0  0  0  0  # atno 17321 bound_to 7965
  140.7067  143.2473  151.4704 LP  0  0  0  0  0  0  0  0  0  0  0  0  # atno 17342 bound_to 10162
  139.5768  144.1801  152.1914 LP  0  0  0  0  0  0  0  0  0  0  0  0  # atno 17343 bound_to 10162
  156.2090  130.6667  151.1249 LP  0  0  0  0  0  0  0  0  0  0  0  0  # atno 17370 bound_to 10713
  157.7143  131.0718  150.6386 LP  0  0  0  0  0  0  0  0  0  0  0  0  # atno 17371 bound_to 10713
  140.2411  134.3794  155.7480 LP  0  0  0  0  0  0  0  0  0  0  0  0  # atno 17394 bound_to 11000
  141.2215  133.7266  156.8790 LP  0  0  0  0  0  0  0  0  0  0  0  0  # atno 17395 bound_to 11000

$$$$
