AV-unprocessed.smi:1802|AV-procd|sdf|7277|dock7
  -GOLD-   22720 8533D 1   1.00000     0.00000
 Structure written by MMmdl.
 40 41  0  0  0  0  0  0  0  0  3 V2000
  145.9681  131.8054  149.3661 C   0  0  0  0  0  0  0  0  0  0  0  0
  144.8611  131.8244  150.4350 C   0  0  2  0  0  0  0  0  0  0  0  0
  143.9278  133.0429  150.3084 C   0  0  0  0  0  0  0  0  0  0  0  0
  144.6156  134.3257  150.7966 C   0  0  0  0  0  0  0  0  0  0  0  0
  145.1792  134.1458  152.2152 C   0  0  0  0  0  0  0  0  0  0  0  0
  146.1043  132.9854  152.2812 N   0  3  1  0  0  0  0  0  0  0  0  0
  146.7792  132.8783  153.5990 C   0  0  0  0  0  0  0  0  0  0  0  0
  147.5468  134.1585  153.9681 C   0  0  0  0  0  0  0  0  0  0  0  0
  148.8192  133.8592  154.7702 C   0  0  0  0  0  0  0  0  0  0  0  0
  149.8050  134.9132  154.5758 N   0  0  0  0  0  0  0  0  0  0  0  0
  150.5640  135.4464  155.5420 C   0  0  0  0  0  0  0  0  0  0  0  0
  150.4480  135.0488  156.7035 O   0  0  0  0  0  0  0  0  0  0  0  0
  151.4087  136.4060  155.1019 N   0  5  0  0  0  0  0  0  0  0  0  0
  150.9772  137.6711  154.9684 C   0  0  0  0  0  0  0  0  0  0  0  0
  151.8178  138.7180  154.9596 N   0  0  0  0  0  0  0  0  0  0  0  0
  151.1707  139.9367  154.8068 N   0  0  0  0  0  0  0  0  0  0  0  0
  149.8524  139.7758  154.6949 C   0  0  0  0  0  0  0  0  0  0  0  0
  149.2822  138.1218  154.7621 S   0  0  0  0  0  0  0  0  0  0  0  0
  145.4306  131.7250  151.8654 C   0  0  0  0  0  0  0  0  0  0  0  0
  146.6474  132.6520  149.4663 H   0  0  0  0  0  0  0  0  0  0  0  0
  145.5440  131.8374  148.3624 H   0  0  0  0  0  0  0  0  0  0  0  0
  146.5647  130.8958  149.4391 H   0  0  0  0  0  0  0  0  0  0  0  0
  144.2548  130.9339  150.2628 H   0  0  0  0  0  0  0  0  0  0  0  0
  143.5891  133.1622  149.2787 H   0  0  0  0  0  0  0  0  0  0  0  0
  143.0315  132.8714  150.9059 H   0  0  0  0  0  0  0  0  0  0  0  0
  145.4190  134.6019  150.1129 H   0  0  0  0  0  0  0  0  0  0  0  0
  143.9059  135.1535  150.7829 H   0  0  0  0  0  0  0  0  0  0  0  0
  145.7054  135.0562  152.5050 H   0  0  0  0  0  0  0  0  0  0  0  0
  144.3674  134.0067  152.9309 H   0  0  0  0  0  0  0  0  0  0  0  0
  146.0308  132.7046  154.3737 H   0  0  0  0  0  0  0  0  0  0  0  0
  147.4397  132.0099  153.6103 H   0  0  0  0  0  0  0  0  0  0  0  0
  147.8213  134.7116  153.0699 H   0  0  0  0  0  0  0  0  0  0  0  0
  146.8981  134.8152  154.5494 H   0  0  0  0  0  0  0  0  0  0  0  0
  148.5879  133.7784  155.8333 H   0  0  0  0  0  0  0  0  0  0  0  0
  149.2404  132.9028  154.4559 H   0  0  0  0  0  0  0  0  0  0  0  0
  149.9281  135.2661  153.6381 H   0  0  0  0  0  0  0  0  0  0  0  0
  149.2124  140.6362  154.5684 H   0  0  0  0  0  0  0  0  0  0  0  0
  144.6244  131.5062  152.5676 H   0  0  0  0  0  0  0  0  0  0  0  0
  146.1202  130.8833  151.9191 H   0  0  0  0  0  0  0  0  0  0  0  0
  146.8312  133.1685  151.6043 H   0  0  0  0  0  0  0  0  0  0  0  0
  1  2  1  0  0  0  0
  1 20  1  0  0  0  0
  1 21  1  0  0  0  0
  1 22  1  0  0  0  0
  2 19  1  0  0  0  0
  2  3  1  0  0  0  0
  2 23  1  0  0  0  0
  3  4  1  0  0  0  0
  3 24  1  0  0  0  0
  3 25  1  0  0  0  0
  4  5  1  0  0  0  0
  4 26  1  0  0  0  0
  4 27  1  0  0  0  0
  5  6  1  0  0  0  0
  5 28  1  0  0  0  0
  5 29  1  0  0  0  0
  6  7  1  0  0  0  0
  6 19  1  0  0  0  0
  6 40  1  0  0  0  0
  7  8  1  0  0  0  0
  7 30  1  0  0  0  0
  7 31  1  0  0  0  0
  8  9  1  0  0  0  0
  8 32  1  0  0  0  0
  8 33  1  0  0  0  0
  9 10  1  0  0  0  0
  9 34  1  0  0  0  0
  9 35  1  0  0  0  0
 10 11  1  0  0  0  0
 10 36  1  0  0  0  0
 11 12  2  0  0  0  0
 11 13  1  0  0  0  0
 13 14  1  0  0  0  0
 14 18  1  0  0  0  0
 14 15  2  0  0  0  0
 15 16  1  0  0  0  0
 16 17  2  0  0  0  0
 17 18  1  0  0  0  0
 17 37  1  0  0  0  0
 19 38  1  0  0  0  0
 19 39  1  0  0  0  0
M  CHG  1   6   1
M  CHG  1  13  -1
M  END
> <s_m_source_file>
AV-unprocessed.smi

> <i_m_source_file_index>
1802

> <i_lp_mmshare_version>
43012

> <i_f3d_flags>
0

> <s_epik_input>
W0NIM11bQ0BASF0xW0NIMl1bQ0gyXVtDSDJdTihbQ0gyXTEpW0NIMl1bQ0gyXVtDSDJdW05IXUMoPU8pW05IXWMybm5bY0hdczI=

> <s_epik_cmdline>
J2VwaWtfcHl0aG9uJywgJy1waCcsICc3LjAnLCAnLXRuJywgJzgnLCAnLW1hJywgJzIwMCcsICctbWV0YWxfYmluZGluZycsICctaW1hZScsICc8aW5maWxlLm1hZT4nLCAnLW9tYWUnLCAnPG91dGZpbGUubWFlPic=

> <r_lp_tautomer_probability>
1

> <r_epik_Ionization_Penalty>
3.29702

> <r_epik_Ionization_Penalty_Charging>
3.26059

> <r_epik_Ionization_Penalty_Neutral>
0.0364294

> <r_epik_State_Penalty>
3.25788

> <r_epik_Charging_Adjusted_Penalty>
6.51847

> <i_epik_Tot_Q>
0

> <i_epik_Tot_abs_Q>
2

> <r_epik_Metal_State_Penalty>
0.477639

> <b_epik_Metal_Only>
1

> <s_lp_Force_Field>
OPLS_2005

> <r_lp_Energy>
14.2366

> <b_lp_Chiralities_Consistent>
1

> <s_lp_Variant>
AV-unprocessed.smi:1802-7

> <Gold.Version>
5.8.1

> <Gold.Id.Protein>
6NUR|6NUR_protein|mol2

> <Gold.PLP.Fitness>
40.1996

> <Gold.PLP.PLP>
-33.3291

> <Gold.PLP.part.hbond>
-3.0170

> <Gold.PLP.part.metal>
0.0000

> <Gold.PLP.part.buried>
-6.7310

> <Gold.PLP.part.nonpolar>
-25.0836

> <Gold.PLP.part.repulsive>
0.3389

> <Gold.PLP.ligand.clash>
0.0000

> <Gold.PLP.ligand.torsion>
1.3564

> <Gold.PLP.Chemscore.Hbond>
3.1716

> <Gold.PLP.Chemscore.CHOScore>
0.0000

> <Gold.PLP.Chemscore.Metal>
0.0000

> <Gold.Chemscore.Hbonds>
donor molecule, donor type, donor heavy atom, donor atom, acceptor molecule, acceptor atom, score
      L1  H    10    36       P1  7948  0.20
      P1  H  7989  7998       L1    16  1.00
      P1  H 10752 10763       L1    13  2.00

> <Gold.PLP.Chemscore.Internal.Correction>
0.0685

> <Gold.Rescore>
     Score         DG    S(hbond)    S(metal)    S(lipo)     H(rot)  DE(clash)    DE(int)     intcor
     14.17     -15.57       1.86        0.00      75.66       1.94       0.12       1.28       ----

> <Gold.Chemscore.Fitness>
14.1671

> <Gold.Chemscore.DG>
-15.5657

> <Gold.Chemscore.ZeroCoef>
-5.4800

> <Gold.Chemscore.Hbond>
1.8550

> <Gold.Chemscore.Metal>
0.0000

> <Gold.Chemscore.Lipo>
75.6587

> <Gold.Chemscore.Internal_Hbond>
0.0000

> <Gold.Chemscore.DEClash>
0.1194

> <Gold.Chemscore.DEInternal>
1.2793

> <Gold.Chemscore.Rot>
1.9383

> <Gold.Chemscore.Internal.Correction>
   9.000000E+99

> <Gold.Chemscore.Hbonds>
donor molecule, donor type, donor heavy atom, donor atom, acceptor molecule, acceptor atom, score
      P1  H  7989  7998       L1    16  0.51
      P1  H 10752 10763       L1    13  0.60

> <Gold.Chemscore.Hbond.Weighted>
-6.1957

> <Gold.Chemscore.Metal.Weighted>
-0.0000

> <Gold.Chemscore.Lipo.Weighted>
-8.8521

> <Gold.Chemscore.Internal_Hbond.Weighted>
0.0000

> <Gold.Chemscore.DEClash.Weighted>
0.1194

> <Gold.Chemscore.DEInternal.Weighted>
1.2793

> <Gold.Chemscore.Rot.Weighted>
4.9620

> <Gold.Chemscore.Internal.Correction.Weighted>
   9.000000E+99

> <Gold.Protein.RotatedTorsions>
[ 6907 6896 6895 6894 ] final  -84.82 input  -60.11 | X-H torsion
[ 7974 7965 7964 7962 ] final  -78.83 input  175.53 | X-H torsion
[ 8008 7997 7996 7995 ] final  -22.20 input   59.86 | X-H torsion
[ 10167 10162 10161 10158 ] final  -26.94 input  -65.29 | X-H torsion
[ 10718 10713 10712 10709 ] final -152.11 input   66.30 | X-H torsion
[ 10763 10752 10751 10750 ] final   62.13 input  -60.55 | X-H torsion
[ 11005 11000 10999 10996 ] final  -75.02 input  -57.11 | X-H torsion

> <Gold.Protein.ActiveResidues>
 VAL166  LYS551  ARG553  GLY616  TRP617  ASP618  TYR619  PRO620  LYS621  CYS622 
 ASP623  PHE694  ASN695  SER759  ASP760  ASP761  ALA762  ILE779  LEU786  VAL792 
 PHE793  MET794  SER795  GLU796  ALA797  LYS798  CYS799  TRP800  GLU811  SER814 

> <Gold.Protein.RotatedAtoms>
  150.6874  134.3299  159.4822 H   0  0  0  0  0  0  0  0  0  0  0  0  # atno 6907 bound_to 6896
  152.1165  134.9234  160.0574 H   0  0  0  0  0  0  0  0  0  0  0  0  # atno 6908 bound_to 6896
  152.0456  133.3962  159.4392 H   0  0  0  0  0  0  0  0  0  0  0  0  # atno 6909 bound_to 6896
  145.5813  140.9448  143.1342 H   0  0  0  0  0  0  0  0  0  0  0  0  # atno 7974 bound_to 7965
  154.4658  140.2014  156.0122 H   0  0  0  0  0  0  0  0  0  0  0  0  # atno 8008 bound_to 7997
  156.0924  140.3256  155.7804 H   0  0  0  0  0  0  0  0  0  0  0  0  # atno 8009 bound_to 7997
  155.4934  140.0548  157.2941 H   0  0  0  0  0  0  0  0  0  0  0  0  # atno 8010 bound_to 7997
  140.7280  143.4135  151.1066 H   0  0  0  0  0  0  0  0  0  0  0  0  # atno 10167 bound_to 10162
  156.4682  130.8246  151.2475 H   0  0  0  0  0  0  0  0  0  0  0  0  # atno 10718 bound_to 10713
  152.9972  135.5476  154.6144 H   0  0  0  0  0  0  0  0  0  0  0  0  # atno 10763 bound_to 10752
  154.5457  135.2823  155.1057 H   0  0  0  0  0  0  0  0  0  0  0  0  # atno 10764 bound_to 10752
  154.2316  135.6432  153.5230 H   0  0  0  0  0  0  0  0  0  0  0  0  # atno 10765 bound_to 10752
  141.1641  133.6931  156.7452 H   0  0  0  0  0  0  0  0  0  0  0  0  # atno 11005 bound_to 11000
  144.7393  139.7496  143.7317 LP  0  0  0  0  0  0  0  0  0  0  0  0  # atno 17320 bound_to 7965
  146.1714  139.4866  142.9925 LP  0  0  0  0  0  0  0  0  0  0  0  0  # atno 17321 bound_to 7965
  139.7772  143.8408  152.3131 LP  0  0  0  0  0  0  0  0  0  0  0  0  # atno 17342 bound_to 10162
  139.8346  144.7238  150.9407 LP  0  0  0  0  0  0  0  0  0  0  0  0  # atno 17343 bound_to 10162
  157.7493  131.0085  150.3230 LP  0  0  0  0  0  0  0  0  0  0  0  0  # atno 17370 bound_to 10713
  156.3646  130.3853  149.7224 LP  0  0  0  0  0  0  0  0  0  0  0  0  # atno 17371 bound_to 10713
  140.2644  134.8441  157.3789 LP  0  0  0  0  0  0  0  0  0  0  0  0  # atno 17394 bound_to 11000
  140.1580  134.4765  155.7914 LP  0  0  0  0  0  0  0  0  0  0  0  0  # atno 17395 bound_to 11000

$$$$
