AV-unprocessed.smi:593|AV-procd|sdf|3013|dock6
  -GOLD-   2262023523D 1   1.00000     0.00000
 Structure written by MMmdl.
 40 41  0  0  0  0  0  0  0  0  3 V2000
  150.7637  140.3540  155.0571 O   0  0  0  0  0  0  0  0  0  0  0  0
  150.0664  141.3511  155.2380 C   0  0  0  0  0  0  0  0  0  0  0  0
  148.8893  141.6255  154.2851 C   0  0  0  0  0  0  0  0  0  0  0  0
  147.8097  140.6212  154.3265 N   0  0  0  0  0  0  0  0  0  0  0  0
  147.5025  139.9654  153.1181 C   0  0  0  0  0  0  0  0  0  0  0  0
  146.5433  139.0226  153.0382 C   0  0  0  0  0  0  0  0  0  0  0  0
  146.2468  138.3548  151.7900 N   0  3  0  0  0  0  0  0  0  0  0  0
  146.9022  138.6487  150.7954 O   0  0  0  0  0  0  0  0  0  0  0  0
  145.3505  137.5166  151.7614 O   0  5  0  0  0  0  0  0  0  0  0  0
  145.8190  138.6937  154.2504 C   0  0  0  0  0  0  0  0  0  0  0  0
  146.1108  139.3138  155.4107 C   0  0  0  0  0  0  0  0  0  0  0  0
  147.1586  140.3359  155.4962 C   0  0  0  0  0  0  0  0  0  0  0  0
  147.4403  140.8948  156.5561 O   0  0  0  0  0  0  0  0  0  0  0  0
  150.2882  142.2208  156.2363 N   0  0  0  0  0  0  0  0  0  0  0  0
  151.3795  142.1399  157.1965 C   0  0  0  0  0  0  0  0  0  0  0  0
  151.1715  143.1341  158.3552 C   0  0  0  0  0  0  0  0  0  0  0  0
  151.5245  144.5859  157.9573 C   0  0  0  0  0  0  0  0  0  0  0  0
  151.3290  145.5616  159.1292 C   0  0  0  0  0  0  0  0  0  0  0  0
  152.1344  145.1235  160.3617 C   0  0  0  0  0  0  0  0  0  0  0  0
  151.7820  143.6851  160.7683 C   0  0  0  0  0  0  0  0  0  0  0  0
  151.9821  142.7101  159.5966 C   0  0  0  0  0  0  0  0  0  0  0  0
  148.4912  142.6171  154.5069 H   0  0  0  0  0  0  0  0  0  0  0  0
  149.2880  141.7062  153.2729 H   0  0  0  0  0  0  0  0  0  0  0  0
  148.1030  140.2763  152.2752 H   0  0  0  0  0  0  0  0  0  0  0  0
  145.0385  137.9471  154.2370 H   0  0  0  0  0  0  0  0  0  0  0  0
  145.5598  139.0520  156.3021 H   0  0  0  0  0  0  0  0  0  0  0  0
  149.6680  143.0129  156.3212 H   0  0  0  0  0  0  0  0  0  0  0  0
  151.4301  141.1196  157.5788 H   0  0  0  0  0  0  0  0  0  0  0  0
  152.3295  142.3423  156.6986 H   0  0  0  0  0  0  0  0  0  0  0  0
  150.1149  143.1095  158.6272 H   0  0  0  0  0  0  0  0  0  0  0  0
  152.5594  144.6313  157.6159 H   0  0  0  0  0  0  0  0  0  0  0  0
  150.9101  144.9147  157.1185 H   0  0  0  0  0  0  0  0  0  0  0  0
  151.6281  146.5663  158.8293 H   0  0  0  0  0  0  0  0  0  0  0  0
  150.2703  145.6174  159.3849 H   0  0  0  0  0  0  0  0  0  0  0  0
  153.2011  145.1915  160.1453 H   0  0  0  0  0  0  0  0  0  0  0  0
  151.9429  145.8028  161.1928 H   0  0  0  0  0  0  0  0  0  0  0  0
  152.3958  143.3785  161.6155 H   0  0  0  0  0  0  0  0  0  0  0  0
  150.7457  143.6436  161.1059 H   0  0  0  0  0  0  0  0  0  0  0  0
  151.6912  141.7059  159.9065 H   0  0  0  0  0  0  0  0  0  0  0  0
  153.0423  142.6590  159.3448 H   0  0  0  0  0  0  0  0  0  0  0  0
  1  2  2  0  0  0  0
  2  3  1  0  0  0  0
  2 14  1  0  0  0  0
  3  4  1  0  0  0  0
  3 22  1  0  0  0  0
  3 23  1  0  0  0  0
  4 12  1  0  0  0  0
  4  5  1  0  0  0  0
  5  6  2  0  0  0  0
  5 24  1  0  0  0  0
  6  7  1  0  0  0  0
  6 10  1  0  0  0  0
  7  8  2  0  0  0  0
  7  9  1  0  0  0  0
 10 11  2  0  0  0  0
 10 25  1  0  0  0  0
 11 12  1  0  0  0  0
 11 26  1  0  0  0  0
 12 13  2  0  0  0  0
 14 15  1  0  0  0  0
 14 27  1  0  0  0  0
 15 16  1  0  0  0  0
 15 28  1  0  0  0  0
 15 29  1  0  0  0  0
 16 21  1  0  0  0  0
 16 17  1  0  0  0  0
 16 30  1  0  0  0  0
 17 18  1  0  0  0  0
 17 31  1  0  0  0  0
 17 32  1  0  0  0  0
 18 19  1  0  0  0  0
 18 33  1  0  0  0  0
 18 34  1  0  0  0  0
 19 20  1  0  0  0  0
 19 35  1  0  0  0  0
 19 36  1  0  0  0  0
 20 21  1  0  0  0  0
 20 37  1  0  0  0  0
 20 38  1  0  0  0  0
 21 39  1  0  0  0  0
 21 40  1  0  0  0  0
M  CHG  1   7   1
M  CHG  1   9  -1
M  END
> <s_m_source_file>
AV-unprocessed.smi

> <i_m_source_file_index>
593

> <i_lp_mmshare_version>
43012

> <i_f3d_flags>
0

> <s_epik_input>
W0NIMl0xW0NIMl1bQ0gyXVtDSDJdW0NIMl1bQ0hdMVtDSDJdW05IXUMoPU8pW0NIMl1uMltjSF1jKFtOK10oPU8pW08tXSlbY0hdW2NIXWMyPU8=

> <s_epik_cmdline>
J2VwaWtfcHl0aG9uJywgJy1waCcsICc3LjAnLCAnLXRuJywgJzgnLCAnLW1hJywgJzIwMCcsICctbWV0YWxfYmluZGluZycsICctaW1hZScsICc8aW5maWxlLm1hZT4nLCAnLW9tYWUnLCAnPG91dGZpbGUubWFlPic=

> <r_lp_tautomer_probability>
1

> <r_epik_Ionization_Penalty>
1.98738e-08

> <r_epik_Ionization_Penalty_Charging>
7.60687e-11

> <r_epik_Ionization_Penalty_Neutral>
1.97978e-08

> <r_epik_State_Penalty>
-0

> <r_epik_Charging_Adjusted_Penalty>
7.60687e-11

> <i_epik_Tot_Q>
0

> <i_epik_Tot_abs_Q>
2

> <r_epik_Metal_State_Penalty>
-0

> <b_epik_Metal_Only>
0

> <s_lp_Force_Field>
OPLS_2005

> <r_lp_Energy>
22.1176

> <b_lp_Chiralities_Consistent>
1

> <s_lp_Variant>
AV-unprocessed.smi:593-1

> <Gold.Version>
5.8.1

> <Gold.Id.Protein>
6NUR|6NUR_protein|mol2

> <Gold.PLP.Fitness>
49.5269

> <Gold.PLP.PLP>
-38.8257

> <Gold.PLP.part.hbond>
-3.0000

> <Gold.PLP.part.metal>
0.0000

> <Gold.PLP.part.buried>
-3.8134

> <Gold.PLP.part.nonpolar>
-32.5193

> <Gold.PLP.part.repulsive>
1.4792

> <Gold.PLP.ligand.clash>
0.0000

> <Gold.PLP.ligand.torsion>
0.2623

> <Gold.PLP.Chemscore.Hbond>
2.7293

> <Gold.PLP.Chemscore.CHOScore>
1.0000

> <Gold.PLP.Chemscore.Metal>
0.0000

> <Gold.Chemscore.Hbonds>
donor molecule, donor type, donor heavy atom, donor atom, acceptor molecule, acceptor atom, score
      L1  H    14    27       P1  8028  1.00
      P1  H  7954  7966       L1     8  0.90
      P1  H  7989  7998       L1     1  0.95
      L1  C     5    24       P1  7957  0.60

> <Gold.PLP.Chemscore.Internal.Correction>
0.0378

> <Gold.Rescore>
     Score         DG    S(hbond)    S(metal)    S(lipo)     H(rot)  DE(clash)    DE(int)     intcor
     16.68     -19.53       2.08        0.00      99.80       1.78       1.37       1.47       ----

> <Gold.Chemscore.Fitness>
16.6845

> <Gold.Chemscore.DG>
-19.5273

> <Gold.Chemscore.ZeroCoef>
-5.4800

> <Gold.Chemscore.Hbond>
2.0760

> <Gold.Chemscore.Metal>
0.0000

> <Gold.Chemscore.Lipo>
99.7970

> <Gold.Chemscore.Internal_Hbond>
0.0000

> <Gold.Chemscore.DEClash>
1.3726

> <Gold.Chemscore.DEInternal>
1.4702

> <Gold.Chemscore.Rot>
1.7823

> <Gold.Chemscore.Internal.Correction>
   9.000000E+99

> <Gold.Chemscore.Hbonds>
donor molecule, donor type, donor heavy atom, donor atom, acceptor molecule, acceptor atom, score
      L1  H    14    27       P1  8028  0.93
      P1  H  7954  7966       L1     8  0.88
      P1  H  7989  7998       L1     1  0.21

> <Gold.Chemscore.Hbond.Weighted>
-6.9337

> <Gold.Chemscore.Metal.Weighted>
-0.0000

> <Gold.Chemscore.Lipo.Weighted>
-11.6762

> <Gold.Chemscore.Internal_Hbond.Weighted>
0.0000

> <Gold.Chemscore.DEClash.Weighted>
1.3726

> <Gold.Chemscore.DEInternal.Weighted>
1.4702

> <Gold.Chemscore.Rot.Weighted>
4.5627

> <Gold.Chemscore.Internal.Correction.Weighted>
   9.000000E+99

> <Gold.Protein.RotatedTorsions>
[ 6907 6896 6895 6894 ] final  129.73 input  -60.11 | X-H torsion
[ 7974 7965 7964 7962 ] final  104.99 input  175.53 | X-H torsion
[ 8008 7997 7996 7995 ] final  146.16 input   59.86 | X-H torsion
[ 10167 10162 10161 10158 ] final -100.84 input  -65.29 | X-H torsion
[ 10718 10713 10712 10709 ] final    4.02 input   66.30 | X-H torsion
[ 10763 10752 10751 10750 ] final  -27.81 input  -60.55 | X-H torsion
[ 11005 11000 10999 10996 ] final  -54.05 input  -57.11 | X-H torsion

> <Gold.Protein.ActiveResidues>
 VAL166  LYS551  ARG553  GLY616  TRP617  ASP618  TYR619  PRO620  LYS621  CYS622 
 ASP623  PHE694  ASN695  SER759  ASP760  ASP761  ALA762  ILE779  LEU786  VAL792 
 PHE793  MET794  SER795  GLU796  ALA797  LYS798  CYS799  TRP800  GLU811  SER814 

> <Gold.Protein.RotatedAtoms>
  152.3595  133.6279  159.6004 H   0  0  0  0  0  0  0  0  0  0  0  0  # atno 6907 bound_to 6896
  150.7591  133.9446  159.3475 H   0  0  0  0  0  0  0  0  0  0  0  0  # atno 6908 bound_to 6896
  151.7286  135.0880  160.0347 H   0  0  0  0  0  0  0  0  0  0  0  0  # atno 6909 bound_to 6896
  145.3256  139.2501  143.3688 H   0  0  0  0  0  0  0  0  0  0  0  0  # atno 7974 bound_to 7965
  156.2863  140.2190  156.5331 H   0  0  0  0  0  0  0  0  0  0  0  0  # atno 8008 bound_to 7997
  154.7432  140.0486  157.0851 H   0  0  0  0  0  0  0  0  0  0  0  0  # atno 8009 bound_to 7997
  155.0204  140.3123  155.4799 H   0  0  0  0  0  0  0  0  0  0  0  0  # atno 8010 bound_to 7997
  140.2476  143.3495  152.0744 H   0  0  0  0  0  0  0  0  0  0  0  0  # atno 10167 bound_to 10162
  156.8864  130.5672  149.5651 H   0  0  0  0  0  0  0  0  0  0  0  0  # atno 10718 bound_to 10713
  153.7382  135.6934  153.4973 H   0  0  0  0  0  0  0  0  0  0  0  0  # atno 10763 bound_to 10752
  153.2088  135.4410  155.0353 H   0  0  0  0  0  0  0  0  0  0  0  0  # atno 10764 bound_to 10752
  154.8230  135.3431  154.6908 H   0  0  0  0  0  0  0  0  0  0  0  0  # atno 10765 bound_to 10752
  141.1006  133.6618  156.4262 H   0  0  0  0  0  0  0  0  0  0  0  0  # atno 11005 bound_to 11000
  146.3066  140.3822  142.8685 LP  0  0  0  0  0  0  0  0  0  0  0  0  # atno 17320 bound_to 7965
  144.8905  140.7517  143.5930 LP  0  0  0  0  0  0  0  0  0  0  0  0  # atno 17321 bound_to 7965
  139.5056  144.6799  151.6035 LP  0  0  0  0  0  0  0  0  0  0  0  0  # atno 17342 bound_to 10162
  140.6065  143.9514  150.6422 LP  0  0  0  0  0  0  0  0  0  0  0  0  # atno 17343 bound_to 10162
  156.0651  130.5696  150.9272 LP  0  0  0  0  0  0  0  0  0  0  0  0  # atno 17370 bound_to 10713
  157.6110  131.0936  150.8795 LP  0  0  0  0  0  0  0  0  0  0  0  0  # atno 17371 bound_to 10713
  140.5030  134.6467  157.5256 LP  0  0  0  0  0  0  0  0  0  0  0  0  # atno 17394 bound_to 11000
  139.9857  134.7066  155.9779 LP  0  0  0  0  0  0  0  0  0  0  0  0  # atno 17395 bound_to 11000

$$$$
