AV-unprocessed.smi:157|AV-procd|sdf|1300|dock9
  -GOLD-   2262018583D 1   1.00000     0.00000
 Structure written by MMmdl.
 35 37  0  0  0  0  0  0  0  0  1 V2000
  148.1891  138.1605  154.3224 O   0  0  0  0  0  0  0  0  0  0  0  0
  148.2860  137.7417  155.6675 C   0  0  0  0  0  0  0  0  0  0  0  0
  149.6817  138.0494  156.2323 C   0  0  2  0  0  0  0  0  0  0  0  0
  149.7024  139.3851  156.7327 O   0  0  0  0  0  0  0  0  0  0  0  0
  150.9270  139.9939  156.4463 C   0  0  1  0  0  0  0  0  0  0  0  0
  151.5136  140.5136  157.7220 N   0  0  0  0  0  0  0  0  0  0  0  0
  151.9875  139.7741  158.7337 C   0  0  0  0  0  0  0  0  0  0  0  0
  152.4631  140.4736  159.7499 N   0  0  0  0  0  0  0  0  0  0  0  0
  152.2801  141.7993  159.3603 C   0  0  0  0  0  0  0  0  0  0  0  0
  151.6937  141.8467  158.1035 C   0  0  0  0  0  0  0  0  0  0  0  0
  151.3028  142.8395  157.2255 N   0  0  0  0  0  0  0  0  0  0  0  0
  151.1290  144.0339  157.6971 C   0  0  0  0  0  0  0  0  0  0  0  0
  151.3644  144.5373  158.9684 N   0  0  0  0  0  0  0  0  0  0  0  0
  152.6054  144.3210  159.6926 C   0  0  0  0  0  0  0  0  0  0  0  0
  152.7424  142.9048  160.2654 C   0  0  1  0  0  0  0  0  0  0  0  0
  151.9855  142.8089  161.4547 O   0  0  0  0  0  0  0  0  0  0  0  0
  151.8346  138.9247  155.8424 C   0  0  0  0  0  0  0  0  0  0  0  0
  150.8153  138.0096  155.2009 C   0  0  1  0  0  0  0  0  0  0  0  0
  151.3475  136.7122  155.0301 O   0  0  0  0  0  0  0  0  0  0  0  0
  149.9104  137.3899  157.0717 H   0  0  0  0  0  0  0  0  0  0  0  0
  150.7677  140.8575  155.8004 H   0  0  0  0  0  0  0  0  0  0  0  0
  153.7850  142.7446  160.5418 H   0  0  0  0  0  0  0  0  0  0  0  0
  150.4893  138.4183  154.2432 H   0  0  0  0  0  0  0  0  0  0  0  0
  148.5005  137.4617  153.7676 H   0  0  0  0  0  0  0  0  0  0  0  0
  147.5086  138.2250  156.2600 H   0  0  0  0  0  0  0  0  0  0  0  0
  148.0978  136.6684  155.7045 H   0  0  0  0  0  0  0  0  0  0  0  0
  151.9882  138.6940  158.7227 H   0  0  0  0  0  0  0  0  0  0  0  0
  150.7448  144.8044  157.0273 H   0  0  0  0  0  0  0  0  0  0  0  0
  150.9437  145.4199  159.2214 H   0  0  0  0  0  0  0  0  0  0  0  0
  153.4228  144.4968  158.9918 H   0  0  0  0  0  0  0  0  0  0  0  0
  152.7127  145.0694  160.4784 H   0  0  0  0  0  0  0  0  0  0  0  0
  152.5119  143.1406  162.1664 H   0  0  0  0  0  0  0  0  0  0  0  0
  152.5492  139.3580  155.1420 H   0  0  0  0  0  0  0  0  0  0  0  0
  152.3770  138.4080  156.6369 H   0  0  0  0  0  0  0  0  0  0  0  0
  150.9084  136.3036  154.2992 H   0  0  0  0  0  0  0  0  0  0  0  0
  1  2  1  0  0  0  0
  1 24  1  0  0  0  0
  2  3  1  0  0  0  0
  2 25  1  0  0  0  0
  2 26  1  0  0  0  0
  3 20  1  0  0  0  0
  3 18  1  0  0  0  0
  3  4  1  0  0  0  0
  4  5  1  0  0  0  0
  5 21  1  0  0  0  0
  5  6  1  0  0  0  0
  5 17  1  0  0  0  0
  6 10  1  0  0  0  0
  6  7  1  0  0  0  0
  7  8  2  0  0  0  0
  7 27  1  0  0  0  0
  8  9  1  0  0  0  0
  9 15  1  0  0  0  0
  9 10  2  0  0  0  0
 10 11  1  0  0  0  0
 11 12  2  0  0  0  0
 12 13  1  0  0  0  0
 12 28  1  0  0  0  0
 13 14  1  0  0  0  0
 13 29  1  0  0  0  0
 14 15  1  0  0  0  0
 14 30  1  0  0  0  0
 14 31  1  0  0  0  0
 15 22  1  0  0  0  0
 15 16  1  0  0  0  0
 16 32  1  0  0  0  0
 17 18  1  0  0  0  0
 17 33  1  0  0  0  0
 17 34  1  0  0  0  0
 18 23  1  0  0  0  0
 18 19  1  0  0  0  0
 19 35  1  0  0  0  0
M  END
> <s_m_source_file>
AV-unprocessed.smi

> <i_m_source_file_index>
157

> <i_lp_mmshare_version>
43012

> <i_f3d_flags>
0

> <s_epik_input>
W09IXVtDSDJdW0NASF0xT1tDQEhdKFtDSDJdW0NAQEhdMVtPSF0pbihbY0hdbjIpYyhjMjMpTj1bQ0hdW05IXVtDSDJdW0NASF0zW09IXQ==

> <s_epik_cmdline>
J2VwaWtfcHl0aG9uJywgJy1waCcsICc3LjAnLCAnLXRuJywgJzgnLCAnLW1hJywgJzIwMCcsICctbWV0YWxfYmluZGluZycsICctaW1hZScsICc8aW5maWxlLm1hZT4nLCAnLW9tYWUnLCAnPG91dGZpbGUubWFlPic=

> <r_lp_tautomer_probability>
1

> <r_epik_Ionization_Penalty>
0.0357149

> <r_epik_Ionization_Penalty_Charging>
0.0355056

> <r_epik_Ionization_Penalty_Neutral>
0.000209255

> <r_epik_State_Penalty>
0.0296046

> <r_epik_Charging_Adjusted_Penalty>
0.0651102

> <i_epik_Tot_Q>
0

> <i_epik_Tot_abs_Q>
0

> <r_epik_Metal_State_Penalty>
3.03559e-05

> <b_epik_Metal_Only>
0

> <s_epik_Chemistry_Notes>
This compound has an imine and may undergo hydrolysis. This compound contains an acetal/aminal-like group ( X-CH(R)-Y where X, Y are N, S, or O) that may be acid/base labile, releasing an aldehyde.

> <s_lp_Force_Field>
OPLS_2005

> <r_lp_Energy>
44.6585

> <b_lp_Chiralities_Consistent>
1

> <s_lp_Variant>
AV-unprocessed.smi:157-10

> <Gold.Version>
5.8.1

> <Gold.Id.Protein>
6NUR|6NUR_protein|mol2

> <Gold.PLP.Fitness>
46.5173

> <Gold.PLP.PLP>
-34.9108

> <Gold.PLP.part.hbond>
-5.0000

> <Gold.PLP.part.metal>
0.0000

> <Gold.PLP.part.buried>
-4.7655

> <Gold.PLP.part.nonpolar>
-26.7629

> <Gold.PLP.part.repulsive>
0.2029

> <Gold.PLP.ligand.clash>
0.0000

> <Gold.PLP.ligand.torsion>
0.5186

> <Gold.PLP.Chemscore.Hbond>
3.3727

> <Gold.PLP.Chemscore.CHOScore>
0.8385

> <Gold.PLP.Chemscore.Metal>
0.0000

> <Gold.Chemscore.Hbonds>
donor molecule, donor type, donor heavy atom, donor atom, acceptor molecule, acceptor atom, score
      L1  H     1    24       P1  7948  0.31
      P1  H  6933  6945       L1    16  0.15
      P1  H 10752 10764       L1    19  0.25
      L1  C    12    28       P1  8028  1.00

> <Gold.PLP.Chemscore.Internal.Correction>
0.0102

> <Gold.Rescore>
     Score         DG    S(hbond)    S(metal)    S(lipo)     H(rot)  DE(clash)    DE(int)     intcor
      7.99      -9.67       1.98        0.00      58.87       3.64       1.12       0.55       ----

> <Gold.Chemscore.Fitness>
7.9948

> <Gold.Chemscore.DG>
-9.6653

> <Gold.Chemscore.ZeroCoef>
-5.4800

> <Gold.Chemscore.Hbond>
1.9779

> <Gold.Chemscore.Metal>
0.0000

> <Gold.Chemscore.Lipo>
58.8709

> <Gold.Chemscore.Internal_Hbond>
0.0000

> <Gold.Chemscore.DEClash>
1.1248

> <Gold.Chemscore.DEInternal>
0.5457

> <Gold.Chemscore.Rot>
3.6362

> <Gold.Chemscore.Internal.Correction>
   9.000000E+99

> <Gold.Chemscore.Hbonds>
donor molecule, donor type, donor heavy atom, donor atom, acceptor molecule, acceptor atom, score
      L1  H     1    24       P1  7948  0.31
      P1  H  6933  6945       L1    16  0.13

> <Gold.Chemscore.Hbond.Weighted>
-6.6061

> <Gold.Chemscore.Metal.Weighted>
-0.0000

> <Gold.Chemscore.Lipo.Weighted>
-6.8879

> <Gold.Chemscore.Internal_Hbond.Weighted>
0.0000

> <Gold.Chemscore.DEClash.Weighted>
1.1248

> <Gold.Chemscore.DEInternal.Weighted>
0.5457

> <Gold.Chemscore.Rot.Weighted>
9.3087

> <Gold.Chemscore.Internal.Correction.Weighted>
   9.000000E+99

> <Gold.Protein.RotatedTorsions>
[ 6907 6896 6895 6894 ] final   74.57 input  -60.11 | X-H torsion
[ 7974 7965 7964 7962 ] final  129.32 input  175.53 | X-H torsion
[ 8008 7997 7996 7995 ] final   40.39 input   59.86 | X-H torsion
[ 10167 10162 10161 10158 ] final  144.49 input  -65.29 | X-H torsion
[ 10718 10713 10712 10709 ] final  -36.32 input   66.30 | X-H torsion
[ 10763 10752 10751 10750 ] final  -66.88 input  -60.55 | X-H torsion
[ 11005 11000 10999 10996 ] final    5.14 input  -57.11 | X-H torsion

> <Gold.Protein.ActiveResidues>
 VAL166  LYS551  ARG553  GLY616  TRP617  ASP618  TYR619  PRO620  LYS621  CYS622 
 ASP623  PHE694  ASN695  SER759  ASP760  ASP761  ALA762  ILE779  LEU786  VAL792 
 PHE793  MET794  SER795  GLU796  ALA797  LYS798  CYS799  TRP800  GLU811  SER814 

> <Gold.Protein.RotatedAtoms>
  152.4983  134.4251  159.9493 H   0  0  0  0  0  0  0  0  0  0  0  0  # atno 6907 bound_to 6896
  151.4226  133.3687  159.2766 H   0  0  0  0  0  0  0  0  0  0  0  0  # atno 6908 bound_to 6896
  150.9212  134.8652  159.7549 H   0  0  0  0  0  0  0  0  0  0  0  0  # atno 6909 bound_to 6896
  145.0299  139.4055  143.5155 H   0  0  0  0  0  0  0  0  0  0  0  0  # atno 7974 bound_to 7965
  155.2524  140.3353  155.4281 H   0  0  0  0  0  0  0  0  0  0  0  0  # atno 8008 bound_to 7997
  156.2210  140.1809  156.7520 H   0  0  0  0  0  0  0  0  0  0  0  0  # atno 8009 bound_to 7997
  154.5825  140.0651  156.9109 H   0  0  0  0  0  0  0  0  0  0  0  0  # atno 8010 bound_to 7997
  139.4946  144.5968  151.6566 H   0  0  0  0  0  0  0  0  0  0  0  0  # atno 10167 bound_to 10162
  156.3283  130.4275  149.7896 H   0  0  0  0  0  0  0  0  0  0  0  0  # atno 10718 bound_to 10713
  154.3663  135.6105  153.5717 H   0  0  0  0  0  0  0  0  0  0  0  0  # atno 10763 bound_to 10752
  152.9791  135.5827  154.4574 H   0  0  0  0  0  0  0  0  0  0  0  0  # atno 10764 bound_to 10752
  154.4320  135.2848  155.1883 H   0  0  0  0  0  0  0  0  0  0  0  0  # atno 10765 bound_to 10752
  140.5740  134.0075  155.8020 H   0  0  0  0  0  0  0  0  0  0  0  0  # atno 11005 bound_to 11000
  146.3497  139.9843  142.8692 LP  0  0  0  0  0  0  0  0  0  0  0  0  # atno 17320 bound_to 7965
  145.1784  140.9755  143.4280 LP  0  0  0  0  0  0  0  0  0  0  0  0  # atno 17321 bound_to 7965
  140.5608  144.0272  150.6169 LP  0  0  0  0  0  0  0  0  0  0  0  0  # atno 17342 bound_to 10162
  140.3357  143.3050  152.0641 LP  0  0  0  0  0  0  0  0  0  0  0  0  # atno 17343 bound_to 10162
  156.5178  130.8201  151.3193 LP  0  0  0  0  0  0  0  0  0  0  0  0  # atno 17370 bound_to 10713
  157.7425  130.9892  150.2524 LP  0  0  0  0  0  0  0  0  0  0  0  0  # atno 17371 bound_to 10713
  141.1038  133.9726  157.3033 LP  0  0  0  0  0  0  0  0  0  0  0  0  # atno 17394 bound_to 11000
  139.9348  135.0197  156.8520 LP  0  0  0  0  0  0  0  0  0  0  0  0  # atno 17395 bound_to 11000

$$$$
