AV-unprocessed.smi:244|AV-procd|sdf|1872|dock7
  -GOLD-   2262020513D 1   1.00000     0.00000
 Structure written by MMmdl.
 56 60  0  0  0  0  0  0  0  0  1 V2000
  147.6095  136.8614  163.3742 C   0  0  0  0  0  0  0  0  0  0  0  0
  147.8485  135.6503  162.6020 N   0  0  0  0  0  0  0  0  0  0  0  0
  146.8620  134.6360  162.9795 C   0  0  0  0  0  0  0  0  0  0  0  0
  147.1068  133.3323  162.1998 C   0  0  0  0  0  0  0  0  0  0  0  0
  147.0486  133.6037  160.6937 C   0  0  2  0  0  0  0  0  0  0  0  0
  147.3338  132.4154  159.9656 O   0  0  0  0  0  0  0  0  0  0  0  0
  147.2071  132.6268  158.5636 C   0  0  0  0  0  0  0  0  0  0  0  0
  148.2103  133.7006  158.1116 C   0  0  0  0  0  0  0  0  0  0  0  0
  148.0465  134.9281  158.8871 N   0  0  0  0  0  0  0  0  0  0  0  0
  148.8305  135.9115  158.3820 C   0  0  0  0  0  0  0  0  0  0  0  0
  149.8285  136.4540  159.1298 N   0  0  0  0  0  0  0  0  0  0  0  0
  150.6124  137.4053  158.6130 C   0  0  0  0  0  0  0  0  0  0  0  0
  150.5795  137.9419  157.3911 N   0  0  0  0  0  0  0  0  0  0  0  0
  149.5872  137.3902  156.6349 C   0  0  0  0  0  0  0  0  0  0  0  0
  148.6775  136.3779  157.0490 C   0  0  0  0  0  0  0  0  0  0  0  0
  147.8093  136.0622  156.0119 N   0  0  0  0  0  0  0  0  0  0  0  0
  148.1851  136.8444  155.0369 C   0  0  0  0  0  0  0  0  0  0  0  0
  149.2422  137.6784  155.3259 N   0  0  0  0  0  0  0  0  0  0  0  0
  149.8595  138.6429  154.4289 C   0  0  0  0  0  0  0  0  0  0  0  0
  149.1679  140.0283  154.4244 C   0  0  0  0  0  0  0  0  0  0  0  0
  149.7432  140.7929  153.3784 O   0  0  0  0  0  0  0  0  0  0  0  0
  147.6458  139.9322  154.1806 C   0  0  0  0  0  0  0  0  0  0  0  0
  146.9413  141.2856  154.3816 C   0  0  0  0  0  0  0  0  0  0  0  0
  147.2300  141.8004  155.6759 O   0  0  0  0  0  0  0  0  0  0  0  0
  148.6144  142.0662  155.8660 C   0  0  0  0  0  0  0  0  0  0  0  0
  149.4215  140.7603  155.7577 C   0  0  0  0  0  0  0  0  0  0  0  0
  148.0764  134.6961  160.3352 C   0  0  1  0  0  0  0  0  0  0  0  0
  147.7575  135.9594  161.1728 C   0  0  0  0  0  0  0  0  0  0  0  0
  147.6855  136.6564  164.4425 H   0  0  0  0  0  0  0  0  0  0  0  0
  146.6184  137.2717  163.1742 H   0  0  0  0  0  0  0  0  0  0  0  0
  148.3502  137.6236  163.1304 H   0  0  0  0  0  0  0  0  0  0  0  0
  146.9326  134.4383  164.0499 H   0  0  0  0  0  0  0  0  0  0  0  0
  145.8531  135.0047  162.7871 H   0  0  0  0  0  0  0  0  0  0  0  0
  148.0780  132.9143  162.4681 H   0  0  0  0  0  0  0  0  0  0  0  0
  146.3591  132.5879  162.4744 H   0  0  0  0  0  0  0  0  0  0  0  0
  146.0410  133.9414  160.4409 H   0  0  0  0  0  0  0  0  0  0  0  0
  147.4015  131.6887  158.0437 H   0  0  0  0  0  0  0  0  0  0  0  0
  146.1856  132.9210  158.3171 H   0  0  0  0  0  0  0  0  0  0  0  0
  149.2286  133.3300  158.2386 H   0  0  0  0  0  0  0  0  0  0  0  0
  148.0736  133.8997  157.0479 H   0  0  0  0  0  0  0  0  0  0  0  0
  151.3771  137.7887  159.2723 H   0  0  0  0  0  0  0  0  0  0  0  0
  147.6961  136.8380  154.0736 H   0  0  0  0  0  0  0  0  0  0  0  0
  150.9065  138.7490  154.7157 H   0  0  0  0  0  0  0  0  0  0  0  0
  149.8635  138.2181  153.4240 H   0  0  0  0  0  0  0  0  0  0  0  0
  149.8533  140.2346  152.6238 H   0  0  0  0  0  0  0  0  0  0  0  0
  147.4338  139.5546  153.1796 H   0  0  0  0  0  0  0  0  0  0  0  0
  147.2158  139.2115  154.8773 H   0  0  0  0  0  0  0  0  0  0  0  0
  147.2423  142.0033  153.6168 H   0  0  0  0  0  0  0  0  0  0  0  0
  145.8625  141.1603  154.2874 H   0  0  0  0  0  0  0  0  0  0  0  0
  148.9588  142.8043  155.1399 H   0  0  0  0  0  0  0  0  0  0  0  0
  148.7531  142.5076  156.8530 H   0  0  0  0  0  0  0  0  0  0  0  0
  149.1351  140.1102  156.5856 H   0  0  0  0  0  0  0  0  0  0  0  0
  150.4851  140.9663  155.8861 H   0  0  0  0  0  0  0  0  0  0  0  0
  149.0729  134.3375  160.5999 H   0  0  0  0  0  0  0  0  0  0  0  0
  146.7627  136.3374  160.9297 H   0  0  0  0  0  0  0  0  0  0  0  0
  148.4644  136.7579  160.9482 H   0  0  0  0  0  0  0  0  0  0  0  0
  1  2  1  0  0  0  0
  1 29  1  0  0  0  0
  1 30  1  0  0  0  0
  1 31  1  0  0  0  0
  2 28  1  0  0  0  0
  2  3  1  0  0  0  0
  3  4  1  0  0  0  0
  3 32  1  0  0  0  0
  3 33  1  0  0  0  0
  4  5  1  0  0  0  0
  4 34  1  0  0  0  0
  4 35  1  0  0  0  0
  5 27  1  0  0  0  0
  5  6  1  0  0  0  0
  5 36  1  0  0  0  0
  6  7  1  0  0  0  0
  7  8  1  0  0  0  0
  7 37  1  0  0  0  0
  7 38  1  0  0  0  0
  8  9  1  0  0  0  0
  8 39  1  0  0  0  0
  8 40  1  0  0  0  0
  9 10  1  0  0  0  0
  9 27  1  0  0  0  0
 10 15  1  0  0  0  0
 10 11  2  0  0  0  0
 11 12  1  0  0  0  0
 12 13  2  0  0  0  0
 12 41  1  0  0  0  0
 13 14  1  0  0  0  0
 14 18  1  0  0  0  0
 14 15  2  0  0  0  0
 15 16  1  0  0  0  0
 16 17  2  0  0  0  0
 17 18  1  0  0  0  0
 17 42  1  0  0  0  0
 18 19  1  0  0  0  0
 19 20  1  0  0  0  0
 19 43  1  0  0  0  0
 19 44  1  0  0  0  0
 20 26  1  0  0  0  0
 20 21  1  0  0  0  0
 20 22  1  0  0  0  0
 21 45  1  0  0  0  0
 22 23  1  0  0  0  0
 22 46  1  0  0  0  0
 22 47  1  0  0  0  0
 23 24  1  0  0  0  0
 23 48  1  0  0  0  0
 23 49  1  0  0  0  0
 24 25  1  0  0  0  0
 25 26  1  0  0  0  0
 25 50  1  0  0  0  0
 25 51  1  0  0  0  0
 26 52  1  0  0  0  0
 26 53  1  0  0  0  0
 27 28  1  0  0  0  0
 27 54  1  0  0  0  0
 28 55  1  0  0  0  0
 28 56  1  0  0  0  0
M  END
> <s_m_source_file>
AV-unprocessed.smi

> <i_m_source_file_index>
244

> <i_lp_mmshare_version>
43012

> <i_f3d_flags>
0

> <s_epik_input>
W0NIMl0xW0NIMl1OKFtDSDNdKVtDSDJdW0NAQEhdKFtDQEhdMTIpTihbQ0gyXVtDSDJdTzIpYyhuW2NIXW4zKWMoYzM0KW5bY0hdbjRbQ0gyXUM1KFtPSF0pW0NIMl1bQ0gyXU9bQ0gyXVtDSDJdNQ==

> <s_epik_cmdline>
J2VwaWtfcHl0aG9uJywgJy1waCcsICc3LjAnLCAnLXRuJywgJzgnLCAnLW1hJywgJzIwMCcsICctbWV0YWxfYmluZGluZycsICctaW1hZScsICc8aW5maWxlLm1hZT4nLCAnLW9tYWUnLCAnPG91dGZpbGUubWFlPic=

> <r_lp_tautomer_probability>
1

> <r_epik_Ionization_Penalty>
2.27765

> <r_epik_Ionization_Penalty_Charging>
0

> <r_epik_Ionization_Penalty_Neutral>
2.27765

> <r_epik_State_Penalty>
2.4114

> <r_epik_Charging_Adjusted_Penalty>
2.4114

> <i_epik_Tot_Q>
0

> <i_epik_Tot_abs_Q>
0

> <r_epik_Metal_State_Penalty>
2.39769

> <b_epik_Metal_Only>
0

> <s_lp_Force_Field>
OPLS_2005

> <r_lp_Energy>
38.8348

> <b_lp_Chiralities_Consistent>
1

> <s_lp_Variant>
AV-unprocessed.smi:244-9

> <Gold.Version>
5.8.1

> <Gold.Id.Protein>
6NUR|6NUR_protein|mol2

> <Gold.PLP.Fitness>
43.3599

> <Gold.PLP.PLP>
-33.6034

> <Gold.PLP.part.hbond>
-2.8630

> <Gold.PLP.part.metal>
0.0000

> <Gold.PLP.part.buried>
-1.0491

> <Gold.PLP.part.nonpolar>
-30.0266

> <Gold.PLP.part.repulsive>
0.1496

> <Gold.PLP.ligand.clash>
0.0000

> <Gold.PLP.ligand.torsion>
0.5827

> <Gold.PLP.Chemscore.Hbond>
2.6252

> <Gold.PLP.Chemscore.CHOScore>
0.9655

> <Gold.PLP.Chemscore.Metal>
0.0000

> <Gold.Chemscore.Hbonds>
donor molecule, donor type, donor heavy atom, donor atom, acceptor molecule, acceptor atom, score
      L1  H    21    45       P1  7957  0.86
      P1  H  6896  6908       L1    11  1.00
      P1  H  7989  7998       L1    21  0.11
      P1  H  8011  8017       L1    21  0.65
      L1  C    17    42       P1  7948  0.67

> <Gold.PLP.Chemscore.Internal.Correction>
0.1497

> <Gold.Rescore>
     Score         DG    S(hbond)    S(metal)    S(lipo)     H(rot)  DE(clash)    DE(int)     intcor
     12.18     -15.23       1.58        0.00      83.20       2.06       1.31       1.74       ----

> <Gold.Chemscore.Fitness>
12.1766

> <Gold.Chemscore.DG>
-15.2260

> <Gold.Chemscore.ZeroCoef>
-5.4800

> <Gold.Chemscore.Hbond>
1.5833

> <Gold.Chemscore.Metal>
0.0000

> <Gold.Chemscore.Lipo>
83.1995

> <Gold.Chemscore.Internal_Hbond>
0.0000

> <Gold.Chemscore.DEClash>
1.3112

> <Gold.Chemscore.DEInternal>
1.7382

> <Gold.Chemscore.Rot>
2.0611

> <Gold.Chemscore.Internal.Correction>
   9.000000E+99

> <Gold.Chemscore.Hbonds>
donor molecule, donor type, donor heavy atom, donor atom, acceptor molecule, acceptor atom, score
      L1  H    21    45       P1  7957  0.79
      P1  H  6896  6908       L1    11  0.42
      P1  H  8011  8017       L1    21  0.06

> <Gold.Chemscore.Hbond.Weighted>
-5.2882

> <Gold.Chemscore.Metal.Weighted>
-0.0000

> <Gold.Chemscore.Lipo.Weighted>
-9.7343

> <Gold.Chemscore.Internal_Hbond.Weighted>
0.0000

> <Gold.Chemscore.DEClash.Weighted>
1.3112

> <Gold.Chemscore.DEInternal.Weighted>
1.7382

> <Gold.Chemscore.Rot.Weighted>
5.2765

> <Gold.Chemscore.Internal.Correction.Weighted>
   9.000000E+99

> <Gold.Protein.RotatedTorsions>
[ 6907 6896 6895 6894 ] final -159.50 input  -60.11 | X-H torsion
[ 7974 7965 7964 7962 ] final   64.56 input  175.53 | X-H torsion
[ 8008 7997 7996 7995 ] final   -9.47 input   59.86 | X-H torsion
[ 10167 10162 10161 10158 ] final   -5.27 input  -65.29 | X-H torsion
[ 10718 10713 10712 10709 ] final   41.08 input   66.30 | X-H torsion
[ 10763 10752 10751 10750 ] final  109.10 input  -60.55 | X-H torsion
[ 11005 11000 10999 10996 ] final  -85.74 input  -57.11 | X-H torsion

> <Gold.Protein.ActiveResidues>
 VAL166  LYS551  ARG553  GLY616  TRP617  ASP618  TYR619  PRO620  LYS621  CYS622 
 ASP623  PHE694  ASN695  SER759  ASP760  ASP761  ALA762  ILE779  LEU786  VAL792 
 PHE793  MET794  SER795  GLU796  ALA797  LYS798  CYS799  TRP800  GLU811  SER814 

> <Gold.Protein.RotatedAtoms>
  151.3345  133.3987  159.2665 H   0  0  0  0  0  0  0  0  0  0  0  0  # atno 6907 bound_to 6896
  150.9928  134.9260  159.7920 H   0  0  0  0  0  0  0  0  0  0  0  0  # atno 6908 bound_to 6896
  152.5252  134.3310  159.9235 H   0  0  0  0  0  0  0  0  0  0  0  0  # atno 6909 bound_to 6896
  145.8487  139.3240  143.0888 H   0  0  0  0  0  0  0  0  0  0  0  0  # atno 7974 bound_to 7965
  154.5644  140.2354  155.8286 H   0  0  0  0  0  0  0  0  0  0  0  0  # atno 8008 bound_to 7997
  156.2056  140.3040  155.9579 H   0  0  0  0  0  0  0  0  0  0  0  0  # atno 8009 bound_to 7997
  155.2828  140.0423  157.3007 H   0  0  0  0  0  0  0  0  0  0  0  0  # atno 8010 bound_to 7997
  140.6957  143.6327  150.8508 H   0  0  0  0  0  0  0  0  0  0  0  0  # atno 10167 bound_to 10162
  157.3895  130.7798  149.7258 H   0  0  0  0  0  0  0  0  0  0  0  0  # atno 10718 bound_to 10713
  153.4300  135.3791  155.2164 H   0  0  0  0  0  0  0  0  0  0  0  0  # atno 10763 bound_to 10752
  154.8749  135.3837  154.4280 H   0  0  0  0  0  0  0  0  0  0  0  0  # atno 10764 bound_to 10752
  153.4811  135.7088  153.6000 H   0  0  0  0  0  0  0  0  0  0  0  0  # atno 10765 bound_to 10752
  141.1638  133.7416  156.9059 H   0  0  0  0  0  0  0  0  0  0  0  0  # atno 11005 bound_to 11000
  145.9382  140.8999  143.0321 LP  0  0  0  0  0  0  0  0  0  0  0  0  # atno 17320 bound_to 7965
  144.6730  140.1512  143.7430 LP  0  0  0  0  0  0  0  0  0  0  0  0  # atno 17321 bound_to 7965
  140.0045  143.5708  152.2863 LP  0  0  0  0  0  0  0  0  0  0  0  0  # atno 17342 bound_to 10162
  139.6410  144.7654  151.2339 LP  0  0  0  0  0  0  0  0  0  0  0  0  # atno 17343 bound_to 10162
  155.9795  130.4039  150.3585 LP  0  0  0  0  0  0  0  0  0  0  0  0  # atno 17370 bound_to 10713
  157.1699  131.0366  151.2800 LP  0  0  0  0  0  0  0  0  0  0  0  0  # atno 17371 bound_to 10713
  140.1550  134.9204  157.2642 LP  0  0  0  0  0  0  0  0  0  0  0  0  # atno 17394 bound_to 11000
  140.2678  134.3496  155.7384 LP  0  0  0  0  0  0  0  0  0  0  0  0  # atno 17395 bound_to 11000

$$$$
