AV-unprocessed.smi:627|AV-procd|sdf|3113|dock9
  -GOLD-   22720 0 33D 1   1.00000     0.00000
 Structure written by MMmdl.
 40 42  0  0  0  0  0  0  0  0  1 V2000
  152.2164  139.0278  158.0332 C   0  0  0  0  0  0  0  0  0  0  0  0
  152.1847  137.2089  158.3018 S   0  0  0  0  0  0  0  0  0  0  0  0
  153.5120  136.6780  157.9531 O   0  0  0  0  0  0  0  0  0  0  0  0
  151.6270  136.9490  159.6381 O   0  0  0  0  0  0  0  0  0  0  0  0
  151.0072  136.6205  157.0903 C   0  0  0  0  0  0  0  0  0  0  0  0
  149.7329  136.1716  157.4924 C   0  0  0  0  0  0  0  0  0  0  0  0
  148.8568  135.6887  156.5019 C   0  0  0  0  0  0  0  0  0  0  0  0
  149.2903  135.6719  155.1535 C   0  0  0  0  0  0  0  0  0  0  0  0
  148.5037  135.1961  154.0703 N   0  0  0  0  0  0  0  0  0  0  0  0
  147.2545  134.7011  154.1035 C   0  0  0  0  0  0  0  0  0  0  0  0
  146.5674  134.5755  155.1169 O   0  0  0  0  0  0  0  0  0  0  0  0
  146.8316  134.3737  152.8739 N   0  0  0  0  0  0  0  0  0  0  0  0
  145.5161  133.8355  152.5424 C   0  0  0  0  0  0  0  0  0  0  0  0
  145.6186  132.4555  151.9197 C   0  0  0  0  0  0  0  0  0  0  0  0
  145.8124  132.2754  150.4326 C   0  0  0  0  0  0  0  0  0  0  0  0
  144.4982  131.8954  151.0769 C   0  0  0  0  0  0  0  0  0  0  0  0
  144.7200  134.7634  151.6394 C   0  0  0  0  0  0  0  0  0  0  0  0
  145.4017  135.7863  150.7615 C   0  0  0  0  0  0  0  0  0  0  0  0
  144.5834  136.2355  151.9505 C   0  0  0  0  0  0  0  0  0  0  0  0
  150.6005  136.1170  154.8750 C   0  0  0  0  0  0  0  0  0  0  0  0
  151.4490  136.5826  155.8153 N   0  0  0  0  0  0  0  0  0  0  0  0
  152.9158  139.4854  158.7322 H   0  0  0  0  0  0  0  0  0  0  0  0
  151.2200  139.4375  158.1972 H   0  0  0  0  0  0  0  0  0  0  0  0
  152.5319  139.2389  157.0119 H   0  0  0  0  0  0  0  0  0  0  0  0
  149.4300  136.1924  158.5287 H   0  0  0  0  0  0  0  0  0  0  0  0
  147.8829  135.3291  156.7958 H   0  0  0  0  0  0  0  0  0  0  0  0
  148.9101  135.3152  153.1539 H   0  0  0  0  0  0  0  0  0  0  0  0
  147.4675  134.5150  152.1029 H   0  0  0  0  0  0  0  0  0  0  0  0
  144.9518  133.7189  153.4702 H   0  0  0  0  0  0  0  0  0  0  0  0
  146.1366  131.7346  152.5499 H   0  0  0  0  0  0  0  0  0  0  0  0
  145.8206  133.1648  149.8058 H   0  0  0  0  0  0  0  0  0  0  0  0
  146.4658  131.4689  150.1059 H   0  0  0  0  0  0  0  0  0  0  0  0
  144.2751  130.8354  151.1791 H   0  0  0  0  0  0  0  0  0  0  0  0
  143.6401  132.5365  150.8846 H   0  0  0  0  0  0  0  0  0  0  0  0
  143.8357  134.2938  151.2124 H   0  0  0  0  0  0  0  0  0  0  0  0
  146.4832  135.8820  150.8345 H   0  0  0  0  0  0  0  0  0  0  0  0
  144.9849  135.9531  149.7705 H   0  0  0  0  0  0  0  0  0  0  0  0
  143.6215  136.7037  151.7518 H   0  0  0  0  0  0  0  0  0  0  0  0
  145.1268  136.6312  152.8061 H   0  0  0  0  0  0  0  0  0  0  0  0
  150.9803  136.1043  153.8637 H   0  0  0  0  0  0  0  0  0  0  0  0
  1  2  1  0  0  0  0
  1 22  1  0  0  0  0
  1 23  1  0  0  0  0
  1 24  1  0  0  0  0
  2  3  2  0  0  0  0
  2  4  2  0  0  0  0
  2  5  1  0  0  0  0
  5 21  1  0  0  0  0
  5  6  2  0  0  0  0
  6  7  1  0  0  0  0
  6 25  1  0  0  0  0
  7  8  2  0  0  0  0
  7 26  1  0  0  0  0
  8  9  1  0  0  0  0
  8 20  1  0  0  0  0
  9 10  1  0  0  0  0
  9 27  1  0  0  0  0
 10 11  2  0  0  0  0
 10 12  1  0  0  0  0
 12 13  1  0  0  0  0
 12 28  1  0  0  0  0
 13 14  1  0  0  0  0
 13 17  1  0  0  0  0
 13 29  1  0  0  0  0
 14 16  1  0  0  0  0
 14 15  1  0  0  0  0
 14 30  1  0  0  0  0
 15 16  1  0  0  0  0
 15 31  1  0  0  0  0
 15 32  1  0  0  0  0
 16 33  1  0  0  0  0
 16 34  1  0  0  0  0
 17 19  1  0  0  0  0
 17 18  1  0  0  0  0
 17 35  1  0  0  0  0
 18 19  1  0  0  0  0
 18 36  1  0  0  0  0
 18 37  1  0  0  0  0
 19 38  1  0  0  0  0
 19 39  1  0  0  0  0
 20 21  2  0  0  0  0
 20 40  1  0  0  0  0
M  END
> <s_m_source_file>
AV-unprocessed.smi

> <i_m_source_file_index>
627

> <i_lp_mmshare_version>
43012

> <i_f3d_flags>
0

> <s_epik_input>
W0NIM11TKD1PKSg9TyljMVtjSF1bY0hdYyhbY0hdbjEpW05IXUMoPU8pW05IXVtDSF0oW0NIXTJbQ0gyXVtDSDJdMilbQ0hdM1tDSDJdW0NIMl0z

> <s_epik_cmdline>
J2VwaWtfcHl0aG9uJywgJy1waCcsICc3LjAnLCAnLXRuJywgJzgnLCAnLW1hJywgJzIwMCcsICctbWV0YWxfYmluZGluZycsICctaW1hZScsICc8aW5maWxlLm1hZT4nLCAnLW9tYWUnLCAnPG91dGZpbGUubWFlPic=

> <r_lp_tautomer_probability>
1

> <r_epik_Ionization_Penalty>
4.12334e-05

> <r_epik_Ionization_Penalty_Charging>
0

> <r_epik_Ionization_Penalty_Neutral>
4.12334e-05

> <r_epik_State_Penalty>
-0

> <r_epik_Charging_Adjusted_Penalty>
0

> <i_epik_Tot_Q>
0

> <i_epik_Tot_abs_Q>
0

> <r_epik_Metal_State_Penalty>
-0

> <b_epik_Metal_Only>
0

> <s_lp_Force_Field>
OPLS_2005

> <r_lp_Energy>
25.9195

> <b_lp_Chiralities_Consistent>
1

> <s_lp_Variant>
AV-unprocessed.smi:627-1

> <Gold.Version>
5.8.1

> <Gold.Id.Protein>
6NUR|6NUR_protein|mol2

> <Gold.PLP.Fitness>
38.7019

> <Gold.PLP.PLP>
-26.6961

> <Gold.PLP.part.hbond>
-3.6568

> <Gold.PLP.part.metal>
0.0000

> <Gold.PLP.part.buried>
-3.1572

> <Gold.PLP.part.nonpolar>
-19.2294

> <Gold.PLP.part.repulsive>
0.0877

> <Gold.PLP.ligand.clash>
0.0000

> <Gold.PLP.ligand.torsion>
2.1522

> <Gold.PLP.Chemscore.Hbond>
3.0572

> <Gold.PLP.Chemscore.CHOScore>
1.0000

> <Gold.PLP.Chemscore.Metal>
0.0000

> <Gold.Chemscore.Hbonds>
donor molecule, donor type, donor heavy atom, donor atom, acceptor molecule, acceptor atom, score
      L1  H     9    27       P1  7948  0.94
      L1  H    12    28       P1  7948  0.27
      P1  H  6896  6908       L1     4  1.00
      P1  H 10752 10763       L1    21  0.48
      L1  C    20    40       P1  7949  0.93

> <Gold.PLP.Chemscore.Internal.Correction>
4.1385

> <Gold.Rescore>
     Score         DG    S(hbond)    S(metal)    S(lipo)     H(rot)  DE(clash)    DE(int)     intcor
     15.12     -18.54       2.88        0.00      59.85       1.40       0.01       3.41       ----

> <Gold.Chemscore.Fitness>
15.1188

> <Gold.Chemscore.DG>
-18.5363

> <Gold.Chemscore.ZeroCoef>
-5.4800

> <Gold.Chemscore.Hbond>
2.8825

> <Gold.Chemscore.Metal>
0.0000

> <Gold.Chemscore.Lipo>
59.8460

> <Gold.Chemscore.Internal_Hbond>
0.0000

> <Gold.Chemscore.DEClash>
0.0092

> <Gold.Chemscore.DEInternal>
3.4084

> <Gold.Chemscore.Rot>
1.3958

> <Gold.Chemscore.Internal.Correction>
   9.000000E+99

> <Gold.Chemscore.Hbonds>
donor molecule, donor type, donor heavy atom, donor atom, acceptor molecule, acceptor atom, score
      L1  H     9    27       P1  7948  0.48
      L1  H    12    28       P1  7948  0.17
      P1  H  6896  6908       L1     4  0.78
      P1  H 10752 10763       L1    21  0.07

> <Gold.Chemscore.Hbond.Weighted>
-9.6277

> <Gold.Chemscore.Metal.Weighted>
-0.0000

> <Gold.Chemscore.Lipo.Weighted>
-7.0020

> <Gold.Chemscore.Internal_Hbond.Weighted>
0.0000

> <Gold.Chemscore.DEClash.Weighted>
0.0092

> <Gold.Chemscore.DEInternal.Weighted>
3.4084

> <Gold.Chemscore.Rot.Weighted>
3.5733

> <Gold.Chemscore.Internal.Correction.Weighted>
   9.000000E+99

> <Gold.Protein.RotatedTorsions>
[ 6907 6896 6895 6894 ] final -118.35 input  -60.11 | X-H torsion
[ 7974 7965 7964 7962 ] final    4.75 input  175.53 | X-H torsion
[ 8008 7997 7996 7995 ] final -138.07 input   59.86 | X-H torsion
[ 10167 10162 10161 10158 ] final   78.34 input  -65.29 | X-H torsion
[ 10718 10713 10712 10709 ] final  -16.72 input   66.30 | X-H torsion
[ 10763 10752 10751 10750 ] final   95.07 input  -60.55 | X-H torsion
[ 11005 11000 10999 10996 ] final   57.92 input  -57.11 | X-H torsion

> <Gold.Protein.ActiveResidues>
 VAL166  LYS551  ARG553  GLY616  TRP617  ASP618  TYR619  PRO620  LYS621  CYS622 
 ASP623  PHE694  ASN695  SER759  ASP760  ASP761  ALA762  ILE779  LEU786  VAL792 
 PHE793  MET794  SER795  GLU796  ALA797  LYS798  CYS799  TRP800  GLU811  SER814 

> <Gold.Protein.RotatedAtoms>
  150.8212  133.8249  159.3137 H   0  0  0  0  0  0  0  0  0  0  0  0  # atno 6907 bound_to 6896
  151.6006  135.1046  160.0069 H   0  0  0  0  0  0  0  0  0  0  0  0  # atno 6908 bound_to 6896
  152.4301  133.7222  159.6596 H   0  0  0  0  0  0  0  0  0  0  0  0  # atno 6909 bound_to 6896
  146.2443  140.0487  142.8376 H   0  0  0  0  0  0  0  0  0  0  0  0  # atno 7974 bound_to 7965
  155.4223  140.0519  157.3025 H   0  0  0  0  0  0  0  0  0  0  0  0  # atno 8008 bound_to 7997
  154.4897  140.2115  155.9535 H   0  0  0  0  0  0  0  0  0  0  0  0  # atno 8009 bound_to 7997
  156.1325  140.3169  155.8375 H   0  0  0  0  0  0  0  0  0  0  0  0  # atno 8010 bound_to 7997
  139.9719  144.5888  150.7977 H   0  0  0  0  0  0  0  0  0  0  0  0  # atno 10167 bound_to 10162
  156.5837  130.4780  149.6309 H   0  0  0  0  0  0  0  0  0  0  0  0  # atno 10718 bound_to 10713
  153.2489  135.4267  155.0776 H   0  0  0  0  0  0  0  0  0  0  0  0  # atno 10763 bound_to 10752
  154.8373  135.3421  154.6541 H   0  0  0  0  0  0  0  0  0  0  0  0  # atno 10764 bound_to 10752
  153.6963  135.7031  153.5132 H   0  0  0  0  0  0  0  0  0  0  0  0  # atno 10765 bound_to 10752
  140.0416  134.5865  155.9375 H   0  0  0  0  0  0  0  0  0  0  0  0  # atno 11005 bound_to 11000
  145.1004  140.9342  143.4716 LP  0  0  0  0  0  0  0  0  0  0  0  0  # atno 17320 bound_to 7965
  145.0679  139.3054  143.5847 LP  0  0  0  0  0  0  0  0  0  0  0  0  # atno 17321 bound_to 7965
  140.7519  143.2980  151.3153 LP  0  0  0  0  0  0  0  0  0  0  0  0  # atno 17342 bound_to 10162
  139.6474  144.0425  152.2601 LP  0  0  0  0  0  0  0  0  0  0  0  0  # atno 17343 bound_to 10162
  156.2610  130.6962  151.1730 LP  0  0  0  0  0  0  0  0  0  0  0  0  # atno 17370 bound_to 10713
  157.7320  131.0603  150.5648 LP  0  0  0  0  0  0  0  0  0  0  0  0  # atno 17371 bound_to 10713
  141.1886  133.6563  156.5330 LP  0  0  0  0  0  0  0  0  0  0  0  0  # atno 17394 bound_to 11000
  140.4060  134.7314  157.4808 LP  0  0  0  0  0  0  0  0  0  0  0  0  # atno 17395 bound_to 11000

$$$$
