AV-unprocessed.smi:2579|AV-procd|sdf|10126|dock2
  -GOLD-   2272014143D 1   1.00000     0.00000
 Structure written by MMmdl.
 38 40  0  0  0  0  0  0  0  0  1 V2000
  152.4201  136.6320  159.5557 O   0  0  0  0  0  0  0  0  0  0  0  0
  151.8001  137.8160  159.1012 C   0  0  0  0  0  0  0  0  0  0  0  0
  152.5731  138.3933  157.9085 C   0  0  0  0  0  0  0  0  0  0  0  0
  152.1482  139.7459  157.6034 N   0  0  0  0  0  0  0  0  0  0  0  0
  152.1286  140.9148  158.3531 C   0  0  0  0  0  0  0  0  0  0  0  0
  152.5336  140.9935  159.6194 N   0  0  0  0  0  0  0  0  0  0  0  0
  152.3047  142.3239  159.9175 C   0  0  0  0  0  0  0  0  0  0  0  0
  152.5243  143.0473  161.1117 C   0  0  0  0  0  0  0  0  0  0  0  0
  152.2058  144.4193  161.1844 C   0  0  0  0  0  0  0  0  0  0  0  0
  151.6633  145.0868  160.0670 C   0  0  0  0  0  0  0  0  0  0  0  0
  151.4376  144.3862  158.8666 C   0  0  0  0  0  0  0  0  0  0  0  0
  151.7588  143.0172  158.7978 C   0  0  0  0  0  0  0  0  0  0  0  0
  151.6660  142.0582  157.7936 N   0  0  0  0  0  0  0  0  0  0  0  0
  151.1684  142.2677  156.4414 C   0  0  0  0  0  0  0  0  0  0  0  0
  150.0623  141.2664  156.0721 C   0  0  1  0  0  0  0  0  0  0  0  0
  148.9005  141.8826  155.2926 C   0  0  0  0  0  0  0  0  0  0  0  0
  148.3803  140.7354  154.4371 C   0  0  0  0  0  0  0  0  0  0  0  0
  149.4022  139.6153  154.6436 C   0  0  0  0  0  0  0  0  0  0  0  0
  150.5400  140.2653  155.1871 O   0  0  0  0  0  0  0  0  0  0  0  0
  153.0738  136.3744  158.9238 H   0  0  0  0  0  0  0  0  0  0  0  0
  150.7545  137.6300  158.8521 H   0  0  0  0  0  0  0  0  0  0  0  0
  151.8114  138.5303  159.9248 H   0  0  0  0  0  0  0  0  0  0  0  0
  153.6350  138.4275  158.1536 H   0  0  0  0  0  0  0  0  0  0  0  0
  152.4724  137.7602  157.0265 H   0  0  0  0  0  0  0  0  0  0  0  0
  151.7782  139.8449  156.6689 H   0  0  0  0  0  0  0  0  0  0  0  0
  152.9383  142.5455  161.9739 H   0  0  0  0  0  0  0  0  0  0  0  0
  152.3779  144.9622  162.1022 H   0  0  0  0  0  0  0  0  0  0  0  0
  151.4209  146.1374  160.1322 H   0  0  0  0  0  0  0  0  0  0  0  0
  151.0221  144.8950  158.0095 H   0  0  0  0  0  0  0  0  0  0  0  0
  150.7880  143.2868  156.3665 H   0  0  0  0  0  0  0  0  0  0  0  0
  152.0008  142.2014  155.7400 H   0  0  0  0  0  0  0  0  0  0  0  0
  149.6826  140.7797  156.9727 H   0  0  0  0  0  0  0  0  0  0  0  0
  148.1375  142.2987  155.9511 H   0  0  0  0  0  0  0  0  0  0  0  0
  149.2567  142.6853  154.6454 H   0  0  0  0  0  0  0  0  0  0  0  0
  147.3817  140.4176  154.7388 H   0  0  0  0  0  0  0  0  0  0  0  0
  148.3341  141.0359  153.3896 H   0  0  0  0  0  0  0  0  0  0  0  0
  149.0306  138.8839  155.3628 H   0  0  0  0  0  0  0  0  0  0  0  0
  149.6465  139.0914  153.7192 H   0  0  0  0  0  0  0  0  0  0  0  0
  1  2  1  0  0  0  0
  1 20  1  0  0  0  0
  2  3  1  0  0  0  0
  2 21  1  0  0  0  0
  2 22  1  0  0  0  0
  3  4  1  0  0  0  0
  3 23  1  0  0  0  0
  3 24  1  0  0  0  0
  4  5  1  0  0  0  0
  4 25  1  0  0  0  0
  5 13  1  0  0  0  0
  5  6  2  0  0  0  0
  6  7  1  0  0  0  0
  7 12  2  0  0  0  0
  7  8  1  0  0  0  0
  8  9  2  0  0  0  0
  8 26  1  0  0  0  0
  9 10  1  0  0  0  0
  9 27  1  0  0  0  0
 10 11  2  0  0  0  0
 10 28  1  0  0  0  0
 11 12  1  0  0  0  0
 11 29  1  0  0  0  0
 12 13  1  0  0  0  0
 13 14  1  0  0  0  0
 14 15  1  0  0  0  0
 14 30  1  0  0  0  0
 14 31  1  0  0  0  0
 15 19  1  0  0  0  0
 15 16  1  0  0  0  0
 15 32  1  0  0  0  0
 16 17  1  0  0  0  0
 16 33  1  0  0  0  0
 16 34  1  0  0  0  0
 17 18  1  0  0  0  0
 17 35  1  0  0  0  0
 17 36  1  0  0  0  0
 18 19  1  0  0  0  0
 18 37  1  0  0  0  0
 18 38  1  0  0  0  0
M  END
> <s_m_source_file>
AV-unprocessed.smi

> <i_m_source_file_index>
2579

> <i_lp_mmshare_version>
43012

> <i_f3d_flags>
0

> <s_epik_input>
W09IXVtDSDJdW0NIMl1bTkhdYyhuMSluKGMoYzEyKVtjSF1bY0hdW2NIXVtjSF0yKVtDSDJdW0NAQEhdM1tDSDJdW0NIMl1bQ0gyXU8z

> <s_epik_cmdline>
J2VwaWtfcHl0aG9uJywgJy1waCcsICc3LjAnLCAnLXRuJywgJzgnLCAnLW1hJywgJzIwMCcsICctbWV0YWxfYmluZGluZycsICctaW1hZScsICc8aW5maWxlLm1hZT4nLCAnLW9tYWUnLCAnPG91dGZpbGUubWFlPic=

> <r_epik_Ionization_Penalty>
1.27244

> <r_epik_Ionization_Penalty_Charging>
0

> <r_epik_Ionization_Penalty_Neutral>
1.27244

> <r_epik_State_Penalty>
1.34401

> <r_epik_Charging_Adjusted_Penalty>
1.34401

> <i_epik_Tot_Q>
0

> <i_epik_Tot_abs_Q>
0

> <r_epik_Metal_State_Penalty>
0.00511131

> <b_epik_Metal_Only>
0

> <s_lp_Force_Field>
OPLS_2005

> <r_lp_Energy>
20.6152

> <b_lp_Chiralities_Consistent>
1

> <s_lp_Variant>
AV-unprocessed.smi:2579-4

> <Gold.Version>
5.8.1

> <Gold.Id.Protein>
6NUR|6NUR_protein|mol2

> <Gold.PLP.Fitness>
44.8987

> <Gold.PLP.PLP>
-40.2793

> <Gold.PLP.part.hbond>
-2.0000

> <Gold.PLP.part.metal>
0.0000

> <Gold.PLP.part.buried>
-5.9102

> <Gold.PLP.part.nonpolar>
-32.5702

> <Gold.PLP.part.repulsive>
0.1416

> <Gold.PLP.ligand.clash>
0.0000

> <Gold.PLP.ligand.torsion>
0.7018

> <Gold.PLP.Chemscore.Hbond>
2.0000

> <Gold.PLP.Chemscore.CHOScore>
0.0000

> <Gold.PLP.Chemscore.Metal>
0.0000

> <Gold.Chemscore.Hbonds>
donor molecule, donor type, donor heavy atom, donor atom, acceptor molecule, acceptor atom, score
      P1  H  6896  6907       L1     1  0.75
      P1  H  7989  7998       L1    19  0.83

> <Gold.PLP.Chemscore.Internal.Correction>
0.0230

> <Gold.Rescore>
     Score         DG    S(hbond)    S(metal)    S(lipo)     H(rot)  DE(clash)    DE(int)     intcor
     17.63     -18.55       1.86        0.00     106.05       2.17       0.13       0.80       ----

> <Gold.Chemscore.Fitness>
17.6261

> <Gold.Chemscore.DG>
-18.5525

> <Gold.Chemscore.ZeroCoef>
-5.4800

> <Gold.Chemscore.Hbond>
1.8613

> <Gold.Chemscore.Metal>
0.0000

> <Gold.Chemscore.Lipo>
106.0519

> <Gold.Chemscore.Internal_Hbond>
0.0000

> <Gold.Chemscore.DEClash>
0.1313

> <Gold.Chemscore.DEInternal>
0.7952

> <Gold.Chemscore.Rot>
2.1688

> <Gold.Chemscore.Internal.Correction>
   9.000000E+99

> <Gold.Chemscore.Hbonds>
donor molecule, donor type, donor heavy atom, donor atom, acceptor molecule, acceptor atom, score
      P1  H  6896  6907       L1     1  0.09
      P1  H  7989  7998       L1    19  0.35

> <Gold.Chemscore.Hbond.Weighted>
-6.2167

> <Gold.Chemscore.Metal.Weighted>
-0.0000

> <Gold.Chemscore.Lipo.Weighted>
-12.4081

> <Gold.Chemscore.Internal_Hbond.Weighted>
0.0000

> <Gold.Chemscore.DEClash.Weighted>
0.1313

> <Gold.Chemscore.DEInternal.Weighted>
0.7952

> <Gold.Chemscore.Rot.Weighted>
5.5522

> <Gold.Chemscore.Internal.Correction.Weighted>
   9.000000E+99

> <Gold.Protein.RotatedTorsions>
[ 6907 6896 6895 6894 ] final   28.70 input  -60.11 | X-H torsion
[ 7974 7965 7964 7962 ] final  -61.63 input  175.53 | X-H torsion
[ 8008 7997 7996 7995 ] final  -83.93 input   59.86 | X-H torsion
[ 10167 10162 10161 10158 ] final   62.81 input  -65.29 | X-H torsion
[ 10718 10713 10712 10709 ] final  140.25 input   66.30 | X-H torsion
[ 10763 10752 10751 10750 ] final  134.94 input  -60.55 | X-H torsion
[ 11005 11000 10999 10996 ] final  159.06 input  -57.11 | X-H torsion

> <Gold.Protein.ActiveResidues>
 VAL166  LYS551  ARG553  GLY616  TRP617  ASP618  TYR619  PRO620  LYS621  CYS622 
 ASP623  PHE694  ASN695  SER759  ASP760  ASP761  ALA762  ILE779  LEU786  VAL792 
 PHE793  MET794  SER795  GLU796  ALA797  LYS798  CYS799  TRP800  GLU811  SER814 

> <Gold.Protein.RotatedAtoms>
  152.0207  134.9824  160.0570 H   0  0  0  0  0  0  0  0  0  0  0  0  # atno 6907 bound_to 6896
  152.1339  133.4419  159.4742 H   0  0  0  0  0  0  0  0  0  0  0  0  # atno 6908 bound_to 6896
  150.6859  134.2305  159.4476 H   0  0  0  0  0  0  0  0  0  0  0  0  # atno 6909 bound_to 6896
  145.8011  140.8654  143.0231 H   0  0  0  0  0  0  0  0  0  0  0  0  # atno 7974 bound_to 7965
  154.6244  140.0612  156.9655 H   0  0  0  0  0  0  0  0  0  0  0  0  # atno 8008 bound_to 7997
  155.1766  140.3295  155.4364 H   0  0  0  0  0  0  0  0  0  0  0  0  # atno 8009 bound_to 7997
  156.2449  140.1905  156.6865 H   0  0  0  0  0  0  0  0  0  0  0  0  # atno 8010 bound_to 7997
  140.1399  144.4563  150.6817 H   0  0  0  0  0  0  0  0  0  0  0  0  # atno 10167 bound_to 10162
  157.4054  131.1021  151.0509 H   0  0  0  0  0  0  0  0  0  0  0  0  # atno 10718 bound_to 10713
  153.8318  135.3103  155.3419 H   0  0  0  0  0  0  0  0  0  0  0  0  # atno 10763 bound_to 10752
  154.7970  135.4749  154.0187 H   0  0  0  0  0  0  0  0  0  0  0  0  # atno 10764 bound_to 10752
  153.1630  135.6864  153.8807 H   0  0  0  0  0  0  0  0  0  0  0  0  # atno 10765 bound_to 10752
  140.1925  134.8397  157.2928 H   0  0  0  0  0  0  0  0  0  0  0  0  # atno 11005 bound_to 11000
  144.6768  140.0260  143.7483 LP  0  0  0  0  0  0  0  0  0  0  0  0  # atno 17320 bound_to 7965
  145.9877  139.2990  143.1004 LP  0  0  0  0  0  0  0  0  0  0  0  0  # atno 17321 bound_to 7965
  140.6767  143.2308  151.5490 LP  0  0  0  0  0  0  0  0  0  0  0  0  # atno 17342 bound_to 10162
  139.5477  144.2477  152.1473 LP  0  0  0  0  0  0  0  0  0  0  0  0  # atno 17343 bound_to 10162
  157.1493  130.6177  149.5577 LP  0  0  0  0  0  0  0  0  0  0  0  0  # atno 17370 bound_to 10713
  155.9835  130.4854  150.6935 LP  0  0  0  0  0  0  0  0  0  0  0  0  # atno 17371 bound_to 10713
  140.2144  134.4100  155.7597 LP  0  0  0  0  0  0  0  0  0  0  0  0  # atno 17394 bound_to 11000
  141.2226  133.7134  156.8389 LP  0  0  0  0  0  0  0  0  0  0  0  0  # atno 17395 bound_to 11000

$$$$
