AV-unprocessed.smi:3044|AV-procd|sdf|11606|dock5
  -GOLD-   2272016583D 1   1.00000     0.00000
 Structure written by MMmdl.
 41 42  0  0  0  0  0  0  0  0  1 V2000
  153.3454  142.9723  163.2135 C   0  0  0  0  0  0  0  0  0  0  0  0
  152.9576  143.1307  161.7532 C   0  0  0  0  0  0  0  0  0  0  0  0
  152.2515  144.2456  161.4599 N   0  0  0  0  0  0  0  0  0  0  0  0
  151.8792  144.4475  160.1789 C   0  0  0  0  0  0  0  0  0  0  0  0
  152.1974  143.5592  159.1348 C   0  0  0  0  0  0  0  0  0  0  0  0
  152.9312  142.3981  159.4416 C   0  0  0  0  0  0  0  0  0  0  0  0
  153.3146  142.1608  160.7839 C   0  0  0  0  0  0  0  0  0  0  0  0
  154.0699  141.0252  161.1875 N   0  0  0  0  0  0  0  0  0  0  0  0
  154.5414  140.0203  160.4270 C   0  0  0  0  0  0  0  0  0  0  0  0
  154.4097  139.9395  159.2064 O   0  0  0  0  0  0  0  0  0  0  0  0
  155.2754  138.9079  161.1818 C   0  0  0  0  0  0  0  0  0  0  0  0
  154.4100  138.2695  162.1177 O   0  0  0  0  0  0  0  0  0  0  0  0
  154.8872  137.0454  162.6716 C   0  0  1  0  0  0  0  0  0  0  0  0
  153.9731  136.6677  163.8486 C   0  0  0  0  0  0  0  0  0  0  0  0
  154.3507  135.2954  164.4266 C   0  0  0  0  0  0  0  0  0  0  0  0
  154.3232  134.2084  163.3400 C   0  0  0  0  0  0  0  0  0  0  0  0
  155.2366  134.5721  162.1534 C   0  0  1  0  0  0  0  0  0  0  0  0
  155.2022  133.4911  161.0637 C   0  0  0  0  0  0  0  0  0  0  0  0
  154.8587  135.9537  161.5853 C   0  0  0  0  0  0  0  0  0  0  0  0
  152.8695  142.0890  163.6386 H   0  0  0  0  0  0  0  0  0  0  0  0
  153.0400  143.8359  163.8055 H   0  0  0  0  0  0  0  0  0  0  0  0
  154.4256  142.8640  163.3117 H   0  0  0  0  0  0  0  0  0  0  0  0
  151.3167  145.3475  159.9790 H   0  0  0  0  0  0  0  0  0  0  0  0
  151.8895  143.7662  158.1206 H   0  0  0  0  0  0  0  0  0  0  0  0
  153.1973  141.7226  158.6433 H   0  0  0  0  0  0  0  0  0  0  0  0
  154.1824  140.9095  162.1845 H   0  0  0  0  0  0  0  0  0  0  0  0
  155.6990  138.1785  160.4894 H   0  0  0  0  0  0  0  0  0  0  0  0
  156.1102  139.3497  161.7264 H   0  0  0  0  0  0  0  0  0  0  0  0
  155.9075  137.1471  163.0474 H   0  0  0  0  0  0  0  0  0  0  0  0
  154.0357  137.4286  164.6271 H   0  0  0  0  0  0  0  0  0  0  0  0
  152.9342  136.6485  163.5166 H   0  0  0  0  0  0  0  0  0  0  0  0
  155.3467  135.3462  164.8684 H   0  0  0  0  0  0  0  0  0  0  0  0
  153.6671  135.0314  165.2340 H   0  0  0  0  0  0  0  0  0  0  0  0
  154.6310  133.2544  163.7700 H   0  0  0  0  0  0  0  0  0  0  0  0
  153.2993  134.0722  162.9891 H   0  0  0  0  0  0  0  0  0  0  0  0
  156.2609  134.6310  162.5243 H   0  0  0  0  0  0  0  0  0  0  0  0
  154.2026  133.3858  160.6409 H   0  0  0  0  0  0  0  0  0  0  0  0
  155.4983  132.5208  161.4632 H   0  0  0  0  0  0  0  0  0  0  0  0
  155.8848  133.7337  160.2486 H   0  0  0  0  0  0  0  0  0  0  0  0
  153.8642  135.9086  161.1395 H   0  0  0  0  0  0  0  0  0  0  0  0
  155.5460  136.2156  160.7812 H   0  0  0  0  0  0  0  0  0  0  0  0
  1  2  1  0  0  0  0
  1 20  1  0  0  0  0
  1 21  1  0  0  0  0
  1 22  1  0  0  0  0
  2  7  1  0  0  0  0
  2  3  2  0  0  0  0
  3  4  1  0  0  0  0
  4  5  2  0  0  0  0
  4 23  1  0  0  0  0
  5  6  1  0  0  0  0
  5 24  1  0  0  0  0
  6  7  2  0  0  0  0
  6 25  1  0  0  0  0
  7  8  1  0  0  0  0
  8  9  1  0  0  0  0
  8 26  1  0  0  0  0
  9 10  2  0  0  0  0
  9 11  1  0  0  0  0
 11 12  1  0  0  0  0
 11 27  1  0  0  0  0
 11 28  1  0  0  0  0
 12 13  1  0  0  0  0
 13 19  1  0  0  0  0
 13 14  1  0  0  0  0
 13 29  1  0  0  0  0
 14 15  1  0  0  0  0
 14 30  1  0  0  0  0
 14 31  1  0  0  0  0
 15 16  1  0  0  0  0
 15 32  1  0  0  0  0
 15 33  1  0  0  0  0
 16 17  1  0  0  0  0
 16 34  1  0  0  0  0
 16 35  1  0  0  0  0
 17 18  1  0  0  0  0
 17 19  1  0  0  0  0
 17 36  1  0  0  0  0
 18 37  1  0  0  0  0
 18 38  1  0  0  0  0
 18 39  1  0  0  0  0
 19 40  1  0  0  0  0
 19 41  1  0  0  0  0
M  END
> <s_m_source_file>
AV-unprocessed.smi

> <i_m_source_file_index>
3044

> <i_lp_mmshare_version>
43012

> <i_f3d_flags>
0

> <s_epik_input>
W0NIM11jMW5bY0hdW2NIXVtjSF1jMVtOSF1DKD1PKVtDSDJdT1tDQEBIXTJbQ0gyXVtDSDJdW0NIMl1bQ0BASF0oW0NIM10pW0NIMl0y

> <s_epik_cmdline>
J2VwaWtfcHl0aG9uJywgJy1waCcsICc3LjAnLCAnLXRuJywgJzgnLCAnLW1hJywgJzIwMCcsICctbWV0YWxfYmluZGluZycsICctaW1hZScsICc8aW5maWxlLm1hZT4nLCAnLW9tYWUnLCAnPG91dGZpbGUubWFlPic=

> <r_epik_Ionization_Penalty>
0.0077122

> <r_epik_Ionization_Penalty_Charging>
0

> <r_epik_Ionization_Penalty_Neutral>
0.0077122

> <r_epik_State_Penalty>
0.00577497

> <r_epik_Charging_Adjusted_Penalty>
0.00577497

> <i_epik_Tot_Q>
0

> <i_epik_Tot_abs_Q>
0

> <r_epik_Metal_State_Penalty>
-0

> <b_epik_Metal_Only>
0

> <s_lp_Force_Field>
OPLS_2005

> <r_lp_Energy>
17.5643

> <b_lp_Chiralities_Consistent>
1

> <s_lp_Variant>
AV-unprocessed.smi:3044-2

> <Gold.Version>
5.8.1

> <Gold.Id.Protein>
6NUR|6NUR_protein|mol2

> <Gold.PLP.Fitness>
46.2831

> <Gold.PLP.PLP>
-43.4884

> <Gold.PLP.part.hbond>
-1.0000

> <Gold.PLP.part.metal>
0.0000

> <Gold.PLP.part.buried>
-5.7328

> <Gold.PLP.part.nonpolar>
-36.7190

> <Gold.PLP.part.repulsive>
0.1628

> <Gold.PLP.ligand.clash>
0.0000

> <Gold.PLP.ligand.torsion>
0.1075

> <Gold.PLP.Chemscore.Hbond>
1.0000

> <Gold.PLP.Chemscore.CHOScore>
0.0000

> <Gold.PLP.Chemscore.Metal>
0.0000

> <Gold.Chemscore.Hbonds>
donor molecule, donor type, donor heavy atom, donor atom, acceptor molecule, acceptor atom, score
      P1  H  7997  8008       L1    10  1.00

> <Gold.PLP.Chemscore.Internal.Correction>
0.0097

> <Gold.Rescore>
     Score         DG    S(hbond)    S(metal)    S(lipo)     H(rot)  DE(clash)    DE(int)     intcor
     18.38     -19.75       0.98        0.00     122.53       1.31       0.00       1.37       ----

> <Gold.Chemscore.Fitness>
18.3843

> <Gold.Chemscore.DG>
-19.7510

> <Gold.Chemscore.ZeroCoef>
-5.4800

> <Gold.Chemscore.Hbond>
0.9817

> <Gold.Chemscore.Metal>
0.0000

> <Gold.Chemscore.Lipo>
122.5343

> <Gold.Chemscore.Internal_Hbond>
0.0000

> <Gold.Chemscore.DEClash>
0.0000

> <Gold.Chemscore.DEInternal>
1.3667

> <Gold.Chemscore.Rot>
1.3064

> <Gold.Chemscore.Internal.Correction>
   9.000000E+99

> <Gold.Chemscore.Hbonds>
donor molecule, donor type, donor heavy atom, donor atom, acceptor molecule, acceptor atom, score
      P1  H  7997  8008       L1    10  0.95

> <Gold.Chemscore.Hbond.Weighted>
-3.2788

> <Gold.Chemscore.Metal.Weighted>
-0.0000

> <Gold.Chemscore.Lipo.Weighted>
-14.3365

> <Gold.Chemscore.Internal_Hbond.Weighted>
0.0000

> <Gold.Chemscore.DEClash.Weighted>
0.0000

> <Gold.Chemscore.DEInternal.Weighted>
1.3667

> <Gold.Chemscore.Rot.Weighted>
3.3443

> <Gold.Chemscore.Internal.Correction.Weighted>
   9.000000E+99

> <Gold.Protein.RotatedTorsions>
[ 6907 6896 6895 6894 ] final -110.15 input  -60.11 | X-H torsion
[ 7974 7965 7964 7962 ] final   95.49 input  175.53 | X-H torsion
[ 8008 7997 7996 7995 ] final -114.75 input   59.86 | X-H torsion
[ 10167 10162 10161 10158 ] final -146.34 input  -65.29 | X-H torsion
[ 10718 10713 10712 10709 ] final  -65.07 input   66.30 | X-H torsion
[ 10763 10752 10751 10750 ] final  165.29 input  -60.55 | X-H torsion
[ 11005 11000 10999 10996 ] final  -50.50 input  -57.11 | X-H torsion

> <Gold.Protein.ActiveResidues>
 VAL166  LYS551  ARG553  GLY616  TRP617  ASP618  TYR619  PRO620  LYS621  CYS622 
 ASP623  PHE694  ASN695  SER759  ASP760  ASP761  ALA762  ILE779  LEU786  VAL792 
 PHE793  MET794  SER795  GLU796  ALA797  LYS798  CYS799  TRP800  GLU811  SER814 

> <Gold.Protein.RotatedAtoms>
  150.7606  133.9424  159.3460 H   0  0  0  0  0  0  0  0  0  0  0  0  # atno 6907 bound_to 6896
  151.7334  135.0868  160.0313 H   0  0  0  0  0  0  0  0  0  0  0  0  # atno 6908 bound_to 6896
  152.3575  133.6218  159.6026 H   0  0  0  0  0  0  0  0  0  0  0  0  # atno 6909 bound_to 6896
  145.4515  139.2293  143.3037 H   0  0  0  0  0  0  0  0  0  0  0  0  # atno 7974 bound_to 7965
  155.0412  140.0392  157.2510 H   0  0  0  0  0  0  0  0  0  0  0  0  # atno 8008 bound_to 7997
  154.7215  140.2712  155.6514 H   0  0  0  0  0  0  0  0  0  0  0  0  # atno 8009 bound_to 7997
  156.2817  140.2702  156.1887 H   0  0  0  0  0  0  0  0  0  0  0  0  # atno 8010 bound_to 7997
  139.7722  143.8221  152.2626 H   0  0  0  0  0  0  0  0  0  0  0  0  # atno 10167 bound_to 10162
  156.0691  130.4242  150.1511 H   0  0  0  0  0  0  0  0  0  0  0  0  # atno 10718 bound_to 10713
  154.3217  135.2756  155.2516 H   0  0  0  0  0  0  0  0  0  0  0  0  # atno 10763 bound_to 10752
  154.4866  135.5844  153.6432 H   0  0  0  0  0  0  0  0  0  0  0  0  # atno 10764 bound_to 10752
  152.9876  135.6124  154.3402 H   0  0  0  0  0  0  0  0  0  0  0  0  # atno 10765 bound_to 10752
  141.0820  133.6651  156.3741 H   0  0  0  0  0  0  0  0  0  0  0  0  # atno 11005 bound_to 11000
  146.2502  140.5274  142.8897 LP  0  0  0  0  0  0  0  0  0  0  0  0  # atno 17320 bound_to 7965
  144.8058  140.6298  143.6447 LP  0  0  0  0  0  0  0  0  0  0  0  0  # atno 17321 bound_to 7965
  139.8259  144.7275  150.9513 LP  0  0  0  0  0  0  0  0  0  0  0  0  # atno 17342 bound_to 10162
  140.7814  143.4115  151.0985 LP  0  0  0  0  0  0  0  0  0  0  0  0  # atno 17343 bound_to 10162
  156.9565  130.9791  151.3488 LP  0  0  0  0  0  0  0  0  0  0  0  0  # atno 17370 bound_to 10713
  157.5751  130.8337  149.8445 LP  0  0  0  0  0  0  0  0  0  0  0  0  # atno 17371 bound_to 10713
  140.5448  134.6085  157.5390 LP  0  0  0  0  0  0  0  0  0  0  0  0  # atno 17394 bound_to 11000
  139.9634  134.7414  156.0189 LP  0  0  0  0  0  0  0  0  0  0  0  0  # atno 17395 bound_to 11000

$$$$
