AV-unprocessed.smi:2099|AV-procd|sdf|8570|dock3
  -GOLD-   2272011303D 1   1.00000     0.00000
 Structure written by MMmdl.
 32 33  0  0  0  0  0  0  0  0  1 V2000
  146.1068  132.7098  150.3463 C   0  0  0  0  0  0  0  0  0  0  0  0
  145.3888  133.6198  151.3527 C   0  0  2  0  0  0  0  0  0  0  0  0
  145.2497  135.0573  150.8159 C   0  0  0  0  0  0  0  0  0  0  0  0
  144.5289  135.9707  151.8233 C   0  0  0  0  0  0  0  0  0  0  0  0
  145.2139  135.9711  153.2065 C   0  0  2  0  0  0  0  0  0  0  0  0
  146.5057  136.6548  153.1642 N   0  0  0  0  0  0  0  0  0  0  0  0
  146.8141  137.7758  153.8322 C   0  0  0  0  0  0  0  0  0  0  0  0
  146.0234  138.3674  154.5678 O   0  0  0  0  0  0  0  0  0  0  0  0
  148.0815  138.1531  153.5888 N   0  0  0  0  0  0  0  0  0  0  0  0
  148.7805  139.2763  154.1051 C   0  0  0  0  0  0  0  0  0  0  0  0
  150.0565  139.2335  154.5199 N   0  0  0  0  0  0  0  0  0  0  0  0
  150.4963  140.4695  154.9763 N   0  0  0  0  0  0  0  0  0  0  0  0
  149.5360  141.3941  154.8888 C   0  0  0  0  0  0  0  0  0  0  0  0
  148.0001  140.8455  154.2402 S   0  0  0  0  0  0  0  0  0  0  0  0
  145.3882  134.5330  153.7318 C   0  0  0  0  0  0  0  0  0  0  0  0
  146.1029  133.6221  152.7176 C   0  0  0  0  0  0  0  0  0  0  0  0
  147.1224  133.0561  150.1522 H   0  0  0  0  0  0  0  0  0  0  0  0
  145.5762  132.6818  149.3940 H   0  0  0  0  0  0  0  0  0  0  0  0
  146.1690  131.6866  150.7181 H   0  0  0  0  0  0  0  0  0  0  0  0
  144.3849  133.2182  151.4992 H   0  0  0  0  0  0  0  0  0  0  0  0
  146.2357  135.4660  150.5912 H   0  0  0  0  0  0  0  0  0  0  0  0
  144.6995  135.0516  149.8744 H   0  0  0  0  0  0  0  0  0  0  0  0
  144.4640  136.9849  151.4275 H   0  0  0  0  0  0  0  0  0  0  0  0
  143.4999  135.6282  151.9378 H   0  0  0  0  0  0  0  0  0  0  0  0
  144.5733  136.5052  153.9105 H   0  0  0  0  0  0  0  0  0  0  0  0
  147.2167  136.2389  152.5807 H   0  0  0  0  0  0  0  0  0  0  0  0
  148.6106  137.5653  152.9620 H   0  0  0  0  0  0  0  0  0  0  0  0
  149.7341  142.4064  155.2083 H   0  0  0  0  0  0  0  0  0  0  0  0
  145.9320  134.5392  154.6771 H   0  0  0  0  0  0  0  0  0  0  0  0
  144.4057  134.1134  153.9523 H   0  0  0  0  0  0  0  0  0  0  0  0
  146.1509  132.6070  153.1133 H   0  0  0  0  0  0  0  0  0  0  0  0
  147.1357  133.9501  152.5932 H   0  0  0  0  0  0  0  0  0  0  0  0
  1  2  1  0  0  0  0
  1 17  1  0  0  0  0
  1 18  1  0  0  0  0
  1 19  1  0  0  0  0
  2 16  1  0  0  0  0
  2  3  1  0  0  0  0
  2 20  1  0  0  0  0
  3  4  1  0  0  0  0
  3 21  1  0  0  0  0
  3 22  1  0  0  0  0
  4  5  1  0  0  0  0
  4 23  1  0  0  0  0
  4 24  1  0  0  0  0
  5  6  1  0  0  0  0
  5 15  1  0  0  0  0
  5 25  1  0  0  0  0
  6  7  1  0  0  0  0
  6 26  1  0  0  0  0
  7  8  2  0  0  0  0
  7  9  1  0  0  0  0
  9 10  1  0  0  0  0
  9 27  1  0  0  0  0
 10 14  1  0  0  0  0
 10 11  2  0  0  0  0
 11 12  1  0  0  0  0
 12 13  2  0  0  0  0
 13 14  1  0  0  0  0
 13 28  1  0  0  0  0
 15 16  1  0  0  0  0
 15 29  1  0  0  0  0
 15 30  1  0  0  0  0
 16 31  1  0  0  0  0
 16 32  1  0  0  0  0
M  END
> <s_m_source_file>
AV-unprocessed.smi

> <i_m_source_file_index>
2099

> <i_lp_mmshare_version>
43012

> <i_f3d_flags>
0

> <s_epik_input>
W0NIM11bQ0BASF0xW0NIMl1bQ0gyXVtDQEhdKFtDSDJdW0NIMl0xKVtOSF1DKD1PKVtOSF1jMm5uW2NIXXMy

> <s_epik_cmdline>
J2VwaWtfcHl0aG9uJywgJy1waCcsICc3LjAnLCAnLXRuJywgJzgnLCAnLW1hJywgJzIwMCcsICctbWV0YWxfYmluZGluZycsICctaW1hZScsICc8aW5maWxlLm1hZT4nLCAnLW9tYWUnLCAnPG91dGZpbGUubWFlPic=

> <r_lp_tautomer_probability>
1

> <r_epik_Ionization_Penalty>
0.000322846

> <r_epik_Ionization_Penalty_Charging>
0

> <r_epik_Ionization_Penalty_Neutral>
0.000322846

> <r_epik_State_Penalty>
-0

> <r_epik_Charging_Adjusted_Penalty>
0

> <i_epik_Tot_Q>
0

> <i_epik_Tot_abs_Q>
0

> <r_epik_Metal_State_Penalty>
0.17121

> <b_epik_Metal_Only>
0

> <s_lp_Force_Field>
OPLS_2005

> <r_lp_Energy>
7.13427

> <b_lp_Chiralities_Consistent>
1

> <s_lp_Variant>
AV-unprocessed.smi:2099-2

> <Gold.Version>
5.8.1

> <Gold.Id.Protein>
6NUR|6NUR_protein|mol2

> <Gold.PLP.Fitness>
35.4289

> <Gold.PLP.PLP>
-24.4016

> <Gold.PLP.part.hbond>
-3.0000

> <Gold.PLP.part.metal>
0.0000

> <Gold.PLP.part.buried>
-3.8165

> <Gold.PLP.part.nonpolar>
-17.8946

> <Gold.PLP.part.repulsive>
0.3382

> <Gold.PLP.ligand.clash>
0.0000

> <Gold.PLP.ligand.torsion>
0.3396

> <Gold.PLP.Chemscore.Hbond>
2.9000

> <Gold.PLP.Chemscore.CHOScore>
1.0000

> <Gold.PLP.Chemscore.Metal>
0.0000

> <Gold.Chemscore.Hbonds>
donor molecule, donor type, donor heavy atom, donor atom, acceptor molecule, acceptor atom, score
      L1  H     6    26       P1  7948  1.00
      L1  H     9    27       P1  7948  1.00
      P1  H  7989  7998       L1    12  0.85
      L1  C    13    28       P1  8028  1.00

> <Gold.PLP.Chemscore.Internal.Correction>
0.0066

> <Gold.Rescore>
     Score         DG    S(hbond)    S(metal)    S(lipo)     H(rot)  DE(clash)    DE(int)     intcor
     15.08     -15.33       2.05        0.00      47.65       1.00       0.00       0.26       ----

> <Gold.Chemscore.Fitness>
15.0752

> <Gold.Chemscore.DG>
-15.3344

> <Gold.Chemscore.ZeroCoef>
-5.4800

> <Gold.Chemscore.Hbond>
2.0478

> <Gold.Chemscore.Metal>
0.0000

> <Gold.Chemscore.Lipo>
47.6480

> <Gold.Chemscore.Internal_Hbond>
0.0000

> <Gold.Chemscore.DEClash>
0.0000

> <Gold.Chemscore.DEInternal>
0.2592

> <Gold.Chemscore.Rot>
1.0000

> <Gold.Chemscore.Internal.Correction>
   9.000000E+99

> <Gold.Chemscore.Hbonds>
donor molecule, donor type, donor heavy atom, donor atom, acceptor molecule, acceptor atom, score
      L1  H     6    26       P1  7948  0.96
      L1  H     9    27       P1  7948  1.00
      P1  H  7989  7998       L1    12  0.06

> <Gold.Chemscore.Hbond.Weighted>
-6.8396

> <Gold.Chemscore.Metal.Weighted>
-0.0000

> <Gold.Chemscore.Lipo.Weighted>
-5.5748

> <Gold.Chemscore.Internal_Hbond.Weighted>
0.0000

> <Gold.Chemscore.DEClash.Weighted>
0.0000

> <Gold.Chemscore.DEInternal.Weighted>
0.2592

> <Gold.Chemscore.Rot.Weighted>
2.5600

> <Gold.Chemscore.Internal.Correction.Weighted>
   9.000000E+99

> <Gold.Protein.RotatedTorsions>
[ 6907 6896 6895 6894 ] final -100.10 input  -60.11 | X-H torsion
[ 7974 7965 7964 7962 ] final   37.74 input  175.53 | X-H torsion
[ 8008 7997 7996 7995 ] final -107.27 input   59.86 | X-H torsion
[ 10167 10162 10161 10158 ] final  176.72 input  -65.29 | X-H torsion
[ 10718 10713 10712 10709 ] final -134.04 input   66.30 | X-H torsion
[ 10763 10752 10751 10750 ] final  -49.50 input  -60.55 | X-H torsion
[ 11005 11000 10999 10996 ] final  157.86 input  -57.11 | X-H torsion

> <Gold.Protein.ActiveResidues>
 VAL166  LYS551  ARG553  GLY616  TRP617  ASP618  TYR619  PRO620  LYS621  CYS622 
 ASP623  PHE694  ASN695  SER759  ASP760  ASP761  ALA762  ILE779  LEU786  VAL792 
 PHE793  MET794  SER795  GLU796  ALA797  LYS798  CYS799  TRP800  GLU811  SER814 

> <Gold.Protein.RotatedAtoms>
  150.7104  134.0938  159.3941 H   0  0  0  0  0  0  0  0  0  0  0  0  # atno 6907 bound_to 6896
  151.8924  135.0409  160.0508 H   0  0  0  0  0  0  0  0  0  0  0  0  # atno 6908 bound_to 6896
  152.2481  133.5156  159.5345 H   0  0  0  0  0  0  0  0  0  0  0  0  # atno 6909 bound_to 6896
  146.1115  139.5858  142.9349 H   0  0  0  0  0  0  0  0  0  0  0  0  # atno 7974 bound_to 7965
  154.9269  140.0406  157.2027 H   0  0  0  0  0  0  0  0  0  0  0  0  # atno 8008 bound_to 7997
  154.8199  140.2882  155.5772 H   0  0  0  0  0  0  0  0  0  0  0  0  # atno 8009 bound_to 7997
  156.2979  140.2521  156.3104 H   0  0  0  0  0  0  0  0  0  0  0  0  # atno 8010 bound_to 7997
  139.5225  144.2883  152.0486 H   0  0  0  0  0  0  0  0  0  0  0  0  # atno 10167 bound_to 10162
  156.2513  130.7154  151.1054 H   0  0  0  0  0  0  0  0  0  0  0  0  # atno 10718 bound_to 10713
  154.0951  135.6571  153.4859 H   0  0  0  0  0  0  0  0  0  0  0  0  # atno 10763 bound_to 10752
  153.0308  135.5212  154.7342 H   0  0  0  0  0  0  0  0  0  0  0  0  # atno 10764 bound_to 10752
  154.6477  135.2997  154.9994 H   0  0  0  0  0  0  0  0  0  0  0  0  # atno 10765 bound_to 10752
  140.1810  134.8475  157.2803 H   0  0  0  0  0  0  0  0  0  0  0  0  # atno 11005 bound_to 11000
  145.5654  141.0400  143.2203 LP  0  0  0  0  0  0  0  0  0  0  0  0  # atno 17320 bound_to 7965
  144.7516  139.7180  143.7271 LP  0  0  0  0  0  0  0  0  0  0  0  0  # atno 17321 bound_to 7965
  140.2335  144.4344  150.6290 LP  0  0  0  0  0  0  0  0  0  0  0  0  # atno 17342 bound_to 10162
  140.6339  143.2192  151.6436 LP  0  0  0  0  0  0  0  0  0  0  0  0  # atno 17343 bound_to 10162
  157.7215  131.0678  150.6114 LP  0  0  0  0  0  0  0  0  0  0  0  0  # atno 17370 bound_to 10713
  156.6195  130.4402  149.5828 LP  0  0  0  0  0  0  0  0  0  0  0  0  # atno 17371 bound_to 10713
  140.2267  134.3958  155.7540 LP  0  0  0  0  0  0  0  0  0  0  0  0  # atno 17394 bound_to 11000
  141.2223  133.7194  156.8576 LP  0  0  0  0  0  0  0  0  0  0  0  0  # atno 17395 bound_to 11000

$$$$
