AV-unprocessed.smi:2391|AV-procd|sdf|9485|dock5
  -GOLD-   2272013113D 1   1.00000     0.00000
 Structure written by MMmdl.
 34 35  0  0  0  0  0  0  0  0  2 V2000
  145.8444  128.7318  152.5813 O   0  0  0  0  0  0  0  0  0  0  0  0
  146.7251  129.1390  151.8205 C   0  0  0  0  0  0  0  0  0  0  0  0
  147.5026  128.3781  151.0152 N   0  5  0  0  0  0  0  0  0  0  0  0
  147.9423  127.1811  151.4320 C   0  0  0  0  0  0  0  0  0  0  0  0
  148.6726  126.3458  150.5571 C   0  0  0  0  0  0  0  0  0  0  0  0
  149.1074  125.0967  151.0308 C   0  0  0  0  0  0  0  0  0  0  0  0
  148.7757  124.7617  152.3542 C   0  0  0  0  0  0  0  0  0  0  0  0
  148.0677  125.5867  153.1553 N   0  0  0  0  0  0  0  0  0  0  0  0
  147.6579  126.7742  152.6953 N   0  0  0  0  0  0  0  0  0  0  0  0
  146.9906  130.4508  151.7402 N   0  0  0  0  0  0  0  0  0  0  0  0
  146.3218  131.5250  152.4777 C   0  0  2  0  0  0  0  0  0  0  0  0
  145.7279  132.5348  151.4624 C   0  0  0  0  0  0  0  0  0  0  0  0
  144.7269  133.5391  152.0487 C   0  0  0  0  0  0  0  0  0  0  0  0
  143.8910  134.0386  150.8639 C   0  0  0  0  0  0  0  0  0  0  0  0
  144.0797  133.0139  149.7373 C   0  0  0  0  0  0  0  0  0  0  0  0
  144.9223  131.8826  150.3310 C   0  0  0  0  0  0  0  0  0  0  0  0
  147.3133  132.1597  153.4834 C   0  0  0  0  0  0  0  0  0  0  0  0
  148.2595  132.8427  152.8381 F   0  0  0  0  0  0  0  0  0  0  0  0
  146.6758  132.9915  154.3084 F   0  0  0  0  0  0  0  0  0  0  0  0
  147.9220  131.2207  154.2065 F   0  0  0  0  0  0  0  0  0  0  0  0
  148.8972  126.6578  149.5475 H   0  0  0  0  0  0  0  0  0  0  0  0
  149.6725  124.4235  150.4039 H   0  0  0  0  0  0  0  0  0  0  0  0
  149.0807  123.8164  152.7779 H   0  0  0  0  0  0  0  0  0  0  0  0
  147.7242  130.7308  151.1060 H   0  0  0  0  0  0  0  0  0  0  0  0
  145.4898  131.1026  153.0440 H   0  0  0  0  0  0  0  0  0  0  0  0
  146.5430  133.0988  151.0058 H   0  0  0  0  0  0  0  0  0  0  0  0
  144.0744  133.0368  152.7643 H   0  0  0  0  0  0  0  0  0  0  0  0
  145.2170  134.3614  152.5701 H   0  0  0  0  0  0  0  0  0  0  0  0
  142.8419  134.1427  151.1429 H   0  0  0  0  0  0  0  0  0  0  0  0
  144.2391  135.0193  150.5370 H   0  0  0  0  0  0  0  0  0  0  0  0
  143.1288  132.6477  149.3488 H   0  0  0  0  0  0  0  0  0  0  0  0
  144.6153  133.4771  148.9079 H   0  0  0  0  0  0  0  0  0  0  0  0
  145.5561  131.4070  149.5817 H   0  0  0  0  0  0  0  0  0  0  0  0
  144.2644  131.1140  150.7398 H   0  0  0  0  0  0  0  0  0  0  0  0
  1  2  2  0  0  0  0
  2  3  1  0  0  0  0
  2 10  1  0  0  0  0
  3  4  1  0  0  0  0
  4  9  1  0  0  0  0
  4  5  2  0  0  0  0
  5  6  1  0  0  0  0
  5 21  1  0  0  0  0
  6  7  2  0  0  0  0
  6 22  1  0  0  0  0
  7  8  1  0  0  0  0
  7 23  1  0  0  0  0
  8  9  2  0  0  0  0
 10 11  1  0  0  0  0
 10 24  1  0  0  0  0
 11 12  1  0  0  0  0
 11 17  1  0  0  0  0
 11 25  1  0  0  0  0
 12 16  1  0  0  0  0
 12 13  1  0  0  0  0
 12 26  1  0  0  0  0
 13 14  1  0  0  0  0
 13 27  1  0  0  0  0
 13 28  1  0  0  0  0
 14 15  1  0  0  0  0
 14 29  1  0  0  0  0
 14 30  1  0  0  0  0
 15 16  1  0  0  0  0
 15 31  1  0  0  0  0
 15 32  1  0  0  0  0
 16 33  1  0  0  0  0
 16 34  1  0  0  0  0
 17 18  1  0  0  0  0
 17 19  1  0  0  0  0
 17 20  1  0  0  0  0
M  CHG  1   3  -1
M  END
> <s_m_source_file>
AV-unprocessed.smi

> <i_m_source_file_index>
2391

> <i_lp_mmshare_version>
43012

> <i_f3d_flags>
0

> <s_epik_input>
W0NIMl0xW0NIMl1bQ0gyXVtDSDJdW0NIXTFbQ0BIXShDKEYpKEYpRilbTkhdQyg9TylbTkhdYzJbY0hdW2NIXVtjSF1ubjI=

> <s_epik_cmdline>
J2VwaWtfcHl0aG9uJywgJy1waCcsICc3LjAnLCAnLXRuJywgJzgnLCAnLW1hJywgJzIwMCcsICctbWV0YWxfYmluZGluZycsICctaW1hZScsICc8aW5maWxlLm1hZT4nLCAnLW9tYWUnLCAnPG91dGZpbGUubWFlPic=

> <r_lp_tautomer_probability>
1

> <r_epik_Ionization_Penalty>
8.90766

> <r_epik_Ionization_Penalty_Charging>
5.82661

> <r_epik_Ionization_Penalty_Neutral>
3.08106

> <r_epik_State_Penalty>
5.83894

> <r_epik_Charging_Adjusted_Penalty>
11.6655

> <i_epik_Tot_Q>
-1

> <i_epik_Tot_abs_Q>
1

> <r_epik_Metal_State_Penalty>
1.80768

> <b_epik_Metal_Only>
1

> <s_lp_Force_Field>
OPLS_2005

> <r_lp_Energy>
28.0244

> <b_lp_Chiralities_Consistent>
1

> <s_lp_Variant>
AV-unprocessed.smi:2391-5

> <Gold.Version>
5.8.1

> <Gold.Id.Protein>
6NUR|6NUR_protein|mol2

> <Gold.PLP.Fitness>
40.7200

> <Gold.PLP.PLP>
-38.4586

> <Gold.PLP.part.hbond>
-2.3752

> <Gold.PLP.part.metal>
0.0000

> <Gold.PLP.part.buried>
-7.1203

> <Gold.PLP.part.nonpolar>
-30.8456

> <Gold.PLP.part.repulsive>
1.1536

> <Gold.PLP.ligand.clash>
0.0000

> <Gold.PLP.ligand.torsion>
0.5648

> <Gold.PLP.Chemscore.Hbond>
1.0000

> <Gold.PLP.Chemscore.CHOScore>
0.0000

> <Gold.PLP.Chemscore.Metal>
0.0000

> <Gold.Chemscore.Hbonds>
donor molecule, donor type, donor heavy atom, donor atom, acceptor molecule, acceptor atom, score
      L1  H    10    24       P1 10747  0.93

> <Gold.PLP.Chemscore.Internal.Correction>
0.3910

> <Gold.Rescore>
     Score         DG    S(hbond)    S(metal)    S(lipo)     H(rot)  DE(clash)    DE(int)     intcor
     10.06     -13.01       1.00        0.00      64.69       1.32       0.08       2.87       ----

> <Gold.Chemscore.Fitness>
10.0556

> <Gold.Chemscore.DG>
-13.0074

> <Gold.Chemscore.ZeroCoef>
-5.4800

> <Gold.Chemscore.Hbond>
0.9975

> <Gold.Chemscore.Metal>
0.0000

> <Gold.Chemscore.Lipo>
64.6949

> <Gold.Chemscore.Internal_Hbond>
0.0000

> <Gold.Chemscore.DEClash>
0.0791

> <Gold.Chemscore.DEInternal>
2.8727

> <Gold.Chemscore.Rot>
1.3179

> <Gold.Chemscore.Internal.Correction>
   9.000000E+99

> <Gold.Chemscore.Hbonds>
donor molecule, donor type, donor heavy atom, donor atom, acceptor molecule, acceptor atom, score
      L1  H    10    24       P1 10747  0.89

> <Gold.Chemscore.Hbond.Weighted>
-3.3318

> <Gold.Chemscore.Metal.Weighted>
-0.0000

> <Gold.Chemscore.Lipo.Weighted>
-7.5693

> <Gold.Chemscore.Internal_Hbond.Weighted>
0.0000

> <Gold.Chemscore.DEClash.Weighted>
0.0791

> <Gold.Chemscore.DEInternal.Weighted>
2.8727

> <Gold.Chemscore.Rot.Weighted>
3.3737

> <Gold.Chemscore.Internal.Correction.Weighted>
   9.000000E+99

> <Gold.Protein.RotatedTorsions>
[ 6907 6896 6895 6894 ] final  117.89 input  -60.11 | X-H torsion
[ 7974 7965 7964 7962 ] final  -69.47 input  175.53 | X-H torsion
[ 8008 7997 7996 7995 ] final  166.08 input   59.86 | X-H torsion
[ 10167 10162 10161 10158 ] final    0.95 input  -65.29 | X-H torsion
[ 10718 10713 10712 10709 ] final -118.03 input   66.30 | X-H torsion
[ 10763 10752 10751 10750 ] final   88.27 input  -60.55 | X-H torsion
[ 11005 11000 10999 10996 ] final  -43.21 input  -57.11 | X-H torsion

> <Gold.Protein.ActiveResidues>
 VAL166  LYS551  ARG553  GLY616  TRP617  ASP618  TYR619  PRO620  LYS621  CYS622 
 ASP623  PHE694  ASN695  SER759  ASP760  ASP761  ALA762  ILE779  LEU786  VAL792 
 PHE793  MET794  SER795  GLU796  ALA797  LYS798  CYS799  TRP800  GLU811  SER814 

> <Gold.Protein.RotatedAtoms>
  152.4581  133.7765  159.6826 H   0  0  0  0  0  0  0  0  0  0  0  0  # atno 6907 bound_to 6896
  150.8514  133.7771  159.3030 H   0  0  0  0  0  0  0  0  0  0  0  0  # atno 6908 bound_to 6896
  151.5365  135.1071  159.9967 H   0  0  0  0  0  0  0  0  0  0  0  0  # atno 6909 bound_to 6896
  145.7033  140.9108  143.0719 H   0  0  0  0  0  0  0  0  0  0  0  0  # atno 7974 bound_to 7965
  156.1748  140.1653  156.8382 H   0  0  0  0  0  0  0  0  0  0  0  0  # atno 8008 bound_to 7997
  154.5295  140.0760  156.8353 H   0  0  0  0  0  0  0  0  0  0  0  0  # atno 8009 bound_to 7997
  155.3436  140.3386  155.4241 H   0  0  0  0  0  0  0  0  0  0  0  0  # atno 8010 bound_to 7997
  140.6705  143.7061  150.7913 H   0  0  0  0  0  0  0  0  0  0  0  0  # atno 10167 bound_to 10162
  156.1077  130.6223  150.9239 H   0  0  0  0  0  0  0  0  0  0  0  0  # atno 10718 bound_to 10713
  153.1752  135.4513  154.9955 H   0  0  0  0  0  0  0  0  0  0  0  0  # atno 10763 bound_to 10752
  154.7993  135.3249  154.7592 H   0  0  0  0  0  0  0  0  0  0  0  0  # atno 10764 bound_to 10752
  153.8063  135.6958  153.4902 H   0  0  0  0  0  0  0  0  0  0  0  0  # atno 10765 bound_to 10752
  141.0369  133.6796  156.2702 H   0  0  0  0  0  0  0  0  0  0  0  0  # atno 11005 bound_to 11000
  144.6962  139.8977  143.7457 LP  0  0  0  0  0  0  0  0  0  0  0  0  # atno 17320 bound_to 7965
  146.0778  139.3766  143.0483 LP  0  0  0  0  0  0  0  0  0  0  0  0  # atno 17321 bound_to 7965
  140.0746  143.5028  152.2562 LP  0  0  0  0  0  0  0  0  0  0  0  0  # atno 17342 bound_to 10162
  139.5971  144.7570  151.3259 LP  0  0  0  0  0  0  0  0  0  0  0  0  # atno 17343 bound_to 10162
  157.6255  131.0926  150.8542 LP  0  0  0  0  0  0  0  0  0  0  0  0  # atno 17370 bound_to 10713
  156.8658  130.5129  149.5300 LP  0  0  0  0  0  0  0  0  0  0  0  0  # atno 17371 bound_to 10713
  140.6306  134.5267  157.5559 LP  0  0  0  0  0  0  0  0  0  0  0  0  # atno 17394 bound_to 11000
  139.9247  134.8080  156.1105 LP  0  0  0  0  0  0  0  0  0  0  0  0  # atno 17395 bound_to 11000

$$$$
