AV-unprocessed.smi:2567|AV-procd|sdf|10084|dock2
  -GOLD-   2272014113D 1   1.00000     0.00000
 Structure written by MMmdl.
 33 34  0  0  0  0  0  0  0  0  3 V2000
  145.7109  143.5728  161.9100 C   0  0  0  0  0  0  0  0  0  0  0  0
  146.3630  144.2346  160.6824 C   0  0  0  0  0  0  0  0  0  0  0  0
  145.5099  145.4573  160.2827 C   0  0  0  0  0  0  0  0  0  0  0  0
  147.7836  144.7254  161.0167 C   0  0  0  0  0  0  0  0  0  0  0  0
  146.4258  143.2292  159.5363 C   0  0  0  0  0  0  0  0  0  0  0  0
  146.1163  141.9214  159.6263 N   0  5  0  0  0  0  0  0  0  0  0  0
  146.2764  141.3351  158.4584 N   0  0  0  0  0  0  0  0  0  0  0  0
  146.6843  142.3055  157.6285 C   0  0  0  0  0  0  0  0  0  0  0  0
  147.0368  142.0944  156.1710 C   0  0  2  0  0  0  0  0  0  0  0  0
  145.8057  141.6372  155.3645 C   0  0  0  0  0  0  0  0  0  0  0  0
  146.1718  141.4227  153.9512 N   0  3  0  0  0  0  0  0  0  0  0  0
  147.3034  140.4849  153.8199 C   0  0  0  0  0  0  0  0  0  0  0  0
  148.4893  140.9691  154.6706 C   0  0  0  0  0  0  0  0  0  0  0  0
  148.0738  141.1259  156.0223 O   0  0  0  0  0  0  0  0  0  0  0  0
  146.7940  143.4715  158.2796 N   0  0  0  0  0  0  0  0  0  0  0  0
  145.6405  144.2683  162.7470 H   0  0  0  0  0  0  0  0  0  0  0  0
  146.2867  142.7109  162.2488 H   0  0  0  0  0  0  0  0  0  0  0  0
  144.7026  143.2253  161.6825 H   0  0  0  0  0  0  0  0  0  0  0  0
  144.4885  145.1667  160.0341 H   0  0  0  0  0  0  0  0  0  0  0  0
  145.9275  145.9682  159.4144 H   0  0  0  0  0  0  0  0  0  0  0  0
  145.4534  146.1848  161.0931 H   0  0  0  0  0  0  0  0  0  0  0  0
  147.7720  145.4529  161.8287 H   0  0  0  0  0  0  0  0  0  0  0  0
  148.2520  145.1999  160.1536 H   0  0  0  0  0  0  0  0  0  0  0  0
  148.4262  143.9005  161.3266 H   0  0  0  0  0  0  0  0  0  0  0  0
  147.3943  143.0501  155.7831 H   0  0  0  0  0  0  0  0  0  0  0  0
  145.4054  140.7093  155.7761 H   0  0  0  0  0  0  0  0  0  0  0  0
  145.0114  142.3825  155.4186 H   0  0  0  0  0  0  0  0  0  0  0  0
  145.3736  141.0618  153.4485 H   0  0  0  0  0  0  0  0  0  0  0  0
  146.9869  139.4929  154.1448 H   0  0  0  0  0  0  0  0  0  0  0  0
  147.5888  140.4052  152.7708 H   0  0  0  0  0  0  0  0  0  0  0  0
  149.3011  140.2425  154.6323 H   0  0  0  0  0  0  0  0  0  0  0  0
  148.8859  141.9110  154.2883 H   0  0  0  0  0  0  0  0  0  0  0  0
  146.4398  142.3109  153.5520 H   0  0  0  0  0  0  0  0  0  0  0  0
  1  2  1  0  0  0  0
  1 16  1  0  0  0  0
  1 17  1  0  0  0  0
  1 18  1  0  0  0  0
  2  3  1  0  0  0  0
  2  4  1  0  0  0  0
  2  5  1  0  0  0  0
  3 19  1  0  0  0  0
  3 20  1  0  0  0  0
  3 21  1  0  0  0  0
  4 22  1  0  0  0  0
  4 23  1  0  0  0  0
  4 24  1  0  0  0  0
  5 15  2  0  0  0  0
  5  6  1  0  0  0  0
  6  7  1  0  0  0  0
  7  8  2  0  0  0  0
  8  9  1  0  0  0  0
  8 15  1  0  0  0  0
  9 14  1  0  0  0  0
  9 10  1  0  0  0  0
  9 25  1  0  0  0  0
 10 11  1  0  0  0  0
 10 26  1  0  0  0  0
 10 27  1  0  0  0  0
 11 12  1  0  0  0  0
 11 28  1  0  0  0  0
 11 33  1  0  0  0  0
 12 13  1  0  0  0  0
 12 29  1  0  0  0  0
 12 30  1  0  0  0  0
 13 14  1  0  0  0  0
 13 31  1  0  0  0  0
 13 32  1  0  0  0  0
M  CHG  1   6  -1
M  CHG  1  11   1
M  END
> <s_m_source_file>
AV-unprocessed.smi

> <i_m_source_file_index>
2567

> <i_lp_mmshare_version>
43012

> <i_f3d_flags>
0

> <s_epik_input>
W0NIM11DKFtDSDNdKShbQ0gzXSljMW5bbkhdYyhuMSlbQ0BASF0yW0NIMl1bTkhdW0NIMl1bQ0gyXU8y

> <s_epik_cmdline>
J2VwaWtfcHl0aG9uJywgJy1waCcsICc3LjAnLCAnLXRuJywgJzgnLCAnLW1hJywgJzIwMCcsICctbWV0YWxfYmluZGluZycsICctaW1hZScsICc8aW5maWxlLm1hZT4nLCAnLW9tYWUnLCAnPG91dGZpbGUubWFlPic=

> <r_lp_tautomer_probability>
0.948284

> <r_epik_Ionization_Penalty>
5.01189

> <r_epik_Ionization_Penalty_Charging>
5.01189

> <r_epik_Ionization_Penalty_Neutral>
8.99859e-14

> <r_epik_State_Penalty>
2.75157

> <r_epik_Charging_Adjusted_Penalty>
7.76346

> <i_epik_Tot_Q>
0

> <i_epik_Tot_abs_Q>
2

> <r_epik_Metal_State_Penalty>
0.54282

> <b_epik_Metal_Only>
1

> <s_lp_Force_Field>
OPLS_2005

> <r_lp_Energy>
6.85935

> <b_lp_Chiralities_Consistent>
1

> <s_lp_Variant>
AV-unprocessed.smi:2567-9

> <Gold.Version>
5.8.1

> <Gold.Id.Protein>
6NUR|6NUR_protein|mol2

> <Gold.PLP.Fitness>
33.1742

> <Gold.PLP.PLP>
-21.4405

> <Gold.PLP.part.hbond>
-2.8382

> <Gold.PLP.part.metal>
0.0000

> <Gold.PLP.part.buried>
-4.8328

> <Gold.PLP.part.nonpolar>
-15.8476

> <Gold.PLP.part.repulsive>
1.8951

> <Gold.PLP.ligand.clash>
0.0000

> <Gold.PLP.ligand.torsion>
0.1410

> <Gold.PLP.Chemscore.Hbond>
4.0000

> <Gold.PLP.Chemscore.CHOScore>
0.0000

> <Gold.PLP.Chemscore.Metal>
0.0000

> <Gold.Chemscore.Hbonds>
donor molecule, donor type, donor heavy atom, donor atom, acceptor molecule, acceptor atom, score
      L1  H    11    28       P1 10175  2.00
      P1  H  6934  6946       L1     6  2.00

> <Gold.PLP.Chemscore.Internal.Correction>
0.0159

> <Gold.Rescore>
     Score         DG    S(hbond)    S(metal)    S(lipo)     H(rot)  DE(clash)    DE(int)     intcor
     12.62     -12.68       1.69        0.00      40.63       1.25       0.00       0.06       ----

> <Gold.Chemscore.Fitness>
12.6170

> <Gold.Chemscore.DG>
-12.6789

> <Gold.Chemscore.ZeroCoef>
-5.4800

> <Gold.Chemscore.Hbond>
1.6892

> <Gold.Chemscore.Metal>
0.0000

> <Gold.Chemscore.Lipo>
40.6277

> <Gold.Chemscore.Internal_Hbond>
0.0000

> <Gold.Chemscore.DEClash>
0.0000

> <Gold.Chemscore.DEInternal>
0.0619

> <Gold.Chemscore.Rot>
1.2486

> <Gold.Chemscore.Internal.Correction>
   9.000000E+99

> <Gold.Chemscore.Hbonds>
donor molecule, donor type, donor heavy atom, donor atom, acceptor molecule, acceptor atom, score
      L1  H    11    28       P1 10175  0.52
      P1  H  6934  6946       L1     6  0.39

> <Gold.Chemscore.Hbond.Weighted>
-5.6419

> <Gold.Chemscore.Metal.Weighted>
-0.0000

> <Gold.Chemscore.Lipo.Weighted>
-4.7534

> <Gold.Chemscore.Internal_Hbond.Weighted>
0.0000

> <Gold.Chemscore.DEClash.Weighted>
0.0000

> <Gold.Chemscore.DEInternal.Weighted>
0.0619

> <Gold.Chemscore.Rot.Weighted>
3.1964

> <Gold.Chemscore.Internal.Correction.Weighted>
   9.000000E+99

> <Gold.Protein.RotatedTorsions>
[ 6907 6896 6895 6894 ] final   72.64 input  -60.11 | X-H torsion
[ 7974 7965 7964 7962 ] final  114.18 input  175.53 | X-H torsion
[ 8008 7997 7996 7995 ] final -177.55 input   59.86 | X-H torsion
[ 10167 10162 10161 10158 ] final  110.27 input  -65.29 | X-H torsion
[ 10718 10713 10712 10709 ] final  -69.09 input   66.30 | X-H torsion
[ 10763 10752 10751 10750 ] final -149.70 input  -60.55 | X-H torsion
[ 11005 11000 10999 10996 ] final -109.91 input  -57.11 | X-H torsion

> <Gold.Protein.ActiveResidues>
 VAL166  LYS551  ARG553  GLY616  TRP617  ASP618  TYR619  PRO620  LYS621  CYS622 
 ASP623  PHE694  ASN695  SER759  ASP760  ASP761  ALA762  ILE779  LEU786  VAL792 
 PHE793  MET794  SER795  GLU796  ALA797  LYS798  CYS799  TRP800  GLU811  SER814 

> <Gold.Protein.RotatedAtoms>
  152.4879  134.4541  159.9583 H   0  0  0  0  0  0  0  0  0  0  0  0  # atno 6907 bound_to 6896
  151.4534  133.3605  159.2806 H   0  0  0  0  0  0  0  0  0  0  0  0  # atno 6908 bound_to 6896
  150.9006  134.8442  159.7418 H   0  0  0  0  0  0  0  0  0  0  0  0  # atno 6909 bound_to 6896
  145.2076  139.2922  143.4285 H   0  0  0  0  0  0  0  0  0  0  0  0  # atno 7974 bound_to 7965
  156.0082  140.1235  157.0480 H   0  0  0  0  0  0  0  0  0  0  0  0  # atno 8008 bound_to 7997
  154.4266  140.1093  156.5862 H   0  0  0  0  0  0  0  0  0  0  0  0  # atno 8009 bound_to 7997
  155.6117  140.3471  155.4626 H   0  0  0  0  0  0  0  0  0  0  0  0  # atno 8010 bound_to 7997
  139.6701  144.7125  151.1704 H   0  0  0  0  0  0  0  0  0  0  0  0  # atno 10167 bound_to 10162
  156.0473  130.4306  150.2096 H   0  0  0  0  0  0  0  0  0  0  0  0  # atno 10718 bound_to 10713
  154.8162  135.3302  154.7170 H   0  0  0  0  0  0  0  0  0  0  0  0  # atno 10763 bound_to 10752
  153.7810  135.6918  153.4893 H   0  0  0  0  0  0  0  0  0  0  0  0  # atno 10764 bound_to 10752
  153.1980  135.4526  155.0179 H   0  0  0  0  0  0  0  0  0  0  0  0  # atno 10765 bound_to 10752
  141.0821  133.9202  157.2266 H   0  0  0  0  0  0  0  0  0  0  0  0  # atno 11005 bound_to 11000
  146.3404  140.2341  142.8594 LP  0  0  0  0  0  0  0  0  0  0  0  0  # atno 17320 bound_to 7965
  144.9887  140.8527  143.5353 LP  0  0  0  0  0  0  0  0  0  0  0  0  # atno 17321 bound_to 7965
  140.7615  143.5858  150.8848 LP  0  0  0  0  0  0  0  0  0  0  0  0  # atno 17342 bound_to 10162
  139.9522  143.6259  152.3026 LP  0  0  0  0  0  0  0  0  0  0  0  0  # atno 17343 bound_to 10162
  157.0184  130.9972  151.3346 LP  0  0  0  0  0  0  0  0  0  0  0  0  # atno 17370 bound_to 10713
  157.5361  130.8090  149.7974 LP  0  0  0  0  0  0  0  0  0  0  0  0  # atno 17371 bound_to 10713
  139.9636  135.0148  156.9327 LP  0  0  0  0  0  0  0  0  0  0  0  0  # atno 17394 bound_to 11000
  140.5445  134.0687  155.7351 LP  0  0  0  0  0  0  0  0  0  0  0  0  # atno 17395 bound_to 11000

$$$$
