AV-unprocessed.smi:2591|AV-procd|sdf|10154|dock1
  -GOLD-   2272014163D 1   1.00000     0.00000
 Structure written by MMmdl.
 35 36  0  0  0  0  0  0  0  0  2 V2000
  146.6113  138.1804  154.7860 C   0  0  0  0  0  0  0  0  0  0  0  0
  147.4389  139.4051  154.7967 N   0  3  2  0  0  0  0  0  0  0  0  0
  146.8379  140.5096  154.0157 C   0  0  0  0  0  0  0  0  0  0  0  0
  147.7037  141.7748  154.1270 C   0  0  0  0  0  0  0  0  0  0  0  0
  149.0368  141.4864  153.7046 O   0  0  0  0  0  0  0  0  0  0  0  0
  149.6867  140.4469  154.4432 C   0  0  1  0  0  0  0  0  0  0  0  0
  150.0189  140.9197  155.8718 C   0  0  0  0  0  0  0  0  0  0  0  0
  149.1778  141.5279  156.5353 O   0  0  0  0  0  0  0  0  0  0  0  0
  151.2584  140.6179  156.3029 N   0  0  0  0  0  0  0  0  0  0  0  0
  151.8550  140.9267  157.5540 C   0  0  0  0  0  0  0  0  0  0  0  0
  151.4702  142.1667  158.1106 C   0  0  0  0  0  0  0  0  0  0  0  0
  152.0002  142.5704  159.3548 C   0  0  0  0  0  0  0  0  0  0  0  0
  151.6017  143.9060  159.9634 C   0  0  0  0  0  0  0  0  0  0  0  0
  152.0580  144.0300  161.2101 F   0  0  0  0  0  0  0  0  0  0  0  0
  152.1038  144.8935  159.2229 F   0  0  0  0  0  0  0  0  0  0  0  0
  150.2736  144.0203  159.9892 F   0  0  0  0  0  0  0  0  0  0  0  0
  152.9133  141.7123  160.0017 C   0  0  0  0  0  0  0  0  0  0  0  0
  153.2433  140.4954  159.3779 C   0  0  0  0  0  0  0  0  0  0  0  0
  152.7298  140.1103  158.1911 N   0  0  0  0  0  0  0  0  0  0  0  0
  148.8357  139.1559  154.3673 C   0  0  0  0  0  0  0  0  0  0  0  0
  146.5153  137.7801  153.7759 H   0  0  0  0  0  0  0  0  0  0  0  0
  145.6117  138.3893  155.1685 H   0  0  0  0  0  0  0  0  0  0  0  0
  147.0560  137.4114  155.4187 H   0  0  0  0  0  0  0  0  0  0  0  0
  146.7447  140.2114  152.9701 H   0  0  0  0  0  0  0  0  0  0  0  0
  145.8316  140.7169  154.3815 H   0  0  0  0  0  0  0  0  0  0  0  0
  147.2990  142.5601  153.4884 H   0  0  0  0  0  0  0  0  0  0  0  0
  147.6899  142.1666  155.1449 H   0  0  0  0  0  0  0  0  0  0  0  0
  150.6409  140.2516  153.9521 H   0  0  0  0  0  0  0  0  0  0  0  0
  151.8451  140.1112  155.6560 H   0  0  0  0  0  0  0  0  0  0  0  0
  150.7746  142.8087  157.5896 H   0  0  0  0  0  0  0  0  0  0  0  0
  153.3558  141.9740  160.9515 H   0  0  0  0  0  0  0  0  0  0  0  0
  153.9391  139.8132  159.8432 H   0  0  0  0  0  0  0  0  0  0  0  0
  149.2778  138.3706  154.9824 H   0  0  0  0  0  0  0  0  0  0  0  0
  148.8340  138.7810  153.3426 H   0  0  0  0  0  0  0  0  0  0  0  0
  147.4830  139.7158  155.7574 H   0  0  0  0  0  0  0  0  0  0  0  0
  1  2  1  0  0  0  0
  1 21  1  0  0  0  0
  1 22  1  0  0  0  0
  1 23  1  0  0  0  0
  2 20  1  0  0  0  0
  2  3  1  0  0  0  0
  2 35  1  0  0  0  0
  3  4  1  0  0  0  0
  3 24  1  0  0  0  0
  3 25  1  0  0  0  0
  4  5  1  0  0  0  0
  4 26  1  0  0  0  0
  4 27  1  0  0  0  0
  5  6  1  0  0  0  0
  6  7  1  0  0  0  0
  6 20  1  0  0  0  0
  6 28  1  0  0  0  0
  7  8  2  0  0  0  0
  7  9  1  0  0  0  0
  9 10  1  0  0  0  0
  9 29  1  0  0  0  0
 10 19  1  0  0  0  0
 10 11  2  0  0  0  0
 11 12  1  0  0  0  0
 11 30  1  0  0  0  0
 12 13  1  0  0  0  0
 12 17  2  0  0  0  0
 13 14  1  0  0  0  0
 13 15  1  0  0  0  0
 13 16  1  0  0  0  0
 17 18  1  0  0  0  0
 17 31  1  0  0  0  0
 18 19  2  0  0  0  0
 18 32  1  0  0  0  0
 20 33  1  0  0  0  0
 20 34  1  0  0  0  0
M  CHG  1   2   1
M  END
> <s_m_source_file>
AV-unprocessed.smi

> <i_m_source_file_index>
2591

> <i_lp_mmshare_version>
43012

> <i_f3d_flags>
0

> <s_epik_input>
W0NIM11OMVtDSDJdW0NIMl1PW0NASF0oW0NIMl0xKUMoPU8pW05IXWMyW2NIXWMoQyhGKShGKUYpW2NIXVtjSF1uMg==

> <s_epik_cmdline>
J2VwaWtfcHl0aG9uJywgJy1waCcsICc3LjAnLCAnLXRuJywgJzgnLCAnLW1hJywgJzIwMCcsICctbWV0YWxfYmluZGluZycsICctaW1hZScsICc8aW5maWxlLm1hZT4nLCAnLW9tYWUnLCAnPG91dGZpbGUubWFlPic=

> <r_epik_Ionization_Penalty>
0.314028

> <r_epik_Ionization_Penalty_Charging>
0.314023

> <r_epik_Ionization_Penalty_Neutral>
5.2303e-06

> <r_epik_State_Penalty>
0.308208

> <r_epik_Charging_Adjusted_Penalty>
0.62223

> <i_epik_Tot_Q>
1

> <i_epik_Tot_abs_Q>
1

> <r_epik_Metal_State_Penalty>
0.308209

> <b_epik_Metal_Only>
0

> <s_lp_Force_Field>
OPLS_2005

> <r_lp_Energy>
16.4571

> <b_lp_Chiralities_Consistent>
1

> <s_lp_Variant>
AV-unprocessed.smi:2591-2

> <Gold.Version>
5.8.1

> <Gold.Id.Protein>
6NUR|6NUR_protein|mol2

> <Gold.PLP.Fitness>
43.7979

> <Gold.PLP.PLP>
-40.4747

> <Gold.PLP.part.hbond>
-2.7331

> <Gold.PLP.part.metal>
0.0000

> <Gold.PLP.part.buried>
-4.7490

> <Gold.PLP.part.nonpolar>
-33.1286

> <Gold.PLP.part.repulsive>
1.7900

> <Gold.PLP.ligand.clash>
0.0000

> <Gold.PLP.ligand.torsion>
0.9161

> <Gold.PLP.Chemscore.Hbond>
1.6299

> <Gold.PLP.Chemscore.CHOScore>
0.0000

> <Gold.PLP.Chemscore.Metal>
0.0000

> <Gold.Chemscore.Hbonds>
donor molecule, donor type, donor heavy atom, donor atom, acceptor molecule, acceptor atom, score
      P1  H  7997  8009       L1    19  0.62
      P1  H  8011  8017       L1     5  0.77

> <Gold.PLP.Chemscore.Internal.Correction>
0.2657

> <Gold.Rescore>
     Score         DG    S(hbond)    S(metal)    S(lipo)     H(rot)  DE(clash)    DE(int)     intcor
     10.50     -15.27       1.07        0.00      74.89       1.00       1.08       3.68       ----

> <Gold.Chemscore.Fitness>
10.5047

> <Gold.Chemscore.DG>
-15.2664

> <Gold.Chemscore.ZeroCoef>
-5.4800

> <Gold.Chemscore.Hbond>
1.0732

> <Gold.Chemscore.Metal>
0.0000

> <Gold.Chemscore.Lipo>
74.8888

> <Gold.Chemscore.Internal_Hbond>
0.0000

> <Gold.Chemscore.DEClash>
1.0796

> <Gold.Chemscore.DEInternal>
3.6821

> <Gold.Chemscore.Rot>
1.0000

> <Gold.Chemscore.Internal.Correction>
   9.000000E+99

> <Gold.Chemscore.Hbonds>
donor molecule, donor type, donor heavy atom, donor atom, acceptor molecule, acceptor atom, score
      P1  H  7997  8009       L1    19  0.10
      P1  H  8011  8017       L1     5  0.76

> <Gold.Chemscore.Hbond.Weighted>
-3.5844

> <Gold.Chemscore.Metal.Weighted>
-0.0000

> <Gold.Chemscore.Lipo.Weighted>
-8.7620

> <Gold.Chemscore.Internal_Hbond.Weighted>
0.0000

> <Gold.Chemscore.DEClash.Weighted>
1.0796

> <Gold.Chemscore.DEInternal.Weighted>
3.6821

> <Gold.Chemscore.Rot.Weighted>
2.5600

> <Gold.Chemscore.Internal.Correction.Weighted>
   9.000000E+99

> <Gold.Protein.RotatedTorsions>
[ 6907 6896 6895 6894 ] final  139.41 input  -60.11 | X-H torsion
[ 7974 7965 7964 7962 ] final   17.46 input  175.53 | X-H torsion
[ 8008 7997 7996 7995 ] final  159.45 input   59.86 | X-H torsion
[ 10167 10162 10161 10158 ] final -168.44 input  -65.29 | X-H torsion
[ 10718 10713 10712 10709 ] final  172.96 input   66.30 | X-H torsion
[ 10763 10752 10751 10750 ] final  -90.57 input  -60.55 | X-H torsion
[ 11005 11000 10999 10996 ] final  169.91 input  -57.11 | X-H torsion

> <Gold.Protein.ActiveResidues>
 VAL166  LYS551  ARG553  GLY616  TRP617  ASP618  TYR619  PRO620  LYS621  CYS622 
 ASP623  PHE694  ASN695  SER759  ASP760  ASP761  ALA762  ILE779  LEU786  VAL792 
 PHE793  MET794  SER795  GLU796  ALA797  LYS798  CYS799  TRP800  GLU811  SER814 

> <Gold.Protein.RotatedAtoms>
  152.2552  133.5249  159.5348 H   0  0  0  0  0  0  0  0  0  0  0  0  # atno 6907 bound_to 6896
  150.7107  134.0905  159.3939 H   0  0  0  0  0  0  0  0  0  0  0  0  # atno 6908 bound_to 6896
  151.8824  135.0448  160.0541 H   0  0  0  0  0  0  0  0  0  0  0  0  # atno 6909 bound_to 6896
  146.2218  139.8600  142.8606 H   0  0  0  0  0  0  0  0  0  0  0  0  # atno 7974 bound_to 7965
  156.2238  140.1831  156.7414 H   0  0  0  0  0  0  0  0  0  0  0  0  # atno 8008 bound_to 7997
  154.5907  140.0651  156.9263 H   0  0  0  0  0  0  0  0  0  0  0  0  # atno 8009 bound_to 7997
  155.2341  140.3317  155.4302 H   0  0  0  0  0  0  0  0  0  0  0  0  # atno 8010 bound_to 7997
  139.5985  144.1061  152.1716 H   0  0  0  0  0  0  0  0  0  0  0  0  # atno 10167 bound_to 10162
  156.9713  131.0091  151.2904 H   0  0  0  0  0  0  0  0  0  0  0  0  # atno 10718 bound_to 10713
  154.6671  135.5299  153.8091 H   0  0  0  0  0  0  0  0  0  0  0  0  # atno 10763 bound_to 10752
  153.0478  135.6520  154.0782 H   0  0  0  0  0  0  0  0  0  0  0  0  # atno 10764 bound_to 10752
  154.0685  135.2956  155.3292 H   0  0  0  0  0  0  0  0  0  0  0  0  # atno 10765 bound_to 10752
  140.3028  134.7581  157.3929 H   0  0  0  0  0  0  0  0  0  0  0  0  # atno 11005 bound_to 11000
  145.2714  141.0110  143.3769 LP  0  0  0  0  0  0  0  0  0  0  0  0  # atno 17320 bound_to 7965
  144.9220  139.4400  143.6536 LP  0  0  0  0  0  0  0  0  0  0  0  0  # atno 17321 bound_to 7965
  140.0651  144.5825  150.7233 LP  0  0  0  0  0  0  0  0  0  0  0  0  # atno 17342 bound_to 10162
  140.7231  143.2608  151.4212 LP  0  0  0  0  0  0  0  0  0  0  0  0  # atno 17343 bound_to 10162
  157.5590  130.8233  149.8242 LP  0  0  0  0  0  0  0  0  0  0  0  0  # atno 17370 bound_to 10713
  156.0281  130.3773  150.1764 LP  0  0  0  0  0  0  0  0  0  0  0  0  # atno 17371 bound_to 10713
  140.1094  134.5366  155.8280 LP  0  0  0  0  0  0  0  0  0  0  0  0  # atno 17394 bound_to 11000
  141.2124  133.6720  156.6661 LP  0  0  0  0  0  0  0  0  0  0  0  0  # atno 17395 bound_to 11000

$$$$
