AV-unprocessed.smi:2829|AV-procd|sdf|10900|dock7
  -GOLD-   2272015343D 1   1.00000     0.00000
 Structure written by MMmdl.
 50 53  0  0  0  0  0  0  0  0  1 V2000
  150.6525  143.1077  158.4136 C   0  0  0  0  0  0  0  0  0  0  0  0
  151.5725  144.0501  159.2171 C   0  0  0  0  0  0  0  0  0  0  0  0
  152.4526  144.8722  158.2526 C   0  0  0  0  0  0  0  0  0  0  0  0
  150.6669  145.0431  159.9805 C   0  0  0  0  0  0  0  0  0  0  0  0
  152.4660  143.2237  160.1596 C   0  0  0  0  0  0  0  0  0  0  0  0
  152.3734  143.2882  161.5683 C   0  0  0  0  0  0  0  0  0  0  0  0
  153.2433  142.4794  162.3187 C   0  0  0  0  0  0  0  0  0  0  0  0
  154.1544  141.6538  161.6303 C   0  0  0  0  0  0  0  0  0  0  0  0
  154.9924  140.8581  162.4526 N   0  0  0  0  0  0  0  0  0  0  0  0
  155.5275  139.6516  162.1806 C   0  0  0  0  0  0  0  0  0  0  0  0
  155.4436  139.0746  161.0982 O   0  0  0  0  0  0  0  0  0  0  0  0
  156.1898  139.1029  163.2144 N   0  0  0  0  0  0  0  0  0  0  0  0
  156.8783  137.8117  163.2431 C   0  0  2  0  0  0  0  0  0  0  0  0
  157.7314  137.5746  161.9825 C   0  0  1  0  0  0  0  0  0  0  0  0
  159.2262  137.4447  162.1012 C   0  0  0  0  0  0  0  0  0  0  0  0
  159.4377  135.9281  162.1171 C   0  0  0  0  0  0  0  0  0  0  0  0
  158.1875  135.3948  162.5469 O   0  0  0  0  0  0  0  0  0  0  0  0
  157.1597  136.1625  161.9279 C   0  0  1  0  0  0  0  0  0  0  0  0
  156.0101  136.5978  162.8448 C   0  0  0  0  0  0  0  0  0  0  0  0
  154.5858  136.7319  162.2723 C   0  0  0  0  0  0  0  0  0  0  0  0
  154.0389  136.1887  163.5949 C   0  0  0  0  0  0  0  0  0  0  0  0
  155.4370  135.6443  163.9031 C   0  0  0  0  0  0  0  0  0  0  0  0
  154.1904  141.6429  160.2744 N   0  0  0  0  0  0  0  0  0  0  0  0
  153.3656  142.4095  159.5550 N   0  0  0  0  0  0  0  0  0  0  0  0
  149.9932  143.6670  157.7491 H   0  0  0  0  0  0  0  0  0  0  0  0
  150.0233  142.5108  159.0749 H   0  0  0  0  0  0  0  0  0  0  0  0
  151.2232  142.4171  157.7916 H   0  0  0  0  0  0  0  0  0  0  0  0
  153.0731  144.2319  157.6247 H   0  0  0  0  0  0  0  0  0  0  0  0
  153.1188  145.5415  158.7985 H   0  0  0  0  0  0  0  0  0  0  0  0
  151.8461  145.4847  157.5848 H   0  0  0  0  0  0  0  0  0  0  0  0
  150.0439  145.6175  159.2937 H   0  0  0  0  0  0  0  0  0  0  0  0
  151.2517  145.7615  160.5563 H   0  0  0  0  0  0  0  0  0  0  0  0
  149.9924  144.5290  160.6663 H   0  0  0  0  0  0  0  0  0  0  0  0
  151.6683  143.9246  162.0801 H   0  0  0  0  0  0  0  0  0  0  0  0
  153.2065  142.4926  163.3985 H   0  0  0  0  0  0  0  0  0  0  0  0
  155.1642  141.2212  163.3785 H   0  0  0  0  0  0  0  0  0  0  0  0
  156.2244  139.6419  164.0678 H   0  0  0  0  0  0  0  0  0  0  0  0
  157.4529  137.6261  164.1532 H   0  0  0  0  0  0  0  0  0  0  0  0
  157.3935  138.1687  161.1311 H   0  0  0  0  0  0  0  0  0  0  0  0
  159.7560  137.9150  161.2723 H   0  0  0  0  0  0  0  0  0  0  0  0
  159.5848  137.8962  163.0267 H   0  0  0  0  0  0  0  0  0  0  0  0
  159.6527  135.5605  161.1126 H   0  0  0  0  0  0  0  0  0  0  0  0
  160.2521  135.6226  162.7743 H   0  0  0  0  0  0  0  0  0  0  0  0
  156.8867  135.8261  160.9266 H   0  0  0  0  0  0  0  0  0  0  0  0
  154.2587  137.7423  162.0277 H   0  0  0  0  0  0  0  0  0  0  0  0
  154.4038  136.0488  161.4415 H   0  0  0  0  0  0  0  0  0  0  0  0
  153.7279  136.9770  164.2807 H   0  0  0  0  0  0  0  0  0  0  0  0
  153.2690  135.4245  163.4865 H   0  0  0  0  0  0  0  0  0  0  0  0
  155.5495  134.5946  163.6279 H   0  0  0  0  0  0  0  0  0  0  0  0
  155.7805  135.8326  164.9207 H   0  0  0  0  0  0  0  0  0  0  0  0
  1  2  1  0  0  0  0
  1 25  1  0  0  0  0
  1 26  1  0  0  0  0
  1 27  1  0  0  0  0
  2  3  1  0  0  0  0
  2  4  1  0  0  0  0
  2  5  1  0  0  0  0
  3 28  1  0  0  0  0
  3 29  1  0  0  0  0
  3 30  1  0  0  0  0
  4 31  1  0  0  0  0
  4 32  1  0  0  0  0
  4 33  1  0  0  0  0
  5 24  1  0  0  0  0
  5  6  2  0  0  0  0
  6  7  1  0  0  0  0
  6 34  1  0  0  0  0
  7  8  2  0  0  0  0
  7 35  1  0  0  0  0
  8  9  1  0  0  0  0
  8 23  1  0  0  0  0
  9 10  1  0  0  0  0
  9 36  1  0  0  0  0
 10 11  2  0  0  0  0
 10 12  1  0  0  0  0
 12 13  1  0  0  0  0
 12 37  1  0  0  0  0
 13 19  1  0  0  0  0
 13 14  1  0  0  0  0
 13 38  1  0  0  0  0
 14 18  1  0  0  0  0
 14 15  1  0  0  0  0
 14 39  1  0  0  0  0
 15 16  1  0  0  0  0
 15 40  1  0  0  0  0
 15 41  1  0  0  0  0
 16 17  1  0  0  0  0
 16 42  1  0  0  0  0
 16 43  1  0  0  0  0
 17 18  1  0  0  0  0
 18 19  1  0  0  0  0
 18 44  1  0  0  0  0
 19 22  1  0  0  0  0
 19 20  1  0  0  0  0
 20 21  1  0  0  0  0
 20 45  1  0  0  0  0
 20 46  1  0  0  0  0
 21 22  1  0  0  0  0
 21 47  1  0  0  0  0
 21 48  1  0  0  0  0
 22 49  1  0  0  0  0
 22 50  1  0  0  0  0
 23 24  2  0  0  0  0
M  END
> <s_m_source_file>
AV-unprocessed.smi

> <i_m_source_file_index>
2829

> <i_lp_mmshare_version>
43012

> <i_f3d_flags>
0

> <s_epik_input>
W0NIM11DKFtDSDNdKShbQ0gzXSljMVtjSF1bY0hdYyhubjEpW05IXUMoPU8pW05IXVtDQEBIXTJbQ0BIXShbQ0gyXVtDSDJdTzMpW0NAQEhdM0MyNFtDSDJdW0NIMl1bQ0gyXTQ=

> <s_epik_cmdline>
J2VwaWtfcHl0aG9uJywgJy1waCcsICc3LjAnLCAnLXRuJywgJzgnLCAnLW1hJywgJzIwMCcsICctbWV0YWxfYmluZGluZycsICctaW1hZScsICc8aW5maWxlLm1hZT4nLCAnLW9tYWUnLCAnPG91dGZpbGUubWFlPic=

> <r_lp_tautomer_probability>
1

> <r_epik_Ionization_Penalty>
0.011915

> <r_epik_Ionization_Penalty_Charging>
0

> <r_epik_Ionization_Penalty_Neutral>
0.011915

> <r_epik_State_Penalty>
0.00486223

> <r_epik_Charging_Adjusted_Penalty>
0.00486223

> <i_epik_Tot_Q>
0

> <i_epik_Tot_abs_Q>
0

> <r_epik_Metal_State_Penalty>
-0

> <b_epik_Metal_Only>
0

> <s_lp_Force_Field>
OPLS_2005

> <r_lp_Energy>
59.5843

> <b_lp_Chiralities_Consistent>
1

> <s_lp_Variant>
AV-unprocessed.smi:2829-3

> <Gold.Version>
5.8.1

> <Gold.Id.Protein>
6NUR|6NUR_protein|mol2

> <Gold.PLP.Fitness>
43.7064

> <Gold.PLP.PLP>
-44.2714

> <Gold.PLP.part.hbond>
-1.0000

> <Gold.PLP.part.metal>
0.0000

> <Gold.PLP.part.buried>
-5.4724

> <Gold.PLP.part.nonpolar>
-36.4724

> <Gold.PLP.part.repulsive>
0.0000

> <Gold.PLP.ligand.clash>
0.0000

> <Gold.PLP.ligand.torsion>
0.3802

> <Gold.PLP.Chemscore.Hbond>
0.0000

> <Gold.PLP.Chemscore.CHOScore>
0.0000

> <Gold.PLP.Chemscore.Metal>
0.0000

> <Gold.PLP.Chemscore.Internal.Correction>
0.1953

> <Gold.Rescore>
     Score         DG    S(hbond)    S(metal)    S(lipo)     H(rot)  DE(clash)    DE(int)     intcor
     12.48     -16.56       0.00        0.00     120.14       1.16       0.02       4.06       ----

> <Gold.Chemscore.Fitness>
12.4802

> <Gold.Chemscore.DG>
-16.5617

> <Gold.Chemscore.ZeroCoef>
-5.4800

> <Gold.Chemscore.Hbond>
0.0000

> <Gold.Chemscore.Metal>
0.0000

> <Gold.Chemscore.Lipo>
120.1354

> <Gold.Chemscore.Internal_Hbond>
0.0000

> <Gold.Chemscore.DEClash>
0.0237

> <Gold.Chemscore.DEInternal>
4.0578

> <Gold.Chemscore.Rot>
1.1618

> <Gold.Chemscore.Internal.Correction>
   9.000000E+99

> <Gold.Chemscore.Hbond.Weighted>
-0.0000

> <Gold.Chemscore.Metal.Weighted>
-0.0000

> <Gold.Chemscore.Lipo.Weighted>
-14.0558

> <Gold.Chemscore.Internal_Hbond.Weighted>
0.0000

> <Gold.Chemscore.DEClash.Weighted>
0.0237

> <Gold.Chemscore.DEInternal.Weighted>
4.0578

> <Gold.Chemscore.Rot.Weighted>
2.9741

> <Gold.Chemscore.Internal.Correction.Weighted>
   9.000000E+99

> <Gold.Protein.RotatedTorsions>
[ 6907 6896 6895 6894 ] final   31.57 input  -60.11 | X-H torsion
[ 7974 7965 7964 7962 ] final -121.59 input  175.53 | X-H torsion
[ 8008 7997 7996 7995 ] final   84.42 input   59.86 | X-H torsion
[ 10167 10162 10161 10158 ] final  -14.86 input  -65.29 | X-H torsion
[ 10718 10713 10712 10709 ] final -162.49 input   66.30 | X-H torsion
[ 10763 10752 10751 10750 ] final  -65.46 input  -60.55 | X-H torsion
[ 11005 11000 10999 10996 ] final   43.25 input  -57.11 | X-H torsion

> <Gold.Protein.ActiveResidues>
 VAL166  LYS551  ARG553  GLY616  TRP617  ASP618  TYR619  PRO620  LYS621  CYS622 
 ASP623  PHE694  ASN695  SER759  ASP760  ASP761  ALA762  ILE779  LEU786  VAL792 
 PHE793  MET794  SER795  GLU796  ALA797  LYS798  CYS799  TRP800  GLU811  SER814 

> <Gold.Protein.RotatedAtoms>
  152.0621  134.9587  160.0574 H   0  0  0  0  0  0  0  0  0  0  0  0  # atno 6907 bound_to 6896
  152.0946  133.4213  159.4568 H   0  0  0  0  0  0  0  0  0  0  0  0  # atno 6908 bound_to 6896
  150.6837  134.2751  159.4647 H   0  0  0  0  0  0  0  0  0  0  0  0  # atno 6909 bound_to 6896
  145.0387  140.8127  143.4279 H   0  0  0  0  0  0  0  0  0  0  0  0  # atno 7974 bound_to 7965
  155.9368  140.3411  155.6294 H   0  0  0  0  0  0  0  0  0  0  0  0  # atno 8008 bound_to 7997
  155.7089  140.0769  157.2398 H   0  0  0  0  0  0  0  0  0  0  0  0  # atno 8009 bound_to 7997
  154.4095  140.1626  156.2261 H   0  0  0  0  0  0  0  0  0  0  0  0  # atno 8010 bound_to 7997
  140.7209  143.5277  150.9557 H   0  0  0  0  0  0  0  0  0  0  0  0  # atno 10167 bound_to 10162
  156.6112  130.8851  151.2937 H   0  0  0  0  0  0  0  0  0  0  0  0  # atno 10718 bound_to 10713
  154.3453  135.6148  153.5616 H   0  0  0  0  0  0  0  0  0  0  0  0  # atno 10763 bound_to 10752
  152.9801  135.5779  154.4805 H   0  0  0  0  0  0  0  0  0  0  0  0  # atno 10764 bound_to 10752
  154.4517  135.2853  155.1754 H   0  0  0  0  0  0  0  0  0  0  0  0  # atno 10765 bound_to 10752
  140.1662  134.4279  155.8286 H   0  0  0  0  0  0  0  0  0  0  0  0  # atno 11005 bound_to 11000
  145.1676  139.2422  143.5359 LP  0  0  0  0  0  0  0  0  0  0  0  0  # atno 17320 bound_to 7965
  146.3507  140.1419  142.8594 LP  0  0  0  0  0  0  0  0  0  0  0  0  # atno 17321 bound_to 7965
  139.8997  143.6851  152.3133 LP  0  0  0  0  0  0  0  0  0  0  0  0  # atno 17342 bound_to 10162
  139.7196  144.7605  151.0976 LP  0  0  0  0  0  0  0  0  0  0  0  0  # atno 17343 bound_to 10162
  157.7254  130.9615  150.1611 LP  0  0  0  0  0  0  0  0  0  0  0  0  # atno 17370 bound_to 10713
  156.2388  130.3689  149.8360 LP  0  0  0  0  0  0  0  0  0  0  0  0  # atno 17371 bound_to 10713
  141.2214  133.6935  156.7682 LP  0  0  0  0  0  0  0  0  0  0  0  0  # atno 17394 bound_to 11000
  140.2431  134.8598  157.3593 LP  0  0  0  0  0  0  0  0  0  0  0  0  # atno 17395 bound_to 11000

$$$$
