AV-unprocessed.smi:287|AV-procd|sdf|2201|dock2
  -GOLD-   2262022 13D 1   1.00000     0.00000
 Structure written by MMmdl.
 55 58  0  0  0  0  0  0  0  0  1 V2000
  152.0113  145.5170  159.0833 C   0  0  0  0  0  0  0  0  0  0  0  0
  152.0159  144.0275  159.0391 C   0  0  0  0  0  0  0  0  0  0  0  0
  151.4202  143.1049  158.2296 C   0  0  0  0  0  0  0  0  0  0  0  0
  151.8066  141.8136  158.6981 C   0  0  0  0  0  0  0  0  0  0  0  0
  151.3795  140.4818  158.0959 C   0  0  1  0  0  0  0  0  0  0  0  0
  152.6179  139.6114  157.8244 C   0  0  0  0  0  0  0  0  0  0  0  0
  150.5694  139.7171  158.9680 O   0  0  0  0  0  0  0  0  0  0  0  0
  150.5615  140.6600  156.7965 C   0  0  0  0  0  0  0  0  0  0  0  0
  149.7071  139.5165  156.5028 N   0  0  0  0  0  0  0  0  0  0  0  0
  148.8027  139.5606  155.5022 C   0  0  0  0  0  0  0  0  0  0  0  0
  148.7780  140.7139  154.7929 N   0  0  0  0  0  0  0  0  0  0  0  0
  147.9226  140.8599  153.7779 C   0  0  0  0  0  0  0  0  0  0  0  0
  147.0231  139.9910  153.3153 N   0  0  0  0  0  0  0  0  0  0  0  0
  147.0368  138.8259  154.0252 C   0  0  0  0  0  0  0  0  0  0  0  0
  147.8900  138.5293  155.1276 C   0  0  0  0  0  0  0  0  0  0  0  0
  147.6103  137.2471  155.5894 N   0  0  0  0  0  0  0  0  0  0  0  0
  146.6575  136.8195  154.8071 C   0  0  0  0  0  0  0  0  0  0  0  0
  146.2477  137.7080  153.8399 N   0  0  0  0  0  0  0  0  0  0  0  0
  145.1809  137.5051  152.8085 C   0  0  2  0  0  0  0  0  0  0  0  0
  144.5033  136.3247  153.1036 O   0  0  0  0  0  0  0  0  0  0  0  0
  144.1197  135.6933  151.8884 C   0  0  2  0  0  0  0  0  0  0  0  0
  143.7809  134.2094  152.1166 C   0  0  0  0  0  0  0  0  0  0  0  0
  143.4405  133.5961  150.8915 O   0  0  0  0  0  0  0  0  0  0  0  0
  145.3132  135.9680  150.9617 C   0  0  2  0  0  0  0  0  0  0  0  0
  146.3393  135.0085  151.1521 O   0  0  0  0  0  0  0  0  0  0  0  0
  145.7362  137.3780  151.3734 C   0  0  2  0  0  0  0  0  0  0  0  0
  147.1250  137.6265  151.2241 O   0  0  0  0  0  0  0  0  0  0  0  0
  152.6302  142.0618  159.7701 C   0  0  0  0  0  0  0  0  0  0  0  0
  153.3914  141.1943  160.7180 C   0  0  0  0  0  0  0  0  0  0  0  0
  152.7598  143.4009  159.9848 O   0  0  0  0  0  0  0  0  0  0  0  0
  144.5149  138.3610  152.9268 H   0  0  0  0  0  0  0  0  0  0  0  0
  143.2510  136.2189  151.4864 H   0  0  0  0  0  0  0  0  0  0  0  0
  145.0170  135.9303  149.9131 H   0  0  0  0  0  0  0  0  0  0  0  0
  145.1967  138.1022  150.7618 H   0  0  0  0  0  0  0  0  0  0  0  0
  151.2509  145.9235  158.4163 H   0  0  0  0  0  0  0  0  0  0  0  0
  152.9787  145.9150  158.7763 H   0  0  0  0  0  0  0  0  0  0  0  0
  151.8015  145.8746  160.0915 H   0  0  0  0  0  0  0  0  0  0  0  0
  150.7737  143.3299  157.3942 H   0  0  0  0  0  0  0  0  0  0  0  0
  153.2976  140.0975  157.1238 H   0  0  0  0  0  0  0  0  0  0  0  0
  152.3429  138.6470  157.3953 H   0  0  0  0  0  0  0  0  0  0  0  0
  153.1761  139.4182  158.7415 H   0  0  0  0  0  0  0  0  0  0  0  0
  150.1495  140.3034  159.5784 H   0  0  0  0  0  0  0  0  0  0  0  0
  149.9086  141.5254  156.9175 H   0  0  0  0  0  0  0  0  0  0  0  0
  151.2177  140.8720  155.9513 H   0  0  0  0  0  0  0  0  0  0  0  0
  149.8140  138.7228  157.1181 H   0  0  0  0  0  0  0  0  0  0  0  0
  147.9643  141.8084  153.2631 H   0  0  0  0  0  0  0  0  0  0  0  0
  146.2216  135.8374  154.9185 H   0  0  0  0  0  0  0  0  0  0  0  0
  144.6490  133.6825  152.5136 H   0  0  0  0  0  0  0  0  0  0  0  0
  142.9702  134.0922  152.8366 H   0  0  0  0  0  0  0  0  0  0  0  0
  142.5793  133.8913  150.6375 H   0  0  0  0  0  0  0  0  0  0  0  0
  147.1730  135.4545  151.1189 H   0  0  0  0  0  0  0  0  0  0  0  0
  147.6007  136.9946  151.7411 H   0  0  0  0  0  0  0  0  0  0  0  0
  154.0534  140.5184  160.1765 H   0  0  0  0  0  0  0  0  0  0  0  0
  152.7115  140.5929  161.3216 H   0  0  0  0  0  0  0  0  0  0  0  0
  154.0040  141.7903  161.3951 H   0  0  0  0  0  0  0  0  0  0  0  0
  1  2  1  0  0  0  0
  1 35  1  0  0  0  0
  1 36  1  0  0  0  0
  1 37  1  0  0  0  0
  2 30  1  0  0  0  0
  2  3  2  0  0  0  0
  3  4  1  0  0  0  0
  3 38  1  0  0  0  0
  4  5  1  0  0  0  0
  4 28  2  0  0  0  0
  5  6  1  0  0  0  0
  5  7  1  0  0  0  0
  5  8  1  0  0  0  0
  6 39  1  0  0  0  0
  6 40  1  0  0  0  0
  6 41  1  0  0  0  0
  7 42  1  0  0  0  0
  8  9  1  0  0  0  0
  8 43  1  0  0  0  0
  8 44  1  0  0  0  0
  9 10  1  0  0  0  0
  9 45  1  0  0  0  0
 10 15  1  0  0  0  0
 10 11  2  0  0  0  0
 11 12  1  0  0  0  0
 12 13  2  0  0  0  0
 12 46  1  0  0  0  0
 13 14  1  0  0  0  0
 14 18  1  0  0  0  0
 14 15  2  0  0  0  0
 15 16  1  0  0  0  0
 16 17  2  0  0  0  0
 17 18  1  0  0  0  0
 17 47  1  0  0  0  0
 18 19  1  0  0  0  0
 19 31  1  0  0  0  0
 19 26  1  0  0  0  0
 19 20  1  0  0  0  0
 20 21  1  0  0  0  0
 21 32  1  0  0  0  0
 21 22  1  0  0  0  0
 21 24  1  0  0  0  0
 22 23  1  0  0  0  0
 22 48  1  0  0  0  0
 22 49  1  0  0  0  0
 23 50  1  0  0  0  0
 24 33  1  0  0  0  0
 24 25  1  0  0  0  0
 24 26  1  0  0  0  0
 25 51  1  0  0  0  0
 26 34  1  0  0  0  0
 26 27  1  0  0  0  0
 27 52  1  0  0  0  0
 28 29  1  0  0  0  0
 28 30  1  0  0  0  0
 29 53  1  0  0  0  0
 29 54  1  0  0  0  0
 29 55  1  0  0  0  0
M  END
> <s_m_source_file>
AV-unprocessed.smi

> <i_m_source_file_index>
287

> <i_lp_mmshare_version>
43012

> <i_f3d_flags>
0

> <s_epik_input>
W0NIM11jMVtjSF1jKGMobzEpW0NIM10pW0NAQF0oW0NIM10pKFtPSF0pW0NIMl1bTkhdYyhuW2NIXW4yKWMoYzIzKW5bY0hdbjNbQ0BASF00T1tDQEhdKFtDSDJdW09IXSlbQ0BASF0oW09IXSlbQ0BIXTRbT0hd

> <s_epik_cmdline>
J2VwaWtfcHl0aG9uJywgJy1waCcsICc3LjAnLCAnLXRuJywgJzgnLCAnLW1hJywgJzIwMCcsICctbWV0YWxfYmluZGluZycsICctaW1hZScsICc8aW5maWxlLm1hZT4nLCAnLW9tYWUnLCAnPG91dGZpbGUubWFlPic=

> <r_lp_tautomer_probability>
1

> <r_epik_Ionization_Penalty>
0.000992612

> <r_epik_Ionization_Penalty_Charging>
0

> <r_epik_Ionization_Penalty_Neutral>
0.000992612

> <r_epik_State_Penalty>
-0

> <r_epik_Charging_Adjusted_Penalty>
0

> <i_epik_Tot_Q>
0

> <i_epik_Tot_abs_Q>
0

> <r_epik_Metal_State_Penalty>
-0

> <b_epik_Metal_Only>
0

> <s_epik_Chemistry_Notes>
This compound contains an acetal/aminal-like group ( X-CH(R)-Y where X, Y are N, S, or O) that may be acid/base labile, releasing an aldehyde.

> <s_lp_Force_Field>
OPLS_2005

> <r_lp_Energy>
50.9422

> <b_lp_Chiralities_Consistent>
1

> <s_lp_Variant>
AV-unprocessed.smi:287-25

> <Gold.Version>
5.8.1

> <Gold.Id.Protein>
6NUR|6NUR_protein|mol2

> <Gold.PLP.Fitness>
53.3838

> <Gold.PLP.PLP>
-42.9288

> <Gold.PLP.part.hbond>
-3.5729

> <Gold.PLP.part.metal>
0.0000

> <Gold.PLP.part.buried>
-1.8682

> <Gold.PLP.part.nonpolar>
-38.1345

> <Gold.PLP.part.repulsive>
0.4700

> <Gold.PLP.ligand.clash>
0.0000

> <Gold.PLP.ligand.torsion>
0.7241

> <Gold.PLP.Chemscore.Hbond>
3.8960

> <Gold.PLP.Chemscore.CHOScore>
0.0000

> <Gold.PLP.Chemscore.Metal>
0.0000

> <Gold.Chemscore.Hbonds>
donor molecule, donor type, donor heavy atom, donor atom, acceptor molecule, acceptor atom, score
      L1  H    23    50       P1 10186  1.00
      L1  H    25    51       P1  7948  1.00
      L1  H    27    52       P1  7948  0.84
      P1  H  7954  7966       L1    27  1.00

> <Gold.PLP.Chemscore.Internal.Correction>
0.2152

> <Gold.Rescore>
     Score         DG    S(hbond)    S(metal)    S(lipo)     H(rot)  DE(clash)    DE(int)     intcor
     11.12     -14.00       2.82        0.00     107.46       5.27       1.54       1.34       ----

> <Gold.Chemscore.Fitness>
11.1249

> <Gold.Chemscore.DG>
-13.9997

> <Gold.Chemscore.ZeroCoef>
-5.4800

> <Gold.Chemscore.Hbond>
2.8235

> <Gold.Chemscore.Metal>
0.0000

> <Gold.Chemscore.Lipo>
107.4633

> <Gold.Chemscore.Internal_Hbond>
0.0000

> <Gold.Chemscore.DEClash>
1.5378

> <Gold.Chemscore.DEInternal>
1.3370

> <Gold.Chemscore.Rot>
5.2672

> <Gold.Chemscore.Internal.Correction>
   9.000000E+99

> <Gold.Chemscore.Hbonds>
donor molecule, donor type, donor heavy atom, donor atom, acceptor molecule, acceptor atom, score
      L1  H    23    50       P1 10186  0.83
      L1  H    25    51       P1  7948  0.76
      L1  H    27    52       P1  7948  0.77
      P1  H  7954  7966       L1    27  0.35

> <Gold.Chemscore.Hbond.Weighted>
-9.4304

> <Gold.Chemscore.Metal.Weighted>
-0.0000

> <Gold.Chemscore.Lipo.Weighted>
-12.5732

> <Gold.Chemscore.Internal_Hbond.Weighted>
0.0000

> <Gold.Chemscore.DEClash.Weighted>
1.5378

> <Gold.Chemscore.DEInternal.Weighted>
1.3370

> <Gold.Chemscore.Rot.Weighted>
13.4839

> <Gold.Chemscore.Internal.Correction.Weighted>
   9.000000E+99

> <Gold.Protein.RotatedTorsions>
[ 6907 6896 6895 6894 ] final  111.24 input  -60.11 | X-H torsion
[ 7974 7965 7964 7962 ] final  -24.56 input  175.53 | X-H torsion
[ 8008 7997 7996 7995 ] final  -73.21 input   59.86 | X-H torsion
[ 10167 10162 10161 10158 ] final    3.77 input  -65.29 | X-H torsion
[ 10718 10713 10712 10709 ] final  154.35 input   66.30 | X-H torsion
[ 10763 10752 10751 10750 ] final -147.82 input  -60.55 | X-H torsion
[ 11005 11000 10999 10996 ] final -142.84 input  -57.11 | X-H torsion

> <Gold.Protein.ActiveResidues>
 VAL166  LYS551  ARG553  GLY616  TRP617  ASP618  TYR619  PRO620  LYS621  CYS622 
 ASP623  PHE694  ASN695  SER759  ASP760  ASP761  ALA762  ILE779  LEU786  VAL792 
 PHE793  MET794  SER795  GLU796  ALA797  LYS798  CYS799  TRP800  GLU811  SER814 

> <Gold.Protein.RotatedAtoms>
  152.4979  133.8686  159.7286 H   0  0  0  0  0  0  0  0  0  0  0  0  # atno 6907 bound_to 6896
  150.9178  133.6908  159.2846 H   0  0  0  0  0  0  0  0  0  0  0  0  # atno 6908 bound_to 6896
  151.4296  135.1012  159.9690 H   0  0  0  0  0  0  0  0  0  0  0  0  # atno 6909 bound_to 6896
  146.1547  140.4768  142.8596 H   0  0  0  0  0  0  0  0  0  0  0  0  # atno 7974 bound_to 7965
  154.5229  140.0783  156.8204 H   0  0  0  0  0  0  0  0  0  0  0  0  # atno 8008 bound_to 7997
  155.3538  140.3414  155.4221 H   0  0  0  0  0  0  0  0  0  0  0  0  # atno 8009 bound_to 7997
  156.1700  140.1616  156.8451 H   0  0  0  0  0  0  0  0  0  0  0  0  # atno 8010 bound_to 7997
  140.6569  143.7404  150.7669 H   0  0  0  0  0  0  0  0  0  0  0  0  # atno 10167 bound_to 10162
  157.2327  131.0742  151.1843 H   0  0  0  0  0  0  0  0  0  0  0  0  # atno 10718 bound_to 10713
  154.8266  135.3350  154.6877 H   0  0  0  0  0  0  0  0  0  0  0  0  # atno 10763 bound_to 10752
  153.7502  135.6940  153.4952 H   0  0  0  0  0  0  0  0  0  0  0  0  # atno 10764 bound_to 10752
  153.2181  135.4458  155.0408 H   0  0  0  0  0  0  0  0  0  0  0  0  # atno 10765 bound_to 10752
  140.8185  134.2660  157.4911 H   0  0  0  0  0  0  0  0  0  0  0  0  # atno 11005 bound_to 11000
  144.7948  140.6101  143.6517 LP  0  0  0  0  0  0  0  0  0  0  0  0  # atno 17320 bound_to 7965
  145.4738  139.1501  143.3799 LP  0  0  0  0  0  0  0  0  0  0  0  0  # atno 17321 bound_to 7965
  140.1066  143.4738  152.2395 LP  0  0  0  0  0  0  0  0  0  0  0  0  # atno 17342 bound_to 10162
  139.5793  144.7503  151.3681 LP  0  0  0  0  0  0  0  0  0  0  0  0  # atno 17343 bound_to 10162
  157.3461  130.7058  149.6411 LP  0  0  0  0  0  0  0  0  0  0  0  0  # atno 17370 bound_to 10713
  155.9674  130.4266  150.4705 LP  0  0  0  0  0  0  0  0  0  0  0  0  # atno 17371 bound_to 10713
  139.8710  134.9522  156.4108 LP  0  0  0  0  0  0  0  0  0  0  0  0  # atno 17394 bound_to 11000
  140.9124  133.7702  155.9808 LP  0  0  0  0  0  0  0  0  0  0  0  0  # atno 17395 bound_to 11000

$$$$
