AV-unprocessed.smi:1027|AV-procd|sdf|4472|dock1
  -GOLD-   22720 2443D 1   1.00000     0.00000
 Structure written by MMmdl.
 34 35  0  0  0  0  0  0  0  0  2 V2000
  144.5431  135.5536  162.6623 C   0  0  0  0  0  0  0  0  0  0  0  0
  145.5584  135.4718  161.5053 C   0  0  0  0  0  0  0  0  0  0  0  0
  144.8934  134.8039  160.2879 C   0  0  0  0  0  0  0  0  0  0  0  0
  146.8723  134.7615  161.9267 C   0  0  1  0  0  0  0  0  0  0  0  0
  146.6626  133.2960  162.3535 C   0  0  0  0  0  0  0  0  0  0  0  0
  147.8389  134.7996  160.8283 N   0  0  0  0  0  0  0  0  0  0  0  0
  148.2509  135.8903  160.1655 C   0  0  0  0  0  0  0  0  0  0  0  0
  147.8170  137.0022  160.4757 O   0  0  0  0  0  0  0  0  0  0  0  0
  149.1411  135.6243  159.1825 N   0  5  0  0  0  0  0  0  0  0  0  0
  149.4411  136.5684  158.2754 C   0  0  0  0  0  0  0  0  0  0  0  0
  149.0472  137.8429  158.4071 N   0  0  0  0  0  0  0  0  0  0  0  0
  149.4645  138.6525  157.3607 N   0  0  0  0  0  0  0  0  0  0  0  0
  150.1763  137.9778  156.4547 C   0  0  0  0  0  0  0  0  0  0  0  0
  150.7347  138.6264  155.2324 C   0  0  0  0  0  0  0  0  0  0  0  0
  150.2402  138.2384  153.8577 C   0  0  0  0  0  0  0  0  0  0  0  0
  151.6403  137.8753  154.2811 C   0  0  0  0  0  0  0  0  0  0  0  0
  150.3998  136.2753  156.8248 S   0  0  0  0  0  0  0  0  0  0  0  0
  144.2867  134.5604  163.0320 H   0  0  0  0  0  0  0  0  0  0  0  0
  143.6197  136.0365  162.3413 H   0  0  0  0  0  0  0  0  0  0  0  0
  144.9274  136.1320  163.5026 H   0  0  0  0  0  0  0  0  0  0  0  0
  145.8051  136.4956  161.2203 H   0  0  0  0  0  0  0  0  0  0  0  0
  144.6793  133.7524  160.4813 H   0  0  0  0  0  0  0  0  0  0  0  0
  145.5212  134.8617  159.3996 H   0  0  0  0  0  0  0  0  0  0  0  0
  143.9512  135.2928  160.0388 H   0  0  0  0  0  0  0  0  0  0  0  0
  147.2861  135.3076  162.7766 H   0  0  0  0  0  0  0  0  0  0  0  0
  146.0458  133.2188  163.2483 H   0  0  0  0  0  0  0  0  0  0  0  0
  147.6129  132.8140  162.5855 H   0  0  0  0  0  0  0  0  0  0  0  0
  146.1838  132.7175  161.5627 H   0  0  0  0  0  0  0  0  0  0  0  0
  148.2256  133.9141  160.5367 H   0  0  0  0  0  0  0  0  0  0  0  0
  150.9525  139.6760  155.4195 H   0  0  0  0  0  0  0  0  0  0  0  0
  149.5115  137.4328  153.7915 H   0  0  0  0  0  0  0  0  0  0  0  0
  150.1257  139.0331  153.1236 H   0  0  0  0  0  0  0  0  0  0  0  0
  152.4612  138.4284  153.8293 H   0  0  0  0  0  0  0  0  0  0  0  0
  151.8415  136.8252  154.4826 H   0  0  0  0  0  0  0  0  0  0  0  0
  1  2  1  0  0  0  0
  1 18  1  0  0  0  0
  1 19  1  0  0  0  0
  1 20  1  0  0  0  0
  2  3  1  0  0  0  0
  2  4  1  0  0  0  0
  2 21  1  0  0  0  0
  3 22  1  0  0  0  0
  3 23  1  0  0  0  0
  3 24  1  0  0  0  0
  4  5  1  0  0  0  0
  4  6  1  0  0  0  0
  4 25  1  0  0  0  0
  5 26  1  0  0  0  0
  5 27  1  0  0  0  0
  5 28  1  0  0  0  0
  6  7  1  0  0  0  0
  6 29  1  0  0  0  0
  7  8  2  0  0  0  0
  7  9  1  0  0  0  0
  9 10  1  0  0  0  0
 10 17  1  0  0  0  0
 10 11  2  0  0  0  0
 11 12  1  0  0  0  0
 12 13  2  0  0  0  0
 13 14  1  0  0  0  0
 13 17  1  0  0  0  0
 14 16  1  0  0  0  0
 14 15  1  0  0  0  0
 14 30  1  0  0  0  0
 15 16  1  0  0  0  0
 15 31  1  0  0  0  0
 15 32  1  0  0  0  0
 16 33  1  0  0  0  0
 16 34  1  0  0  0  0
M  CHG  1   9  -1
M  END
> <s_m_source_file>
AV-unprocessed.smi

> <i_m_source_file_index>
1027

> <i_lp_mmshare_version>
43012

> <i_f3d_flags>
0

> <s_epik_input>
W0NIM11bQ0hdKFtDSDNdKVtDQEhdKFtDSDNdKVtOSF1DKD1PKVtOSF1jMW5uYyhzMSlbQ0hdMltDSDJdW0NIMl0y

> <s_epik_cmdline>
J2VwaWtfcHl0aG9uJywgJy1waCcsICc3LjAnLCAnLXRuJywgJzgnLCAnLW1hJywgJzIwMCcsICctbWV0YWxfYmluZGluZycsICctaW1hZScsICc8aW5maWxlLm1hZT4nLCAnLW9tYWUnLCAnPG91dGZpbGUubWFlPic=

> <r_lp_tautomer_probability>
1

> <r_epik_Ionization_Penalty>
3.99975

> <r_epik_Ionization_Penalty_Charging>
3.83446

> <r_epik_Ionization_Penalty_Neutral>
0.165297

> <r_epik_State_Penalty>
3.83354

> <r_epik_Charging_Adjusted_Penalty>
7.668

> <i_epik_Tot_Q>
-1

> <i_epik_Tot_abs_Q>
1

> <r_epik_Metal_State_Penalty>
0.575872

> <b_epik_Metal_Only>
1

> <s_lp_Force_Field>
OPLS_2005

> <r_lp_Energy>
2.2869

> <b_lp_Chiralities_Consistent>
1

> <s_lp_Variant>
AV-unprocessed.smi:1027-4

> <Gold.Version>
5.8.1

> <Gold.Id.Protein>
6NUR|6NUR_protein|mol2

> <Gold.PLP.Fitness>
37.9475

> <Gold.PLP.PLP>
-26.9211

> <Gold.PLP.part.hbond>
-4.1750

> <Gold.PLP.part.metal>
0.0000

> <Gold.PLP.part.buried>
-2.5134

> <Gold.PLP.part.nonpolar>
-20.1906

> <Gold.PLP.part.repulsive>
0.0865

> <Gold.PLP.ligand.clash>
0.0000

> <Gold.PLP.ligand.torsion>
0.1507

> <Gold.PLP.Chemscore.Hbond>
3.6960

> <Gold.PLP.Chemscore.CHOScore>
0.0000

> <Gold.PLP.Chemscore.Metal>
0.0000

> <Gold.Chemscore.Hbonds>
donor molecule, donor type, donor heavy atom, donor atom, acceptor molecule, acceptor atom, score
      P1  H  6896  6909       L1     9  2.00
      P1  H  6931  6943       L1     8  0.38
      P1  H  6934  6947       L1     8  0.59

> <Gold.PLP.Chemscore.Internal.Correction>
0.2397

> <Gold.Rescore>
     Score         DG    S(hbond)    S(metal)    S(lipo)     H(rot)  DE(clash)    DE(int)     intcor
     15.39     -17.31       2.49        0.00      59.80       1.36       0.01       1.91       ----

> <Gold.Chemscore.Fitness>
15.3870

> <Gold.Chemscore.DG>
-17.3088

> <Gold.Chemscore.ZeroCoef>
-5.4800

> <Gold.Chemscore.Hbond>
2.4907

> <Gold.Chemscore.Metal>
0.0000

> <Gold.Chemscore.Lipo>
59.7957

> <Gold.Chemscore.Internal_Hbond>
0.0000

> <Gold.Chemscore.DEClash>
0.0089

> <Gold.Chemscore.DEInternal>
1.9130

> <Gold.Chemscore.Rot>
1.3618

> <Gold.Chemscore.Internal.Correction>
   9.000000E+99

> <Gold.Chemscore.Hbonds>
donor molecule, donor type, donor heavy atom, donor atom, acceptor molecule, acceptor atom, score
      P1  H  6896  6909       L1     9  0.68
      P1  H  6931  6943       L1     8  0.36
      P1  H  6934  6947       L1     8  0.58

> <Gold.Chemscore.Hbond.Weighted>
-8.3190

> <Gold.Chemscore.Metal.Weighted>
-0.0000

> <Gold.Chemscore.Lipo.Weighted>
-6.9961

> <Gold.Chemscore.Internal_Hbond.Weighted>
0.0000

> <Gold.Chemscore.DEClash.Weighted>
0.0089

> <Gold.Chemscore.DEInternal.Weighted>
1.9130

> <Gold.Chemscore.Rot.Weighted>
3.4863

> <Gold.Chemscore.Internal.Correction.Weighted>
   9.000000E+99

> <Gold.Protein.RotatedTorsions>
[ 6907 6896 6895 6894 ] final   56.52 input  -60.11 | X-H torsion
[ 7974 7965 7964 7962 ] final  -53.38 input  175.53 | X-H torsion
[ 8008 7997 7996 7995 ] final   19.83 input   59.86 | X-H torsion
[ 10167 10162 10161 10158 ] final   -2.30 input  -65.29 | X-H torsion
[ 10718 10713 10712 10709 ] final -123.63 input   66.30 | X-H torsion
[ 10763 10752 10751 10750 ] final   68.55 input  -60.55 | X-H torsion
[ 11005 11000 10999 10996 ] final   12.46 input  -57.11 | X-H torsion

> <Gold.Protein.ActiveResidues>
 VAL166  LYS551  ARG553  GLY616  TRP617  ASP618  TYR619  PRO620  LYS621  CYS622 
 ASP623  PHE694  ASN695  SER759  ASP760  ASP761  ALA762  ILE779  LEU786  VAL792 
 PHE793  MET794  SER795  GLU796  ALA797  LYS798  CYS799  TRP800  GLU811  SER814 

> <Gold.Protein.RotatedAtoms>
  152.3643  134.6826  160.0196 H   0  0  0  0  0  0  0  0  0  0  0  0  # atno 6907 bound_to 6896
  151.7139  133.3307  159.3306 H   0  0  0  0  0  0  0  0  0  0  0  0  # atno 6908 bound_to 6896
  150.7627  134.6442  159.6298 H   0  0  0  0  0  0  0  0  0  0  0  0  # atno 6909 bound_to 6896
  145.8975  140.8021  142.9760 H   0  0  0  0  0  0  0  0  0  0  0  0  # atno 7974 bound_to 7965
  154.9266  140.3034  155.5189 H   0  0  0  0  0  0  0  0  0  0  0  0  # atno 8008 bound_to 7997
  156.3006  140.2361  156.4258 H   0  0  0  0  0  0  0  0  0  0  0  0  # atno 8009 bound_to 7997
  154.8279  140.0420  157.1445 H   0  0  0  0  0  0  0  0  0  0  0  0  # atno 8010 bound_to 7997
  140.6845  143.6673  150.8215 H   0  0  0  0  0  0  0  0  0  0  0  0  # atno 10167 bound_to 10162
  156.1518  130.6540  150.9925 H   0  0  0  0  0  0  0  0  0  0  0  0  # atno 10718 bound_to 10713
  153.0241  135.5243  154.7151 H   0  0  0  0  0  0  0  0  0  0  0  0  # atno 10763 bound_to 10752
  154.6222  135.2890  155.0315 H   0  0  0  0  0  0  0  0  0  0  0  0  # atno 10764 bound_to 10752
  154.1297  135.6595  153.4972 H   0  0  0  0  0  0  0  0  0  0  0  0  # atno 10765 bound_to 10752
  140.4917  134.0834  155.7773 H   0  0  0  0  0  0  0  0  0  0  0  0  # atno 11005 bound_to 11000
  144.6734  140.1625  143.7421 LP  0  0  0  0  0  0  0  0  0  0  0  0  # atno 17320 bound_to 7965
  145.8833  139.2335  143.1593 LP  0  0  0  0  0  0  0  0  0  0  0  0  # atno 17321 bound_to 7965
  140.0378  143.5377  152.2731 LP  0  0  0  0  0  0  0  0  0  0  0  0  # atno 17342 bound_to 10162
  139.6193  144.7626  151.2776 LP  0  0  0  0  0  0  0  0  0  0  0  0  # atno 17343 bound_to 10162
  157.6663  131.0871  150.7720 LP  0  0  0  0  0  0  0  0  0  0  0  0  # atno 17370 bound_to 10713
  156.7787  130.4852  149.5405 LP  0  0  0  0  0  0  0  0  0  0  0  0  # atno 17371 bound_to 10713
  141.1481  133.9019  157.2167 LP  0  0  0  0  0  0  0  0  0  0  0  0  # atno 17394 bound_to 11000
  139.9765  135.0112  156.9644 LP  0  0  0  0  0  0  0  0  0  0  0  0  # atno 17395 bound_to 11000

$$$$
