AV-unprocessed.smi:1419|AV-procd|sdf|5778|dock5
  -GOLD-   22720 5423D 1   1.00000     0.00000
 Structure written by MMmdl.
 42 43  0  0  0  0  0  0  0  0  2 V2000
  150.3155  133.4469  155.5705 C   0  0  0  0  0  0  0  0  0  0  0  0
  149.2062  134.2686  154.9005 C   0  0  2  0  0  0  0  0  0  0  0  0
  148.6885  133.5689  153.6249 C   0  0  0  0  0  0  0  0  0  0  0  0
  147.2277  133.6157  153.4974 N   0  0  0  0  0  0  0  0  0  0  0  0
  146.4980  134.2898  152.5517 C   0  0  0  0  0  0  0  0  0  0  0  0
  145.1783  134.0344  152.8210 C   0  0  0  0  0  0  0  0  0  0  0  0
  145.1576  133.2260  153.9258 N   0  3  0  0  0  0  0  0  0  0  0  0
  146.4043  132.9791  154.3403 C   0  0  0  0  0  0  0  0  0  0  0  0
  149.7262  135.6016  154.5980 N   0  0  0  0  0  0  0  0  0  0  0  0
  150.3022  136.4462  155.4717 C   0  0  0  0  0  0  0  0  0  0  0  0
  150.4391  136.1658  156.6631 O   0  0  0  0  0  0  0  0  0  0  0  0
  150.6909  137.6312  154.9399 N   0  0  0  0  0  0  0  0  0  0  0  0
  150.1284  138.3003  153.7589 C   0  0  0  0  0  0  0  0  0  0  0  0
  149.3954  139.5815  154.2081 C   0  0  1  0  0  0  0  0  0  0  0  0
  148.0851  139.3146  154.9697 C   0  0  0  0  0  0  0  0  0  0  0  0
  150.2838  140.4057  154.9701 O   0  0  0  0  0  0  0  0  0  0  0  0
  150.9301  139.7703  156.0768 C   0  0  2  0  0  0  0  0  0  0  0  0
  151.8851  140.7859  156.7128 C   0  0  0  0  0  0  0  0  0  0  0  0
  151.6676  138.5076  155.5889 C   0  0  0  0  0  0  0  0  0  0  0  0
  149.9578  132.4539  155.8437 H   0  0  0  0  0  0  0  0  0  0  0  0
  150.6670  133.9303  156.4827 H   0  0  0  0  0  0  0  0  0  0  0  0
  151.1726  133.3204  154.9080 H   0  0  0  0  0  0  0  0  0  0  0  0
  148.3884  134.3487  155.6192 H   0  0  0  0  0  0  0  0  0  0  0  0
  149.1351  134.0087  152.7316 H   0  0  0  0  0  0  0  0  0  0  0  0
  148.9707  132.5151  153.6316 H   0  0  0  0  0  0  0  0  0  0  0  0
  146.9606  134.8769  151.7715 H   0  0  0  0  0  0  0  0  0  0  0  0
  144.2764  134.3598  152.3231 H   0  0  0  0  0  0  0  0  0  0  0  0
  146.6883  132.3777  155.1852 H   0  0  0  0  0  0  0  0  0  0  0  0
  149.6491  135.9079  153.6389 H   0  0  0  0  0  0  0  0  0  0  0  0
  150.9455  138.5645  153.0858 H   0  0  0  0  0  0  0  0  0  0  0  0
  149.4617  137.6747  153.1655 H   0  0  0  0  0  0  0  0  0  0  0  0
  149.1376  140.1514  153.3151 H   0  0  0  0  0  0  0  0  0  0  0  0
  147.3863  138.7511  154.3513 H   0  0  0  0  0  0  0  0  0  0  0  0
  147.6003  140.2511  155.2463 H   0  0  0  0  0  0  0  0  0  0  0  0
  148.2470  138.7430  155.8820 H   0  0  0  0  0  0  0  0  0  0  0  0
  150.1847  139.4923  156.8227 H   0  0  0  0  0  0  0  0  0  0  0  0
  152.3968  140.3580  157.5751 H   0  0  0  0  0  0  0  0  0  0  0  0
  151.3444  141.6697  157.0524 H   0  0  0  0  0  0  0  0  0  0  0  0
  152.6440  141.1131  156.0015 H   0  0  0  0  0  0  0  0  0  0  0  0
  152.1766  138.0260  156.4251 H   0  0  0  0  0  0  0  0  0  0  0  0
  152.4492  138.7736  154.8757 H   0  0  0  0  0  0  0  0  0  0  0  0
  144.3207  132.8677  154.3686 H   0  0  0  0  0  0  0  0  0  0  0  0
  1  2  1  0  0  0  0
  1 20  1  0  0  0  0
  1 21  1  0  0  0  0
  1 22  1  0  0  0  0
  2  3  1  0  0  0  0
  2  9  1  0  0  0  0
  2 23  1  0  0  0  0
  3  4  1  0  0  0  0
  3 24  1  0  0  0  0
  3 25  1  0  0  0  0
  4  8  1  0  0  0  0
  4  5  1  0  0  0  0
  5  6  2  0  0  0  0
  5 26  1  0  0  0  0
  6  7  1  0  0  0  0
  6 27  1  0  0  0  0
  7  8  2  0  0  0  0
  7 42  1  0  0  0  0
  8 28  1  0  0  0  0
  9 10  1  0  0  0  0
  9 29  1  0  0  0  0
 10 11  2  0  0  0  0
 10 12  1  0  0  0  0
 12 19  1  0  0  0  0
 12 13  1  0  0  0  0
 13 14  1  0  0  0  0
 13 30  1  0  0  0  0
 13 31  1  0  0  0  0
 14 15  1  0  0  0  0
 14 16  1  0  0  0  0
 14 32  1  0  0  0  0
 15 33  1  0  0  0  0
 15 34  1  0  0  0  0
 15 35  1  0  0  0  0
 16 17  1  0  0  0  0
 17 18  1  0  0  0  0
 17 19  1  0  0  0  0
 17 36  1  0  0  0  0
 18 37  1  0  0  0  0
 18 38  1  0  0  0  0
 18 39  1  0  0  0  0
 19 40  1  0  0  0  0
 19 41  1  0  0  0  0
M  CHG  1   7   1
M  END
> <s_m_source_file>
AV-unprocessed.smi

> <i_m_source_file_index>
1419

> <i_lp_mmshare_version>
43012

> <i_f3d_flags>
0

> <s_epik_input>
W2NIXTFuW2NIXVtjSF1uMVtDSDJdW0NAQEhdKFtDSDNdKVtOSF1DKD1PKU4yW0NIMl1bQ0BASF0oW0NIM10pT1tDQEBIXShbQ0gzXSlbQ0gyXTI=

> <s_epik_cmdline>
J2VwaWtfcHl0aG9uJywgJy1waCcsICc3LjAnLCAnLXRuJywgJzgnLCAnLW1hJywgJzIwMCcsICctbWV0YWxfYmluZGluZycsICctaW1hZScsICc8aW5maWxlLm1hZT4nLCAnLW9tYWUnLCAnPG91dGZpbGUubWFlPic=

> <r_lp_tautomer_probability>
1

> <r_epik_Ionization_Penalty>
0.253607

> <r_epik_Ionization_Penalty_Charging>
0

> <r_epik_Ionization_Penalty_Neutral>
0.253607

> <r_epik_State_Penalty>
0.245018

> <r_epik_Charging_Adjusted_Penalty>
0.245018

> <i_epik_Tot_Q>
1

> <i_epik_Tot_abs_Q>
1

> <r_epik_Metal_State_Penalty>
0.535379

> <b_epik_Metal_Only>
0

> <s_lp_Force_Field>
OPLS_2005

> <r_lp_Energy>
31.638

> <b_lp_Chiralities_Consistent>
1

> <s_lp_Variant>
AV-unprocessed.smi:1419-5

> <Gold.Version>
5.8.1

> <Gold.Id.Protein>
6NUR|6NUR_protein|mol2

> <Gold.PLP.Fitness>
37.7699

> <Gold.PLP.PLP>
-24.5338

> <Gold.PLP.part.hbond>
-3.0000

> <Gold.PLP.part.metal>
0.0000

> <Gold.PLP.part.buried>
0.3340

> <Gold.PLP.part.nonpolar>
-21.6388

> <Gold.PLP.part.repulsive>
0.1239

> <Gold.PLP.ligand.clash>
0.0000

> <Gold.PLP.ligand.torsion>
0.8875

> <Gold.PLP.Chemscore.Hbond>
3.9913

> <Gold.PLP.Chemscore.CHOScore>
1.0000

> <Gold.PLP.Chemscore.Metal>
0.0000

> <Gold.Chemscore.Hbonds>
donor molecule, donor type, donor heavy atom, donor atom, acceptor molecule, acceptor atom, score
      L1  H     7    42       P1 10957  2.00
      L1  H     9    29       P1  7948  1.00
      P1  H  7989  7998       L1    16  0.91
      L1  C     5    26       P1  7948  1.00

> <Gold.PLP.Chemscore.Internal.Correction>
0.0374

> <Gold.Rescore>
     Score         DG    S(hbond)    S(metal)    S(lipo)     H(rot)  DE(clash)    DE(int)     intcor
     11.00     -13.62       1.69        0.00      57.00       1.63       0.64       1.99       ----

> <Gold.Chemscore.Fitness>
11.0005

> <Gold.Chemscore.DG>
-13.6236

> <Gold.Chemscore.ZeroCoef>
-5.4800

> <Gold.Chemscore.Hbond>
1.6886

> <Gold.Chemscore.Metal>
0.0000

> <Gold.Chemscore.Lipo>
57.0033

> <Gold.Chemscore.Internal_Hbond>
0.0000

> <Gold.Chemscore.DEClash>
0.6376

> <Gold.Chemscore.DEInternal>
1.9855

> <Gold.Chemscore.Rot>
1.6273

> <Gold.Chemscore.Internal.Correction>
   9.000000E+99

> <Gold.Chemscore.Hbonds>
donor molecule, donor type, donor heavy atom, donor atom, acceptor molecule, acceptor atom, score
      L1  H     7    42       P1 10957  0.91
      L1  H     9    29       P1  7948  0.26
      P1  H  7989  7998       L1    16  0.15

> <Gold.Chemscore.Hbond.Weighted>
-5.6401

> <Gold.Chemscore.Metal.Weighted>
-0.0000

> <Gold.Chemscore.Lipo.Weighted>
-6.6694

> <Gold.Chemscore.Internal_Hbond.Weighted>
0.0000

> <Gold.Chemscore.DEClash.Weighted>
0.6376

> <Gold.Chemscore.DEInternal.Weighted>
1.9855

> <Gold.Chemscore.Rot.Weighted>
4.1658

> <Gold.Chemscore.Internal.Correction.Weighted>
   9.000000E+99

> <Gold.Protein.RotatedTorsions>
[ 6907 6896 6895 6894 ] final   44.67 input  -60.11 | X-H torsion
[ 7974 7965 7964 7962 ] final  151.79 input  175.53 | X-H torsion
[ 8008 7997 7996 7995 ] final -148.84 input   59.86 | X-H torsion
[ 10167 10162 10161 10158 ] final -153.29 input  -65.29 | X-H torsion
[ 10718 10713 10712 10709 ] final  -55.31 input   66.30 | X-H torsion
[ 10763 10752 10751 10750 ] final   79.55 input  -60.55 | X-H torsion
[ 11005 11000 10999 10996 ] final  117.97 input  -57.11 | X-H torsion

> <Gold.Protein.ActiveResidues>
 VAL166  LYS551  ARG553  GLY616  TRP617  ASP618  TYR619  PRO620  LYS621  CYS622 
 ASP623  PHE694  ASN695  SER759  ASP760  ASP761  ALA762  ILE779  LEU786  VAL792 
 PHE793  MET794  SER795  GLU796  ALA797  LYS798  CYS799  TRP800  GLU811  SER814 

> <Gold.Protein.RotatedAtoms>
  152.2353  134.8282  160.0467 H   0  0  0  0  0  0  0  0  0  0  0  0  # atno 6907 bound_to 6896
  151.9016  133.3534  159.3841 H   0  0  0  0  0  0  0  0  0  0  0  0  # atno 6908 bound_to 6896
  150.7037  134.4748  159.5487 H   0  0  0  0  0  0  0  0  0  0  0  0  # atno 6909 bound_to 6896
  144.8267  139.6584  143.6077 H   0  0  0  0  0  0  0  0  0  0  0  0  # atno 7974 bound_to 7965
  155.5980  140.0659  157.2741 H   0  0  0  0  0  0  0  0  0  0  0  0  # atno 8008 bound_to 7997
  154.4287  140.1823  156.1190 H   0  0  0  0  0  0  0  0  0  0  0  0  # atno 8009 bound_to 7997
  156.0181  140.3319  155.7014 H   0  0  0  0  0  0  0  0  0  0  0  0  # atno 8010 bound_to 7997
  139.7109  143.9110  152.2467 H   0  0  0  0  0  0  0  0  0  0  0  0  # atno 10167 bound_to 10162
  156.1379  130.4156  150.0153 H   0  0  0  0  0  0  0  0  0  0  0  0  # atno 10718 bound_to 10713
  153.0962  135.4835  154.8783 H   0  0  0  0  0  0  0  0  0  0  0  0  # atno 10763 bound_to 10752
  154.7327  135.3064  154.8866 H   0  0  0  0  0  0  0  0  0  0  0  0  # atno 10764 bound_to 10752
  153.9497  135.6824  153.4797 H   0  0  0  0  0  0  0  0  0  0  0  0  # atno 10765 bound_to 10752
  139.9093  134.9616  156.7432 H   0  0  0  0  0  0  0  0  0  0  0  0  # atno 11005 bound_to 11000
  146.2572  139.6329  142.9387 LP  0  0  0  0  0  0  0  0  0  0  0  0  # atno 17320 bound_to 7965
  145.4984  141.0438  143.2554 LP  0  0  0  0  0  0  0  0  0  0  0  0  # atno 17321 bound_to 7965
  139.8979  144.6928  150.8698 LP  0  0  0  0  0  0  0  0  0  0  0  0  # atno 17342 bound_to 10162
  140.7733  143.3536  151.1965 LP  0  0  0  0  0  0  0  0  0  0  0  0  # atno 17343 bound_to 10162
  156.8047  130.9303  151.3645 LP  0  0  0  0  0  0  0  0  0  0  0  0  # atno 17370 bound_to 10713
  157.6549  130.8916  149.9709 LP  0  0  0  0  0  0  0  0  0  0  0  0  # atno 17371 bound_to 10713
  140.6833  133.9455  155.7923 LP  0  0  0  0  0  0  0  0  0  0  0  0  # atno 17394 bound_to 11000
  141.0495  134.0506  157.3802 LP  0  0  0  0  0  0  0  0  0  0  0  0  # atno 17395 bound_to 11000

$$$$
