AV-unprocessed.smi:1385|AV-procd|sdf|5634|dock10
  -GOLD-   22720 5253D 1   1.00000     0.00000
 Structure written by MMmdl.
 38 39  0  0  0  0  0  0  0  0  3 V2000
  143.2645  143.6973  162.1403 C   0  0  0  0  0  0  0  0  0  0  0  0
  144.4632  143.3972  161.3067 C   0  0  0  0  0  0  0  0  0  0  0  0
  145.3664  142.4692  161.6459 N   0  0  0  0  0  0  0  0  0  0  0  0
  146.3888  142.3645  160.7133 N   0  0  0  0  0  0  0  0  0  0  0  0
  146.2240  143.2180  159.6931 C   0  0  0  0  0  0  0  0  0  0  0  0
  147.1195  143.3182  158.5953 N   0  0  0  0  0  0  0  0  0  0  0  0
  147.7491  142.3263  157.9409 C   0  0  0  0  0  0  0  0  0  0  0  0
  147.6633  141.1279  158.2100 O   0  0  0  0  0  0  0  0  0  0  0  0
  148.4995  142.8053  156.9379 N   0  0  0  0  0  0  0  0  0  0  0  0
  149.2986  141.9917  156.0261 C   0  0  2  0  0  0  0  0  0  0  0  0
  148.4256  140.9410  155.3160 C   0  0  0  0  0  0  0  0  0  0  0  0
  149.2786  140.0173  154.4309 C   0  0  0  0  0  0  0  0  0  0  0  0
  150.3557  139.3596  155.2193 N   0  3  1  0  0  0  0  0  0  0  0  0
  151.1271  138.3621  154.4365 C   0  0  0  0  0  0  0  0  0  0  0  0
  152.3423  137.8870  155.2397 C   0  0  0  0  0  0  0  0  0  0  0  0
  152.1678  136.6571  155.7591 N   0  5  0  0  0  0  0  0  0  0  0  0
  153.3189  138.6247  155.3558 O   0  0  0  0  0  0  0  0  0  0  0  0
  151.2329  140.3565  155.8839 C   0  0  0  0  0  0  0  0  0  0  0  0
  150.4216  141.2855  156.8024 C   0  0  0  0  0  0  0  0  0  0  0  0
  144.7949  144.2324  159.7940 S   0  0  0  0  0  0  0  0  0  0  0  0
  143.4623  143.4716  163.1887 H   0  0  0  0  0  0  0  0  0  0  0  0
  142.4191  143.0961  161.8053 H   0  0  0  0  0  0  0  0  0  0  0  0
  143.0007  144.7516  162.0555 H   0  0  0  0  0  0  0  0  0  0  0  0
  147.2895  144.2555  158.2620 H   0  0  0  0  0  0  0  0  0  0  0  0
  148.5122  143.8035  156.7884 H   0  0  0  0  0  0  0  0  0  0  0  0
  149.7567  142.6404  155.2768 H   0  0  0  0  0  0  0  0  0  0  0  0
  147.8892  140.3419  156.0534 H   0  0  0  0  0  0  0  0  0  0  0  0
  147.6663  141.4307  154.7052 H   0  0  0  0  0  0  0  0  0  0  0  0
  148.6316  139.2671  153.9756 H   0  0  0  0  0  0  0  0  0  0  0  0
  149.7217  140.5876  153.6129 H   0  0  0  0  0  0  0  0  0  0  0  0
  150.4808  137.5407  154.1190 H   0  0  0  0  0  0  0  0  0  0  0  0
  151.5134  138.8205  153.5251 H   0  0  0  0  0  0  0  0  0  0  0  0
  151.5393  136.5468  156.5640 H   0  0  0  0  0  0  0  0  0  0  0  0
  151.9912  139.8430  156.4763 H   0  0  0  0  0  0  0  0  0  0  0  0
  151.7615  140.9392  155.1276 H   0  0  0  0  0  0  0  0  0  0  0  0
  151.0839  142.0233  157.2569 H   0  0  0  0  0  0  0  0  0  0  0  0
  149.9981  140.7025  157.6219 H   0  0  0  0  0  0  0  0  0  0  0  0
  149.9044  138.8384  155.9575 H   0  0  0  0  0  0  0  0  0  0  0  0
  1  2  1  0  0  0  0
  1 21  1  0  0  0  0
  1 22  1  0  0  0  0
  1 23  1  0  0  0  0
  2 20  1  0  0  0  0
  2  3  2  0  0  0  0
  3  4  1  0  0  0  0
  4  5  2  0  0  0  0
  5  6  1  0  0  0  0
  5 20  1  0  0  0  0
  6  7  1  0  0  0  0
  6 24  1  0  0  0  0
  7  8  2  0  0  0  0
  7  9  1  0  0  0  0
  9 10  1  0  0  0  0
  9 25  1  0  0  0  0
 10 19  1  0  0  0  0
 10 11  1  0  0  0  0
 10 26  1  0  0  0  0
 11 12  1  0  0  0  0
 11 27  1  0  0  0  0
 11 28  1  0  0  0  0
 12 13  1  0  0  0  0
 12 29  1  0  0  0  0
 12 30  1  0  0  0  0
 13 14  1  0  0  0  0
 13 18  1  0  0  0  0
 13 38  1  0  0  0  0
 14 15  1  0  0  0  0
 14 31  1  0  0  0  0
 14 32  1  0  0  0  0
 15 16  1  0  0  0  0
 15 17  2  0  0  0  0
 16 33  1  0  0  0  0
 18 19  1  0  0  0  0
 18 34  1  0  0  0  0
 18 35  1  0  0  0  0
 19 36  1  0  0  0  0
 19 37  1  0  0  0  0
M  CHG  1  13   1
M  CHG  1  16  -1
M  END
> <s_m_source_file>
AV-unprocessed.smi

> <i_m_source_file_index>
1385

> <i_lp_mmshare_version>
43012

> <i_f3d_flags>
0

> <s_epik_input>
W0NIM11jMW5uYyhzMSlbTkhdQyg9TylbTkhdW0NIXTJbQ0gyXVtDSDJdTihbQ0gyXVtDSDJdMilbQ0gyXUMoPU8pW05IMl0=

> <s_epik_cmdline>
J2VwaWtfcHl0aG9uJywgJy1waCcsICc3LjAnLCAnLXRuJywgJzgnLCAnLW1hJywgJzIwMCcsICctbWV0YWxfYmluZGluZycsICctaW1hZScsICc8aW5maWxlLm1hZT4nLCAnLW9tYWUnLCAnPG91dGZpbGUubWFlPic=

> <r_lp_tautomer_probability>
1

> <r_epik_Ionization_Penalty>
5.73549

> <r_epik_Ionization_Penalty_Charging>
5.73152

> <r_epik_Ionization_Penalty_Neutral>
0.00396448

> <r_epik_State_Penalty>
6.57436

> <r_epik_Charging_Adjusted_Penalty>
12.3059

> <i_epik_Tot_Q>
0

> <i_epik_Tot_abs_Q>
2

> <r_epik_Metal_State_Penalty>
2.87628

> <b_epik_Metal_Only>
1

> <s_lp_Force_Field>
OPLS_2005

> <r_lp_Energy>
6.06006

> <b_lp_Chiralities_Consistent>
1

> <s_lp_Variant>
AV-unprocessed.smi:1385-7

> <Gold.Version>
5.8.1

> <Gold.Id.Protein>
6NUR|6NUR_protein|mol2

> <Gold.PLP.Fitness>
46.2284

> <Gold.PLP.PLP>
-29.4077

> <Gold.PLP.part.hbond>
-7.1902

> <Gold.PLP.part.metal>
0.0000

> <Gold.PLP.part.buried>
0.7834

> <Gold.PLP.part.nonpolar>
-23.6520

> <Gold.PLP.part.repulsive>
0.2168

> <Gold.PLP.ligand.clash>
0.0000

> <Gold.PLP.ligand.torsion>
0.6062

> <Gold.PLP.Chemscore.Hbond>
6.0049

> <Gold.PLP.Chemscore.CHOScore>
0.0000

> <Gold.PLP.Chemscore.Metal>
0.0000

> <Gold.Chemscore.Hbonds>
donor molecule, donor type, donor heavy atom, donor atom, acceptor molecule, acceptor atom, score
      L1  H     6    24       P1  8029  0.99
      L1  H     9    25       P1  8028  0.46
      P1  H  6933  6944       L1     4  0.34
      P1  H  6934  6946       L1     4  1.00
      P1  H  7997  8010       L1    17  0.94
      P1  H 10752 10763       L1    16  2.00

> <Gold.PLP.Chemscore.Internal.Correction>
0.0185

> <Gold.Rescore>
     Score         DG    S(hbond)    S(metal)    S(lipo)     H(rot)  DE(clash)    DE(int)     intcor
     14.52     -20.53       3.98        0.00      59.71       2.04       2.77       3.24       ----

> <Gold.Chemscore.Fitness>
14.5241

> <Gold.Chemscore.DG>
-20.5340

> <Gold.Chemscore.ZeroCoef>
-5.4800

> <Gold.Chemscore.Hbond>
3.9767

> <Gold.Chemscore.Metal>
0.0000

> <Gold.Chemscore.Lipo>
59.7125

> <Gold.Chemscore.Internal_Hbond>
0.0000

> <Gold.Chemscore.DEClash>
2.7657

> <Gold.Chemscore.DEInternal>
3.2442

> <Gold.Chemscore.Rot>
2.0369

> <Gold.Chemscore.Internal.Correction>
   9.000000E+99

> <Gold.Chemscore.Hbonds>
donor molecule, donor type, donor heavy atom, donor atom, acceptor molecule, acceptor atom, score
      L1  H     6    24       P1  8029  0.56
      L1  H     9    25       P1  8028  0.05
      P1  H  6933  6944       L1     4  0.27
      P1  H  6934  6946       L1     4  0.63
      P1  H  7997  8010       L1    17  0.88
      P1  H 10752 10763       L1    16  0.77

> <Gold.Chemscore.Hbond.Weighted>
-13.2821

> <Gold.Chemscore.Metal.Weighted>
-0.0000

> <Gold.Chemscore.Lipo.Weighted>
-6.9864

> <Gold.Chemscore.Internal_Hbond.Weighted>
0.0000

> <Gold.Chemscore.DEClash.Weighted>
2.7657

> <Gold.Chemscore.DEInternal.Weighted>
3.2442

> <Gold.Chemscore.Rot.Weighted>
5.2144

> <Gold.Chemscore.Internal.Correction.Weighted>
   9.000000E+99

> <Gold.Protein.RotatedTorsions>
[ 6907 6896 6895 6894 ] final  -52.46 input  -60.11 | X-H torsion
[ 7974 7965 7964 7962 ] final  133.58 input  175.53 | X-H torsion
[ 8008 7997 7996 7995 ] final  104.47 input   59.86 | X-H torsion
[ 10167 10162 10161 10158 ] final  -36.90 input  -65.29 | X-H torsion
[ 10718 10713 10712 10709 ] final -130.17 input   66.30 | X-H torsion
[ 10763 10752 10751 10750 ] final   79.28 input  -60.55 | X-H torsion
[ 11005 11000 10999 10996 ] final  123.60 input  -57.11 | X-H torsion

> <Gold.Protein.ActiveResidues>
 VAL166  LYS551  ARG553  GLY616  TRP617  ASP618  TYR619  PRO620  LYS621  CYS622 
 ASP623  PHE694  ASN695  SER759  ASP760  ASP761  ALA762  ILE779  LEU786  VAL792 
 PHE793  MET794  SER795  GLU796  ALA797  LYS798  CYS799  TRP800  GLU811  SER814 

> <Gold.Protein.RotatedAtoms>
  150.8516  134.7842  159.7012 H   0  0  0  0  0  0  0  0  0  0  0  0  # atno 6907 bound_to 6896
  152.4579  134.5247  159.9803 H   0  0  0  0  0  0  0  0  0  0  0  0  # atno 6908 bound_to 6896
  151.5367  133.3401  159.2963 H   0  0  0  0  0  0  0  0  0  0  0  0  # atno 6909 bound_to 6896
  144.9850  139.4464  143.5367 H   0  0  0  0  0  0  0  0  0  0  0  0  # atno 7974 bound_to 7965
  156.1575  140.3147  155.8751 H   0  0  0  0  0  0  0  0  0  0  0  0  # atno 8008 bound_to 7997
  155.3848  140.0490  157.3059 H   0  0  0  0  0  0  0  0  0  0  0  0  # atno 8009 bound_to 7997
  154.5115  140.2166  155.9158 H   0  0  0  0  0  0  0  0  0  0  0  0  # atno 8010 bound_to 7997
  140.7131  143.3377  151.2426 H   0  0  0  0  0  0  0  0  0  0  0  0  # atno 10167 bound_to 10162
  156.2118  130.6923  151.0658 H   0  0  0  0  0  0  0  0  0  0  0  0  # atno 10718 bound_to 10713
  153.0940  135.4845  154.8744 H   0  0  0  0  0  0  0  0  0  0  0  0  # atno 10763 bound_to 10752
  154.7303  135.3058  154.8904 H   0  0  0  0  0  0  0  0  0  0  0  0  # atno 10764 bound_to 10752
  153.9542  135.6820  153.4797 H   0  0  0  0  0  0  0  0  0  0  0  0  # atno 10765 bound_to 10752
  139.9320  134.9641  156.8283 H   0  0  0  0  0  0  0  0  0  0  0  0  # atno 11005 bound_to 11000
  146.3418  139.9147  142.8775 LP  0  0  0  0  0  0  0  0  0  0  0  0  # atno 17320 bound_to 7965
  145.2366  140.9993  143.3960 LP  0  0  0  0  0  0  0  0  0  0  0  0  # atno 17321 bound_to 7965
  139.6877  143.9746  152.2843 LP  0  0  0  0  0  0  0  0  0  0  0  0  # atno 17342 bound_to 10162
  139.9397  144.6689  150.8279 LP  0  0  0  0  0  0  0  0  0  0  0  0  # atno 17343 bound_to 10162
  157.7042  131.0763  150.6721 LP  0  0  0  0  0  0  0  0  0  0  0  0  # atno 17370 bound_to 10713
  156.6781  130.4559  149.5636 LP  0  0  0  0  0  0  0  0  0  0  0  0  # atno 17371 bound_to 10713
  140.6177  134.0023  155.7604 LP  0  0  0  0  0  0  0  0  0  0  0  0  # atno 17394 bound_to 11000
  141.0913  133.9912  157.3232 LP  0  0  0  0  0  0  0  0  0  0  0  0  # atno 17395 bound_to 11000

$$$$
