AV-unprocessed.smi:234|AV-procd|sdf|1786|dock8
  -GOLD-   2262020343D 1   1.00000     0.00000
 Structure written by MMmdl.
 59 62  0  0  0  0  0  0  0  0  1 V2000
  151.4770  143.7221  158.2643 C   0  0  0  0  0  0  0  0  0  0  0  0
  150.9974  142.2646  158.2874 C   0  0  0  0  0  0  0  0  0  0  0  0
  150.6629  141.8030  156.9858 O   0  0  0  0  0  0  0  0  0  0  0  0
  150.0729  140.5100  156.9550 C   0  0  1  0  0  0  0  0  0  0  0  0
  148.7517  140.3971  157.7200 C   0  0  0  0  0  0  0  0  0  0  0  0
  148.3049  139.4737  156.5833 C   0  0  1  0  0  0  0  0  0  0  0  0
  146.8873  139.6085  156.2396 N   0  0  0  0  0  0  0  0  0  0  0  0
  145.9328  139.3010  157.2969 C   0  0  0  0  0  0  0  0  0  0  0  0
  146.5088  139.0267  155.0776 C   0  0  0  0  0  0  0  0  0  0  0  0
  146.6898  139.6733  153.8954 N   0  0  0  0  0  0  0  0  0  0  0  0
  146.3140  139.0921  152.7520 C   0  0  0  0  0  0  0  0  0  0  0  0
  145.7515  137.8954  152.5690 N   0  0  0  0  0  0  0  0  0  0  0  0
  145.5734  137.2438  153.7541 C   0  0  0  0  0  0  0  0  0  0  0  0
  145.9303  137.7306  155.0423 C   0  0  0  0  0  0  0  0  0  0  0  0
  145.6058  136.7938  156.0146 N   0  0  0  0  0  0  0  0  0  0  0  0
  145.0812  135.8079  155.3391 C   0  0  0  0  0  0  0  0  0  0  0  0
  145.0104  135.9990  153.9768 N   0  0  0  0  0  0  0  0  0  0  0  0
  144.4625  135.0719  152.9977 C   0  0  0  0  0  0  0  0  0  0  0  0
  145.5187  134.5447  151.9904 C   0  0  1  0  0  0  0  0  0  0  0  0
  145.9499  135.6385  151.1967 O   0  0  0  0  0  0  0  0  0  0  0  0
  146.7513  133.9381  152.6557 C   0  0  0  0  0  0  0  0  0  0  0  0
  147.2299  132.9219  151.6306 C   0  0  0  0  0  0  0  0  0  0  0  0
  146.0122  132.3703  151.1619 O   0  0  0  0  0  0  0  0  0  0  0  0
  145.0533  133.4167  151.0259 C   0  0  1  0  0  0  0  0  0  0  0  0
  143.6650  132.8113  151.2863 C   0  0  0  0  0  0  0  0  0  0  0  0
  149.2956  140.2250  155.6454 C   0  0  0  0  0  0  0  0  0  0  0  0
  148.7752  141.4697  154.9027 C   0  0  0  0  0  0  0  0  0  0  0  0
  150.0395  139.3703  154.6192 C   0  0  0  0  0  0  0  0  0  0  0  0
  151.6397  144.0899  159.2777 H   0  0  0  0  0  0  0  0  0  0  0  0
  150.7369  144.3681  157.7917 H   0  0  0  0  0  0  0  0  0  0  0  0
  152.4157  143.8330  157.7225 H   0  0  0  0  0  0  0  0  0  0  0  0
  151.7363  141.6156  158.7591 H   0  0  0  0  0  0  0  0  0  0  0  0
  150.0970  142.2018  158.8988 H   0  0  0  0  0  0  0  0  0  0  0  0
  150.7681  139.7043  157.1991 H   0  0  0  0  0  0  0  0  0  0  0  0
  148.8299  139.9155  158.6948 H   0  0  0  0  0  0  0  0  0  0  0  0
  148.2006  141.3376  157.7744 H   0  0  0  0  0  0  0  0  0  0  0  0
  148.6157  138.4439  156.7722 H   0  0  0  0  0  0  0  0  0  0  0  0
  144.9061  139.4668  156.9663 H   0  0  0  0  0  0  0  0  0  0  0  0
  146.1051  139.9373  158.1649 H   0  0  0  0  0  0  0  0  0  0  0  0
  146.0292  138.2610  157.6123 H   0  0  0  0  0  0  0  0  0  0  0  0
  146.4870  139.6694  151.8559 H   0  0  0  0  0  0  0  0  0  0  0  0
  144.7192  134.9108  155.8204 H   0  0  0  0  0  0  0  0  0  0  0  0
  144.0027  134.2459  153.5408 H   0  0  0  0  0  0  0  0  0  0  0  0
  143.6560  135.5811  152.4684 H   0  0  0  0  0  0  0  0  0  0  0  0
  146.8783  135.7555  151.3285 H   0  0  0  0  0  0  0  0  0  0  0  0
  147.5138  134.6692  152.9284 H   0  0  0  0  0  0  0  0  0  0  0  0
  146.4639  133.4034  153.5616 H   0  0  0  0  0  0  0  0  0  0  0  0
  147.7593  133.4073  150.8094 H   0  0  0  0  0  0  0  0  0  0  0  0
  147.8789  132.1591  152.0614 H   0  0  0  0  0  0  0  0  0  0  0  0
  145.0881  133.7627  149.9910 H   0  0  0  0  0  0  0  0  0  0  0  0
  142.8780  133.5578  151.1796 H   0  0  0  0  0  0  0  0  0  0  0  0
  143.5965  132.3808  152.2855 H   0  0  0  0  0  0  0  0  0  0  0  0
  143.4547  132.0144  150.5727 H   0  0  0  0  0  0  0  0  0  0  0  0
  148.1500  141.2016  154.0511 H   0  0  0  0  0  0  0  0  0  0  0  0
  149.5969  142.0733  154.5163 H   0  0  0  0  0  0  0  0  0  0  0  0
  148.1795  142.1163  155.5471 H   0  0  0  0  0  0  0  0  0  0  0  0
  149.4089  139.1269  153.7637 H   0  0  0  0  0  0  0  0  0  0  0  0
  150.3741  138.4269  155.0516 H   0  0  0  0  0  0  0  0  0  0  0  0
  150.9232  139.8845  154.2402 H   0  0  0  0  0  0  0  0  0  0  0  0
  1  2  1  0  0  0  0
  1 29  1  0  0  0  0
  1 30  1  0  0  0  0
  1 31  1  0  0  0  0
  2  3  1  0  0  0  0
  2 32  1  0  0  0  0
  2 33  1  0  0  0  0
  3  4  1  0  0  0  0
  4 26  1  0  0  0  0
  4  5  1  0  0  0  0
  4 34  1  0  0  0  0
  5  6  1  0  0  0  0
  5 35  1  0  0  0  0
  5 36  1  0  0  0  0
  6  7  1  0  0  0  0
  6 26  1  0  0  0  0
  6 37  1  0  0  0  0
  7  8  1  0  0  0  0
  7  9  1  0  0  0  0
  8 38  1  0  0  0  0
  8 39  1  0  0  0  0
  8 40  1  0  0  0  0
  9 14  1  0  0  0  0
  9 10  2  0  0  0  0
 10 11  1  0  0  0  0
 11 12  2  0  0  0  0
 11 41  1  0  0  0  0
 12 13  1  0  0  0  0
 13 17  1  0  0  0  0
 13 14  2  0  0  0  0
 14 15  1  0  0  0  0
 15 16  2  0  0  0  0
 16 17  1  0  0  0  0
 16 42  1  0  0  0  0
 17 18  1  0  0  0  0
 18 19  1  0  0  0  0
 18 43  1  0  0  0  0
 18 44  1  0  0  0  0
 19 24  1  0  0  0  0
 19 20  1  0  0  0  0
 19 21  1  0  0  0  0
 20 45  1  0  0  0  0
 21 22  1  0  0  0  0
 21 46  1  0  0  0  0
 21 47  1  0  0  0  0
 22 23  1  0  0  0  0
 22 48  1  0  0  0  0
 22 49  1  0  0  0  0
 23 24  1  0  0  0  0
 24 25  1  0  0  0  0
 24 50  1  0  0  0  0
 25 51  1  0  0  0  0
 25 52  1  0  0  0  0
 25 53  1  0  0  0  0
 26 27  1  0  0  0  0
 26 28  1  0  0  0  0
 27 54  1  0  0  0  0
 27 55  1  0  0  0  0
 27 56  1  0  0  0  0
 28 57  1  0  0  0  0
 28 58  1  0  0  0  0
 28 59  1  0  0  0  0
M  END
> <s_m_source_file>
AV-unprocessed.smi

> <i_m_source_file_index>
234

> <i_lp_mmshare_version>
43012

> <i_f3d_flags>
0

> <s_epik_input>
W0NIM11bQ0gyXU9bQ0BASF0oQzEoW0NIM10pW0NIM10pW0NIMl1bQ0BIXTFOKFtDSDNdKWMobltjSF1uMiljKGMyMyluW2NIXW4zW0NIMl1bQ0BAXTQoW09IXSlbQ0gyXVtDSDJdT1tDQEhdNFtDSDNd

> <s_epik_cmdline>
J2VwaWtfcHl0aG9uJywgJy1waCcsICc3LjAnLCAnLXRuJywgJzgnLCAnLW1hJywgJzIwMCcsICctbWV0YWxfYmluZGluZycsICctaW1hZScsICc8aW5maWxlLm1hZT4nLCAnLW9tYWUnLCAnPG91dGZpbGUubWFlPic=

> <r_lp_tautomer_probability>
1

> <r_epik_Ionization_Penalty>
0.00349132

> <r_epik_Ionization_Penalty_Charging>
0

> <r_epik_Ionization_Penalty_Neutral>
0.00349132

> <r_epik_State_Penalty>
0.00242418

> <r_epik_Charging_Adjusted_Penalty>
0.00242418

> <i_epik_Tot_Q>
0

> <i_epik_Tot_abs_Q>
0

> <r_epik_Metal_State_Penalty>
-0

> <b_epik_Metal_Only>
0

> <s_lp_Force_Field>
OPLS_2005

> <r_lp_Energy>
47.6345

> <b_lp_Chiralities_Consistent>
1

> <s_lp_Variant>
AV-unprocessed.smi:234-2

> <Gold.Version>
5.8.1

> <Gold.Id.Protein>
6NUR|6NUR_protein|mol2

> <Gold.PLP.Fitness>
39.1000

> <Gold.PLP.PLP>
-35.0146

> <Gold.PLP.part.hbond>
-1.0000

> <Gold.PLP.part.metal>
0.0000

> <Gold.PLP.part.buried>
-4.5384

> <Gold.PLP.part.nonpolar>
-29.5780

> <Gold.PLP.part.repulsive>
0.7537

> <Gold.PLP.ligand.clash>
0.0877

> <Gold.PLP.ligand.torsion>
0.9340

> <Gold.PLP.Chemscore.Hbond>
1.0000

> <Gold.PLP.Chemscore.CHOScore>
0.7789

> <Gold.PLP.Chemscore.Metal>
0.0000

> <Gold.Chemscore.Hbonds>
donor molecule, donor type, donor heavy atom, donor atom, acceptor molecule, acceptor atom, score
      L1  H    20    45       P1  7948  0.70

> <Gold.PLP.Chemscore.Internal.Correction>
0.7044

> <Gold.Rescore>
     Score         DG    S(hbond)    S(metal)    S(lipo)     H(rot)  DE(clash)    DE(int)     intcor
      8.95     -11.43       0.99        0.00      80.04       2.62       0.01       2.47       ----

> <Gold.Chemscore.Fitness>
8.9453

> <Gold.Chemscore.DG>
-11.4277

> <Gold.Chemscore.ZeroCoef>
-5.4800

> <Gold.Chemscore.Hbond>
0.9866

> <Gold.Chemscore.Metal>
0.0000

> <Gold.Chemscore.Lipo>
80.0400

> <Gold.Chemscore.Internal_Hbond>
0.0000

> <Gold.Chemscore.DEClash>
0.0103

> <Gold.Chemscore.DEInternal>
2.4721

> <Gold.Chemscore.Rot>
2.6219

> <Gold.Chemscore.Internal.Correction>
   9.000000E+99

> <Gold.Chemscore.Hbonds>
donor molecule, donor type, donor heavy atom, donor atom, acceptor molecule, acceptor atom, score
      L1  H    20    45       P1  7948  0.68

> <Gold.Chemscore.Hbond.Weighted>
-3.2951

> <Gold.Chemscore.Metal.Weighted>
-0.0000

> <Gold.Chemscore.Lipo.Weighted>
-9.3647

> <Gold.Chemscore.Internal_Hbond.Weighted>
0.0000

> <Gold.Chemscore.DEClash.Weighted>
0.0103

> <Gold.Chemscore.DEInternal.Weighted>
2.4721

> <Gold.Chemscore.Rot.Weighted>
6.7121

> <Gold.Chemscore.Internal.Correction.Weighted>
   9.000000E+99

> <Gold.Protein.RotatedTorsions>
[ 6907 6896 6895 6894 ] final   88.21 input  -60.11 | X-H torsion
[ 7974 7965 7964 7962 ] final -122.96 input  175.53 | X-H torsion
[ 8008 7997 7996 7995 ] final -137.70 input   59.86 | X-H torsion
[ 10167 10162 10161 10158 ] final  142.37 input  -65.29 | X-H torsion
[ 10718 10713 10712 10709 ] final  -73.74 input   66.30 | X-H torsion
[ 10763 10752 10751 10750 ] final  -71.84 input  -60.55 | X-H torsion
[ 11005 11000 10999 10996 ] final  156.10 input  -57.11 | X-H torsion

> <Gold.Protein.ActiveResidues>
 VAL166  LYS551  ARG553  GLY616  TRP617  ASP618  TYR619  PRO620  LYS621  CYS622 
 ASP623  PHE694  ASN695  SER759  ASP760  ASP761  ALA762  ILE779  LEU786  VAL792 
 PHE793  MET794  SER795  GLU796  ALA797  LYS798  CYS799  TRP800  GLU811  SER814 

> <Gold.Protein.RotatedAtoms>
  152.5422  134.2156  159.8766 H   0  0  0  0  0  0  0  0  0  0  0  0  # atno 6907 bound_to 6896
  151.2136  133.4535  159.2606 H   0  0  0  0  0  0  0  0  0  0  0  0  # atno 6908 bound_to 6896
  151.0873  134.9907  159.8441 H   0  0  0  0  0  0  0  0  0  0  0  0  # atno 6909 bound_to 6896
  145.0238  140.8011  143.4364 H   0  0  0  0  0  0  0  0  0  0  0  0  # atno 7974 bound_to 7965
  155.4162  140.0515  157.3028 H   0  0  0  0  0  0  0  0  0  0  0  0  # atno 8008 bound_to 7997
  154.4923  140.2125  155.9480 H   0  0  0  0  0  0  0  0  0  0  0  0  # atno 8009 bound_to 7997
  156.1359  140.3163  155.8425 H   0  0  0  0  0  0  0  0  0  0  0  0  # atno 8010 bound_to 7997
  139.4996  144.6111  151.6268 H   0  0  0  0  0  0  0  0  0  0  0  0  # atno 10167 bound_to 10162
  156.0269  130.4401  150.2787 H   0  0  0  0  0  0  0  0  0  0  0  0  # atno 10718 bound_to 10713
  154.4374  135.5949  153.6107 H   0  0  0  0  0  0  0  0  0  0  0  0  # atno 10763 bound_to 10752
  152.9803  135.5990  154.3765 H   0  0  0  0  0  0  0  0  0  0  0  0  # atno 10764 bound_to 10752
  154.3610  135.2841  155.2298 H   0  0  0  0  0  0  0  0  0  0  0  0  # atno 10765 bound_to 10752
  140.1643  134.8588  157.2613 H   0  0  0  0  0  0  0  0  0  0  0  0  # atno 11005 bound_to 11000
  145.1860  139.2326  143.5267 LP  0  0  0  0  0  0  0  0  0  0  0  0  # atno 17320 bound_to 7965
  146.3489  140.1645  142.8590 LP  0  0  0  0  0  0  0  0  0  0  0  0  # atno 17321 bound_to 7965
  140.5786  143.9985  150.6256 LP  0  0  0  0  0  0  0  0  0  0  0  0  # atno 17342 bound_to 10162
  140.3126  143.3188  152.0863 LP  0  0  0  0  0  0  0  0  0  0  0  0  # atno 17343 bound_to 10162
  157.0890  131.0164  151.3128 LP  0  0  0  0  0  0  0  0  0  0  0  0  # atno 17370 bound_to 10713
  157.4868  130.7798  149.7468 LP  0  0  0  0  0  0  0  0  0  0  0  0  # atno 17371 bound_to 10713
  140.2452  134.3748  155.7464 LP  0  0  0  0  0  0  0  0  0  0  0  0  # atno 17394 bound_to 11000
  141.2212  133.7287  156.8851 LP  0  0  0  0  0  0  0  0  0  0  0  0  # atno 17395 bound_to 11000

$$$$
