AV-unprocessed.smi:3100|AV-procd|sdf|11805|dock6
  -GOLD-   2272017183D 1   1.00000     0.00000
 Structure written by MMmdl.
 28 29  0  0  0  0  0  0  0  0  1 V2000
  152.5987  143.3305  161.5872 C   0  0  0  0  0  0  0  0  0  0  0  0
  151.9959  143.6705  160.2204 C   0  0  1  0  0  0  0  0  0  0  0  0
  153.0239  143.8193  159.1048 C   0  0  0  0  0  0  0  0  0  0  0  0
  152.1628  143.6423  157.8706 C   0  0  0  0  0  0  0  0  0  0  0  0
  151.0597  142.6755  158.3375 C   0  0  1  0  0  0  0  0  0  0  0  0
  151.2057  141.2540  157.7814 C   0  0  0  0  0  0  0  0  0  0  0  0
  151.3809  140.3099  158.5528 O   0  0  0  0  0  0  0  0  0  0  0  0
  151.1132  141.1391  156.4437 N   0  0  0  0  0  0  0  0  0  0  0  0
  151.2246  139.9637  155.6554 C   0  0  0  0  0  0  0  0  0  0  0  0
  152.1089  138.9748  156.1474 C   0  0  0  0  0  0  0  0  0  0  0  0
  152.3183  137.8011  155.5105 N   0  0  0  0  0  0  0  0  0  0  0  0
  151.6355  137.6072  154.3620 C   0  0  0  0  0  0  0  0  0  0  0  0
  150.7503  138.5804  153.8570 C   0  0  0  0  0  0  0  0  0  0  0  0
  150.5455  139.7509  154.4991 N   0  0  0  0  0  0  0  0  0  0  0  0
  151.1729  142.6092  159.7585 O   0  0  0  0  0  0  0  0  0  0  0  0
  153.2590  144.1266  161.9323 H   0  0  0  0  0  0  0  0  0  0  0  0
  153.1782  142.4078  161.5452 H   0  0  0  0  0  0  0  0  0  0  0  0
  151.8167  143.1982  162.3349 H   0  0  0  0  0  0  0  0  0  0  0  0
  151.3903  144.5758  160.2895 H   0  0  0  0  0  0  0  0  0  0  0  0
  153.5464  144.7760  159.1287 H   0  0  0  0  0  0  0  0  0  0  0  0
  153.7658  143.0210  159.1588 H   0  0  0  0  0  0  0  0  0  0  0  0
  151.7177  144.5970  157.5874 H   0  0  0  0  0  0  0  0  0  0  0  0
  152.7375  143.2849  157.0147 H   0  0  0  0  0  0  0  0  0  0  0  0
  150.0816  143.0830  158.0762 H   0  0  0  0  0  0  0  0  0  0  0  0
  150.9486  141.9940  155.9323 H   0  0  0  0  0  0  0  0  0  0  0  0
  152.6571  139.1245  157.0663 H   0  0  0  0  0  0  0  0  0  0  0  0
  151.7944  136.6727  153.8445 H   0  0  0  0  0  0  0  0  0  0  0  0
  150.2061  138.4200  152.9380 H   0  0  0  0  0  0  0  0  0  0  0  0
  1  2  1  0  0  0  0
  1 16  1  0  0  0  0
  1 17  1  0  0  0  0
  1 18  1  0  0  0  0
  2 15  1  0  0  0  0
  2  3  1  0  0  0  0
  2 19  1  0  0  0  0
  3  4  1  0  0  0  0
  3 20  1  0  0  0  0
  3 21  1  0  0  0  0
  4  5  1  0  0  0  0
  4 22  1  0  0  0  0
  4 23  1  0  0  0  0
  5  6  1  0  0  0  0
  5 15  1  0  0  0  0
  5 24  1  0  0  0  0
  6  7  2  0  0  0  0
  6  8  1  0  0  0  0
  8  9  1  0  0  0  0
  8 25  1  0  0  0  0
  9 14  1  0  0  0  0
  9 10  2  0  0  0  0
 10 11  1  0  0  0  0
 10 26  1  0  0  0  0
 11 12  2  0  0  0  0
 12 13  1  0  0  0  0
 12 27  1  0  0  0  0
 13 14  2  0  0  0  0
 13 28  1  0  0  0  0
M  END
> <s_m_source_file>
AV-unprocessed.smi

> <i_m_source_file_index>
3100

> <i_lp_mmshare_version>
43012

> <i_f3d_flags>
0

> <s_epik_input>
W0NIM11bQ0BASF0xW0NIMl1bQ0gyXVtDQEhdKE8xKUMoPU8pW05IXWMyW2NIXW5bY0hdW2NIXW4y

> <s_epik_cmdline>
J2VwaWtfcHl0aG9uJywgJy1waCcsICc3LjAnLCAnLXRuJywgJzgnLCAnLW1hJywgJzIwMCcsICctbWV0YWxfYmluZGluZycsICctaW1hZScsICc8aW5maWxlLm1hZT4nLCAnLW9tYWUnLCAnPG91dGZpbGUubWFlPic=

> <r_lp_tautomer_probability>
1

> <r_epik_Ionization_Penalty>
2.81186e-06

> <r_epik_Ionization_Penalty_Charging>
0

> <r_epik_Ionization_Penalty_Neutral>
2.81186e-06

> <r_epik_State_Penalty>
-0

> <r_epik_Charging_Adjusted_Penalty>
0

> <i_epik_Tot_Q>
0

> <i_epik_Tot_abs_Q>
0

> <r_epik_Metal_State_Penalty>
-0

> <b_epik_Metal_Only>
0

> <s_lp_Force_Field>
OPLS_2005

> <r_lp_Energy>
25.9666

> <b_lp_Chiralities_Consistent>
1

> <s_lp_Variant>
AV-unprocessed.smi:3100-2

> <Gold.Version>
5.8.1

> <Gold.Id.Protein>
6NUR|6NUR_protein|mol2

> <Gold.PLP.Fitness>
41.1856

> <Gold.PLP.PLP>
-31.3928

> <Gold.PLP.part.hbond>
-2.3076

> <Gold.PLP.part.metal>
0.0000

> <Gold.PLP.part.buried>
-5.1638

> <Gold.PLP.part.nonpolar>
-24.7526

> <Gold.PLP.part.repulsive>
0.2397

> <Gold.PLP.ligand.clash>
0.0000

> <Gold.PLP.ligand.torsion>
0.2274

> <Gold.PLP.Chemscore.Hbond>
0.7500

> <Gold.PLP.Chemscore.CHOScore>
2.6633

> <Gold.PLP.Chemscore.Metal>
0.0000

> <Gold.Chemscore.Hbonds>
donor molecule, donor type, donor heavy atom, donor atom, acceptor molecule, acceptor atom, score
      P1  H  7989  7998       L1    14  0.75
      L1  C    12    27       P1  7949  1.00
      L1  C    13    28       P1  7948  0.59
      L1  C    13    28       P1  7957  1.00

> <Gold.PLP.Chemscore.Internal.Correction>
0.0076

> <Gold.Rescore>
     Score         DG    S(hbond)    S(metal)    S(lipo)     H(rot)  DE(clash)    DE(int)     intcor
     13.37     -15.40       0.93        0.00      80.18       1.00       0.48       1.55       ----

> <Gold.Chemscore.Fitness>
13.3671

> <Gold.Chemscore.DG>
-15.3988

> <Gold.Chemscore.ZeroCoef>
-5.4800

> <Gold.Chemscore.Hbond>
0.9276

> <Gold.Chemscore.Metal>
0.0000

> <Gold.Chemscore.Lipo>
80.1772

> <Gold.Chemscore.Internal_Hbond>
0.0000

> <Gold.Chemscore.DEClash>
0.4796

> <Gold.Chemscore.DEInternal>
1.5522

> <Gold.Chemscore.Rot>
1.0000

> <Gold.Chemscore.Internal.Correction>
   9.000000E+99

> <Gold.Chemscore.Hbonds>
donor molecule, donor type, donor heavy atom, donor atom, acceptor molecule, acceptor atom, score
      P1  H  7989  7998       L1    14  0.02

> <Gold.Chemscore.Hbond.Weighted>
-3.0981

> <Gold.Chemscore.Metal.Weighted>
-0.0000

> <Gold.Chemscore.Lipo.Weighted>
-9.3807

> <Gold.Chemscore.Internal_Hbond.Weighted>
0.0000

> <Gold.Chemscore.DEClash.Weighted>
0.4796

> <Gold.Chemscore.DEInternal.Weighted>
1.5522

> <Gold.Chemscore.Rot.Weighted>
2.5600

> <Gold.Chemscore.Internal.Correction.Weighted>
   9.000000E+99

> <Gold.Protein.RotatedTorsions>
[ 6907 6896 6895 6894 ] final -143.56 input  -60.11 | X-H torsion
[ 7974 7965 7964 7962 ] final   32.80 input  175.53 | X-H torsion
[ 8008 7997 7996 7995 ] final   77.44 input   59.86 | X-H torsion
[ 10167 10162 10161 10158 ] final -137.13 input  -65.29 | X-H torsion
[ 10718 10713 10712 10709 ] final -174.32 input   66.30 | X-H torsion
[ 10763 10752 10751 10750 ] final  142.10 input  -60.55 | X-H torsion
[ 11005 11000 10999 10996 ] final   28.79 input  -57.11 | X-H torsion

> <Gold.Protein.ActiveResidues>
 VAL166  LYS551  ARG553  GLY616  TRP617  ASP618  TYR619  PRO620  LYS621  CYS622 
 ASP623  PHE694  ASN695  SER759  ASP760  ASP761  ALA762  ILE779  LEU786  VAL792 
 PHE793  MET794  SER795  GLU796  ALA797  LYS798  CYS799  TRP800  GLU811  SER814 

> <Gold.Protein.RotatedAtoms>
  151.1022  133.5235  159.2609 H   0  0  0  0  0  0  0  0  0  0  0  0  # atno 6907 bound_to 6896
  151.2061  135.0462  159.8902 H   0  0  0  0  0  0  0  0  0  0  0  0  # atno 6908 bound_to 6896
  152.5444  134.0844  159.8303 H   0  0  0  0  0  0  0  0  0  0  0  0  # atno 6909 bound_to 6896
  146.1463  139.6479  142.9129 H   0  0  0  0  0  0  0  0  0  0  0  0  # atno 7974 bound_to 7965
  155.8416  140.3462  155.5636 H   0  0  0  0  0  0  0  0  0  0  0  0  # atno 8008 bound_to 7997
  155.8134  140.0902  157.1910 H   0  0  0  0  0  0  0  0  0  0  0  0  # atno 8009 bound_to 7997
  154.4005  140.1443  156.3401 H   0  0  0  0  0  0  0  0  0  0  0  0  # atno 8010 bound_to 7997
  139.8609  143.7079  152.2650 H   0  0  0  0  0  0  0  0  0  0  0  0  # atno 10167 bound_to 10162
  156.7833  130.9491  151.3120 H   0  0  0  0  0  0  0  0  0  0  0  0  # atno 10718 bound_to 10713
  153.9502  135.2971  155.3439 H   0  0  0  0  0  0  0  0  0  0  0  0  # atno 10763 bound_to 10752
  154.7430  135.5016  153.9159 H   0  0  0  0  0  0  0  0  0  0  0  0  # atno 10764 bound_to 10752
  153.0998  135.6731  153.9803 H   0  0  0  0  0  0  0  0  0  0  0  0  # atno 10765 bound_to 10752
  140.3119  134.2640  155.7733 H   0  0  0  0  0  0  0  0  0  0  0  0  # atno 11005 bound_to 11000
  145.4930  141.0438  143.2582 LP  0  0  0  0  0  0  0  0  0  0  0  0  # atno 17320 bound_to 7965
  144.7850  139.6446  143.7138 LP  0  0  0  0  0  0  0  0  0  0  0  0  # atno 17321 bound_to 7965
  139.7375  144.7567  151.0704 LP  0  0  0  0  0  0  0  0  0  0  0  0  # atno 17342 bound_to 10162
  140.7775  143.5013  150.9768 LP  0  0  0  0  0  0  0  0  0  0  0  0  # atno 17343 bound_to 10162
  157.6636  130.8987  149.9883 LP  0  0  0  0  0  0  0  0  0  0  0  0  # atno 17370 bound_to 10713
  156.1204  130.3646  149.9896 LP  0  0  0  0  0  0  0  0  0  0  0  0  # atno 17371 bound_to 10713
  141.2106  133.7714  156.9919 LP  0  0  0  0  0  0  0  0  0  0  0  0  # atno 17394 bound_to 11000
  140.1017  134.9531  157.1934 LP  0  0  0  0  0  0  0  0  0  0  0  0  # atno 17395 bound_to 11000

$$$$
