AV-unprocessed.smi:3012|AV-procd|sdf|11461|dock5
  -GOLD-   2272016393D 1   1.00000     0.00000
 Structure written by MMmdl.
 17 17  0  0  0  0  0  0  0  0  2 V2000
  153.4045  139.2370  154.8503 O   0  0  0  0  0  0  0  0  0  0  0  0
  152.4972  138.3785  154.7928 C   0  0  0  0  0  0  0  0  0  0  0  0
  152.4429  137.4272  153.9828 O   0  5  0  0  0  0  0  0  0  0  0  0
  151.3538  138.5048  155.8001 C   0  0  0  0  0  0  0  0  0  0  0  0
  150.6395  139.8439  155.7176 C   0  0  0  0  0  0  0  0  0  0  0  0
  149.8488  140.2080  154.6755 C   0  0  0  0  0  0  0  0  0  0  0  0
  149.1742  141.5060  154.6681 C   0  0  0  0  0  0  0  0  0  0  0  0
  148.4453  141.9200  153.7689 O   0  0  0  0  0  0  0  0  0  0  0  0
  149.4113  142.2955  155.8003 N   0  0  0  0  0  0  0  0  0  0  0  0
  150.2151  141.9277  156.8803 C   0  0  0  0  0  0  0  0  0  0  0  0
  150.3788  142.6703  157.8453 O   0  0  0  0  0  0  0  0  0  0  0  0
  150.8234  140.6725  156.8086 N   0  0  0  0  0  0  0  0  0  0  0  0
  148.9657  143.2006  155.8379 H   0  0  0  0  0  0  0  0  0  0  0  0
  151.4137  140.3856  157.5761 H   0  0  0  0  0  0  0  0  0  0  0  0
  150.6312  137.7068  155.6253 H   0  0  0  0  0  0  0  0  0  0  0  0
  151.7462  138.3465  156.8060 H   0  0  0  0  0  0  0  0  0  0  0  0
  149.7134  139.5369  153.8393 H   0  0  0  0  0  0  0  0  0  0  0  0
  1  2  2  0  0  0  0
  2  3  1  0  0  0  0
  2  4  1  0  0  0  0
  4  5  1  0  0  0  0
  4 15  1  0  0  0  0
  4 16  1  0  0  0  0
  5 12  1  0  0  0  0
  5  6  2  0  0  0  0
  6  7  1  0  0  0  0
  6 17  1  0  0  0  0
  7  8  2  0  0  0  0
  7  9  1  0  0  0  0
  9 13  1  0  0  0  0
  9 10  1  0  0  0  0
 10 11  2  0  0  0  0
 10 12  1  0  0  0  0
 12 14  1  0  0  0  0
M  CHG  1   3  -1
M  END
> <s_m_source_file>
AV-unprocessed.smi

> <i_m_source_file_index>
3012

> <i_lp_mmshare_version>
43012

> <i_f3d_flags>
0

> <s_epik_input>
Tz1DKFtPSF0pW0NIMl1jMVtjSF1jKD1PKVtuSF1jKD1PKVtuSF0x

> <s_epik_cmdline>
J2VwaWtfcHl0aG9uJywgJy1waCcsICc3LjAnLCAnLXRuJywgJzgnLCAnLW1hJywgJzIwMCcsICctbWV0YWxfYmluZGluZycsICctaW1hZScsICc8aW5maWxlLm1hZT4nLCAnLW9tYWUnLCAnPG91dGZpbGUubWFlPic=

> <r_lp_tautomer_probability>
1

> <r_epik_Ionization_Penalty>
0.00187741

> <r_epik_Ionization_Penalty_Charging>
0.00187741

> <r_epik_Ionization_Penalty_Neutral>
1.02484e-13

> <r_epik_State_Penalty>
-0

> <r_epik_Charging_Adjusted_Penalty>
0.00187741

> <i_epik_Tot_Q>
-1

> <i_epik_Tot_abs_Q>
1

> <r_epik_Metal_State_Penalty>
0.67268

> <b_epik_Metal_Only>
0

> <s_lp_Force_Field>
OPLS_2005

> <r_lp_Energy>
0.757272

> <b_lp_Chiralities_Consistent>
1

> <s_lp_Variant>
AV-unprocessed.smi:3012-1

> <Gold.Version>
5.8.1

> <Gold.Id.Protein>
6NUR|6NUR_protein|mol2

> <Gold.PLP.Fitness>
35.1697

> <Gold.PLP.PLP>
-20.2124

> <Gold.PLP.part.hbond>
-4.1138

> <Gold.PLP.part.metal>
0.0000

> <Gold.PLP.part.buried>
-2.5430

> <Gold.PLP.part.nonpolar>
-14.8909

> <Gold.PLP.part.repulsive>
0.9520

> <Gold.PLP.ligand.clash>
0.0000

> <Gold.PLP.ligand.torsion>
0.0877

> <Gold.PLP.Chemscore.Hbond>
5.0438

> <Gold.PLP.Chemscore.CHOScore>
0.0000

> <Gold.PLP.Chemscore.Metal>
0.0000

> <Gold.Chemscore.Hbonds>
donor molecule, donor type, donor heavy atom, donor atom, acceptor molecule, acceptor atom, score
      L1  H     9    13       P1  8028  0.99
      P1  H  7997  8009       L1     1  2.00
      P1  H  8011  8017       L1     8  0.46
      P1  H 10752 10765       L1     3  1.50

> <Gold.PLP.Chemscore.Internal.Correction>
0.0012

> <Gold.Rescore>
     Score         DG    S(hbond)    S(metal)    S(lipo)     H(rot)  DE(clash)    DE(int)     intcor
     13.15     -13.41       3.02        0.00      18.90       1.70       0.09       0.18       ----

> <Gold.Chemscore.Fitness>
13.1513

> <Gold.Chemscore.DG>
-13.4128

> <Gold.Chemscore.ZeroCoef>
-5.4800

> <Gold.Chemscore.Hbond>
3.0156

> <Gold.Chemscore.Metal>
0.0000

> <Gold.Chemscore.Lipo>
18.9042

> <Gold.Chemscore.Internal_Hbond>
0.0000

> <Gold.Chemscore.DEClash>
0.0863

> <Gold.Chemscore.DEInternal>
0.1752

> <Gold.Chemscore.Rot>
1.6997

> <Gold.Chemscore.Internal.Correction>
   9.000000E+99

> <Gold.Chemscore.Hbonds>
donor molecule, donor type, donor heavy atom, donor atom, acceptor molecule, acceptor atom, score
      L1  H     9    13       P1  8028  0.91
      P1  H  7997  8009       L1     1  1.00
      P1  H  8011  8017       L1     8  0.17
      P1  H 10752 10765       L1     3  0.76

> <Gold.Chemscore.Hbond.Weighted>
-10.0722

> <Gold.Chemscore.Metal.Weighted>
-0.0000

> <Gold.Chemscore.Lipo.Weighted>
-2.2118

> <Gold.Chemscore.Internal_Hbond.Weighted>
0.0000

> <Gold.Chemscore.DEClash.Weighted>
0.0863

> <Gold.Chemscore.DEInternal.Weighted>
0.1752

> <Gold.Chemscore.Rot.Weighted>
4.3512

> <Gold.Chemscore.Internal.Correction.Weighted>
   9.000000E+99

> <Gold.Protein.RotatedTorsions>
[ 6907 6896 6895 6894 ] final -179.07 input  -60.11 | X-H torsion
[ 7974 7965 7964 7962 ] final -158.83 input  175.53 | X-H torsion
[ 8008 7997 7996 7995 ] final -126.40 input   59.86 | X-H torsion
[ 10167 10162 10161 10158 ] final   99.42 input  -65.29 | X-H torsion
[ 10718 10713 10712 10709 ] final  -45.66 input   66.30 | X-H torsion
[ 10763 10752 10751 10750 ] final  138.54 input  -60.55 | X-H torsion
[ 11005 11000 10999 10996 ] final  -72.88 input  -57.11 | X-H torsion

> <Gold.Protein.ActiveResidues>
 VAL166  LYS551  ARG553  GLY616  TRP617  ASP618  TYR619  PRO620  LYS621  CYS622 
 ASP623  PHE694  ASN695  SER759  ASP760  ASP761  ALA762  ILE779  LEU786  VAL792 
 PHE793  MET794  SER795  GLU796  ALA797  LYS798  CYS799  TRP800  GLU811  SER814 

> <Gold.Protein.RotatedAtoms>
  151.6474  133.3322  159.3143 H   0  0  0  0  0  0  0  0  0  0  0  0  # atno 6907 bound_to 6896
  150.7977  134.7052  159.6582 H   0  0  0  0  0  0  0  0  0  0  0  0  # atno 6908 bound_to 6896
  152.4066  134.6201  160.0100 H   0  0  0  0  0  0  0  0  0  0  0  0  # atno 6909 bound_to 6896
  144.7489  140.3771  143.6063 H   0  0  0  0  0  0  0  0  0  0  0  0  # atno 7974 bound_to 7965
  155.2291  140.0424  157.2959 H   0  0  0  0  0  0  0  0  0  0  0  0  # atno 8008 bound_to 7997
  154.5900  140.2424  155.7904 H   0  0  0  0  0  0  0  0  0  0  0  0  # atno 8009 bound_to 7997
  156.2253  140.2956  156.0059 H   0  0  0  0  0  0  0  0  0  0  0  0  # atno 8010 bound_to 7997
  139.7619  144.6951  151.0280 H   0  0  0  0  0  0  0  0  0  0  0  0  # atno 10167 bound_to 10162
  156.2261  130.4169  149.8933 H   0  0  0  0  0  0  0  0  0  0  0  0  # atno 10718 bound_to 10713
  153.8913  135.3033  155.3447 H   0  0  0  0  0  0  0  0  0  0  0  0  # atno 10763 bound_to 10752
  154.7715  135.4883  153.9661 H   0  0  0  0  0  0  0  0  0  0  0  0  # atno 10764 bound_to 10752
  153.1296  135.6801  153.9299 H   0  0  0  0  0  0  0  0  0  0  0  0  # atno 10765 bound_to 10752
  141.1615  133.6860  156.7126 H   0  0  0  0  0  0  0  0  0  0  0  0  # atno 11005 bound_to 11000
  145.7016  139.1662  143.2589 LP  0  0  0  0  0  0  0  0  0  0  0  0  # atno 17320 bound_to 7965
  146.1411  140.7056  142.9366 LP  0  0  0  0  0  0  0  0  0  0  0  0  # atno 17321 bound_to 7965
  140.7808  143.4687  151.0176 LP  0  0  0  0  0  0  0  0  0  0  0  0  # atno 17342 bound_to 10162
  139.8373  143.7610  152.3180 LP  0  0  0  0  0  0  0  0  0  0  0  0  # atno 17343 bound_to 10162
  156.6563  130.8764  151.3540 LP  0  0  0  0  0  0  0  0  0  0  0  0  # atno 17370 bound_to 10713
  157.7111  130.9441  150.1092 LP  0  0  0  0  0  0  0  0  0  0  0  0  # atno 17371 bound_to 10713
  140.2876  134.8267  157.3988 LP  0  0  0  0  0  0  0  0  0  0  0  0  # atno 17394 bound_to 11000
  140.1376  134.5013  155.8056 LP  0  0  0  0  0  0  0  0  0  0  0  0  # atno 17395 bound_to 11000

$$$$
