AV-unprocessed.smi:36|AV-procd|sdf|280|dock3
  -GOLD-   2262016 53D 1   1.00000     0.00000
 Structure written by MMmdl.
 64 67  0  0  0  0  0  0  0  0  1 V2000
  145.0522  134.2949  162.7240 C   0  0  0  0  0  0  0  0  0  0  0  0
  146.3831  134.3780  161.9577 C   0  0  0  0  0  0  0  0  0  0  0  0
  147.3302  135.3531  162.6774 C   0  0  0  0  0  0  0  0  0  0  0  0
  147.0291  132.9844  161.8894 C   0  0  0  0  0  0  0  0  0  0  0  0
  146.0422  134.9990  160.1787 Si  0  0  0  0  0  0  0  0  0  0  0  0
  144.8862  133.7973  159.2684 C   0  0  0  0  0  0  0  0  0  0  0  0
  145.2734  136.7386  160.2030 C   0  0  0  0  0  0  0  0  0  0  0  0
  147.5006  135.0576  159.3190 O   0  0  0  0  0  0  0  0  0  0  0  0
  148.3401  133.9360  159.1356 C   0  0  0  0  0  0  0  0  0  0  0  0
  148.4823  133.6084  157.6372 C   0  0  1  0  0  0  0  0  0  0  0  0
  148.4086  134.8422  156.9217 O   0  0  0  0  0  0  0  0  0  0  0  0
  149.6603  135.1856  156.4032 C   0  0  1  0  0  0  0  0  0  0  0  0
  149.9633  136.5916  156.7967 N   0  0  0  0  0  0  0  0  0  0  0  0
  149.9712  137.1543  158.0548 C   0  0  0  0  0  0  0  0  0  0  0  0
  150.2737  138.4244  158.0959 N   0  0  0  0  0  0  0  0  0  0  0  0
  150.4945  138.7602  156.7662 C   0  0  0  0  0  0  0  0  0  0  0  0
  150.8505  139.9620  156.1019 C   0  0  0  0  0  0  0  0  0  0  0  0
  151.0354  141.0992  156.8118 N   0  0  0  0  0  0  0  0  0  0  0  0
  151.5568  141.2410  158.1598 C   0  0  0  0  0  0  0  0  0  0  0  0
  151.8078  140.2679  158.8714 O   0  0  0  0  0  0  0  0  0  0  0  0
  151.6924  142.6466  158.6685 C   0  0  0  0  0  0  0  0  0  0  0  0
  151.3692  143.7371  157.8297 C   0  0  0  0  0  0  0  0  0  0  0  0
  151.4713  145.0584  158.3068 C   0  0  0  0  0  0  0  0  0  0  0  0
  151.8897  145.3001  159.6289 C   0  0  0  0  0  0  0  0  0  0  0  0
  152.2032  144.2196  160.4747 C   0  0  0  0  0  0  0  0  0  0  0  0
  152.1030  142.8980  159.9983 C   0  0  0  0  0  0  0  0  0  0  0  0
  150.9839  139.9136  154.7499 N   0  0  0  0  0  0  0  0  0  0  0  0
  150.7835  138.7660  154.0945 C   0  0  0  0  0  0  0  0  0  0  0  0
  150.4454  137.5719  154.5866 N   0  0  0  0  0  0  0  0  0  0  0  0
  150.3073  137.6158  155.9429 C   0  0  0  0  0  0  0  0  0  0  0  0
  150.6833  134.2301  157.0116 C   0  0  0  0  0  0  0  0  0  0  0  0
  149.8264  132.9997  157.2076 C   0  0  1  0  0  0  0  0  0  0  0  0
  150.3924  132.1044  158.1420 O   0  0  0  0  0  0  0  0  0  0  0  0
  145.2030  133.9336  163.7417 H   0  0  0  0  0  0  0  0  0  0  0  0
  144.3533  133.6153  162.2360 H   0  0  0  0  0  0  0  0  0  0  0  0
  144.5706  135.2708  162.7909 H   0  0  0  0  0  0  0  0  0  0  0  0
  146.9130  136.3595  162.7159 H   0  0  0  0  0  0  0  0  0  0  0  0
  148.2961  135.4143  162.1779 H   0  0  0  0  0  0  0  0  0  0  0  0
  147.5180  135.0358  163.7037 H   0  0  0  0  0  0  0  0  0  0  0  0
  147.2560  132.6031  162.8856 H   0  0  0  0  0  0  0  0  0  0  0  0
  147.9613  133.0060  161.3251 H   0  0  0  0  0  0  0  0  0  0  0  0
  146.3695  132.2633  161.4062 H   0  0  0  0  0  0  0  0  0  0  0  0
  143.9287  133.6960  159.7788 H   0  0  0  0  0  0  0  0  0  0  0  0
  145.3209  132.8011  159.1915 H   0  0  0  0  0  0  0  0  0  0  0  0
  144.6778  134.1382  158.2545 H   0  0  0  0  0  0  0  0  0  0  0  0
  144.3189  136.7468  160.7286 H   0  0  0  0  0  0  0  0  0  0  0  0
  145.0897  137.1071  159.1941 H   0  0  0  0  0  0  0  0  0  0  0  0
  145.9224  137.4602  160.6989 H   0  0  0  0  0  0  0  0  0  0  0  0
  149.3186  134.1888  159.5450 H   0  0  0  0  0  0  0  0  0  0  0  0
  147.9729  133.0811  159.7021 H   0  0  0  0  0  0  0  0  0  0  0  0
  147.6520  132.9722  157.3286 H   0  0  0  0  0  0  0  0  0  0  0  0
  149.6353  135.1706  155.3129 H   0  0  0  0  0  0  0  0  0  0  0  0
  149.7411  136.5933  158.9481 H   0  0  0  0  0  0  0  0  0  0  0  0
  150.8118  141.9589  156.3316 H   0  0  0  0  0  0  0  0  0  0  0  0
  151.0436  143.5681  156.8132 H   0  0  0  0  0  0  0  0  0  0  0  0
  151.2261  145.8863  157.6582 H   0  0  0  0  0  0  0  0  0  0  0  0
  151.9659  146.3132  159.9953 H   0  0  0  0  0  0  0  0  0  0  0  0
  152.5178  144.4038  161.4916 H   0  0  0  0  0  0  0  0  0  0  0  0
  152.3398  142.0834  160.6674 H   0  0  0  0  0  0  0  0  0  0  0  0
  150.9099  138.8124  153.0230 H   0  0  0  0  0  0  0  0  0  0  0  0
  151.5326  134.0809  156.3443 H   0  0  0  0  0  0  0  0  0  0  0  0
  151.0397  134.6205  157.9666 H   0  0  0  0  0  0  0  0  0  0  0  0
  149.7056  132.4869  156.2523 H   0  0  0  0  0  0  0  0  0  0  0  0
  149.7294  131.4828  158.4022 H   0  0  0  0  0  0  0  0  0  0  0  0
  1  2  1  0  0  0  0
  1 34  1  0  0  0  0
  1 35  1  0  0  0  0
  1 36  1  0  0  0  0
  2  3  1  0  0  0  0
  2  4  1  0  0  0  0
  2  5  1  0  0  0  0
  3 37  1  0  0  0  0
  3 38  1  0  0  0  0
  3 39  1  0  0  0  0
  4 40  1  0  0  0  0
  4 41  1  0  0  0  0
  4 42  1  0  0  0  0
  5  6  1  0  0  0  0
  5  7  1  0  0  0  0
  5  8  1  0  0  0  0
  6 43  1  0  0  0  0
  6 44  1  0  0  0  0
  6 45  1  0  0  0  0
  7 46  1  0  0  0  0
  7 47  1  0  0  0  0
  7 48  1  0  0  0  0
  8  9  1  0  0  0  0
  9 10  1  0  0  0  0
  9 49  1  0  0  0  0
  9 50  1  0  0  0  0
 10 32  1  0  0  0  0
 10 11  1  0  0  0  0
 10 51  1  0  0  0  0
 11 12  1  0  0  0  0
 12 13  1  0  0  0  0
 12 31  1  0  0  0  0
 12 52  1  0  0  0  0
 13 30  1  0  0  0  0
 13 14  1  0  0  0  0
 14 15  2  0  0  0  0
 14 53  1  0  0  0  0
 15 16  1  0  0  0  0
 16 30  2  0  0  0  0
 16 17  1  0  0  0  0
 17 18  1  0  0  0  0
 17 27  2  0  0  0  0
 18 19  1  0  0  0  0
 18 54  1  0  0  0  0
 19 20  2  0  0  0  0
 19 21  1  0  0  0  0
 21 26  1  0  0  0  0
 21 22  2  0  0  0  0
 22 23  1  0  0  0  0
 22 55  1  0  0  0  0
 23 24  2  0  0  0  0
 23 56  1  0  0  0  0
 24 25  1  0  0  0  0
 24 57  1  0  0  0  0
 25 26  2  0  0  0  0
 25 58  1  0  0  0  0
 26 59  1  0  0  0  0
 27 28  1  0  0  0  0
 28 29  2  0  0  0  0
 28 60  1  0  0  0  0
 29 30  1  0  0  0  0
 31 32  1  0  0  0  0
 31 61  1  0  0  0  0
 31 62  1  0  0  0  0
 32 33  1  0  0  0  0
 32 63  1  0  0  0  0
 33 64  1  0  0  0  0
M  END
> <s_m_source_file>
AV-unprocessed.smi

> <i_m_source_file_index>
36

> <i_lp_mmshare_version>
43012

> <i_f3d_flags>
0

> <s_epik_input>
W0NIM11DKFtDSDNdKShbQ0gzXSlbU2ldKFtDSDNdKShbQ0gzXSlPW0NIMl1bQ0BASF0xT1tDQEhdKFtDSDJdW0NASF0xW09IXSluKFtjSF1uMiljKGMyMyluW2NIXW5jM1tOSF1DKD1PKWM0W2NIXVtjSF1bY0hdW2NIXVtjSF00

> <s_epik_cmdline>
J2VwaWtfcHl0aG9uJywgJy1waCcsICc3LjAnLCAnLXRuJywgJzgnLCAnLW1hJywgJzIwMCcsICctbWV0YWxfYmluZGluZycsICctaW1hZScsICc8aW5maWxlLm1hZT4nLCAnLW9tYWUnLCAnPG91dGZpbGUubWFlPic=

> <r_lp_tautomer_probability>
1

> <r_epik_Ionization_Penalty>
0.00150433

> <r_epik_Ionization_Penalty_Charging>
0

> <r_epik_Ionization_Penalty_Neutral>
0.00150433

> <r_epik_State_Penalty>
0.00724046

> <r_epik_Charging_Adjusted_Penalty>
0.00724046

> <i_epik_Tot_Q>
0

> <i_epik_Tot_abs_Q>
0

> <r_epik_Metal_State_Penalty>
0.323355

> <b_epik_Metal_Only>
0

> <s_epik_Chemistry_Notes>
This compound contains an acetal/aminal-like group ( X-CH(R)-Y where X, Y are N, S, or O) that may be acid/base labile, releasing an aldehyde.

> <s_lp_Force_Field>
OPLS_2005

> <r_lp_Energy>
33.9603

> <b_lp_Chiralities_Consistent>
1

> <s_lp_Variant>
AV-unprocessed.smi:36-2

> <Gold.Version>
5.8.1

> <Gold.Id.Protein>
6NUR|6NUR_protein|mol2

> <Gold.PLP.Fitness>
54.9667

> <Gold.PLP.PLP>
-47.7744

> <Gold.PLP.part.hbond>
-2.0000

> <Gold.PLP.part.metal>
0.0000

> <Gold.PLP.part.buried>
-7.5493

> <Gold.PLP.part.nonpolar>
-39.7842

> <Gold.PLP.part.repulsive>
0.3563

> <Gold.PLP.ligand.clash>
0.0000

> <Gold.PLP.ligand.torsion>
1.0156

> <Gold.PLP.Chemscore.Hbond>
2.0000

> <Gold.PLP.Chemscore.CHOScore>
1.0000

> <Gold.PLP.Chemscore.Metal>
0.0000

> <Gold.Chemscore.Hbonds>
donor molecule, donor type, donor heavy atom, donor atom, acceptor molecule, acceptor atom, score
      P1  H  6896  6907       L1    33  0.90
      P1  H  7989  7998       L1    27  1.00
      L1  C    28    60       P1  7957  0.85

> <Gold.PLP.Chemscore.Internal.Correction>
0.2235

> <Gold.Rescore>
     Score         DG    S(hbond)    S(metal)    S(lipo)     H(rot)  DE(clash)    DE(int)     intcor
     12.50     -16.73       1.03        0.00     125.91       2.70       0.30       3.94       ----

> <Gold.Chemscore.Fitness>
12.4992

> <Gold.Chemscore.DG>
-16.7350

> <Gold.Chemscore.ZeroCoef>
-5.4800

> <Gold.Chemscore.Hbond>
1.0317

> <Gold.Chemscore.Metal>
0.0000

> <Gold.Chemscore.Lipo>
125.9112

> <Gold.Chemscore.Internal_Hbond>
0.0000

> <Gold.Chemscore.DEClash>
0.2972

> <Gold.Chemscore.DEInternal>
3.9386

> <Gold.Chemscore.Rot>
2.7041

> <Gold.Chemscore.Internal.Correction>
   9.000000E+99

> <Gold.Chemscore.Hbonds>
donor molecule, donor type, donor heavy atom, donor atom, acceptor molecule, acceptor atom, score
      P1  H  6896  6907       L1    33  0.18
      P1  H  7989  7998       L1    27  0.26

> <Gold.Chemscore.Hbond.Weighted>
-3.4458

> <Gold.Chemscore.Metal.Weighted>
-0.0000

> <Gold.Chemscore.Lipo.Weighted>
-14.7316

> <Gold.Chemscore.Internal_Hbond.Weighted>
0.0000

> <Gold.Chemscore.DEClash.Weighted>
0.2972

> <Gold.Chemscore.DEInternal.Weighted>
3.9386

> <Gold.Chemscore.Rot.Weighted>
6.9225

> <Gold.Chemscore.Internal.Correction.Weighted>
   9.000000E+99

> <Gold.Protein.RotatedTorsions>
[ 6907 6896 6895 6894 ] final -157.14 input  -60.11 | X-H torsion
[ 7974 7965 7964 7962 ] final  -20.82 input  175.53 | X-H torsion
[ 8008 7997 7996 7995 ] final  155.64 input   59.86 | X-H torsion
[ 10167 10162 10161 10158 ] final -150.98 input  -65.29 | X-H torsion
[ 10718 10713 10712 10709 ] final   34.11 input   66.30 | X-H torsion
[ 10763 10752 10751 10750 ] final   -8.98 input  -60.55 | X-H torsion
[ 11005 11000 10999 10996 ] final  136.59 input  -57.11 | X-H torsion

> <Gold.Protein.ActiveResidues>
 VAL166  LYS551  ARG553  GLY616  TRP617  ASP618  TYR619  PRO620  LYS621  CYS622 
 ASP623  PHE694  ASN695  SER759  ASP760  ASP761  ALA762  ILE779  LEU786  VAL792 
 PHE793  MET794  SER795  GLU796  ALA797  LYS798  CYS799  TRP800  GLU811  SER814 

> <Gold.Protein.RotatedAtoms>
  151.2983  133.4134  159.2637 H   0  0  0  0  0  0  0  0  0  0  0  0  # atno 6907 bound_to 6896
  151.0217  134.9475  159.8073 H   0  0  0  0  0  0  0  0  0  0  0  0  # atno 6908 bound_to 6896
  152.5326  134.2946  159.9108 H   0  0  0  0  0  0  0  0  0  0  0  0  # atno 6909 bound_to 6896
  146.1767  140.4255  142.8510 H   0  0  0  0  0  0  0  0  0  0  0  0  # atno 7974 bound_to 7965
  156.2467  140.1934  156.6833 H   0  0  0  0  0  0  0  0  0  0  0  0  # atno 8008 bound_to 7997
  154.6306  140.0596  156.9753 H   0  0  0  0  0  0  0  0  0  0  0  0  # atno 8009 bound_to 7997
  155.1717  140.3269  155.4394 H   0  0  0  0  0  0  0  0  0  0  0  0  # atno 8010 bound_to 7997
  139.7307  143.8813  152.2533 H   0  0  0  0  0  0  0  0  0  0  0  0  # atno 10167 bound_to 10162
  157.3063  130.7376  149.6697 H   0  0  0  0  0  0  0  0  0  0  0  0  # atno 10718 bound_to 10713
  153.4482  135.7014  153.6126 H   0  0  0  0  0  0  0  0  0  0  0  0  # atno 10763 bound_to 10752
  153.4472  135.3766  155.2263 H   0  0  0  0  0  0  0  0  0  0  0  0  # atno 10764 bound_to 10752
  154.8728  135.3988  154.3890 H   0  0  0  0  0  0  0  0  0  0  0  0  # atno 10765 bound_to 10752
  140.0056  134.9460  157.0168 H   0  0  0  0  0  0  0  0  0  0  0  0  # atno 11005 bound_to 11000
  144.8248  140.6610  143.6329 LP  0  0  0  0  0  0  0  0  0  0  0  0  # atno 17320 bound_to 7965
  145.4191  139.1567  143.4084 LP  0  0  0  0  0  0  0  0  0  0  0  0  # atno 17321 bound_to 7965
  139.8735  144.7055  150.8960 LP  0  0  0  0  0  0  0  0  0  0  0  0  # atno 17342 bound_to 10162
  140.7770  143.3719  151.1634 LP  0  0  0  0  0  0  0  0  0  0  0  0  # atno 17343 bound_to 10162
  155.9674  130.4265  150.4700 LP  0  0  0  0  0  0  0  0  0  0  0  0  # atno 17370 bound_to 10713
  157.2691  131.0583  151.2272 LP  0  0  0  0  0  0  0  0  0  0  0  0  # atno 17371 bound_to 10713
  140.4647  134.1448  155.7195 LP  0  0  0  0  0  0  0  0  0  0  0  0  # atno 17394 bound_to 11000
  141.1674  133.8675  157.1672 LP  0  0  0  0  0  0  0  0  0  0  0  0  # atno 17395 bound_to 11000

$$$$
