AV-unprocessed.smi:788|AV-procd|sdf|3737|dock10
  -GOLD-   22720 1173D 1   1.00000     0.00000
 Structure written by MMmdl.
 34 35  0  0  0  0  0  0  0  0  2 V2000
  150.9272  141.9254  156.2659 C   0  0  0  0  0  0  0  0  0  0  0  0
  151.1385  142.6284  157.6194 C   0  0  2  0  0  0  0  0  0  0  0  0
  151.6182  144.0762  157.4029 C   0  0  0  0  0  0  0  0  0  0  0  0
  151.8145  144.8124  158.7340 C   0  0  0  0  0  0  0  0  0  0  0  0
  152.7982  144.0574  159.6365 C   0  0  0  0  0  0  0  0  0  0  0  0
  152.3387  142.6089  159.8891 C   0  0  2  0  0  0  0  0  0  0  0  0
  153.3339  141.8836  160.8135 C   0  0  0  0  0  0  0  0  0  0  0  0
  152.1131  141.8595  158.5499 C   0  0  1  0  0  0  0  0  0  0  0  0
  151.5886  140.5199  158.8229 N   0  0  0  0  0  0  0  0  0  0  0  0
  152.1288  139.3399  158.4575 C   0  0  0  0  0  0  0  0  0  0  0  0
  153.1691  139.3327  157.8012 O   0  0  0  0  0  0  0  0  0  0  0  0
  151.4846  138.2058  158.8398 N   0  5  0  0  0  0  0  0  0  0  0  0
  151.2667  137.1784  157.9981 C   0  0  0  0  0  0  0  0  0  0  0  0
  150.5331  136.1077  158.3427 N   0  0  0  0  0  0  0  0  0  0  0  0
  150.4400  135.1618  157.3309 N   0  0  0  0  0  0  0  0  0  0  0  0
  151.1009  135.5498  156.2405 C   0  0  0  0  0  0  0  0  0  0  0  0
  151.8989  137.1044  156.3508 S   0  0  0  0  0  0  0  0  0  0  0  0
  151.8712  141.7972  155.7357 H   0  0  0  0  0  0  0  0  0  0  0  0
  150.2607  142.5021  155.6243 H   0  0  0  0  0  0  0  0  0  0  0  0
  150.4788  140.9393  156.3886 H   0  0  0  0  0  0  0  0  0  0  0  0
  150.1671  142.6755  158.1143 H   0  0  0  0  0  0  0  0  0  0  0  0
  152.5569  144.0743  156.8469 H   0  0  0  0  0  0  0  0  0  0  0  0
  150.8985  144.6205  156.7906 H   0  0  0  0  0  0  0  0  0  0  0  0
  152.1808  145.8225  158.5494 H   0  0  0  0  0  0  0  0  0  0  0  0
  150.8551  144.9180  159.2418 H   0  0  0  0  0  0  0  0  0  0  0  0
  153.7870  144.0561  159.1758 H   0  0  0  0  0  0  0  0  0  0  0  0
  152.9004  144.5876  160.5839 H   0  0  0  0  0  0  0  0  0  0  0  0
  151.3832  142.6550  160.4142 H   0  0  0  0  0  0  0  0  0  0  0  0
  154.3041  141.7629  160.3307 H   0  0  0  0  0  0  0  0  0  0  0  0
  152.9767  140.8923  161.0932 H   0  0  0  0  0  0  0  0  0  0  0  0
  153.4886  142.4411  161.7373 H   0  0  0  0  0  0  0  0  0  0  0  0
  153.0771  141.7920  158.0429 H   0  0  0  0  0  0  0  0  0  0  0  0
  150.7296  140.4806  159.3514 H   0  0  0  0  0  0  0  0  0  0  0  0
  151.1182  134.9172  155.3658 H   0  0  0  0  0  0  0  0  0  0  0  0
  1  2  1  0  0  0  0
  1 18  1  0  0  0  0
  1 19  1  0  0  0  0
  1 20  1  0  0  0  0
  2  8  1  0  0  0  0
  2  3  1  0  0  0  0
  2 21  1  0  0  0  0
  3  4  1  0  0  0  0
  3 22  1  0  0  0  0
  3 23  1  0  0  0  0
  4  5  1  0  0  0  0
  4 24  1  0  0  0  0
  4 25  1  0  0  0  0
  5  6  1  0  0  0  0
  5 26  1  0  0  0  0
  5 27  1  0  0  0  0
  6  7  1  0  0  0  0
  6  8  1  0  0  0  0
  6 28  1  0  0  0  0
  7 29  1  0  0  0  0
  7 30  1  0  0  0  0
  7 31  1  0  0  0  0
  8  9  1  0  0  0  0
  8 32  1  0  0  0  0
  9 10  1  0  0  0  0
  9 33  1  0  0  0  0
 10 11  2  0  0  0  0
 10 12  1  0  0  0  0
 12 13  1  0  0  0  0
 13 17  1  0  0  0  0
 13 14  2  0  0  0  0
 14 15  1  0  0  0  0
 15 16  2  0  0  0  0
 16 17  1  0  0  0  0
 16 34  1  0  0  0  0
M  CHG  1  12  -1
M  END
> <s_m_source_file>
AV-unprocessed.smi

> <i_m_source_file_index>
788

> <i_lp_mmshare_version>
43012

> <i_f3d_flags>
0

> <s_epik_input>
W0NIM11bQ0BASF0xW0NIMl1bQ0gyXVtDSDJdW0NAQEhdKFtDSDNdKVtDQEhdMVtOSF1DKD1PKVtOSF1jMm5uW2NIXXMy

> <s_epik_cmdline>
J2VwaWtfcHl0aG9uJywgJy1waCcsICc3LjAnLCAnLXRuJywgJzgnLCAnLW1hJywgJzIwMCcsICctbWV0YWxfYmluZGluZycsICctaW1hZScsICc8aW5maWxlLm1hZT4nLCAnLW9tYWUnLCAnPG91dGZpbGUubWFlPic=

> <r_lp_tautomer_probability>
1

> <r_epik_Ionization_Penalty>
4.58638

> <r_epik_Ionization_Penalty_Charging>
4.53816

> <r_epik_Ionization_Penalty_Neutral>
0.048215

> <r_epik_State_Penalty>
4.53788

> <r_epik_Charging_Adjusted_Penalty>
9.07605

> <i_epik_Tot_Q>
-1

> <i_epik_Tot_abs_Q>
1

> <r_epik_Metal_State_Penalty>
0.838628

> <b_epik_Metal_Only>
1

> <s_lp_Force_Field>
OPLS_2005

> <r_lp_Energy>
11.4954

> <b_lp_Chiralities_Consistent>
1

> <s_lp_Variant>
AV-unprocessed.smi:788-7

> <Gold.Version>
5.8.1

> <Gold.Id.Protein>
6NUR|6NUR_protein|mol2

> <Gold.PLP.Fitness>
39.8776

> <Gold.PLP.PLP>
-35.2311

> <Gold.PLP.part.hbond>
-2.6828

> <Gold.PLP.part.metal>
0.0000

> <Gold.PLP.part.buried>
-4.5246

> <Gold.PLP.part.nonpolar>
-28.2571

> <Gold.PLP.part.repulsive>
0.1521

> <Gold.PLP.ligand.clash>
0.0000

> <Gold.PLP.ligand.torsion>
0.4039

> <Gold.PLP.Chemscore.Hbond>
1.8160

> <Gold.PLP.Chemscore.CHOScore>
0.0000

> <Gold.PLP.Chemscore.Metal>
0.0000

> <Gold.Chemscore.Hbonds>
donor molecule, donor type, donor heavy atom, donor atom, acceptor molecule, acceptor atom, score
      P1  H  6896  6907       L1    14  0.69
      P1  H  7997  8009       L1    11  1.00

> <Gold.PLP.Chemscore.Internal.Correction>
0.0063

> <Gold.Rescore>
     Score         DG    S(hbond)    S(metal)    S(lipo)     H(rot)  DE(clash)    DE(int)     intcor
     18.59     -19.19       1.66        0.00      91.65       1.00       0.01       0.59       ----

> <Gold.Chemscore.Fitness>
18.5922

> <Gold.Chemscore.DG>
-19.1920

> <Gold.Chemscore.ZeroCoef>
-5.4800

> <Gold.Chemscore.Hbond>
1.6614

> <Gold.Chemscore.Metal>
0.0000

> <Gold.Chemscore.Lipo>
91.6491

> <Gold.Chemscore.Internal_Hbond>
0.0000

> <Gold.Chemscore.DEClash>
0.0106

> <Gold.Chemscore.DEInternal>
0.5892

> <Gold.Chemscore.Rot>
1.0000

> <Gold.Chemscore.Internal.Correction>
   9.000000E+99

> <Gold.Chemscore.Hbonds>
donor molecule, donor type, donor heavy atom, donor atom, acceptor molecule, acceptor atom, score
      P1  H  6896  6907       L1    14  0.12
      P1  H  7997  8009       L1    11  1.00

> <Gold.Chemscore.Hbond.Weighted>
-5.5491

> <Gold.Chemscore.Metal.Weighted>
-0.0000

> <Gold.Chemscore.Lipo.Weighted>
-10.7229

> <Gold.Chemscore.Internal_Hbond.Weighted>
0.0000

> <Gold.Chemscore.DEClash.Weighted>
0.0106

> <Gold.Chemscore.DEInternal.Weighted>
0.5892

> <Gold.Chemscore.Rot.Weighted>
2.5600

> <Gold.Chemscore.Internal.Correction.Weighted>
   9.000000E+99

> <Gold.Protein.RotatedTorsions>
[ 6907 6896 6895 6894 ] final  -43.84 input  -60.11 | X-H torsion
[ 7974 7965 7964 7962 ] final   23.66 input  175.53 | X-H torsion
[ 8008 7997 7996 7995 ] final  162.68 input   59.86 | X-H torsion
[ 10167 10162 10161 10158 ] final -129.83 input  -65.29 | X-H torsion
[ 10718 10713 10712 10709 ] final  -85.30 input   66.30 | X-H torsion
[ 10763 10752 10751 10750 ] final   10.83 input  -60.55 | X-H torsion
[ 11005 11000 10999 10996 ] final  -59.92 input  -57.11 | X-H torsion

> <Gold.Protein.ActiveResidues>
 VAL166  LYS551  ARG553  GLY616  TRP617  ASP618  TYR619  PRO620  LYS621  CYS622 
 ASP623  PHE694  ASN695  SER759  ASP760  ASP761  ALA762  ILE779  LEU786  VAL792 
 PHE793  MET794  SER795  GLU796  ALA797  LYS798  CYS799  TRP800  GLU811  SER814 

> <Gold.Protein.RotatedAtoms>
  150.9395  134.8805  159.7602 H   0  0  0  0  0  0  0  0  0  0  0  0  # atno 6907 bound_to 6896
  152.5074  134.3962  159.9411 H   0  0  0  0  0  0  0  0  0  0  0  0  # atno 6908 bound_to 6896
  151.3984  133.3725  159.2764 H   0  0  0  0  0  0  0  0  0  0  0  0  # atno 6909 bound_to 6896
  146.1974  139.7713  142.8787 H   0  0  0  0  0  0  0  0  0  0  0  0  # atno 7974 bound_to 7965
  156.2014  140.1744  156.7892 H   0  0  0  0  0  0  0  0  0  0  0  0  # atno 8008 bound_to 7997
  154.5596  140.0702  156.8829 H   0  0  0  0  0  0  0  0  0  0  0  0  # atno 8009 bound_to 7997
  155.2873  140.3353  155.4257 H   0  0  0  0  0  0  0  0  0  0  0  0  # atno 8010 bound_to 7997
  139.9356  143.6221  152.2518 H   0  0  0  0  0  0  0  0  0  0  0  0  # atno 10167 bound_to 10162
  155.9998  130.4726  150.4541 H   0  0  0  0  0  0  0  0  0  0  0  0  # atno 10718 bound_to 10713
  153.1990  135.6853  153.8255 H   0  0  0  0  0  0  0  0  0  0  0  0  # atno 10763 bound_to 10752
  153.7527  135.3221  155.3325 H   0  0  0  0  0  0  0  0  0  0  0  0  # atno 10764 bound_to 10752
  154.8161  135.4685  154.0748 H   0  0  0  0  0  0  0  0  0  0  0  0  # atno 10765 bound_to 10752
  141.1267  133.6619  156.5145 H   0  0  0  0  0  0  0  0  0  0  0  0  # atno 11005 bound_to 11000
  145.3599  141.0324  143.3291 LP  0  0  0  0  0  0  0  0  0  0  0  0  # atno 17320 bound_to 7965
  144.8609  139.5179  143.6813 LP  0  0  0  0  0  0  0  0  0  0  0  0  # atno 17321 bound_to 7965
  139.6746  144.7659  151.1720 LP  0  0  0  0  0  0  0  0  0  0  0  0  # atno 17342 bound_to 10162
  140.7625  143.5814  150.8891 LP  0  0  0  0  0  0  0  0  0  0  0  0  # atno 17343 bound_to 10162
  157.2571  131.0559  151.2343 LP  0  0  0  0  0  0  0  0  0  0  0  0  # atno 17370 bound_to 10713
  157.3471  130.7063  149.6417 LP  0  0  0  0  0  0  0  0  0  0  0  0  # atno 17371 bound_to 10713
  140.4342  134.7074  157.4958 LP  0  0  0  0  0  0  0  0  0  0  0  0  # atno 17394 bound_to 11000
  140.0273  134.6458  155.9155 LP  0  0  0  0  0  0  0  0  0  0  0  0  # atno 17395 bound_to 11000

$$$$
