AV-unprocessed.smi:21|AV-procd|sdf|141|dock7
  -GOLD-   2262015343D 1   1.00000     0.00000
 Structure written by MMmdl.
 62 65  0  0  0  0  0  0  0  0  2 V2000
  144.0320  132.5760  150.2044 C   0  0  0  0  0  0  0  0  0  0  0  0
  143.8444  133.8610  150.7754 O   0  0  0  0  0  0  0  0  0  0  0  0
  145.0488  134.5984  150.9219 C   0  0  1  0  0  0  0  0  0  0  0  0
  144.8514  135.9447  151.6111 C   0  0  0  0  0  0  0  0  0  0  0  0
  146.2418  136.2669  152.1764 C   0  0  1  0  0  0  0  0  0  0  0  0
  146.2187  137.2493  153.3736 C   0  0  0  0  0  0  0  0  0  0  0  0
  147.1798  138.3456  153.2166 N   0  0  0  0  0  0  0  0  0  0  0  0
  146.8891  139.3630  152.2133 C   0  0  0  0  0  0  0  0  0  0  0  0
  148.1880  138.5382  154.1184 C   0  0  0  0  0  0  0  0  0  0  0  0
  148.6044  137.4746  154.8573 N   0  0  0  0  0  0  0  0  0  0  0  0
  149.5856  137.5986  155.7535 C   0  0  0  0  0  0  0  0  0  0  0  0
  150.2887  138.6842  156.0706 N   0  0  0  0  0  0  0  0  0  0  0  0
  149.8902  139.7622  155.3387 C   0  0  0  0  0  0  0  0  0  0  0  0
  148.8559  139.7815  154.3559 C   0  0  0  0  0  0  0  0  0  0  0  0
  148.7352  141.0711  153.8482 N   0  0  0  0  0  0  0  0  0  0  0  0
  149.6401  141.7630  154.4821 C   0  0  0  0  0  0  0  0  0  0  0  0
  150.3947  141.0516  155.3853 N   0  0  0  0  0  0  0  0  0  0  0  0
  151.4694  141.5657  156.2243 C   0  0  0  0  0  0  0  0  0  0  0  0
  151.2326  141.3943  157.7506 C   0  0  1  0  0  0  0  0  0  0  0  0
  151.4690  139.9383  158.2164 C   0  0  0  0  0  0  0  0  0  0  0  0
  152.8344  139.5931  158.1111 O   0  0  0  0  0  0  0  0  0  0  0  0
  152.0579  142.4014  158.5951 C   0  0  2  0  0  0  0  0  0  0  0  0
  151.8244  142.3299  160.0953 C   0  0  0  0  0  0  0  0  0  0  0  0
  152.3465  143.6797  160.5791 C   0  0  0  0  0  0  0  0  0  0  0  0
  152.1662  144.5814  159.4927 O   0  0  0  0  0  0  0  0  0  0  0  0
  151.7072  143.8727  158.3476 C   0  0  0  0  0  0  0  0  0  0  0  0
  146.8892  134.9449  152.4279 N   0  3  1  0  0  0  0  0  0  0  0  0
  147.3620  134.6571  153.8027 C   0  0  0  0  0  0  0  0  0  0  0  0
  145.9985  133.8926  151.8869 C   0  0  0  0  0  0  0  0  0  0  0  0
  145.5459  134.7326  149.9590 H   0  0  0  0  0  0  0  0  0  0  0  0
  146.8284  136.7184  151.3749 H   0  0  0  0  0  0  0  0  0  0  0  0
  143.0757  132.0554  150.1578 H   0  0  0  0  0  0  0  0  0  0  0  0
  144.7127  131.9721  150.8058 H   0  0  0  0  0  0  0  0  0  0  0  0
  144.4246  132.6410  149.1893 H   0  0  0  0  0  0  0  0  0  0  0  0
  144.4819  136.7191  150.9381 H   0  0  0  0  0  0  0  0  0  0  0  0
  144.1318  135.8333  152.4234 H   0  0  0  0  0  0  0  0  0  0  0  0
  145.2084  137.6151  153.5537 H   0  0  0  0  0  0  0  0  0  0  0  0
  146.4969  136.7188  154.2844 H   0  0  0  0  0  0  0  0  0  0  0  0
  146.5052  140.2686  152.6834 H   0  0  0  0  0  0  0  0  0  0  0  0
  146.1369  139.0121  151.5065 H   0  0  0  0  0  0  0  0  0  0  0  0
  147.7838  139.6106  151.6416 H   0  0  0  0  0  0  0  0  0  0  0  0
  149.8457  136.6991  156.2919 H   0  0  0  0  0  0  0  0  0  0  0  0
  149.7812  142.8177  154.3006 H   0  0  0  0  0  0  0  0  0  0  0  0
  152.3966  141.0760  155.9259 H   0  0  0  0  0  0  0  0  0  0  0  0
  151.6125  142.6199  155.9849 H   0  0  0  0  0  0  0  0  0  0  0  0
  150.1801  141.6181  157.9322 H   0  0  0  0  0  0  0  0  0  0  0  0
  151.1290  139.7865  159.2408 H   0  0  0  0  0  0  0  0  0  0  0  0
  150.9184  139.2329  157.5955 H   0  0  0  0  0  0  0  0  0  0  0  0
  153.0812  139.1026  158.8803 H   0  0  0  0  0  0  0  0  0  0  0  0
  153.1233  142.2539  158.4142 H   0  0  0  0  0  0  0  0  0  0  0  0
  150.7583  142.2437  160.3111 H   0  0  0  0  0  0  0  0  0  0  0  0
  152.3380  141.4960  160.5744 H   0  0  0  0  0  0  0  0  0  0  0  0
  151.8296  144.0264  161.4741 H   0  0  0  0  0  0  0  0  0  0  0  0
  153.4117  143.6193  160.8050 H   0  0  0  0  0  0  0  0  0  0  0  0
  152.1544  144.2736  157.4390 H   0  0  0  0  0  0  0  0  0  0  0  0
  150.6265  144.0042  158.2738 H   0  0  0  0  0  0  0  0  0  0  0  0
  146.5409  134.6748  154.5204 H   0  0  0  0  0  0  0  0  0  0  0  0
  148.1215  135.3729  154.1172 H   0  0  0  0  0  0  0  0  0  0  0  0
  147.8175  133.6670  153.8407 H   0  0  0  0  0  0  0  0  0  0  0  0
  145.4210  133.4509  152.7014 H   0  0  0  0  0  0  0  0  0  0  0  0
  146.5640  133.0922  151.4087 H   0  0  0  0  0  0  0  0  0  0  0  0
  147.7138  134.9395  151.8443 H   0  0  0  0  0  0  0  0  0  0  0  0
  1  2  1  0  0  0  0
  1 32  1  0  0  0  0
  1 33  1  0  0  0  0
  1 34  1  0  0  0  0
  2  3  1  0  0  0  0
  3 30  1  0  0  0  0
  3 29  1  0  0  0  0
  3  4  1  0  0  0  0
  4  5  1  0  0  0  0
  4 35  1  0  0  0  0
  4 36  1  0  0  0  0
  5 31  1  0  0  0  0
  5  6  1  0  0  0  0
  5 27  1  0  0  0  0
  6  7  1  0  0  0  0
  6 37  1  0  0  0  0
  6 38  1  0  0  0  0
  7  8  1  0  0  0  0
  7  9  1  0  0  0  0
  8 39  1  0  0  0  0
  8 40  1  0  0  0  0
  8 41  1  0  0  0  0
  9 14  1  0  0  0  0
  9 10  2  0  0  0  0
 10 11  1  0  0  0  0
 11 12  2  0  0  0  0
 11 42  1  0  0  0  0
 12 13  1  0  0  0  0
 13 17  1  0  0  0  0
 13 14  2  0  0  0  0
 14 15  1  0  0  0  0
 15 16  2  0  0  0  0
 16 17  1  0  0  0  0
 16 43  1  0  0  0  0
 17 18  1  0  0  0  0
 18 19  1  0  0  0  0
 18 44  1  0  0  0  0
 18 45  1  0  0  0  0
 19 20  1  0  0  0  0
 19 22  1  0  0  0  0
 19 46  1  0  0  0  0
 20 21  1  0  0  0  0
 20 47  1  0  0  0  0
 20 48  1  0  0  0  0
 21 49  1  0  0  0  0
 22 26  1  0  0  0  0
 22 23  1  0  0  0  0
 22 50  1  0  0  0  0
 23 24  1  0  0  0  0
 23 51  1  0  0  0  0
 23 52  1  0  0  0  0
 24 25  1  0  0  0  0
 24 53  1  0  0  0  0
 24 54  1  0  0  0  0
 25 26  1  0  0  0  0
 26 55  1  0  0  0  0
 26 56  1  0  0  0  0
 27 28  1  0  0  0  0
 27 29  1  0  0  0  0
 27 62  1  0  0  0  0
 28 57  1  0  0  0  0
 28 58  1  0  0  0  0
 28 59  1  0  0  0  0
 29 60  1  0  0  0  0
 29 61  1  0  0  0  0
M  CHG  1  27   1
M  END
> <s_m_source_file>
AV-unprocessed.smi

> <i_m_source_file_index>
21

> <i_lp_mmshare_version>
43012

> <i_f3d_flags>
0

> <s_epik_input>
W0NIM11PW0NASF0xW0NIMl1bQ0BIXShOKFtDSDNdKVtDSDJdMSlbQ0gyXU4oW0NIM10pYyhuW2NIXW4yKWMoYzIzKW5bY0hdbjNbQ0gyXVtDQEhdKFtDSDJdW09IXSlbQ0BASF00W0NIMl1bQ0gyXU9bQ0gyXTQ=

> <s_epik_cmdline>
J2VwaWtfcHl0aG9uJywgJy1waCcsICc3LjAnLCAnLXRuJywgJzgnLCAnLW1hJywgJzIwMCcsICctbWV0YWxfYmluZGluZycsICctaW1hZScsICc8aW5maWxlLm1hZT4nLCAnLW9tYWUnLCAnPG91dGZpbGUubWFlPic=

> <r_lp_tautomer_probability>
1

> <r_epik_Ionization_Penalty>
0.0157465

> <r_epik_Ionization_Penalty_Charging>
0.015354

> <r_epik_Ionization_Penalty_Neutral>
0.000392529

> <r_epik_State_Penalty>
0.0120612

> <r_epik_Charging_Adjusted_Penalty>
0.0274152

> <i_epik_Tot_Q>
1

> <i_epik_Tot_abs_Q>
1

> <r_epik_Metal_State_Penalty>
0.0121253

> <b_epik_Metal_Only>
0

> <s_lp_Force_Field>
OPLS_2005

> <r_lp_Energy>
60.5885

> <b_lp_Chiralities_Consistent>
1

> <s_lp_Variant>
AV-unprocessed.smi:21-21

> <Gold.Version>
5.8.1

> <Gold.Id.Protein>
6NUR|6NUR_protein|mol2

> <Gold.PLP.Fitness>
50.1643

> <Gold.PLP.PLP>
-42.0582

> <Gold.PLP.part.hbond>
-2.0000

> <Gold.PLP.part.metal>
0.0000

> <Gold.PLP.part.buried>
-3.6003

> <Gold.PLP.part.nonpolar>
-35.4043

> <Gold.PLP.part.repulsive>
0.4557

> <Gold.PLP.ligand.clash>
0.0000

> <Gold.PLP.ligand.torsion>
1.1238

> <Gold.PLP.Chemscore.Hbond>
2.3120

> <Gold.PLP.Chemscore.CHOScore>
1.0000

> <Gold.PLP.Chemscore.Metal>
0.0000

> <Gold.Chemscore.Hbonds>
donor molecule, donor type, donor heavy atom, donor atom, acceptor molecule, acceptor atom, score
      L1  H    27    62       P1  7948  1.02
      P1  H  7997  8008       L1    21  0.81
      L1  C    16    43       P1  8028  0.96

> <Gold.PLP.Chemscore.Internal.Correction>
0.4176

> <Gold.Rescore>
     Score         DG    S(hbond)    S(metal)    S(lipo)     H(rot)  DE(clash)    DE(int)     intcor
      9.05     -14.98       1.42        0.00     107.97       3.08       2.01       3.92       ----

> <Gold.Chemscore.Fitness>
9.0459

> <Gold.Chemscore.DG>
-14.9794

> <Gold.Chemscore.ZeroCoef>
-5.4800

> <Gold.Chemscore.Hbond>
1.4193

> <Gold.Chemscore.Metal>
0.0000

> <Gold.Chemscore.Lipo>
107.9741

> <Gold.Chemscore.Internal_Hbond>
0.0000

> <Gold.Chemscore.DEClash>
2.0120

> <Gold.Chemscore.DEInternal>
3.9214

> <Gold.Chemscore.Rot>
3.0758

> <Gold.Chemscore.Internal.Correction>
   9.000000E+99

> <Gold.Chemscore.Hbonds>
donor molecule, donor type, donor heavy atom, donor atom, acceptor molecule, acceptor atom, score
      L1  H    27    62       P1  7948  0.34
      P1  H  7997  8008       L1    21  0.56

> <Gold.Chemscore.Hbond.Weighted>
-4.7406

> <Gold.Chemscore.Metal.Weighted>
-0.0000

> <Gold.Chemscore.Lipo.Weighted>
-12.6330

> <Gold.Chemscore.Internal_Hbond.Weighted>
0.0000

> <Gold.Chemscore.DEClash.Weighted>
2.0120

> <Gold.Chemscore.DEInternal.Weighted>
3.9214

> <Gold.Chemscore.Rot.Weighted>
7.8741

> <Gold.Chemscore.Internal.Correction.Weighted>
   9.000000E+99

> <Gold.Protein.RotatedTorsions>
[ 6907 6896 6895 6894 ] final   80.90 input  -60.11 | X-H torsion
[ 7974 7965 7964 7962 ] final   87.52 input  175.53 | X-H torsion
[ 8008 7997 7996 7995 ] final  -84.06 input   59.86 | X-H torsion
[ 10167 10162 10161 10158 ] final  -37.83 input  -65.29 | X-H torsion
[ 10718 10713 10712 10709 ] final    1.88 input   66.30 | X-H torsion
[ 10763 10752 10751 10750 ] final -153.35 input  -60.55 | X-H torsion
[ 11005 11000 10999 10996 ] final -110.51 input  -57.11 | X-H torsion

> <Gold.Protein.ActiveResidues>
 VAL166  LYS551  ARG553  GLY616  TRP617  ASP618  TYR619  PRO620  LYS621  CYS622 
 ASP623  PHE694  ASN695  SER759  ASP760  ASP761  ALA762  ILE779  LEU786  VAL792 
 PHE793  MET794  SER795  GLU796  ALA797  LYS798  CYS799  TRP800  GLU811  SER814 

> <Gold.Protein.RotatedAtoms>
  152.5250  134.3287  159.9174 H   0  0  0  0  0  0  0  0  0  0  0  0  # atno 6907 bound_to 6896
  151.3236  133.4023  159.2664 H   0  0  0  0  0  0  0  0  0  0  0  0  # atno 6908 bound_to 6896
  150.9938  134.9284  159.7972 H   0  0  0  0  0  0  0  0  0  0  0  0  # atno 6909 bound_to 6896
  145.5579  139.2301  143.2476 H   0  0  0  0  0  0  0  0  0  0  0  0  # atno 7974 bound_to 7965
  154.6257  140.0610  156.9670 H   0  0  0  0  0  0  0  0  0  0  0  0  # atno 8008 bound_to 7997
  155.1746  140.3294  155.4368 H   0  0  0  0  0  0  0  0  0  0  0  0  # atno 8009 bound_to 7997
  156.2456  140.1908  156.6846 H   0  0  0  0  0  0  0  0  0  0  0  0  # atno 8010 bound_to 7997
  140.7108  143.3316  151.2556 H   0  0  0  0  0  0  0  0  0  0  0  0  # atno 10167 bound_to 10162
  156.8547  130.5566  149.5667 H   0  0  0  0  0  0  0  0  0  0  0  0  # atno 10718 bound_to 10713
  154.7933  135.3215  154.7726 H   0  0  0  0  0  0  0  0  0  0  0  0  # atno 10763 bound_to 10752
  153.8410  135.6871  153.4807 H   0  0  0  0  0  0  0  0  0  0  0  0  # atno 10764 bound_to 10752
  153.1613  135.4659  154.9717 H   0  0  0  0  0  0  0  0  0  0  0  0  # atno 10765 bound_to 10752
  141.0788  133.9256  157.2334 H   0  0  0  0  0  0  0  0  0  0  0  0  # atno 11005 bound_to 11000
  146.1872  140.6403  142.9162 LP  0  0  0  0  0  0  0  0  0  0  0  0  # atno 17320 bound_to 7965
  144.7497  140.5160  143.6810 LP  0  0  0  0  0  0  0  0  0  0  0  0  # atno 17321 bound_to 7965
  139.6800  143.9872  152.2803 LP  0  0  0  0  0  0  0  0  0  0  0  0  # atno 17342 bound_to 10162
  139.9498  144.6627  150.8183 LP  0  0  0  0  0  0  0  0  0  0  0  0  # atno 17343 bound_to 10162
  156.0809  130.5820  150.9561 LP  0  0  0  0  0  0  0  0  0  0  0  0  # atno 17370 bound_to 10713
  157.6284  131.0923  150.8490 LP  0  0  0  0  0  0  0  0  0  0  0  0  # atno 17371 bound_to 10713
  139.9601  135.0156  156.9236 LP  0  0  0  0  0  0  0  0  0  0  0  0  # atno 17394 bound_to 11000
  140.5515  134.0622  155.7370 LP  0  0  0  0  0  0  0  0  0  0  0  0  # atno 17395 bound_to 11000

$$$$
