AV-unprocessed.smi:2448|AV-procd|sdf|9657|dock6
  -GOLD-   2272013293D 1   1.00000     0.00000
 Structure written by MMmdl.
 38 39  0  0  0  0  0  0  0  0  2 V2000
  146.9596  140.3973  152.2513 O   0  0  0  0  0  0  0  0  0  0  0  0
  147.0382  139.4007  153.2562 C   0  0  1  0  0  0  0  0  0  0  0  0
  146.4784  138.0870  152.6740 C   0  0  0  0  0  0  0  0  0  0  0  0
  145.0794  137.8563  153.0992 N   0  3  0  0  0  0  0  0  0  0  0  0
  144.4650  136.5866  152.6456 C   0  0  1  0  0  0  0  0  0  0  0  0
  145.4794  135.4220  152.7600 C   0  0  0  0  0  0  0  0  0  0  0  0
  145.3146  134.3445  151.7036 C   0  0  0  0  0  0  0  0  0  0  0  0
  146.1668  133.2208  151.6809 C   0  0  0  0  0  0  0  0  0  0  0  0
  145.9672  132.2462  150.6827 C   0  0  0  0  0  0  0  0  0  0  0  0
  145.0006  132.3340  149.7439 N   0  0  0  0  0  0  0  0  0  0  0  0
  144.1912  133.4145  149.7687 C   0  0  0  0  0  0  0  0  0  0  0  0
  144.3053  134.4451  150.7234 C   0  0  0  0  0  0  0  0  0  0  0  0
  143.1567  136.3516  153.4357 C   0  0  0  0  0  0  0  0  0  0  0  0
  143.4319  136.2938  154.7393 F   0  0  0  0  0  0  0  0  0  0  0  0
  142.2860  137.3428  153.2508 F   0  0  0  0  0  0  0  0  0  0  0  0
  142.5933  135.2005  153.0683 F   0  0  0  0  0  0  0  0  0  0  0  0
  148.5119  139.2688  153.6751 C   0  0  0  0  0  0  0  0  0  0  0  0
  148.8720  140.4970  154.5172 C   0  0  0  0  0  0  0  0  0  0  0  0
  147.3980  140.9631  155.4584 S   0  0  0  0  0  0  0  0  0  0  0  0
  146.2926  139.8790  154.5158 C   0  0  0  0  0  0  0  0  0  0  0  0
  147.7669  140.3980  151.7594 H   0  0  0  0  0  0  0  0  0  0  0  0
  146.5264  138.1149  151.5844 H   0  0  0  0  0  0  0  0  0  0  0  0
  147.0991  137.2513  152.9969 H   0  0  0  0  0  0  0  0  0  0  0  0
  145.0206  137.9092  154.1061 H   0  0  0  0  0  0  0  0  0  0  0  0
  144.1898  136.7113  151.5971 H   0  0  0  0  0  0  0  0  0  0  0  0
  146.4998  135.7956  152.6760 H   0  0  0  0  0  0  0  0  0  0  0  0
  145.4083  134.9662  153.7486 H   0  0  0  0  0  0  0  0  0  0  0  0
  146.9538  133.1010  152.4110 H   0  0  0  0  0  0  0  0  0  0  0  0
  146.6005  131.3724  150.6385 H   0  0  0  0  0  0  0  0  0  0  0  0
  143.4287  133.4586  149.0052 H   0  0  0  0  0  0  0  0  0  0  0  0
  143.6308  135.2885  150.7006 H   0  0  0  0  0  0  0  0  0  0  0  0
  148.6344  138.3766  154.2910 H   0  0  0  0  0  0  0  0  0  0  0  0
  149.1804  139.1556  152.8205 H   0  0  0  0  0  0  0  0  0  0  0  0
  149.7169  140.3084  155.1799 H   0  0  0  0  0  0  0  0  0  0  0  0
  149.1398  141.3319  153.8687 H   0  0  0  0  0  0  0  0  0  0  0  0
  145.3541  140.3848  154.2852 H   0  0  0  0  0  0  0  0  0  0  0  0
  146.0547  139.0283  155.1555 H   0  0  0  0  0  0  0  0  0  0  0  0
  144.5289  138.6102  152.7119 H   0  0  0  0  0  0  0  0  0  0  0  0
  1  2  1  0  0  0  0
  1 21  1  0  0  0  0
  2 20  1  0  0  0  0
  2  3  1  0  0  0  0
  2 17  1  0  0  0  0
  3  4  1  0  0  0  0
  3 22  1  0  0  0  0
  3 23  1  0  0  0  0
  4  5  1  0  0  0  0
  4 24  1  0  0  0  0
  4 38  1  0  0  0  0
  5  6  1  0  0  0  0
  5 13  1  0  0  0  0
  5 25  1  0  0  0  0
  6  7  1  0  0  0  0
  6 26  1  0  0  0  0
  6 27  1  0  0  0  0
  7 12  1  0  0  0  0
  7  8  2  0  0  0  0
  8  9  1  0  0  0  0
  8 28  1  0  0  0  0
  9 10  2  0  0  0  0
  9 29  1  0  0  0  0
 10 11  1  0  0  0  0
 11 12  2  0  0  0  0
 11 30  1  0  0  0  0
 12 31  1  0  0  0  0
 13 14  1  0  0  0  0
 13 15  1  0  0  0  0
 13 16  1  0  0  0  0
 17 18  1  0  0  0  0
 17 32  1  0  0  0  0
 17 33  1  0  0  0  0
 18 19  1  0  0  0  0
 18 34  1  0  0  0  0
 18 35  1  0  0  0  0
 19 20  1  0  0  0  0
 20 36  1  0  0  0  0
 20 37  1  0  0  0  0
M  CHG  1   4   1
M  END
> <s_m_source_file>
AV-unprocessed.smi

> <i_m_source_file_index>
2448

> <i_lp_mmshare_version>
43012

> <i_f3d_flags>
0

> <s_epik_input>
W0NIMl0xU1tDSDJdW0NIMl1bQ0BAXTEoW09IXSlbQ0gyXVtOSF1bQ0BASF0oQyhGKShGKUYpW0NIMl1jMltjSF1bY0hdbltjSF1bY0hdMg==

> <s_epik_cmdline>
J2VwaWtfcHl0aG9uJywgJy1waCcsICc3LjAnLCAnLXRuJywgJzgnLCAnLW1hJywgJzIwMCcsICctbWV0YWxfYmluZGluZycsICctaW1hZScsICc8aW5maWxlLm1hZT4nLCAnLW9tYWUnLCAnPG91dGZpbGUubWFlPic=

> <r_epik_Ionization_Penalty>
1.19945

> <r_epik_Ionization_Penalty_Charging>
1.19892

> <r_epik_Ionization_Penalty_Neutral>
0.000532129

> <r_epik_State_Penalty>
0.752927

> <r_epik_Charging_Adjusted_Penalty>
1.95185

> <i_epik_Tot_Q>
1

> <i_epik_Tot_abs_Q>
1

> <r_epik_Metal_State_Penalty>
0.804507

> <b_epik_Metal_Only>
0

> <s_lp_Force_Field>
OPLS_2005

> <r_lp_Energy>
21.3844

> <b_lp_Chiralities_Consistent>
1

> <s_lp_Variant>
AV-unprocessed.smi:2448-7

> <Gold.Version>
5.8.1

> <Gold.Id.Protein>
6NUR|6NUR_protein|mol2

> <Gold.PLP.Fitness>
44.0082

> <Gold.PLP.PLP>
-31.4206

> <Gold.PLP.part.hbond>
-2.5284

> <Gold.PLP.part.metal>
0.0000

> <Gold.PLP.part.buried>
-2.1815

> <Gold.PLP.part.nonpolar>
-28.2757

> <Gold.PLP.part.repulsive>
0.1627

> <Gold.PLP.ligand.clash>
0.0000

> <Gold.PLP.ligand.torsion>
1.3390

> <Gold.PLP.Chemscore.Hbond>
3.0000

> <Gold.PLP.Chemscore.CHOScore>
1.8389

> <Gold.PLP.Chemscore.Metal>
0.0000

> <Gold.Chemscore.Hbonds>
donor molecule, donor type, donor heavy atom, donor atom, acceptor molecule, acceptor atom, score
      L1  H     1    21       P1  7957  1.00
      L1  H     4    38       P1 10175  1.95
      L1  C     9    29       P1 10747  1.00
      L1  C    11    30       P1 10186  0.57

> <Gold.PLP.Chemscore.Internal.Correction>
0.7489

> <Gold.Rescore>
     Score         DG    S(hbond)    S(metal)    S(lipo)     H(rot)  DE(clash)    DE(int)     intcor
     12.75     -14.55       1.98        0.00      73.13       2.39       0.30       1.50       ----

> <Gold.Chemscore.Fitness>
12.7485

> <Gold.Chemscore.DG>
-14.5476

> <Gold.Chemscore.ZeroCoef>
-5.4800

> <Gold.Chemscore.Hbond>
1.9822

> <Gold.Chemscore.Metal>
0.0000

> <Gold.Chemscore.Lipo>
73.1343

> <Gold.Chemscore.Internal_Hbond>
0.0000

> <Gold.Chemscore.DEClash>
0.2970

> <Gold.Chemscore.DEInternal>
1.5020

> <Gold.Chemscore.Rot>
2.3866

> <Gold.Chemscore.Internal.Correction>
   9.000000E+99

> <Gold.Chemscore.Hbonds>
donor molecule, donor type, donor heavy atom, donor atom, acceptor molecule, acceptor atom, score
      L1  H     1    21       P1  7957  0.99
      L1  H     4    38       P1 10175  0.91

> <Gold.Chemscore.Hbond.Weighted>
-6.6205

> <Gold.Chemscore.Metal.Weighted>
-0.0000

> <Gold.Chemscore.Lipo.Weighted>
-8.5567

> <Gold.Chemscore.Internal_Hbond.Weighted>
0.0000

> <Gold.Chemscore.DEClash.Weighted>
0.2970

> <Gold.Chemscore.DEInternal.Weighted>
1.5020

> <Gold.Chemscore.Rot.Weighted>
6.1096

> <Gold.Chemscore.Internal.Correction.Weighted>
   9.000000E+99

> <Gold.Protein.RotatedTorsions>
[ 6907 6896 6895 6894 ] final -121.45 input  -60.11 | X-H torsion
[ 7974 7965 7964 7962 ] final   35.44 input  175.53 | X-H torsion
[ 8008 7997 7996 7995 ] final   62.47 input   59.86 | X-H torsion
[ 10167 10162 10161 10158 ] final  101.56 input  -65.29 | X-H torsion
[ 10718 10713 10712 10709 ] final  -45.08 input   66.30 | X-H torsion
[ 10763 10752 10751 10750 ] final   99.45 input  -60.55 | X-H torsion
[ 11005 11000 10999 10996 ] final -108.54 input  -57.11 | X-H torsion

> <Gold.Protein.ActiveResidues>
 VAL166  LYS551  ARG553  GLY616  TRP617  ASP618  TYR619  PRO620  LYS621  CYS622 
 ASP623  PHE694  ASN695  SER759  ASP760  ASP761  ALA762  ILE779  LEU786  VAL792 
 PHE793  MET794  SER795  GLU796  ALA797  LYS798  CYS799  TRP800  GLU811  SER814 

> <Gold.Protein.RotatedAtoms>
  150.8484  133.7825  159.3034 H   0  0  0  0  0  0  0  0  0  0  0  0  # atno 6907 bound_to 6896
  151.5504  135.1066  159.9958 H   0  0  0  0  0  0  0  0  0  0  0  0  # atno 6908 bound_to 6896
  152.4533  133.7629  159.6812 H   0  0  0  0  0  0  0  0  0  0  0  0  # atno 6909 bound_to 6896
  146.1282  139.6142  142.9244 H   0  0  0  0  0  0  0  0  0  0  0  0  # atno 7974 bound_to 7965
  155.6148  140.3495  155.4633 H   0  0  0  0  0  0  0  0  0  0  0  0  # atno 8008 bound_to 7997
  156.0126  140.1236  157.0463 H   0  0  0  0  0  0  0  0  0  0  0  0  # atno 8009 bound_to 7997
  154.4286  140.1078  156.5837 H   0  0  0  0  0  0  0  0  0  0  0  0  # atno 8010 bound_to 7997
  139.7427  144.7007  151.0551 H   0  0  0  0  0  0  0  0  0  0  0  0  # atno 10167 bound_to 10162
  156.2320  130.4173  149.8863 H   0  0  0  0  0  0  0  0  0  0  0  0  # atno 10718 bound_to 10713
  153.3016  135.4113  155.1258 H   0  0  0  0  0  0  0  0  0  0  0  0  # atno 10763 bound_to 10752
  154.8551  135.3543  154.5844 H   0  0  0  0  0  0  0  0  0  0  0  0  # atno 10764 bound_to 10752
  153.6269  135.7062  153.5348 H   0  0  0  0  0  0  0  0  0  0  0  0  # atno 10765 bound_to 10752
  141.0896  133.9078  157.2106 H   0  0  0  0  0  0  0  0  0  0  0  0  # atno 11005 bound_to 11000
  145.5318  141.0426  143.2379 LP  0  0  0  0  0  0  0  0  0  0  0  0  # atno 17320 bound_to 7965
  144.7664  139.6836  143.7213 LP  0  0  0  0  0  0  0  0  0  0  0  0  # atno 17321 bound_to 7965
  140.7788  143.4905  150.9900 LP  0  0  0  0  0  0  0  0  0  0  0  0  # atno 17342 bound_to 10162
  139.8593  143.7336  152.3174 LP  0  0  0  0  0  0  0  0  0  0  0  0  # atno 17343 bound_to 10162
  156.6474  130.8730  151.3525 LP  0  0  0  0  0  0  0  0  0  0  0  0  # atno 17370 bound_to 10713
  157.7137  130.9471  150.1179 LP  0  0  0  0  0  0  0  0  0  0  0  0  # atno 17371 bound_to 10713
  139.9719  135.0125  156.9535 LP  0  0  0  0  0  0  0  0  0  0  0  0  # atno 17394 bound_to 11000
  140.5283  134.0839  155.7309 LP  0  0  0  0  0  0  0  0  0  0  0  0  # atno 17395 bound_to 11000

$$$$
