AV-unprocessed.smi:1014|AV-procd|sdf|4433|dock5
  -GOLD-   22720 2393D 1   1.00000     0.00000
 Structure written by MMmdl.
 33 33  0  0  0  0  0  0  0  0  1 V2000
  146.4369  141.3085  154.5853 C   0  0  0  0  0  0  0  0  0  0  0  0
  147.8647  141.5226  154.0643 C   0  0  0  0  0  0  0  0  0  0  0  0
  148.9312  140.7601  154.8786 C   0  0  1  0  0  0  0  0  0  0  0  0
  148.8076  141.0923  156.3106 N   0  0  0  0  0  0  0  0  0  0  0  0
  149.9164  140.6267  157.1358 C   0  0  0  0  0  0  0  0  0  0  0  0
  151.2013  141.3526  156.7129 C   0  0  0  0  0  0  0  0  0  0  0  0
  151.6263  142.3120  157.7134 N   0  0  0  0  0  0  0  0  0  0  0  0
  151.2431  143.6286  157.8567 C   0  0  0  0  0  0  0  0  0  0  0  0
  151.9073  144.1346  158.9383 C   0  0  0  0  0  0  0  0  0  0  0  0
  151.8432  145.5187  159.5165 C   0  0  0  0  0  0  0  0  0  0  0  0
  152.6854  143.0323  159.3934 C   0  0  0  0  0  0  0  0  0  0  0  0
  152.5160  141.9446  158.6596 N   0  0  0  0  0  0  0  0  0  0  0  0
  148.8343  139.2488  154.6061 C   0  0  0  0  0  0  0  0  0  0  0  0
  149.0118  138.8422  153.3466 N   0  0  0  0  0  0  0  0  0  0  0  0
  148.6214  138.4595  155.5248 O   0  0  0  0  0  0  0  0  0  0  0  0
  145.7203  141.8821  153.9972 H   0  0  0  0  0  0  0  0  0  0  0  0
  146.3438  141.6266  155.6238 H   0  0  0  0  0  0  0  0  0  0  0  0
  146.1461  140.2594  154.5283 H   0  0  0  0  0  0  0  0  0  0  0  0
  147.9169  141.2350  153.0131 H   0  0  0  0  0  0  0  0  0  0  0  0
  148.0740  142.5932  154.0932 H   0  0  0  0  0  0  0  0  0  0  0  0
  149.9128  141.0956  154.5381 H   0  0  0  0  0  0  0  0  0  0  0  0
  147.9329  140.7630  156.6939 H   0  0  0  0  0  0  0  0  0  0  0  0
  149.7183  140.8194  158.1907 H   0  0  0  0  0  0  0  0  0  0  0  0
  150.0403  139.5496  157.0140 H   0  0  0  0  0  0  0  0  0  0  0  0
  152.0101  140.6374  156.5561 H   0  0  0  0  0  0  0  0  0  0  0  0
  151.0539  141.8770  155.7673 H   0  0  0  0  0  0  0  0  0  0  0  0
  150.5371  144.0922  157.1833 H   0  0  0  0  0  0  0  0  0  0  0  0
  152.5553  146.1880  159.0337 H   0  0  0  0  0  0  0  0  0  0  0  0
  152.0700  145.5219  160.5827 H   0  0  0  0  0  0  0  0  0  0  0  0
  150.8539  145.9611  159.3984 H   0  0  0  0  0  0  0  0  0  0  0  0
  153.3650  142.9910  160.2317 H   0  0  0  0  0  0  0  0  0  0  0  0
  148.9557  137.8596  153.1219 H   0  0  0  0  0  0  0  0  0  0  0  0
  149.2004  139.5206  152.6231 H   0  0  0  0  0  0  0  0  0  0  0  0
  1  2  1  0  0  0  0
  1 16  1  0  0  0  0
  1 17  1  0  0  0  0
  1 18  1  0  0  0  0
  2  3  1  0  0  0  0
  2 19  1  0  0  0  0
  2 20  1  0  0  0  0
  3  4  1  0  0  0  0
  3 13  1  0  0  0  0
  3 21  1  0  0  0  0
  4  5  1  0  0  0  0
  4 22  1  0  0  0  0
  5  6  1  0  0  0  0
  5 23  1  0  0  0  0
  5 24  1  0  0  0  0
  6  7  1  0  0  0  0
  6 25  1  0  0  0  0
  6 26  1  0  0  0  0
  7 12  1  0  0  0  0
  7  8  1  0  0  0  0
  8  9  2  0  0  0  0
  8 27  1  0  0  0  0
  9 10  1  0  0  0  0
  9 11  1  0  0  0  0
 10 28  1  0  0  0  0
 10 29  1  0  0  0  0
 10 30  1  0  0  0  0
 11 12  2  0  0  0  0
 11 31  1  0  0  0  0
 13 14  1  0  0  0  0
 13 15  2  0  0  0  0
 14 32  1  0  0  0  0
 14 33  1  0  0  0  0
M  END
> <s_m_source_file>
AV-unprocessed.smi

> <i_m_source_file_index>
1014

> <i_lp_mmshare_version>
43012

> <i_f3d_flags>
0

> <s_epik_input>
W0NIM11bQ0gyXVtDQEBIXShDKD1PKVtOSDJdKVtOSF1bQ0gyXVtDSDJdbjFbY0hdYyhbQ0gzXSlbY0hdbjE=

> <s_epik_cmdline>
J2VwaWtfcHl0aG9uJywgJy1waCcsICc3LjAnLCAnLXRuJywgJzgnLCAnLW1hJywgJzIwMCcsICctbWV0YWxfYmluZGluZycsICctaW1hZScsICc8aW5maWxlLm1hZT4nLCAnLW9tYWUnLCAnPG91dGZpbGUubWFlPic=

> <r_lp_tautomer_probability>
1

> <r_epik_Ionization_Penalty>
0.767127

> <r_epik_Ionization_Penalty_Charging>
0

> <r_epik_Ionization_Penalty_Neutral>
0.767127

> <r_epik_State_Penalty>
0.793761

> <r_epik_Charging_Adjusted_Penalty>
0.793761

> <i_epik_Tot_Q>
0

> <i_epik_Tot_abs_Q>
0

> <r_epik_Metal_State_Penalty>
0.79201

> <b_epik_Metal_Only>
0

> <s_lp_Force_Field>
OPLS_2005

> <r_lp_Energy>
4.41015

> <b_lp_Chiralities_Consistent>
1

> <s_lp_Variant>
AV-unprocessed.smi:1014-4

> <Gold.Version>
5.8.1

> <Gold.Id.Protein>
6NUR|6NUR_protein|mol2

> <Gold.PLP.Fitness>
41.0170

> <Gold.PLP.PLP>
-33.5366

> <Gold.PLP.part.hbond>
-1.9236

> <Gold.PLP.part.metal>
0.0000

> <Gold.PLP.part.buried>
-3.2716

> <Gold.PLP.part.nonpolar>
-28.0000

> <Gold.PLP.part.repulsive>
0.1527

> <Gold.PLP.ligand.clash>
0.0000

> <Gold.PLP.ligand.torsion>
0.8117

> <Gold.PLP.Chemscore.Hbond>
2.0000

> <Gold.PLP.Chemscore.CHOScore>
1.0000

> <Gold.PLP.Chemscore.Metal>
0.0000

> <Gold.Chemscore.Hbonds>
donor molecule, donor type, donor heavy atom, donor atom, acceptor molecule, acceptor atom, score
      L1  H    14    32       P1  7948  0.99
      L1  H    14    33       P1  7957  1.00
      L1  C     8    27       P1  8028  1.00

> <Gold.PLP.Chemscore.Internal.Correction>
0.1037

> <Gold.Rescore>
     Score         DG    S(hbond)    S(metal)    S(lipo)     H(rot)  DE(clash)    DE(int)     intcor
     12.66     -14.63       1.88        0.00      79.50       2.51       0.01       1.96       ----

> <Gold.Chemscore.Fitness>
12.6619

> <Gold.Chemscore.DG>
-14.6322

> <Gold.Chemscore.ZeroCoef>
-5.4800

> <Gold.Chemscore.Hbond>
1.8787

> <Gold.Chemscore.Metal>
0.0000

> <Gold.Chemscore.Lipo>
79.5044

> <Gold.Chemscore.Internal_Hbond>
0.0000

> <Gold.Chemscore.DEClash>
0.0149

> <Gold.Chemscore.DEInternal>
1.9555

> <Gold.Chemscore.Rot>
2.5096

> <Gold.Chemscore.Internal.Correction>
   9.000000E+99

> <Gold.Chemscore.Hbonds>
donor molecule, donor type, donor heavy atom, donor atom, acceptor molecule, acceptor atom, score
      L1  H    14    32       P1  7948  0.90
      L1  H    14    33       P1  7957  0.97

> <Gold.Chemscore.Hbond.Weighted>
-6.2748

> <Gold.Chemscore.Metal.Weighted>
-0.0000

> <Gold.Chemscore.Lipo.Weighted>
-9.3020

> <Gold.Chemscore.Internal_Hbond.Weighted>
0.0000

> <Gold.Chemscore.DEClash.Weighted>
0.0149

> <Gold.Chemscore.DEInternal.Weighted>
1.9555

> <Gold.Chemscore.Rot.Weighted>
6.4246

> <Gold.Chemscore.Internal.Correction.Weighted>
   9.000000E+99

> <Gold.Protein.RotatedTorsions>
[ 6907 6896 6895 6894 ] final -113.53 input  -60.11 | X-H torsion
[ 7974 7965 7964 7962 ] final   16.75 input  175.53 | X-H torsion
[ 8008 7997 7996 7995 ] final  139.83 input   59.86 | X-H torsion
[ 10167 10162 10161 10158 ] final  -26.51 input  -65.29 | X-H torsion
[ 10718 10713 10712 10709 ] final -103.13 input   66.30 | X-H torsion
[ 10763 10752 10751 10750 ] final   29.88 input  -60.55 | X-H torsion
[ 11005 11000 10999 10996 ] final  159.19 input  -57.11 | X-H torsion

> <Gold.Protein.ActiveResidues>
 VAL166  LYS551  ARG553  GLY616  TRP617  ASP618  TYR619  PRO620  LYS621  CYS622 
 ASP623  PHE694  ASN695  SER759  ASP760  ASP761  ALA762  ILE779  LEU786  VAL792 
 PHE793  MET794  SER795  GLU796  ALA797  LYS798  CYS799  TRP800  GLU811  SER814 

> <Gold.Protein.RotatedAtoms>
  150.7836  133.8931  159.3318 H   0  0  0  0  0  0  0  0  0  0  0  0  # atno 6907 bound_to 6896
  151.6787  135.0963  160.0221 H   0  0  0  0  0  0  0  0  0  0  0  0  # atno 6908 bound_to 6896
  152.3894  133.6619  159.6260 H   0  0  0  0  0  0  0  0  0  0  0  0  # atno 6909 bound_to 6896
  146.2240  139.8702  142.8589 H   0  0  0  0  0  0  0  0  0  0  0  0  # atno 7974 bound_to 7965
  156.2986  140.2357  156.4301 H   0  0  0  0  0  0  0  0  0  0  0  0  # atno 8008 bound_to 7997
  154.8278  140.0434  157.1476 H   0  0  0  0  0  0  0  0  0  0  0  0  # atno 8009 bound_to 7997
  154.9242  140.3008  155.5204 H   0  0  0  0  0  0  0  0  0  0  0  0  # atno 8010 bound_to 7997
  140.7282  143.4172  151.1009 H   0  0  0  0  0  0  0  0  0  0  0  0  # atno 10167 bound_to 10162
  156.0254  130.5452  150.7208 H   0  0  0  0  0  0  0  0  0  0  0  0  # atno 10718 bound_to 10713
  153.0404  135.6478  154.0958 H   0  0  0  0  0  0  0  0  0  0  0  0  # atno 10763 bound_to 10752
  154.0666  135.2884  155.3317 H   0  0  0  0  0  0  0  0  0  0  0  0  # atno 10764 bound_to 10752
  154.6622  135.5387  153.8097 H   0  0  0  0  0  0  0  0  0  0  0  0  # atno 10765 bound_to 10752
  140.1937  134.8388  157.2941 H   0  0  0  0  0  0  0  0  0  0  0  0  # atno 11005 bound_to 11000
  145.2616  141.0079  143.3823 LP  0  0  0  0  0  0  0  0  0  0  0  0  # atno 17320 bound_to 7965
  144.9294  139.4316  143.6502 LP  0  0  0  0  0  0  0  0  0  0  0  0  # atno 17321 bound_to 7965
  139.7813  143.8351  152.3138 LP  0  0  0  0  0  0  0  0  0  0  0  0  # atno 17342 bound_to 10162
  139.8303  144.7257  150.9459 LP  0  0  0  0  0  0  0  0  0  0  0  0  # atno 17343 bound_to 10162
  157.4824  131.0903  151.0521 LP  0  0  0  0  0  0  0  0  0  0  0  0  # atno 17370 bound_to 10713
  157.0951  130.5958  149.5448 LP  0  0  0  0  0  0  0  0  0  0  0  0  # atno 17371 bound_to 10713
  140.2131  134.4115  155.7603 LP  0  0  0  0  0  0  0  0  0  0  0  0  # atno 17394 bound_to 11000
  141.2227  133.7128  156.8369 LP  0  0  0  0  0  0  0  0  0  0  0  0  # atno 17395 bound_to 11000

$$$$
