AV-unprocessed.smi:1801|AV-procd|sdf|7268|dock1
  -GOLD-   22720 8523D 1   1.00000     0.00000
 Structure written by MMmdl.
 38 39  0  0  0  0  0  0  0  0  2 V2000
  147.5161  132.8872  153.4348 C   0  0  0  0  0  0  0  0  0  0  0  0
  146.2638  133.7639  153.6085 C   0  0  1  0  0  0  0  0  0  0  0  0
  146.5149  134.9151  154.6108 C   0  0  0  0  0  0  0  0  0  0  0  0
  147.4190  135.9294  154.0785 N   0  0  0  0  0  0  0  0  0  0  0  0
  147.6271  137.1318  154.6342 C   0  0  0  0  0  0  0  0  0  0  0  0
  147.0627  137.5064  155.6626 O   0  0  0  0  0  0  0  0  0  0  0  0
  148.5178  137.8479  153.9294 N   0  0  0  0  0  0  0  0  0  0  0  0
  149.0039  139.1502  154.2067 C   0  0  0  0  0  0  0  0  0  0  0  0
  150.2968  139.2835  154.5254 N   0  0  0  0  0  0  0  0  0  0  0  0
  150.6380  140.6075  154.7733 N   0  0  0  0  0  0  0  0  0  0  0  0
  149.5877  141.4217  154.6320 C   0  0  0  0  0  0  0  0  0  0  0  0
  148.0758  140.6528  154.1821 S   0  0  0  0  0  0  0  0  0  0  0  0
  145.7875  134.2953  152.2396 C   0  0  0  0  0  0  0  0  0  0  0  0
  145.0912  133.2615  151.4356 N   0  3  0  0  0  0  0  0  0  0  0  0
  144.1107  133.8000  150.4731 C   0  0  0  0  0  0  0  0  0  0  0  0
  143.9231  132.6876  149.4473 C   0  0  0  0  0  0  0  0  0  0  0  0
  145.3254  132.0985  149.3209 C   0  0  0  0  0  0  0  0  0  0  0  0
  145.9725  132.3272  150.6941 C   0  0  0  0  0  0  0  0  0  0  0  0
  148.3516  133.4641  153.0368 H   0  0  0  0  0  0  0  0  0  0  0  0
  147.3251  132.0624  152.7478 H   0  0  0  0  0  0  0  0  0  0  0  0
  147.8348  132.4495  154.3811 H   0  0  0  0  0  0  0  0  0  0  0  0
  145.4819  133.1185  154.0099 H   0  0  0  0  0  0  0  0  0  0  0  0
  145.5723  135.3983  154.8697 H   0  0  0  0  0  0  0  0  0  0  0  0
  146.9266  134.5354  155.5471 H   0  0  0  0  0  0  0  0  0  0  0  0
  147.9206  135.6985  153.2329 H   0  0  0  0  0  0  0  0  0  0  0  0
  148.8972  137.4115  153.1019 H   0  0  0  0  0  0  0  0  0  0  0  0
  149.7041  142.4829  154.7949 H   0  0  0  0  0  0  0  0  0  0  0  0
  145.1112  135.1372  152.3961 H   0  0  0  0  0  0  0  0  0  0  0  0
  146.6318  134.6795  151.6649 H   0  0  0  0  0  0  0  0  0  0  0  0
  143.1781  134.0831  150.9622 H   0  0  0  0  0  0  0  0  0  0  0  0
  144.5206  134.6855  149.9839 H   0  0  0  0  0  0  0  0  0  0  0  0
  143.2371  131.9346  149.8381 H   0  0  0  0  0  0  0  0  0  0  0  0
  143.5253  133.0471  148.4977 H   0  0  0  0  0  0  0  0  0  0  0  0
  145.3116  131.0470  149.0326 H   0  0  0  0  0  0  0  0  0  0  0  0
  145.8837  132.6431  148.5581 H   0  0  0  0  0  0  0  0  0  0  0  0
  146.9801  132.7277  150.5726 H   0  0  0  0  0  0  0  0  0  0  0  0
  146.0523  131.3956  151.2557 H   0  0  0  0  0  0  0  0  0  0  0  0
  144.5592  132.6922  152.0784 H   0  0  0  0  0  0  0  0  0  0  0  0
  1  2  1  0  0  0  0
  1 19  1  0  0  0  0
  1 20  1  0  0  0  0
  1 21  1  0  0  0  0
  2  3  1  0  0  0  0
  2 13  1  0  0  0  0
  2 22  1  0  0  0  0
  3  4  1  0  0  0  0
  3 23  1  0  0  0  0
  3 24  1  0  0  0  0
  4  5  1  0  0  0  0
  4 25  1  0  0  0  0
  5  6  2  0  0  0  0
  5  7  1  0  0  0  0
  7  8  1  0  0  0  0
  7 26  1  0  0  0  0
  8 12  1  0  0  0  0
  8  9  2  0  0  0  0
  9 10  1  0  0  0  0
 10 11  2  0  0  0  0
 11 12  1  0  0  0  0
 11 27  1  0  0  0  0
 13 14  1  0  0  0  0
 13 28  1  0  0  0  0
 13 29  1  0  0  0  0
 14 18  1  0  0  0  0
 14 15  1  0  0  0  0
 14 38  1  0  0  0  0
 15 16  1  0  0  0  0
 15 30  1  0  0  0  0
 15 31  1  0  0  0  0
 16 17  1  0  0  0  0
 16 32  1  0  0  0  0
 16 33  1  0  0  0  0
 17 18  1  0  0  0  0
 17 34  1  0  0  0  0
 17 35  1  0  0  0  0
 18 36  1  0  0  0  0
 18 37  1  0  0  0  0
M  CHG  1  14   1
M  END
> <s_m_source_file>
AV-unprocessed.smi

> <i_m_source_file_index>
1801

> <i_lp_mmshare_version>
43012

> <i_f3d_flags>
0

> <s_epik_input>
W0NIMl0xW0NIMl1bQ0gyXVtDSDJdTjFbQ0gyXVtDQEhdKFtDSDNdKVtDSDJdW05IXUMoPU8pW05IXWMybm5bY0hdczI=

> <s_epik_cmdline>
J2VwaWtfcHl0aG9uJywgJy1waCcsICc3LjAnLCAnLXRuJywgJzgnLCAnLW1hJywgJzIwMCcsICctbWV0YWxfYmluZGluZycsICctaW1hZScsICc8aW5maWxlLm1hZT4nLCAnLW9tYWUnLCAnPG91dGZpbGUubWFlPic=

> <r_lp_tautomer_probability>
1

> <r_epik_Ionization_Penalty>
0.00281598

> <r_epik_Ionization_Penalty_Charging>
0.000371708

> <r_epik_Ionization_Penalty_Neutral>
0.00244427

> <r_epik_State_Penalty>
-0

> <r_epik_Charging_Adjusted_Penalty>
0.000371708

> <i_epik_Tot_Q>
1

> <i_epik_Tot_abs_Q>
1

> <r_epik_Metal_State_Penalty>
0.350595

> <b_epik_Metal_Only>
0

> <s_lp_Force_Field>
OPLS_2005

> <r_lp_Energy>
27.8609

> <b_lp_Chiralities_Consistent>
1

> <s_lp_Variant>
AV-unprocessed.smi:1801-2

> <Gold.Version>
5.8.1

> <Gold.Id.Protein>
6NUR|6NUR_protein|mol2

> <Gold.PLP.Fitness>
38.2079

> <Gold.PLP.PLP>
-28.5552

> <Gold.PLP.part.hbond>
-3.0000

> <Gold.PLP.part.metal>
0.0000

> <Gold.PLP.part.buried>
-3.0922

> <Gold.PLP.part.nonpolar>
-22.3611

> <Gold.PLP.part.repulsive>
0.2334

> <Gold.PLP.ligand.clash>
0.0000

> <Gold.PLP.ligand.torsion>
1.1519

> <Gold.PLP.Chemscore.Hbond>
2.9420

> <Gold.PLP.Chemscore.CHOScore>
0.9991

> <Gold.PLP.Chemscore.Metal>
0.0000

> <Gold.Chemscore.Hbonds>
donor molecule, donor type, donor heavy atom, donor atom, acceptor molecule, acceptor atom, score
      L1  H     4    25       P1  7948  0.99
      L1  H     7    26       P1  7948  1.00
      P1  H  7989  7998       L1    10  0.98
      L1  C    11    27       P1  8028  1.00

> <Gold.PLP.Chemscore.Internal.Correction>
0.1332

> <Gold.Rescore>
     Score         DG    S(hbond)    S(metal)    S(lipo)     H(rot)  DE(clash)    DE(int)     intcor
     15.26     -16.37       2.28        0.00      70.98       1.97       0.15       0.96       ----

> <Gold.Chemscore.Fitness>
15.2565

> <Gold.Chemscore.DG>
-16.3708

> <Gold.Chemscore.ZeroCoef>
-5.4800

> <Gold.Chemscore.Hbond>
2.2817

> <Gold.Chemscore.Metal>
0.0000

> <Gold.Chemscore.Lipo>
70.9810

> <Gold.Chemscore.Internal_Hbond>
0.0000

> <Gold.Chemscore.DEClash>
0.1531

> <Gold.Chemscore.DEInternal>
0.9612

> <Gold.Chemscore.Rot>
1.9667

> <Gold.Chemscore.Internal.Correction>
   9.000000E+99

> <Gold.Chemscore.Hbonds>
donor molecule, donor type, donor heavy atom, donor atom, acceptor molecule, acceptor atom, score
      L1  H     4    25       P1  7948  0.94
      L1  H     7    26       P1  7948  0.98
      P1  H  7989  7998       L1    10  0.14

> <Gold.Chemscore.Hbond.Weighted>
-7.6209

> <Gold.Chemscore.Metal.Weighted>
-0.0000

> <Gold.Chemscore.Lipo.Weighted>
-8.3048

> <Gold.Chemscore.Internal_Hbond.Weighted>
0.0000

> <Gold.Chemscore.DEClash.Weighted>
0.1531

> <Gold.Chemscore.DEInternal.Weighted>
0.9612

> <Gold.Chemscore.Rot.Weighted>
5.0348

> <Gold.Chemscore.Internal.Correction.Weighted>
   9.000000E+99

> <Gold.Protein.RotatedTorsions>
[ 6907 6896 6895 6894 ] final   -9.57 input  -60.11 | X-H torsion
[ 7974 7965 7964 7962 ] final -167.21 input  175.53 | X-H torsion
[ 8008 7997 7996 7995 ] final  -88.96 input   59.86 | X-H torsion
[ 10167 10162 10161 10158 ] final  158.79 input  -65.29 | X-H torsion
[ 10718 10713 10712 10709 ] final   71.36 input   66.30 | X-H torsion
[ 10763 10752 10751 10750 ] final  163.97 input  -60.55 | X-H torsion
[ 11005 11000 10999 10996 ] final  149.75 input  -57.11 | X-H torsion

> <Gold.Protein.ActiveResidues>
 VAL166  LYS551  ARG553  GLY616  TRP617  ASP618  TYR619  PRO620  LYS621  CYS622 
 ASP623  PHE694  ASN695  SER759  ASP760  ASP761  ALA762  ILE779  LEU786  VAL792 
 PHE793  MET794  SER795  GLU796  ALA797  LYS798  CYS799  TRP800  GLU811  SER814 

> <Gold.Protein.RotatedAtoms>
  151.4156  135.0991  159.9598 H   0  0  0  0  0  0  0  0  0  0  0  0  # atno 6907 bound_to 6896
  152.5005  133.8756  159.7331 H   0  0  0  0  0  0  0  0  0  0  0  0  # atno 6908 bound_to 6896
  150.9260  133.6766  159.2849 H   0  0  0  0  0  0  0  0  0  0  0  0  # atno 6909 bound_to 6896
  144.7228  140.2552  143.6273 H   0  0  0  0  0  0  0  0  0  0  0  0  # atno 7974 bound_to 7965
  154.6810  140.0547  157.0265 H   0  0  0  0  0  0  0  0  0  0  0  0  # atno 8008 bound_to 7997
  155.0952  140.3223  155.4543 H   0  0  0  0  0  0  0  0  0  0  0  0  # atno 8009 bound_to 7997
  156.2694  140.2041  156.6079 H   0  0  0  0  0  0  0  0  0  0  0  0  # atno 8010 bound_to 7997
  139.4828  144.4792  151.8469 H   0  0  0  0  0  0  0  0  0  0  0  0  # atno 10167 bound_to 10162
  157.6447  130.9524  150.0778 H   0  0  0  0  0  0  0  0  0  0  0  0  # atno 10718 bound_to 10713
  154.3018  135.2759  155.2607 H   0  0  0  0  0  0  0  0  0  0  0  0  # atno 10763 bound_to 10752
  154.5041  135.5800  153.6557 H   0  0  0  0  0  0  0  0  0  0  0  0  # atno 10764 bound_to 10752
  152.9899  135.6165  154.3189 H   0  0  0  0  0  0  0  0  0  0  0  0  # atno 10765 bound_to 10752
  140.1072  134.8947  157.1883 H   0  0  0  0  0  0  0  0  0  0  0  0  # atno 11005 bound_to 11000
  145.8190  139.2035  143.1949 LP  0  0  0  0  0  0  0  0  0  0  0  0  # atno 17320 bound_to 7965
  146.0531  140.8049  142.9772 LP  0  0  0  0  0  0  0  0  0  0  0  0  # atno 17321 bound_to 7965
  140.4266  144.2172  150.5887 LP  0  0  0  0  0  0  0  0  0  0  0  0  # atno 17342 bound_to 10162
  140.4821  143.2375  151.8940 LP  0  0  0  0  0  0  0  0  0  0  0  0  # atno 17343 bound_to 10162
  156.1763  130.3648  149.9096 LP  0  0  0  0  0  0  0  0  0  0  0  0  # atno 17370 bound_to 10713
  156.7059  130.8951  151.3604 LP  0  0  0  0  0  0  0  0  0  0  0  0  # atno 17371 bound_to 10713
  140.3140  134.2992  155.7260 LP  0  0  0  0  0  0  0  0  0  0  0  0  # atno 17394 bound_to 11000
  141.2121  133.7668  156.9816 LP  0  0  0  0  0  0  0  0  0  0  0  0  # atno 17395 bound_to 11000

$$$$
