AV-unprocessed.smi:1976|AV-procd|sdf|7987|dock9
  -GOLD-   2272010173D 1   1.00000     0.00000
 Structure written by MMmdl.
 45 47  0  0  0  0  0  0  0  0  2 V2000
  148.6227  132.8190  155.2415 O   0  0  0  0  0  0  0  0  0  0  0  0
  148.7445  133.7305  154.4222 C   0  0  0  0  0  0  0  0  0  0  0  0
  149.9660  134.6601  154.4483 C   0  0  0  0  0  0  0  0  0  0  0  0
  150.0236  135.5161  155.6451 N   0  0  0  0  0  0  0  0  0  0  0  0
  149.1312  135.2157  156.6930 C   0  0  0  0  0  0  0  0  0  0  0  0
  149.0742  135.9286  157.8342 C   0  0  0  0  0  0  0  0  0  0  0  0
  148.1349  135.5488  158.9682 C   0  0  0  0  0  0  0  0  0  0  0  0
  148.3604  136.2955  160.0493 F   0  0  0  0  0  0  0  0  0  0  0  0
  146.8709  135.7351  158.5909 F   0  0  0  0  0  0  0  0  0  0  0  0
  148.2822  134.2672  159.3065 F   0  0  0  0  0  0  0  0  0  0  0  0
  150.0157  137.0239  157.9582 C   0  0  0  0  0  0  0  0  0  0  0  0
  150.8788  137.3221  156.9673 C   0  0  0  0  0  0  0  0  0  0  0  0
  150.9100  136.5537  155.7208 C   0  0  0  0  0  0  0  0  0  0  0  0
  151.6844  136.8239  154.8025 O   0  0  0  0  0  0  0  0  0  0  0  0
  147.8497  133.9665  153.4517 N   0  0  0  0  0  0  0  0  0  0  0  0
  146.6230  133.2027  153.2406 C   0  0  2  0  0  0  0  0  0  0  0  0
  146.4899  132.6068  151.8419 C   0  0  0  0  0  0  0  0  0  0  0  0
  144.9892  132.3265  151.7256 C   0  0  0  0  0  0  0  0  0  0  0  0
  144.3022  133.2874  152.6226 N   0  3  2  0  0  0  0  0  0  0  0  0
  143.2806  134.1254  151.9396 C   0  0  0  0  0  0  0  0  0  0  0  0
  142.8905  135.3305  152.8079 C   0  0  0  0  0  0  0  0  0  0  0  0
  144.0969  136.2526  153.0675 C   0  0  0  0  0  0  0  0  0  0  0  0
  145.4434  135.5151  152.9341 C   0  0  0  0  0  0  0  0  0  0  0  0
  145.3389  134.0382  153.3878 C   0  0  2  0  0  0  0  0  0  0  0  0
  150.8629  134.0436  154.3737 H   0  0  0  0  0  0  0  0  0  0  0  0
  149.9697  135.2767  153.5474 H   0  0  0  0  0  0  0  0  0  0  0  0
  148.4891  134.3668  156.5079 H   0  0  0  0  0  0  0  0  0  0  0  0
  150.0269  137.6198  158.8588 H   0  0  0  0  0  0  0  0  0  0  0  0
  151.5639  138.1474  157.0935 H   0  0  0  0  0  0  0  0  0  0  0  0
  148.0290  134.7320  152.8178 H   0  0  0  0  0  0  0  0  0  0  0  0
  146.5844  132.3893  153.9684 H   0  0  0  0  0  0  0  0  0  0  0  0
  146.7896  133.3376  151.0894 H   0  0  0  0  0  0  0  0  0  0  0  0
  147.0958  131.7111  151.7004 H   0  0  0  0  0  0  0  0  0  0  0  0
  144.6493  132.3842  150.6907 H   0  0  0  0  0  0  0  0  0  0  0  0
  144.7692  131.3201  152.0832 H   0  0  0  0  0  0  0  0  0  0  0  0
  143.6648  134.4825  150.9825 H   0  0  0  0  0  0  0  0  0  0  0  0
  142.4069  133.5111  151.7194 H   0  0  0  0  0  0  0  0  0  0  0  0
  142.0835  135.8949  152.3397 H   0  0  0  0  0  0  0  0  0  0  0  0
  142.4964  134.9682  153.7586 H   0  0  0  0  0  0  0  0  0  0  0  0
  144.0834  137.0921  152.3713 H   0  0  0  0  0  0  0  0  0  0  0  0
  144.0043  136.6851  154.0645 H   0  0  0  0  0  0  0  0  0  0  0  0
  145.7720  135.5492  151.8943 H   0  0  0  0  0  0  0  0  0  0  0  0
  146.1991  136.0520  153.5083 H   0  0  0  0  0  0  0  0  0  0  0  0
  145.0428  134.0406  154.4379 H   0  0  0  0  0  0  0  0  0  0  0  0
  143.8070  132.7309  153.3048 H   0  0  0  0  0  0  0  0  0  0  0  0
  1  2  2  0  0  0  0
  2  3  1  0  0  0  0
  2 15  1  0  0  0  0
  3  4  1  0  0  0  0
  3 25  1  0  0  0  0
  3 26  1  0  0  0  0
  4 13  1  0  0  0  0
  4  5  1  0  0  0  0
  5  6  2  0  0  0  0
  5 27  1  0  0  0  0
  6  7  1  0  0  0  0
  6 11  1  0  0  0  0
  7  8  1  0  0  0  0
  7  9  1  0  0  0  0
  7 10  1  0  0  0  0
 11 12  2  0  0  0  0
 11 28  1  0  0  0  0
 12 13  1  0  0  0  0
 12 29  1  0  0  0  0
 13 14  2  0  0  0  0
 15 16  1  0  0  0  0
 15 30  1  0  0  0  0
 16 24  1  0  0  0  0
 16 17  1  0  0  0  0
 16 31  1  0  0  0  0
 17 18  1  0  0  0  0
 17 32  1  0  0  0  0
 17 33  1  0  0  0  0
 18 19  1  0  0  0  0
 18 34  1  0  0  0  0
 18 35  1  0  0  0  0
 19 24  1  0  0  0  0
 19 20  1  0  0  0  0
 19 45  1  0  0  0  0
 20 21  1  0  0  0  0
 20 36  1  0  0  0  0
 20 37  1  0  0  0  0
 21 22  1  0  0  0  0
 21 38  1  0  0  0  0
 21 39  1  0  0  0  0
 22 23  1  0  0  0  0
 22 40  1  0  0  0  0
 22 41  1  0  0  0  0
 23 24  1  0  0  0  0
 23 42  1  0  0  0  0
 23 43  1  0  0  0  0
 24 44  1  0  0  0  0
M  CHG  1  19   1
M  END
> <s_m_source_file>
AV-unprocessed.smi

> <i_m_source_file_index>
1976

> <i_lp_mmshare_version>
43012

> <i_f3d_flags>
0

> <s_epik_input>
W0NIMl0xW0NIMl1bQ0gyXVtDSDJdW0NASF0oTjEyKVtDQEBIXShbQ0gyXVtDSDJdMilbTkhdQyg9TylbQ0gyXW4zW2NIXWMoQyhGKShGKUYpW2NIXVtjSF1jMz1P

> <s_epik_cmdline>
J2VwaWtfcHl0aG9uJywgJy1waCcsICc3LjAnLCAnLXRuJywgJzgnLCAnLW1hJywgJzIwMCcsICctbWV0YWxfYmluZGluZycsICctaW1hZScsICc8aW5maWxlLm1hZT4nLCAnLW9tYWUnLCAnPG91dGZpbGUubWFlPic=

> <r_lp_tautomer_probability>
1

> <r_epik_Ionization_Penalty>
0.00171506

> <r_epik_Ionization_Penalty_Charging>
0.00171498

> <r_epik_Ionization_Penalty_Neutral>
7.81737e-08

> <r_epik_State_Penalty>
0.00115937

> <r_epik_Charging_Adjusted_Penalty>
0.00287436

> <i_epik_Tot_Q>
1

> <i_epik_Tot_abs_Q>
1

> <r_epik_Metal_State_Penalty>
-0

> <b_epik_Metal_Only>
0

> <s_lp_Force_Field>
OPLS_2005

> <r_lp_Energy>
52.9045

> <b_lp_Chiralities_Consistent>
1

> <s_lp_Variant>
AV-unprocessed.smi:1976-5

> <Gold.Version>
5.8.1

> <Gold.Id.Protein>
6NUR|6NUR_protein|mol2

> <Gold.PLP.Fitness>
39.8853

> <Gold.PLP.PLP>
-28.7650

> <Gold.PLP.part.hbond>
-2.9760

> <Gold.PLP.part.metal>
0.0000

> <Gold.PLP.part.buried>
-5.4778

> <Gold.PLP.part.nonpolar>
-21.2550

> <Gold.PLP.part.repulsive>
0.1299

> <Gold.PLP.ligand.clash>
0.3332

> <Gold.PLP.ligand.torsion>
0.2682

> <Gold.PLP.Chemscore.Hbond>
3.9825

> <Gold.PLP.Chemscore.CHOScore>
0.0000

> <Gold.PLP.Chemscore.Metal>
0.0000

> <Gold.Chemscore.Hbonds>
donor molecule, donor type, donor heavy atom, donor atom, acceptor molecule, acceptor atom, score
      L1  H    15    30       P1  7948  1.00
      L1  H    19    45       P1 10957  1.69
      P1  H 10752 10763       L1    14  1.00

> <Gold.PLP.Chemscore.Internal.Correction>
0.0424

> <Gold.Rescore>
     Score         DG    S(hbond)    S(metal)    S(lipo)     H(rot)  DE(clash)    DE(int)     intcor
     15.21     -16.74       2.76        0.00      52.11       1.58       0.04       1.49       ----

> <Gold.Chemscore.Fitness>
15.2102

> <Gold.Chemscore.DG>
-16.7393

> <Gold.Chemscore.ZeroCoef>
-5.4800

> <Gold.Chemscore.Hbond>
2.7588

> <Gold.Chemscore.Metal>
0.0000

> <Gold.Chemscore.Lipo>
52.1123

> <Gold.Chemscore.Internal_Hbond>
0.0000

> <Gold.Chemscore.DEClash>
0.0420

> <Gold.Chemscore.DEInternal>
1.4871

> <Gold.Chemscore.Rot>
1.5830

> <Gold.Chemscore.Internal.Correction>
   9.000000E+99

> <Gold.Chemscore.Hbonds>
donor molecule, donor type, donor heavy atom, donor atom, acceptor molecule, acceptor atom, score
      L1  H    15    30       P1  7948  0.77
      L1  H    19    45       P1 10957  0.37
      P1  H 10752 10763       L1    14  0.95

> <Gold.Chemscore.Hbond.Weighted>
-9.2145

> <Gold.Chemscore.Metal.Weighted>
-0.0000

> <Gold.Chemscore.Lipo.Weighted>
-6.0971

> <Gold.Chemscore.Internal_Hbond.Weighted>
0.0000

> <Gold.Chemscore.DEClash.Weighted>
0.0420

> <Gold.Chemscore.DEInternal.Weighted>
1.4871

> <Gold.Chemscore.Rot.Weighted>
4.0524

> <Gold.Chemscore.Internal.Correction.Weighted>
   9.000000E+99

> <Gold.Protein.RotatedTorsions>
[ 6907 6896 6895 6894 ] final  172.58 input  -60.11 | X-H torsion
[ 7974 7965 7964 7962 ] final  163.89 input  175.53 | X-H torsion
[ 8008 7997 7996 7995 ] final   63.66 input   59.86 | X-H torsion
[ 10167 10162 10161 10158 ] final  -64.63 input  -65.29 | X-H torsion
[ 10718 10713 10712 10709 ] final   56.17 input   66.30 | X-H torsion
[ 10763 10752 10751 10750 ] final   47.16 input  -60.55 | X-H torsion
[ 11005 11000 10999 10996 ] final  156.75 input  -57.11 | X-H torsion

> <Gold.Protein.ActiveResidues>
 VAL166  LYS551  ARG553  GLY616  TRP617  ASP618  TYR619  PRO620  LYS621  CYS622 
 ASP623  PHE694  ASN695  SER759  ASP760  ASP761  ALA762  ILE779  LEU786  VAL792 
 PHE793  MET794  SER795  GLU796  ALA797  LYS798  CYS799  TRP800  GLU811  SER814 

> <Gold.Protein.RotatedAtoms>
  151.7821  133.3350  159.3474 H   0  0  0  0  0  0  0  0  0  0  0  0  # atno 6907 bound_to 6896
  150.7422  134.5921  159.6002 H   0  0  0  0  0  0  0  0  0  0  0  0  # atno 6908 bound_to 6896
  152.3269  134.7311  160.0351 H   0  0  0  0  0  0  0  0  0  0  0  0  # atno 6909 bound_to 6896
  144.7569  139.8247  143.6346 H   0  0  0  0  0  0  0  0  0  0  0  0  # atno 7974 bound_to 7965
  155.6338  140.3496  155.4692 H   0  0  0  0  0  0  0  0  0  0  0  0  # atno 8008 bound_to 7997
  155.9982  140.1207  157.0597 H   0  0  0  0  0  0  0  0  0  0  0  0  # atno 8009 bound_to 7997
  154.4240  140.1106  156.5645 H   0  0  0  0  0  0  0  0  0  0  0  0  # atno 8010 bound_to 7997
  140.5787  143.2325  151.6387 H   0  0  0  0  0  0  0  0  0  0  0  0  # atno 10167 bound_to 10162
  157.5408  130.8696  149.8819 H   0  0  0  0  0  0  0  0  0  0  0  0  # atno 10718 bound_to 10713
  152.9803  135.5985  154.3718 H   0  0  0  0  0  0  0  0  0  0  0  0  # atno 10763 bound_to 10752
  154.3390  135.2768  155.2434 H   0  0  0  0  0  0  0  0  0  0  0  0  # atno 10764 bound_to 10752
  154.4524  135.5986  153.6256 H   0  0  0  0  0  0  0  0  0  0  0  0  # atno 10765 bound_to 10752
  140.1704  134.8547  157.2684 H   0  0  0  0  0  0  0  0  0  0  0  0  # atno 11005 bound_to 11000
  146.1590  139.4698  143.0000 LP  0  0  0  0  0  0  0  0  0  0  0  0  # atno 17320 bound_to 7965
  145.6748  141.0207  143.1638 LP  0  0  0  0  0  0  0  0  0  0  0  0  # atno 17321 bound_to 7965
  139.5157  144.3369  152.0776 LP  0  0  0  0  0  0  0  0  0  0  0  0  # atno 17342 bound_to 10162
  140.2516  144.4163  150.6220 LP  0  0  0  0  0  0  0  0  0  0  0  0  # atno 17343 bound_to 10162
  156.0495  130.3720  150.1236 LP  0  0  0  0  0  0  0  0  0  0  0  0  # atno 17370 bound_to 10713
  156.9415  130.9746  151.3515 LP  0  0  0  0  0  0  0  0  0  0  0  0  # atno 17371 bound_to 10713
  140.2384  134.3825  155.7491 LP  0  0  0  0  0  0  0  0  0  0  0  0  # atno 17394 bound_to 11000
  141.2217  133.7252  156.8750 LP  0  0  0  0  0  0  0  0  0  0  0  0  # atno 17395 bound_to 11000

$$$$
