AV-unprocessed.smi:2056|AV-procd|sdf|8338|dock1
  -GOLD-   2272011 03D 1   1.00000     0.00000
 Structure written by MMmdl.
 34 34  0  0  0  0  0  0  0  0  1 V2000
  150.3787  144.2653  159.6459 C   0  0  0  0  0  0  0  0  0  0  0  0
  151.8164  144.4198  159.1056 C   0  0  0  0  0  0  0  0  0  0  0  0
  152.2582  145.8822  159.3097 C   0  0  0  0  0  0  0  0  0  0  0  0
  152.7643  143.5102  159.9161 C   0  0  0  0  0  0  0  0  0  0  0  0
  151.8786  144.1067  157.5830 C   0  0  0  0  0  0  0  0  0  0  0  0
  151.6042  142.6479  157.1894 C   0  0  0  0  0  0  0  0  0  0  0  0
  151.9905  141.7363  157.9211 O   0  0  0  0  0  0  0  0  0  0  0  0
  150.9618  142.4699  156.0197 N   0  0  0  0  0  0  0  0  0  0  0  0
  150.5679  141.2524  155.4066 C   0  0  0  0  0  0  0  0  0  0  0  0
  151.4152  140.2915  155.0216 N   0  0  0  0  0  0  0  0  0  0  0  0
  150.7545  139.2043  154.4392 C   0  0  0  0  0  0  0  0  0  0  0  0
  151.5423  138.0277  153.9405 C   0  0  0  0  0  0  0  0  0  0  0  0
  151.3260  136.8193  154.8536 C   0  0  0  0  0  0  0  0  0  0  0  0
  150.5725  135.8229  154.3802 N   0  0  0  0  0  0  0  0  0  0  0  0
  151.8304  136.7852  155.9739 O   0  0  0  0  0  0  0  0  0  0  0  0
  149.3890  139.3575  154.4033 C   0  0  0  0  0  0  0  0  0  0  0  0
  148.8823  140.8806  155.0825 S   0  0  0  0  0  0  0  0  0  0  0  0
  150.3162  144.5619  160.6935 H   0  0  0  0  0  0  0  0  0  0  0  0
  150.0287  143.2342  159.5847 H   0  0  0  0  0  0  0  0  0  0  0  0
  149.6762  144.8854  159.0880 H   0  0  0  0  0  0  0  0  0  0  0  0
  151.6087  146.5734  158.7712 H   0  0  0  0  0  0  0  0  0  0  0  0
  153.2761  146.0434  158.9526 H   0  0  0  0  0  0  0  0  0  0  0  0
  152.2327  146.1649  160.3627 H   0  0  0  0  0  0  0  0  0  0  0  0
  152.7928  143.8056  160.9655 H   0  0  0  0  0  0  0  0  0  0  0  0
  153.7845  143.5595  159.5342 H   0  0  0  0  0  0  0  0  0  0  0  0
  152.4518  142.4661  159.8905 H   0  0  0  0  0  0  0  0  0  0  0  0
  151.1780  144.7506  157.0485 H   0  0  0  0  0  0  0  0  0  0  0  0
  152.8650  144.3690  157.1977 H   0  0  0  0  0  0  0  0  0  0  0  0
  150.7091  143.3087  155.5184 H   0  0  0  0  0  0  0  0  0  0  0  0
  151.2454  137.7644  152.9242 H   0  0  0  0  0  0  0  0  0  0  0  0
  152.6054  138.2674  153.8956 H   0  0  0  0  0  0  0  0  0  0  0  0
  150.3998  135.0060  154.9476 H   0  0  0  0  0  0  0  0  0  0  0  0
  150.1756  135.8930  153.4543 H   0  0  0  0  0  0  0  0  0  0  0  0
  148.6529  138.6700  154.0140 H   0  0  0  0  0  0  0  0  0  0  0  0
  1  2  1  0  0  0  0
  1 18  1  0  0  0  0
  1 19  1  0  0  0  0
  1 20  1  0  0  0  0
  2  3  1  0  0  0  0
  2  4  1  0  0  0  0
  2  5  1  0  0  0  0
  3 21  1  0  0  0  0
  3 22  1  0  0  0  0
  3 23  1  0  0  0  0
  4 24  1  0  0  0  0
  4 25  1  0  0  0  0
  4 26  1  0  0  0  0
  5  6  1  0  0  0  0
  5 27  1  0  0  0  0
  5 28  1  0  0  0  0
  6  7  2  0  0  0  0
  6  8  1  0  0  0  0
  8  9  1  0  0  0  0
  8 29  1  0  0  0  0
  9 17  1  0  0  0  0
  9 10  2  0  0  0  0
 10 11  1  0  0  0  0
 11 12  1  0  0  0  0
 11 16  2  0  0  0  0
 12 13  1  0  0  0  0
 12 30  1  0  0  0  0
 12 31  1  0  0  0  0
 13 14  1  0  0  0  0
 13 15  2  0  0  0  0
 14 32  1  0  0  0  0
 14 33  1  0  0  0  0
 16 17  1  0  0  0  0
 16 34  1  0  0  0  0
M  END
> <s_m_source_file>
AV-unprocessed.smi

> <i_m_source_file_index>
2056

> <i_lp_mmshare_version>
43012

> <i_f3d_flags>
0

> <s_epik_input>
W0NIM11DKFtDSDNdKShbQ0gzXSlbQ0gyXUMoPU8pW05IXWMxbmMoW2NIXXMxKVtDSDJdQyg9TylbTkgyXQ==

> <s_epik_cmdline>
J2VwaWtfcHl0aG9uJywgJy1waCcsICc3LjAnLCAnLXRuJywgJzgnLCAnLW1hJywgJzIwMCcsICctbWV0YWxfYmluZGluZycsICctaW1hZScsICc8aW5maWxlLm1hZT4nLCAnLW9tYWUnLCAnPG91dGZpbGUubWFlPic=

> <r_lp_tautomer_probability>
1

> <r_epik_Ionization_Penalty>
0.000211791

> <r_epik_Ionization_Penalty_Charging>
0

> <r_epik_Ionization_Penalty_Neutral>
0.000211791

> <r_epik_State_Penalty>
-0

> <r_epik_Charging_Adjusted_Penalty>
0

> <i_epik_Tot_Q>
0

> <i_epik_Tot_abs_Q>
0

> <r_epik_Metal_State_Penalty>
0.129621

> <b_epik_Metal_Only>
0

> <s_lp_Force_Field>
OPLS_2005

> <r_lp_Energy>
3.85365

> <b_lp_Chiralities_Consistent>
1

> <s_lp_Variant>
AV-unprocessed.smi:2056-1

> <Gold.Version>
5.8.1

> <Gold.Id.Protein>
6NUR|6NUR_protein|mol2

> <Gold.PLP.Fitness>
42.4998

> <Gold.PLP.PLP>
-38.8831

> <Gold.PLP.part.hbond>
-3.5295

> <Gold.PLP.part.metal>
0.0000

> <Gold.PLP.part.buried>
-3.4681

> <Gold.PLP.part.nonpolar>
-31.7998

> <Gold.PLP.part.repulsive>
0.2378

> <Gold.PLP.ligand.clash>
0.0000

> <Gold.PLP.ligand.torsion>
1.2138

> <Gold.PLP.Chemscore.Hbond>
2.0060

> <Gold.PLP.Chemscore.CHOScore>
0.0000

> <Gold.PLP.Chemscore.Metal>
0.0000

> <Gold.Chemscore.Hbonds>
donor molecule, donor type, donor heavy atom, donor atom, acceptor molecule, acceptor atom, score
      L1  H     8    29       P1  8028  0.23
      L1  H    14    33       P1  7948  0.25
      P1  H  7989  7998       L1    10  0.32
      P1  H 10752 10765       L1    15  0.25

> <Gold.PLP.Chemscore.Internal.Correction>
0.0262

> <Gold.Rescore>
     Score         DG    S(hbond)    S(metal)    S(lipo)     H(rot)  DE(clash)    DE(int)     intcor
     13.32     -15.53       1.78        0.00      83.24       2.20       0.06       2.15       ----

> <Gold.Chemscore.Fitness>
13.3205

> <Gold.Chemscore.DG>
-15.5251

> <Gold.Chemscore.ZeroCoef>
-5.4800

> <Gold.Chemscore.Hbond>
1.7770

> <Gold.Chemscore.Metal>
0.0000

> <Gold.Chemscore.Lipo>
83.2435

> <Gold.Chemscore.Internal_Hbond>
0.0000

> <Gold.Chemscore.DEClash>
0.0551

> <Gold.Chemscore.DEInternal>
2.1495

> <Gold.Chemscore.Rot>
2.1991

> <Gold.Chemscore.Internal.Correction>
   9.000000E+99

> <Gold.Chemscore.Hbonds>
donor molecule, donor type, donor heavy atom, donor atom, acceptor molecule, acceptor atom, score
      L1  H     8    29       P1  8028  0.22
      P1  H 10752 10765       L1    15  0.01

> <Gold.Chemscore.Hbond.Weighted>
-5.9353

> <Gold.Chemscore.Metal.Weighted>
-0.0000

> <Gold.Chemscore.Lipo.Weighted>
-9.7395

> <Gold.Chemscore.Internal_Hbond.Weighted>
0.0000

> <Gold.Chemscore.DEClash.Weighted>
0.0551

> <Gold.Chemscore.DEInternal.Weighted>
2.1495

> <Gold.Chemscore.Rot.Weighted>
5.6297

> <Gold.Chemscore.Internal.Correction.Weighted>
   9.000000E+99

> <Gold.Protein.RotatedTorsions>
[ 6907 6896 6895 6894 ] final  -75.03 input  -60.11 | X-H torsion
[ 7974 7965 7964 7962 ] final  160.20 input  175.53 | X-H torsion
[ 8008 7997 7996 7995 ] final  175.32 input   59.86 | X-H torsion
[ 10167 10162 10161 10158 ] final  115.96 input  -65.29 | X-H torsion
[ 10718 10713 10712 10709 ] final  138.96 input   66.30 | X-H torsion
[ 10763 10752 10751 10750 ] final -136.25 input  -60.55 | X-H torsion
[ 11005 11000 10999 10996 ] final   82.32 input  -57.11 | X-H torsion

> <Gold.Protein.ActiveResidues>
 VAL166  LYS551  ARG553  GLY616  TRP617  ASP618  TYR619  PRO620  LYS621  CYS622 
 ASP623  PHE694  ASN695  SER759  ASP760  ASP761  ALA762  ILE779  LEU786  VAL792 
 PHE793  MET794  SER795  GLU796  ALA797  LYS798  CYS799  TRP800  GLU811  SER814 

> <Gold.Protein.RotatedAtoms>
  150.7072  134.4781  159.5457 H   0  0  0  0  0  0  0  0  0  0  0  0  # atno 6907 bound_to 6896
  152.2424  134.8212  160.0467 H   0  0  0  0  0  0  0  0  0  0  0  0  # atno 6908 bound_to 6896
  151.8989  133.3498  159.3861 H   0  0  0  0  0  0  0  0  0  0  0  0  # atno 6909 bound_to 6896
  144.7749  139.7724  143.6282 H   0  0  0  0  0  0  0  0  0  0  0  0  # atno 7974 bound_to 7965
  156.0882  140.1412  156.9626 H   0  0  0  0  0  0  0  0  0  0  0  0  # atno 8008 bound_to 7997
  154.4626  140.0938  156.6981 H   0  0  0  0  0  0  0  0  0  0  0  0  # atno 8009 bound_to 7997
  155.4963  140.3449  155.4365 H   0  0  0  0  0  0  0  0  0  0  0  0  # atno 8010 bound_to 7997
  139.6280  144.7111  151.2491 H   0  0  0  0  0  0  0  0  0  0  0  0  # atno 10167 bound_to 10162
  157.4197  131.1037  151.0367 H   0  0  0  0  0  0  0  0  0  0  0  0  # atno 10718 bound_to 10713
  154.8687  135.3678  154.5030 H   0  0  0  0  0  0  0  0  0  0  0  0  # atno 10763 bound_to 10752
  153.5669  135.7021  153.5527 H   0  0  0  0  0  0  0  0  0  0  0  0  # atno 10764 bound_to 10752
  153.3577  135.4055  155.1658 H   0  0  0  0  0  0  0  0  0  0  0  0  # atno 10765 bound_to 10752
  139.9068  134.8062  156.2158 H   0  0  0  0  0  0  0  0  0  0  0  0  # atno 11005 bound_to 11000
  146.1922  139.5168  142.9798 LP  0  0  0  0  0  0  0  0  0  0  0  0  # atno 17320 bound_to 7965
  145.6215  141.0321  143.1912 LP  0  0  0  0  0  0  0  0  0  0  0  0  # atno 17321 bound_to 7965
  140.7422  143.6531  150.8230 LP  0  0  0  0  0  0  0  0  0  0  0  0  # atno 17342 bound_to 10162
  140.0152  143.5600  152.2823 LP  0  0  0  0  0  0  0  0  0  0  0  0  # atno 17343 bound_to 10162
  157.1302  130.6099  149.5527 LP  0  0  0  0  0  0  0  0  0  0  0  0  # atno 17370 bound_to 10713
  155.9876  130.4916  150.7134 LP  0  0  0  0  0  0  0  0  0  0  0  0  # atno 17371 bound_to 10713
  141.0436  133.6925  156.1643 LP  0  0  0  0  0  0  0  0  0  0  0  0  # atno 17394 bound_to 11000
  140.6917  134.4658  157.5588 LP  0  0  0  0  0  0  0  0  0  0  0  0  # atno 17395 bound_to 11000

$$$$
