AV-unprocessed.smi:2367|AV-procd|sdf|9424|dock7
  -GOLD-   2272013 63D 1   1.00000     0.00000
 Structure written by MMmdl.
 34 35  0  0  0  0  0  0  0  0  1 V2000
  146.3387  139.5637  156.0694 C   0  0  0  0  0  0  0  0  0  0  0  0
  146.1152  139.1816  154.7183 O   0  0  0  0  0  0  0  0  0  0  0  0
  146.8809  139.8790  153.7353 C   0  0  0  0  0  0  0  0  0  0  0  0
  146.5590  139.3994  152.3121 C   0  0  0  0  0  0  0  0  0  0  0  0
  146.8229  137.9707  152.1713 N   0  0  0  0  0  0  0  0  0  0  0  0
  145.8931  137.0063  152.1344 C   0  0  0  0  0  0  0  0  0  0  0  0
  144.6839  137.2133  152.2388 O   0  0  0  0  0  0  0  0  0  0  0  0
  146.4487  135.7983  151.9448 N   0  0  0  0  0  0  0  0  0  0  0  0
  145.7644  134.5611  151.8330 C   0  0  0  0  0  0  0  0  0  0  0  0
  144.4054  134.5775  151.4569 C   0  0  0  0  0  0  0  0  0  0  0  0
  143.7254  133.3501  151.3265 C   0  0  0  0  0  0  0  0  0  0  0  0
  144.3125  132.1512  151.5276 N   0  0  0  0  0  0  0  0  0  0  0  0
  145.6208  132.1380  151.8618 C   0  0  0  0  0  0  0  0  0  0  0  0
  146.3942  133.3061  152.0180 C   0  0  0  0  0  0  0  0  0  0  0  0
  147.7136  133.2065  152.3096 F   0  0  0  0  0  0  0  0  0  0  0  0
  146.7679  141.3877  154.0267 C   0  0  0  0  0  0  0  0  0  0  0  0
  148.2822  141.4987  153.8400 C   0  0  0  0  0  0  0  0  0  0  0  0
  148.3585  140.0048  154.1591 C   0  0  0  0  0  0  0  0  0  0  0  0
  145.6290  139.0408  156.7100 H   0  0  0  0  0  0  0  0  0  0  0  0
  146.1936  140.6333  156.2214 H   0  0  0  0  0  0  0  0  0  0  0  0
  147.3388  139.2951  156.4077 H   0  0  0  0  0  0  0  0  0  0  0  0
  145.5024  139.5561  152.0936 H   0  0  0  0  0  0  0  0  0  0  0  0
  147.0948  139.9898  151.5682 H   0  0  0  0  0  0  0  0  0  0  0  0
  147.7899  137.7002  152.0683 H   0  0  0  0  0  0  0  0  0  0  0  0
  147.4374  135.7791  151.7432 H   0  0  0  0  0  0  0  0  0  0  0  0
  143.8876  135.5096  151.2829 H   0  0  0  0  0  0  0  0  0  0  0  0
  142.6812  133.3313  151.0510 H   0  0  0  0  0  0  0  0  0  0  0  0
  146.0695  131.1649  151.9964 H   0  0  0  0  0  0  0  0  0  0  0  0
  146.1830  141.9559  153.3029 H   0  0  0  0  0  0  0  0  0  0  0  0
  146.4570  141.6069  155.0499 H   0  0  0  0  0  0  0  0  0  0  0  0
  148.5682  141.7294  152.8127 H   0  0  0  0  0  0  0  0  0  0  0  0
  148.7858  142.1463  154.5581 H   0  0  0  0  0  0  0  0  0  0  0  0
  148.5227  139.8173  155.2217 H   0  0  0  0  0  0  0  0  0  0  0  0
  149.0613  139.4455  153.5407 H   0  0  0  0  0  0  0  0  0  0  0  0
  1  2  1  0  0  0  0
  1 19  1  0  0  0  0
  1 20  1  0  0  0  0
  1 21  1  0  0  0  0
  2  3  1  0  0  0  0
  3 18  1  0  0  0  0
  3  4  1  0  0  0  0
  3 16  1  0  0  0  0
  4  5  1  0  0  0  0
  4 22  1  0  0  0  0
  4 23  1  0  0  0  0
  5  6  1  0  0  0  0
  5 24  1  0  0  0  0
  6  7  2  0  0  0  0
  6  8  1  0  0  0  0
  8  9  1  0  0  0  0
  8 25  1  0  0  0  0
  9 14  1  0  0  0  0
  9 10  2  0  0  0  0
 10 11  1  0  0  0  0
 10 26  1  0  0  0  0
 11 12  2  0  0  0  0
 11 27  1  0  0  0  0
 12 13  1  0  0  0  0
 13 14  2  0  0  0  0
 13 28  1  0  0  0  0
 14 15  1  0  0  0  0
 16 17  1  0  0  0  0
 16 29  1  0  0  0  0
 16 30  1  0  0  0  0
 17 18  1  0  0  0  0
 17 31  1  0  0  0  0
 17 32  1  0  0  0  0
 18 33  1  0  0  0  0
 18 34  1  0  0  0  0
M  END
> <s_m_source_file>
AV-unprocessed.smi

> <i_m_source_file_index>
2367

> <i_lp_mmshare_version>
43012

> <i_f3d_flags>
0

> <s_epik_input>
W0NIMl0xW0NIMl1bQ0gyXUMxKE9bQ0gzXSlbQ0gyXVtOSF1DKD1PKVtOSF1jMltjSF1bY0hdbltjSF1jMkY=

> <s_epik_cmdline>
J2VwaWtfcHl0aG9uJywgJy1waCcsICc3LjAnLCAnLXRuJywgJzgnLCAnLW1hJywgJzIwMCcsICctbWV0YWxfYmluZGluZycsICctaW1hZScsICc8aW5maWxlLm1hZT4nLCAnLW9tYWUnLCAnPG91dGZpbGUubWFlPic=

> <r_epik_Ionization_Penalty>
0.00342397

> <r_epik_Ionization_Penalty_Charging>
0

> <r_epik_Ionization_Penalty_Neutral>
0.00342397

> <r_epik_State_Penalty>
0.00239946

> <r_epik_Charging_Adjusted_Penalty>
0.00239946

> <i_epik_Tot_Q>
0

> <i_epik_Tot_abs_Q>
0

> <r_epik_Metal_State_Penalty>
-0

> <b_epik_Metal_Only>
0

> <s_lp_Force_Field>
OPLS_2005

> <r_lp_Energy>
23.3759

> <b_lp_Chiralities_Consistent>
1

> <s_lp_Variant>
AV-unprocessed.smi:2367-1

> <Gold.Version>
5.8.1

> <Gold.Id.Protein>
6NUR|6NUR_protein|mol2

> <Gold.PLP.Fitness>
36.2876

> <Gold.PLP.PLP>
-27.7830

> <Gold.PLP.part.hbond>
-1.9598

> <Gold.PLP.part.metal>
0.0000

> <Gold.PLP.part.buried>
-2.4855

> <Gold.PLP.part.nonpolar>
-25.1712

> <Gold.PLP.part.repulsive>
1.8142

> <Gold.PLP.ligand.clash>
0.0000

> <Gold.PLP.ligand.torsion>
0.3293

> <Gold.PLP.Chemscore.Hbond>
1.9120

> <Gold.PLP.Chemscore.CHOScore>
1.0000

> <Gold.PLP.Chemscore.Metal>
0.0000

> <Gold.Chemscore.Hbonds>
donor molecule, donor type, donor heavy atom, donor atom, acceptor molecule, acceptor atom, score
      L1  H     5    24       P1  7948  0.90
      L1  H     8    25       P1  7948  1.00
      L1  C    11    27       P1 10186  1.00

> <Gold.PLP.Chemscore.Internal.Correction>
0.4274

> <Gold.Rescore>
     Score         DG    S(hbond)    S(metal)    S(lipo)     H(rot)  DE(clash)    DE(int)     intcor
     13.37     -15.19       1.94        0.00      60.58       1.51       0.03       1.79       ----

> <Gold.Chemscore.Fitness>
13.3670

> <Gold.Chemscore.DG>
-15.1852

> <Gold.Chemscore.ZeroCoef>
-5.4800

> <Gold.Chemscore.Hbond>
1.9382

> <Gold.Chemscore.Metal>
0.0000

> <Gold.Chemscore.Lipo>
60.5800

> <Gold.Chemscore.Internal_Hbond>
0.0000

> <Gold.Chemscore.DEClash>
0.0281

> <Gold.Chemscore.DEInternal>
1.7900

> <Gold.Chemscore.Rot>
1.5064

> <Gold.Chemscore.Internal.Correction>
   9.000000E+99

> <Gold.Chemscore.Hbonds>
donor molecule, donor type, donor heavy atom, donor atom, acceptor molecule, acceptor atom, score
      L1  H     5    24       P1  7948  0.88
      L1  H     8    25       P1  7948  0.94

> <Gold.Chemscore.Hbond.Weighted>
-6.4737

> <Gold.Chemscore.Metal.Weighted>
-0.0000

> <Gold.Chemscore.Lipo.Weighted>
-7.0879

> <Gold.Chemscore.Internal_Hbond.Weighted>
0.0000

> <Gold.Chemscore.DEClash.Weighted>
0.0281

> <Gold.Chemscore.DEInternal.Weighted>
1.7900

> <Gold.Chemscore.Rot.Weighted>
3.8563

> <Gold.Chemscore.Internal.Correction.Weighted>
   9.000000E+99

> <Gold.Protein.RotatedTorsions>
[ 6907 6896 6895 6894 ] final -172.76 input  -60.11 | X-H torsion
[ 7974 7965 7964 7962 ] final  164.74 input  175.53 | X-H torsion
[ 8008 7997 7996 7995 ] final -149.75 input   59.86 | X-H torsion
[ 10167 10162 10161 10158 ] final  -69.97 input  -65.29 | X-H torsion
[ 10718 10713 10712 10709 ] final   23.00 input   66.30 | X-H torsion
[ 10763 10752 10751 10750 ] final -159.75 input  -60.55 | X-H torsion
[ 11005 11000 10999 10996 ] final   -5.40 input  -57.11 | X-H torsion

> <Gold.Protein.ActiveResidues>
 VAL166  LYS551  ARG553  GLY616  TRP617  ASP618  TYR619  PRO620  LYS621  CYS622 
 ASP623  PHE694  ASN695  SER759  ASP760  ASP761  ALA762  ILE779  LEU786  VAL792 
 PHE793  MET794  SER795  GLU796  ALA797  LYS798  CYS799  TRP800  GLU811  SER814 

> <Gold.Protein.RotatedAtoms>
  151.5451  133.3426  159.2942 H   0  0  0  0  0  0  0  0  0  0  0  0  # atno 6907 bound_to 6896
  150.8512  134.7840  159.7021 H   0  0  0  0  0  0  0  0  0  0  0  0  # atno 6908 bound_to 6896
  152.4557  134.5304  159.9861 H   0  0  0  0  0  0  0  0  0  0  0  0  # atno 6909 bound_to 6896
  144.7532  139.8370  143.6359 H   0  0  0  0  0  0  0  0  0  0  0  0  # atno 7974 bound_to 7965
  155.6126  140.0673  157.2701 H   0  0  0  0  0  0  0  0  0  0  0  0  # atno 8008 bound_to 7997
  154.4249  140.1798  156.1336 H   0  0  0  0  0  0  0  0  0  0  0  0  # atno 8009 bound_to 7997
  156.0073  140.3330  155.6908 H   0  0  0  0  0  0  0  0  0  0  0  0  # atno 8010 bound_to 7997
  140.5389  143.2316  151.7126 H   0  0  0  0  0  0  0  0  0  0  0  0  # atno 10167 bound_to 10162
  157.1601  130.6713  149.6041 H   0  0  0  0  0  0  0  0  0  0  0  0  # atno 10718 bound_to 10713
  154.7448  135.3077  154.8663 H   0  0  0  0  0  0  0  0  0  0  0  0  # atno 10763 bound_to 10752
  153.9467  135.6768  153.4748 H   0  0  0  0  0  0  0  0  0  0  0  0  # atno 10764 bound_to 10752
  153.1045  135.4896  154.8853 H   0  0  0  0  0  0  0  0  0  0  0  0  # atno 10765 bound_to 10752
  140.6907  133.9074  155.8616 H   0  0  0  0  0  0  0  0  0  0  0  0  # atno 11005 bound_to 11000
  146.1509  139.4592  143.0049 LP  0  0  0  0  0  0  0  0  0  0  0  0  # atno 17320 bound_to 7965
  145.6871  141.0175  143.1575 LP  0  0  0  0  0  0  0  0  0  0  0  0  # atno 17321 bound_to 7965
  139.4981  144.4000  152.0191 LP  0  0  0  0  0  0  0  0  0  0  0  0  # atno 17342 bound_to 10162
  140.3107  144.3541  150.6034 LP  0  0  0  0  0  0  0  0  0  0  0  0  # atno 17343 bound_to 10162
  155.9755  130.4714  150.6465 LP  0  0  0  0  0  0  0  0  0  0  0  0  # atno 17370 bound_to 10713
  157.4140  131.0827  151.1194 LP  0  0  0  0  0  0  0  0  0  0  0  0  # atno 17371 bound_to 10713
  141.0244  134.0844  157.4085 LP  0  0  0  0  0  0  0  0  0  0  0  0  # atno 17394 bound_to 11000
  139.8924  135.0124  156.6845 LP  0  0  0  0  0  0  0  0  0  0  0  0  # atno 17395 bound_to 11000

$$$$
