AV-unprocessed.smi:3053|AV-procd|sdf|11638|dock3
  -GOLD-   2272017 33D 1   1.00000     0.00000
 Structure written by MMmdl.
 31 32  0  0  0  0  0  0  0  0  1 V2000
  153.6567  141.7045  161.5306 C   0  0  0  0  0  0  0  0  0  0  0  0
  152.8236  142.7190  160.8254 C   0  0  0  0  0  0  0  0  0  0  0  0
  152.5209  142.6530  159.5265 N   0  0  0  0  0  0  0  0  0  0  0  0
  151.7184  143.7182  159.1064 C   0  0  0  0  0  0  0  0  0  0  0  0
  151.2457  143.7827  157.6832 C   0  0  0  0  0  0  0  0  0  0  0  0
  151.1465  142.4028  157.0034 C   0  0  0  0  0  0  0  0  0  0  0  0
  150.0730  142.3471  156.0133 N   0  0  0  0  0  0  0  0  0  0  0  0
  149.8905  141.3674  155.1139 C   0  0  0  0  0  0  0  0  0  0  0  0
  150.6471  140.4016  155.0012 O   0  0  0  0  0  0  0  0  0  0  0  0
  148.6658  141.5070  154.1996 C   0  0  1  0  0  0  0  0  0  0  0  0
  147.7308  140.2875  154.2454 C   0  0  0  0  0  0  0  0  0  0  0  0
  146.5093  140.8392  154.7989 N   0  0  0  0  0  0  0  0  0  0  0  0
  146.5754  142.1540  155.0176 C   0  0  0  0  0  0  0  0  0  0  0  0
  145.6726  142.8578  155.4625 O   0  0  0  0  0  0  0  0  0  0  0  0
  147.7946  142.5714  154.6686 N   0  0  0  0  0  0  0  0  0  0  0  0
  151.4316  144.6090  160.1109 C   0  0  0  0  0  0  0  0  0  0  0  0
  152.1385  144.1267  161.6277 S   0  0  0  0  0  0  0  0  0  0  0  0
  153.8063  140.8258  160.9021 H   0  0  0  0  0  0  0  0  0  0  0  0
  153.1645  141.3941  162.4523 H   0  0  0  0  0  0  0  0  0  0  0  0
  154.6297  142.1287  161.7780 H   0  0  0  0  0  0  0  0  0  0  0  0
  150.2713  144.2713  157.6407 H   0  0  0  0  0  0  0  0  0  0  0  0
  151.9158  144.4164  157.1014 H   0  0  0  0  0  0  0  0  0  0  0  0
  152.0839  142.1814  156.4930 H   0  0  0  0  0  0  0  0  0  0  0  0
  151.0197  141.6215  157.7545 H   0  0  0  0  0  0  0  0  0  0  0  0
  149.4052  143.1044  156.0266 H   0  0  0  0  0  0  0  0  0  0  0  0
  148.9719  141.7237  153.1749 H   0  0  0  0  0  0  0  0  0  0  0  0
  147.5432  139.8868  153.2487 H   0  0  0  0  0  0  0  0  0  0  0  0
  148.1001  139.4789  154.8782 H   0  0  0  0  0  0  0  0  0  0  0  0
  145.6919  140.2759  154.9838 H   0  0  0  0  0  0  0  0  0  0  0  0
  148.1061  143.5282  154.7511 H   0  0  0  0  0  0  0  0  0  0  0  0
  150.8345  145.5068  160.0539 H   0  0  0  0  0  0  0  0  0  0  0  0
  1  2  1  0  0  0  0
  1 18  1  0  0  0  0
  1 19  1  0  0  0  0
  1 20  1  0  0  0  0
  2 17  1  0  0  0  0
  2  3  2  0  0  0  0
  3  4  1  0  0  0  0
  4  5  1  0  0  0  0
  4 16  2  0  0  0  0
  5  6  1  0  0  0  0
  5 21  1  0  0  0  0
  5 22  1  0  0  0  0
  6  7  1  0  0  0  0
  6 23  1  0  0  0  0
  6 24  1  0  0  0  0
  7  8  1  0  0  0  0
  7 25  1  0  0  0  0
  8  9  2  0  0  0  0
  8 10  1  0  0  0  0
 10 15  1  0  0  0  0
 10 11  1  0  0  0  0
 10 26  1  0  0  0  0
 11 12  1  0  0  0  0
 11 27  1  0  0  0  0
 11 28  1  0  0  0  0
 12 13  1  0  0  0  0
 12 29  1  0  0  0  0
 13 14  2  0  0  0  0
 13 15  1  0  0  0  0
 15 30  1  0  0  0  0
 16 17  1  0  0  0  0
 16 31  1  0  0  0  0
M  END
> <s_m_source_file>
AV-unprocessed.smi

> <i_m_source_file_index>
3053

> <i_lp_mmshare_version>
43012

> <i_f3d_flags>
0

> <s_epik_input>
W0NIM11jMW5jKFtjSF1zMSlbQ0gyXVtDSDJdW05IXUMoPU8pW0NAQEhdMltDSDJdW05IXUMoPU8pW05IXTI=

> <s_epik_cmdline>
J2VwaWtfcHl0aG9uJywgJy1waCcsICc3LjAnLCAnLXRuJywgJzgnLCAnLW1hJywgJzIwMCcsICctbWV0YWxfYmluZGluZycsICctaW1hZScsICc8aW5maWxlLm1hZT4nLCAnLW9tYWUnLCAnPG91dGZpbGUubWFlPic=

> <r_epik_Ionization_Penalty>
0.00110852

> <r_epik_Ionization_Penalty_Charging>
0

> <r_epik_Ionization_Penalty_Neutral>
0.00110852

> <r_epik_State_Penalty>
0.000695988

> <r_epik_Charging_Adjusted_Penalty>
0.000695988

> <i_epik_Tot_Q>
0

> <i_epik_Tot_abs_Q>
0

> <r_epik_Metal_State_Penalty>
-0

> <b_epik_Metal_Only>
0

> <s_lp_Force_Field>
OPLS_2005

> <r_lp_Energy>
23.8459

> <b_lp_Chiralities_Consistent>
1

> <s_lp_Variant>
AV-unprocessed.smi:3053-2

> <Gold.Version>
5.8.1

> <Gold.Id.Protein>
6NUR|6NUR_protein|mol2

> <Gold.PLP.Fitness>
46.8327

> <Gold.PLP.PLP>
-39.2945

> <Gold.PLP.part.hbond>
-3.0000

> <Gold.PLP.part.metal>
0.0000

> <Gold.PLP.part.buried>
-4.7944

> <Gold.PLP.part.nonpolar>
-31.4573

> <Gold.PLP.part.repulsive>
0.5542

> <Gold.PLP.ligand.clash>
0.0000

> <Gold.PLP.ligand.torsion>
0.7586

> <Gold.PLP.Chemscore.Hbond>
3.0000

> <Gold.PLP.Chemscore.CHOScore>
0.0000

> <Gold.PLP.Chemscore.Metal>
0.0000

> <Gold.Chemscore.Hbonds>
donor molecule, donor type, donor heavy atom, donor atom, acceptor molecule, acceptor atom, score
      L1  H     7    25       P1  8028  1.00
      L1  H    15    30       P1  8028  1.00
      P1  H  7989  7998       L1     9  1.00

> <Gold.PLP.Chemscore.Internal.Correction>
0.0554

> <Gold.Rescore>
     Score         DG    S(hbond)    S(metal)    S(lipo)     H(rot)  DE(clash)    DE(int)     intcor
     17.46     -18.74       2.28        0.00      92.62       2.02       0.47       0.81       ----

> <Gold.Chemscore.Fitness>
17.4561

> <Gold.Chemscore.DG>
-18.7366

> <Gold.Chemscore.ZeroCoef>
-5.4800

> <Gold.Chemscore.Hbond>
2.2767

> <Gold.Chemscore.Metal>
0.0000

> <Gold.Chemscore.Lipo>
92.6196

> <Gold.Chemscore.Internal_Hbond>
0.0000

> <Gold.Chemscore.DEClash>
0.4729

> <Gold.Chemscore.DEInternal>
0.8076

> <Gold.Chemscore.Rot>
2.0250

> <Gold.Chemscore.Internal.Correction>
   9.000000E+99

> <Gold.Chemscore.Hbonds>
donor molecule, donor type, donor heavy atom, donor atom, acceptor molecule, acceptor atom, score
      L1  H     7    25       P1  8028  0.97
      L1  H    15    30       P1  8028  0.81
      P1  H  7989  7998       L1     9  0.29

> <Gold.Chemscore.Hbond.Weighted>
-7.6041

> <Gold.Chemscore.Metal.Weighted>
-0.0000

> <Gold.Chemscore.Lipo.Weighted>
-10.8365

> <Gold.Chemscore.Internal_Hbond.Weighted>
0.0000

> <Gold.Chemscore.DEClash.Weighted>
0.4729

> <Gold.Chemscore.DEInternal.Weighted>
0.8076

> <Gold.Chemscore.Rot.Weighted>
5.1840

> <Gold.Chemscore.Internal.Correction.Weighted>
   9.000000E+99

> <Gold.Protein.RotatedTorsions>
[ 6907 6896 6895 6894 ] final  -34.42 input  -60.11 | X-H torsion
[ 7974 7965 7964 7962 ] final  173.58 input  175.53 | X-H torsion
[ 8008 7997 7996 7995 ] final   29.71 input   59.86 | X-H torsion
[ 10167 10162 10161 10158 ] final   54.08 input  -65.29 | X-H torsion
[ 10718 10713 10712 10709 ] final  175.65 input   66.30 | X-H torsion
[ 10763 10752 10751 10750 ] final  -27.99 input  -60.55 | X-H torsion
[ 11005 11000 10999 10996 ] final   31.08 input  -57.11 | X-H torsion

> <Gold.Protein.ActiveResidues>
 VAL166  LYS551  ARG553  GLY616  TRP617  ASP618  TYR619  PRO620  LYS621  CYS622 
 ASP623  PHE694  ASN695  SER759  ASP760  ASP761  ALA762  ILE779  LEU786  VAL792 
 PHE793  MET794  SER795  GLU796  ALA797  LYS798  CYS799  TRP800  GLU811  SER814 

> <Gold.Protein.RotatedAtoms>
  151.0529  134.9685  159.8220 H   0  0  0  0  0  0  0  0  0  0  0  0  # atno 6907 bound_to 6896
  152.5383  134.2515  159.8910 H   0  0  0  0  0  0  0  0  0  0  0  0  # atno 6908 bound_to 6896
  151.2531  133.4297  159.2646 H   0  0  0  0  0  0  0  0  0  0  0  0  # atno 6909 bound_to 6896
  144.7240  139.9669  143.6436 H   0  0  0  0  0  0  0  0  0  0  0  0  # atno 7974 bound_to 7965
  155.0788  140.3208  155.4608 H   0  0  0  0  0  0  0  0  0  0  0  0  # atno 8008 bound_to 7997
  156.2772  140.2098  156.5861 H   0  0  0  0  0  0  0  0  0  0  0  0  # atno 8009 bound_to 7997
  154.6995  140.0508  157.0431 H   0  0  0  0  0  0  0  0  0  0  0  0  # atno 8010 bound_to 7997
  140.2340  144.3656  150.6404 H   0  0  0  0  0  0  0  0  0  0  0  0  # atno 10167 bound_to 10162
  156.9318  130.9973  151.2986 H   0  0  0  0  0  0  0  0  0  0  0  0  # atno 10718 bound_to 10713
  153.7411  135.6932  153.4967 H   0  0  0  0  0  0  0  0  0  0  0  0  # atno 10763 bound_to 10752
  153.2068  135.4417  155.0332 H   0  0  0  0  0  0  0  0  0  0  0  0  # atno 10764 bound_to 10752
  154.8220  135.3427  154.6936 H   0  0  0  0  0  0  0  0  0  0  0  0  # atno 10765 bound_to 10752
  140.2877  134.2900  155.7784 H   0  0  0  0  0  0  0  0  0  0  0  0  # atno 11005 bound_to 11000
  146.0593  139.3588  143.0591 LP  0  0  0  0  0  0  0  0  0  0  0  0  # atno 17320 bound_to 7965
  145.8113  140.9724  143.0947 LP  0  0  0  0  0  0  0  0  0  0  0  0  # atno 17321 bound_to 7965
  140.6164  143.2172  151.6783 LP  0  0  0  0  0  0  0  0  0  0  0  0  # atno 17342 bound_to 10162
  139.5100  144.3557  152.0610 LP  0  0  0  0  0  0  0  0  0  0  0  0  # atno 17343 bound_to 10162
  157.5842  130.8398  149.8566 LP  0  0  0  0  0  0  0  0  0  0  0  0  # atno 17370 bound_to 10713
  156.0444  130.3731  150.1355 LP  0  0  0  0  0  0  0  0  0  0  0  0  # atno 17371 bound_to 10713
  141.2152  133.7565  156.9576 LP  0  0  0  0  0  0  0  0  0  0  0  0  # atno 17394 bound_to 11000
  140.1225  134.9408  157.2223 LP  0  0  0  0  0  0  0  0  0  0  0  0  # atno 17395 bound_to 11000

$$$$
