AV-unprocessed.smi:3029|AV-procd|sdf|11525|dock6
  -GOLD-   2272016463D 1   1.00000     0.00000
 Structure written by MMmdl.
 42 43  0  0  0  0  0  0  0  0  4 V2000
  152.7371  139.6520  156.5384 O   0  0  0  0  0  0  0  0  0  0  0  0
  151.9251  138.9758  157.1693 C   0  0  0  0  0  0  0  0  0  0  0  0
  151.8155  137.5242  156.9930 C   0  0  0  0  0  0  0  0  0  0  0  0
  150.9087  136.7947  157.6724 C   0  0  0  0  0  0  0  0  0  0  0  0
  150.0043  137.4330  158.6087 C   0  0  0  0  0  0  0  0  0  0  0  0
  149.0081  136.6656  159.3225 N   0  3  0  0  0  0  0  0  0  0  0  0
  148.3213  137.2267  160.1711 O   0  0  0  0  0  0  0  0  0  0  0  0
  148.8775  135.4763  159.0531 O   0  5  0  0  0  0  0  0  0  0  0  0
  150.1151  138.7653  158.7778 C   0  0  0  0  0  0  0  0  0  0  0  0
  151.0626  139.5329  158.0723 N   0  0  0  0  0  0  0  0  0  0  0  0
  151.0734  140.9839  158.3205 C   0  0  0  0  0  0  0  0  0  0  0  0
  150.5937  141.7954  157.1009 C   0  0  0  0  0  0  0  0  0  0  0  0
  150.2448  143.1843  157.4711 N   0  3  0  0  0  0  0  0  0  0  0  0
  149.5796  143.3516  158.7826 C   0  0  2  0  0  0  0  0  0  0  0  0
  148.0463  143.3738  158.5927 C   0  0  0  0  0  0  0  0  0  0  0  0
  147.3040  143.6064  159.9141 C   0  0  0  0  0  0  0  0  0  0  0  0
  147.7775  144.9026  160.5788 C   0  0  0  0  0  0  0  0  0  0  0  0
  149.2949  144.8749  160.8032 C   0  0  0  0  0  0  0  0  0  0  0  0
  150.0820  144.6427  159.4918 C   0  0  1  0  0  0  0  0  0  0  0  0
  151.6058  144.6292  159.7796 C   0  0  0  0  0  0  0  0  0  0  0  0
  151.9919  145.7871  160.3157 F   0  0  0  0  0  0  0  0  0  0  0  0
  151.9343  143.6426  160.6135 F   0  0  0  0  0  0  0  0  0  0  0  0
  152.2817  144.4354  158.6474 F   0  0  0  0  0  0  0  0  0  0  0  0
  152.4798  137.0280  156.3007 H   0  0  0  0  0  0  0  0  0  0  0  0
  150.8664  135.7276  157.5101 H   0  0  0  0  0  0  0  0  0  0  0  0
  149.4839  139.3331  159.4460 H   0  0  0  0  0  0  0  0  0  0  0  0
  150.4475  141.2236  159.1815 H   0  0  0  0  0  0  0  0  0  0  0  0
  152.0754  141.3086  158.6067 H   0  0  0  0  0  0  0  0  0  0  0  0
  151.3705  141.8012  156.3365 H   0  0  0  0  0  0  0  0  0  0  0  0
  149.7214  141.3110  156.6605 H   0  0  0  0  0  0  0  0  0  0  0  0
  151.1116  143.7019  157.5116 H   0  0  0  0  0  0  0  0  0  0  0  0
  149.8419  142.5007  159.4133 H   0  0  0  0  0  0  0  0  0  0  0  0
  147.7742  144.1586  157.8852 H   0  0  0  0  0  0  0  0  0  0  0  0
  147.7007  142.4358  158.1578 H   0  0  0  0  0  0  0  0  0  0  0  0
  146.2293  143.6509  159.7346 H   0  0  0  0  0  0  0  0  0  0  0  0
  147.4725  142.7637  160.5860 H   0  0  0  0  0  0  0  0  0  0  0  0
  147.5122  145.7571  159.9546 H   0  0  0  0  0  0  0  0  0  0  0  0
  147.2631  145.0419  161.5300 H   0  0  0  0  0  0  0  0  0  0  0  0
  149.5990  145.8156  161.2628 H   0  0  0  0  0  0  0  0  0  0  0  0
  149.5372  144.0915  161.5226 H   0  0  0  0  0  0  0  0  0  0  0  0
  149.8774  145.4902  158.8352 H   0  0  0  0  0  0  0  0  0  0  0  0
  149.6661  143.5907  156.7498 H   0  0  0  0  0  0  0  0  0  0  0  0
  1  2  2  0  0  0  0
  2 10  1  0  0  0  0
  2  3  1  0  0  0  0
  3  4  2  0  0  0  0
  3 24  1  0  0  0  0
  4  5  1  0  0  0  0
  4 25  1  0  0  0  0
  5  6  1  0  0  0  0
  5  9  2  0  0  0  0
  6  7  2  0  0  0  0
  6  8  1  0  0  0  0
  9 10  1  0  0  0  0
  9 26  1  0  0  0  0
 10 11  1  0  0  0  0
 11 12  1  0  0  0  0
 11 27  1  0  0  0  0
 11 28  1  0  0  0  0
 12 13  1  0  0  0  0
 12 29  1  0  0  0  0
 12 30  1  0  0  0  0
 13 14  1  0  0  0  0
 13 31  1  0  0  0  0
 13 42  1  0  0  0  0
 14 19  1  0  0  0  0
 14 15  1  0  0  0  0
 14 32  1  0  0  0  0
 15 16  1  0  0  0  0
 15 33  1  0  0  0  0
 15 34  1  0  0  0  0
 16 17  1  0  0  0  0
 16 35  1  0  0  0  0
 16 36  1  0  0  0  0
 17 18  1  0  0  0  0
 17 37  1  0  0  0  0
 17 38  1  0  0  0  0
 18 19  1  0  0  0  0
 18 39  1  0  0  0  0
 18 40  1  0  0  0  0
 19 20  1  0  0  0  0
 19 41  1  0  0  0  0
 20 21  1  0  0  0  0
 20 22  1  0  0  0  0
 20 23  1  0  0  0  0
M  CHG  1   6   1
M  CHG  1   8  -1
M  CHG  1  13   1
M  END
> <s_m_source_file>
AV-unprocessed.smi

> <i_m_source_file_index>
3029

> <i_lp_mmshare_version>
43012

> <i_f3d_flags>
0

> <s_epik_input>
Tz1jMVtjSF1bY0hdYyhbTitdKD1PKVtPLV0pW2NIXW4xW0NIMl1bQ0gyXVtOSF1bQ0BASF0yW0NIMl1bQ0gyXVtDSDJdW0NIMl1bQ0BIXTJDKEYpKEYpRg==

> <s_epik_cmdline>
J2VwaWtfcHl0aG9uJywgJy1waCcsICc3LjAnLCAnLXRuJywgJzgnLCAnLW1hJywgJzIwMCcsICctbWV0YWxfYmluZGluZycsICctaW1hZScsICc8aW5maWxlLm1hZT4nLCAnLW9tYWUnLCAnPG91dGZpbGUubWFlPic=

> <r_lp_tautomer_probability>
1

> <r_epik_Ionization_Penalty>
0.037386

> <r_epik_Ionization_Penalty_Charging>
0.037386

> <r_epik_Ionization_Penalty_Neutral>
0

> <r_epik_State_Penalty>
0.0312892

> <r_epik_Charging_Adjusted_Penalty>
0.0686752

> <i_epik_Tot_Q>
1

> <i_epik_Tot_abs_Q>
3

> <r_epik_Metal_State_Penalty>
0.0312892

> <b_epik_Metal_Only>
0

> <s_lp_Force_Field>
OPLS_2005

> <r_lp_Energy>
38.6527

> <b_lp_Chiralities_Consistent>
1

> <s_lp_Variant>
AV-unprocessed.smi:3029-1

> <Gold.Version>
5.8.1

> <Gold.Id.Protein>
6NUR|6NUR_protein|mol2

> <Gold.PLP.Fitness>
54.6116

> <Gold.PLP.PLP>
-41.4855

> <Gold.PLP.part.hbond>
-5.0000

> <Gold.PLP.part.metal>
0.0000

> <Gold.PLP.part.buried>
-4.7886

> <Gold.PLP.part.nonpolar>
-33.3009

> <Gold.PLP.part.repulsive>
0.0113

> <Gold.PLP.ligand.clash>
0.0000

> <Gold.PLP.ligand.torsion>
0.7613

> <Gold.PLP.Chemscore.Hbond>
4.8653

> <Gold.PLP.Chemscore.CHOScore>
0.0000

> <Gold.PLP.Chemscore.Metal>
0.0000

> <Gold.Chemscore.Hbonds>
donor molecule, donor type, donor heavy atom, donor atom, acceptor molecule, acceptor atom, score
      L1  H    13    42       P1  8028  2.00
      P1  H  6896  6907       L1     8  0.89
      P1  H  6931  6943       L1     7  0.48
      P1  H  6934  6947       L1     7  0.28
      P1  H  7997  8008       L1     1  1.00

> <Gold.PLP.Chemscore.Internal.Correction>
0.0528

> <Gold.Rescore>
     Score         DG    S(hbond)    S(metal)    S(lipo)     H(rot)  DE(clash)    DE(int)     intcor
     18.31     -21.80       3.95        0.00      68.25       1.90       1.12       2.37       ----

> <Gold.Chemscore.Fitness>
18.3069

> <Gold.Chemscore.DG>
-21.7960

> <Gold.Chemscore.ZeroCoef>
-5.4800

> <Gold.Chemscore.Hbond>
3.9535

> <Gold.Chemscore.Metal>
0.0000

> <Gold.Chemscore.Lipo>
68.2476

> <Gold.Chemscore.Internal_Hbond>
0.0000

> <Gold.Chemscore.DEClash>
1.1154

> <Gold.Chemscore.DEInternal>
2.3737

> <Gold.Chemscore.Rot>
1.9037

> <Gold.Chemscore.Internal.Correction>
   9.000000E+99

> <Gold.Chemscore.Hbonds>
donor molecule, donor type, donor heavy atom, donor atom, acceptor molecule, acceptor atom, score
      L1  H    13    42       P1  8028  0.99
      P1  H  6896  6907       L1     8  0.30
      P1  H  6931  6943       L1     7  0.47
      P1  H  6934  6947       L1     7  0.27
      P1  H  7997  8008       L1     1  1.00

> <Gold.Chemscore.Hbond.Weighted>
-13.2046

> <Gold.Chemscore.Metal.Weighted>
-0.0000

> <Gold.Chemscore.Lipo.Weighted>
-7.9850

> <Gold.Chemscore.Internal_Hbond.Weighted>
0.0000

> <Gold.Chemscore.DEClash.Weighted>
1.1154

> <Gold.Chemscore.DEInternal.Weighted>
2.3737

> <Gold.Chemscore.Rot.Weighted>
4.8736

> <Gold.Chemscore.Internal.Correction.Weighted>
   9.000000E+99

> <Gold.Protein.RotatedTorsions>
[ 6907 6896 6895 6894 ] final  -62.22 input  -60.11 | X-H torsion
[ 7974 7965 7964 7962 ] final   39.66 input  175.53 | X-H torsion
[ 8008 7997 7996 7995 ] final  -42.19 input   59.86 | X-H torsion
[ 10167 10162 10161 10158 ] final -165.28 input  -65.29 | X-H torsion
[ 10718 10713 10712 10709 ] final   64.99 input   66.30 | X-H torsion
[ 10763 10752 10751 10750 ] final -117.42 input  -60.55 | X-H torsion
[ 11005 11000 10999 10996 ] final  -16.08 input  -57.11 | X-H torsion

> <Gold.Protein.ActiveResidues>
 VAL166  LYS551  ARG553  GLY616  TRP617  ASP618  TYR619  PRO620  LYS621  CYS622 
 ASP623  PHE694  ASN695  SER759  ASP760  ASP761  ALA762  ILE779  LEU786  VAL792 
 PHE793  MET794  SER795  GLU796  ALA797  LYS798  CYS799  TRP800  GLU811  SER814 

> <Gold.Protein.RotatedAtoms>
  150.7731  134.6600  159.6334 H   0  0  0  0  0  0  0  0  0  0  0  0  # atno 6907 bound_to 6896
  152.3790  134.6615  160.0158 H   0  0  0  0  0  0  0  0  0  0  0  0  # atno 6908 bound_to 6896
  151.6951  133.3274  159.3289 H   0  0  0  0  0  0  0  0  0  0  0  0  # atno 6909 bound_to 6896
  146.0967  139.5626  142.9441 H   0  0  0  0  0  0  0  0  0  0  0  0  # atno 7974 bound_to 7965
  154.4000  140.1480  156.3314 H   0  0  0  0  0  0  0  0  0  0  0  0  # atno 8008 bound_to 7997
  155.8440  140.3461  155.5629 H   0  0  0  0  0  0  0  0  0  0  0  0  # atno 8009 bound_to 7997
  155.8056  140.0876  157.1923 H   0  0  0  0  0  0  0  0  0  0  0  0  # atno 8010 bound_to 7997
  139.6192  144.0658  152.1917 H   0  0  0  0  0  0  0  0  0  0  0  0  # atno 10167 bound_to 10162
  157.6076  130.9190  149.9918 H   0  0  0  0  0  0  0  0  0  0  0  0  # atno 10718 bound_to 10713
  154.8554  135.4310  154.1977 H   0  0  0  0  0  0  0  0  0  0  0  0  # atno 10763 bound_to 10752
  153.3031  135.6970  153.7190 H   0  0  0  0  0  0  0  0  0  0  0  0  # atno 10764 bound_to 10752
  153.6313  135.3484  155.3016 H   0  0  0  0  0  0  0  0  0  0  0  0  # atno 10765 bound_to 10752
  140.8032  133.8198  155.9490 H   0  0  0  0  0  0  0  0  0  0  0  0  # atno 11005 bound_to 11000
  145.5934  141.0366  143.2057 LP  0  0  0  0  0  0  0  0  0  0  0  0  # atno 17320 bound_to 7965
  144.7401  139.7474  143.7314 LP  0  0  0  0  0  0  0  0  0  0  0  0  # atno 17321 bound_to 7965
  140.0295  144.6091  150.7499 LP  0  0  0  0  0  0  0  0  0  0  0  0  # atno 17342 bound_to 10162
  140.7371  143.2761  151.3737 LP  0  0  0  0  0  0  0  0  0  0  0  0  # atno 17343 bound_to 10162
  156.1168  130.3647  149.9955 LP  0  0  0  0  0  0  0  0  0  0  0  0  # atno 17370 bound_to 10713
  156.8043  130.9301  151.3645 LP  0  0  0  0  0  0  0  0  0  0  0  0  # atno 17371 bound_to 10713
  140.9273  134.2066  157.4887 LP  0  0  0  0  0  0  0  0  0  0  0  0  # atno 17394 bound_to 11000
  139.8720  134.9818  156.5131 LP  0  0  0  0  0  0  0  0  0  0  0  0  # atno 17395 bound_to 11000

$$$$
