AV-unprocessed.smi:3122|AV-procd|sdf|11896|dock1
  -GOLD-   2272017283D 1   1.00000     0.00000
 Structure written by MMmdl.
 30 31  0  0  0  0  0  0  0  0  2 V2000
  153.1199  138.7416  154.7265 C   0  0  0  0  0  0  0  0  0  0  0  0
  151.8838  138.9200  155.6192 C   0  0  0  0  0  0  0  0  0  0  0  0
  150.6862  139.4934  154.8475 C   0  0  0  0  0  0  0  0  0  0  0  0
  152.1996  139.7261  156.8399 C   0  0  0  0  0  0  0  0  0  0  0  0
  153.0992  139.4483  157.7879 N   0  0  0  0  0  0  0  0  0  0  0  0
  152.9700  140.4404  158.7328 N   0  0  0  0  0  0  0  0  0  0  0  0
  151.9700  141.2181  158.3091 C   0  0  0  0  0  0  0  0  0  0  0  0
  151.4580  142.4725  158.9402 C   0  0  2  0  0  0  0  0  0  0  0  0
  150.2947  143.0949  158.1449 C   0  0  0  0  0  0  0  0  0  0  0  0
  149.8935  144.3766  158.7574 N   0  3  0  0  0  0  0  0  0  0  0  0
  151.0412  145.2965  158.8872 C   0  0  0  0  0  0  0  0  0  0  0  0
  152.1878  144.6094  159.6498 C   0  0  0  0  0  0  0  0  0  0  0  0
  152.5424  143.3965  158.9937 O   0  0  0  0  0  0  0  0  0  0  0  0
  151.4479  140.8233  157.1189 O   0  0  0  0  0  0  0  0  0  0  0  0
  153.9346  138.2666  155.2739 H   0  0  0  0  0  0  0  0  0  0  0  0
  153.4827  139.7011  154.3559 H   0  0  0  0  0  0  0  0  0  0  0  0
  152.8934  138.1157  153.8630 H   0  0  0  0  0  0  0  0  0  0  0  0
  151.5921  137.9265  155.9626 H   0  0  0  0  0  0  0  0  0  0  0  0
  149.8020  139.5511  155.4829 H   0  0  0  0  0  0  0  0  0  0  0  0
  150.4359  138.8675  153.9904 H   0  0  0  0  0  0  0  0  0  0  0  0
  150.8956  140.4970  154.4754 H   0  0  0  0  0  0  0  0  0  0  0  0
  151.1360  142.2346  159.9558 H   0  0  0  0  0  0  0  0  0  0  0  0
  150.5928  143.2725  157.1103 H   0  0  0  0  0  0  0  0  0  0  0  0
  149.4376  142.4213  158.1221 H   0  0  0  0  0  0  0  0  0  0  0  0
  149.1770  144.8101  158.1922 H   0  0  0  0  0  0  0  0  0  0  0  0
  151.3759  145.5951  157.8930 H   0  0  0  0  0  0  0  0  0  0  0  0
  150.7233  146.2014  159.4054 H   0  0  0  0  0  0  0  0  0  0  0  0
  153.0609  145.2614  159.6834 H   0  0  0  0  0  0  0  0  0  0  0  0
  151.9017  144.4063  160.6830 H   0  0  0  0  0  0  0  0  0  0  0  0
  149.5203  144.1937  159.6781 H   0  0  0  0  0  0  0  0  0  0  0  0
  1  2  1  0  0  0  0
  1 15  1  0  0  0  0
  1 16  1  0  0  0  0
  1 17  1  0  0  0  0
  2  3  1  0  0  0  0
  2  4  1  0  0  0  0
  2 18  1  0  0  0  0
  3 19  1  0  0  0  0
  3 20  1  0  0  0  0
  3 21  1  0  0  0  0
  4 14  1  0  0  0  0
  4  5  2  0  0  0  0
  5  6  1  0  0  0  0
  6  7  2  0  0  0  0
  7  8  1  0  0  0  0
  7 14  1  0  0  0  0
  8 13  1  0  0  0  0
  8  9  1  0  0  0  0
  8 22  1  0  0  0  0
  9 10  1  0  0  0  0
  9 23  1  0  0  0  0
  9 24  1  0  0  0  0
 10 11  1  0  0  0  0
 10 25  1  0  0  0  0
 10 30  1  0  0  0  0
 11 12  1  0  0  0  0
 11 26  1  0  0  0  0
 11 27  1  0  0  0  0
 12 13  1  0  0  0  0
 12 28  1  0  0  0  0
 12 29  1  0  0  0  0
M  CHG  1  10   1
M  END
> <s_m_source_file>
AV-unprocessed.smi

> <i_m_source_file_index>
3122

> <i_lp_mmshare_version>
43012

> <i_f3d_flags>
0

> <s_epik_input>
W0NIM11bQ0hdKFtDSDNdKWMxbm5jKG8xKVtDQEBIXTJbQ0gyXVtOSF1bQ0gyXVtDSDJdTzI=

> <s_epik_cmdline>
J2VwaWtfcHl0aG9uJywgJy1waCcsICc3LjAnLCAnLXRuJywgJzgnLCAnLW1hJywgJzIwMCcsICctbWV0YWxfYmluZGluZycsICctaW1hZScsICc8aW5maWxlLm1hZT4nLCAnLW9tYWUnLCAnPG91dGZpbGUubWFlPic=

> <r_lp_tautomer_probability>
1

> <r_epik_Ionization_Penalty>
0.0380945

> <r_epik_Ionization_Penalty_Charging>
0.0380945

> <r_epik_Ionization_Penalty_Neutral>
3.26791e-13

> <r_epik_State_Penalty>
0.0319257

> <r_epik_Charging_Adjusted_Penalty>
0.0700202

> <i_epik_Tot_Q>
1

> <i_epik_Tot_abs_Q>
1

> <r_epik_Metal_State_Penalty>
0.0319257

> <b_epik_Metal_Only>
0

> <s_lp_Force_Field>
OPLS_2005

> <r_lp_Energy>
10.6056

> <b_lp_Chiralities_Consistent>
1

> <s_lp_Variant>
AV-unprocessed.smi:3122-1

> <Gold.Version>
5.8.1

> <Gold.Id.Protein>
6NUR|6NUR_protein|mol2

> <Gold.PLP.Fitness>
36.6084

> <Gold.PLP.PLP>
-27.9182

> <Gold.PLP.part.hbond>
-2.6702

> <Gold.PLP.part.metal>
0.0000

> <Gold.PLP.part.buried>
-2.1273

> <Gold.PLP.part.nonpolar>
-22.1372

> <Gold.PLP.part.repulsive>
0.1411

> <Gold.PLP.ligand.clash>
0.0000

> <Gold.PLP.ligand.torsion>
0.0532

> <Gold.PLP.Chemscore.Hbond>
2.9000

> <Gold.PLP.Chemscore.CHOScore>
0.0000

> <Gold.PLP.Chemscore.Metal>
0.0000

> <Gold.Chemscore.Hbonds>
donor molecule, donor type, donor heavy atom, donor atom, acceptor molecule, acceptor atom, score
      L1  H    10    25       P1  8029  2.00
      P1  H  7997  8009       L1     5  0.90

> <Gold.PLP.Chemscore.Internal.Correction>
0.0966

> <Gold.Rescore>
     Score         DG    S(hbond)    S(metal)    S(lipo)     H(rot)  DE(clash)    DE(int)     intcor
     12.63     -12.88       0.89        0.00      65.42       1.26       0.11       0.13       ----

> <Gold.Chemscore.Fitness>
12.6348

> <Gold.Chemscore.DG>
-12.8750

> <Gold.Chemscore.ZeroCoef>
-5.4800

> <Gold.Chemscore.Hbond>
0.8901

> <Gold.Chemscore.Metal>
0.0000

> <Gold.Chemscore.Lipo>
65.4193

> <Gold.Chemscore.Internal_Hbond>
0.0000

> <Gold.Chemscore.DEClash>
0.1149

> <Gold.Chemscore.DEInternal>
0.1254

> <Gold.Chemscore.Rot>
1.2625

> <Gold.Chemscore.Internal.Correction>
   9.000000E+99

> <Gold.Chemscore.Hbonds>
donor molecule, donor type, donor heavy atom, donor atom, acceptor molecule, acceptor atom, score
      L1  H    10    25       P1  8029  0.34
      P1  H  7997  8009       L1     5  0.05

> <Gold.Chemscore.Hbond.Weighted>
-2.9730

> <Gold.Chemscore.Metal.Weighted>
-0.0000

> <Gold.Chemscore.Lipo.Weighted>
-7.6541

> <Gold.Chemscore.Internal_Hbond.Weighted>
0.0000

> <Gold.Chemscore.DEClash.Weighted>
0.1149

> <Gold.Chemscore.DEInternal.Weighted>
0.1254

> <Gold.Chemscore.Rot.Weighted>
3.2320

> <Gold.Chemscore.Internal.Correction.Weighted>
   9.000000E+99

> <Gold.Protein.RotatedTorsions>
[ 6907 6896 6895 6894 ] final -107.11 input  -60.11 | X-H torsion
[ 7974 7965 7964 7962 ] final  -10.17 input  175.53 | X-H torsion
[ 8008 7997 7996 7995 ] final  156.09 input   59.86 | X-H torsion
[ 10167 10162 10161 10158 ] final   17.40 input  -65.29 | X-H torsion
[ 10718 10713 10712 10709 ] final  112.32 input   66.30 | X-H torsion
[ 10763 10752 10751 10750 ] final   44.03 input  -60.55 | X-H torsion
[ 11005 11000 10999 10996 ] final   97.59 input  -57.11 | X-H torsion

> <Gold.Protein.ActiveResidues>
 VAL166  LYS551  ARG553  GLY616  TRP617  ASP618  TYR619  PRO620  LYS621  CYS622 
 ASP623  PHE694  ASN695  SER759  ASP760  ASP761  ALA762  ILE779  LEU786  VAL792 
 PHE793  MET794  SER795  GLU796  ALA797  LYS798  CYS799  TRP800  GLU811  SER814 

> <Gold.Protein.RotatedAtoms>
  150.7426  133.9876  159.3596 H   0  0  0  0  0  0  0  0  0  0  0  0  # atno 6907 bound_to 6896
  151.7822  135.0756  160.0384 H   0  0  0  0  0  0  0  0  0  0  0  0  # atno 6908 bound_to 6896
  152.3266  133.5875  159.5817 H   0  0  0  0  0  0  0  0  0  0  0  0  # atno 6909 bound_to 6896
  146.2229  140.2725  142.8357 H   0  0  0  0  0  0  0  0  0  0  0  0  # atno 7974 bound_to 7965
  156.2442  140.1922  156.6902 H   0  0  0  0  0  0  0  0  0  0  0  0  # atno 8008 bound_to 7997
  154.6257  140.0602  156.9696 H   0  0  0  0  0  0  0  0  0  0  0  0  # atno 8009 bound_to 7997
  155.1791  140.3275  155.4381 H   0  0  0  0  0  0  0  0  0  0  0  0  # atno 8010 bound_to 7997
  140.5729  143.9128  150.6727 H   0  0  0  0  0  0  0  0  0  0  0  0  # atno 10167 bound_to 10162
  157.6399  131.0965  150.6877 H   0  0  0  0  0  0  0  0  0  0  0  0  # atno 10718 bound_to 10713
  152.9849  135.6083  154.3208 H   0  0  0  0  0  0  0  0  0  0  0  0  # atno 10763 bound_to 10752
  154.2918  135.2774  155.2653 H   0  0  0  0  0  0  0  0  0  0  0  0  # atno 10764 bound_to 10752
  154.4945  135.5883  153.6540 H   0  0  0  0  0  0  0  0  0  0  0  0  # atno 10765 bound_to 10752
  139.8775  134.9008  156.4330 H   0  0  0  0  0  0  0  0  0  0  0  0  # atno 11005 bound_to 11000
  144.9257  140.7919  143.5720 LP  0  0  0  0  0  0  0  0  0  0  0  0  # atno 17320 bound_to 7965
  145.2665  139.1971  143.4864 LP  0  0  0  0  0  0  0  0  0  0  0  0  # atno 17321 bound_to 7965
  140.2608  143.3525  152.1324 LP  0  0  0  0  0  0  0  0  0  0  0  0  # atno 17342 bound_to 10162
  139.5127  144.6920  151.5733 LP  0  0  0  0  0  0  0  0  0  0  0  0  # atno 17343 bound_to 10162
  156.7203  130.4678  149.5524 LP  0  0  0  0  0  0  0  0  0  0  0  0  # atno 17370 bound_to 10713
  156.1670  130.6412  151.0790 LP  0  0  0  0  0  0  0  0  0  0  0  0  # atno 17371 bound_to 10713
  140.9053  133.7750  155.9728 LP  0  0  0  0  0  0  0  0  0  0  0  0  # atno 17394 bound_to 11000
  140.8606  134.2845  157.5236 LP  0  0  0  0  0  0  0  0  0  0  0  0  # atno 17395 bound_to 11000

$$$$
