AV-unprocessed.smi:260|AV-procd|sdf|1981|dock5
  -GOLD-   2262021153D 1   1.00000     0.00000
 Structure written by MMmdl.
 53 56  0  0  0  0  0  0  0  0  1 V2000
  147.9673  135.3849  160.2394 C   0  0  0  0  0  0  0  0  0  0  0  0
  148.0214  135.0297  158.8303 N   0  0  0  0  0  0  0  0  0  0  0  0
  149.0576  135.2913  158.0170 C   0  0  0  0  0  0  0  0  0  0  0  0
  150.0648  135.8811  158.4109 O   0  0  0  0  0  0  0  0  0  0  0  0
  148.9722  134.8276  156.5384 C   0  0  1  0  0  0  0  0  0  0  0  0
  148.7985  133.2968  156.4984 C   0  0  0  0  0  0  0  0  0  0  0  0
  147.8186  135.5573  155.8281 C   0  0  0  0  0  0  0  0  0  0  0  0
  148.4274  136.9016  155.4140 C   0  0  0  0  0  0  0  0  0  0  0  0
  149.8540  136.6533  155.2457 N   0  0  0  0  0  0  0  0  0  0  0  0
  150.7455  137.6750  155.3653 C   0  0  0  0  0  0  0  0  0  0  0  0
  152.0650  137.4277  155.1485 N   0  0  0  0  0  0  0  0  0  0  0  0
  152.9719  138.4011  155.2664 C   0  0  0  0  0  0  0  0  0  0  0  0
  152.7826  139.6823  155.5819 N   0  0  0  0  0  0  0  0  0  0  0  0
  151.4614  139.9474  155.7866 C   0  0  0  0  0  0  0  0  0  0  0  0
  150.3863  139.0160  155.6988 C   0  0  0  0  0  0  0  0  0  0  0  0
  149.1862  139.6685  155.9653 N   0  0  0  0  0  0  0  0  0  0  0  0
  149.5319  140.9040  156.2023 C   0  0  0  0  0  0  0  0  0  0  0  0
  150.8805  141.1586  156.1155 N   0  0  0  0  0  0  0  0  0  0  0  0
  151.5431  142.4338  156.3232 C   0  0  0  0  0  0  0  0  0  0  0  0
  151.2339  143.0354  157.7077 C   0  0  1  0  0  0  0  0  0  0  0  0
  149.8755  143.4233  157.7911 O   0  0  0  0  0  0  0  0  0  0  0  0
  151.5970  142.0858  158.8665 C   0  0  1  0  0  0  0  0  0  0  0  0
  153.0385  141.5710  158.8993 C   0  0  0  0  0  0  0  0  0  0  0  0
  153.1913  141.2176  160.3618 C   0  0  0  0  0  0  0  0  0  0  0  0
  152.4117  142.3434  161.0369 C   0  0  0  0  0  0  0  0  0  0  0  0
  151.3574  142.6819  160.1396 O   0  0  0  0  0  0  0  0  0  0  0  0
  150.1636  135.2868  155.6688 C   0  0  0  0  0  0  0  0  0  0  0  0
  147.0287  135.0389  160.6723 H   0  0  0  0  0  0  0  0  0  0  0  0
  148.0260  136.4661  160.3699 H   0  0  0  0  0  0  0  0  0  0  0  0
  148.7878  134.9212  160.7884 H   0  0  0  0  0  0  0  0  0  0  0  0
  147.2262  134.5380  158.4481 H   0  0  0  0  0  0  0  0  0  0  0  0
  148.7297  132.9315  155.4733 H   0  0  0  0  0  0  0  0  0  0  0  0
  147.8912  132.9805  157.0147 H   0  0  0  0  0  0  0  0  0  0  0  0
  149.6427  132.7903  156.9679 H   0  0  0  0  0  0  0  0  0  0  0  0
  147.5208  135.0048  154.9356 H   0  0  0  0  0  0  0  0  0  0  0  0
  146.9248  135.6816  156.4412 H   0  0  0  0  0  0  0  0  0  0  0  0
  147.9765  137.2770  154.4951 H   0  0  0  0  0  0  0  0  0  0  0  0
  148.2705  137.6401  156.2016 H   0  0  0  0  0  0  0  0  0  0  0  0
  153.9958  138.1111  155.0818 H   0  0  0  0  0  0  0  0  0  0  0  0
  148.8078  141.6686  156.4433 H   0  0  0  0  0  0  0  0  0  0  0  0
  152.6172  142.2928  156.1952 H   0  0  0  0  0  0  0  0  0  0  0  0
  151.2217  143.1160  155.5356 H   0  0  0  0  0  0  0  0  0  0  0  0
  151.8235  143.9452  157.8275 H   0  0  0  0  0  0  0  0  0  0  0  0
  149.6469  143.8769  156.9943 H   0  0  0  0  0  0  0  0  0  0  0  0
  150.9372  141.2180  158.8165 H   0  0  0  0  0  0  0  0  0  0  0  0
  153.2017  140.7227  158.2341 H   0  0  0  0  0  0  0  0  0  0  0  0
  153.7526  142.3521  158.6368 H   0  0  0  0  0  0  0  0  0  0  0  0
  152.7186  140.2561  160.5671 H   0  0  0  0  0  0  0  0  0  0  0  0
  154.2312  141.1647  160.6853 H   0  0  0  0  0  0  0  0  0  0  0  0
  152.0271  142.0565  162.0159 H   0  0  0  0  0  0  0  0  0  0  0  0
  153.0485  143.2196  161.1663 H   0  0  0  0  0  0  0  0  0  0  0  0
  151.1149  135.1698  156.1871 H   0  0  0  0  0  0  0  0  0  0  0  0
  150.2325  134.6746  154.7690 H   0  0  0  0  0  0  0  0  0  0  0  0
  1  2  1  0  0  0  0
  1 28  1  0  0  0  0
  1 29  1  0  0  0  0
  1 30  1  0  0  0  0
  2  3  1  0  0  0  0
  2 31  1  0  0  0  0
  3  4  2  0  0  0  0
  3  5  1  0  0  0  0
  5 27  1  0  0  0  0
  5  6  1  0  0  0  0
  5  7  1  0  0  0  0
  6 32  1  0  0  0  0
  6 33  1  0  0  0  0
  6 34  1  0  0  0  0
  7  8  1  0  0  0  0
  7 35  1  0  0  0  0
  7 36  1  0  0  0  0
  8  9  1  0  0  0  0
  8 37  1  0  0  0  0
  8 38  1  0  0  0  0
  9 10  1  0  0  0  0
  9 27  1  0  0  0  0
 10 15  1  0  0  0  0
 10 11  2  0  0  0  0
 11 12  1  0  0  0  0
 12 13  2  0  0  0  0
 12 39  1  0  0  0  0
 13 14  1  0  0  0  0
 14 18  1  0  0  0  0
 14 15  2  0  0  0  0
 15 16  1  0  0  0  0
 16 17  2  0  0  0  0
 17 18  1  0  0  0  0
 17 40  1  0  0  0  0
 18 19  1  0  0  0  0
 19 20  1  0  0  0  0
 19 41  1  0  0  0  0
 19 42  1  0  0  0  0
 20 21  1  0  0  0  0
 20 22  1  0  0  0  0
 20 43  1  0  0  0  0
 21 44  1  0  0  0  0
 22 26  1  0  0  0  0
 22 23  1  0  0  0  0
 22 45  1  0  0  0  0
 23 24  1  0  0  0  0
 23 46  1  0  0  0  0
 23 47  1  0  0  0  0
 24 25  1  0  0  0  0
 24 48  1  0  0  0  0
 24 49  1  0  0  0  0
 25 26  1  0  0  0  0
 25 50  1  0  0  0  0
 25 51  1  0  0  0  0
 27 52  1  0  0  0  0
 27 53  1  0  0  0  0
M  END
> <s_m_source_file>
AV-unprocessed.smi

> <i_m_source_file_index>
260

> <i_lp_mmshare_version>
43012

> <i_f3d_flags>
0

> <s_epik_input>
W0NIM11bTkhdQyg9TylbQ0BAXTEoW0NIM10pW0NIMl1bQ0gyXU4oW0NIMl0xKWMobltjSF1uMiljKGMyMyluW2NIXW4zW0NIMl1bQ0BIXShbT0hdKVtDQEBIXTRbQ0gyXVtDSDJdW0NIMl1PNA==

> <s_epik_cmdline>
J2VwaWtfcHl0aG9uJywgJy1waCcsICc3LjAnLCAnLXRuJywgJzgnLCAnLW1hJywgJzIwMCcsICctbWV0YWxfYmluZGluZycsICctaW1hZScsICc8aW5maWxlLm1hZT4nLCAnLW9tYWUnLCAnPG91dGZpbGUubWFlPic=

> <r_lp_tautomer_probability>
1

> <r_epik_Ionization_Penalty>
0.00115068

> <r_epik_Ionization_Penalty_Charging>
0

> <r_epik_Ionization_Penalty_Neutral>
0.00115068

> <r_epik_State_Penalty>
0.000668876

> <r_epik_Charging_Adjusted_Penalty>
0.000668876

> <i_epik_Tot_Q>
0

> <i_epik_Tot_abs_Q>
0

> <r_epik_Metal_State_Penalty>
-0

> <b_epik_Metal_Only>
0

> <s_lp_Force_Field>
OPLS_2005

> <r_lp_Energy>
50.9621

> <b_lp_Chiralities_Consistent>
1

> <s_lp_Variant>
AV-unprocessed.smi:260-7

> <Gold.Version>
5.8.1

> <Gold.Id.Protein>
6NUR|6NUR_protein|mol2

> <Gold.PLP.Fitness>
46.5142

> <Gold.PLP.PLP>
-35.7355

> <Gold.PLP.part.hbond>
-5.1315

> <Gold.PLP.part.metal>
0.0000

> <Gold.PLP.part.buried>
-7.0887

> <Gold.PLP.part.nonpolar>
-24.2197

> <Gold.PLP.part.repulsive>
0.1732

> <Gold.PLP.ligand.clash>
0.0618

> <Gold.PLP.ligand.torsion>
0.3531

> <Gold.PLP.Chemscore.Hbond>
3.7036

> <Gold.PLP.Chemscore.CHOScore>
0.0000

> <Gold.PLP.Chemscore.Metal>
0.0000

> <Gold.Chemscore.Hbonds>
donor molecule, donor type, donor heavy atom, donor atom, acceptor molecule, acceptor atom, score
      L1  H    21    44       P1  8028  1.00
      P1  H  6896  6908       L1     4  0.99
      P1  H  7997  8009       L1    13  1.00
      P1  H 10752 10765       L1    11  0.70

> <Gold.PLP.Chemscore.Internal.Correction>
0.4359

> <Gold.Rescore>
     Score         DG    S(hbond)    S(metal)    S(lipo)     H(rot)  DE(clash)    DE(int)     intcor
     14.91     -19.56       3.24        0.00      83.13       2.53       1.79       2.87       ----

> <Gold.Chemscore.Fitness>
14.9088

> <Gold.Chemscore.DG>
-19.5615

> <Gold.Chemscore.ZeroCoef>
-5.4800

> <Gold.Chemscore.Hbond>
3.2401

> <Gold.Chemscore.Metal>
0.0000

> <Gold.Chemscore.Lipo>
83.1289

> <Gold.Chemscore.Internal_Hbond>
0.0000

> <Gold.Chemscore.DEClash>
1.7854

> <Gold.Chemscore.DEInternal>
2.8674

> <Gold.Chemscore.Rot>
2.5259

> <Gold.Chemscore.Internal.Correction>
   9.000000E+99

> <Gold.Chemscore.Hbonds>
donor molecule, donor type, donor heavy atom, donor atom, acceptor molecule, acceptor atom, score
      L1  H    21    44       P1  8028  0.88
      P1  H  6896  6908       L1     4  0.28
      P1  H  7997  8009       L1    13  0.35
      P1  H 10752 10765       L1    11  0.54

> <Gold.Chemscore.Hbond.Weighted>
-10.8218

> <Gold.Chemscore.Metal.Weighted>
-0.0000

> <Gold.Chemscore.Lipo.Weighted>
-9.7261

> <Gold.Chemscore.Internal_Hbond.Weighted>
0.0000

> <Gold.Chemscore.DEClash.Weighted>
1.7854

> <Gold.Chemscore.DEInternal.Weighted>
2.8674

> <Gold.Chemscore.Rot.Weighted>
6.4663

> <Gold.Chemscore.Internal.Correction.Weighted>
   9.000000E+99

> <Gold.Protein.RotatedTorsions>
[ 6907 6896 6895 6894 ] final  175.58 input  -60.11 | X-H torsion
[ 7974 7965 7964 7962 ] final  -66.32 input  175.53 | X-H torsion
[ 8008 7997 7996 7995 ] final -142.16 input   59.86 | X-H torsion
[ 10167 10162 10161 10158 ] final  -13.34 input  -65.29 | X-H torsion
[ 10718 10713 10712 10709 ] final   78.84 input   66.30 | X-H torsion
[ 10763 10752 10751 10750 ] final  177.10 input  -60.55 | X-H torsion
[ 11005 11000 10999 10996 ] final   48.05 input  -57.11 | X-H torsion

> <Gold.Protein.ActiveResidues>
 VAL166  LYS551  ARG553  GLY616  TRP617  ASP618  TYR619  PRO620  LYS621  CYS622 
 ASP623  PHE694  ASN695  SER759  ASP760  ASP761  ALA762  ILE779  LEU786  VAL792 
 PHE793  MET794  SER795  GLU796  ALA797  LYS798  CYS799  TRP800  GLU811  SER814 

> <Gold.Protein.RotatedAtoms>
  151.7340  133.3319  159.3347 H   0  0  0  0  0  0  0  0  0  0  0  0  # atno 6907 bound_to 6896
  150.7601  134.6338  159.6210 H   0  0  0  0  0  0  0  0  0  0  0  0  # atno 6908 bound_to 6896
  152.3573  134.6924  160.0269 H   0  0  0  0  0  0  0  0  0  0  0  0  # atno 6909 bound_to 6896
  145.7433  140.8943  143.0518 H   0  0  0  0  0  0  0  0  0  0  0  0  # atno 7974 bound_to 7965
  155.4896  140.0567  157.2955 H   0  0  0  0  0  0  0  0  0  0  0  0  # atno 8008 bound_to 7997
  154.4628  140.2004  156.0149 H   0  0  0  0  0  0  0  0  0  0  0  0  # atno 8009 bound_to 7997
  156.0921  140.3232  155.7834 H   0  0  0  0  0  0  0  0  0  0  0  0  # atno 8010 bound_to 7997
  140.7180  143.5436  150.9380 H   0  0  0  0  0  0  0  0  0  0  0  0  # atno 10167 bound_to 10162
  157.6758  130.9887  150.1845 H   0  0  0  0  0  0  0  0  0  0  0  0  # atno 10718 bound_to 10713
  154.4900  135.2778  155.1504 H   0  0  0  0  0  0  0  0  0  0  0  0  # atno 10763 bound_to 10752
  154.3179  135.6215  153.5498 H   0  0  0  0  0  0  0  0  0  0  0  0  # atno 10764 bound_to 10752
  152.9887  135.5735  154.5320 H   0  0  0  0  0  0  0  0  0  0  0  0  # atno 10765 bound_to 10752
  140.1225  134.4811  155.8586 H   0  0  0  0  0  0  0  0  0  0  0  0  # atno 11005 bound_to 11000
  144.6866  139.9490  143.7477 LP  0  0  0  0  0  0  0  0  0  0  0  0  # atno 17320 bound_to 7965
  146.0427  139.3437  143.0687 LP  0  0  0  0  0  0  0  0  0  0  0  0  # atno 17321 bound_to 7965
  139.9160  143.6663  152.3106 LP  0  0  0  0  0  0  0  0  0  0  0  0  # atno 17342 bound_to 10162
  139.7063  144.7627  151.1187 LP  0  0  0  0  0  0  0  0  0  0  0  0  # atno 17343 bound_to 10162
  156.2570  130.3706  149.8171 LP  0  0  0  0  0  0  0  0  0  0  0  0  # atno 17370 bound_to 10713
  156.5927  130.8513  151.3412 LP  0  0  0  0  0  0  0  0  0  0  0  0  # atno 17371 bound_to 10713
  141.2154  133.6766  156.6915 LP  0  0  0  0  0  0  0  0  0  0  0  0  # atno 17394 bound_to 11000
  140.2947  134.8212  157.4046 LP  0  0  0  0  0  0  0  0  0  0  0  0  # atno 17395 bound_to 11000

$$$$
