AV-unprocessed.smi:2640|AV-procd|sdf|10270|dock4
  -GOLD-   2272014283D 1   1.00000     0.00000
 Structure written by MMmdl.
 41 42  0  0  0  0  0  0  0  0  1 V2000
  151.7382  140.0209  154.7323 O   0  0  0  0  0  0  0  0  0  0  0  0
  151.7806  139.2598  155.6984 C   0  0  0  0  0  0  0  0  0  0  0  0
  151.6758  137.7511  155.4881 C   0  0  0  0  0  0  0  0  0  0  0  0
  151.0684  137.0904  156.6463 N   0  0  0  0  0  0  0  0  0  0  0  0
  150.8705  135.6721  156.3846 C   0  0  0  0  0  0  0  0  0  0  0  0
  149.9262  135.4742  155.1868 C   0  0  0  0  0  0  0  0  0  0  0  0
  149.8238  134.0811  154.7894 N   0  0  0  0  0  0  0  0  0  0  0  0
  149.0642  133.5340  153.7767 C   0  0  0  0  0  0  0  0  0  0  0  0
  149.2844  132.1865  153.7862 C   0  0  0  0  0  0  0  0  0  0  0  0
  150.2078  132.0025  154.8532 C   0  0  0  0  0  0  0  0  0  0  0  0
  150.5288  133.1382  155.4514 N   0  0  0  0  0  0  0  0  0  0  0  0
  151.9184  139.6785  156.9671 N   0  0  0  0  0  0  0  0  0  0  0  0
  152.0077  141.0758  157.3962 C   0  0  2  0  0  0  0  0  0  0  0  0
  152.1564  141.0827  158.9349 C   0  0  0  0  0  0  0  0  0  0  0  0
  152.7859  142.3718  159.4906 C   0  0  0  0  0  0  0  0  0  0  0  0
  151.9442  143.6416  159.2927 C   0  0  0  0  0  0  0  0  0  0  0  0
  151.7102  144.0051  157.8166 C   0  0  0  0  0  0  0  0  0  0  0  0
  150.6813  143.1754  157.2035 N   0  0  0  0  0  0  0  0  0  0  0  0
  150.7262  141.8491  157.0051 C   0  0  0  0  0  0  0  0  0  0  0  0
  149.7584  141.2609  156.5226 O   0  0  0  0  0  0  0  0  0  0  0  0
  151.0813  137.5522  154.5950 H   0  0  0  0  0  0  0  0  0  0  0  0
  152.6742  137.3484  155.3101 H   0  0  0  0  0  0  0  0  0  0  0  0
  150.1799  137.5093  156.8840 H   0  0  0  0  0  0  0  0  0  0  0  0
  151.8277  135.1857  156.1895 H   0  0  0  0  0  0  0  0  0  0  0  0
  150.4423  135.1994  157.2693 H   0  0  0  0  0  0  0  0  0  0  0  0
  148.9258  135.8219  155.4472 H   0  0  0  0  0  0  0  0  0  0  0  0
  150.2502  136.0734  154.3342 H   0  0  0  0  0  0  0  0  0  0  0  0
  148.4353  134.1425  153.1436 H   0  0  0  0  0  0  0  0  0  0  0  0
  148.8516  131.4449  153.1313 H   0  0  0  0  0  0  0  0  0  0  0  0
  150.6513  131.0841  155.2085 H   0  0  0  0  0  0  0  0  0  0  0  0
  151.9283  138.9784  157.6943 H   0  0  0  0  0  0  0  0  0  0  0  0
  152.8809  141.5382  156.9324 H   0  0  0  0  0  0  0  0  0  0  0  0
  151.1991  140.8888  159.4223 H   0  0  0  0  0  0  0  0  0  0  0  0
  152.8063  140.2579  159.2323 H   0  0  0  0  0  0  0  0  0  0  0  0
  152.9640  142.2387  160.5580 H   0  0  0  0  0  0  0  0  0  0  0  0
  153.7701  142.5158  159.0426 H   0  0  0  0  0  0  0  0  0  0  0  0
  150.9901  143.5461  159.8130 H   0  0  0  0  0  0  0  0  0  0  0  0
  152.4645  144.4702  159.7740 H   0  0  0  0  0  0  0  0  0  0  0  0
  151.3681  145.0382  157.7526 H   0  0  0  0  0  0  0  0  0  0  0  0
  152.6371  143.9533  157.2433 H   0  0  0  0  0  0  0  0  0  0  0  0
  149.8343  143.6502  156.9263 H   0  0  0  0  0  0  0  0  0  0  0  0
  1  2  2  0  0  0  0
  2  3  1  0  0  0  0
  2 12  1  0  0  0  0
  3  4  1  0  0  0  0
  3 21  1  0  0  0  0
  3 22  1  0  0  0  0
  4  5  1  0  0  0  0
  4 23  1  0  0  0  0
  5  6  1  0  0  0  0
  5 24  1  0  0  0  0
  5 25  1  0  0  0  0
  6  7  1  0  0  0  0
  6 26  1  0  0  0  0
  6 27  1  0  0  0  0
  7 11  1  0  0  0  0
  7  8  1  0  0  0  0
  8  9  2  0  0  0  0
  8 28  1  0  0  0  0
  9 10  1  0  0  0  0
  9 29  1  0  0  0  0
 10 11  2  0  0  0  0
 10 30  1  0  0  0  0
 12 13  1  0  0  0  0
 12 31  1  0  0  0  0
 13 19  1  0  0  0  0
 13 14  1  0  0  0  0
 13 32  1  0  0  0  0
 14 15  1  0  0  0  0
 14 33  1  0  0  0  0
 14 34  1  0  0  0  0
 15 16  1  0  0  0  0
 15 35  1  0  0  0  0
 15 36  1  0  0  0  0
 16 17  1  0  0  0  0
 16 37  1  0  0  0  0
 16 38  1  0  0  0  0
 17 18  1  0  0  0  0
 17 39  1  0  0  0  0
 17 40  1  0  0  0  0
 18 19  1  0  0  0  0
 18 41  1  0  0  0  0
 19 20  2  0  0  0  0
M  END
> <s_m_source_file>
AV-unprocessed.smi

> <i_m_source_file_index>
2640

> <i_lp_mmshare_version>
43012

> <i_f3d_flags>
0

> <s_epik_input>
Tz1DMVtOSF1bQ0gyXVtDSDJdW0NIMl1bQ0gyXVtDQEhdMVtOSF1DKD1PKVtDSDJdW05IXVtDSDJdW0NIMl1uMltjSF1bY0hdW2NIXW4y

> <s_epik_cmdline>
J2VwaWtfcHl0aG9uJywgJy1waCcsICc3LjAnLCAnLXRuJywgJzgnLCAnLW1hJywgJzIwMCcsICctbWV0YWxfYmluZGluZycsICctaW1hZScsICc8aW5maWxlLm1hZT4nLCAnLW9tYWUnLCAnPG91dGZpbGUubWFlPic=

> <r_lp_tautomer_probability>
1

> <r_epik_Ionization_Penalty>
0.641667

> <r_epik_Ionization_Penalty_Charging>
0

> <r_epik_Ionization_Penalty_Neutral>
0.641667

> <r_epik_State_Penalty>
0.657743

> <r_epik_Charging_Adjusted_Penalty>
0.657743

> <i_epik_Tot_Q>
0

> <i_epik_Tot_abs_Q>
0

> <r_epik_Metal_State_Penalty>
0.656014

> <b_epik_Metal_Only>
0

> <s_lp_Force_Field>
OPLS_2005

> <r_lp_Energy>
11.9791

> <b_lp_Chiralities_Consistent>
1

> <s_lp_Variant>
AV-unprocessed.smi:2640-3

> <Gold.Version>
5.8.1

> <Gold.Id.Protein>
6NUR|6NUR_protein|mol2

> <Gold.PLP.Fitness>
46.7695

> <Gold.PLP.PLP>
-38.5322

> <Gold.PLP.part.hbond>
-1.7657

> <Gold.PLP.part.metal>
0.0000

> <Gold.PLP.part.buried>
-6.0221

> <Gold.PLP.part.nonpolar>
-31.0234

> <Gold.PLP.part.repulsive>
0.2469

> <Gold.PLP.ligand.clash>
0.0000

> <Gold.PLP.ligand.torsion>
0.3942

> <Gold.PLP.Chemscore.Hbond>
2.0000

> <Gold.PLP.Chemscore.CHOScore>
0.9943

> <Gold.PLP.Chemscore.Metal>
0.0000

> <Gold.Chemscore.Hbonds>
donor molecule, donor type, donor heavy atom, donor atom, acceptor molecule, acceptor atom, score
      L1  H    18    41       P1  8028  0.99
      P1  H  7989  7998       L1     1  0.91
      L1  C     8    28       P1  7948  0.92

> <Gold.PLP.Chemscore.Internal.Correction>
0.0429

> <Gold.Rescore>
     Score         DG    S(hbond)    S(metal)    S(lipo)     H(rot)  DE(clash)    DE(int)     intcor
     15.01     -15.47       1.88        0.00      83.75       2.37       0.07       0.38       ----

> <Gold.Chemscore.Fitness>
15.0144

> <Gold.Chemscore.DG>
-15.4663

> <Gold.Chemscore.ZeroCoef>
-5.4800

> <Gold.Chemscore.Hbond>
1.8753

> <Gold.Chemscore.Metal>
0.0000

> <Gold.Chemscore.Lipo>
83.7456

> <Gold.Chemscore.Internal_Hbond>
0.0000

> <Gold.Chemscore.DEClash>
0.0749

> <Gold.Chemscore.DEInternal>
0.3771

> <Gold.Chemscore.Rot>
2.3732

> <Gold.Chemscore.Internal.Correction>
   9.000000E+99

> <Gold.Chemscore.Hbonds>
donor molecule, donor type, donor heavy atom, donor atom, acceptor molecule, acceptor atom, score
      L1  H    18    41       P1  8028  0.93
      P1  H  7989  7998       L1     1  0.83

> <Gold.Chemscore.Hbond.Weighted>
-6.2634

> <Gold.Chemscore.Metal.Weighted>
-0.0000

> <Gold.Chemscore.Lipo.Weighted>
-9.7982

> <Gold.Chemscore.Internal_Hbond.Weighted>
0.0000

> <Gold.Chemscore.DEClash.Weighted>
0.0749

> <Gold.Chemscore.DEInternal.Weighted>
0.3771

> <Gold.Chemscore.Rot.Weighted>
6.0753

> <Gold.Chemscore.Internal.Correction.Weighted>
   9.000000E+99

> <Gold.Protein.RotatedTorsions>
[ 6907 6896 6895 6894 ] final  173.86 input  -60.11 | X-H torsion
[ 7974 7965 7964 7962 ] final   49.63 input  175.53 | X-H torsion
[ 8008 7997 7996 7995 ] final   99.77 input   59.86 | X-H torsion
[ 10167 10162 10161 10158 ] final   69.60 input  -65.29 | X-H torsion
[ 10718 10713 10712 10709 ] final -138.59 input   66.30 | X-H torsion
[ 10763 10752 10751 10750 ] final  -98.59 input  -60.55 | X-H torsion
[ 11005 11000 10999 10996 ] final -165.02 input  -57.11 | X-H torsion

> <Gold.Protein.ActiveResidues>
 VAL166  LYS551  ARG553  GLY616  TRP617  ASP618  TYR619  PRO620  LYS621  CYS622 
 ASP623  PHE694  ASN695  SER759  ASP760  ASP761  ALA762  ILE779  LEU786  VAL792 
 PHE793  MET794  SER795  GLU796  ALA797  LYS798  CYS799  TRP800  GLU811  SER814 

> <Gold.Protein.RotatedAtoms>
  151.7616  133.3334  159.3419 H   0  0  0  0  0  0  0  0  0  0  0  0  # atno 6907 bound_to 6896
  150.7496  134.6100  159.6091 H   0  0  0  0  0  0  0  0  0  0  0  0  # atno 6908 bound_to 6896
  152.3401  134.7147  160.0317 H   0  0  0  0  0  0  0  0  0  0  0  0  # atno 6909 bound_to 6896
  146.0090  139.4522  142.9968 H   0  0  0  0  0  0  0  0  0  0  0  0  # atno 7974 bound_to 7965
  156.1138  140.3223  155.8110 H   0  0  0  0  0  0  0  0  0  0  0  0  # atno 8008 bound_to 7997
  155.4626  140.0540  157.3006 H   0  0  0  0  0  0  0  0  0  0  0  0  # atno 8009 bound_to 7997
  154.4778  140.2040  155.9849 H   0  0  0  0  0  0  0  0  0  0  0  0  # atno 8010 bound_to 7997
  140.0661  144.5192  150.7260 H   0  0  0  0  0  0  0  0  0  0  0  0  # atno 10167 bound_to 10162
  156.3011  130.7429  151.1481 H   0  0  0  0  0  0  0  0  0  0  0  0  # atno 10718 bound_to 10713
  154.7427  135.5004  153.9150 H   0  0  0  0  0  0  0  0  0  0  0  0  # atno 10763 bound_to 10752
  153.1060  135.6697  153.9594 H   0  0  0  0  0  0  0  0  0  0  0  0  # atno 10764 bound_to 10752
  153.9367  135.3072  155.3423 H   0  0  0  0  0  0  0  0  0  0  0  0  # atno 10765 bound_to 10752
  140.5804  134.5147  157.5177 H   0  0  0  0  0  0  0  0  0  0  0  0  # atno 11005 bound_to 11000
  145.7371  141.0021  143.1320 LP  0  0  0  0  0  0  0  0  0  0  0  0  # atno 17320 bound_to 7965
  144.6946  139.9054  143.7461 LP  0  0  0  0  0  0  0  0  0  0  0  0  # atno 17321 bound_to 7965
  140.7148  143.2535  151.4467 LP  0  0  0  0  0  0  0  0  0  0  0  0  # atno 17342 bound_to 10162
  139.5864  144.1595  152.2034 LP  0  0  0  0  0  0  0  0  0  0  0  0  # atno 17343 bound_to 10162
  157.7368  131.0558  150.5393 LP  0  0  0  0  0  0  0  0  0  0  0  0  # atno 17370 bound_to 10713
  156.5520  130.4234  149.6103 LP  0  0  0  0  0  0  0  0  0  0  0  0  # atno 17371 bound_to 10713
  139.9320  134.7946  156.0905 LP  0  0  0  0  0  0  0  0  0  0  0  0  # atno 17394 bound_to 11000
  141.1000  133.6681  156.2732 LP  0  0  0  0  0  0  0  0  0  0  0  0  # atno 17395 bound_to 11000

$$$$
