AV-unprocessed.smi:2438|AV-procd|sdf|9597|dock10
  -GOLD-   2272013233D 1   1.00000     0.00000
 Structure written by MMmdl.
 43 44  0  0  0  0  0  0  0  0  1 V2000
  148.6125  137.0320  155.8627 C   0  0  0  0  0  0  0  0  0  0  0  0
  149.1002  137.6826  154.6531 N   0  0  0  0  0  0  0  0  0  0  0  0
  150.5376  137.6165  154.4267 C   0  0  0  0  0  0  0  0  0  0  0  0
  148.5473  138.9440  154.3537 C   0  0  0  0  0  0  0  0  0  0  0  0
  147.6324  139.0176  153.3564 N   0  0  0  0  0  0  0  0  0  0  0  0
  147.0953  140.2109  153.0973 C   0  0  0  0  0  0  0  0  0  0  0  0
  147.3671  141.3590  153.7178 N   0  0  0  0  0  0  0  0  0  0  0  0
  148.2774  141.3102  154.7126 C   0  0  0  0  0  0  0  0  0  0  0  0
  148.9121  140.1016  155.0899 C   0  0  0  0  0  0  0  0  0  0  0  0
  149.9170  140.0352  156.0933 N   0  0  0  0  0  0  0  0  0  0  0  0
  150.6170  141.0533  156.6183 C   0  0  0  0  0  0  0  0  0  0  0  0
  150.4748  142.2383  156.3164 O   0  0  0  0  0  0  0  0  0  0  0  0
  151.4811  140.6180  157.5457 N   0  0  0  0  0  0  0  0  0  0  0  0
  152.3589  141.4629  158.3497 C   0  0  2  0  0  0  0  0  0  0  0  0
  152.8365  140.6795  159.5851 C   0  0  0  0  0  0  0  0  0  0  0  0
  153.6982  141.5578  160.5034 C   0  0  0  0  0  0  0  0  0  0  0  0
  152.9472  142.8321  160.9191 C   0  0  0  0  0  0  0  0  0  0  0  0
  152.4762  143.6406  159.6921 C   0  0  2  0  0  0  0  0  0  0  0  0
  151.7339  144.9299  160.1008 C   0  0  0  0  0  0  0  0  0  0  0  0
  152.5167  145.7127  160.8443 F   0  0  0  0  0  0  0  0  0  0  0  0
  151.3574  145.6046  159.0146 F   0  0  0  0  0  0  0  0  0  0  0  0
  150.6410  144.6255  160.8005 F   0  0  0  0  0  0  0  0  0  0  0  0
  151.6198  142.7510  158.7653 C   0  0  0  0  0  0  0  0  0  0  0  0
  147.5244  137.0823  155.9206 H   0  0  0  0  0  0  0  0  0  0  0  0
  149.0308  137.5014  156.7541 H   0  0  0  0  0  0  0  0  0  0  0  0
  148.8992  135.9802  155.8661 H   0  0  0  0  0  0  0  0  0  0  0  0
  150.8122  137.9801  153.4365 H   0  0  0  0  0  0  0  0  0  0  0  0
  150.8876  136.5875  154.5122 H   0  0  0  0  0  0  0  0  0  0  0  0
  151.0662  138.2177  155.1675 H   0  0  0  0  0  0  0  0  0  0  0  0
  146.3677  140.2515  152.3003 H   0  0  0  0  0  0  0  0  0  0  0  0
  148.5120  142.2539  155.1813 H   0  0  0  0  0  0  0  0  0  0  0  0
  150.0531  139.1277  156.5146 H   0  0  0  0  0  0  0  0  0  0  0  0
  151.5236  139.6251  157.7228 H   0  0  0  0  0  0  0  0  0  0  0  0
  153.2392  141.7354  157.7640 H   0  0  0  0  0  0  0  0  0  0  0  0
  151.9767  140.3081  160.1448 H   0  0  0  0  0  0  0  0  0  0  0  0
  153.4061  139.8026  159.2750 H   0  0  0  0  0  0  0  0  0  0  0  0
  153.9903  140.9929  161.3891 H   0  0  0  0  0  0  0  0  0  0  0  0
  154.6225  141.8281  159.9908 H   0  0  0  0  0  0  0  0  0  0  0  0
  152.0896  142.5619  161.5363 H   0  0  0  0  0  0  0  0  0  0  0  0
  153.5958  143.4444  161.5458 H   0  0  0  0  0  0  0  0  0  0  0  0
  153.3643  143.9399  159.1330 H   0  0  0  0  0  0  0  0  0  0  0  0
  151.3374  143.3121  157.8739 H   0  0  0  0  0  0  0  0  0  0  0  0
  150.6886  142.4907  159.2705 H   0  0  0  0  0  0  0  0  0  0  0  0
  1  2  1  0  0  0  0
  1 24  1  0  0  0  0
  1 25  1  0  0  0  0
  1 26  1  0  0  0  0
  2  3  1  0  0  0  0
  2  4  1  0  0  0  0
  3 27  1  0  0  0  0
  3 28  1  0  0  0  0
  3 29  1  0  0  0  0
  4  9  1  0  0  0  0
  4  5  2  0  0  0  0
  5  6  1  0  0  0  0
  6  7  2  0  0  0  0
  6 30  1  0  0  0  0
  7  8  1  0  0  0  0
  8  9  2  0  0  0  0
  8 31  1  0  0  0  0
  9 10  1  0  0  0  0
 10 11  1  0  0  0  0
 10 32  1  0  0  0  0
 11 12  2  0  0  0  0
 11 13  1  0  0  0  0
 13 14  1  0  0  0  0
 13 33  1  0  0  0  0
 14 23  1  0  0  0  0
 14 15  1  0  0  0  0
 14 34  1  0  0  0  0
 15 16  1  0  0  0  0
 15 35  1  0  0  0  0
 15 36  1  0  0  0  0
 16 17  1  0  0  0  0
 16 37  1  0  0  0  0
 16 38  1  0  0  0  0
 17 18  1  0  0  0  0
 17 39  1  0  0  0  0
 17 40  1  0  0  0  0
 18 19  1  0  0  0  0
 18 23  1  0  0  0  0
 18 41  1  0  0  0  0
 19 20  1  0  0  0  0
 19 21  1  0  0  0  0
 19 22  1  0  0  0  0
 23 42  1  0  0  0  0
 23 43  1  0  0  0  0
M  END
> <s_m_source_file>
AV-unprocessed.smi

> <i_m_source_file_index>
2438

> <i_lp_mmshare_version>
43012

> <i_f3d_flags>
0

> <s_epik_input>
W0NIM11OKFtDSDNdKWMxbltjSF1uW2NIXWMxW05IXUMoPU8pW05IXVtDQEBIXTJbQ0gyXVtDSDJdW0NIMl1bQ0BASF0oQyhGKShGKUYpW0NIMl0y

> <s_epik_cmdline>
J2VwaWtfcHl0aG9uJywgJy1waCcsICc3LjAnLCAnLXRuJywgJzgnLCAnLW1hJywgJzIwMCcsICctbWV0YWxfYmluZGluZycsICctaW1hZScsICc8aW5maWxlLm1hZT4nLCAnLW9tYWUnLCAnPG91dGZpbGUubWFlPic=

> <r_lp_tautomer_probability>
1

> <r_epik_Ionization_Penalty>
0.01759

> <r_epik_Ionization_Penalty_Charging>
0

> <r_epik_Ionization_Penalty_Neutral>
0.01759

> <r_epik_State_Penalty>
0.0133536

> <r_epik_Charging_Adjusted_Penalty>
0.0133536

> <i_epik_Tot_Q>
0

> <i_epik_Tot_abs_Q>
0

> <r_epik_Metal_State_Penalty>
0.0129828

> <b_epik_Metal_Only>
0

> <s_lp_Force_Field>
OPLS_2005

> <r_lp_Energy>
11.5061

> <b_lp_Chiralities_Consistent>
1

> <s_lp_Variant>
AV-unprocessed.smi:2438-3

> <Gold.Version>
5.8.1

> <Gold.Id.Protein>
6NUR|6NUR_protein|mol2

> <Gold.PLP.Fitness>
39.2849

> <Gold.PLP.PLP>
-35.2097

> <Gold.PLP.part.hbond>
0.0000

> <Gold.PLP.part.metal>
0.0000

> <Gold.PLP.part.buried>
-3.8292

> <Gold.PLP.part.nonpolar>
-32.8691

> <Gold.PLP.part.repulsive>
1.8078

> <Gold.PLP.ligand.clash>
0.0000

> <Gold.PLP.ligand.torsion>
0.5490

> <Gold.PLP.Chemscore.Hbond>
0.0000

> <Gold.PLP.Chemscore.CHOScore>
1.6111

> <Gold.PLP.Chemscore.Metal>
0.0000

> <Gold.Chemscore.Hbonds>
donor molecule, donor type, donor heavy atom, donor atom, acceptor molecule, acceptor atom, score
      L1  C     6    30       P1 10175  0.60
      L1  C     8    31       P1  8028  1.00

> <Gold.PLP.Chemscore.Internal.Correction>
0.3398

> <Gold.Rescore>
     Score         DG    S(hbond)    S(metal)    S(lipo)     H(rot)  DE(clash)    DE(int)     intcor
      8.19     -12.92       0.00        0.00      92.03       1.30       1.65       3.08       ----

> <Gold.Chemscore.Fitness>
8.1920

> <Gold.Chemscore.DG>
-12.9227

> <Gold.Chemscore.ZeroCoef>
-5.4800

> <Gold.Chemscore.Hbond>
0.0000

> <Gold.Chemscore.Metal>
0.0000

> <Gold.Chemscore.Lipo>
92.0275

> <Gold.Chemscore.Internal_Hbond>
0.0000

> <Gold.Chemscore.DEClash>
1.6502

> <Gold.Chemscore.DEInternal>
3.0805

> <Gold.Chemscore.Rot>
1.2987

> <Gold.Chemscore.Internal.Correction>
   9.000000E+99

> <Gold.Chemscore.Hbond.Weighted>
-0.0000

> <Gold.Chemscore.Metal.Weighted>
-0.0000

> <Gold.Chemscore.Lipo.Weighted>
-10.7672

> <Gold.Chemscore.Internal_Hbond.Weighted>
0.0000

> <Gold.Chemscore.DEClash.Weighted>
1.6502

> <Gold.Chemscore.DEInternal.Weighted>
3.0805

> <Gold.Chemscore.Rot.Weighted>
3.3246

> <Gold.Chemscore.Internal.Correction.Weighted>
   9.000000E+99

> <Gold.Protein.RotatedTorsions>
[ 6907 6896 6895 6894 ] final  -18.33 input  -60.11 | X-H torsion
[ 7974 7965 7964 7962 ] final   24.11 input  175.53 | X-H torsion
[ 8008 7997 7996 7995 ] final  -83.10 input   59.86 | X-H torsion
[ 10167 10162 10161 10158 ] final  159.72 input  -65.29 | X-H torsion
[ 10718 10713 10712 10709 ] final -156.00 input   66.30 | X-H torsion
[ 10763 10752 10751 10750 ] final -100.07 input  -60.55 | X-H torsion
[ 11005 11000 10999 10996 ] final  153.55 input  -57.11 | X-H torsion

> <Gold.Protein.ActiveResidues>
 VAL166  LYS551  ARG553  GLY616  TRP617  ASP618  TYR619  PRO620  LYS621  CYS622 
 ASP623  PHE694  ASN695  SER759  ASP760  ASP761  ALA762  ILE779  LEU786  VAL792 
 PHE793  MET794  SER795  GLU796  ALA797  LYS798  CYS799  TRP800  GLU811  SER814 

> <Gold.Protein.RotatedAtoms>
  151.2798  135.0710  159.9164 H   0  0  0  0  0  0  0  0  0  0  0  0  # atno 6907 bound_to 6896
  152.5336  134.0043  159.7919 H   0  0  0  0  0  0  0  0  0  0  0  0  # atno 6908 bound_to 6896
  151.0295  133.5753  159.2693 H   0  0  0  0  0  0  0  0  0  0  0  0  # atno 6909 bound_to 6896
  146.1953  139.7650  142.8802 H   0  0  0  0  0  0  0  0  0  0  0  0  # atno 7974 bound_to 7965
  154.6155  140.0623  156.9549 H   0  0  0  0  0  0  0  0  0  0  0  0  # atno 8008 bound_to 7997
  155.1902  140.3306  155.4341 H   0  0  0  0  0  0  0  0  0  0  0  0  # atno 8009 bound_to 7997
  156.2402  140.1882  156.6993 H   0  0  0  0  0  0  0  0  0  0  0  0  # atno 8010 bound_to 7997
  139.4834  144.4703  151.8585 H   0  0  0  0  0  0  0  0  0  0  0  0  # atno 10167 bound_to 10162
  156.5205  130.8476  151.2680 H   0  0  0  0  0  0  0  0  0  0  0  0  # atno 10718 bound_to 10713
  154.7549  135.4949  153.9356 H   0  0  0  0  0  0  0  0  0  0  0  0  # atno 10763 bound_to 10752
  153.1185  135.6726  153.9385 H   0  0  0  0  0  0  0  0  0  0  0  0  # atno 10764 bound_to 10752
  153.9124  135.3097  155.3427 H   0  0  0  0  0  0  0  0  0  0  0  0  # atno 10765 bound_to 10752
  140.1408  134.8740  157.2328 H   0  0  0  0  0  0  0  0  0  0  0  0  # atno 11005 bound_to 11000
  145.3664  141.0335  143.3256 LP  0  0  0  0  0  0  0  0  0  0  0  0  # atno 17320 bound_to 7965
  144.8567  139.5238  143.6831 LP  0  0  0  0  0  0  0  0  0  0  0  0  # atno 17321 bound_to 7965
  140.4171  144.2292  150.5887 LP  0  0  0  0  0  0  0  0  0  0  0  0  # atno 17342 bound_to 10162
  140.4910  143.2347  151.8819 LP  0  0  0  0  0  0  0  0  0  0  0  0  # atno 17343 bound_to 10162
  157.7437  130.9919  150.2617 LP  0  0  0  0  0  0  0  0  0  0  0  0  # atno 17370 bound_to 10713
  156.3154  130.3778  149.7623 LP  0  0  0  0  0  0  0  0  0  0  0  0  # atno 17371 bound_to 10713
  140.2724  134.3444  155.7369 LP  0  0  0  0  0  0  0  0  0  0  0  0  # atno 17394 bound_to 11000
  141.2185  133.7431  156.9243 LP  0  0  0  0  0  0  0  0  0  0  0  0  # atno 17395 bound_to 11000

$$$$
