AV-unprocessed.smi:645|AV-procd|sdf|3161|dock2
  -GOLD-   22720 0 83D 1   1.00000     0.00000
 Structure written by MMmdl.
 22 23  0  0  0  0  0  0  0  0  2 V2000
  150.0369  139.9471  158.1596 C   0  0  0  0  0  0  0  0  0  0  0  0
  151.4954  140.3673  157.8815 C   0  0  1  0  0  0  0  0  0  0  0  0
  151.7359  141.8597  158.1690 C   0  0  0  0  0  0  0  0  0  0  0  0
  151.0842  142.8826  157.4368 C   0  0  0  0  0  0  0  0  0  0  0  0
  151.3575  144.2285  157.7511 C   0  0  0  0  0  0  0  0  0  0  0  0
  152.2171  144.6067  158.7198 N   0  0  0  0  0  0  0  0  0  0  0  0
  152.8395  143.6349  159.4183 C   0  0  0  0  0  0  0  0  0  0  0  0
  152.6380  142.2609  159.1823 C   0  0  0  0  0  0  0  0  0  0  0  0
  152.3889  139.4878  158.6110 N   0  0  0  0  0  0  0  0  0  0  0  0
  153.1871  138.8069  157.7911 C   0  0  0  0  0  0  0  0  0  0  0  0
  154.0319  138.0221  158.2161 O   0  0  0  0  0  0  0  0  0  0  0  0
  152.9101  139.1172  156.5104 N   0  5  0  0  0  0  0  0  0  0  0  0
  151.9103  140.0233  156.4420 C   0  0  0  0  0  0  0  0  0  0  0  0
  151.3628  140.5191  155.4572 O   0  0  0  0  0  0  0  0  0  0  0  0
  149.3275  140.5026  157.5458 H   0  0  0  0  0  0  0  0  0  0  0  0
  149.7737  140.1187  159.2035 H   0  0  0  0  0  0  0  0  0  0  0  0
  149.8793  138.8875  157.9525 H   0  0  0  0  0  0  0  0  0  0  0  0
  150.3819  142.6598  156.6477 H   0  0  0  0  0  0  0  0  0  0  0  0
  150.8709  145.0247  157.2073 H   0  0  0  0  0  0  0  0  0  0  0  0
  153.5201  143.9614  160.1906 H   0  0  0  0  0  0  0  0  0  0  0  0
  153.1631  141.5309  159.7801 H   0  0  0  0  0  0  0  0  0  0  0  0
  152.4102  139.4286  159.6181 H   0  0  0  0  0  0  0  0  0  0  0  0
  1  2  1  0  0  0  0
  1 15  1  0  0  0  0
  1 16  1  0  0  0  0
  1 17  1  0  0  0  0
  2 13  1  0  0  0  0
  2  3  1  0  0  0  0
  2  9  1  0  0  0  0
  3  8  1  0  0  0  0
  3  4  2  0  0  0  0
  4  5  1  0  0  0  0
  4 18  1  0  0  0  0
  5  6  2  0  0  0  0
  5 19  1  0  0  0  0
  6  7  1  0  0  0  0
  7  8  2  0  0  0  0
  7 20  1  0  0  0  0
  8 21  1  0  0  0  0
  9 10  1  0  0  0  0
  9 22  1  0  0  0  0
 10 11  2  0  0  0  0
 10 12  1  0  0  0  0
 12 13  1  0  0  0  0
 13 14  2  0  0  0  0
M  CHG  1  12  -1
M  END
> <s_m_source_file>
AV-unprocessed.smi

> <i_m_source_file_index>
645

> <i_lp_mmshare_version>
43012

> <i_f3d_flags>
0

> <s_epik_input>
Tz1DMVtOSF1DKD1PKVtOSF1bQ0BAXTEoW0NIM10pYzJbY0hdW2NIXW5bY0hdW2NIXTI=

> <s_epik_cmdline>
J2VwaWtfcHl0aG9uJywgJy1waCcsICc3LjAnLCAnLXRuJywgJzgnLCAnLW1hJywgJzIwMCcsICctbWV0YWxfYmluZGluZycsICctaW1hZScsICc8aW5maWxlLm1hZT4nLCAnLW9tYWUnLCAnPG91dGZpbGUubWFlPic=

> <r_epik_Ionization_Penalty>
1.83307

> <r_epik_Ionization_Penalty_Charging>
1.82122

> <r_epik_Ionization_Penalty_Neutral>
0.0118514

> <r_epik_State_Penalty>
1.93645

> <r_epik_Charging_Adjusted_Penalty>
3.75767

> <i_epik_Tot_Q>
-1

> <i_epik_Tot_abs_Q>
1

> <r_epik_Metal_State_Penalty>
0.53507

> <b_epik_Metal_Only>
0

> <s_lp_Force_Field>
OPLS_2005

> <r_lp_Energy>
9.09868

> <b_lp_Chiralities_Consistent>
1

> <s_lp_Variant>
AV-unprocessed.smi:645-3

> <Gold.Version>
5.8.1

> <Gold.Id.Protein>
6NUR|6NUR_protein|mol2

> <Gold.PLP.Fitness>
36.2895

> <Gold.PLP.PLP>
-25.1535

> <Gold.PLP.part.hbond>
-2.0000

> <Gold.PLP.part.metal>
0.0000

> <Gold.PLP.part.buried>
-3.4352

> <Gold.PLP.part.nonpolar>
-20.3575

> <Gold.PLP.part.repulsive>
0.1481

> <Gold.PLP.ligand.clash>
0.0000

> <Gold.PLP.ligand.torsion>
0.0734

> <Gold.PLP.Chemscore.Hbond>
2.8480

> <Gold.PLP.Chemscore.CHOScore>
0.8856

> <Gold.PLP.Chemscore.Metal>
0.0000

> <Gold.Chemscore.Hbonds>
donor molecule, donor type, donor heavy atom, donor atom, acceptor molecule, acceptor atom, score
      P1  H  7989  7998       L1    14  0.86
      P1  H  7997  8008       L1    12  1.50
      L1  C     5    19       P1  8028  0.93

> <Gold.PLP.Chemscore.Internal.Correction>
0.0820

> <Gold.Rescore>
     Score         DG    S(hbond)    S(metal)    S(lipo)     H(rot)  DE(clash)    DE(int)     intcor
     12.91     -12.99       0.93        0.00      59.40       1.00       0.04       0.04       ----

> <Gold.Chemscore.Fitness>
12.9070

> <Gold.Chemscore.DG>
-12.9865

> <Gold.Chemscore.ZeroCoef>
-5.4800

> <Gold.Chemscore.Hbond>
0.9333

> <Gold.Chemscore.Metal>
0.0000

> <Gold.Chemscore.Lipo>
59.3966

> <Gold.Chemscore.Internal_Hbond>
0.0000

> <Gold.Chemscore.DEClash>
0.0385

> <Gold.Chemscore.DEInternal>
0.0410

> <Gold.Chemscore.Rot>
1.0000

> <Gold.Chemscore.Internal.Correction>
   9.000000E+99

> <Gold.Chemscore.Hbonds>
donor molecule, donor type, donor heavy atom, donor atom, acceptor molecule, acceptor atom, score
      P1  H  7989  7998       L1    14  0.82
      P1  H  7997  8008       L1    12  0.03

> <Gold.Chemscore.Hbond.Weighted>
-3.1171

> <Gold.Chemscore.Metal.Weighted>
-0.0000

> <Gold.Chemscore.Lipo.Weighted>
-6.9494

> <Gold.Chemscore.Internal_Hbond.Weighted>
0.0000

> <Gold.Chemscore.DEClash.Weighted>
0.0385

> <Gold.Chemscore.DEInternal.Weighted>
0.0410

> <Gold.Chemscore.Rot.Weighted>
2.5600

> <Gold.Chemscore.Internal.Correction.Weighted>
   9.000000E+99

> <Gold.Protein.RotatedTorsions>
[ 6907 6896 6895 6894 ] final -126.14 input  -60.11 | X-H torsion
[ 7974 7965 7964 7962 ] final  102.89 input  175.53 | X-H torsion
[ 8008 7997 7996 7995 ] final  -39.22 input   59.86 | X-H torsion
[ 10167 10162 10161 10158 ] final   20.56 input  -65.29 | X-H torsion
[ 10718 10713 10712 10709 ] final  -77.35 input   66.30 | X-H torsion
[ 10763 10752 10751 10750 ] final  120.24 input  -60.55 | X-H torsion
[ 11005 11000 10999 10996 ] final   37.32 input  -57.11 | X-H torsion

> <Gold.Protein.ActiveResidues>
 VAL166  LYS551  ARG553  GLY616  TRP617  ASP618  TYR619  PRO620  LYS621  CYS622 
 ASP623  PHE694  ASN695  SER759  ASP760  ASP761  ALA762  ILE779  LEU786  VAL792 
 PHE793  MET794  SER795  GLU796  ALA797  LYS798  CYS799  TRP800  GLU811  SER814 

> <Gold.Protein.RotatedAtoms>
  150.8939  133.7207  159.2896 H   0  0  0  0  0  0  0  0  0  0  0  0  # atno 6907 bound_to 6896
  151.4748  135.1047  159.9771 H   0  0  0  0  0  0  0  0  0  0  0  0  # atno 6908 bound_to 6896
  152.4837  133.8270  159.7139 H   0  0  0  0  0  0  0  0  0  0  0  0  # atno 6909 bound_to 6896
  145.3531  139.2435  143.3547 H   0  0  0  0  0  0  0  0  0  0  0  0  # atno 7974 bound_to 7965
  154.4026  140.1557  156.2828 H   0  0  0  0  0  0  0  0  0  0  0  0  # atno 8008 bound_to 7997
  155.8854  140.3441  155.5896 H   0  0  0  0  0  0  0  0  0  0  0  0  # atno 8009 bound_to 7997
  155.7619  140.0818  157.2141 H   0  0  0  0  0  0  0  0  0  0  0  0  # atno 8010 bound_to 7997
  140.5494  143.9536  150.6568 H   0  0  0  0  0  0  0  0  0  0  0  0  # atno 10167 bound_to 10162
  156.0147  130.4489  150.3332 H   0  0  0  0  0  0  0  0  0  0  0  0  # atno 10718 bound_to 10713
  153.5955  135.3458  155.2926 H   0  0  0  0  0  0  0  0  0  0  0  0  # atno 10763 bound_to 10752
  154.8645  135.4215  154.2470 H   0  0  0  0  0  0  0  0  0  0  0  0  # atno 10764 bound_to 10752
  153.3286  135.7043  153.7038 H   0  0  0  0  0  0  0  0  0  0  0  0  # atno 10765 bound_to 10752
  140.2237  134.3610  155.7994 H   0  0  0  0  0  0  0  0  0  0  0  0  # atno 11005 bound_to 11000
  146.2959  140.4151  142.8722 LP  0  0  0  0  0  0  0  0  0  0  0  0  # atno 17320 bound_to 7965
  144.8703  140.7263  143.6051 LP  0  0  0  0  0  0  0  0  0  0  0  0  # atno 17321 bound_to 7965
  140.2958  143.3293  152.1019 LP  0  0  0  0  0  0  0  0  0  0  0  0  # atno 17342 bound_to 10162
  139.5021  144.6727  151.6203 LP  0  0  0  0  0  0  0  0  0  0  0  0  # atno 17343 bound_to 10162
  157.1429  131.0301  151.2919 LP  0  0  0  0  0  0  0  0  0  0  0  0  # atno 17370 bound_to 10713
  157.4456  130.7569  149.7107 LP  0  0  0  0  0  0  0  0  0  0  0  0  # atno 17371 bound_to 10713
  141.2222  133.7207  156.8618 LP  0  0  0  0  0  0  0  0  0  0  0  0  # atno 17394 bound_to 11000
  140.1823  134.9024  157.2963 LP  0  0  0  0  0  0  0  0  0  0  0  0  # atno 17395 bound_to 11000

$$$$
