AV-unprocessed.smi:2609|AV-procd|sdf|10206|dock2
  -GOLD-   2272014213D 1   1.00000     0.00000
 Structure written by MMmdl.
 25 26  0  0  0  0  0  0  0  0  1 V2000
  153.2045  142.8230  160.4314 O   0  0  0  0  0  0  0  0  0  0  0  0
  152.4069  143.0295  159.5192 C   0  0  0  0  0  0  0  0  0  0  0  0
  151.8268  144.3648  159.3113 C   0  0  0  0  0  0  0  0  0  0  0  0
  150.9579  144.5491  158.2994 C   0  0  0  0  0  0  0  0  0  0  0  0
  150.5969  143.5195  157.4522 N   0  0  0  0  0  0  0  0  0  0  0  0
  151.1680  142.2726  157.6842 C   0  0  0  0  0  0  0  0  0  0  0  0
  150.7012  141.1978  156.6980 C   0  0  0  0  0  0  0  0  0  0  0  0
  151.8306  140.2204  156.3160 C   0  0  0  0  0  0  0  0  0  0  0  0
  151.3271  139.1662  155.3156 C   0  0  0  0  0  0  0  0  0  0  0  0
  150.7848  139.8015  154.1635 O   0  0  0  0  0  0  0  0  0  0  0  0
  149.6596  140.6207  154.4604 C   0  0  0  0  0  0  0  0  0  0  0  0
  150.0768  141.7604  155.4033 C   0  0  0  0  0  0  0  0  0  0  0  0
  152.0147  142.0049  158.6387 N   0  0  0  0  0  0  0  0  0  0  0  0
  149.9408  143.7066  156.7074 H   0  0  0  0  0  0  0  0  0  0  0  0
  152.0947  145.1848  159.9616 H   0  0  0  0  0  0  0  0  0  0  0  0
  150.4900  145.4981  158.0826 H   0  0  0  0  0  0  0  0  0  0  0  0
  149.9241  140.6229  157.2046 H   0  0  0  0  0  0  0  0  0  0  0  0
  152.6626  140.7694  155.8722 H   0  0  0  0  0  0  0  0  0  0  0  0
  152.2258  139.7164  157.1987 H   0  0  0  0  0  0  0  0  0  0  0  0
  152.1505  138.5227  155.0051 H   0  0  0  0  0  0  0  0  0  0  0  0
  150.5761  138.5216  155.7750 H   0  0  0  0  0  0  0  0  0  0  0  0
  149.2679  141.0303  153.5293 H   0  0  0  0  0  0  0  0  0  0  0  0
  148.8637  140.0198  154.9030 H   0  0  0  0  0  0  0  0  0  0  0  0
  149.2086  142.3791  155.6352 H   0  0  0  0  0  0  0  0  0  0  0  0
  150.7920  142.4017  154.8855 H   0  0  0  0  0  0  0  0  0  0  0  0
  1  2  2  0  0  0  0
  2 13  1  0  0  0  0
  2  3  1  0  0  0  0
  3  4  2  0  0  0  0
  3 15  1  0  0  0  0
  4  5  1  0  0  0  0
  4 16  1  0  0  0  0
  5 14  1  0  0  0  0
  5  6  1  0  0  0  0
  6  7  1  0  0  0  0
  6 13  2  0  0  0  0
  7 12  1  0  0  0  0
  7  8  1  0  0  0  0
  7 17  1  0  0  0  0
  8  9  1  0  0  0  0
  8 18  1  0  0  0  0
  8 19  1  0  0  0  0
  9 10  1  0  0  0  0
  9 20  1  0  0  0  0
  9 21  1  0  0  0  0
 10 11  1  0  0  0  0
 11 12  1  0  0  0  0
 11 22  1  0  0  0  0
 11 23  1  0  0  0  0
 12 24  1  0  0  0  0
 12 25  1  0  0  0  0
M  END
> <s_m_source_file>
AV-unprocessed.smi

> <i_m_source_file_index>
2609

> <i_lp_mmshare_version>
43012

> <i_f3d_flags>
0

> <s_epik_input>
Tz1jMVtjSF1bY0hdW25IXWMobjEpW0NIXTJbQ0gyXVtDSDJdT1tDSDJdW0NIMl0y

> <s_epik_cmdline>
J2VwaWtfcHl0aG9uJywgJy1waCcsICc3LjAnLCAnLXRuJywgJzgnLCAnLW1hJywgJzIwMCcsICctbWV0YWxfYmluZGluZycsICctaW1hZScsICc8aW5maWxlLm1hZT4nLCAnLW9tYWUnLCAnPG91dGZpbGUubWFlPic=

> <r_lp_tautomer_probability>
0.156392

> <r_epik_Ionization_Penalty>
0.0156094

> <r_epik_Ionization_Penalty_Charging>
0.0155213

> <r_epik_Ionization_Penalty_Neutral>
8.80525e-05

> <r_epik_State_Penalty>
1.49738

> <r_epik_Charging_Adjusted_Penalty>
1.5129

> <i_epik_Tot_Q>
0

> <i_epik_Tot_abs_Q>
0

> <r_epik_Metal_State_Penalty>
1.69942

> <b_epik_Metal_Only>
0

> <s_lp_Force_Field>
OPLS_2005

> <r_lp_Energy>
19.0149

> <b_lp_Chiralities_Consistent>
1

> <s_lp_Variant>
AV-unprocessed.smi:2609-2

> <Gold.Version>
5.8.1

> <Gold.Id.Protein>
6NUR|6NUR_protein|mol2

> <Gold.PLP.Fitness>
36.2789

> <Gold.PLP.PLP>
-29.0542

> <Gold.PLP.part.hbond>
-2.0000

> <Gold.PLP.part.metal>
0.0000

> <Gold.PLP.part.buried>
-3.2615

> <Gold.PLP.part.nonpolar>
-24.5914

> <Gold.PLP.part.repulsive>
0.1583

> <Gold.PLP.ligand.clash>
0.0000

> <Gold.PLP.ligand.torsion>
0.5777

> <Gold.PLP.Chemscore.Hbond>
2.0000

> <Gold.PLP.Chemscore.CHOScore>
0.7872

> <Gold.PLP.Chemscore.Metal>
0.0000

> <Gold.Chemscore.Hbonds>
donor molecule, donor type, donor heavy atom, donor atom, acceptor molecule, acceptor atom, score
      L1  H     5    14       P1  8028  1.00
      P1  H  7989  7998       L1    10  0.86
      L1  C     4    16       P1  8029  0.40

> <Gold.PLP.Chemscore.Internal.Correction>
0.0186

> <Gold.Rescore>
     Score         DG    S(hbond)    S(metal)    S(lipo)     H(rot)  DE(clash)    DE(int)     intcor
     14.95     -15.09       1.58        0.00      58.96       1.00       0.09       0.05       ----

> <Gold.Chemscore.Fitness>
14.9534

> <Gold.Chemscore.DG>
-15.0893

> <Gold.Chemscore.ZeroCoef>
-5.4800

> <Gold.Chemscore.Hbond>
1.5783

> <Gold.Chemscore.Metal>
0.0000

> <Gold.Chemscore.Lipo>
58.9567

> <Gold.Chemscore.Internal_Hbond>
0.0000

> <Gold.Chemscore.DEClash>
0.0901

> <Gold.Chemscore.DEInternal>
0.0458

> <Gold.Chemscore.Rot>
1.0000

> <Gold.Chemscore.Internal.Correction>
   9.000000E+99

> <Gold.Chemscore.Hbonds>
donor molecule, donor type, donor heavy atom, donor atom, acceptor molecule, acceptor atom, score
      L1  H     5    14       P1  8028  0.98
      P1  H  7989  7998       L1    10  0.15

> <Gold.Chemscore.Hbond.Weighted>
-5.2714

> <Gold.Chemscore.Metal.Weighted>
-0.0000

> <Gold.Chemscore.Lipo.Weighted>
-6.8979

> <Gold.Chemscore.Internal_Hbond.Weighted>
0.0000

> <Gold.Chemscore.DEClash.Weighted>
0.0901

> <Gold.Chemscore.DEInternal.Weighted>
0.0458

> <Gold.Chemscore.Rot.Weighted>
2.5600

> <Gold.Chemscore.Internal.Correction.Weighted>
   9.000000E+99

> <Gold.Protein.RotatedTorsions>
[ 6907 6896 6895 6894 ] final  114.39 input  -60.11 | X-H torsion
[ 7974 7965 7964 7962 ] final   83.08 input  175.53 | X-H torsion
[ 8008 7997 7996 7995 ] final -173.95 input   59.86 | X-H torsion
[ 10167 10162 10161 10158 ] final   99.10 input  -65.29 | X-H torsion
[ 10718 10713 10712 10709 ] final  134.39 input   66.30 | X-H torsion
[ 10763 10752 10751 10750 ] final   74.88 input  -60.55 | X-H torsion
[ 11005 11000 10999 10996 ] final   72.82 input  -57.11 | X-H torsion

> <Gold.Protein.ActiveResidues>
 VAL166  LYS551  ARG553  GLY616  TRP617  ASP618  TYR619  PRO620  LYS621  CYS622 
 ASP623  PHE694  ASN695  SER759  ASP760  ASP761  ALA762  ILE779  LEU786  VAL792 
 PHE793  MET794  SER795  GLU796  ALA797  LYS798  CYS799  TRP800  GLU811  SER814 

> <Gold.Protein.RotatedAtoms>
  152.4805  133.8242  159.7069 H   0  0  0  0  0  0  0  0  0  0  0  0  # atno 6907 bound_to 6896
  150.8851  133.7309  159.2927 H   0  0  0  0  0  0  0  0  0  0  0  0  # atno 6908 bound_to 6896
  151.4800  135.1055  159.9827 H   0  0  0  0  0  0  0  0  0  0  0  0  # atno 6909 bound_to 6896
  145.6166  139.2378  143.2162 H   0  0  0  0  0  0  0  0  0  0  0  0  # atno 7974 bound_to 7965
  155.9639  140.1150  157.0871 H   0  0  0  0  0  0  0  0  0  0  0  0  # atno 8008 bound_to 7997
  154.4139  140.1176  156.5283 H   0  0  0  0  0  0  0  0  0  0  0  0  # atno 8009 bound_to 7997
  155.6684  140.3473  155.4811 H   0  0  0  0  0  0  0  0  0  0  0  0  # atno 8010 bound_to 7997
  139.7648  144.6942  151.0240 H   0  0  0  0  0  0  0  0  0  0  0  0  # atno 10167 bound_to 10162
  157.4677  131.1078  150.9842 H   0  0  0  0  0  0  0  0  0  0  0  0  # atno 10718 bound_to 10713
  153.0617  135.5009  154.8108 H   0  0  0  0  0  0  0  0  0  0  0  0  # atno 10763 bound_to 10752
  154.6892  135.2981  154.9506 H   0  0  0  0  0  0  0  0  0  0  0  0  # atno 10764 bound_to 10752
  154.0266  135.6735  153.4830 H   0  0  0  0  0  0  0  0  0  0  0  0  # atno 10765 bound_to 10752
  139.9471  134.7293  156.0953 H   0  0  0  0  0  0  0  0  0  0  0  0  # atno 11005 bound_to 11000
  146.1463  140.6988  142.9343 LP  0  0  0  0  0  0  0  0  0  0  0  0  # atno 17320 bound_to 7965
  144.7248  140.4489  143.6981 LP  0  0  0  0  0  0  0  0  0  0  0  0  # atno 17321 bound_to 7965
  140.7810  143.4655  151.0218 LP  0  0  0  0  0  0  0  0  0  0  0  0  # atno 17342 bound_to 10162
  139.8341  143.7652  152.3180 LP  0  0  0  0  0  0  0  0  0  0  0  0  # atno 17343 bound_to 10162
  157.0617  130.5828  149.5387 LP  0  0  0  0  0  0  0  0  0  0  0  0  # atno 17370 bound_to 10713
  156.0058  130.5144  150.7825 LP  0  0  0  0  0  0  0  0  0  0  0  0  # atno 17371 bound_to 10713
  141.1124  133.6639  156.3012 LP  0  0  0  0  0  0  0  0  0  0  0  0  # atno 17394 bound_to 11000
  140.5808  134.5747  157.5479 LP  0  0  0  0  0  0  0  0  0  0  0  0  # atno 17395 bound_to 11000

$$$$
