AV-unprocessed.smi:261|AV-procd|sdf|1992|dock5
  -GOLD-   2262021183D 1   1.00000     0.00000
 Structure written by MMmdl.
 51 54  0  0  0  0  0  0  0  0  1 V2000
  152.5878  131.6629  155.7085 C   0  0  0  0  0  0  0  0  0  0  0  0
  151.3032  131.3659  156.2308 O   0  0  0  0  0  0  0  0  0  0  0  0
  150.3751  132.4312  156.0890 C   0  0  2  0  0  0  0  0  0  0  0  0
  150.1399  132.8399  154.6340 C   0  0  0  0  0  0  0  0  0  0  0  0
  149.6950  134.3120  154.7140 C   0  0  1  0  0  0  0  0  0  0  0  0
  148.1646  134.4533  154.7047 C   0  0  0  0  0  0  0  0  0  0  0  0
  147.6123  134.9452  153.5932 N   0  0  0  0  0  0  0  0  0  0  0  0
  147.4861  134.1112  155.6722 O   0  0  0  0  0  0  0  0  0  0  0  0
  150.2438  134.7947  155.9846 N   0  0  0  0  0  0  0  0  0  0  0  0
  150.8832  135.9842  155.9781 C   0  0  0  0  0  0  0  0  0  0  0  0
  151.2905  136.5326  154.8035 N   0  0  0  0  0  0  0  0  0  0  0  0
  151.9348  137.7039  154.8045 C   0  0  0  0  0  0  0  0  0  0  0  0
  152.2674  138.4734  155.8439 N   0  0  0  0  0  0  0  0  0  0  0  0
  151.8592  137.9199  157.0221 C   0  0  0  0  0  0  0  0  0  0  0  0
  151.1664  136.6875  157.1767 C   0  0  0  0  0  0  0  0  0  0  0  0
  150.9126  136.4451  158.5201 N   0  0  0  0  0  0  0  0  0  0  0  0
  151.4238  137.4807  159.1281 C   0  0  0  0  0  0  0  0  0  0  0  0
  152.0218  138.4104  158.3056 N   0  0  0  0  0  0  0  0  0  0  0  0
  152.6736  139.6438  158.7165 C   0  0  0  0  0  0  0  0  0  0  0  0
  151.7178  140.8555  158.7953 C   0  0  2  0  0  0  0  0  0  0  0  0
  151.3035  141.1999  157.4881 O   0  0  0  0  0  0  0  0  0  0  0  0
  152.3386  142.1029  159.4573 C   0  0  1  0  0  0  0  0  0  0  0  0
  151.4044  143.3112  159.5436 C   0  0  0  0  0  0  0  0  0  0  0  0
  151.9273  144.0879  160.7435 C   0  0  0  0  0  0  0  0  0  0  0  0
  152.8817  143.1109  161.4349 C   0  0  0  0  0  0  0  0  0  0  0  0
  152.6227  141.8553  160.8252 O   0  0  0  0  0  0  0  0  0  0  0  0
  150.9357  133.7197  156.6832 C   0  0  0  0  0  0  0  0  0  0  0  0
  149.4268  132.1936  156.5750 H   0  0  0  0  0  0  0  0  0  0  0  0
  150.0965  134.8599  153.8592 H   0  0  0  0  0  0  0  0  0  0  0  0
  153.2405  130.7993  155.8354 H   0  0  0  0  0  0  0  0  0  0  0  0
  153.0473  132.5060  156.2255 H   0  0  0  0  0  0  0  0  0  0  0  0
  152.5362  131.8909  154.6432 H   0  0  0  0  0  0  0  0  0  0  0  0
  151.0784  132.7793  154.0810 H   0  0  0  0  0  0  0  0  0  0  0  0
  149.4218  132.1940  154.1271 H   0  0  0  0  0  0  0  0  0  0  0  0
  146.6107  135.0586  153.5339 H   0  0  0  0  0  0  0  0  0  0  0  0
  148.2010  135.2021  152.8143 H   0  0  0  0  0  0  0  0  0  0  0  0
  152.2266  138.0772  153.8339 H   0  0  0  0  0  0  0  0  0  0  0  0
  151.3882  137.5912  160.2023 H   0  0  0  0  0  0  0  0  0  0  0  0
  153.1583  139.4787  159.6798 H   0  0  0  0  0  0  0  0  0  0  0  0
  153.4748  139.8534  158.0070 H   0  0  0  0  0  0  0  0  0  0  0  0
  150.8303  140.5558  159.3535 H   0  0  0  0  0  0  0  0  0  0  0  0
  151.6353  140.5494  156.8877 H   0  0  0  0  0  0  0  0  0  0  0  0
  153.2628  142.3928  158.9534 H   0  0  0  0  0  0  0  0  0  0  0  0
  151.3993  143.9016  158.6268 H   0  0  0  0  0  0  0  0  0  0  0  0
  150.3811  142.9870  159.7386 H   0  0  0  0  0  0  0  0  0  0  0  0
  152.4546  144.9931  160.4405 H   0  0  0  0  0  0  0  0  0  0  0  0
  151.1077  144.3803  161.4010 H   0  0  0  0  0  0  0  0  0  0  0  0
  153.9195  143.3914  161.2484 H   0  0  0  0  0  0  0  0  0  0  0  0
  152.7295  143.0656  162.5133 H   0  0  0  0  0  0  0  0  0  0  0  0
  150.7628  133.7738  157.7585 H   0  0  0  0  0  0  0  0  0  0  0  0
  152.0123  133.7802  156.5123 H   0  0  0  0  0  0  0  0  0  0  0  0
  1  2  1  0  0  0  0
  1 30  1  0  0  0  0
  1 31  1  0  0  0  0
  1 32  1  0  0  0  0
  2  3  1  0  0  0  0
  3 28  1  0  0  0  0
  3 27  1  0  0  0  0
  3  4  1  0  0  0  0
  4  5  1  0  0  0  0
  4 33  1  0  0  0  0
  4 34  1  0  0  0  0
  5 29  1  0  0  0  0
  5  6  1  0  0  0  0
  5  9  1  0  0  0  0
  6  7  1  0  0  0  0
  6  8  2  0  0  0  0
  7 35  1  0  0  0  0
  7 36  1  0  0  0  0
  9 10  1  0  0  0  0
  9 27  1  0  0  0  0
 10 15  1  0  0  0  0
 10 11  2  0  0  0  0
 11 12  1  0  0  0  0
 12 13  2  0  0  0  0
 12 37  1  0  0  0  0
 13 14  1  0  0  0  0
 14 18  1  0  0  0  0
 14 15  2  0  0  0  0
 15 16  1  0  0  0  0
 16 17  2  0  0  0  0
 17 18  1  0  0  0  0
 17 38  1  0  0  0  0
 18 19  1  0  0  0  0
 19 20  1  0  0  0  0
 19 39  1  0  0  0  0
 19 40  1  0  0  0  0
 20 21  1  0  0  0  0
 20 22  1  0  0  0  0
 20 41  1  0  0  0  0
 21 42  1  0  0  0  0
 22 26  1  0  0  0  0
 22 23  1  0  0  0  0
 22 43  1  0  0  0  0
 23 24  1  0  0  0  0
 23 44  1  0  0  0  0
 23 45  1  0  0  0  0
 24 25  1  0  0  0  0
 24 46  1  0  0  0  0
 24 47  1  0  0  0  0
 25 26  1  0  0  0  0
 25 48  1  0  0  0  0
 25 49  1  0  0  0  0
 27 50  1  0  0  0  0
 27 51  1  0  0  0  0
M  END
> <s_m_source_file>
AV-unprocessed.smi

> <i_m_source_file_index>
261

> <i_lp_mmshare_version>
43012

> <i_f3d_flags>
0

> <s_epik_input>
W0NIM11PW0NASF0xW0NIMl1bQ0BASF0oQyg9TylbTkgyXSlOKFtDSDJdMSljKG5bY0hdbjIpYyhjMjMpbltjSF1uM1tDSDJdW0NASF0oW09IXSlbQ0BASF00W0NIMl1bQ0gyXVtDSDJdTzQ=

> <s_epik_cmdline>
J2VwaWtfcHl0aG9uJywgJy1waCcsICc3LjAnLCAnLXRuJywgJzgnLCAnLW1hJywgJzIwMCcsICctbWV0YWxfYmluZGluZycsICctaW1hZScsICc8aW5maWxlLm1hZT4nLCAnLW9tYWUnLCAnPG91dGZpbGUubWFlPic=

> <r_lp_tautomer_probability>
1

> <r_epik_Ionization_Penalty>
0.000713824

> <r_epik_Ionization_Penalty_Charging>
0

> <r_epik_Ionization_Penalty_Neutral>
0.000713824

> <r_epik_State_Penalty>
0.000402132

> <r_epik_Charging_Adjusted_Penalty>
0.000402132

> <i_epik_Tot_Q>
0

> <i_epik_Tot_abs_Q>
0

> <r_epik_Metal_State_Penalty>
-0

> <b_epik_Metal_Only>
0

> <s_lp_Force_Field>
OPLS_2005

> <r_lp_Energy>
43.7776

> <b_lp_Chiralities_Consistent>
1

> <s_lp_Variant>
AV-unprocessed.smi:261-10

> <Gold.Version>
5.8.1

> <Gold.Id.Protein>
6NUR|6NUR_protein|mol2

> <Gold.PLP.Fitness>
42.3674

> <Gold.PLP.PLP>
-37.1942

> <Gold.PLP.part.hbond>
-2.8602

> <Gold.PLP.part.metal>
0.0000

> <Gold.PLP.part.buried>
-7.2749

> <Gold.PLP.part.nonpolar>
-28.2386

> <Gold.PLP.part.repulsive>
0.2304

> <Gold.PLP.ligand.clash>
0.0000

> <Gold.PLP.ligand.torsion>
0.9639

> <Gold.PLP.Chemscore.Hbond>
2.2440

> <Gold.PLP.Chemscore.CHOScore>
0.0000

> <Gold.PLP.Chemscore.Metal>
0.0000

> <Gold.Chemscore.Hbonds>
donor molecule, donor type, donor heavy atom, donor atom, acceptor molecule, acceptor atom, score
      L1  H     7    36       P1  7948  1.00
      P1  H  6896  6907       L1    16  0.78
      P1  H 10752 10764       L1    11  0.55

> <Gold.PLP.Chemscore.Internal.Correction>
0.3690

> <Gold.Rescore>
     Score         DG    S(hbond)    S(metal)    S(lipo)     H(rot)  DE(clash)    DE(int)     intcor
     10.92     -11.88       1.72        0.00      83.85       3.57       0.02       0.94       ----

> <Gold.Chemscore.Fitness>
10.9208

> <Gold.Chemscore.DG>
-11.8799

> <Gold.Chemscore.ZeroCoef>
-5.4800

> <Gold.Chemscore.Hbond>
1.7182

> <Gold.Chemscore.Metal>
0.0000

> <Gold.Chemscore.Lipo>
83.8514

> <Gold.Chemscore.Internal_Hbond>
0.0000

> <Gold.Chemscore.DEClash>
0.0158

> <Gold.Chemscore.DEInternal>
0.9434

> <Gold.Chemscore.Rot>
3.5740

> <Gold.Chemscore.Internal.Correction>
   9.000000E+99

> <Gold.Chemscore.Hbonds>
donor molecule, donor type, donor heavy atom, donor atom, acceptor molecule, acceptor atom, score
      L1  H     7    36       P1  7948  0.91
      P1  H  6896  6907       L1    16  0.51
      P1  H 10752 10764       L1    11  0.01

> <Gold.Chemscore.Hbond.Weighted>
-5.7388

> <Gold.Chemscore.Metal.Weighted>
-0.0000

> <Gold.Chemscore.Lipo.Weighted>
-9.8106

> <Gold.Chemscore.Internal_Hbond.Weighted>
0.0000

> <Gold.Chemscore.DEClash.Weighted>
0.0158

> <Gold.Chemscore.DEInternal.Weighted>
0.9434

> <Gold.Chemscore.Rot.Weighted>
9.1495

> <Gold.Chemscore.Internal.Correction.Weighted>
   9.000000E+99

> <Gold.Protein.RotatedTorsions>
[ 6907 6896 6895 6894 ] final  -40.73 input  -60.11 | X-H torsion
[ 7974 7965 7964 7962 ] final   66.20 input  175.53 | X-H torsion
[ 8008 7997 7996 7995 ] final  179.38 input   59.86 | X-H torsion
[ 10167 10162 10161 10158 ] final    3.42 input  -65.29 | X-H torsion
[ 10718 10713 10712 10709 ] final  -92.82 input   66.30 | X-H torsion
[ 10763 10752 10751 10750 ] final  -66.45 input  -60.55 | X-H torsion
[ 11005 11000 10999 10996 ] final -144.76 input  -57.11 | X-H torsion

> <Gold.Protein.ActiveResidues>
 VAL166  LYS551  ARG553  GLY616  TRP617  ASP618  TYR619  PRO620  LYS621  CYS622 
 ASP623  PHE694  ASN695  SER759  ASP760  ASP761  ALA762  ILE779  LEU786  VAL792 
 PHE793  MET794  SER795  GLU796  ALA797  LYS798  CYS799  TRP800  GLU811  SER814 

> <Gold.Protein.RotatedAtoms>
  150.9750  134.9116  159.7810 H   0  0  0  0  0  0  0  0  0  0  0  0  # atno 6907 bound_to 6896
  152.5203  134.3489  159.9254 H   0  0  0  0  0  0  0  0  0  0  0  0  # atno 6908 bound_to 6896
  151.3497  133.3889  159.2713 H   0  0  0  0  0  0  0  0  0  0  0  0  # atno 6909 bound_to 6896
  145.8294  139.3130  143.0996 H   0  0  0  0  0  0  0  0  0  0  0  0  # atno 7974 bound_to 7965
  156.0440  140.1310  157.0124 H   0  0  0  0  0  0  0  0  0  0  0  0  # atno 8008 bound_to 7997
  154.4404  140.1024  156.6350 H   0  0  0  0  0  0  0  0  0  0  0  0  # atno 8009 bound_to 7997
  155.5623  140.3465  155.4496 H   0  0  0  0  0  0  0  0  0  0  0  0  # atno 8010 bound_to 7997
  140.6586  143.7362  150.7698 H   0  0  0  0  0  0  0  0  0  0  0  0  # atno 10167 bound_to 10162
  156.0006  130.5002  150.5682 H   0  0  0  0  0  0  0  0  0  0  0  0  # atno 10718 bound_to 10713
  154.3600  135.6118  153.5686 H   0  0  0  0  0  0  0  0  0  0  0  0  # atno 10763 bound_to 10752
  152.9794  135.5813  154.4644 H   0  0  0  0  0  0  0  0  0  0  0  0  # atno 10764 bound_to 10752
  154.4380  135.2849  155.1845 H   0  0  0  0  0  0  0  0  0  0  0  0  # atno 10765 bound_to 10752
  140.7992  134.2877  157.4985 H   0  0  0  0  0  0  0  0  0  0  0  0  # atno 11005 bound_to 11000
  145.9587  140.8852  143.0222 LP  0  0  0  0  0  0  0  0  0  0  0  0  # atno 17320 bound_to 7965
  144.6741  140.1782  143.7408 LP  0  0  0  0  0  0  0  0  0  0  0  0  # atno 17321 bound_to 7965
  140.1026  143.4773  152.2416 LP  0  0  0  0  0  0  0  0  0  0  0  0  # atno 17342 bound_to 10162
  139.5815  144.7512  151.3629 LP  0  0  0  0  0  0  0  0  0  0  0  0  # atno 17343 bound_to 10162
  157.3581  131.0745  151.1659 LP  0  0  0  0  0  0  0  0  0  0  0  0  # atno 17370 bound_to 10713
  157.2452  130.6588  149.5907 LP  0  0  0  0  0  0  0  0  0  0  0  0  # atno 17371 bound_to 10713
  139.8723  134.9419  156.3811 LP  0  0  0  0  0  0  0  0  0  0  0  0  # atno 17394 bound_to 11000
  140.9312  133.7578  156.0027 LP  0  0  0  0  0  0  0  0  0  0  0  0  # atno 17395 bound_to 11000

$$$$
