AV-unprocessed.smi:1029|AV-procd|sdf|4477|dock4
  -GOLD-   22720 2453D 1   1.00000     0.00000
 Structure written by MMmdl.
 46 47  0  0  0  0  0  0  0  0  2 V2000
  152.3536  141.3934  159.0523 C   0  0  0  0  0  0  0  0  0  0  0  0
  151.9307  140.8635  157.7142 C   0  0  0  0  0  0  0  0  0  0  0  0
  150.7217  141.1139  157.0073 C   0  0  0  0  0  0  0  0  0  0  0  0
  150.8816  140.3777  155.8638 C   0  0  0  0  0  0  0  0  0  0  0  0
  150.0219  140.2396  154.8208 N   0  0  0  0  0  0  0  0  0  0  0  0
  148.6805  140.3322  154.8147 C   0  0  0  0  0  0  0  0  0  0  0  0
  147.9756  140.5838  155.7923 O   0  0  0  0  0  0  0  0  0  0  0  0
  148.1861  140.1173  153.5872 N   0  0  0  0  0  0  0  0  0  0  0  0
  146.7699  140.1478  153.2368 C   0  0  0  0  0  0  0  0  0  0  0  0
  146.3348  138.8768  152.4790 C   0  0  1  0  0  0  0  0  0  0  0  0
  147.2102  138.6825  151.3848 O   0  0  0  0  0  0  0  0  0  0  0  0
  146.4323  137.6237  153.3738 C   0  0  0  0  0  0  0  0  0  0  0  0
  146.1356  136.3675  152.6370 N   0  3  2  0  0  0  0  0  0  0  0  0
  145.0803  136.5251  151.6009 C   0  0  0  0  0  0  0  0  0  0  0  0
  144.9051  135.2330  150.7827 C   0  0  0  0  0  0  0  0  0  0  0  0
  144.6106  134.0129  151.6741 C   0  0  2  0  0  0  0  0  0  0  0  0
  143.1777  134.0158  152.2352 C   0  0  0  0  0  0  0  0  0  0  0  0
  145.6808  133.9157  152.7760 C   0  0  0  0  0  0  0  0  0  0  0  0
  145.8395  135.2354  153.5522 C   0  0  0  0  0  0  0  0  0  0  0  0
  152.0713  139.7289  155.8594 O   0  0  0  0  0  0  0  0  0  0  0  0
  152.7364  140.0492  157.0487 N   0  0  0  0  0  0  0  0  0  0  0  0
  151.6129  142.0856  159.4532 H   0  0  0  0  0  0  0  0  0  0  0  0
  153.3020  141.9266  158.9825 H   0  0  0  0  0  0  0  0  0  0  0  0
  152.4765  140.5851  159.7733 H   0  0  0  0  0  0  0  0  0  0  0  0
  149.8893  141.7317  157.3082 H   0  0  0  0  0  0  0  0  0  0  0  0
  150.4579  140.0437  153.9318 H   0  0  0  0  0  0  0  0  0  0  0  0
  148.8364  139.9218  152.8401 H   0  0  0  0  0  0  0  0  0  0  0  0
  146.1416  140.3303  154.1111 H   0  0  0  0  0  0  0  0  0  0  0  0
  146.6420  141.0159  152.5897 H   0  0  0  0  0  0  0  0  0  0  0  0
  145.3174  139.0021  152.1092 H   0  0  0  0  0  0  0  0  0  0  0  0
  147.9159  139.3086  151.4452 H   0  0  0  0  0  0  0  0  0  0  0  0
  147.4392  137.5776  153.7923 H   0  0  0  0  0  0  0  0  0  0  0  0
  145.7554  137.7053  154.2257 H   0  0  0  0  0  0  0  0  0  0  0  0
  144.1392  136.8066  152.0750 H   0  0  0  0  0  0  0  0  0  0  0  0
  145.3374  137.3343  150.9189 H   0  0  0  0  0  0  0  0  0  0  0  0
  144.1127  135.3616  150.0445 H   0  0  0  0  0  0  0  0  0  0  0  0
  145.8183  135.0482  150.2151 H   0  0  0  0  0  0  0  0  0  0  0  0
  144.6958  133.1213  151.0513 H   0  0  0  0  0  0  0  0  0  0  0  0
  142.9880  134.8741  152.8790 H   0  0  0  0  0  0  0  0  0  0  0  0
  142.9873  133.1165  152.8216 H   0  0  0  0  0  0  0  0  0  0  0  0
  142.4435  134.0405  151.4294 H   0  0  0  0  0  0  0  0  0  0  0  0
  145.4433  133.1026  153.4630 H   0  0  0  0  0  0  0  0  0  0  0  0
  146.6378  133.6557  152.3217 H   0  0  0  0  0  0  0  0  0  0  0  0
  146.6515  135.1243  154.2720 H   0  0  0  0  0  0  0  0  0  0  0  0
  144.9388  135.4541  154.1274 H   0  0  0  0  0  0  0  0  0  0  0  0
  146.9877  136.1202  152.1536 H   0  0  0  0  0  0  0  0  0  0  0  0
  1  2  1  0  0  0  0
  1 22  1  0  0  0  0
  1 23  1  0  0  0  0
  1 24  1  0  0  0  0
  2 21  2  0  0  0  0
  2  3  1  0  0  0  0
  3  4  2  0  0  0  0
  3 25  1  0  0  0  0
  4  5  1  0  0  0  0
  4 20  1  0  0  0  0
  5  6  1  0  0  0  0
  5 26  1  0  0  0  0
  6  7  2  0  0  0  0
  6  8  1  0  0  0  0
  8  9  1  0  0  0  0
  8 27  1  0  0  0  0
  9 10  1  0  0  0  0
  9 28  1  0  0  0  0
  9 29  1  0  0  0  0
 10 11  1  0  0  0  0
 10 12  1  0  0  0  0
 10 30  1  0  0  0  0
 11 31  1  0  0  0  0
 12 13  1  0  0  0  0
 12 32  1  0  0  0  0
 12 33  1  0  0  0  0
 13 19  1  0  0  0  0
 13 14  1  0  0  0  0
 13 46  1  0  0  0  0
 14 15  1  0  0  0  0
 14 34  1  0  0  0  0
 14 35  1  0  0  0  0
 15 16  1  0  0  0  0
 15 36  1  0  0  0  0
 15 37  1  0  0  0  0
 16 17  1  0  0  0  0
 16 18  1  0  0  0  0
 16 38  1  0  0  0  0
 17 39  1  0  0  0  0
 17 40  1  0  0  0  0
 17 41  1  0  0  0  0
 18 19  1  0  0  0  0
 18 42  1  0  0  0  0
 18 43  1  0  0  0  0
 19 44  1  0  0  0  0
 19 45  1  0  0  0  0
 20 21  1  0  0  0  0
M  CHG  1  13   1
M  END
> <s_m_source_file>
AV-unprocessed.smi

> <i_m_source_file_index>
1029

> <i_lp_mmshare_version>
43012

> <i_f3d_flags>
0

> <s_epik_input>
W0NIM11jMVtjSF1jKG9uMSlbTkhdQyg9TylbTkhdW0NIMl1bQ0BIXShbT0hdKVtDSDJdTjJbQ0gyXVtDSDJdW0NIXShbQ0gzXSlbQ0gyXVtDSDJdMg==

> <s_epik_cmdline>
J2VwaWtfcHl0aG9uJywgJy1waCcsICc3LjAnLCAnLXRuJywgJzgnLCAnLW1hJywgJzIwMCcsICctbWV0YWxfYmluZGluZycsICctaW1hZScsICc8aW5maWxlLm1hZT4nLCAnLW9tYWUnLCAnPG91dGZpbGUubWFlPic=

> <r_lp_tautomer_probability>
1

> <r_epik_Ionization_Penalty>
0.00211787

> <r_epik_Ionization_Penalty_Charging>
0.00153238

> <r_epik_Ionization_Penalty_Neutral>
0.000585488

> <r_epik_State_Penalty>
-0

> <r_epik_Charging_Adjusted_Penalty>
0.00153238

> <i_epik_Tot_Q>
1

> <i_epik_Tot_abs_Q>
1

> <r_epik_Metal_State_Penalty>
-0

> <b_epik_Metal_Only>
0

> <s_lp_Force_Field>
OPLS_2005

> <r_lp_Energy>
22.6481

> <b_lp_Chiralities_Consistent>
1

> <s_lp_Variant>
AV-unprocessed.smi:1029-4

> <Gold.Version>
5.8.1

> <Gold.Id.Protein>
6NUR|6NUR_protein|mol2

> <Gold.PLP.Fitness>
49.0246

> <Gold.PLP.PLP>
-32.6170

> <Gold.PLP.part.hbond>
-6.3551

> <Gold.PLP.part.metal>
0.0000

> <Gold.PLP.part.buried>
-1.6229

> <Gold.PLP.part.nonpolar>
-25.1307

> <Gold.PLP.part.repulsive>
0.2725

> <Gold.PLP.ligand.clash>
0.0000

> <Gold.PLP.ligand.torsion>
0.4318

> <Gold.PLP.Chemscore.Hbond>
5.7440

> <Gold.PLP.Chemscore.CHOScore>
0.0000

> <Gold.PLP.Chemscore.Metal>
0.0000

> <Gold.Chemscore.Hbonds>
donor molecule, donor type, donor heavy atom, donor atom, acceptor molecule, acceptor atom, score
      L1  H     8    27       P1  7957  1.00
      L1  H    11    31       P1  7957  1.00
      L1  H    13    46       P1  7948  2.00
      P1  H  7954  7966       L1    11  0.35
      P1  H  7997  8009       L1    21  0.85

> <Gold.PLP.Chemscore.Internal.Correction>
0.0392

> <Gold.Rescore>
     Score         DG    S(hbond)    S(metal)    S(lipo)     H(rot)  DE(clash)    DE(int)     intcor
     16.95     -18.72       3.60        0.00      64.42       2.46       0.53       1.24       ----

> <Gold.Chemscore.Fitness>
16.9519

> <Gold.Chemscore.DG>
-18.7239

> <Gold.Chemscore.ZeroCoef>
-5.4800

> <Gold.Chemscore.Hbond>
3.5959

> <Gold.Chemscore.Metal>
0.0000

> <Gold.Chemscore.Lipo>
64.4217

> <Gold.Chemscore.Internal_Hbond>
0.0000

> <Gold.Chemscore.DEClash>
0.5283

> <Gold.Chemscore.DEInternal>
1.2438

> <Gold.Chemscore.Rot>
2.4624

> <Gold.Chemscore.Internal.Correction>
   9.000000E+99

> <Gold.Chemscore.Hbonds>
donor molecule, donor type, donor heavy atom, donor atom, acceptor molecule, acceptor atom, score
      L1  H     8    27       P1  7957  0.99
      L1  H    11    31       P1  7957  0.92
      L1  H    13    46       P1  7948  0.96
      P1  H  7954  7966       L1    11  0.01
      P1  H  7997  8009       L1    21  0.73

> <Gold.Chemscore.Hbond.Weighted>
-12.0103

> <Gold.Chemscore.Metal.Weighted>
-0.0000

> <Gold.Chemscore.Lipo.Weighted>
-7.5373

> <Gold.Chemscore.Internal_Hbond.Weighted>
0.0000

> <Gold.Chemscore.DEClash.Weighted>
0.5283

> <Gold.Chemscore.DEInternal.Weighted>
1.2438

> <Gold.Chemscore.Rot.Weighted>
6.3037

> <Gold.Chemscore.Internal.Correction.Weighted>
   9.000000E+99

> <Gold.Protein.RotatedTorsions>
[ 6907 6896 6895 6894 ] final  -19.09 input  -60.11 | X-H torsion
[ 7974 7965 7964 7962 ] final  -49.47 input  175.53 | X-H torsion
[ 8008 7997 7996 7995 ] final  161.33 input   59.86 | X-H torsion
[ 10167 10162 10161 10158 ] final  -87.59 input  -65.29 | X-H torsion
[ 10718 10713 10712 10709 ] final   99.87 input   66.30 | X-H torsion
[ 10763 10752 10751 10750 ] final   76.20 input  -60.55 | X-H torsion
[ 11005 11000 10999 10996 ] final   36.18 input  -57.11 | X-H torsion

> <Gold.Protein.ActiveResidues>
 VAL166  LYS551  ARG553  GLY616  TRP617  ASP618  TYR619  PRO620  LYS621  CYS622 
 ASP623  PHE694  ASN695  SER759  ASP760  ASP761  ALA762  ILE779  LEU786  VAL792 
 PHE793  MET794  SER795  GLU796  ALA797  LYS798  CYS799  TRP800  GLU811  SER814 

> <Gold.Protein.RotatedAtoms>
  151.2683  135.0676  159.9124 H   0  0  0  0  0  0  0  0  0  0  0  0  # atno 6907 bound_to 6896
  152.5355  134.0157  159.7969 H   0  0  0  0  0  0  0  0  0  0  0  0  # atno 6908 bound_to 6896
  151.0391  133.5672  159.2684 H   0  0  0  0  0  0  0  0  0  0  0  0  # atno 6909 bound_to 6896
  145.9402  140.7669  142.9556 H   0  0  0  0  0  0  0  0  0  0  0  0  # atno 7974 bound_to 7965
  156.2111  140.1780  156.7694 H   0  0  0  0  0  0  0  0  0  0  0  0  # atno 8008 bound_to 7997
  154.5723  140.0680  156.9012 H   0  0  0  0  0  0  0  0  0  0  0  0  # atno 8009 bound_to 7997
  155.2650  140.3338  155.4272 H   0  0  0  0  0  0  0  0  0  0  0  0  # atno 8010 bound_to 7997
  140.3830  143.2740  151.9360 H   0  0  0  0  0  0  0  0  0  0  0  0  # atno 10167 bound_to 10162
  157.6867  131.0682  150.5014 H   0  0  0  0  0  0  0  0  0  0  0  0  # atno 10718 bound_to 10713
  153.0709  135.4960  154.8302 H   0  0  0  0  0  0  0  0  0  0  0  0  # atno 10763 bound_to 10752
  154.7020  135.3003  154.9328 H   0  0  0  0  0  0  0  0  0  0  0  0  # atno 10764 bound_to 10752
  154.0049  135.6761  153.4814 H   0  0  0  0  0  0  0  0  0  0  0  0  # atno 10765 bound_to 10752
  140.2352  134.3480  155.7947 H   0  0  0  0  0  0  0  0  0  0  0  0  # atno 11005 bound_to 11000
  144.6778  140.2267  143.7360 LP  0  0  0  0  0  0  0  0  0  0  0  0  # atno 17320 bound_to 7965
  145.8310  139.2086  143.1883 LP  0  0  0  0  0  0  0  0  0  0  0  0  # atno 17321 bound_to 7965
  139.4794  144.5800  151.7947 LP  0  0  0  0  0  0  0  0  0  0  0  0  # atno 17342 bound_to 10162
  140.4918  144.1299  150.5952 LP  0  0  0  0  0  0  0  0  0  0  0  0  # atno 17343 bound_to 10162
  156.5335  130.4190  149.6189 LP  0  0  0  0  0  0  0  0  0  0  0  0  # atno 17370 bound_to 10713
  156.3048  130.7196  151.2076 LP  0  0  0  0  0  0  0  0  0  0  0  0  # atno 17371 bound_to 10713
  141.2215  133.7268  156.8796 LP  0  0  0  0  0  0  0  0  0  0  0  0  # atno 17394 bound_to 11000
  140.1709  134.9100  157.2832 LP  0  0  0  0  0  0  0  0  0  0  0  0  # atno 17395 bound_to 11000

$$$$
