AV-unprocessed.smi:1958|AV-procd|sdf|7908|dock3
  -GOLD-   2272010 63D 1   1.00000     0.00000
 Structure written by MMmdl.
 48 49  0  0  0  0  0  0  0  0  2 V2000
  151.2972  140.6900  155.7101 C   0  0  0  0  0  0  0  0  0  0  0  0
  150.9863  139.8767  154.5925 O   0  0  0  0  0  0  0  0  0  0  0  0
  150.2965  138.6934  154.9571 C   0  0  0  0  0  0  0  0  0  0  0  0
  151.2356  137.4931  154.7658 C   0  0  0  0  0  0  0  0  0  0  0  0
  150.6745  136.2724  155.3533 N   0  0  0  0  0  0  0  0  0  0  0  0
  149.4521  135.8997  154.8196 N   0  0  0  0  0  0  0  0  0  0  0  0
  148.8481  134.8416  155.2556 C   0  0  0  0  0  0  0  0  0  0  0  0
  147.5315  134.4092  154.7097 C   0  0  0  0  0  0  0  0  0  0  0  0
  146.7444  133.7268  155.3676 O   0  0  0  0  0  0  0  0  0  0  0  0
  147.2656  134.8168  153.4568 N   0  0  0  0  0  0  0  0  0  0  0  0
  146.0341  134.5225  152.7336 C   0  0  0  0  0  0  0  0  0  0  0  0
  146.0855  135.0093  151.2607 C   0  0  2  0  0  0  0  0  0  0  0  0
  145.2962  136.3314  151.1072 C   0  0  0  0  0  0  0  0  0  0  0  0
  145.5905  133.9874  150.2788 N   0  3  0  0  0  0  0  0  0  0  0  0
  146.3450  132.7057  150.3522 C   0  0  0  0  0  0  0  0  0  0  0  0
  145.8596  131.7096  149.2863 C   0  0  0  0  0  0  0  0  0  0  0  0
  144.4706  131.4736  149.4574 O   0  0  0  0  0  0  0  0  0  0  0  0
  143.7184  132.6636  149.2788 C   0  0  0  0  0  0  0  0  0  0  0  0
  144.1282  133.7065  150.3331 C   0  0  0  0  0  0  0  0  0  0  0  0
  149.4360  134.0285  156.3065 C   0  0  0  0  0  0  0  0  0  0  0  0
  150.6254  134.4089  156.8223 C   0  0  0  0  0  0  0  0  0  0  0  0
  151.3270  135.6045  156.3520 C   0  0  0  0  0  0  0  0  0  0  0  0
  152.4039  135.9786  156.8151 O   0  0  0  0  0  0  0  0  0  0  0  0
  151.8227  141.5852  155.3775 H   0  0  0  0  0  0  0  0  0  0  0  0
  151.9429  140.1631  156.4137 H   0  0  0  0  0  0  0  0  0  0  0  0
  150.3929  141.0052  156.2323 H   0  0  0  0  0  0  0  0  0  0  0  0
  149.9685  138.7585  155.9958 H   0  0  0  0  0  0  0  0  0  0  0  0
  149.4065  138.5759  154.3365 H   0  0  0  0  0  0  0  0  0  0  0  0
  151.4167  137.3419  153.7001 H   0  0  0  0  0  0  0  0  0  0  0  0
  152.2141  137.7109  155.1974 H   0  0  0  0  0  0  0  0  0  0  0  0
  147.9621  135.3718  152.9800 H   0  0  0  0  0  0  0  0  0  0  0  0
  145.9040  133.4412  152.7853 H   0  0  0  0  0  0  0  0  0  0  0  0
  145.1886  134.9812  153.2497 H   0  0  0  0  0  0  0  0  0  0  0  0
  147.1330  135.2080  151.0281 H   0  0  0  0  0  0  0  0  0  0  0  0
  145.6368  137.0950  151.8061 H   0  0  0  0  0  0  0  0  0  0  0  0
  144.2322  136.1756  151.2877 H   0  0  0  0  0  0  0  0  0  0  0  0
  145.4034  136.7737  150.1187 H   0  0  0  0  0  0  0  0  0  0  0  0
  147.4108  132.8656  150.2032 H   0  0  0  0  0  0  0  0  0  0  0  0
  146.2256  132.2688  151.3448 H   0  0  0  0  0  0  0  0  0  0  0  0
  146.0612  132.0815  148.2804 H   0  0  0  0  0  0  0  0  0  0  0  0
  146.3915  130.7635  149.3877 H   0  0  0  0  0  0  0  0  0  0  0  0
  143.8628  133.0526  148.2695 H   0  0  0  0  0  0  0  0  0  0  0  0
  142.6587  132.4275  149.3780 H   0  0  0  0  0  0  0  0  0  0  0  0
  143.8584  133.3572  151.3310 H   0  0  0  0  0  0  0  0  0  0  0  0
  143.5506  134.6080  150.1319 H   0  0  0  0  0  0  0  0  0  0  0  0
  148.9403  133.1413  156.6731 H   0  0  0  0  0  0  0  0  0  0  0  0
  151.0738  133.8145  157.6048 H   0  0  0  0  0  0  0  0  0  0  0  0
  145.7597  134.3743  149.3612 H   0  0  0  0  0  0  0  0  0  0  0  0
  1  2  1  0  0  0  0
  1 24  1  0  0  0  0
  1 25  1  0  0  0  0
  1 26  1  0  0  0  0
  2  3  1  0  0  0  0
  3  4  1  0  0  0  0
  3 27  1  0  0  0  0
  3 28  1  0  0  0  0
  4  5  1  0  0  0  0
  4 29  1  0  0  0  0
  4 30  1  0  0  0  0
  5 22  1  0  0  0  0
  5  6  1  0  0  0  0
  6  7  2  0  0  0  0
  7  8  1  0  0  0  0
  7 20  1  0  0  0  0
  8  9  2  0  0  0  0
  8 10  1  0  0  0  0
 10 11  1  0  0  0  0
 10 31  1  0  0  0  0
 11 12  1  0  0  0  0
 11 32  1  0  0  0  0
 11 33  1  0  0  0  0
 12 13  1  0  0  0  0
 12 14  1  0  0  0  0
 12 34  1  0  0  0  0
 13 35  1  0  0  0  0
 13 36  1  0  0  0  0
 13 37  1  0  0  0  0
 14 19  1  0  0  0  0
 14 15  1  0  0  0  0
 14 48  1  0  0  0  0
 15 16  1  0  0  0  0
 15 38  1  0  0  0  0
 15 39  1  0  0  0  0
 16 17  1  0  0  0  0
 16 40  1  0  0  0  0
 16 41  1  0  0  0  0
 17 18  1  0  0  0  0
 18 19  1  0  0  0  0
 18 42  1  0  0  0  0
 18 43  1  0  0  0  0
 19 44  1  0  0  0  0
 19 45  1  0  0  0  0
 20 21  2  0  0  0  0
 20 46  1  0  0  0  0
 21 22  1  0  0  0  0
 21 47  1  0  0  0  0
 22 23  2  0  0  0  0
M  CHG  1  14   1
M  END
> <s_m_source_file>
AV-unprocessed.smi

> <i_m_source_file_index>
1958

> <i_lp_mmshare_version>
43012

> <i_f3d_flags>
0

> <s_epik_input>
W0NIM11PW0NIMl1bQ0gyXW4xbmMoW2NIXVtjSF1jMT1PKUMoPU8pW05IXVtDSDJdW0NASF0oW0NIM10pTjJbQ0gyXVtDSDJdT1tDSDJdW0NIMl0y

> <s_epik_cmdline>
J2VwaWtfcHl0aG9uJywgJy1waCcsICc3LjAnLCAnLXRuJywgJzgnLCAnLW1hJywgJzIwMCcsICctbWV0YWxfYmluZGluZycsICctaW1hZScsICc8aW5maWxlLm1hZT4nLCAnLW9tYWUnLCAnPG91dGZpbGUubWFlPic=

> <r_lp_tautomer_probability>
1

> <r_epik_Ionization_Penalty>
0.724355

> <r_epik_Ionization_Penalty_Charging>
0.724348

> <r_epik_Ionization_Penalty_Neutral>
6.31911e-06

> <r_epik_State_Penalty>
0.749058

> <r_epik_Charging_Adjusted_Penalty>
1.47341

> <i_epik_Tot_Q>
1

> <i_epik_Tot_abs_Q>
1

> <r_epik_Metal_State_Penalty>
0.750821

> <b_epik_Metal_Only>
0

> <s_lp_Force_Field>
OPLS_2005

> <r_lp_Energy>
41.4704

> <b_lp_Chiralities_Consistent>
1

> <s_lp_Variant>
AV-unprocessed.smi:1958-3

> <Gold.Version>
5.8.1

> <Gold.Id.Protein>
6NUR|6NUR_protein|mol2

> <Gold.PLP.Fitness>
44.2426

> <Gold.PLP.PLP>
-33.5037

> <Gold.PLP.part.hbond>
-5.0000

> <Gold.PLP.part.metal>
0.0000

> <Gold.PLP.part.buried>
0.5228

> <Gold.PLP.part.nonpolar>
-31.3826

> <Gold.PLP.part.repulsive>
1.3778

> <Gold.PLP.ligand.clash>
0.0000

> <Gold.PLP.ligand.torsion>
1.3140

> <Gold.PLP.Chemscore.Hbond>
4.3840

> <Gold.PLP.Chemscore.CHOScore>
0.0000

> <Gold.PLP.Chemscore.Metal>
0.0000

> <Gold.Chemscore.Hbonds>
donor molecule, donor type, donor heavy atom, donor atom, acceptor molecule, acceptor atom, score
      L1  H    10    31       P1  7948  1.00
      L1  H    14    48       P1  7921  1.00
      P1  H  7989  7998       L1     2  0.80
      P1  H 10752 10764       L1    23  1.00
      P1  H 10785 10796       L1    17  0.42

> <Gold.PLP.Chemscore.Internal.Correction>
0.2148

> <Gold.Rescore>
     Score         DG    S(hbond)    S(metal)    S(lipo)     H(rot)  DE(clash)    DE(int)     intcor
     19.65     -22.61       3.73        0.00      86.47       2.12       1.58       1.39       ----

> <Gold.Chemscore.Fitness>
19.6505

> <Gold.Chemscore.DG>
-22.6130

> <Gold.Chemscore.ZeroCoef>
-5.4800

> <Gold.Chemscore.Hbond>
3.7270

> <Gold.Chemscore.Metal>
0.0000

> <Gold.Chemscore.Lipo>
86.4719

> <Gold.Chemscore.Internal_Hbond>
0.0000

> <Gold.Chemscore.DEClash>
1.5769

> <Gold.Chemscore.DEInternal>
1.3857

> <Gold.Chemscore.Rot>
2.1221

> <Gold.Chemscore.Internal.Correction>
   9.000000E+99

> <Gold.Chemscore.Hbonds>
donor molecule, donor type, donor heavy atom, donor atom, acceptor molecule, acceptor atom, score
      L1  H    10    31       P1  7948  1.00
      L1  H    14    48       P1  7921  0.74
      P1  H  7989  7998       L1     2  0.12
      P1  H 10752 10764       L1    23  0.24
      P1  H 10785 10796       L1    17  0.12

> <Gold.Chemscore.Hbond.Weighted>
-12.4483

> <Gold.Chemscore.Metal.Weighted>
-0.0000

> <Gold.Chemscore.Lipo.Weighted>
-10.1172

> <Gold.Chemscore.Internal_Hbond.Weighted>
0.0000

> <Gold.Chemscore.DEClash.Weighted>
1.5769

> <Gold.Chemscore.DEInternal.Weighted>
1.3857

> <Gold.Chemscore.Rot.Weighted>
5.4325

> <Gold.Chemscore.Internal.Correction.Weighted>
   9.000000E+99

> <Gold.Protein.RotatedTorsions>
[ 6907 6896 6895 6894 ] final  -77.57 input  -60.11 | X-H torsion
[ 7974 7965 7964 7962 ] final   64.12 input  175.53 | X-H torsion
[ 8008 7997 7996 7995 ] final  172.38 input   59.86 | X-H torsion
[ 10167 10162 10161 10158 ] final  135.71 input  -65.29 | X-H torsion
[ 10718 10713 10712 10709 ] final  144.17 input   66.30 | X-H torsion
[ 10763 10752 10751 10750 ] final    5.78 input  -60.55 | X-H torsion
[ 11005 11000 10999 10996 ] final   44.63 input  -57.11 | X-H torsion

> <Gold.Protein.ActiveResidues>
 VAL166  LYS551  ARG553  GLY616  TRP617  ASP618  TYR619  PRO620  LYS621  CYS622 
 ASP623  PHE694  ASN695  SER759  ASP760  ASP761  ALA762  ILE779  LEU786  VAL792 
 PHE793  MET794  SER795  GLU796  ALA797  LYS798  CYS799  TRP800  GLU811  SER814 

> <Gold.Protein.RotatedAtoms>
  150.6995  134.4402  159.5288 H   0  0  0  0  0  0  0  0  0  0  0  0  # atno 6907 bound_to 6896
  152.2113  134.8496  160.0506 H   0  0  0  0  0  0  0  0  0  0  0  0  # atno 6908 bound_to 6896
  151.9380  133.3595  159.3991 H   0  0  0  0  0  0  0  0  0  0  0  0  # atno 6909 bound_to 6896
  145.8539  139.3272  143.0858 H   0  0  0  0  0  0  0  0  0  0  0  0  # atno 7974 bound_to 7965
  156.1180  140.1487  156.9246 H   0  0  0  0  0  0  0  0  0  0  0  0  # atno 8008 bound_to 7997
  154.4814  140.0878  156.7429 H   0  0  0  0  0  0  0  0  0  0  0  0  # atno 8009 bound_to 7997
  155.4480  140.3433  155.4299 H   0  0  0  0  0  0  0  0  0  0  0  0  # atno 8010 bound_to 7997
  139.5207  144.6502  151.5323 H   0  0  0  0  0  0  0  0  0  0  0  0  # atno 10167 bound_to 10162
  157.3603  131.0964  151.0921 H   0  0  0  0  0  0  0  0  0  0  0  0  # atno 10718 bound_to 10713
  153.2554  135.6918  153.7634 H   0  0  0  0  0  0  0  0  0  0  0  0  # atno 10763 bound_to 10752
  153.6713  135.3344  155.3155 H   0  0  0  0  0  0  0  0  0  0  0  0  # atno 10764 bound_to 10752
  154.8410  135.4500  154.1526 H   0  0  0  0  0  0  0  0  0  0  0  0  # atno 10765 bound_to 10752
  140.1534  134.4433  155.8366 H   0  0  0  0  0  0  0  0  0  0  0  0  # atno 11005 bound_to 11000
  145.9325  140.9038  143.0349 LP  0  0  0  0  0  0  0  0  0  0  0  0  # atno 17320 bound_to 7965
  144.6728  140.1438  143.7435 LP  0  0  0  0  0  0  0  0  0  0  0  0  # atno 17321 bound_to 7965
  140.6304  143.9086  150.6601 LP  0  0  0  0  0  0  0  0  0  0  0  0  # atno 17342 bound_to 10162
  140.2389  143.3679  152.1503 LP  0  0  0  0  0  0  0  0  0  0  0  0  # atno 17343 bound_to 10162
  157.2064  130.6418  149.5757 LP  0  0  0  0  0  0  0  0  0  0  0  0  # atno 17370 bound_to 10713
  155.9736  130.4674  150.6324 LP  0  0  0  0  0  0  0  0  0  0  0  0  # atno 17371 bound_to 10713
  141.2201  133.6882  156.7463 LP  0  0  0  0  0  0  0  0  0  0  0  0  # atno 17394 bound_to 11000
  140.2577  134.8491  157.3728 LP  0  0  0  0  0  0  0  0  0  0  0  0  # atno 17395 bound_to 11000

$$$$
