AV-unprocessed.smi:2237|AV-procd|sdf|9049|dock4
  -GOLD-   2272012253D 1   1.00000     0.00000
 Structure written by MMmdl.
 55 57  0  0  0  0  0  0  0  0  3 V2000
  152.0178  143.7293  162.8082 C   0  0  0  0  0  0  0  0  0  0  0  0
  151.7979  143.5703  161.3184 C   0  0  0  0  0  0  0  0  0  0  0  0
  151.5021  144.6825  160.5059 C   0  0  0  0  0  0  0  0  0  0  0  0
  151.3042  144.4646  159.1307 C   0  0  0  0  0  0  0  0  0  0  0  0
  151.4107  143.1537  158.6278 C   0  0  0  0  0  0  0  0  0  0  0  0
  151.7113  142.0928  159.5113 C   0  0  0  0  0  0  0  0  0  0  0  0
  151.7988  140.8112  158.9055 N   0  0  0  0  0  0  0  0  0  0  0  0
  151.1712  140.3700  157.8011 C   0  0  0  0  0  0  0  0  0  0  0  0
  150.4005  141.0314  157.1049 O   0  0  0  0  0  0  0  0  0  0  0  0
  151.4924  139.0949  157.5357 N   0  0  0  0  0  0  0  0  0  0  0  0
  150.9767  138.3158  156.4139 C   0  0  2  0  0  0  0  0  0  0  0  0
  151.0964  139.1319  155.1149 C   0  0  0  0  0  0  0  0  0  0  0  0
  150.4552  138.3790  153.9351 C   0  0  0  0  0  0  0  0  0  0  0  0
  149.0168  138.0790  154.1884 N   0  3  2  0  0  0  0  0  0  0  0  0
  148.0764  139.2533  154.1494 C   0  0  2  0  0  0  0  0  0  0  0  0
  146.8733  139.0799  155.1078 C   0  0  0  0  0  0  0  0  0  0  0  0
  145.8992  137.9901  154.6217 C   0  0  0  0  0  0  0  0  0  0  0  0
  145.4006  138.2891  153.2562 N   0  3  2  0  0  0  0  0  0  0  0  0
  144.3933  137.3091  152.7954 C   0  0  0  0  0  0  0  0  0  0  0  0
  146.5057  138.4654  152.2820 C   0  0  0  0  0  0  0  0  0  0  0  0
  147.4839  139.5585  152.7510 C   0  0  0  0  0  0  0  0  0  0  0  0
  148.8992  137.2300  155.4097 C   0  0  0  0  0  0  0  0  0  0  0  0
  149.5099  137.9055  156.6550 C   0  0  0  0  0  0  0  0  0  0  0  0
  151.8995  142.3128  160.8364 N   0  0  0  0  0  0  0  0  0  0  0  0
  152.0428  144.7810  163.0945 H   0  0  0  0  0  0  0  0  0  0  0  0
  152.9633  143.2742  163.1051 H   0  0  0  0  0  0  0  0  0  0  0  0
  151.2139  143.2434  163.3620 H   0  0  0  0  0  0  0  0  0  0  0  0
  151.4267  145.6763  160.9222 H   0  0  0  0  0  0  0  0  0  0  0  0
  151.0743  145.2883  158.4713 H   0  0  0  0  0  0  0  0  0  0  0  0
  151.2615  142.9700  157.5737 H   0  0  0  0  0  0  0  0  0  0  0  0
  152.4087  140.1546  159.3693 H   0  0  0  0  0  0  0  0  0  0  0  0
  152.1325  138.6277  158.1612 H   0  0  0  0  0  0  0  0  0  0  0  0
  151.5796  137.4124  156.3012 H   0  0  0  0  0  0  0  0  0  0  0  0
  150.6238  140.1074  155.2356 H   0  0  0  0  0  0  0  0  0  0  0  0
  152.1473  139.3261  154.8971 H   0  0  0  0  0  0  0  0  0  0  0  0
  150.6072  138.9092  152.9972 H   0  0  0  0  0  0  0  0  0  0  0  0
  150.9780  137.4313  153.7973 H   0  0  0  0  0  0  0  0  0  0  0  0
  148.6325  140.1382  154.4573 H   0  0  0  0  0  0  0  0  0  0  0  0
  147.1823  138.8784  156.1314 H   0  0  0  0  0  0  0  0  0  0  0  0
  146.3322  140.0258  155.1647 H   0  0  0  0  0  0  0  0  0  0  0  0
  146.3864  137.0139  154.6309 H   0  0  0  0  0  0  0  0  0  0  0  0
  145.0540  137.9273  155.3083 H   0  0  0  0  0  0  0  0  0  0  0  0
  144.8266  136.3118  152.7083 H   0  0  0  0  0  0  0  0  0  0  0  0
  143.9947  137.5946  151.8212 H   0  0  0  0  0  0  0  0  0  0  0  0
  143.5571  137.2591  153.4937 H   0  0  0  0  0  0  0  0  0  0  0  0
  147.0283  137.5179  152.1427 H   0  0  0  0  0  0  0  0  0  0  0  0
  146.0909  138.7425  151.3121 H   0  0  0  0  0  0  0  0  0  0  0  0
  146.9383  140.5019  152.8057 H   0  0  0  0  0  0  0  0  0  0  0  0
  148.2557  139.7403  152.0047 H   0  0  0  0  0  0  0  0  0  0  0  0
  147.8711  136.9352  155.6064 H   0  0  0  0  0  0  0  0  0  0  0  0
  149.4291  136.2949  155.2222 H   0  0  0  0  0  0  0  0  0  0  0  0
  149.4516  137.2191  157.5007 H   0  0  0  0  0  0  0  0  0  0  0  0
  148.9183  138.7762  156.9386 H   0  0  0  0  0  0  0  0  0  0  0  0
  148.7327  137.4909  153.4180 H   0  0  0  0  0  0  0  0  0  0  0  0
  144.9242  139.1784  153.3129 H   0  0  0  0  0  0  0  0  0  0  0  0
  1  2  1  0  0  0  0
  1 25  1  0  0  0  0
  1 26  1  0  0  0  0
  1 27  1  0  0  0  0
  2 24  1  0  0  0  0
  2  3  2  0  0  0  0
  3  4  1  0  0  0  0
  3 28  1  0  0  0  0
  4  5  2  0  0  0  0
  4 29  1  0  0  0  0
  5  6  1  0  0  0  0
  5 30  1  0  0  0  0
  6  7  1  0  0  0  0
  6 24  2  0  0  0  0
  7  8  1  0  0  0  0
  7 31  1  0  0  0  0
  8  9  2  0  0  0  0
  8 10  1  0  0  0  0
 10 11  1  0  0  0  0
 10 32  1  0  0  0  0
 11 23  1  0  0  0  0
 11 12  1  0  0  0  0
 11 33  1  0  0  0  0
 12 13  1  0  0  0  0
 12 34  1  0  0  0  0
 12 35  1  0  0  0  0
 13 14  1  0  0  0  0
 13 36  1  0  0  0  0
 13 37  1  0  0  0  0
 14 15  1  0  0  0  0
 14 22  1  0  0  0  0
 14 54  1  0  0  0  0
 15 21  1  0  0  0  0
 15 16  1  0  0  0  0
 15 38  1  0  0  0  0
 16 17  1  0  0  0  0
 16 39  1  0  0  0  0
 16 40  1  0  0  0  0
 17 18  1  0  0  0  0
 17 41  1  0  0  0  0
 17 42  1  0  0  0  0
 18 19  1  0  0  0  0
 18 20  1  0  0  0  0
 18 55  1  0  0  0  0
 19 43  1  0  0  0  0
 19 44  1  0  0  0  0
 19 45  1  0  0  0  0
 20 21  1  0  0  0  0
 20 46  1  0  0  0  0
 20 47  1  0  0  0  0
 21 48  1  0  0  0  0
 21 49  1  0  0  0  0
 22 23  1  0  0  0  0
 22 50  1  0  0  0  0
 22 51  1  0  0  0  0
 23 52  1  0  0  0  0
 23 53  1  0  0  0  0
M  CHG  1  14   1
M  CHG  1  18   1
M  END
> <s_m_source_file>
AV-unprocessed.smi

> <i_m_source_file_index>
2237

> <i_lp_mmshare_version>
43012

> <i_f3d_flags>
0

> <s_epik_input>
W0NIM11jMVtjSF1bY0hdW2NIXWMobjEpW05IXUMoPU8pW05IXVtDSF0yW0NIMl1bQ0gyXU4oW0NIMl1bQ0gyXTIpW0NIXTNbQ0gyXVtDSDJdTihbQ0gzXSlbQ0gyXVtDSDJdMw==

> <s_epik_cmdline>
J2VwaWtfcHl0aG9uJywgJy1waCcsICc3LjAnLCAnLXRuJywgJzgnLCAnLW1hJywgJzIwMCcsICctbWV0YWxfYmluZGluZycsICctaW1hZScsICc8aW5maWxlLm1hZT4nLCAnLW9tYWUnLCAnPG91dGZpbGUubWFlPic=

> <r_epik_Ionization_Penalty>
0.180851

> <r_epik_Ionization_Penalty_Charging>
0.180787

> <r_epik_Ionization_Penalty_Neutral>
6.38624e-05

> <r_epik_State_Penalty>
0.153592

> <r_epik_Charging_Adjusted_Penalty>
0.334379

> <i_epik_Tot_Q>
2

> <i_epik_Tot_abs_Q>
2

> <r_epik_Metal_State_Penalty>
0.153595

> <b_epik_Metal_Only>
0

> <s_lp_Force_Field>
OPLS_2005

> <r_lp_Energy>
48.731

> <b_lp_Chiralities_Consistent>
1

> <s_lp_Variant>
AV-unprocessed.smi:2237-4

> <Gold.Version>
5.8.1

> <Gold.Id.Protein>
6NUR|6NUR_protein|mol2

> <Gold.PLP.Fitness>
47.5915

> <Gold.PLP.PLP>
-38.4470

> <Gold.PLP.part.hbond>
-2.0000

> <Gold.PLP.part.metal>
0.0000

> <Gold.PLP.part.buried>
-0.6575

> <Gold.PLP.part.nonpolar>
-36.3530

> <Gold.PLP.part.repulsive>
0.2491

> <Gold.PLP.ligand.clash>
0.0000

> <Gold.PLP.ligand.torsion>
1.2390

> <Gold.PLP.Chemscore.Hbond>
3.8560

> <Gold.PLP.Chemscore.CHOScore>
0.0000

> <Gold.PLP.Chemscore.Metal>
0.0000

> <Gold.Chemscore.Hbonds>
donor molecule, donor type, donor heavy atom, donor atom, acceptor molecule, acceptor atom, score
      L1  H    14    54       P1  7948  2.00
      L1  H    18    55       P1 10175  1.89
      P1  H  6933  6945       L1    24  0.02

> <Gold.PLP.Chemscore.Internal.Correction>
0.0544

> <Gold.Rescore>
     Score         DG    S(hbond)    S(metal)    S(lipo)     H(rot)  DE(clash)    DE(int)     intcor
     16.78     -22.28       1.89        0.00     116.40       1.23       1.80       3.70       ----

> <Gold.Chemscore.Fitness>
16.7814

> <Gold.Chemscore.DG>
-22.2792

> <Gold.Chemscore.ZeroCoef>
-5.4800

> <Gold.Chemscore.Hbond>
1.8947

> <Gold.Chemscore.Metal>
0.0000

> <Gold.Chemscore.Lipo>
116.3961

> <Gold.Chemscore.Internal_Hbond>
0.0000

> <Gold.Chemscore.DEClash>
1.7973

> <Gold.Chemscore.DEInternal>
3.7005

> <Gold.Chemscore.Rot>
1.2295

> <Gold.Chemscore.Internal.Correction>
   9.000000E+99

> <Gold.Chemscore.Hbonds>
donor molecule, donor type, donor heavy atom, donor atom, acceptor molecule, acceptor atom, score
      L1  H    14    54       P1  7948  0.95
      L1  H    18    55       P1 10175  0.90

> <Gold.Chemscore.Hbond.Weighted>
-6.3283

> <Gold.Chemscore.Metal.Weighted>
-0.0000

> <Gold.Chemscore.Lipo.Weighted>
-13.6183

> <Gold.Chemscore.Internal_Hbond.Weighted>
0.0000

> <Gold.Chemscore.DEClash.Weighted>
1.7973

> <Gold.Chemscore.DEInternal.Weighted>
3.7005

> <Gold.Chemscore.Rot.Weighted>
3.1474

> <Gold.Chemscore.Internal.Correction.Weighted>
   9.000000E+99

> <Gold.Protein.RotatedTorsions>
[ 6907 6896 6895 6894 ] final   31.90 input  -60.11 | X-H torsion
[ 7974 7965 7964 7962 ] final -177.67 input  175.53 | X-H torsion
[ 8008 7997 7996 7995 ] final  -24.08 input   59.86 | X-H torsion
[ 10167 10162 10161 10158 ] final  129.23 input  -65.29 | X-H torsion
[ 10718 10713 10712 10709 ] final   86.26 input   66.30 | X-H torsion
[ 10763 10752 10751 10750 ] final  -11.06 input  -60.55 | X-H torsion
[ 11005 11000 10999 10996 ] final  117.62 input  -57.11 | X-H torsion

> <Gold.Protein.ActiveResidues>
 VAL166  LYS551  ARG553  GLY616  TRP617  ASP618  TYR619  PRO620  LYS621  CYS622 
 ASP623  PHE694  ASN695  SER759  ASP760  ASP761  ALA762  ILE779  LEU786  VAL792 
 PHE793  MET794  SER795  GLU796  ALA797  LYS798  CYS799  TRP800  GLU811  SER814 

> <Gold.Protein.RotatedAtoms>
  152.0669  134.9559  160.0574 H   0  0  0  0  0  0  0  0  0  0  0  0  # atno 6907 bound_to 6896
  152.0900  133.4191  159.4548 H   0  0  0  0  0  0  0  0  0  0  0  0  # atno 6908 bound_to 6896
  150.6837  134.2802  159.4667 H   0  0  0  0  0  0  0  0  0  0  0  0  # atno 6909 bound_to 6896
  144.7128  140.0985  143.6418 H   0  0  0  0  0  0  0  0  0  0  0  0  # atno 7974 bound_to 7965
  154.4549  140.1963  156.0409 H   0  0  0  0  0  0  0  0  0  0  0  0  # atno 8008 bound_to 7997
  156.0725  140.3282  155.7566 H   0  0  0  0  0  0  0  0  0  0  0  0  # atno 8009 bound_to 7997
  155.5240  140.0572  157.2892 H   0  0  0  0  0  0  0  0  0  0  0  0  # atno 8010 bound_to 7997
  139.5488  144.6796  151.4389 H   0  0  0  0  0  0  0  0  0  0  0  0  # atno 10167 bound_to 10162
  157.6926  131.0208  150.2946 H   0  0  0  0  0  0  0  0  0  0  0  0  # atno 10718 bound_to 10713
  153.4782  135.7017  153.5953 H   0  0  0  0  0  0  0  0  0  0  0  0  # atno 10763 bound_to 10752
  153.4178  135.3833  155.2092 H   0  0  0  0  0  0  0  0  0  0  0  0  # atno 10764 bound_to 10752
  154.8722  135.3920  154.4229 H   0  0  0  0  0  0  0  0  0  0  0  0  # atno 10765 bound_to 10752
  139.9081  134.9612  156.7379 H   0  0  0  0  0  0  0  0  0  0  0  0  # atno 11005 bound_to 11000
  145.9559  139.2766  143.1184 LP  0  0  0  0  0  0  0  0  0  0  0  0  # atno 17320 bound_to 7965
  145.9273  140.9073  143.0374 LP  0  0  0  0  0  0  0  0  0  0  0  0  # atno 17321 bound_to 7965
  140.6744  143.8222  150.7040 LP  0  0  0  0  0  0  0  0  0  0  0  0  # atno 17342 bound_to 10162
  140.1656  143.4238  152.2036 LP  0  0  0  0  0  0  0  0  0  0  0  0  # atno 17343 bound_to 10162
  156.3472  130.3825  149.7359 LP  0  0  0  0  0  0  0  0  0  0  0  0  # atno 17370 bound_to 10713
  156.4849  130.8058  151.3071 LP  0  0  0  0  0  0  0  0  0  0  0  0  # atno 17371 bound_to 10713
  140.6873  133.9421  155.7945 LP  0  0  0  0  0  0  0  0  0  0  0  0  # atno 17394 bound_to 11000
  141.0467  134.0543  157.3835 LP  0  0  0  0  0  0  0  0  0  0  0  0  # atno 17395 bound_to 11000

$$$$
