AV-unprocessed.smi:287|AV-procd|sdf|2194|dock9
  -GOLD-   2262021593D 1   1.00000     0.00000
 Structure written by MMmdl.
 55 58  0  0  0  0  0  0  0  0  1 V2000
  152.0419  145.3019  158.9775 C   0  0  0  0  0  0  0  0  0  0  0  0
  152.1507  143.8205  158.8570 C   0  0  0  0  0  0  0  0  0  0  0  0
  151.5918  142.8974  158.0222 C   0  0  0  0  0  0  0  0  0  0  0  0
  152.0938  141.6176  158.4042 C   0  0  0  0  0  0  0  0  0  0  0  0
  151.7421  140.2902  157.7467 C   0  0  2  0  0  0  0  0  0  0  0  0
  152.1604  139.1285  158.6630 C   0  0  0  0  0  0  0  0  0  0  0  0
  152.4339  140.0758  156.5314 O   0  0  0  0  0  0  0  0  0  0  0  0
  150.2373  140.1874  157.4100 C   0  0  0  0  0  0  0  0  0  0  0  0
  149.8833  140.8878  156.1816 N   0  0  0  0  0  0  0  0  0  0  0  0
  148.8107  140.5167  155.4518 C   0  0  0  0  0  0  0  0  0  0  0  0
  148.0914  141.5315  154.9151 N   0  0  0  0  0  0  0  0  0  0  0  0
  147.0074  141.2722  154.1781 C   0  0  0  0  0  0  0  0  0  0  0  0
  146.4775  140.0894  153.8610 N   0  0  0  0  0  0  0  0  0  0  0  0
  147.1968  139.0628  154.3986 C   0  0  0  0  0  0  0  0  0  0  0  0
  148.3702  139.1837  155.1972 C   0  0  0  0  0  0  0  0  0  0  0  0
  148.8180  137.9126  155.5446 N   0  0  0  0  0  0  0  0  0  0  0  0
  147.9607  137.1008  154.9879 C   0  0  0  0  0  0  0  0  0  0  0  0
  146.9510  137.7139  154.2807 N   0  0  0  0  0  0  0  0  0  0  0  0
  145.8234  137.0915  153.5230 C   0  0  2  0  0  0  0  0  0  0  0  0
  145.9095  135.7141  153.6702 O   0  0  0  0  0  0  0  0  0  0  0  0
  145.2126  135.1222  152.5873 C   0  0  2  0  0  0  0  0  0  0  0  0
  145.6402  133.6530  152.4463 C   0  0  0  0  0  0  0  0  0  0  0  0
  145.3625  132.9418  153.6337 O   0  0  0  0  0  0  0  0  0  0  0  0
  145.5702  136.0161  151.3882 C   0  0  1  0  0  0  0  0  0  0  0  0
  144.4666  136.1133  150.5098 O   0  0  0  0  0  0  0  0  0  0  0  0
  145.8798  137.3801  152.0093 C   0  0  2  0  0  0  0  0  0  0  0  0
  147.1349  137.8620  151.5619 O   0  0  0  0  0  0  0  0  0  0  0  0
  152.9253  141.8707  159.4689 C   0  0  0  0  0  0  0  0  0  0  0  0
  153.7653  141.0135  160.3573 C   0  0  0  0  0  0  0  0  0  0  0  0
  152.9675  143.2036  159.7472 O   0  0  0  0  0  0  0  0  0  0  0  0
  144.9119  137.4603  153.9971 H   0  0  0  0  0  0  0  0  0  0  0  0
  144.1464  135.1884  152.8164 H   0  0  0  0  0  0  0  0  0  0  0  0
  146.4374  135.6210  150.8562 H   0  0  0  0  0  0  0  0  0  0  0  0
  145.1184  138.1274  151.7813 H   0  0  0  0  0  0  0  0  0  0  0  0
  151.5884  145.7322  158.0844 H   0  0  0  0  0  0  0  0  0  0  0  0
  153.0253  145.7543  159.1074 H   0  0  0  0  0  0  0  0  0  0  0  0
  151.4262  145.5748  159.8347 H   0  0  0  0  0  0  0  0  0  0  0  0
  150.9017  143.1151  157.2207 H   0  0  0  0  0  0  0  0  0  0  0  0
  151.6466  139.1773  159.6236 H   0  0  0  0  0  0  0  0  0  0  0  0
  153.2325  139.1484  158.8640 H   0  0  0  0  0  0  0  0  0  0  0  0
  151.9253  138.1618  158.2162 H   0  0  0  0  0  0  0  0  0  0  0  0
  151.8153  140.1354  155.8196 H   0  0  0  0  0  0  0  0  0  0  0  0
  149.9205  139.1449  157.3570 H   0  0  0  0  0  0  0  0  0  0  0  0
  149.6740  140.6506  158.2209 H   0  0  0  0  0  0  0  0  0  0  0  0
  150.4625  141.6822  155.9505 H   0  0  0  0  0  0  0  0  0  0  0  0
  146.4903  142.1364  153.7881 H   0  0  0  0  0  0  0  0  0  0  0  0
  148.0456  136.0272  155.0752 H   0  0  0  0  0  0  0  0  0  0  0  0
  145.1369  133.1767  151.6044 H   0  0  0  0  0  0  0  0  0  0  0  0
  146.7122  133.5920  152.2566 H   0  0  0  0  0  0  0  0  0  0  0  0
  144.4479  132.7027  153.6338 H   0  0  0  0  0  0  0  0  0  0  0  0
  144.2932  137.0285  150.3480 H   0  0  0  0  0  0  0  0  0  0  0  0
  147.8140  137.3468  151.9708 H   0  0  0  0  0  0  0  0  0  0  0  0
  153.1699  140.2139  160.7983 H   0  0  0  0  0  0  0  0  0  0  0  0
  154.1994  141.5946  161.1713 H   0  0  0  0  0  0  0  0  0  0  0  0
  154.5817  140.5599  159.7953 H   0  0  0  0  0  0  0  0  0  0  0  0
  1  2  1  0  0  0  0
  1 35  1  0  0  0  0
  1 36  1  0  0  0  0
  1 37  1  0  0  0  0
  2 30  1  0  0  0  0
  2  3  2  0  0  0  0
  3  4  1  0  0  0  0
  3 38  1  0  0  0  0
  4  5  1  0  0  0  0
  4 28  2  0  0  0  0
  5  6  1  0  0  0  0
  5  7  1  0  0  0  0
  5  8  1  0  0  0  0
  6 39  1  0  0  0  0
  6 40  1  0  0  0  0
  6 41  1  0  0  0  0
  7 42  1  0  0  0  0
  8  9  1  0  0  0  0
  8 43  1  0  0  0  0
  8 44  1  0  0  0  0
  9 10  1  0  0  0  0
  9 45  1  0  0  0  0
 10 15  1  0  0  0  0
 10 11  2  0  0  0  0
 11 12  1  0  0  0  0
 12 13  2  0  0  0  0
 12 46  1  0  0  0  0
 13 14  1  0  0  0  0
 14 18  1  0  0  0  0
 14 15  2  0  0  0  0
 15 16  1  0  0  0  0
 16 17  2  0  0  0  0
 17 18  1  0  0  0  0
 17 47  1  0  0  0  0
 18 19  1  0  0  0  0
 19 31  1  0  0  0  0
 19 26  1  0  0  0  0
 19 20  1  0  0  0  0
 20 21  1  0  0  0  0
 21 32  1  0  0  0  0
 21 22  1  0  0  0  0
 21 24  1  0  0  0  0
 22 23  1  0  0  0  0
 22 48  1  0  0  0  0
 22 49  1  0  0  0  0
 23 50  1  0  0  0  0
 24 33  1  0  0  0  0
 24 25  1  0  0  0  0
 24 26  1  0  0  0  0
 25 51  1  0  0  0  0
 26 34  1  0  0  0  0
 26 27  1  0  0  0  0
 27 52  1  0  0  0  0
 28 29  1  0  0  0  0
 28 30  1  0  0  0  0
 29 53  1  0  0  0  0
 29 54  1  0  0  0  0
 29 55  1  0  0  0  0
M  END
> <s_m_source_file>
AV-unprocessed.smi

> <i_m_source_file_index>
287

> <i_lp_mmshare_version>
43012

> <i_f3d_flags>
0

> <s_epik_input>
W0NIM11jMVtjSF1jKGMobzEpW0NIM10pW0NAQF0oW0NIM10pKFtPSF0pW0NIMl1bTkhdYyhuW2NIXW4yKWMoYzIzKW5bY0hdbjNbQ0BASF00T1tDQEhdKFtDSDJdW09IXSlbQ0BASF0oW09IXSlbQ0BIXTRbT0hd

> <s_epik_cmdline>
J2VwaWtfcHl0aG9uJywgJy1waCcsICc3LjAnLCAnLXRuJywgJzgnLCAnLW1hJywgJzIwMCcsICctbWV0YWxfYmluZGluZycsICctaW1hZScsICc8aW5maWxlLm1hZT4nLCAnLW9tYWUnLCAnPG91dGZpbGUubWFlPic=

> <r_lp_tautomer_probability>
1

> <r_epik_Ionization_Penalty>
0.000992612

> <r_epik_Ionization_Penalty_Charging>
0

> <r_epik_Ionization_Penalty_Neutral>
0.000992612

> <r_epik_State_Penalty>
-0

> <r_epik_Charging_Adjusted_Penalty>
0

> <i_epik_Tot_Q>
0

> <i_epik_Tot_abs_Q>
0

> <r_epik_Metal_State_Penalty>
-0

> <b_epik_Metal_Only>
0

> <s_epik_Chemistry_Notes>
This compound contains an acetal/aminal-like group ( X-CH(R)-Y where X, Y are N, S, or O) that may be acid/base labile, releasing an aldehyde.

> <s_lp_Force_Field>
OPLS_2005

> <r_lp_Energy>
43.2107

> <b_lp_Chiralities_Consistent>
1

> <s_lp_Variant>
AV-unprocessed.smi:287-18

> <Gold.Version>
5.8.1

> <Gold.Id.Protein>
6NUR|6NUR_protein|mol2

> <Gold.PLP.Fitness>
52.9642

> <Gold.PLP.PLP>
-43.3421

> <Gold.PLP.part.hbond>
-4.5826

> <Gold.PLP.part.metal>
0.0000

> <Gold.PLP.part.buried>
-9.3614

> <Gold.PLP.part.nonpolar>
-32.1029

> <Gold.PLP.part.repulsive>
0.4643

> <Gold.PLP.ligand.clash>
0.0048

> <Gold.PLP.ligand.torsion>
1.4707

> <Gold.PLP.Chemscore.Hbond>
4.1590

> <Gold.PLP.Chemscore.CHOScore>
0.0000

> <Gold.PLP.Chemscore.Metal>
0.0000

> <Gold.Chemscore.Hbonds>
donor molecule, donor type, donor heavy atom, donor atom, acceptor molecule, acceptor atom, score
      L1  H    23    50       P1 10957  0.30
      L1  H    25    51       P1 10171  1.00
      L1  H    27    52       P1  7948  0.96
      P1  H  7954  7966       L1    27  0.45
      P1  H  7997  8009       L1     7  1.00

> <Gold.PLP.Chemscore.Internal.Correction>
0.0914

> <Gold.Rescore>
     Score         DG    S(hbond)    S(metal)    S(lipo)     H(rot)  DE(clash)    DE(int)     intcor
     14.07     -16.30       3.81        0.00      99.05       5.27       0.07       2.16       ----

> <Gold.Chemscore.Fitness>
14.0740

> <Gold.Chemscore.DG>
-16.3049

> <Gold.Chemscore.ZeroCoef>
-5.4800

> <Gold.Chemscore.Hbond>
3.8085

> <Gold.Chemscore.Metal>
0.0000

> <Gold.Chemscore.Lipo>
99.0458

> <Gold.Chemscore.Internal_Hbond>
0.0000

> <Gold.Chemscore.DEClash>
0.0713

> <Gold.Chemscore.DEInternal>
2.1596

> <Gold.Chemscore.Rot>
5.2672

> <Gold.Chemscore.Internal.Correction>
   9.000000E+99

> <Gold.Chemscore.Hbonds>
donor molecule, donor type, donor heavy atom, donor atom, acceptor molecule, acceptor atom, score
      L1  H    23    50       P1 10957  0.16
      L1  H    25    51       P1 10171  1.00
      L1  H    27    52       P1  7948  0.90
      P1  H  7954  7966       L1    27  0.02
      P1  H  7997  8009       L1     7  0.98

> <Gold.Chemscore.Hbond.Weighted>
-12.7205

> <Gold.Chemscore.Metal.Weighted>
-0.0000

> <Gold.Chemscore.Lipo.Weighted>
-11.5884

> <Gold.Chemscore.Internal_Hbond.Weighted>
0.0000

> <Gold.Chemscore.DEClash.Weighted>
0.0713

> <Gold.Chemscore.DEInternal.Weighted>
2.1596

> <Gold.Chemscore.Rot.Weighted>
13.4839

> <Gold.Chemscore.Internal.Correction.Weighted>
   9.000000E+99

> <Gold.Protein.RotatedTorsions>
[ 6907 6896 6895 6894 ] final  -61.24 input  -60.11 | X-H torsion
[ 7974 7965 7964 7962 ] final    1.08 input  175.53 | X-H torsion
[ 8008 7997 7996 7995 ] final -164.75 input   59.86 | X-H torsion
[ 10167 10162 10161 10158 ] final   25.93 input  -65.29 | X-H torsion
[ 10718 10713 10712 10709 ] final  155.39 input   66.30 | X-H torsion
[ 10763 10752 10751 10750 ] final    9.04 input  -60.55 | X-H torsion
[ 11005 11000 10999 10996 ] final -153.71 input  -57.11 | X-H torsion

> <Gold.Protein.ActiveResidues>
 VAL166  LYS551  ARG553  GLY616  TRP617  ASP618  TYR619  PRO620  LYS621  CYS622 
 ASP623  PHE694  ASN695  SER759  ASP760  ASP761  ALA762  ILE779  LEU786  VAL792 
 PHE793  MET794  SER795  GLU796  ALA797  LYS798  CYS799  TRP800  GLU811  SER814 

> <Gold.Protein.RotatedAtoms>
  150.7799  134.6731  159.6402 H   0  0  0  0  0  0  0  0  0  0  0  0  # atno 6907 bound_to 6896
  152.3880  134.6483  160.0127 H   0  0  0  0  0  0  0  0  0  0  0  0  # atno 6908 bound_to 6896
  151.6793  133.3275  159.3251 H   0  0  0  0  0  0  0  0  0  0  0  0  # atno 6909 bound_to 6896
  146.2438  140.1041  142.8346 H   0  0  0  0  0  0  0  0  0  0  0  0  # atno 7974 bound_to 7965
  155.8401  140.0947  157.1740 H   0  0  0  0  0  0  0  0  0  0  0  0  # atno 8008 bound_to 7997
  154.3981  140.1403  156.3779 H   0  0  0  0  0  0  0  0  0  0  0  0  # atno 8009 bound_to 7997
  155.8074  140.3451  155.5440 H   0  0  0  0  0  0  0  0  0  0  0  0  # atno 8010 bound_to 7997
  140.5065  144.0230  150.6354 H   0  0  0  0  0  0  0  0  0  0  0  0  # atno 10167 bound_to 10162
  157.2189  131.0714  151.1924 H   0  0  0  0  0  0  0  0  0  0  0  0  # atno 10718 bound_to 10713
  153.2184  135.6878  153.8029 H   0  0  0  0  0  0  0  0  0  0  0  0  # atno 10763 bound_to 10752
  153.7237  135.3263  155.3273 H   0  0  0  0  0  0  0  0  0  0  0  0  # atno 10764 bound_to 10752
  154.8257  135.4619  154.1021 H   0  0  0  0  0  0  0  0  0  0  0  0  # atno 10765 bound_to 10752
  140.7052  134.3893  157.5205 H   0  0  0  0  0  0  0  0  0  0  0  0  # atno 11005 bound_to 11000
  145.0543  140.9041  143.4976 LP  0  0  0  0  0  0  0  0  0  0  0  0  # atno 17320 bound_to 7965
  145.1144  139.2735  143.5620 LP  0  0  0  0  0  0  0  0  0  0  0  0  # atno 17321 bound_to 7965
  140.3541  143.2946  152.0455 LP  0  0  0  0  0  0  0  0  0  0  0  0  # atno 17342 bound_to 10162
  139.4885  144.6352  151.6990 LP  0  0  0  0  0  0  0  0  0  0  0  0  # atno 17343 bound_to 10162
  157.3596  130.7124  149.6493 LP  0  0  0  0  0  0  0  0  0  0  0  0  # atno 17370 bound_to 10713
  155.9684  130.4229  150.4539 LP  0  0  0  0  0  0  0  0  0  0  0  0  # atno 17371 bound_to 10713
  139.8886  134.8852  156.2465 LP  0  0  0  0  0  0  0  0  0  0  0  0  # atno 17394 bound_to 11000
  141.0130  133.7084  156.1143 LP  0  0  0  0  0  0  0  0  0  0  0  0  # atno 17395 bound_to 11000

$$$$
