AV-unprocessed.smi:798|AV-procd|sdf|3783|dock4
  -GOLD-   22720 1213D 1   1.00000     0.00000
 Structure written by MMmdl.
 33 35  0  0  0  0  0  0  0  0  2 V2000
  150.3639  136.2634  158.9362 O   0  0  0  0  0  0  0  0  0  0  0  0
  149.4818  137.0395  158.5617 C   0  0  0  0  0  0  0  0  0  0  0  0
  148.3507  137.3520  159.2339 N   0  5  0  0  0  0  0  0  0  0  0  0
  147.9271  136.5653  160.2368 C   0  0  0  0  0  0  0  0  0  0  0  0
  147.4856  137.0637  161.4029 N   0  0  0  0  0  0  0  0  0  0  0  0
  147.0987  136.0818  162.3050 N   0  0  0  0  0  0  0  0  0  0  0  0
  147.2690  134.8614  161.7970 C   0  0  0  0  0  0  0  0  0  0  0  0
  147.9182  134.8007  160.1719 S   0  0  0  0  0  0  0  0  0  0  0  0
  149.5920  137.6582  157.3772 N   0  0  0  0  0  0  0  0  0  0  0  0
  150.6981  137.5196  156.4276 C   0  0  2  0  0  0  0  0  0  0  0  0
  151.8379  138.4951  156.7931 C   0  0  1  0  0  0  0  0  0  0  0  0
  153.1193  138.0729  156.0514 C   0  0  0  0  0  0  0  0  0  0  0  0
  152.8019  138.4564  154.5933 C   0  0  0  0  0  0  0  0  0  0  0  0
  151.3831  139.0515  154.6949 C   0  0  2  0  0  0  0  0  0  0  0  0
  151.4488  139.7620  156.0408 C   0  0  0  0  0  0  0  0  0  0  0  0
  150.3648  137.9141  154.9560 C   0  0  2  0  0  0  0  0  0  0  0  0
  148.9016  138.3268  154.6744 C   0  0  0  0  0  0  0  0  0  0  0  0
  148.7506  138.7327  153.3300 O   0  0  0  0  0  0  0  0  0  0  0  0
  147.0135  133.9919  162.3839 H   0  0  0  0  0  0  0  0  0  0  0  0
  148.8441  138.2826  157.1134 H   0  0  0  0  0  0  0  0  0  0  0  0
  151.0718  136.4947  156.4707 H   0  0  0  0  0  0  0  0  0  0  0  0
  151.9861  138.6229  157.8662 H   0  0  0  0  0  0  0  0  0  0  0  0
  153.9810  138.6335  156.4158 H   0  0  0  0  0  0  0  0  0  0  0  0
  153.3386  137.0109  156.1671 H   0  0  0  0  0  0  0  0  0  0  0  0
  153.5101  139.2035  154.2329 H   0  0  0  0  0  0  0  0  0  0  0  0
  152.8476  137.6017  153.9175 H   0  0  0  0  0  0  0  0  0  0  0  0
  151.1295  139.6938  153.8512 H   0  0  0  0  0  0  0  0  0  0  0  0
  150.4947  140.1824  156.3616 H   0  0  0  0  0  0  0  0  0  0  0  0
  152.2118  140.5412  156.0823 H   0  0  0  0  0  0  0  0  0  0  0  0
  150.5906  137.0667  154.3064 H   0  0  0  0  0  0  0  0  0  0  0  0
  148.2285  137.4857  154.8396 H   0  0  0  0  0  0  0  0  0  0  0  0
  148.5787  139.1355  155.3303 H   0  0  0  0  0  0  0  0  0  0  0  0
  148.5372  137.9717  152.8120 H   0  0  0  0  0  0  0  0  0  0  0  0
  1  2  2  0  0  0  0
  2  3  1  0  0  0  0
  2  9  1  0  0  0  0
  3  4  1  0  0  0  0
  4  8  1  0  0  0  0
  4  5  2  0  0  0  0
  5  6  1  0  0  0  0
  6  7  2  0  0  0  0
  7  8  1  0  0  0  0
  7 19  1  0  0  0  0
  9 10  1  0  0  0  0
  9 20  1  0  0  0  0
 10 16  1  0  0  0  0
 10 11  1  0  0  0  0
 10 21  1  0  0  0  0
 11 15  1  0  0  0  0
 11 12  1  0  0  0  0
 11 22  1  0  0  0  0
 12 13  1  0  0  0  0
 12 23  1  0  0  0  0
 12 24  1  0  0  0  0
 13 14  1  0  0  0  0
 13 25  1  0  0  0  0
 13 26  1  0  0  0  0
 14 15  1  0  0  0  0
 14 16  1  0  0  0  0
 14 27  1  0  0  0  0
 15 28  1  0  0  0  0
 15 29  1  0  0  0  0
 16 17  1  0  0  0  0
 16 30  1  0  0  0  0
 17 18  1  0  0  0  0
 17 31  1  0  0  0  0
 17 32  1  0  0  0  0
 18 33  1  0  0  0  0
M  CHG  1   3  -1
M  END
> <s_m_source_file>
AV-unprocessed.smi

> <i_m_source_file_index>
798

> <i_lp_mmshare_version>
43012

> <i_f3d_flags>
0

> <s_epik_input>
W0NIMl0xW0NIMl1bQ0BASF0oW0NIMl0yKVtDQEBIXShbQ0gyXVtPSF0pW0NAQEhdKFtDQEhdMTIpW05IXUMoPU8pW05IXWMzbm5bY0hdczM=

> <s_epik_cmdline>
J2VwaWtfcHl0aG9uJywgJy1waCcsICc3LjAnLCAnLXRuJywgJzgnLCAnLW1hJywgJzIwMCcsICctbWV0YWxfYmluZGluZycsICctaW1hZScsICc8aW5maWxlLm1hZT4nLCAnLW9tYWUnLCAnPG91dGZpbGUubWFlPic=

> <r_lp_tautomer_probability>
1

> <r_epik_Ionization_Penalty>
4.53732

> <r_epik_Ionization_Penalty_Charging>
4.48632

> <r_epik_Ionization_Penalty_Neutral>
0.0510007

> <r_epik_State_Penalty>
4.48602

> <r_epik_Charging_Adjusted_Penalty>
8.97234

> <i_epik_Tot_Q>
-1

> <i_epik_Tot_abs_Q>
1

> <r_epik_Metal_State_Penalty>
0.812492

> <b_epik_Metal_Only>
1

> <s_lp_Force_Field>
OPLS_2005

> <r_lp_Energy>
47.4456

> <b_lp_Chiralities_Consistent>
1

> <s_lp_Variant>
AV-unprocessed.smi:798-15

> <Gold.Version>
5.8.1

> <Gold.Id.Protein>
6NUR|6NUR_protein|mol2

> <Gold.PLP.Fitness>
40.6177

> <Gold.PLP.PLP>
-30.6378

> <Gold.PLP.part.hbond>
-5.3586

> <Gold.PLP.part.metal>
0.0000

> <Gold.PLP.part.buried>
-4.0976

> <Gold.PLP.part.nonpolar>
-20.8858

> <Gold.PLP.part.repulsive>
0.0267

> <Gold.PLP.ligand.clash>
0.0000

> <Gold.PLP.ligand.torsion>
0.7565

> <Gold.PLP.Chemscore.Hbond>
3.8240

> <Gold.PLP.Chemscore.CHOScore>
0.0000

> <Gold.PLP.Chemscore.Metal>
0.0000

> <Gold.Chemscore.Hbonds>
donor molecule, donor type, donor heavy atom, donor atom, acceptor molecule, acceptor atom, score
      L1  H    18    33       P1  7948  1.00
      P1  H  6896  6908       L1     1  1.00
      P1  H  6931  6943       L1     5  0.98
      P1  H  6934  6947       L1     5  0.90

> <Gold.PLP.Chemscore.Internal.Correction>
0.0210

> <Gold.Rescore>
     Score         DG    S(hbond)    S(metal)    S(lipo)     H(rot)  DE(clash)    DE(int)     intcor
     17.70     -18.68       3.16        0.00      64.78       1.92       0.18       0.81       ----

> <Gold.Chemscore.Fitness>
17.6984

> <Gold.Chemscore.DG>
-18.6828

> <Gold.Chemscore.ZeroCoef>
-5.4800

> <Gold.Chemscore.Hbond>
3.1559

> <Gold.Chemscore.Metal>
0.0000

> <Gold.Chemscore.Lipo>
64.7774

> <Gold.Chemscore.Internal_Hbond>
0.0000

> <Gold.Chemscore.DEClash>
0.1786

> <Gold.Chemscore.DEInternal>
0.8058

> <Gold.Chemscore.Rot>
1.9207

> <Gold.Chemscore.Internal.Correction>
   9.000000E+99

> <Gold.Chemscore.Hbonds>
donor molecule, donor type, donor heavy atom, donor atom, acceptor molecule, acceptor atom, score
      L1  H    18    33       P1  7948  0.94
      P1  H  6896  6908       L1     1  0.97
      P1  H  6931  6943       L1     5  0.26
      P1  H  6934  6947       L1     5  0.29

> <Gold.Chemscore.Hbond.Weighted>
-10.5408

> <Gold.Chemscore.Metal.Weighted>
-0.0000

> <Gold.Chemscore.Lipo.Weighted>
-7.5790

> <Gold.Chemscore.Internal_Hbond.Weighted>
0.0000

> <Gold.Chemscore.DEClash.Weighted>
0.1786

> <Gold.Chemscore.DEInternal.Weighted>
0.8058

> <Gold.Chemscore.Rot.Weighted>
4.9169

> <Gold.Chemscore.Internal.Correction.Weighted>
   9.000000E+99

> <Gold.Protein.RotatedTorsions>
[ 6907 6896 6895 6894 ] final -170.65 input  -60.11 | X-H torsion
[ 7974 7965 7964 7962 ] final  -70.40 input  175.53 | X-H torsion
[ 8008 7997 7996 7995 ] final  169.90 input   59.86 | X-H torsion
[ 10167 10162 10161 10158 ] final  -66.85 input  -65.29 | X-H torsion
[ 10718 10713 10712 10709 ] final -102.63 input   66.30 | X-H torsion
[ 10763 10752 10751 10750 ] final   34.91 input  -60.55 | X-H torsion
[ 11005 11000 10999 10996 ] final  149.25 input  -57.11 | X-H torsion

> <Gold.Protein.ActiveResidues>
 VAL166  LYS551  ARG553  GLY616  TRP617  ASP618  TYR619  PRO620  LYS621  CYS622 
 ASP623  PHE694  ASN695  SER759  ASP760  ASP761  ALA762  ILE779  LEU786  VAL792 
 PHE793  MET794  SER795  GLU796  ALA797  LYS798  CYS799  TRP800  GLU811  SER814 

> <Gold.Protein.RotatedAtoms>
  151.5111  133.3484  159.2884 H   0  0  0  0  0  0  0  0  0  0  0  0  # atno 6907 bound_to 6896
  150.8711  134.8087  159.7166 H   0  0  0  0  0  0  0  0  0  0  0  0  # atno 6908 bound_to 6896
  152.4699  134.4996  159.9772 H   0  0  0  0  0  0  0  0  0  0  0  0  # atno 6909 bound_to 6896
  145.6914  140.9151  143.0780 H   0  0  0  0  0  0  0  0  0  0  0  0  # atno 7974 bound_to 7965
  156.1415  140.1552  156.8914 H   0  0  0  0  0  0  0  0  0  0  0  0  # atno 8008 bound_to 7997
  154.4991  140.0830  156.7798 H   0  0  0  0  0  0  0  0  0  0  0  0  # atno 8009 bound_to 7997
  155.4070  140.3417  155.4263 H   0  0  0  0  0  0  0  0  0  0  0  0  # atno 8010 bound_to 7997
  140.5626  143.2313  151.6697 H   0  0  0  0  0  0  0  0  0  0  0  0  # atno 10167 bound_to 10162
  156.0236  130.5429  150.7136 H   0  0  0  0  0  0  0  0  0  0  0  0  # atno 10718 bound_to 10713
  153.0143  135.6347  154.1743 H   0  0  0  0  0  0  0  0  0  0  0  0  # atno 10763 bound_to 10752
  154.1483  135.2830  155.3144 H   0  0  0  0  0  0  0  0  0  0  0  0  # atno 10764 bound_to 10752
  154.6073  135.5568  153.7497 H   0  0  0  0  0  0  0  0  0  0  0  0  # atno 10765 bound_to 10752
  140.1028  134.8972  157.1822 H   0  0  0  0  0  0  0  0  0  0  0  0  # atno 11005 bound_to 11000
  144.6995  139.8826  143.7448 LP  0  0  0  0  0  0  0  0  0  0  0  0  # atno 17320 bound_to 7965
  146.0878  139.3867  143.0424 LP  0  0  0  0  0  0  0  0  0  0  0  0  # atno 17321 bound_to 7965
  139.5077  144.3635  152.0539 LP  0  0  0  0  0  0  0  0  0  0  0  0  # atno 17342 bound_to 10162
  140.2764  144.3908  150.6134 LP  0  0  0  0  0  0  0  0  0  0  0  0  # atno 17343 bound_to 10162
  157.4769  131.0898  151.0580 LP  0  0  0  0  0  0  0  0  0  0  0  0  # atno 17370 bound_to 10713
  157.1025  130.5987  149.5463 LP  0  0  0  0  0  0  0  0  0  0  0  0  # atno 17371 bound_to 10713
  140.3196  134.2931  155.7249 LP  0  0  0  0  0  0  0  0  0  0  0  0  # atno 17394 bound_to 11000
  141.2110  133.7701  156.9892 LP  0  0  0  0  0  0  0  0  0  0  0  0  # atno 17395 bound_to 11000

$$$$
