AV-unprocessed.smi:889|AV-procd|sdf|4056|dock3
  -GOLD-   22720 1543D 1   1.00000     0.00000
 Structure written by MMmdl.
 43 44  0  0  0  0  0  0  0  0  1 V2000
  156.2096  135.3386  162.3823 C   0  0  0  0  0  0  0  0  0  0  0  0
  155.1452  135.8594  161.4778 C   0  0  0  0  0  0  0  0  0  0  0  0
  154.2172  136.8525  161.6110 C   0  0  0  0  0  0  0  0  0  0  0  0
  153.5149  136.8261  160.3741 C   0  0  0  0  0  0  0  0  0  0  0  0
  152.3747  137.7015  159.9275 C   0  0  0  0  0  0  0  0  0  0  0  0
  152.8678  138.7533  158.9331 C   0  0  0  0  0  0  0  0  0  0  0  0
  154.0456  138.7602  158.5753 O   0  0  0  0  0  0  0  0  0  0  0  0
  151.9549  139.6282  158.4871 N   0  0  0  0  0  0  0  0  0  0  0  0
  152.2157  140.6843  157.5159 C   0  0  0  0  0  0  0  0  0  0  0  0
  151.0073  141.6298  157.3544 C   0  0  0  0  0  0  0  0  0  0  0  0
  150.9996  142.6835  158.4875 C   0  0  0  0  0  0  0  0  0  0  0  0
  152.2866  143.5215  158.6948 C   0  0  0  0  0  0  0  0  0  0  0  0
  153.3469  142.8176  159.5574 C   0  0  0  0  0  0  0  0  0  0  0  0
  151.9377  144.8932  159.2926 C   0  0  0  0  0  0  0  0  0  0  0  0
  150.8518  142.2271  155.9362 C   0  0  0  0  0  0  0  0  0  0  0  0
  149.9032  141.0893  155.5702 C   0  0  0  0  0  0  0  0  0  0  0  0
  149.6605  140.9250  157.0680 C   0  0  0  0  0  0  0  0  0  0  0  0
  153.9862  135.8911  159.5636 N   0  0  0  0  0  0  0  0  0  0  0  0
  155.0258  135.2667  160.2614 O   0  0  0  0  0  0  0  0  0  0  0  0
  156.8037  136.1568  162.7897 H   0  0  0  0  0  0  0  0  0  0  0  0
  156.8836  134.6660  161.8511 H   0  0  0  0  0  0  0  0  0  0  0  0
  155.7725  134.7899  163.2165 H   0  0  0  0  0  0  0  0  0  0  0  0
  154.0635  137.4994  162.4618 H   0  0  0  0  0  0  0  0  0  0  0  0
  151.5969  137.0975  159.4589 H   0  0  0  0  0  0  0  0  0  0  0  0
  151.9066  138.2009  160.7774 H   0  0  0  0  0  0  0  0  0  0  0  0
  151.0114  139.5538  158.8394 H   0  0  0  0  0  0  0  0  0  0  0  0
  153.0944  141.2350  157.8538 H   0  0  0  0  0  0  0  0  0  0  0  0
  152.4968  140.2505  156.5556 H   0  0  0  0  0  0  0  0  0  0  0  0
  150.1638  143.3678  158.3357 H   0  0  0  0  0  0  0  0  0  0  0  0
  150.7708  142.1861  159.4310 H   0  0  0  0  0  0  0  0  0  0  0  0
  152.7339  143.7199  157.7208 H   0  0  0  0  0  0  0  0  0  0  0  0
  152.9394  142.5208  160.5242 H   0  0  0  0  0  0  0  0  0  0  0  0
  154.1985  143.4726  159.7433 H   0  0  0  0  0  0  0  0  0  0  0  0
  153.7365  141.9270  159.0666 H   0  0  0  0  0  0  0  0  0  0  0  0
  151.4896  144.7932  160.2816 H   0  0  0  0  0  0  0  0  0  0  0  0
  151.2310  145.4304  158.6591 H   0  0  0  0  0  0  0  0  0  0  0  0
  152.8261  145.5175  159.3916 H   0  0  0  0  0  0  0  0  0  0  0  0
  150.3524  143.1976  155.9323 H   0  0  0  0  0  0  0  0  0  0  0  0
  151.7678  142.2572  155.3449 H   0  0  0  0  0  0  0  0  0  0  0  0
  149.0274  141.3907  154.9948 H   0  0  0  0  0  0  0  0  0  0  0  0
  150.4118  140.2343  155.1225 H   0  0  0  0  0  0  0  0  0  0  0  0
  149.6038  139.8872  157.3976 H   0  0  0  0  0  0  0  0  0  0  0  0
  148.7955  141.4948  157.4120 H   0  0  0  0  0  0  0  0  0  0  0  0
  1  2  1  0  0  0  0
  1 20  1  0  0  0  0
  1 21  1  0  0  0  0
  1 22  1  0  0  0  0
  2 19  1  0  0  0  0
  2  3  2  0  0  0  0
  3  4  1  0  0  0  0
  3 23  1  0  0  0  0
  4  5  1  0  0  0  0
  4 18  2  0  0  0  0
  5  6  1  0  0  0  0
  5 24  1  0  0  0  0
  5 25  1  0  0  0  0
  6  7  2  0  0  0  0
  6  8  1  0  0  0  0
  8  9  1  0  0  0  0
  8 26  1  0  0  0  0
  9 10  1  0  0  0  0
  9 27  1  0  0  0  0
  9 28  1  0  0  0  0
 10 17  1  0  0  0  0
 10 11  1  0  0  0  0
 10 15  1  0  0  0  0
 11 12  1  0  0  0  0
 11 29  1  0  0  0  0
 11 30  1  0  0  0  0
 12 13  1  0  0  0  0
 12 14  1  0  0  0  0
 12 31  1  0  0  0  0
 13 32  1  0  0  0  0
 13 33  1  0  0  0  0
 13 34  1  0  0  0  0
 14 35  1  0  0  0  0
 14 36  1  0  0  0  0
 14 37  1  0  0  0  0
 15 16  1  0  0  0  0
 15 38  1  0  0  0  0
 15 39  1  0  0  0  0
 16 17  1  0  0  0  0
 16 40  1  0  0  0  0
 16 41  1  0  0  0  0
 17 42  1  0  0  0  0
 17 43  1  0  0  0  0
 18 19  1  0  0  0  0
M  END
> <s_m_source_file>
AV-unprocessed.smi

> <i_m_source_file_index>
889

> <i_lp_mmshare_version>
43012

> <i_f3d_flags>
0

> <s_epik_input>
W0NIM11jMVtjSF1jKG5vMSlbQ0gyXUMoPU8pW05IXVtDSDJdQzIoW0NIMl1bQ0hdKFtDSDNdKVtDSDNdKVtDSDJdW0NIMl1bQ0gyXTI=

> <s_epik_cmdline>
J2VwaWtfcHl0aG9uJywgJy1waCcsICc3LjAnLCAnLXRuJywgJzgnLCAnLW1hJywgJzIwMCcsICctbWV0YWxfYmluZGluZycsICctaW1hZScsICc8aW5maWxlLm1hZT4nLCAnLW9tYWUnLCAnPG91dGZpbGUubWFlPic=

> <r_lp_tautomer_probability>
1

> <r_epik_Ionization_Penalty>
7.05168e-08

> <r_epik_Ionization_Penalty_Charging>
0

> <r_epik_Ionization_Penalty_Neutral>
7.05168e-08

> <r_epik_State_Penalty>
-0

> <r_epik_Charging_Adjusted_Penalty>
0

> <i_epik_Tot_Q>
0

> <i_epik_Tot_abs_Q>
0

> <r_epik_Metal_State_Penalty>
-0

> <b_epik_Metal_Only>
0

> <s_lp_Force_Field>
OPLS_2005

> <r_lp_Energy>
19.2899

> <b_lp_Chiralities_Consistent>
1

> <s_lp_Variant>
AV-unprocessed.smi:889-1

> <Gold.Version>
5.8.1

> <Gold.Id.Protein>
6NUR|6NUR_protein|mol2

> <Gold.PLP.Fitness>
36.9033

> <Gold.PLP.PLP>
-32.3659

> <Gold.PLP.part.hbond>
-1.9813

> <Gold.PLP.part.metal>
0.0000

> <Gold.PLP.part.buried>
-3.6709

> <Gold.PLP.part.nonpolar>
-26.3293

> <Gold.PLP.part.repulsive>
0.1066

> <Gold.PLP.ligand.clash>
0.0000

> <Gold.PLP.ligand.torsion>
0.9503

> <Gold.PLP.Chemscore.Hbond>
2.0000

> <Gold.PLP.Chemscore.CHOScore>
0.0000

> <Gold.PLP.Chemscore.Metal>
0.0000

> <Gold.Chemscore.Hbonds>
donor molecule, donor type, donor heavy atom, donor atom, acceptor molecule, acceptor atom, score
      P1  H  6896  6908       L1    18  0.67
      P1  H  7997  8009       L1     7  1.00

> <Gold.PLP.Chemscore.Internal.Correction>
0.4381

> <Gold.Rescore>
     Score         DG    S(hbond)    S(metal)    S(lipo)     H(rot)  DE(clash)    DE(int)     intcor
     17.02     -18.40       1.58        0.00     102.26       1.68       0.36       1.01       ----

> <Gold.Chemscore.Fitness>
17.0242

> <Gold.Chemscore.DG>
-18.4009

> <Gold.Chemscore.ZeroCoef>
-5.4800

> <Gold.Chemscore.Hbond>
1.5776

> <Gold.Chemscore.Metal>
0.0000

> <Gold.Chemscore.Lipo>
102.2586

> <Gold.Chemscore.Internal_Hbond>
0.0000

> <Gold.Chemscore.DEClash>
0.3646

> <Gold.Chemscore.DEInternal>
1.0121

> <Gold.Chemscore.Rot>
1.6846

> <Gold.Chemscore.Internal.Correction>
   9.000000E+99

> <Gold.Chemscore.Hbonds>
donor molecule, donor type, donor heavy atom, donor atom, acceptor molecule, acceptor atom, score
      P1  H  6896  6908       L1    18  0.01
      P1  H  7997  8009       L1     7  0.96

> <Gold.Chemscore.Hbond.Weighted>
-5.2693

> <Gold.Chemscore.Metal.Weighted>
-0.0000

> <Gold.Chemscore.Lipo.Weighted>
-11.9643

> <Gold.Chemscore.Internal_Hbond.Weighted>
0.0000

> <Gold.Chemscore.DEClash.Weighted>
0.3646

> <Gold.Chemscore.DEInternal.Weighted>
1.0121

> <Gold.Chemscore.Rot.Weighted>
4.3127

> <Gold.Chemscore.Internal.Correction.Weighted>
   9.000000E+99

> <Gold.Protein.RotatedTorsions>
[ 6907 6896 6895 6894 ] final  -53.64 input  -60.11 | X-H torsion
[ 7974 7965 7964 7962 ] final   84.39 input  175.53 | X-H torsion
[ 8008 7997 7996 7995 ] final  135.20 input   59.86 | X-H torsion
[ 10167 10162 10161 10158 ] final   36.69 input  -65.29 | X-H torsion
[ 10718 10713 10712 10709 ] final  -68.03 input   66.30 | X-H torsion
[ 10763 10752 10751 10750 ] final  127.13 input  -60.55 | X-H torsion
[ 11005 11000 10999 10996 ] final  -67.49 input  -57.11 | X-H torsion

> <Gold.Protein.ActiveResidues>
 VAL166  LYS551  ARG553  GLY616  TRP617  ASP618  TYR619  PRO620  LYS621  CYS622 
 ASP623  PHE694  ASN695  SER759  ASP760  ASP761  ALA762  ILE779  LEU786  VAL792 
 PHE793  MET794  SER795  GLU796  ALA797  LYS798  CYS799  TRP800  GLU811  SER814 

> <Gold.Protein.RotatedAtoms>
  150.8409  134.7700  159.6930 H   0  0  0  0  0  0  0  0  0  0  0  0  # atno 6907 bound_to 6896
  152.4496  134.5418  159.9851 H   0  0  0  0  0  0  0  0  0  0  0  0  # atno 6908 bound_to 6896
  151.5558  133.3372  159.2997 H   0  0  0  0  0  0  0  0  0  0  0  0  # atno 6909 bound_to 6896
  145.5994  139.2350  143.2254 H   0  0  0  0  0  0  0  0  0  0  0  0  # atno 7974 bound_to 7965
  156.3002  140.2476  156.3543 H   0  0  0  0  0  0  0  0  0  0  0  0  # atno 8008 bound_to 7997
  154.8937  140.0408  157.1872 H   0  0  0  0  0  0  0  0  0  0  0  0  # atno 8009 bound_to 7997
  154.8572  140.2915  155.5566 H   0  0  0  0  0  0  0  0  0  0  0  0  # atno 8010 bound_to 7997
  140.4104  144.1601  150.6139 H   0  0  0  0  0  0  0  0  0  0  0  0  # atno 10167 bound_to 10162
  156.0526  130.4288  150.1941 H   0  0  0  0  0  0  0  0  0  0  0  0  # atno 10718 bound_to 10713
  153.7044  135.3278  155.3232 H   0  0  0  0  0  0  0  0  0  0  0  0  # atno 10763 bound_to 10752
  154.8403  135.4462  154.1378 H   0  0  0  0  0  0  0  0  0  0  0  0  # atno 10764 bound_to 10752
  153.2454  135.6975  153.7815 H   0  0  0  0  0  0  0  0  0  0  0  0  # atno 10765 bound_to 10752
  141.1509  133.6720  156.6301 H   0  0  0  0  0  0  0  0  0  0  0  0  # atno 11005 bound_to 11000
  146.1587  140.6819  142.9287 LP  0  0  0  0  0  0  0  0  0  0  0  0  # atno 17320 bound_to 7965
  144.7316  140.4689  143.6933 LP  0  0  0  0  0  0  0  0  0  0  0  0  # atno 17321 bound_to 7965
  140.4644  143.2436  151.9175 LP  0  0  0  0  0  0  0  0  0  0  0  0  # atno 17342 bound_to 10162
  139.4782  144.5434  151.8494 LP  0  0  0  0  0  0  0  0  0  0  0  0  # atno 17343 bound_to 10162
  157.0022  130.9925  151.3388 LP  0  0  0  0  0  0  0  0  0  0  0  0  # atno 17370 bound_to 10713
  157.5467  130.8155  149.8095 LP  0  0  0  0  0  0  0  0  0  0  0  0  # atno 17371 bound_to 10713
  140.3473  134.7798  157.4442 LP  0  0  0  0  0  0  0  0  0  0  0  0  # atno 17394 bound_to 11000
  140.0889  134.5629  155.8464 LP  0  0  0  0  0  0  0  0  0  0  0  0  # atno 17395 bound_to 11000

$$$$
