AV-unprocessed.smi:2064|AV-procd|sdf|8416|dock1
  -GOLD-   2272011103D 1   1.00000     0.00000
 Structure written by MMmdl.
 46 48  0  0  0  0  0  0  0  0  1 V2000
  148.6828  136.6471  160.9899 N   0  0  0  0  0  0  0  0  0  0  0  0
  149.2535  136.6428  159.9831 C   0  0  0  0  0  0  0  0  0  0  0  0
  149.9770  136.6576  158.7549 C   0  0  0  0  0  0  0  0  0  0  0  0
  150.2882  135.5203  158.0994 C   0  0  0  0  0  0  0  0  0  0  0  0
  150.9924  135.5161  156.9152 N   0  0  0  0  0  0  0  0  0  0  0  0
  151.1745  134.3099  156.1578 C   0  0  0  0  0  0  0  0  0  0  0  0
  150.5958  134.2259  154.7623 C   0  0  0  0  0  0  0  0  0  0  0  0
  149.9971  133.3976  155.8726 C   0  0  0  0  0  0  0  0  0  0  0  0
  151.3499  136.7347  156.2980 C   0  0  0  0  0  0  0  0  0  0  0  0
  151.8906  136.7551  155.1893 O   0  0  0  0  0  0  0  0  0  0  0  0
  151.0575  137.9369  156.9867 N   0  0  0  0  0  0  0  0  0  0  0  0
  151.4525  139.2205  156.3661 C   0  0  0  0  0  0  0  0  0  0  0  0
  152.2424  140.1427  157.3074 C   0  0  0  0  0  0  0  0  0  0  0  0
  153.3245  139.7925  157.7810 O   0  0  0  0  0  0  0  0  0  0  0  0
  151.6763  141.3313  157.5669 N   0  0  0  0  0  0  0  0  0  0  0  0
  152.2349  142.3714  158.4278 C   0  0  0  0  0  0  0  0  0  0  0  0
  152.5374  141.7715  159.8168 C   0  0  0  0  0  0  0  0  0  0  0  0
  153.0892  142.7641  160.8547 C   0  0  0  0  0  0  0  0  0  0  0  0
  152.0121  143.7150  161.4007 C   0  0  0  0  0  0  0  0  0  0  0  0
  151.7765  144.9900  160.5728 C   0  0  0  0  0  0  0  0  0  0  0  0
  151.8795  144.8450  159.0444 C   0  0  0  0  0  0  0  0  0  0  0  0
  151.2591  143.5667  158.4553 C   0  0  0  0  0  0  0  0  0  0  0  0
  150.3669  137.9624  158.2254 C   0  0  0  0  0  0  0  0  0  0  0  0
  150.1142  139.0279  158.7904 O   0  0  0  0  0  0  0  0  0  0  0  0
  149.9786  134.5742  158.5193 H   0  0  0  0  0  0  0  0  0  0  0  0
  152.1323  133.8131  156.3025 H   0  0  0  0  0  0  0  0  0  0  0  0
  150.0089  135.0670  154.3980 H   0  0  0  0  0  0  0  0  0  0  0  0
  151.1824  133.7064  154.0073 H   0  0  0  0  0  0  0  0  0  0  0  0
  150.1854  132.3261  155.8590 H   0  0  0  0  0  0  0  0  0  0  0  0
  149.0154  133.6929  156.2381 H   0  0  0  0  0  0  0  0  0  0  0  0
  152.0484  139.0569  155.4670 H   0  0  0  0  0  0  0  0  0  0  0  0
  150.5746  139.7592  156.0049 H   0  0  0  0  0  0  0  0  0  0  0  0
  150.7862  141.5328  157.1350 H   0  0  0  0  0  0  0  0  0  0  0  0
  153.1720  142.7146  157.9849 H   0  0  0  0  0  0  0  0  0  0  0  0
  151.6440  141.2883  160.2152 H   0  0  0  0  0  0  0  0  0  0  0  0
  153.2700  140.9724  159.6950 H   0  0  0  0  0  0  0  0  0  0  0  0
  153.4750  142.1815  161.6918 H   0  0  0  0  0  0  0  0  0  0  0  0
  153.9420  143.3170  160.4594 H   0  0  0  0  0  0  0  0  0  0  0  0
  151.0722  143.1725  161.5104 H   0  0  0  0  0  0  0  0  0  0  0  0
  152.2859  144.0186  162.4118 H   0  0  0  0  0  0  0  0  0  0  0  0
  150.7933  145.3857  160.8302 H   0  0  0  0  0  0  0  0  0  0  0  0
  152.4883  145.7543  160.8869 H   0  0  0  0  0  0  0  0  0  0  0  0
  151.3929  145.7119  158.5959 H   0  0  0  0  0  0  0  0  0  0  0  0
  152.9240  144.9165  158.7387 H   0  0  0  0  0  0  0  0  0  0  0  0
  150.9701  143.7908  157.4274 H   0  0  0  0  0  0  0  0  0  0  0  0
  150.3346  143.3091  158.9739 H   0  0  0  0  0  0  0  0  0  0  0  0
  1  2  3  0  0  0  0
  2  3  1  0  0  0  0
  3 23  1  0  0  0  0
  3  4  2  0  0  0  0
  4  5  1  0  0  0  0
  4 25  1  0  0  0  0
  5  6  1  0  0  0  0
  5  9  1  0  0  0  0
  6  8  1  0  0  0  0
  6  7  1  0  0  0  0
  6 26  1  0  0  0  0
  7  8  1  0  0  0  0
  7 27  1  0  0  0  0
  7 28  1  0  0  0  0
  8 29  1  0  0  0  0
  8 30  1  0  0  0  0
  9 10  2  0  0  0  0
  9 11  1  0  0  0  0
 11 12  1  0  0  0  0
 11 23  1  0  0  0  0
 12 13  1  0  0  0  0
 12 31  1  0  0  0  0
 12 32  1  0  0  0  0
 13 14  2  0  0  0  0
 13 15  1  0  0  0  0
 15 16  1  0  0  0  0
 15 33  1  0  0  0  0
 16 22  1  0  0  0  0
 16 17  1  0  0  0  0
 16 34  1  0  0  0  0
 17 18  1  0  0  0  0
 17 35  1  0  0  0  0
 17 36  1  0  0  0  0
 18 19  1  0  0  0  0
 18 37  1  0  0  0  0
 18 38  1  0  0  0  0
 19 20  1  0  0  0  0
 19 39  1  0  0  0  0
 19 40  1  0  0  0  0
 20 21  1  0  0  0  0
 20 41  1  0  0  0  0
 20 42  1  0  0  0  0
 21 22  1  0  0  0  0
 21 43  1  0  0  0  0
 21 44  1  0  0  0  0
 22 45  1  0  0  0  0
 22 46  1  0  0  0  0
 23 24  2  0  0  0  0
M  END
> <s_m_source_file>
AV-unprocessed.smi

> <i_m_source_file_index>
2064

> <i_lp_mmshare_version>
43012

> <i_f3d_flags>
0

> <s_epik_input>
TiNDYzFbY0hdbihbQ0hdMltDSDJdW0NIMl0yKWMoPU8pbihjMT1PKVtDSDJdQyg9TylbTkhdW0NIXTNbQ0gyXVtDSDJdW0NIMl1bQ0gyXVtDSDJdW0NIMl0z

> <s_epik_cmdline>
J2VwaWtfcHl0aG9uJywgJy1waCcsICc3LjAnLCAnLXRuJywgJzgnLCAnLW1hJywgJzIwMCcsICctbWV0YWxfYmluZGluZycsICctaW1hZScsICc8aW5maWxlLm1hZT4nLCAnLW9tYWUnLCAnPG91dGZpbGUubWFlPic=

> <r_lp_tautomer_probability>
1

> <r_epik_Ionization_Penalty>
2.03018e-08

> <r_epik_Ionization_Penalty_Charging>
8.701e-11

> <r_epik_Ionization_Penalty_Neutral>
2.02148e-08

> <r_epik_State_Penalty>
-0

> <r_epik_Charging_Adjusted_Penalty>
8.701e-11

> <i_epik_Tot_Q>
0

> <i_epik_Tot_abs_Q>
0

> <r_epik_Metal_State_Penalty>
-0

> <b_epik_Metal_Only>
0

> <s_lp_Force_Field>
OPLS_2005

> <r_lp_Energy>
40.6124

> <b_lp_Chiralities_Consistent>
1

> <s_lp_Variant>
AV-unprocessed.smi:2064-1

> <Gold.Version>
5.8.1

> <Gold.Id.Protein>
6NUR|6NUR_protein|mol2

> <Gold.PLP.Fitness>
53.5153

> <Gold.PLP.PLP>
-42.8005

> <Gold.PLP.part.hbond>
-4.0000

> <Gold.PLP.part.metal>
0.0000

> <Gold.PLP.part.buried>
-4.5673

> <Gold.PLP.part.nonpolar>
-34.7768

> <Gold.PLP.part.repulsive>
0.1937

> <Gold.PLP.ligand.clash>
0.0000

> <Gold.PLP.ligand.torsion>
0.1910

> <Gold.PLP.Chemscore.Hbond>
3.6250

> <Gold.PLP.Chemscore.CHOScore>
0.0000

> <Gold.PLP.Chemscore.Metal>
0.0000

> <Gold.Chemscore.Hbonds>
donor molecule, donor type, donor heavy atom, donor atom, acceptor molecule, acceptor atom, score
      P1  H  6931  6943       L1     1  1.00
      P1  H  7997  8010       L1    14  0.98
      P1  H 10752 10765       L1    10  0.99

> <Gold.PLP.Chemscore.Internal.Correction>
0.2217

> <Gold.Rescore>
     Score         DG    S(hbond)    S(metal)    S(lipo)     H(rot)  DE(clash)    DE(int)     intcor
     18.92     -22.73       2.82        0.00     104.09       1.70       0.04       3.77       ----

> <Gold.Chemscore.Fitness>
18.9185

> <Gold.Chemscore.DG>
-22.7284

> <Gold.Chemscore.ZeroCoef>
-5.4800

> <Gold.Chemscore.Hbond>
2.8239

> <Gold.Chemscore.Metal>
0.0000

> <Gold.Chemscore.Lipo>
104.0887

> <Gold.Chemscore.Internal_Hbond>
0.0000

> <Gold.Chemscore.DEClash>
0.0407

> <Gold.Chemscore.DEInternal>
3.7693

> <Gold.Chemscore.Rot>
1.7038

> <Gold.Chemscore.Internal.Correction>
   9.000000E+99

> <Gold.Chemscore.Hbonds>
donor molecule, donor type, donor heavy atom, donor atom, acceptor molecule, acceptor atom, score
      P1  H  6931  6943       L1     1  0.69
      P1  H  7997  8010       L1    14  0.62
      P1  H 10752 10765       L1    10  0.94

> <Gold.Chemscore.Hbond.Weighted>
-9.4318

> <Gold.Chemscore.Metal.Weighted>
-0.0000

> <Gold.Chemscore.Lipo.Weighted>
-12.1784

> <Gold.Chemscore.Internal_Hbond.Weighted>
0.0000

> <Gold.Chemscore.DEClash.Weighted>
0.0407

> <Gold.Chemscore.DEInternal.Weighted>
3.7693

> <Gold.Chemscore.Rot.Weighted>
4.3618

> <Gold.Chemscore.Internal.Correction.Weighted>
   9.000000E+99

> <Gold.Protein.RotatedTorsions>
[ 6907 6896 6895 6894 ] final  -37.95 input  -60.11 | X-H torsion
[ 7974 7965 7964 7962 ] final   12.36 input  175.53 | X-H torsion
[ 8008 7997 7996 7995 ] final   53.31 input   59.86 | X-H torsion
[ 10167 10162 10161 10158 ] final  102.70 input  -65.29 | X-H torsion
[ 10718 10713 10712 10709 ] final  134.35 input   66.30 | X-H torsion
[ 10763 10752 10751 10750 ] final  169.53 input  -60.55 | X-H torsion
[ 11005 11000 10999 10996 ] final  -60.96 input  -57.11 | X-H torsion

> <Gold.Protein.ActiveResidues>
 VAL166  LYS551  ARG553  GLY616  TRP617  ASP618  TYR619  PRO620  LYS621  CYS622 
 ASP623  PHE694  ASN695  SER759  ASP760  ASP761  ALA762  ILE779  LEU786  VAL792 
 PHE793  MET794  SER795  GLU796  ALA797  LYS798  CYS799  TRP800  GLU811  SER814 

> <Gold.Protein.RotatedAtoms>
  151.0084  134.9377  159.7993 H   0  0  0  0  0  0  0  0  0  0  0  0  # atno 6907 bound_to 6896
  152.5296  134.3061  159.9106 H   0  0  0  0  0  0  0  0  0  0  0  0  # atno 6908 bound_to 6896
  151.3067  133.4057  159.2678 H   0  0  0  0  0  0  0  0  0  0  0  0  # atno 6909 bound_to 6896
  146.2353  139.9348  142.8491 H   0  0  0  0  0  0  0  0  0  0  0  0  # atno 7974 bound_to 7965
  155.4661  140.3463  155.4319 H   0  0  0  0  0  0  0  0  0  0  0  0  # atno 8008 bound_to 7997
  156.1130  140.1466  156.9341 H   0  0  0  0  0  0  0  0  0  0  0  0  # atno 8009 bound_to 7997
  154.4769  140.0882  156.7263 H   0  0  0  0  0  0  0  0  0  0  0  0  # atno 8010 bound_to 7997
  139.7327  144.7032  151.0697 H   0  0  0  0  0  0  0  0  0  0  0  0  # atno 10167 bound_to 10162
  157.4681  131.1078  150.9836 H   0  0  0  0  0  0  0  0  0  0  0  0  # atno 10718 bound_to 10713
  154.3845  135.2753  155.2191 H   0  0  0  0  0  0  0  0  0  0  0  0  # atno 10763 bound_to 10752
  154.4284  135.5983  153.6057 H   0  0  0  0  0  0  0  0  0  0  0  0  # atno 10764 bound_to 10752
  152.9833  135.5989  154.4092 H   0  0  0  0  0  0  0  0  0  0  0  0  # atno 10765 bound_to 10752
  141.1307  133.6626  156.5303 H   0  0  0  0  0  0  0  0  0  0  0  0  # atno 11005 bound_to 11000
  145.2009  140.9854  143.4156 LP  0  0  0  0  0  0  0  0  0  0  0  0  # atno 17320 bound_to 7965
  144.9774  139.3818  143.6279 LP  0  0  0  0  0  0  0  0  0  0  0  0  # atno 17321 bound_to 7965
  140.7774  143.5023  150.9756 LP  0  0  0  0  0  0  0  0  0  0  0  0  # atno 17342 bound_to 10162
  139.8711  143.7192  152.3166 LP  0  0  0  0  0  0  0  0  0  0  0  0  # atno 17343 bound_to 10162
  157.0611  130.5825  149.5386 LP  0  0  0  0  0  0  0  0  0  0  0  0  # atno 17370 bound_to 10713
  156.0060  130.5147  150.7831 LP  0  0  0  0  0  0  0  0  0  0  0  0  # atno 17371 bound_to 10713
  140.4221  134.7178  157.4896 LP  0  0  0  0  0  0  0  0  0  0  0  0  # atno 17394 bound_to 11000
  140.0352  134.6347  155.9053 LP  0  0  0  0  0  0  0  0  0  0  0  0  # atno 17395 bound_to 11000

$$$$
