AV-unprocessed.smi:3287|AV-procd|sdf|12591|dock2
  -GOLD-   2272018513D 1   1.00000     0.00000
 Structure written by MMmdl.
 43 44  0  0  0  0  0  0  0  0  2 V2000
  152.0831  143.3599  161.5916 C   0  0  0  0  0  0  0  0  0  0  0  0
  152.8422  143.5408  160.2616 C   0  0  1  0  0  0  0  0  0  0  0  0
  152.9329  142.2179  159.4738 C   0  0  0  0  0  0  0  0  0  0  0  0
  151.5867  141.8180  158.8461 C   0  0  0  0  0  0  0  0  0  0  0  0
  151.0305  142.9332  157.9428 C   0  0  1  0  0  0  0  0  0  0  0  0
  149.7223  142.5225  157.3872 N   0  3  0  0  0  0  0  0  0  0  0  0
  149.6129  141.0942  157.0188 C   0  0  0  0  0  0  0  0  0  0  0  0
  149.7020  140.8974  155.4956 C   0  0  2  0  0  0  0  0  0  0  0  0
  148.4008  140.6715  154.9882 O   0  0  0  0  0  0  0  0  0  0  0  0
  150.6508  139.7617  155.1454 C   0  0  0  0  0  0  0  0  0  0  0  0
  151.9913  139.7891  155.5839 C   0  0  0  0  0  0  0  0  0  0  0  0
  152.8340  138.7117  155.2438 C   0  0  0  0  0  0  0  0  0  0  0  0
  152.4235  137.6495  154.5187 N   0  0  0  0  0  0  0  0  0  0  0  0
  151.1391  137.6263  154.1035 C   0  0  0  0  0  0  0  0  0  0  0  0
  150.2152  138.6509  154.3899 C   0  0  0  0  0  0  0  0  0  0  0  0
  150.9241  144.2599  158.7244 C   0  0  0  0  0  0  0  0  0  0  0  0
  152.2743  144.6613  159.3533 C   0  0  1  0  0  0  0  0  0  0  0  0
  152.1951  146.0288  160.0519 C   0  0  0  0  0  0  0  0  0  0  0  0
  151.0271  143.1407  161.4377 H   0  0  0  0  0  0  0  0  0  0  0  0
  152.1491  144.2525  162.2136 H   0  0  0  0  0  0  0  0  0  0  0  0
  152.5067  142.5394  162.1718 H   0  0  0  0  0  0  0  0  0  0  0  0
  153.8626  143.8212  160.5279 H   0  0  0  0  0  0  0  0  0  0  0  0
  153.6754  142.3233  158.6816 H   0  0  0  0  0  0  0  0  0  0  0  0
  153.2956  141.4174  160.1195 H   0  0  0  0  0  0  0  0  0  0  0  0
  151.7168  140.9028  158.2672 H   0  0  0  0  0  0  0  0  0  0  0  0
  150.8692  141.5804  159.6325 H   0  0  0  0  0  0  0  0  0  0  0  0
  151.7263  143.0647  157.1126 H   0  0  0  0  0  0  0  0  0  0  0  0
  149.0218  142.6955  158.0942 H   0  0  0  0  0  0  0  0  0  0  0  0
  150.4168  140.5380  157.5016 H   0  0  0  0  0  0  0  0  0  0  0  0
  148.6723  140.6897  157.3957 H   0  0  0  0  0  0  0  0  0  0  0  0
  150.0759  141.8127  155.0342 H   0  0  0  0  0  0  0  0  0  0  0  0
  148.4339  140.7254  154.0447 H   0  0  0  0  0  0  0  0  0  0  0  0
  152.3710  140.6142  156.1683 H   0  0  0  0  0  0  0  0  0  0  0  0
  153.8654  138.7025  155.5640 H   0  0  0  0  0  0  0  0  0  0  0  0
  150.8368  136.7645  153.5270 H   0  0  0  0  0  0  0  0  0  0  0  0
  149.1971  138.5802  154.0360 H   0  0  0  0  0  0  0  0  0  0  0  0
  150.5944  145.0589  158.0602 H   0  0  0  0  0  0  0  0  0  0  0  0
  150.1611  144.1757  159.4993 H   0  0  0  0  0  0  0  0  0  0  0  0
  152.9807  144.7835  158.5305 H   0  0  0  0  0  0  0  0  0  0  0  0
  151.4456  146.0368  160.8433 H   0  0  0  0  0  0  0  0  0  0  0  0
  151.9273  146.8131  159.3433 H   0  0  0  0  0  0  0  0  0  0  0  0
  153.1540  146.3010  160.4938 H   0  0  0  0  0  0  0  0  0  0  0  0
  149.5110  143.0949  156.5824 H   0  0  0  0  0  0  0  0  0  0  0  0
  1  2  1  0  0  0  0
  1 19  1  0  0  0  0
  1 20  1  0  0  0  0
  1 21  1  0  0  0  0
  2 17  1  0  0  0  0
  2  3  1  0  0  0  0
  2 22  1  0  0  0  0
  3  4  1  0  0  0  0
  3 23  1  0  0  0  0
  3 24  1  0  0  0  0
  4  5  1  0  0  0  0
  4 25  1  0  0  0  0
  4 26  1  0  0  0  0
  5  6  1  0  0  0  0
  5 16  1  0  0  0  0
  5 27  1  0  0  0  0
  6  7  1  0  0  0  0
  6 28  1  0  0  0  0
  6 43  1  0  0  0  0
  7  8  1  0  0  0  0
  7 29  1  0  0  0  0
  7 30  1  0  0  0  0
  8  9  1  0  0  0  0
  8 10  1  0  0  0  0
  8 31  1  0  0  0  0
  9 32  1  0  0  0  0
 10 15  1  0  0  0  0
 10 11  2  0  0  0  0
 11 12  1  0  0  0  0
 11 33  1  0  0  0  0
 12 13  2  0  0  0  0
 12 34  1  0  0  0  0
 13 14  1  0  0  0  0
 14 15  2  0  0  0  0
 14 35  1  0  0  0  0
 15 36  1  0  0  0  0
 16 17  1  0  0  0  0
 16 37  1  0  0  0  0
 16 38  1  0  0  0  0
 17 18  1  0  0  0  0
 17 39  1  0  0  0  0
 18 40  1  0  0  0  0
 18 41  1  0  0  0  0
 18 42  1  0  0  0  0
M  CHG  1   6   1
M  END
> <s_m_source_file>
AV-unprocessed.smi

> <i_m_source_file_index>
3287

> <i_lp_mmshare_version>
43012

> <i_f3d_flags>
0

> <s_epik_input>
W0NIM11bQ0BASF0xW0NIMl1bQ0gyXVtDQEhdKFtDSDJdW0NASF0xW0NIM10pW05IXVtDSDJdW0NASF0oW09IXSljMltjSF1bY0hdbltjSF1bY0hdMg==

> <s_epik_cmdline>
J2VwaWtfcHl0aG9uJywgJy1waCcsICc3LjAnLCAnLXRuJywgJzgnLCAnLW1hJywgJzIwMCcsICctbWV0YWxfYmluZGluZycsICctaW1hZScsICc8aW5maWxlLm1hZT4nLCAnLW9tYWUnLCAnPG91dGZpbGUubWFlPic=

> <r_lp_tautomer_probability>
1

> <r_epik_Ionization_Penalty>
0.00537262

> <r_epik_Ionization_Penalty_Charging>
0.00321624

> <r_epik_Ionization_Penalty_Neutral>
0.00215638

> <r_epik_State_Penalty>
-0

> <r_epik_Charging_Adjusted_Penalty>
0.00321624

> <i_epik_Tot_Q>
1

> <i_epik_Tot_abs_Q>
1

> <r_epik_Metal_State_Penalty>
-0

> <b_epik_Metal_Only>
0

> <s_lp_Force_Field>
OPLS_2005

> <r_lp_Energy>
17.4427

> <b_lp_Chiralities_Consistent>
1

> <s_lp_Variant>
AV-unprocessed.smi:3287-2

> <Gold.Version>
5.8.1

> <Gold.Id.Protein>
6NUR|6NUR_protein|mol2

> <Gold.PLP.Fitness>
52.1006

> <Gold.PLP.PLP>
-43.6406

> <Gold.PLP.part.hbond>
-2.0000

> <Gold.PLP.part.metal>
0.0000

> <Gold.PLP.part.buried>
-2.3673

> <Gold.PLP.part.nonpolar>
-39.2168

> <Gold.PLP.part.repulsive>
0.1163

> <Gold.PLP.ligand.clash>
0.0000

> <Gold.PLP.ligand.torsion>
1.1494

> <Gold.PLP.Chemscore.Hbond>
2.6027

> <Gold.PLP.Chemscore.CHOScore>
0.9688

> <Gold.PLP.Chemscore.Metal>
0.0000

> <Gold.Chemscore.Hbonds>
donor molecule, donor type, donor heavy atom, donor atom, acceptor molecule, acceptor atom, score
      L1  H     6    43       P1  8028  2.00
      P1  H 10752 10764       L1    13  0.58
      L1  C    14    35       P1  7948  0.13
      L1  C    14    35       P1  7949  0.82

> <Gold.PLP.Chemscore.Internal.Correction>
0.0443

> <Gold.Rescore>
     Score         DG    S(hbond)    S(metal)    S(lipo)     H(rot)  DE(clash)    DE(int)     intcor
     20.63     -22.02       1.76        0.00     132.75       1.90       0.32       1.07       ----

> <Gold.Chemscore.Fitness>
20.6286

> <Gold.Chemscore.DG>
-22.0195

> <Gold.Chemscore.ZeroCoef>
-5.4800

> <Gold.Chemscore.Hbond>
1.7608

> <Gold.Chemscore.Metal>
0.0000

> <Gold.Chemscore.Lipo>
132.7460

> <Gold.Chemscore.Internal_Hbond>
0.0000

> <Gold.Chemscore.DEClash>
0.3210

> <Gold.Chemscore.DEInternal>
1.0699

> <Gold.Chemscore.Rot>
1.9035

> <Gold.Chemscore.Internal.Correction>
   9.000000E+99

> <Gold.Chemscore.Hbonds>
donor molecule, donor type, donor heavy atom, donor atom, acceptor molecule, acceptor atom, score
      L1  H     6    43       P1  8028  0.96
      P1  H 10752 10764       L1    13  0.16

> <Gold.Chemscore.Hbond.Weighted>
-5.8811

> <Gold.Chemscore.Metal.Weighted>
-0.0000

> <Gold.Chemscore.Lipo.Weighted>
-15.5313

> <Gold.Chemscore.Internal_Hbond.Weighted>
0.0000

> <Gold.Chemscore.DEClash.Weighted>
0.3210

> <Gold.Chemscore.DEInternal.Weighted>
1.0699

> <Gold.Chemscore.Rot.Weighted>
4.8729

> <Gold.Chemscore.Internal.Correction.Weighted>
   9.000000E+99

> <Gold.Protein.RotatedTorsions>
[ 6907 6896 6895 6894 ] final  -39.08 input  -60.11 | X-H torsion
[ 7974 7965 7964 7962 ] final -139.98 input  175.53 | X-H torsion
[ 8008 7997 7996 7995 ] final  -47.94 input   59.86 | X-H torsion
[ 10167 10162 10161 10158 ] final -165.99 input  -65.29 | X-H torsion
[ 10718 10713 10712 10709 ] final -179.08 input   66.30 | X-H torsion
[ 10763 10752 10751 10750 ] final  -84.65 input  -60.55 | X-H torsion
[ 11005 11000 10999 10996 ] final -109.96 input  -57.11 | X-H torsion

> <Gold.Protein.ActiveResidues>
 VAL166  LYS551  ARG553  GLY616  TRP617  ASP618  TYR619  PRO620  LYS621  CYS622 
 ASP623  PHE694  ASN695  SER759  ASP760  ASP761  ALA762  ILE779  LEU786  VAL792 
 PHE793  MET794  SER795  GLU796  ALA797  LYS798  CYS799  TRP800  GLU811  SER814 

> <Gold.Protein.RotatedAtoms>
  150.9947  134.9273  159.7919 H   0  0  0  0  0  0  0  0  0  0  0  0  # atno 6907 bound_to 6896
  152.5261  134.3234  159.9167 H   0  0  0  0  0  0  0  0  0  0  0  0  # atno 6908 bound_to 6896
  151.3240  133.3986  159.2691 H   0  0  0  0  0  0  0  0  0  0  0  0  # atno 6909 bound_to 6896
  144.8634  140.6254  143.5314 H   0  0  0  0  0  0  0  0  0  0  0  0  # atno 7974 bound_to 7965
  154.4022  140.1334  156.4258 H   0  0  0  0  0  0  0  0  0  0  0  0  # atno 8008 bound_to 7997
  155.7599  140.3486  155.5172 H   0  0  0  0  0  0  0  0  0  0  0  0  # atno 8009 bound_to 7997
  155.8869  140.0996  157.1436 H   0  0  0  0  0  0  0  0  0  0  0  0  # atno 8010 bound_to 7997
  139.6145  144.0748  152.1874 H   0  0  0  0  0  0  0  0  0  0  0  0  # atno 10167 bound_to 10162
  156.8538  130.9728  151.3090 H   0  0  0  0  0  0  0  0  0  0  0  0  # atno 10718 bound_to 10713
  154.6020  135.5513  153.7384 H   0  0  0  0  0  0  0  0  0  0  0  0  # atno 10763 bound_to 10752
  153.0158  135.6368  154.1701 H   0  0  0  0  0  0  0  0  0  0  0  0  # atno 10764 bound_to 10752
  154.1640  135.2895  155.3080 H   0  0  0  0  0  0  0  0  0  0  0  0  # atno 10765 bound_to 10752
  141.0818  133.9206  157.2272 H   0  0  0  0  0  0  0  0  0  0  0  0  # atno 11005 bound_to 11000
  145.4269  139.1555  143.4043 LP  0  0  0  0  0  0  0  0  0  0  0  0  # atno 17320 bound_to 7965
  146.2877  140.4383  142.8751 LP  0  0  0  0  0  0  0  0  0  0  0  0  # atno 17321 bound_to 7965
  140.0375  144.6033  150.7438 LP  0  0  0  0  0  0  0  0  0  0  0  0  # atno 17342 bound_to 10162
  140.7341  143.2725  151.3843 LP  0  0  0  0  0  0  0  0  0  0  0  0  # atno 17343 bound_to 10162
  157.6288  130.8713  149.9237 LP  0  0  0  0  0  0  0  0  0  0  0  0  # atno 17370 bound_to 10713
  156.0813  130.3673  150.0574 LP  0  0  0  0  0  0  0  0  0  0  0  0  # atno 17371 bound_to 10713
  139.9633  135.0148  156.9319 LP  0  0  0  0  0  0  0  0  0  0  0  0  # atno 17394 bound_to 11000
  140.5451  134.0682  155.7352 LP  0  0  0  0  0  0  0  0  0  0  0  0  # atno 17395 bound_to 11000

$$$$
