AV-unprocessed.smi:1412|AV-procd|sdf|5746|dock5
  -GOLD-   22720 5383D 1   1.00000     0.00000
 Structure written by MMmdl.
 41 42  0  0  0  0  0  0  0  0  3 V2000
  140.7980  136.1856  153.6678 C   0  0  0  0  0  0  0  0  0  0  0  0
  141.6357  134.9371  153.3398 C   0  0  0  0  0  0  0  0  0  0  0  0
  143.1844  135.1096  153.3948 C   0  0  1  0  0  0  0  0  0  0  0  0
  143.5980  136.3178  152.5121 C   0  0  0  0  0  0  0  0  0  0  0  0
  143.6424  135.4325  154.8494 C   0  0  0  0  0  0  0  0  0  0  0  0
  143.3203  134.3524  155.7841 N   0  0  0  0  0  0  0  0  0  0  0  0
  143.6136  134.3086  157.0915 C   0  0  0  0  0  0  0  0  0  0  0  0
  144.3185  135.1833  157.5983 O   0  0  0  0  0  0  0  0  0  0  0  0
  143.0425  133.2697  157.7385 N   0  5  0  0  0  0  0  0  0  0  0  0
  143.6492  132.7372  158.8119 C   0  0  0  0  0  0  0  0  0  0  0  0
  144.9463  132.9558  159.0831 N   0  0  0  0  0  0  0  0  0  0  0  0
  145.3783  132.3130  160.2348 N   0  0  0  0  0  0  0  0  0  0  0  0
  144.3890  131.6299  160.8101 C   0  0  0  0  0  0  0  0  0  0  0  0
  142.8400  131.7098  159.9972 S   0  0  0  0  0  0  0  0  0  0  0  0
  143.8810  133.8522  152.9324 N   0  3  0  0  0  0  0  0  0  0  0  0
  143.6080  133.4457  151.5262 C   0  0  0  0  0  0  0  0  0  0  0  0
  144.1206  132.0192  151.2830 C   0  0  0  0  0  0  0  0  0  0  0  0
  145.5213  131.9875  151.5226 O   0  0  0  0  0  0  0  0  0  0  0  0
  145.8346  132.3211  152.8686 C   0  0  0  0  0  0  0  0  0  0  0  0
  145.3426  133.7431  153.1967 C   0  0  0  0  0  0  0  0  0  0  0  0
  139.7349  135.9463  153.6361 H   0  0  0  0  0  0  0  0  0  0  0  0
  140.9646  136.9893  152.9513 H   0  0  0  0  0  0  0  0  0  0  0  0
  141.0110  136.5685  154.6654 H   0  0  0  0  0  0  0  0  0  0  0  0
  141.3238  134.1573  154.0346 H   0  0  0  0  0  0  0  0  0  0  0  0
  141.3442  134.5883  152.3487 H   0  0  0  0  0  0  0  0  0  0  0  0
  143.2811  137.2648  152.9493 H   0  0  0  0  0  0  0  0  0  0  0  0
  143.1517  136.2695  151.5183 H   0  0  0  0  0  0  0  0  0  0  0  0
  144.6802  136.3793  152.3907 H   0  0  0  0  0  0  0  0  0  0  0  0
  144.7233  135.5670  154.8865 H   0  0  0  0  0  0  0  0  0  0  0  0
  143.2299  136.3809  155.1943 H   0  0  0  0  0  0  0  0  0  0  0  0
  142.7582  133.5967  155.4196 H   0  0  0  0  0  0  0  0  0  0  0  0
  144.5721  131.0769  161.7191 H   0  0  0  0  0  0  0  0  0  0  0  0
  142.5451  133.4883  151.2970 H   0  0  0  0  0  0  0  0  0  0  0  0
  144.1071  134.1242  150.8333 H   0  0  0  0  0  0  0  0  0  0  0  0
  143.6052  131.3004  151.9227 H   0  0  0  0  0  0  0  0  0  0  0  0
  143.9324  131.7225  150.2512 H   0  0  0  0  0  0  0  0  0  0  0  0
  145.3865  131.5920  153.5459 H   0  0  0  0  0  0  0  0  0  0  0  0
  146.9143  132.2573  153.0044 H   0  0  0  0  0  0  0  0  0  0  0  0
  145.8848  134.4791  152.6020 H   0  0  0  0  0  0  0  0  0  0  0  0
  145.5849  133.9292  154.2413 H   0  0  0  0  0  0  0  0  0  0  0  0
  143.4665  133.1271  153.5023 H   0  0  0  0  0  0  0  0  0  0  0  0
  1  2  1  0  0  0  0
  1 21  1  0  0  0  0
  1 22  1  0  0  0  0
  1 23  1  0  0  0  0
  2  3  1  0  0  0  0
  2 24  1  0  0  0  0
  2 25  1  0  0  0  0
  3  4  1  0  0  0  0
  3  5  1  0  0  0  0
  3 15  1  0  0  0  0
  4 26  1  0  0  0  0
  4 27  1  0  0  0  0
  4 28  1  0  0  0  0
  5  6  1  0  0  0  0
  5 29  1  0  0  0  0
  5 30  1  0  0  0  0
  6  7  1  0  0  0  0
  6 31  1  0  0  0  0
  7  8  2  0  0  0  0
  7  9  1  0  0  0  0
  9 10  1  0  0  0  0
 10 14  1  0  0  0  0
 10 11  2  0  0  0  0
 11 12  1  0  0  0  0
 12 13  2  0  0  0  0
 13 14  1  0  0  0  0
 13 32  1  0  0  0  0
 15 20  1  0  0  0  0
 15 16  1  0  0  0  0
 15 41  1  0  0  0  0
 16 17  1  0  0  0  0
 16 33  1  0  0  0  0
 16 34  1  0  0  0  0
 17 18  1  0  0  0  0
 17 35  1  0  0  0  0
 17 36  1  0  0  0  0
 18 19  1  0  0  0  0
 19 20  1  0  0  0  0
 19 37  1  0  0  0  0
 19 38  1  0  0  0  0
 20 39  1  0  0  0  0
 20 40  1  0  0  0  0
M  CHG  1   9  -1
M  CHG  1  15   1
M  END
> <s_m_source_file>
AV-unprocessed.smi

> <i_m_source_file_index>
1412

> <i_lp_mmshare_version>
43012

> <i_f3d_flags>
0

> <s_epik_input>
W0NIMl0xW0NIMl1PW0NIMl1bQ0gyXU4xW0NAQF0oW0NIM10pKFtDSDJdW0NIM10pW0NIMl1bTkhdQyg9TylbTkhdYzJubltjSF1zMg==

> <s_epik_cmdline>
J2VwaWtfcHl0aG9uJywgJy1waCcsICc3LjAnLCAnLXRuJywgJzgnLCAnLW1hJywgJzIwMCcsICctbWV0YWxfYmluZGluZycsICctaW1hZScsICc8aW5maWxlLm1hZT4nLCAnLW9tYWUnLCAnPG91dGZpbGUubWFlPic=

> <r_lp_tautomer_probability>
1

> <r_epik_Ionization_Penalty>
4.35651

> <r_epik_Ionization_Penalty_Charging>
4.3235

> <r_epik_Ionization_Penalty_Neutral>
0.0330098

> <r_epik_State_Penalty>
4.4846

> <r_epik_Charging_Adjusted_Penalty>
8.8081

> <i_epik_Tot_Q>
0

> <i_epik_Tot_abs_Q>
2

> <r_epik_Metal_State_Penalty>
1.11611

> <b_epik_Metal_Only>
1

> <s_lp_Force_Field>
OPLS_2005

> <r_lp_Energy>
23.2339

> <b_lp_Chiralities_Consistent>
1

> <s_lp_Variant>
AV-unprocessed.smi:1412-7

> <Gold.Version>
5.8.1

> <Gold.Id.Protein>
6NUR|6NUR_protein|mol2

> <Gold.PLP.Fitness>
36.2403

> <Gold.PLP.PLP>
-26.0820

> <Gold.PLP.part.hbond>
-3.8524

> <Gold.PLP.part.metal>
0.0000

> <Gold.PLP.part.buried>
-5.4926

> <Gold.PLP.part.nonpolar>
-17.6649

> <Gold.PLP.part.repulsive>
0.2554

> <Gold.PLP.ligand.clash>
0.0000

> <Gold.PLP.ligand.torsion>
0.4134

> <Gold.PLP.Chemscore.Hbond>
3.5600

> <Gold.PLP.Chemscore.CHOScore>
0.0000

> <Gold.PLP.Chemscore.Metal>
0.0000

> <Gold.Chemscore.Hbonds>
donor molecule, donor type, donor heavy atom, donor atom, acceptor molecule, acceptor atom, score
      L1  H     6    31       P1 10957  0.98
      L1  H    15    41       P1 10957  2.00
      P1  H 11000 11005       L1     9  0.59

> <Gold.PLP.Chemscore.Internal.Correction>
0.3051

> <Gold.Rescore>
     Score         DG    S(hbond)    S(metal)    S(lipo)     H(rot)  DE(clash)    DE(int)     intcor
     11.63     -13.48       1.97        0.00      53.31       1.88       0.02       1.83       ----

> <Gold.Chemscore.Fitness>
11.6319

> <Gold.Chemscore.DG>
-13.4754

> <Gold.Chemscore.ZeroCoef>
-5.4800

> <Gold.Chemscore.Hbond>
1.9658

> <Gold.Chemscore.Metal>
0.0000

> <Gold.Chemscore.Lipo>
53.3084

> <Gold.Chemscore.Internal_Hbond>
0.0000

> <Gold.Chemscore.DEClash>
0.0174

> <Gold.Chemscore.DEInternal>
1.8261

> <Gold.Chemscore.Rot>
1.8779

> <Gold.Chemscore.Internal.Correction>
   9.000000E+99

> <Gold.Chemscore.Hbonds>
donor molecule, donor type, donor heavy atom, donor atom, acceptor molecule, acceptor atom, score
      L1  H     6    31       P1 10957  0.93
      L1  H    15    41       P1 10957  0.87
      P1  H 11000 11005       L1     9  0.04

> <Gold.Chemscore.Hbond.Weighted>
-6.5657

> <Gold.Chemscore.Metal.Weighted>
-0.0000

> <Gold.Chemscore.Lipo.Weighted>
-6.2371

> <Gold.Chemscore.Internal_Hbond.Weighted>
0.0000

> <Gold.Chemscore.DEClash.Weighted>
0.0174

> <Gold.Chemscore.DEInternal.Weighted>
1.8261

> <Gold.Chemscore.Rot.Weighted>
4.8074

> <Gold.Chemscore.Internal.Correction.Weighted>
   9.000000E+99

> <Gold.Protein.RotatedTorsions>
[ 6907 6896 6895 6894 ] final  -49.06 input  -60.11 | X-H torsion
[ 7974 7965 7964 7962 ] final  -87.53 input  175.53 | X-H torsion
[ 8008 7997 7996 7995 ] final -154.59 input   59.86 | X-H torsion
[ 10167 10162 10161 10158 ] final   99.10 input  -65.29 | X-H torsion
[ 10718 10713 10712 10709 ] final -105.37 input   66.30 | X-H torsion
[ 10763 10752 10751 10750 ] final -134.69 input  -60.55 | X-H torsion
[ 11005 11000 10999 10996 ] final -105.48 input  -57.11 | X-H torsion

> <Gold.Protein.ActiveResidues>
 VAL166  LYS551  ARG553  GLY616  TRP617  ASP618  TYR619  PRO620  LYS621  CYS622 
 ASP623  PHE694  ASN695  SER759  ASP760  ASP761  ALA762  ILE779  LEU786  VAL792 
 PHE793  MET794  SER795  GLU796  ALA797  LYS798  CYS799  TRP800  GLU811  SER814 

> <Gold.Protein.RotatedAtoms>
  150.8843  134.8238  159.7247 H   0  0  0  0  0  0  0  0  0  0  0  0  # atno 6907 bound_to 6896
  152.4797  134.4747  159.9656 H   0  0  0  0  0  0  0  0  0  0  0  0  # atno 6908 bound_to 6896
  151.4818  133.3506  159.2875 H   0  0  0  0  0  0  0  0  0  0  0  0  # atno 6909 bound_to 6896
  145.4653  140.9560  143.1947 H   0  0  0  0  0  0  0  0  0  0  0  0  # atno 7974 bound_to 7965
  155.6887  140.0753  157.2456 H   0  0  0  0  0  0  0  0  0  0  0  0  # atno 8008 bound_to 7997
  154.4092  140.1668  156.2115 H   0  0  0  0  0  0  0  0  0  0  0  0  # atno 8009 bound_to 7997
  155.9471  140.3380  155.6379 H   0  0  0  0  0  0  0  0  0  0  0  0  # atno 8010 bound_to 7997
  139.7648  144.6942  151.0240 H   0  0  0  0  0  0  0  0  0  0  0  0  # atno 10167 bound_to 10162
  156.0343  130.5560  150.7530 H   0  0  0  0  0  0  0  0  0  0  0  0  # atno 10718 bound_to 10713
  154.8715  135.3727  154.4776 H   0  0  0  0  0  0  0  0  0  0  0  0  # atno 10763 bound_to 10752
  153.5432  135.7026  153.5631 H   0  0  0  0  0  0  0  0  0  0  0  0  # atno 10764 bound_to 10752
  153.3784  135.4003  155.1803 H   0  0  0  0  0  0  0  0  0  0  0  0  # atno 10765 bound_to 10752
  141.1051  133.8811  157.1739 H   0  0  0  0  0  0  0  0  0  0  0  0  # atno 11005 bound_to 11000
  144.7978  139.6201  143.7085 LP  0  0  0  0  0  0  0  0  0  0  0  0  # atno 17320 bound_to 7965
  146.2427  139.6035  142.9480 LP  0  0  0  0  0  0  0  0  0  0  0  0  # atno 17321 bound_to 7965
  140.7810  143.4655  151.0218 LP  0  0  0  0  0  0  0  0  0  0  0  0  # atno 17342 bound_to 10162
  139.8341  143.7652  152.3180 LP  0  0  0  0  0  0  0  0  0  0  0  0  # atno 17343 bound_to 10162
  157.5069  131.0923  151.0246 LP  0  0  0  0  0  0  0  0  0  0  0  0  # atno 17370 bound_to 10713
  157.0612  130.5826  149.5386 LP  0  0  0  0  0  0  0  0  0  0  0  0  # atno 17371 bound_to 10713
  139.9918  135.0061  156.9993 LP  0  0  0  0  0  0  0  0  0  0  0  0  # atno 17394 bound_to 11000
  140.4922  134.1181  155.7235 LP  0  0  0  0  0  0  0  0  0  0  0  0  # atno 17395 bound_to 11000

$$$$
