AV-unprocessed.smi:1005|AV-procd|sdf|4376|dock6
  -GOLD-   22720 2293D 1   1.00000     0.00000
 Structure written by MMmdl.
 57 59  0  0  0  0  0  0  0  0  3 V2000
  152.9981  142.9608  161.2035 C   0  0  0  0  0  0  0  0  0  0  0  0
  152.3248  142.6670  159.8736 C   0  0  0  0  0  0  0  0  0  0  0  0
  152.5498  141.4110  159.2669 C   0  0  0  0  0  0  0  0  0  0  0  0
  151.9158  141.1697  158.0540 C   0  0  0  0  0  0  0  0  0  0  0  0
  151.9315  140.0481  157.2222 N   0  3  0  0  0  0  0  0  0  0  0  0
  151.1456  140.2779  156.1344 C   0  0  0  0  0  0  0  0  0  0  0  0
  150.6266  141.5294  156.2592 N   0  0  0  0  0  0  0  0  0  0  0  0
  149.7222  142.2585  155.3591 C   0  0  0  0  0  0  0  0  0  0  0  0
  148.8306  141.3250  154.5161 C   0  0  2  0  0  0  0  0  0  0  0  0
  149.6458  140.7635  153.5092 O   0  0  0  0  0  0  0  0  0  0  0  0
  147.6485  142.0503  153.8371 C   0  0  0  0  0  0  0  0  0  0  0  0
  146.7597  142.7906  154.7337 N   0  0  0  0  0  0  0  0  0  0  0  0
  146.1694  141.8977  155.7249 C   0  0  0  0  0  0  0  0  0  0  0  0
  145.2266  142.6442  156.6816 C   0  0  0  0  0  0  0  0  0  0  0  0
  144.2146  143.3013  155.9268 O   0  0  0  0  0  0  0  0  0  0  0  0
  144.7384  144.2307  154.9811 C   0  0  2  0  0  0  0  0  0  0  0  0
  143.5518  144.8648  154.2341 C   0  0  0  0  0  0  0  0  0  0  0  0
  142.8083  145.8397  155.0723 N   0  3  0  0  0  0  0  0  0  0  0  0
  143.6418  146.9733  155.5349 C   0  0  0  0  0  0  0  0  0  0  0  0
  141.5679  146.3092  154.4161 C   0  0  0  0  0  0  0  0  0  0  0  0
  145.6856  143.4808  154.0211 C   0  0  0  0  0  0  0  0  0  0  0  0
  151.0844  142.1271  157.4402 C   0  0  0  0  0  0  0  0  0  0  0  0
  150.8562  143.3716  158.0235 C   0  0  0  0  0  0  0  0  0  0  0  0
  151.4872  143.6342  159.2604 C   0  0  0  0  0  0  0  0  0  0  0  0
  151.2474  144.9797  159.9240 C   0  0  0  0  0  0  0  0  0  0  0  0
  153.6520  142.1432  161.5088 H   0  0  0  0  0  0  0  0  0  0  0  0
  152.2517  143.1014  161.9858 H   0  0  0  0  0  0  0  0  0  0  0  0
  153.6049  143.8641  161.1365 H   0  0  0  0  0  0  0  0  0  0  0  0
  153.1851  140.6692  159.7286 H   0  0  0  0  0  0  0  0  0  0  0  0
  150.9663  139.5914  155.3193 H   0  0  0  0  0  0  0  0  0  0  0  0
  149.1252  142.9642  155.9373 H   0  0  0  0  0  0  0  0  0  0  0  0
  150.3508  142.8618  154.7025 H   0  0  0  0  0  0  0  0  0  0  0  0
  148.4763  140.5188  155.1574 H   0  0  0  0  0  0  0  0  0  0  0  0
  149.1306  140.1401  153.0200 H   0  0  0  0  0  0  0  0  0  0  0  0
  148.0264  142.7390  153.0814 H   0  0  0  0  0  0  0  0  0  0  0  0
  147.0688  141.3037  153.2918 H   0  0  0  0  0  0  0  0  0  0  0  0
  145.6166  141.1011  155.2238 H   0  0  0  0  0  0  0  0  0  0  0  0
  146.9569  141.4132  156.3035 H   0  0  0  0  0  0  0  0  0  0  0  0
  144.7581  141.9455  157.3749 H   0  0  0  0  0  0  0  0  0  0  0  0
  145.7768  143.3717  157.2805 H   0  0  0  0  0  0  0  0  0  0  0  0
  145.3081  144.9978  155.5068 H   0  0  0  0  0  0  0  0  0  0  0  0
  143.8888  145.3538  153.3187 H   0  0  0  0  0  0  0  0  0  0  0  0
  142.8788  144.0639  153.9237 H   0  0  0  0  0  0  0  0  0  0  0  0
  144.0188  147.5516  154.6903 H   0  0  0  0  0  0  0  0  0  0  0  0
  144.4932  146.6320  156.1224 H   0  0  0  0  0  0  0  0  0  0  0  0
  143.0596  147.6421  156.1697 H   0  0  0  0  0  0  0  0  0  0  0  0
  141.7936  146.8596  153.5016 H   0  0  0  0  0  0  0  0  0  0  0  0
  141.0044  146.9651  155.0807 H   0  0  0  0  0  0  0  0  0  0  0  0
  140.9217  145.4687  154.1602 H   0  0  0  0  0  0  0  0  0  0  0  0
  146.1008  144.1987  153.3151 H   0  0  0  0  0  0  0  0  0  0  0  0
  145.1126  142.7614  153.4337 H   0  0  0  0  0  0  0  0  0  0  0  0
  150.2175  144.1092  157.5606 H   0  0  0  0  0  0  0  0  0  0  0  0
  150.5305  145.5796  159.3626 H   0  0  0  0  0  0  0  0  0  0  0  0
  152.1777  145.5443  159.9885 H   0  0  0  0  0  0  0  0  0  0  0  0
  150.8511  144.8471  160.9311 H   0  0  0  0  0  0  0  0  0  0  0  0
  142.5117  145.3365  155.8970 H   0  0  0  0  0  0  0  0  0  0  0  0
  152.4411  139.1884  157.3821 H   0  0  0  0  0  0  0  0  0  0  0  0
  1  2  1  0  0  0  0
  1 26  1  0  0  0  0
  1 27  1  0  0  0  0
  1 28  1  0  0  0  0
  2 24  1  0  0  0  0
  2  3  2  0  0  0  0
  3  4  1  0  0  0  0
  3 29  1  0  0  0  0
  4 22  2  0  0  0  0
  4  5  1  0  0  0  0
  5  6  2  0  0  0  0
  5 57  1  0  0  0  0
  6  7  1  0  0  0  0
  6 30  1  0  0  0  0
  7  8  1  0  0  0  0
  7 22  1  0  0  0  0
  8  9  1  0  0  0  0
  8 31  1  0  0  0  0
  8 32  1  0  0  0  0
  9 10  1  0  0  0  0
  9 11  1  0  0  0  0
  9 33  1  0  0  0  0
 10 34  1  0  0  0  0
 11 12  1  0  0  0  0
 11 35  1  0  0  0  0
 11 36  1  0  0  0  0
 12 21  1  0  0  0  0
 12 13  1  0  0  0  0
 13 14  1  0  0  0  0
 13 37  1  0  0  0  0
 13 38  1  0  0  0  0
 14 15  1  0  0  0  0
 14 39  1  0  0  0  0
 14 40  1  0  0  0  0
 15 16  1  0  0  0  0
 16 17  1  0  0  0  0
 16 21  1  0  0  0  0
 16 41  1  0  0  0  0
 17 18  1  0  0  0  0
 17 42  1  0  0  0  0
 17 43  1  0  0  0  0
 18 19  1  0  0  0  0
 18 20  1  0  0  0  0
 18 56  1  0  0  0  0
 19 44  1  0  0  0  0
 19 45  1  0  0  0  0
 19 46  1  0  0  0  0
 20 47  1  0  0  0  0
 20 48  1  0  0  0  0
 20 49  1  0  0  0  0
 21 50  1  0  0  0  0
 21 51  1  0  0  0  0
 22 23  1  0  0  0  0
 23 24  2  0  0  0  0
 23 52  1  0  0  0  0
 24 25  1  0  0  0  0
 25 53  1  0  0  0  0
 25 54  1  0  0  0  0
 25 55  1  0  0  0  0
M  CHG  1   5   1
M  CHG  1  18   1
M  END
> <s_m_source_file>
AV-unprocessed.smi

> <i_m_source_file_index>
1005

> <i_lp_mmshare_version>
43012

> <i_f3d_flags>
0

> <s_epik_input>
W0NIM11jKFtjSF0xKWMoW0NIM10pW2NIXWMoYzEyKW4oW2NIXW4yKVtDSDJdW0NASF0oW09IXSlbQ0gyXU4zW0NIMl1bQ0gyXU9bQ0BIXShbQ0gyXTMpW0NIMl1OKFtDSDNdKVtDSDNd

> <s_epik_cmdline>
J2VwaWtfcHl0aG9uJywgJy1waCcsICc3LjAnLCAnLXRuJywgJzgnLCAnLW1hJywgJzIwMCcsICctbWV0YWxfYmluZGluZycsICctaW1hZScsICc8aW5maWxlLm1hZT4nLCAnLW9tYWUnLCAnPG91dGZpbGUubWFlPic=

> <r_epik_Ionization_Penalty>
1.3281

> <r_epik_Ionization_Penalty_Charging>
1.21988

> <r_epik_Ionization_Penalty_Neutral>
0.10822

> <r_epik_State_Penalty>
1.32886

> <r_epik_Charging_Adjusted_Penalty>
2.54875

> <i_epik_Tot_Q>
2

> <i_epik_Tot_abs_Q>
2

> <r_epik_Metal_State_Penalty>
5.33912

> <b_epik_Metal_Only>
0

> <s_lp_Force_Field>
OPLS_2005

> <r_lp_Energy>
45.8235

> <b_lp_Chiralities_Consistent>
1

> <s_lp_Variant>
AV-unprocessed.smi:1005-15

> <Gold.Version>
5.8.1

> <Gold.Id.Protein>
6NUR|6NUR_protein|mol2

> <Gold.PLP.Fitness>
55.1921

> <Gold.PLP.PLP>
-51.3615

> <Gold.PLP.part.hbond>
-2.7179

> <Gold.PLP.part.metal>
0.0000

> <Gold.PLP.part.buried>
-5.0990

> <Gold.PLP.part.nonpolar>
-44.2150

> <Gold.PLP.part.repulsive>
1.3478

> <Gold.PLP.ligand.clash>
0.0000

> <Gold.PLP.ligand.torsion>
0.5809

> <Gold.PLP.Chemscore.Hbond>
1.6400

> <Gold.PLP.Chemscore.CHOScore>
0.0000

> <Gold.PLP.Chemscore.Metal>
0.0000

> <Gold.Chemscore.Hbonds>
donor molecule, donor type, donor heavy atom, donor atom, acceptor molecule, acceptor atom, score
      L1  H    10    34       P1  7957  0.27
      P1  H  7989  7998       L1    10  0.37
      P1  H  8011  8017       L1    10  0.90

> <Gold.PLP.Chemscore.Internal.Correction>
0.0725

> <Gold.Rescore>
     Score         DG    S(hbond)    S(metal)    S(lipo)     H(rot)  DE(clash)    DE(int)     intcor
     15.22     -17.74       0.76        0.00     137.54       2.49       1.90       0.62       ----

> <Gold.Chemscore.Fitness>
15.2215

> <Gold.Chemscore.DG>
-17.7376

> <Gold.Chemscore.ZeroCoef>
-5.4800

> <Gold.Chemscore.Hbond>
0.7602

> <Gold.Chemscore.Metal>
0.0000

> <Gold.Chemscore.Lipo>
137.5402

> <Gold.Chemscore.Internal_Hbond>
0.0000

> <Gold.Chemscore.DEClash>
1.8953

> <Gold.Chemscore.DEInternal>
0.6208

> <Gold.Chemscore.Rot>
2.4897

> <Gold.Chemscore.Internal.Correction>
   9.000000E+99

> <Gold.Chemscore.Hbonds>
donor molecule, donor type, donor heavy atom, donor atom, acceptor molecule, acceptor atom, score
      L1  H    10    34       P1  7957  0.28
      P1  H  7989  7998       L1    10  0.35
      P1  H  8011  8017       L1    10  0.09

> <Gold.Chemscore.Hbond.Weighted>
-2.5390

> <Gold.Chemscore.Metal.Weighted>
-0.0000

> <Gold.Chemscore.Lipo.Weighted>
-16.0922

> <Gold.Chemscore.Internal_Hbond.Weighted>
0.0000

> <Gold.Chemscore.DEClash.Weighted>
1.8953

> <Gold.Chemscore.DEInternal.Weighted>
0.6208

> <Gold.Chemscore.Rot.Weighted>
6.3737

> <Gold.Chemscore.Internal.Correction.Weighted>
   9.000000E+99

> <Gold.Protein.RotatedTorsions>
[ 6907 6896 6895 6894 ] final  -56.03 input  -60.11 | X-H torsion
[ 7974 7965 7964 7962 ] final  162.30 input  175.53 | X-H torsion
[ 8008 7997 7996 7995 ] final  -55.87 input   59.86 | X-H torsion
[ 10167 10162 10161 10158 ] final  105.36 input  -65.29 | X-H torsion
[ 10718 10713 10712 10709 ] final   93.20 input   66.30 | X-H torsion
[ 10763 10752 10751 10750 ] final   28.20 input  -60.55 | X-H torsion
[ 11005 11000 10999 10996 ] final   56.00 input  -57.11 | X-H torsion

> <Gold.Protein.ActiveResidues>
 VAL166  LYS551  ARG553  GLY616  TRP617  ASP618  TYR619  PRO620  LYS621  CYS622 
 ASP623  PHE694  ASN695  SER759  ASP760  ASP761  ALA762  ILE779  LEU786  VAL792 
 PHE793  MET794  SER795  GLU796  ALA797  LYS798  CYS799  TRP800  GLU811  SER814 

> <Gold.Protein.RotatedAtoms>
  150.8202  134.7405  159.6765 H   0  0  0  0  0  0  0  0  0  0  0  0  # atno 6907 bound_to 6896
  152.4318  134.5760  159.9944 H   0  0  0  0  0  0  0  0  0  0  0  0  # atno 6908 bound_to 6896
  151.5946  133.3325  159.3070 H   0  0  0  0  0  0  0  0  0  0  0  0  # atno 6909 bound_to 6896
  144.7643  139.8020  143.6321 H   0  0  0  0  0  0  0  0  0  0  0  0  # atno 7974 bound_to 7965
  154.4210  140.1143  156.5546 H   0  0  0  0  0  0  0  0  0  0  0  0  # atno 8008 bound_to 7997
  155.6375  140.3496  155.4684 H   0  0  0  0  0  0  0  0  0  0  0  0  # atno 8009 bound_to 7997
  155.9898  140.1177  157.0638 H   0  0  0  0  0  0  0  0  0  0  0  0  # atno 8010 bound_to 7997
  139.7099  144.7079  151.1044 H   0  0  0  0  0  0  0  0  0  0  0  0  # atno 10167 bound_to 10162
  157.6955  131.0470  150.3997 H   0  0  0  0  0  0  0  0  0  0  0  0  # atno 10718 bound_to 10713
  153.0507  135.6519  154.0702 H   0  0  0  0  0  0  0  0  0  0  0  0  # atno 10763 bound_to 10752
  154.0390  135.2905  155.3359 H   0  0  0  0  0  0  0  0  0  0  0  0  # atno 10764 bound_to 10752
  154.6793  135.5326  153.8308 H   0  0  0  0  0  0  0  0  0  0  0  0  # atno 10765 bound_to 10752
  140.0563  134.5665  155.9204 H   0  0  0  0  0  0  0  0  0  0  0  0  # atno 11005 bound_to 11000
  146.1737  139.4898  142.9911 LP  0  0  0  0  0  0  0  0  0  0  0  0  # atno 17320 bound_to 7965
  145.6518  141.0261  143.1756 LP  0  0  0  0  0  0  0  0  0  0  0  0  # atno 17321 bound_to 7965
  140.7731  143.5307  150.9427 LP  0  0  0  0  0  0  0  0  0  0  0  0  # atno 17342 bound_to 10162
  139.8991  143.6858  152.3134 LP  0  0  0  0  0  0  0  0  0  0  0  0  # atno 17343 bound_to 10162
  156.4392  130.3988  149.6709 LP  0  0  0  0  0  0  0  0  0  0  0  0  # atno 17370 bound_to 10713
  156.3898  130.7621  151.2621 LP  0  0  0  0  0  0  0  0  0  0  0  0  # atno 17371 bound_to 10713
  141.1953  133.6587  156.5638 LP  0  0  0  0  0  0  0  0  0  0  0  0  # atno 17394 bound_to 11000
  140.3839  134.7499  157.4679 LP  0  0  0  0  0  0  0  0  0  0  0  0  # atno 17395 bound_to 11000

$$$$
