AV-unprocessed.smi:1506|AV-procd|sdf|6077|dock9
  -GOLD-   22720 6203D 1   1.00000     0.00000
 Structure written by MMmdl.
 39 41  0  0  0  0  0  0  0  0  1 V2000
  152.4044  142.7843  161.4914 C   0  0  0  0  0  0  0  0  0  0  0  0
  152.0096  143.0013  160.0450 C   0  0  0  0  0  0  0  0  0  0  0  0
  152.0762  144.2871  159.4731 C   0  0  0  0  0  0  0  0  0  0  0  0
  151.7077  144.4774  158.1285 C   0  0  0  0  0  0  0  0  0  0  0  0
  151.2743  143.3862  157.3511 C   0  0  0  0  0  0  0  0  0  0  0  0
  151.2067  142.0867  157.9142 C   0  0  0  0  0  0  0  0  0  0  0  0
  150.7990  140.9637  157.2266 O   0  0  0  0  0  0  0  0  0  0  0  0
  150.8995  140.9696  155.8086 C   0  0  0  0  0  0  0  0  0  0  0  0
  149.5395  141.3605  155.2125 C   0  0  1  0  0  0  0  0  0  0  0  0
  149.5756  141.1128  153.8209 O   0  0  0  0  0  0  0  0  0  0  0  0
  148.3729  140.5831  155.8532 C   0  0  0  0  0  0  0  0  0  0  0  0
  147.2586  141.4437  156.2089 N   0  0  0  0  0  0  0  0  0  0  0  0
  146.7332  141.6222  157.4360 C   0  0  0  0  0  0  0  0  0  0  0  0
  145.7073  142.4618  157.5435 N   0  0  0  0  0  0  0  0  0  0  0  0
  145.5461  142.8758  156.2324 C   0  0  0  0  0  0  0  0  0  0  0  0
  144.6185  143.7768  155.6618 C   0  0  0  0  0  0  0  0  0  0  0  0
  144.6451  144.0488  154.2779 C   0  0  0  0  0  0  0  0  0  0  0  0
  145.5984  143.4274  153.4452 C   0  0  0  0  0  0  0  0  0  0  0  0
  146.5331  142.5266  153.9908 C   0  0  0  0  0  0  0  0  0  0  0  0
  146.5019  142.2563  155.3715 C   0  0  0  0  0  0  0  0  0  0  0  0
  151.5773  141.9105  159.2635 C   0  0  0  0  0  0  0  0  0  0  0  0
  152.5042  143.7318  162.0218 H   0  0  0  0  0  0  0  0  0  0  0  0
  153.3581  142.2587  161.5459 H   0  0  0  0  0  0  0  0  0  0  0  0
  151.6522  142.1859  162.0061 H   0  0  0  0  0  0  0  0  0  0  0  0
  152.4096  145.1302  160.0606 H   0  0  0  0  0  0  0  0  0  0  0  0
  151.7577  145.4634  157.6907 H   0  0  0  0  0  0  0  0  0  0  0  0
  151.0000  143.5732  156.3243 H   0  0  0  0  0  0  0  0  0  0  0  0
  151.6569  141.6944  155.5046 H   0  0  0  0  0  0  0  0  0  0  0  0
  151.2008  139.9889  155.4364 H   0  0  0  0  0  0  0  0  0  0  0  0
  149.3848  142.4314  155.3503 H   0  0  0  0  0  0  0  0  0  0  0  0
  148.9145  140.4696  153.6147 H   0  0  0  0  0  0  0  0  0  0  0  0
  148.0123  139.8069  155.1769 H   0  0  0  0  0  0  0  0  0  0  0  0
  148.7102  140.0735  156.7566 H   0  0  0  0  0  0  0  0  0  0  0  0
  147.1281  141.1072  158.2997 H   0  0  0  0  0  0  0  0  0  0  0  0
  143.8849  144.2598  156.2899 H   0  0  0  0  0  0  0  0  0  0  0  0
  143.9305  144.7383  153.8528 H   0  0  0  0  0  0  0  0  0  0  0  0
  145.6113  143.6430  152.3867 H   0  0  0  0  0  0  0  0  0  0  0  0
  147.2657  142.0498  153.3566 H   0  0  0  0  0  0  0  0  0  0  0  0
  151.5295  140.9247  159.7027 H   0  0  0  0  0  0  0  0  0  0  0  0
  1  2  1  0  0  0  0
  1 22  1  0  0  0  0
  1 23  1  0  0  0  0
  1 24  1  0  0  0  0
  2 21  1  0  0  0  0
  2  3  2  0  0  0  0
  3  4  1  0  0  0  0
  3 25  1  0  0  0  0
  4  5  2  0  0  0  0
  4 26  1  0  0  0  0
  5  6  1  0  0  0  0
  5 27  1  0  0  0  0
  6  7  1  0  0  0  0
  6 21  2  0  0  0  0
  7  8  1  0  0  0  0
  8  9  1  0  0  0  0
  8 28  1  0  0  0  0
  8 29  1  0  0  0  0
  9 10  1  0  0  0  0
  9 11  1  0  0  0  0
  9 30  1  0  0  0  0
 10 31  1  0  0  0  0
 11 12  1  0  0  0  0
 11 32  1  0  0  0  0
 11 33  1  0  0  0  0
 12 20  1  0  0  0  0
 12 13  1  0  0  0  0
 13 14  2  0  0  0  0
 13 34  1  0  0  0  0
 14 15  1  0  0  0  0
 15 20  2  0  0  0  0
 15 16  1  0  0  0  0
 16 17  2  0  0  0  0
 16 35  1  0  0  0  0
 17 18  1  0  0  0  0
 17 36  1  0  0  0  0
 18 19  2  0  0  0  0
 18 37  1  0  0  0  0
 19 20  1  0  0  0  0
 19 38  1  0  0  0  0
 21 39  1  0  0  0  0
M  END
> <s_m_source_file>
AV-unprocessed.smi

> <i_m_source_file_index>
1506

> <i_lp_mmshare_version>
43012

> <i_f3d_flags>
0

> <s_epik_input>
W0NIM11jMVtjSF1bY0hdW2NIXWMoW2NIXTEpT1tDSDJdW0NASF0oW09IXSlbQ0gyXW4oW2NIXW4yKWMoYzIzKVtjSF1bY0hdW2NIXVtjSF0z

> <s_epik_cmdline>
J2VwaWtfcHl0aG9uJywgJy1waCcsICc3LjAnLCAnLXRuJywgJzgnLCAnLW1hJywgJzIwMCcsICctbWV0YWxfYmluZGluZycsICctaW1hZScsICc8aW5maWxlLm1hZT4nLCAnLW9tYWUnLCAnPG91dGZpbGUubWFlPic=

> <r_lp_tautomer_probability>
1

> <r_epik_Ionization_Penalty>
0.0608485

> <r_epik_Ionization_Penalty_Charging>
0

> <r_epik_Ionization_Penalty_Neutral>
0.0608485

> <r_epik_State_Penalty>
0.0527778

> <r_epik_Charging_Adjusted_Penalty>
0.0527778

> <i_epik_Tot_Q>
0

> <i_epik_Tot_abs_Q>
0

> <r_epik_Metal_State_Penalty>
5.51973e-05

> <b_epik_Metal_Only>
0

> <s_lp_Force_Field>
OPLS_2005

> <r_lp_Energy>
14.3046

> <b_lp_Chiralities_Consistent>
1

> <s_lp_Variant>
AV-unprocessed.smi:1506-2

> <Gold.Version>
5.8.1

> <Gold.Id.Protein>
6NUR|6NUR_protein|mol2

> <Gold.PLP.Fitness>
50.9334

> <Gold.PLP.PLP>
-49.8426

> <Gold.PLP.part.hbond>
-3.0000

> <Gold.PLP.part.metal>
0.0000

> <Gold.PLP.part.buried>
-5.8912

> <Gold.PLP.part.nonpolar>
-41.2684

> <Gold.PLP.part.repulsive>
0.1238

> <Gold.PLP.ligand.clash>
0.0000

> <Gold.PLP.ligand.torsion>
1.3064

> <Gold.PLP.Chemscore.Hbond>
1.2068

> <Gold.PLP.Chemscore.CHOScore>
0.0000

> <Gold.PLP.Chemscore.Metal>
0.0000

> <Gold.Chemscore.Hbonds>
donor molecule, donor type, donor heavy atom, donor atom, acceptor molecule, acceptor atom, score
      P1  H  7989  7998       L1    10  0.31
      P1  H  8011  8017       L1    10  0.90

> <Gold.PLP.Chemscore.Internal.Correction>
0.0832

> <Gold.Rescore>
     Score         DG    S(hbond)    S(metal)    S(lipo)     H(rot)  DE(clash)    DE(int)     intcor
     16.45     -17.81       0.86        0.00     128.54       2.19       0.06       1.29       ----

> <Gold.Chemscore.Fitness>
16.4536

> <Gold.Chemscore.DG>
-17.8054

> <Gold.Chemscore.ZeroCoef>
-5.4800

> <Gold.Chemscore.Hbond>
0.8644

> <Gold.Chemscore.Metal>
0.0000

> <Gold.Chemscore.Lipo>
128.5381

> <Gold.Chemscore.Internal_Hbond>
0.0000

> <Gold.Chemscore.DEClash>
0.0632

> <Gold.Chemscore.DEInternal>
1.2886

> <Gold.Chemscore.Rot>
2.1877

> <Gold.Chemscore.Internal.Correction>
   9.000000E+99

> <Gold.Chemscore.Hbonds>
donor molecule, donor type, donor heavy atom, donor atom, acceptor molecule, acceptor atom, score
      P1  H  7989  7998       L1    10  0.10
      P1  H  8011  8017       L1    10  0.67

> <Gold.Chemscore.Hbond.Weighted>
-2.8869

> <Gold.Chemscore.Metal.Weighted>
-0.0000

> <Gold.Chemscore.Lipo.Weighted>
-15.0390

> <Gold.Chemscore.Internal_Hbond.Weighted>
0.0000

> <Gold.Chemscore.DEClash.Weighted>
0.0632

> <Gold.Chemscore.DEInternal.Weighted>
1.2886

> <Gold.Chemscore.Rot.Weighted>
5.6005

> <Gold.Chemscore.Internal.Correction.Weighted>
   9.000000E+99

> <Gold.Protein.RotatedTorsions>
[ 6907 6896 6895 6894 ] final   19.79 input  -60.11 | X-H torsion
[ 7974 7965 7964 7962 ] final  152.57 input  175.53 | X-H torsion
[ 8008 7997 7996 7995 ] final  160.50 input   59.86 | X-H torsion
[ 10167 10162 10161 10158 ] final    9.28 input  -65.29 | X-H torsion
[ 10718 10713 10712 10709 ] final  -51.82 input   66.30 | X-H torsion
[ 10763 10752 10751 10750 ] final -157.43 input  -60.55 | X-H torsion
[ 11005 11000 10999 10996 ] final   -0.32 input  -57.11 | X-H torsion

> <Gold.Protein.ActiveResidues>
 VAL166  LYS551  ARG553  GLY616  TRP617  ASP618  TYR619  PRO620  LYS621  CYS622 
 ASP623  PHE694  ASN695  SER759  ASP760  ASP761  ALA762  ILE779  LEU786  VAL792 
 PHE793  MET794  SER795  GLU796  ALA797  LYS798  CYS799  TRP800  GLU811  SER814 

> <Gold.Protein.RotatedAtoms>
  151.8864  135.0434  160.0493 H   0  0  0  0  0  0  0  0  0  0  0  0  # atno 6907 bound_to 6896
  152.2472  133.5180  159.5312 H   0  0  0  0  0  0  0  0  0  0  0  0  # atno 6908 bound_to 6896
  150.7072  134.0926  159.3979 H   0  0  0  0  0  0  0  0  0  0  0  0  # atno 6909 bound_to 6896
  144.8213  139.6686  143.6099 H   0  0  0  0  0  0  0  0  0  0  0  0  # atno 7974 bound_to 7965
  156.2168  140.1802  156.7570 H   0  0  0  0  0  0  0  0  0  0  0  0  # atno 8008 bound_to 7997
  154.5804  140.0667  156.9124 H   0  0  0  0  0  0  0  0  0  0  0  0  # atno 8009 bound_to 7997
  155.2513  140.3329  155.4284 H   0  0  0  0  0  0  0  0  0  0  0  0  # atno 8010 bound_to 7997
  140.6264  143.8091  150.7239 H   0  0  0  0  0  0  0  0  0  0  0  0  # atno 10167 bound_to 10162
  156.1676  130.4149  149.9697 H   0  0  0  0  0  0  0  0  0  0  0  0  # atno 10718 bound_to 10713
  154.7637  135.3125  154.8329 H   0  0  0  0  0  0  0  0  0  0  0  0  # atno 10763 bound_to 10752
  153.9083  135.6808  153.4756 H   0  0  0  0  0  0  0  0  0  0  0  0  # atno 10764 bound_to 10752
  153.1240  135.4810  154.9174 H   0  0  0  0  0  0  0  0  0  0  0  0  # atno 10765 bound_to 10752
  140.6350  133.9541  155.8295 H   0  0  0  0  0  0  0  0  0  0  0  0  # atno 11005 bound_to 11000
  146.2519  139.6217  142.9421 LP  0  0  0  0  0  0  0  0  0  0  0  0  # atno 17320 bound_to 7965
  145.5098  141.0435  143.2494 LP  0  0  0  0  0  0  0  0  0  0  0  0  # atno 17321 bound_to 7965
  140.1692  143.4209  152.2013 LP  0  0  0  0  0  0  0  0  0  0  0  0  # atno 17342 bound_to 10162
  139.5484  144.7318  151.4511 LP  0  0  0  0  0  0  0  0  0  0  0  0  # atno 17343 bound_to 10162
  156.7507  130.9114  151.3637 LP  0  0  0  0  0  0  0  0  0  0  0  0  # atno 17370 bound_to 10713
  157.6779  130.9112  150.0195 LP  0  0  0  0  0  0  0  0  0  0  0  0  # atno 17371 bound_to 10713
  141.0648  134.0293  157.3609 LP  0  0  0  0  0  0  0  0  0  0  0  0  # atno 17394 bound_to 11000
  139.9102  135.0188  156.7657 LP  0  0  0  0  0  0  0  0  0  0  0  0  # atno 17395 bound_to 11000

$$$$
