AV-unprocessed.smi:3330|AV-procd|sdf|12807|dock1
  -GOLD-   2272019173D 1   1.00000     0.00000
 Structure written by MMmdl.
 38 39  0  0  0  0  0  0  0  0  1 V2000
  152.4721  138.9243  155.7990 C   0  0  0  0  0  0  0  0  0  0  0  0
  151.2541  139.8510  155.5885 C   0  0  2  0  0  0  0  0  0  0  0  0
  150.4256  139.8433  156.7908 N   0  0  0  0  0  0  0  0  0  0  0  0
  151.1916  140.0344  158.0132 C   0  0  0  0  0  0  0  0  0  0  0  0
  151.7716  141.4571  158.0278 C   0  0  0  0  0  0  0  0  0  0  0  0
  152.5354  141.7074  159.2527 N   0  0  0  0  0  0  0  0  0  0  0  0
  152.2343  142.6554  160.1497 C   0  0  0  0  0  0  0  0  0  0  0  0
  151.3034  143.4593  160.1080 O   0  0  0  0  0  0  0  0  0  0  0  0
  153.2444  142.5888  161.2744 C   0  0  0  0  0  0  0  0  0  0  0  0
  154.0499  141.4839  160.8009 N   0  0  0  0  0  0  0  0  0  0  0  0
  153.6126  140.9963  159.6326 C   0  0  0  0  0  0  0  0  0  0  0  0
  154.1181  140.0542  159.0244 O   0  0  0  0  0  0  0  0  0  0  0  0
  150.3661  139.4293  154.3863 C   0  0  1  0  0  0  0  0  0  0  0  0
  149.9766  137.9398  154.4309 C   0  0  0  0  0  0  0  0  0  0  0  0
  149.1616  140.2445  154.2862 N   0  0  0  0  0  0  0  0  0  0  0  0
  147.8418  139.8385  154.3002 C   0  0  0  0  0  0  0  0  0  0  0  0
  147.0682  140.9578  154.1872 C   0  0  0  0  0  0  0  0  0  0  0  0
  148.0156  142.0160  154.1075 C   0  0  0  0  0  0  0  0  0  0  0  0
  149.2655  141.5868  154.1650 N   0  0  0  0  0  0  0  0  0  0  0  0
  153.1333  138.9249  154.9325 H   0  0  0  0  0  0  0  0  0  0  0  0
  152.1589  137.8942  155.9725 H   0  0  0  0  0  0  0  0  0  0  0  0
  153.0820  139.2333  156.6469 H   0  0  0  0  0  0  0  0  0  0  0  0
  151.6103  140.8662  155.4073 H   0  0  0  0  0  0  0  0  0  0  0  0
  149.8854  138.9911  156.8387 H   0  0  0  0  0  0  0  0  0  0  0  0
  150.5581  139.8858  158.8872 H   0  0  0  0  0  0  0  0  0  0  0  0
  151.9972  139.3002  158.0613 H   0  0  0  0  0  0  0  0  0  0  0  0
  152.4128  141.6095  157.1574 H   0  0  0  0  0  0  0  0  0  0  0  0
  150.9674  142.1894  157.9343 H   0  0  0  0  0  0  0  0  0  0  0  0
  153.8259  143.5084  161.3487 H   0  0  0  0  0  0  0  0  0  0  0  0
  152.7705  142.3624  162.2299 H   0  0  0  0  0  0  0  0  0  0  0  0
  154.8478  141.1275  161.3068 H   0  0  0  0  0  0  0  0  0  0  0  0
  150.9400  139.5898  153.4710 H   0  0  0  0  0  0  0  0  0  0  0  0
  150.8542  137.2950  154.3854 H   0  0  0  0  0  0  0  0  0  0  0  0
  149.3395  137.6772  153.5858 H   0  0  0  0  0  0  0  0  0  0  0  0
  149.4347  137.6954  155.3450 H   0  0  0  0  0  0  0  0  0  0  0  0
  147.5666  138.7981  154.3905 H   0  0  0  0  0  0  0  0  0  0  0  0
  145.9900  141.0121  154.1658 H   0  0  0  0  0  0  0  0  0  0  0  0
  147.8340  143.0762  154.0107 H   0  0  0  0  0  0  0  0  0  0  0  0
  1  2  1  0  0  0  0
  1 20  1  0  0  0  0
  1 21  1  0  0  0  0
  1 22  1  0  0  0  0
  2  3  1  0  0  0  0
  2 13  1  0  0  0  0
  2 23  1  0  0  0  0
  3  4  1  0  0  0  0
  3 24  1  0  0  0  0
  4  5  1  0  0  0  0
  4 25  1  0  0  0  0
  4 26  1  0  0  0  0
  5  6  1  0  0  0  0
  5 27  1  0  0  0  0
  5 28  1  0  0  0  0
  6 11  1  0  0  0  0
  6  7  1  0  0  0  0
  7  8  2  0  0  0  0
  7  9  1  0  0  0  0
  9 10  1  0  0  0  0
  9 29  1  0  0  0  0
  9 30  1  0  0  0  0
 10 11  1  0  0  0  0
 10 31  1  0  0  0  0
 11 12  2  0  0  0  0
 13 14  1  0  0  0  0
 13 15  1  0  0  0  0
 13 32  1  0  0  0  0
 14 33  1  0  0  0  0
 14 34  1  0  0  0  0
 14 35  1  0  0  0  0
 15 19  1  0  0  0  0
 15 16  1  0  0  0  0
 16 17  2  0  0  0  0
 16 36  1  0  0  0  0
 17 18  1  0  0  0  0
 17 37  1  0  0  0  0
 18 19  2  0  0  0  0
 18 38  1  0  0  0  0
M  END
> <s_m_source_file>
AV-unprocessed.smi

> <i_m_source_file_index>
3330

> <i_lp_mmshare_version>
43012

> <i_f3d_flags>
0

> <s_epik_input>
bjFbY0hdW2NIXVtjSF1uMVtDQEBIXShbQ0gzXSlbQ0BIXShbQ0gzXSlbTkhdW0NIMl1bQ0gyXU4yQyg9TylbQ0gyXVtOSF1DMj1P

> <s_epik_cmdline>
J2VwaWtfcHl0aG9uJywgJy1waCcsICc3LjAnLCAnLXRuJywgJzgnLCAnLW1hJywgJzIwMCcsICctbWV0YWxfYmluZGluZycsICctaW1hZScsICc8aW5maWxlLm1hZT4nLCAnLW9tYWUnLCAnPG91dGZpbGUubWFlPic=

> <r_lp_tautomer_probability>
1

> <r_epik_Ionization_Penalty>
2.2997

> <r_epik_Ionization_Penalty_Charging>
0

> <r_epik_Ionization_Penalty_Neutral>
2.2997

> <r_epik_State_Penalty>
2.44917

> <r_epik_Charging_Adjusted_Penalty>
2.44917

> <i_epik_Tot_Q>
0

> <i_epik_Tot_abs_Q>
0

> <r_epik_Metal_State_Penalty>
2.52438

> <b_epik_Metal_Only>
0

> <s_lp_Force_Field>
OPLS_2005

> <r_lp_Energy>
27.6633

> <b_lp_Chiralities_Consistent>
1

> <s_lp_Variant>
AV-unprocessed.smi:3330-7

> <Gold.Version>
5.8.1

> <Gold.Id.Protein>
6NUR|6NUR_protein|mol2

> <Gold.PLP.Fitness>
45.0668

> <Gold.PLP.PLP>
-38.5566

> <Gold.PLP.part.hbond>
-3.0977

> <Gold.PLP.part.metal>
0.0000

> <Gold.PLP.part.buried>
-1.0981

> <Gold.PLP.part.nonpolar>
-32.9588

> <Gold.PLP.part.repulsive>
0.2603

> <Gold.PLP.ligand.clash>
0.0000

> <Gold.PLP.ligand.torsion>
0.1518

> <Gold.PLP.Chemscore.Hbond>
1.3773

> <Gold.PLP.Chemscore.CHOScore>
0.8389

> <Gold.PLP.Chemscore.Metal>
0.0000

> <Gold.Chemscore.Hbonds>
donor molecule, donor type, donor heavy atom, donor atom, acceptor molecule, acceptor atom, score
      P1  H  7997  8010       L1    12  1.00
      P1  H  8011  8017       L1    19  0.38
      L1  C    18    38       P1  8028  0.84

> <Gold.PLP.Chemscore.Internal.Correction>
0.1652

> <Gold.Rescore>
     Score         DG    S(hbond)    S(metal)    S(lipo)     H(rot)  DE(clash)    DE(int)     intcor
     10.61     -11.09       1.27        0.00      68.38       2.60       0.01       0.48       ----

> <Gold.Chemscore.Fitness>
10.6088

> <Gold.Chemscore.DG>
-11.0928

> <Gold.Chemscore.ZeroCoef>
-5.4800

> <Gold.Chemscore.Hbond>
1.2742

> <Gold.Chemscore.Metal>
0.0000

> <Gold.Chemscore.Lipo>
68.3818

> <Gold.Chemscore.Internal_Hbond>
0.0000

> <Gold.Chemscore.DEClash>
0.0057

> <Gold.Chemscore.DEInternal>
0.4783

> <Gold.Chemscore.Rot>
2.5952

> <Gold.Chemscore.Internal.Correction>
   9.000000E+99

> <Gold.Chemscore.Hbonds>
donor molecule, donor type, donor heavy atom, donor atom, acceptor molecule, acceptor atom, score
      P1  H  7997  8010       L1    12  0.94
      P1  H  8011  8017       L1    19  0.04

> <Gold.Chemscore.Hbond.Weighted>
-4.2558

> <Gold.Chemscore.Metal.Weighted>
-0.0000

> <Gold.Chemscore.Lipo.Weighted>
-8.0007

> <Gold.Chemscore.Internal_Hbond.Weighted>
0.0000

> <Gold.Chemscore.DEClash.Weighted>
0.0057

> <Gold.Chemscore.DEInternal.Weighted>
0.4783

> <Gold.Chemscore.Rot.Weighted>
6.6437

> <Gold.Chemscore.Internal.Correction.Weighted>
   9.000000E+99

> <Gold.Protein.RotatedTorsions>
[ 6907 6896 6895 6894 ] final   48.35 input  -60.11 | X-H torsion
[ 7974 7965 7964 7962 ] final  -73.17 input  175.53 | X-H torsion
[ 8008 7997 7996 7995 ] final    6.94 input   59.86 | X-H torsion
[ 10167 10162 10161 10158 ] final   85.89 input  -65.29 | X-H torsion
[ 10718 10713 10712 10709 ] final  126.58 input   66.30 | X-H torsion
[ 10763 10752 10751 10750 ] final   -1.55 input  -60.55 | X-H torsion
[ 11005 11000 10999 10996 ] final  136.64 input  -57.11 | X-H torsion

> <Gold.Protein.ActiveResidues>
 VAL166  LYS551  ARG553  GLY616  TRP617  ASP618  TYR619  PRO620  LYS621  CYS622 
 ASP623  PHE694  ASN695  SER759  ASP760  ASP761  ALA762  ILE779  LEU786  VAL792 
 PHE793  MET794  SER795  GLU796  ALA797  LYS798  CYS799  TRP800  GLU811  SER814 

> <Gold.Protein.RotatedAtoms>
  152.2785  134.7855  160.0400 H   0  0  0  0  0  0  0  0  0  0  0  0  # atno 6907 bound_to 6896
  151.8443  133.3423  159.3661 H   0  0  0  0  0  0  0  0  0  0  0  0  # atno 6908 bound_to 6896
  150.7180  134.5289  159.5735 H   0  0  0  0  0  0  0  0  0  0  0  0  # atno 6909 bound_to 6896
  145.6556  140.9269  143.0961 H   0  0  0  0  0  0  0  0  0  0  0  0  # atno 7974 bound_to 7965
  154.7475  140.2760  155.6321 H   0  0  0  0  0  0  0  0  0  0  0  0  # atno 8008 bound_to 7997
  156.2888  140.2685  156.2145 H   0  0  0  0  0  0  0  0  0  0  0  0  # atno 8009 bound_to 7997
  155.0179  140.0371  157.2415 H   0  0  0  0  0  0  0  0  0  0  0  0  # atno 8010 bound_to 7997
  139.8931  144.6374  150.8717 H   0  0  0  0  0  0  0  0  0  0  0  0  # atno 10167 bound_to 10162
  157.5406  131.1097  150.8864 H   0  0  0  0  0  0  0  0  0  0  0  0  # atno 10718 bound_to 10713
  153.3463  135.6983  153.6825 H   0  0  0  0  0  0  0  0  0  0  0  0  # atno 10763 bound_to 10752
  153.5570  135.3542  155.2784 H   0  0  0  0  0  0  0  0  0  0  0  0  # atno 10764 bound_to 10752
  154.8645  135.4240  154.2688 H   0  0  0  0  0  0  0  0  0  0  0  0  # atno 10765 bound_to 10752
  140.0060  134.9459  157.0176 H   0  0  0  0  0  0  0  0  0  0  0  0  # atno 11005 bound_to 11000
  144.7107  139.8383  143.7415 LP  0  0  0  0  0  0  0  0  0  0  0  0  # atno 17320 bound_to 7965
  146.1167  139.4179  143.0254 LP  0  0  0  0  0  0  0  0  0  0  0  0  # atno 17321 bound_to 7965
  140.7722  143.3494  151.2044 LP  0  0  0  0  0  0  0  0  0  0  0  0  # atno 17342 bound_to 10162
  139.7092  143.9405  152.2940 LP  0  0  0  0  0  0  0  0  0  0  0  0  # atno 17343 bound_to 10162
  156.9418  130.5387  149.5280 LP  0  0  0  0  0  0  0  0  0  0  0  0  # atno 17370 bound_to 10713
  156.0494  130.5566  150.8955 LP  0  0  0  0  0  0  0  0  0  0  0  0  # atno 17371 bound_to 10713
  140.4640  134.1454  155.7195 LP  0  0  0  0  0  0  0  0  0  0  0  0  # atno 17394 bound_to 11000
  141.1677  133.8670  157.1665 LP  0  0  0  0  0  0  0  0  0  0  0  0  # atno 17395 bound_to 11000

$$$$
