AV-unprocessed.smi:3281|AV-procd|sdf|12557|dock1
  -GOLD-   2272018473D 1   1.00000     0.00000
 Structure written by MMmdl.
 37 38  0  0  0  0  0  0  0  0  2 V2000
  143.5963  133.1341  151.3919 C   0  0  0  0  0  0  0  0  0  0  0  0
  143.4787  134.3420  152.3282 C   0  0  0  0  0  0  0  0  0  0  0  0
  144.4043  135.4580  151.9697 C   0  0  0  0  0  0  0  0  0  0  0  0
  145.1945  135.5641  150.8515 C   0  0  0  0  0  0  0  0  0  0  0  0
  145.9522  136.7366  150.8042 N   0  0  0  0  0  0  0  0  0  0  0  0
  145.7618  137.5093  151.8758 C   0  0  0  0  0  0  0  0  0  0  0  0
  146.4285  138.8300  152.0662 C   0  0  0  0  0  0  0  0  0  0  0  0
  147.3290  138.8584  153.3075 C   0  0  0  0  0  0  0  0  0  0  0  0
  148.7528  138.7564  152.9304 N   0  3  0  0  0  0  0  0  0  0  0  0
  149.7072  138.9777  154.0384 C   0  0  1  0  0  0  0  0  0  0  0  0
  151.0819  138.3894  153.6656 C   0  0  0  0  0  0  0  0  0  0  0  0
  152.1195  138.5364  154.7914 C   0  0  0  0  0  0  0  0  0  0  0  0
  152.3817  140.0032  155.1607 C   0  0  0  0  0  0  0  0  0  0  0  0
  150.8747  140.8007  155.7768 S   0  0  0  0  0  0  0  0  0  0  0  0
  149.7984  140.4813  154.3528 C   0  0  0  0  0  0  0  0  0  0  0  0
  144.5913  136.8468  153.0100 S   0  0  0  0  0  0  0  0  0  0  0  0
  142.8978  132.3489  151.6820 H   0  0  0  0  0  0  0  0  0  0  0  0
  144.6005  132.7103  151.4161 H   0  0  0  0  0  0  0  0  0  0  0  0
  143.3749  133.4133  150.3613 H   0  0  0  0  0  0  0  0  0  0  0  0
  142.4501  134.7046  152.3173 H   0  0  0  0  0  0  0  0  0  0  0  0
  143.6752  134.0251  153.3528 H   0  0  0  0  0  0  0  0  0  0  0  0
  145.2778  134.8555  150.0405 H   0  0  0  0  0  0  0  0  0  0  0  0
  147.0114  139.0549  151.1723 H   0  0  0  0  0  0  0  0  0  0  0  0
  145.6608  139.6014  152.1406 H   0  0  0  0  0  0  0  0  0  0  0  0
  147.1710  139.7845  153.8625 H   0  0  0  0  0  0  0  0  0  0  0  0
  147.0738  138.0322  153.9728 H   0  0  0  0  0  0  0  0  0  0  0  0
  148.9171  137.8355  152.5496 H   0  0  0  0  0  0  0  0  0  0  0  0
  149.3450  138.4639  154.9310 H   0  0  0  0  0  0  0  0  0  0  0  0
  150.9705  137.3310  153.4274 H   0  0  0  0  0  0  0  0  0  0  0  0
  151.4578  138.8674  152.7599 H   0  0  0  0  0  0  0  0  0  0  0  0
  151.7878  137.9886  155.6743 H   0  0  0  0  0  0  0  0  0  0  0  0
  153.0560  138.0728  154.4792 H   0  0  0  0  0  0  0  0  0  0  0  0
  153.1510  140.0674  155.9305 H   0  0  0  0  0  0  0  0  0  0  0  0
  152.7492  140.5551  154.2948 H   0  0  0  0  0  0  0  0  0  0  0  0
  150.1799  141.0325  153.4923 H   0  0  0  0  0  0  0  0  0  0  0  0
  148.8101  140.8841  154.5773 H   0  0  0  0  0  0  0  0  0  0  0  0
  148.9406  139.4381  152.2090 H   0  0  0  0  0  0  0  0  0  0  0  0
  1  2  1  0  0  0  0
  1 17  1  0  0  0  0
  1 18  1  0  0  0  0
  1 19  1  0  0  0  0
  2  3  1  0  0  0  0
  2 20  1  0  0  0  0
  2 21  1  0  0  0  0
  3 16  1  0  0  0  0
  3  4  2  0  0  0  0
  4  5  1  0  0  0  0
  4 22  1  0  0  0  0
  5  6  2  0  0  0  0
  6  7  1  0  0  0  0
  6 16  1  0  0  0  0
  7  8  1  0  0  0  0
  7 23  1  0  0  0  0
  7 24  1  0  0  0  0
  8  9  1  0  0  0  0
  8 25  1  0  0  0  0
  8 26  1  0  0  0  0
  9 10  1  0  0  0  0
  9 27  1  0  0  0  0
  9 37  1  0  0  0  0
 10 15  1  0  0  0  0
 10 11  1  0  0  0  0
 10 28  1  0  0  0  0
 11 12  1  0  0  0  0
 11 29  1  0  0  0  0
 11 30  1  0  0  0  0
 12 13  1  0  0  0  0
 12 31  1  0  0  0  0
 12 32  1  0  0  0  0
 13 14  1  0  0  0  0
 13 33  1  0  0  0  0
 13 34  1  0  0  0  0
 14 15  1  0  0  0  0
 15 35  1  0  0  0  0
 15 36  1  0  0  0  0
M  CHG  1   9   1
M  END
> <s_m_source_file>
AV-unprocessed.smi

> <i_m_source_file_index>
3281

> <i_lp_mmshare_version>
43012

> <i_f3d_flags>
0

> <s_epik_input>
W0NIM11bQ0gyXWMxW2NIXW5jKHMxKVtDSDJdW0NIMl1bTkhdW0NAQEhdMltDSDJdW0NIMl1bQ0gyXVNbQ0gyXTI=

> <s_epik_cmdline>
J2VwaWtfcHl0aG9uJywgJy1waCcsICc3LjAnLCAnLXRuJywgJzgnLCAnLW1hJywgJzIwMCcsICctbWV0YWxfYmluZGluZycsICctaW1hZScsICc8aW5maWxlLm1hZT4nLCAnLW9tYWUnLCAnPG91dGZpbGUubWFlPic=

> <r_epik_Ionization_Penalty>
0.00827702

> <r_epik_Ionization_Penalty_Charging>
0.00826679

> <r_epik_Ionization_Penalty_Neutral>
1.02314e-05

> <r_epik_State_Penalty>
0.00622064

> <r_epik_Charging_Adjusted_Penalty>
0.0144874

> <i_epik_Tot_Q>
1

> <i_epik_Tot_abs_Q>
1

> <r_epik_Metal_State_Penalty>
0.0062521

> <b_epik_Metal_Only>
0

> <s_lp_Force_Field>
OPLS_2005

> <r_lp_Energy>
0.380523

> <b_lp_Chiralities_Consistent>
1

> <s_lp_Variant>
AV-unprocessed.smi:3281-2

> <Gold.Version>
5.8.1

> <Gold.Id.Protein>
6NUR|6NUR_protein|mol2

> <Gold.PLP.Fitness>
47.0024

> <Gold.PLP.PLP>
-36.0347

> <Gold.PLP.part.hbond>
-2.0000

> <Gold.PLP.part.metal>
0.0000

> <Gold.PLP.part.buried>
-1.6322

> <Gold.PLP.part.nonpolar>
-34.3815

> <Gold.PLP.part.repulsive>
1.1894

> <Gold.PLP.ligand.clash>
0.0000

> <Gold.PLP.ligand.torsion>
0.5527

> <Gold.PLP.Chemscore.Hbond>
3.0000

> <Gold.PLP.Chemscore.CHOScore>
1.0000

> <Gold.PLP.Chemscore.Metal>
0.0000

> <Gold.Chemscore.Hbonds>
donor molecule, donor type, donor heavy atom, donor atom, acceptor molecule, acceptor atom, score
      L1  H     9    27       P1  7948  2.00
      L1  H     9    37       P1  7957  0.60
      L1  C     4    22       P1  7921  0.95

> <Gold.PLP.Chemscore.Internal.Correction>
0.0731

> <Gold.Rescore>
     Score         DG    S(hbond)    S(metal)    S(lipo)     H(rot)  DE(clash)    DE(int)     intcor
     17.92     -18.95       1.93        0.00      90.06       1.38       0.33       0.69       ----

> <Gold.Chemscore.Fitness>
17.9241

> <Gold.Chemscore.DG>
-18.9499

> <Gold.Chemscore.ZeroCoef>
-5.4800

> <Gold.Chemscore.Hbond>
1.9333

> <Gold.Chemscore.Metal>
0.0000

> <Gold.Chemscore.Lipo>
90.0606

> <Gold.Chemscore.Internal_Hbond>
0.0000

> <Gold.Chemscore.DEClash>
0.3310

> <Gold.Chemscore.DEInternal>
0.6948

> <Gold.Chemscore.Rot>
1.3767

> <Gold.Chemscore.Internal.Correction>
   9.000000E+99

> <Gold.Chemscore.Hbonds>
donor molecule, donor type, donor heavy atom, donor atom, acceptor molecule, acceptor atom, score
      L1  H     9    27       P1  7948  1.00
      L1  H     9    37       P1  7957  0.60

> <Gold.Chemscore.Hbond.Weighted>
-6.4571

> <Gold.Chemscore.Metal.Weighted>
-0.0000

> <Gold.Chemscore.Lipo.Weighted>
-10.5371

> <Gold.Chemscore.Internal_Hbond.Weighted>
0.0000

> <Gold.Chemscore.DEClash.Weighted>
0.3310

> <Gold.Chemscore.DEInternal.Weighted>
0.6948

> <Gold.Chemscore.Rot.Weighted>
3.5243

> <Gold.Chemscore.Internal.Correction.Weighted>
   9.000000E+99

> <Gold.Protein.RotatedTorsions>
[ 6907 6896 6895 6894 ] final  -31.80 input  -60.11 | X-H torsion
[ 7974 7965 7964 7962 ] final   46.47 input  175.53 | X-H torsion
[ 8008 7997 7996 7995 ] final -167.80 input   59.86 | X-H torsion
[ 10167 10162 10161 10158 ] final -151.16 input  -65.29 | X-H torsion
[ 10718 10713 10712 10709 ] final  -77.96 input   66.30 | X-H torsion
[ 10763 10752 10751 10750 ] final -115.69 input  -60.55 | X-H torsion
[ 11005 11000 10999 10996 ] final  146.43 input  -57.11 | X-H torsion

> <Gold.Protein.ActiveResidues>
 VAL166  LYS551  ARG553  GLY616  TRP617  ASP618  TYR619  PRO620  LYS621  CYS622 
 ASP623  PHE694  ASN695  SER759  ASP760  ASP761  ALA762  ILE779  LEU786  VAL792 
 PHE793  MET794  SER795  GLU796  ALA797  LYS798  CYS799  TRP800  GLU811  SER814 

> <Gold.Protein.RotatedAtoms>
  151.0872  134.9894  159.8384 H   0  0  0  0  0  0  0  0  0  0  0  0  # atno 6907 bound_to 6896
  152.5425  134.2109  159.8759 H   0  0  0  0  0  0  0  0  0  0  0  0  # atno 6908 bound_to 6896
  151.2143  133.4494  159.2632 H   0  0  0  0  0  0  0  0  0  0  0  0  # atno 6909 bound_to 6896
  146.0387  139.4852  142.9792 H   0  0  0  0  0  0  0  0  0  0  0  0  # atno 7974 bound_to 7965
  155.8827  140.1011  157.1474 H   0  0  0  0  0  0  0  0  0  0  0  0  # atno 8008 bound_to 7997
  154.4007  140.1326  156.4280 H   0  0  0  0  0  0  0  0  0  0  0  0  # atno 8009 bound_to 7997
  155.7624  140.3463  155.5207 H   0  0  0  0  0  0  0  0  0  0  0  0  # atno 8010 bound_to 7997
  139.7291  143.8836  152.2529 H   0  0  0  0  0  0  0  0  0  0  0  0  # atno 10167 bound_to 10162
  156.0130  130.4505  150.3423 H   0  0  0  0  0  0  0  0  0  0  0  0  # atno 10718 bound_to 10713
  154.8491  135.4372  154.1702 H   0  0  0  0  0  0  0  0  0  0  0  0  # atno 10763 bound_to 10752
  153.2818  135.6954  153.7384 H   0  0  0  0  0  0  0  0  0  0  0  0  # atno 10764 bound_to 10752
  153.6586  135.3439  155.3095 H   0  0  0  0  0  0  0  0  0  0  0  0  # atno 10765 bound_to 10752
  140.0792  134.9107  157.1473 H   0  0  0  0  0  0  0  0  0  0  0  0  # atno 11005 bound_to 11000
  145.6921  141.0161  143.1549 LP  0  0  0  0  0  0  0  0  0  0  0  0  # atno 17320 bound_to 7965
  144.7064  139.8545  143.7428 LP  0  0  0  0  0  0  0  0  0  0  0  0  # atno 17321 bound_to 7965
  139.8754  144.7046  150.8938 LP  0  0  0  0  0  0  0  0  0  0  0  0  # atno 17342 bound_to 10162
  140.7768  143.3704  151.1660 LP  0  0  0  0  0  0  0  0  0  0  0  0  # atno 17343 bound_to 10162
  157.1518  131.0323  151.2881 LP  0  0  0  0  0  0  0  0  0  0  0  0  # atno 17370 bound_to 10713
  157.4385  130.7531  149.7049 LP  0  0  0  0  0  0  0  0  0  0  0  0  # atno 17371 bound_to 10713
  140.3512  134.2596  155.7198 LP  0  0  0  0  0  0  0  0  0  0  0  0  # atno 17394 bound_to 11000
  141.2041  133.7896  157.0307 LP  0  0  0  0  0  0  0  0  0  0  0  0  # atno 17395 bound_to 11000

$$$$
