AV-unprocessed.smi:2547|AV-procd|sdf|10004|dock6
  -GOLD-   2272014 53D 1   1.00000     0.00000
 Structure written by MMmdl.
 45 46  0  0  0  0  0  0  0  0  3 V2000
  148.1908  135.8556  155.2713 C   0  0  0  0  0  0  0  0  0  0  0  0
  149.1437  136.8507  154.7342 N   0  3  2  0  0  0  0  0  0  0  0  0
  150.4908  136.7300  155.3447 C   0  0  0  0  0  0  0  0  0  0  0  0
  151.4910  137.6844  154.6687 C   0  0  0  0  0  0  0  0  0  0  0  0
  151.0033  139.1473  154.6949 C   0  0  2  0  0  0  0  0  0  0  0  0
  151.0592  139.7168  156.0414 N   0  0  0  0  0  0  0  0  0  0  0  0
  152.1139  139.6463  156.8671 C   0  0  0  0  0  0  0  0  0  0  0  0
  153.1604  139.0649  156.5813 O   0  0  0  0  0  0  0  0  0  0  0  0
  151.8650  140.2674  158.0332 N   0  0  0  0  0  0  0  0  0  0  0  0
  152.7293  140.4164  159.1508 C   0  0  0  0  0  0  0  0  0  0  0  0
  153.8795  139.6235  159.3803 C   0  0  0  0  0  0  0  0  0  0  0  0
  154.6744  139.8720  160.5157 C   0  0  0  0  0  0  0  0  0  0  0  0
  154.3177  140.9092  161.3995 C   0  0  0  0  0  0  0  0  0  0  0  0
  153.1683  141.6922  161.1336 C   0  0  0  0  0  0  0  0  0  0  0  0
  152.7461  142.7520  161.9655 N   0  0  0  0  0  0  0  0  0  0  0  0
  151.8150  143.7481  161.4511 C   0  0  0  0  0  0  0  0  0  0  0  0
  153.3710  142.9386  163.2705 C   0  0  0  0  0  0  0  0  0  0  0  0
  152.4415  141.4083  160.0238 N   0  3  0  0  0  0  0  0  0  0  0  0
  149.5739  139.2322  154.1298 C   0  0  0  0  0  0  0  0  0  0  0  0
  148.6188  138.2364  154.8139 C   0  0  0  0  0  0  0  0  0  0  0  0
  148.0141  136.0172  156.3354 H   0  0  0  0  0  0  0  0  0  0  0  0
  148.5747  134.8437  155.1379 H   0  0  0  0  0  0  0  0  0  0  0  0
  147.2344  135.9186  154.7512 H   0  0  0  0  0  0  0  0  0  0  0  0
  150.4298  136.9392  156.4138 H   0  0  0  0  0  0  0  0  0  0  0  0
  150.8463  135.7038  155.2437 H   0  0  0  0  0  0  0  0  0  0  0  0
  152.4707  137.5949  155.1397 H   0  0  0  0  0  0  0  0  0  0  0  0
  151.6292  137.3749  153.6318 H   0  0  0  0  0  0  0  0  0  0  0  0
  151.6531  139.7444  154.0519 H   0  0  0  0  0  0  0  0  0  0  0  0
  150.2410  140.2148  156.3599 H   0  0  0  0  0  0  0  0  0  0  0  0
  150.9296  140.6264  158.1555 H   0  0  0  0  0  0  0  0  0  0  0  0
  154.1746  138.8378  158.7016 H   0  0  0  0  0  0  0  0  0  0  0  0
  155.5537  139.2740  160.7044 H   0  0  0  0  0  0  0  0  0  0  0  0
  154.9367  141.0882  162.2660 H   0  0  0  0  0  0  0  0  0  0  0  0
  150.8820  143.2786  161.1379 H   0  0  0  0  0  0  0  0  0  0  0  0
  152.2477  144.2703  160.5972 H   0  0  0  0  0  0  0  0  0  0  0  0
  151.5720  144.4921  162.2098 H   0  0  0  0  0  0  0  0  0  0  0  0
  153.1699  142.0835  163.9166 H   0  0  0  0  0  0  0  0  0  0  0  0
  152.9900  143.8299  163.7694 H   0  0  0  0  0  0  0  0  0  0  0  0
  154.4509  143.0510  163.1676 H   0  0  0  0  0  0  0  0  0  0  0  0
  149.1882  140.2480  154.2241 H   0  0  0  0  0  0  0  0  0  0  0  0
  149.6008  139.0183  153.0604 H   0  0  0  0  0  0  0  0  0  0  0  0
  147.6413  138.2842  154.3325 H   0  0  0  0  0  0  0  0  0  0  0  0
  148.4689  138.5116  155.8591 H   0  0  0  0  0  0  0  0  0  0  0  0
  149.2533  136.6399  153.7524 H   0  0  0  0  0  0  0  0  0  0  0  0
  151.6171  141.9798  159.8401 H   0  0  0  0  0  0  0  0  0  0  0  0
  1  2  1  0  0  0  0
  1 21  1  0  0  0  0
  1 22  1  0  0  0  0
  1 23  1  0  0  0  0
  2 20  1  0  0  0  0
  2  3  1  0  0  0  0
  2 44  1  0  0  0  0
  3  4  1  0  0  0  0
  3 24  1  0  0  0  0
  3 25  1  0  0  0  0
  4  5  1  0  0  0  0
  4 26  1  0  0  0  0
  4 27  1  0  0  0  0
  5  6  1  0  0  0  0
  5 19  1  0  0  0  0
  5 28  1  0  0  0  0
  6  7  1  0  0  0  0
  6 29  1  0  0  0  0
  7  8  2  0  0  0  0
  7  9  1  0  0  0  0
  9 10  1  0  0  0  0
  9 30  1  0  0  0  0
 10 18  1  0  0  0  0
 10 11  2  0  0  0  0
 11 12  1  0  0  0  0
 11 31  1  0  0  0  0
 12 13  2  0  0  0  0
 12 32  1  0  0  0  0
 13 14  1  0  0  0  0
 13 33  1  0  0  0  0
 14 15  1  0  0  0  0
 14 18  2  0  0  0  0
 15 16  1  0  0  0  0
 15 17  1  0  0  0  0
 16 34  1  0  0  0  0
 16 35  1  0  0  0  0
 16 36  1  0  0  0  0
 17 37  1  0  0  0  0
 17 38  1  0  0  0  0
 17 39  1  0  0  0  0
 18 45  1  0  0  0  0
 19 20  1  0  0  0  0
 19 40  1  0  0  0  0
 19 41  1  0  0  0  0
 20 42  1  0  0  0  0
 20 43  1  0  0  0  0
M  CHG  1   2   1
M  CHG  1  18   1
M  END
> <s_m_source_file>
AV-unprocessed.smi

> <i_m_source_file_index>
2547

> <i_lp_mmshare_version>
43012

> <i_f3d_flags>
0

> <s_epik_input>
W0NIM11OMVtDSDJdW0NIMl1bQ0hdKFtDSDJdW0NIMl0xKVtOSF1DKD1PKVtOSF1jMltjSF1bY0hdW2NIXWMobjIpTihbQ0gzXSlbQ0gzXQ==

> <s_epik_cmdline>
J2VwaWtfcHl0aG9uJywgJy1waCcsICc3LjAnLCAnLXRuJywgJzgnLCAnLW1hJywgJzIwMCcsICctbWV0YWxfYmluZGluZycsICctaW1hZScsICc8aW5maWxlLm1hZT4nLCAnLW9tYWUnLCAnPG91dGZpbGUubWFlPic=

> <r_lp_tautomer_probability>
0.999994

> <r_epik_Ionization_Penalty>
2.17028

> <r_epik_Ionization_Penalty_Charging>
2.10368

> <r_epik_Ionization_Penalty_Neutral>
0.0666017

> <r_epik_State_Penalty>
2.2357

> <r_epik_Charging_Adjusted_Penalty>
4.33938

> <i_epik_Tot_Q>
2

> <i_epik_Tot_abs_Q>
2

> <r_epik_Metal_State_Penalty>
2.25749

> <b_epik_Metal_Only>
0

> <s_lp_Force_Field>
OPLS_2005

> <r_lp_Energy>
27.0899

> <b_lp_Chiralities_Consistent>
1

> <s_lp_Variant>
AV-unprocessed.smi:2547-4

> <Gold.Version>
5.8.1

> <Gold.Id.Protein>
6NUR|6NUR_protein|mol2

> <Gold.PLP.Fitness>
48.1718

> <Gold.PLP.PLP>
-39.6959

> <Gold.PLP.part.hbond>
-2.0000

> <Gold.PLP.part.metal>
0.0000

> <Gold.PLP.part.buried>
-3.4587

> <Gold.PLP.part.nonpolar>
-33.9895

> <Gold.PLP.part.repulsive>
0.3141

> <Gold.PLP.ligand.clash>
0.0000

> <Gold.PLP.ligand.torsion>
0.2723

> <Gold.PLP.Chemscore.Hbond>
3.0000

> <Gold.PLP.Chemscore.CHOScore>
0.0000

> <Gold.PLP.Chemscore.Metal>
0.0000

> <Gold.Chemscore.Hbonds>
donor molecule, donor type, donor heavy atom, donor atom, acceptor molecule, acceptor atom, score
      L1  H     2    44       P1  7948  2.00
      P1  H  7997  8008       L1     8  1.00

> <Gold.PLP.Chemscore.Internal.Correction>
0.0205

> <Gold.Rescore>
     Score         DG    S(hbond)    S(metal)    S(lipo)     H(rot)  DE(clash)    DE(int)     intcor
     16.00     -18.61       1.91        0.00      79.58       1.00       0.06       2.55       ----

> <Gold.Chemscore.Fitness>
15.9952

> <Gold.Chemscore.DG>
-18.6098

> <Gold.Chemscore.ZeroCoef>
-5.4800

> <Gold.Chemscore.Hbond>
1.9098

> <Gold.Chemscore.Metal>
0.0000

> <Gold.Chemscore.Lipo>
79.5821

> <Gold.Chemscore.Internal_Hbond>
0.0000

> <Gold.Chemscore.DEClash>
0.0643

> <Gold.Chemscore.DEInternal>
2.5503

> <Gold.Chemscore.Rot>
1.0000

> <Gold.Chemscore.Internal.Correction>
   9.000000E+99

> <Gold.Chemscore.Hbonds>
donor molecule, donor type, donor heavy atom, donor atom, acceptor molecule, acceptor atom, score
      L1  H     2    44       P1  7948  0.96
      P1  H  7997  8008       L1     8  0.76

> <Gold.Chemscore.Hbond.Weighted>
-6.3787

> <Gold.Chemscore.Metal.Weighted>
-0.0000

> <Gold.Chemscore.Lipo.Weighted>
-9.3111

> <Gold.Chemscore.Internal_Hbond.Weighted>
0.0000

> <Gold.Chemscore.DEClash.Weighted>
0.0643

> <Gold.Chemscore.DEInternal.Weighted>
2.5503

> <Gold.Chemscore.Rot.Weighted>
2.5600

> <Gold.Chemscore.Internal.Correction.Weighted>
   9.000000E+99

> <Gold.Protein.RotatedTorsions>
[ 6907 6896 6895 6894 ] final   42.17 input  -60.11 | X-H torsion
[ 7974 7965 7964 7962 ] final  174.28 input  175.53 | X-H torsion
[ 8008 7997 7996 7995 ] final  -49.82 input   59.86 | X-H torsion
[ 10167 10162 10161 10158 ] final  166.25 input  -65.29 | X-H torsion
[ 10718 10713 10712 10709 ] final   53.04 input   66.30 | X-H torsion
[ 10763 10752 10751 10750 ] final   89.70 input  -60.55 | X-H torsion
[ 11005 11000 10999 10996 ] final  174.37 input  -57.11 | X-H torsion

> <Gold.Protein.ActiveResidues>
 VAL166  LYS551  ARG553  GLY616  TRP617  ASP618  TYR619  PRO620  LYS621  CYS622 
 ASP623  PHE694  ASN695  SER759  ASP760  ASP761  ALA762  ILE779  LEU786  VAL792 
 PHE793  MET794  SER795  GLU796  ALA797  LYS798  CYS799  TRP800  GLU811  SER814 

> <Gold.Protein.RotatedAtoms>
  152.2046  134.8557  160.0503 H   0  0  0  0  0  0  0  0  0  0  0  0  # atno 6907 bound_to 6896
  151.9398  133.3629  159.3969 H   0  0  0  0  0  0  0  0  0  0  0  0  # atno 6908 bound_to 6896
  150.6962  134.4375  159.5321 H   0  0  0  0  0  0  0  0  0  0  0  0  # atno 6909 bound_to 6896
  144.7225  139.9774  143.6438 H   0  0  0  0  0  0  0  0  0  0  0  0  # atno 7974 bound_to 7965
  154.4051  140.1287  156.4565 H   0  0  0  0  0  0  0  0  0  0  0  0  # atno 8008 bound_to 7997
  155.7315  140.3491  155.5041 H   0  0  0  0  0  0  0  0  0  0  0  0  # atno 8009 bound_to 7997
  155.9123  140.1038  157.1260 H   0  0  0  0  0  0  0  0  0  0  0  0  # atno 8010 bound_to 7997
  139.4921  144.4048  151.9368 H   0  0  0  0  0  0  0  0  0  0  0  0  # atno 10167 bound_to 10162
  157.5130  130.8513  149.8459 H   0  0  0  0  0  0  0  0  0  0  0  0  # atno 10718 bound_to 10713
  153.1898  135.4461  155.0134 H   0  0  0  0  0  0  0  0  0  0  0  0  # atno 10763 bound_to 10752
  154.8083  135.3283  154.7376 H   0  0  0  0  0  0  0  0  0  0  0  0  # atno 10764 bound_to 10752
  153.7831  135.6976  153.4940 H   0  0  0  0  0  0  0  0  0  0  0  0  # atno 10765 bound_to 10752
  140.3506  134.7198  157.4265 H   0  0  0  0  0  0  0  0  0  0  0  0  # atno 11005 bound_to 11000
  146.0515  139.3516  143.0636 LP  0  0  0  0  0  0  0  0  0  0  0  0  # atno 17320 bound_to 7965
  145.8209  140.9680  143.0899 LP  0  0  0  0  0  0  0  0  0  0  0  0  # atno 17321 bound_to 7965
  140.3487  144.3115  150.5953 LP  0  0  0  0  0  0  0  0  0  0  0  0  # atno 17342 bound_to 10162
  140.5503  143.2207  151.7937 LP  0  0  0  0  0  0  0  0  0  0  0  0  # atno 17343 bound_to 10162
  156.0302  130.3767  150.1710 LP  0  0  0  0  0  0  0  0  0  0  0  0  # atno 17370 bound_to 10713
  156.9899  130.9890  151.3417 LP  0  0  0  0  0  0  0  0  0  0  0  0  # atno 17371 bound_to 10713
  140.0706  134.5867  155.8646 LP  0  0  0  0  0  0  0  0  0  0  0  0  # atno 17394 bound_to 11000
  141.2013  133.6618  156.5944 LP  0  0  0  0  0  0  0  0  0  0  0  0  # atno 17395 bound_to 11000

$$$$
