AV-unprocessed.smi:2284|AV-procd|sdf|9202|dock8
  -GOLD-   2272012423D 1   1.00000     0.00000
 Structure written by MMmdl.
 44 45  0  0  0  0  0  0  0  0  1 V2000
  154.5210  132.6396  161.1731 C   0  0  0  0  0  0  0  0  0  0  0  0
  154.4941  133.8360  162.1021 C   0  0  0  0  0  0  0  0  0  0  0  0
  154.9227  133.7115  163.4379 C   0  0  0  0  0  0  0  0  0  0  0  0
  154.8956  134.8291  164.2917 C   0  0  0  0  0  0  0  0  0  0  0  0
  154.4400  136.0762  163.8166 C   0  0  0  0  0  0  0  0  0  0  0  0
  154.4139  137.2722  164.7503 C   0  0  0  0  0  0  0  0  0  0  0  0
  154.0049  136.2140  162.4783 C   0  0  0  0  0  0  0  0  0  0  0  0
  153.5719  137.4606  162.0791 O   0  0  0  0  0  0  0  0  0  0  0  0
  153.1261  137.6311  160.7405 C   0  0  0  0  0  0  0  0  0  0  0  0
  154.3458  137.5311  159.8127 C   0  0  1  0  0  0  0  0  0  0  0  0
  153.8765  137.6630  158.4863 O   0  0  0  0  0  0  0  0  0  0  0  0
  155.3868  138.6400  160.0935 C   0  0  0  0  0  0  0  0  0  0  0  0
  154.7555  139.8685  160.6014 N   0  0  0  0  0  0  0  0  0  0  0  0
  155.2243  140.3442  161.8379 C   0  0  0  0  0  0  0  0  0  0  0  0
  154.7504  141.4199  162.3757 N   0  0  0  0  0  0  0  0  0  0  0  0
  153.7473  142.1415  161.7222 C   0  0  0  0  0  0  0  0  0  0  0  0
  153.2618  143.3875  162.4412 C   0  0  0  0  0  0  0  0  0  0  0  0
  153.2537  141.7369  160.5199 C   0  0  0  0  0  0  0  0  0  0  0  0
  152.1618  142.4827  159.7628 C   0  0  0  0  0  0  0  0  0  0  0  0
  153.7870  140.5165  159.8927 C   0  0  0  0  0  0  0  0  0  0  0  0
  153.3923  140.0989  158.8025 O   0  0  0  0  0  0  0  0  0  0  0  0
  154.0380  135.0815  161.6257 C   0  0  0  0  0  0  0  0  0  0  0  0
  154.8718  131.7435  161.6861 H   0  0  0  0  0  0  0  0  0  0  0  0
  155.1849  132.8313  160.3297 H   0  0  0  0  0  0  0  0  0  0  0  0
  153.5218  132.4403  160.7851 H   0  0  0  0  0  0  0  0  0  0  0  0
  155.2736  132.7611  163.8131 H   0  0  0  0  0  0  0  0  0  0  0  0
  155.2261  134.7238  165.3148 H   0  0  0  0  0  0  0  0  0  0  0  0
  153.3975  137.6550  164.8474 H   0  0  0  0  0  0  0  0  0  0  0  0
  155.0455  138.0708  164.3602 H   0  0  0  0  0  0  0  0  0  0  0  0
  154.7742  137.0106  165.7454 H   0  0  0  0  0  0  0  0  0  0  0  0
  152.4083  136.8465  160.4949 H   0  0  0  0  0  0  0  0  0  0  0  0
  152.6339  138.5972  160.6136 H   0  0  0  0  0  0  0  0  0  0  0  0
  154.7879  136.5399  159.9245 H   0  0  0  0  0  0  0  0  0  0  0  0
  153.6239  138.5624  158.3435 H   0  0  0  0  0  0  0  0  0  0  0  0
  156.1711  138.2779  160.7610 H   0  0  0  0  0  0  0  0  0  0  0  0
  155.9245  138.8824  159.1744 H   0  0  0  0  0  0  0  0  0  0  0  0
  156.0127  139.7480  162.3015 H   0  0  0  0  0  0  0  0  0  0  0  0
  152.2002  143.3040  162.6750 H   0  0  0  0  0  0  0  0  0  0  0  0
  153.4146  144.2710  161.8205 H   0  0  0  0  0  0  0  0  0  0  0  0
  153.7991  143.5408  163.3780 H   0  0  0  0  0  0  0  0  0  0  0  0
  152.5364  142.8125  158.7932 H   0  0  0  0  0  0  0  0  0  0  0  0
  151.7963  143.3622  160.2902 H   0  0  0  0  0  0  0  0  0  0  0  0
  151.3081  141.8262  159.5906 H   0  0  0  0  0  0  0  0  0  0  0  0
  153.7194  135.1454  160.5962 H   0  0  0  0  0  0  0  0  0  0  0  0
  1  2  1  0  0  0  0
  1 23  1  0  0  0  0
  1 24  1  0  0  0  0
  1 25  1  0  0  0  0
  2 22  1  0  0  0  0
  2  3  2  0  0  0  0
  3  4  1  0  0  0  0
  3 26  1  0  0  0  0
  4  5  2  0  0  0  0
  4 27  1  0  0  0  0
  5  6  1  0  0  0  0
  5  7  1  0  0  0  0
  6 28  1  0  0  0  0
  6 29  1  0  0  0  0
  6 30  1  0  0  0  0
  7  8  1  0  0  0  0
  7 22  2  0  0  0  0
  8  9  1  0  0  0  0
  9 10  1  0  0  0  0
  9 31  1  0  0  0  0
  9 32  1  0  0  0  0
 10 11  1  0  0  0  0
 10 12  1  0  0  0  0
 10 33  1  0  0  0  0
 11 34  1  0  0  0  0
 12 13  1  0  0  0  0
 12 35  1  0  0  0  0
 12 36  1  0  0  0  0
 13 20  1  0  0  0  0
 13 14  1  0  0  0  0
 14 15  2  0  0  0  0
 14 37  1  0  0  0  0
 15 16  1  0  0  0  0
 16 17  1  0  0  0  0
 16 18  2  0  0  0  0
 17 38  1  0  0  0  0
 17 39  1  0  0  0  0
 17 40  1  0  0  0  0
 18 19  1  0  0  0  0
 18 20  1  0  0  0  0
 19 41  1  0  0  0  0
 19 42  1  0  0  0  0
 19 43  1  0  0  0  0
 20 21  2  0  0  0  0
 22 44  1  0  0  0  0
M  END
> <s_m_source_file>
AV-unprocessed.smi

> <i_m_source_file_index>
2284

> <i_lp_mmshare_version>
43012

> <i_f3d_flags>
0

> <s_epik_input>
W0NIM11jMVtjSF1bY0hdYyhbQ0gzXSljKFtjSF0xKU9bQ0gyXVtDQEhdKFtPSF0pW0NIMl1uMltjSF1uYyhbQ0gzXSljKFtDSDNdKWMyPU8=

> <s_epik_cmdline>
J2VwaWtfcHl0aG9uJywgJy1waCcsICc3LjAnLCAnLXRuJywgJzgnLCAnLW1hJywgJzIwMCcsICctbWV0YWxfYmluZGluZycsICctaW1hZScsICc8aW5maWxlLm1hZT4nLCAnLW9tYWUnLCAnPG91dGZpbGUubWFlPic=

> <r_lp_tautomer_probability>
1

> <r_epik_Ionization_Penalty>
3.7476e-05

> <r_epik_Ionization_Penalty_Charging>
8.44705e-08

> <r_epik_Ionization_Penalty_Neutral>
3.73915e-05

> <r_epik_State_Penalty>
-0

> <r_epik_Charging_Adjusted_Penalty>
8.44705e-08

> <i_epik_Tot_Q>
0

> <i_epik_Tot_abs_Q>
0

> <r_epik_Metal_State_Penalty>
-0

> <b_epik_Metal_Only>
0

> <s_lp_Force_Field>
OPLS_2005

> <r_lp_Energy>
21.7941

> <b_lp_Chiralities_Consistent>
1

> <s_lp_Variant>
AV-unprocessed.smi:2284-2

> <Gold.Version>
5.8.1

> <Gold.Id.Protein>
6NUR|6NUR_protein|mol2

> <Gold.PLP.Fitness>
44.0833

> <Gold.PLP.PLP>
-41.8986

> <Gold.PLP.part.hbond>
-2.0000

> <Gold.PLP.part.metal>
0.0000

> <Gold.PLP.part.buried>
-1.4517

> <Gold.PLP.part.nonpolar>
-37.1171

> <Gold.PLP.part.repulsive>
0.0000

> <Gold.PLP.ligand.clash>
0.0000

> <Gold.PLP.ligand.torsion>
0.4005

> <Gold.PLP.Chemscore.Hbond>
0.9760

> <Gold.PLP.Chemscore.CHOScore>
0.0000

> <Gold.PLP.Chemscore.Metal>
0.0000

> <Gold.Chemscore.Hbonds>
donor molecule, donor type, donor heavy atom, donor atom, acceptor molecule, acceptor atom, score
      P1  H  7997  8009       L1    21  0.72

> <Gold.PLP.Chemscore.Internal.Correction>
0.0578

> <Gold.Rescore>
     Score         DG    S(hbond)    S(metal)    S(lipo)     H(rot)  DE(clash)    DE(int)     intcor
     11.94     -15.62       0.94        0.00     110.57       2.32       0.19       3.49       ----

> <Gold.Chemscore.Fitness>
11.9391

> <Gold.Chemscore.DG>
-15.6215

> <Gold.Chemscore.ZeroCoef>
-5.4800

> <Gold.Chemscore.Hbond>
0.9443

> <Gold.Chemscore.Metal>
0.0000

> <Gold.Chemscore.Lipo>
110.5651

> <Gold.Chemscore.Internal_Hbond>
0.0000

> <Gold.Chemscore.DEClash>
0.1894

> <Gold.Chemscore.DEInternal>
3.4930

> <Gold.Chemscore.Rot>
2.3236

> <Gold.Chemscore.Internal.Correction>
   9.000000E+99

> <Gold.Chemscore.Hbonds>
donor molecule, donor type, donor heavy atom, donor atom, acceptor molecule, acceptor atom, score
      P1  H  7997  8009       L1    21  0.64

> <Gold.Chemscore.Hbond.Weighted>
-3.1538

> <Gold.Chemscore.Metal.Weighted>
-0.0000

> <Gold.Chemscore.Lipo.Weighted>
-12.9361

> <Gold.Chemscore.Internal_Hbond.Weighted>
0.0000

> <Gold.Chemscore.DEClash.Weighted>
0.1894

> <Gold.Chemscore.DEInternal.Weighted>
3.4930

> <Gold.Chemscore.Rot.Weighted>
5.9484

> <Gold.Chemscore.Internal.Correction.Weighted>
   9.000000E+99

> <Gold.Protein.RotatedTorsions>
[ 6907 6896 6895 6894 ] final -104.26 input  -60.11 | X-H torsion
[ 7974 7965 7964 7962 ] final -170.85 input  175.53 | X-H torsion
[ 8008 7997 7996 7995 ] final  136.09 input   59.86 | X-H torsion
[ 10167 10162 10161 10158 ] final  -33.36 input  -65.29 | X-H torsion
[ 10718 10713 10712 10709 ] final  -64.17 input   66.30 | X-H torsion
[ 10763 10752 10751 10750 ] final  -57.11 input  -60.55 | X-H torsion
[ 11005 11000 10999 10996 ] final   60.00 input  -57.11 | X-H torsion

> <Gold.Protein.ActiveResidues>
 VAL166  LYS551  ARG553  GLY616  TRP617  ASP618  TYR619  PRO620  LYS621  CYS622 
 ASP623  PHE694  ASN695  SER759  ASP760  ASP761  ALA762  ILE779  LEU786  VAL792 
 PHE793  MET794  SER795  GLU796  ALA797  LYS798  CYS799  TRP800  GLU811  SER814 

> <Gold.Protein.RotatedAtoms>
  150.7278  134.0305  159.3731 H   0  0  0  0  0  0  0  0  0  0  0  0  # atno 6907 bound_to 6896
  151.8274  135.0630  160.0442 H   0  0  0  0  0  0  0  0  0  0  0  0  # atno 6908 bound_to 6896
  152.2959  133.5571  159.5623 H   0  0  0  0  0  0  0  0  0  0  0  0  # atno 6909 bound_to 6896
  144.7164  140.2011  143.6338 H   0  0  0  0  0  0  0  0  0  0  0  0  # atno 7974 bound_to 7965
  156.3004  140.2454  156.3689 H   0  0  0  0  0  0  0  0  0  0  0  0  # atno 8008 bound_to 7997
  154.8807  140.0412  157.1800 H   0  0  0  0  0  0  0  0  0  0  0  0  # atno 8009 bound_to 7997
  154.8698  140.2933  155.5492 H   0  0  0  0  0  0  0  0  0  0  0  0  # atno 8010 bound_to 7997
  140.7206  143.3626  151.1933 H   0  0  0  0  0  0  0  0  0  0  0  0  # atno 10167 bound_to 10162
  156.0745  130.4230  150.1382 H   0  0  0  0  0  0  0  0  0  0  0  0  # atno 10718 bound_to 10713
  154.2172  135.6384  153.5133 H   0  0  0  0  0  0  0  0  0  0  0  0  # atno 10763 bound_to 10752
  152.9977  135.5488  154.6152 H   0  0  0  0  0  0  0  0  0  0  0  0  # atno 10764 bound_to 10752
  154.5604  135.2908  155.0898 H   0  0  0  0  0  0  0  0  0  0  0  0  # atno 10765 bound_to 10752
  140.0263  134.6077  155.9568 H   0  0  0  0  0  0  0  0  0  0  0  0  # atno 11005 bound_to 11000
  145.8679  139.2256  143.1678 LP  0  0  0  0  0  0  0  0  0  0  0  0  # atno 17320 bound_to 7965
  146.0112  140.8433  142.9970 LP  0  0  0  0  0  0  0  0  0  0  0  0  # atno 17321 bound_to 7965
  139.7181  143.9267  152.2975 LP  0  0  0  0  0  0  0  0  0  0  0  0  # atno 17342 bound_to 10162
  139.9015  144.6909  150.8660 LP  0  0  0  0  0  0  0  0  0  0  0  0  # atno 17343 bound_to 10162
  156.9426  130.9749  151.3513 LP  0  0  0  0  0  0  0  0  0  0  0  0  # atno 17370 bound_to 10713
  157.5834  130.8392  149.8555 LP  0  0  0  0  0  0  0  0  0  0  0  0  # atno 17371 bound_to 10713
  141.1805  133.6546  156.5000 LP  0  0  0  0  0  0  0  0  0  0  0  0  # atno 17394 bound_to 11000
  140.4300  134.7110  157.4937 LP  0  0  0  0  0  0  0  0  0  0  0  0  # atno 17395 bound_to 11000

$$$$
