AV-unprocessed.smi:869|AV-procd|sdf|4003|dock2
  -GOLD-   22720 1483D 1   1.00000     0.00000
 Structure written by MMmdl.
 46 48  0  0  0  0  0  0  0  0  1 V2000
  154.6068  137.3531  158.2963 C   0  0  0  0  0  0  0  0  0  0  0  0
  154.1961  138.7038  158.4115 O   0  0  0  0  0  0  0  0  0  0  0  0
  152.8669  138.8250  158.8958 C   0  0  0  0  0  0  0  0  0  0  0  0
  152.5496  140.2845  159.0596 C   0  0  0  0  0  0  0  0  0  0  0  0
  153.1817  141.0758  159.9302 N   0  0  0  0  0  0  0  0  0  0  0  0
  152.5748  142.2997  159.7302 C   0  0  0  0  0  0  0  0  0  0  0  0
  152.7986  143.5491  160.3519 C   0  0  0  0  0  0  0  0  0  0  0  0
  152.0439  144.6793  159.9747 C   0  0  0  0  0  0  0  0  0  0  0  0
  151.0575  144.5768  158.9724 C   0  0  0  0  0  0  0  0  0  0  0  0
  150.8193  143.3414  158.3400 C   0  0  0  0  0  0  0  0  0  0  0  0
  151.5746  142.2163  158.7214 C   0  0  0  0  0  0  0  0  0  0  0  0
  151.5897  140.8868  158.3122 N   0  0  0  0  0  0  0  0  0  0  0  0
  150.7379  140.2995  157.2856 C   0  0  0  0  0  0  0  0  0  0  0  0
  151.5432  139.5521  156.2035 C   0  0  2  0  0  0  0  0  0  0  0  0
  152.3865  140.4701  155.5357 O   0  0  0  0  0  0  0  0  0  0  0  0
  150.6274  138.8877  155.1636 C   0  0  0  0  0  0  0  0  0  0  0  0
  150.1164  139.8907  154.2953 O   0  0  0  0  0  0  0  0  0  0  0  0
  148.9336  140.5105  154.6372 C   0  0  0  0  0  0  0  0  0  0  0  0
  148.4920  141.5537  153.7976 C   0  0  0  0  0  0  0  0  0  0  0  0
  147.2955  142.2436  154.0713 C   0  0  0  0  0  0  0  0  0  0  0  0
  146.5220  141.8974  155.1966 C   0  0  0  0  0  0  0  0  0  0  0  0
  145.2340  142.6363  155.4956 C   0  0  0  0  0  0  0  0  0  0  0  0
  146.9517  140.8549  156.0410 C   0  0  0  0  0  0  0  0  0  0  0  0
  148.1480  140.1642  155.7657 C   0  0  0  0  0  0  0  0  0  0  0  0
  155.6296  137.3121  157.9215 H   0  0  0  0  0  0  0  0  0  0  0  0
  153.9702  136.8053  157.6000 H   0  0  0  0  0  0  0  0  0  0  0  0
  154.5821  136.8498  159.2640 H   0  0  0  0  0  0  0  0  0  0  0  0
  152.1615  138.3796  158.1927 H   0  0  0  0  0  0  0  0  0  0  0  0
  152.7679  138.3179  159.8564 H   0  0  0  0  0  0  0  0  0  0  0  0
  153.5522  143.6372  161.1204 H   0  0  0  0  0  0  0  0  0  0  0  0
  152.2227  145.6293  160.4566 H   0  0  0  0  0  0  0  0  0  0  0  0
  150.4835  145.4470  158.6894 H   0  0  0  0  0  0  0  0  0  0  0  0
  150.0643  143.2592  157.5725 H   0  0  0  0  0  0  0  0  0  0  0  0
  150.0511  139.6102  157.7779 H   0  0  0  0  0  0  0  0  0  0  0  0
  150.1152  141.0722  156.8349 H   0  0  0  0  0  0  0  0  0  0  0  0
  152.1611  138.7918  156.6830 H   0  0  0  0  0  0  0  0  0  0  0  0
  152.2634  141.3238  155.9222 H   0  0  0  0  0  0  0  0  0  0  0  0
  151.2096  138.1835  154.5668 H   0  0  0  0  0  0  0  0  0  0  0  0
  149.8278  138.3292  155.6536 H   0  0  0  0  0  0  0  0  0  0  0  0
  149.0776  141.8286  152.9325 H   0  0  0  0  0  0  0  0  0  0  0  0
  146.9751  143.0391  153.4145 H   0  0  0  0  0  0  0  0  0  0  0  0
  144.3841  142.0919  155.0839 H   0  0  0  0  0  0  0  0  0  0  0  0
  145.2460  143.6359  155.0599 H   0  0  0  0  0  0  0  0  0  0  0  0
  145.0887  142.7389  156.5713 H   0  0  0  0  0  0  0  0  0  0  0  0
  146.3639  140.5803  156.9046 H   0  0  0  0  0  0  0  0  0  0  0  0
  148.4409  139.3722  156.4377 H   0  0  0  0  0  0  0  0  0  0  0  0
  1  2  1  0  0  0  0
  1 25  1  0  0  0  0
  1 26  1  0  0  0  0
  1 27  1  0  0  0  0
  2  3  1  0  0  0  0
  3  4  1  0  0  0  0
  3 28  1  0  0  0  0
  3 29  1  0  0  0  0
  4 12  1  0  0  0  0
  4  5  2  0  0  0  0
  5  6  1  0  0  0  0
  6 11  2  0  0  0  0
  6  7  1  0  0  0  0
  7  8  2  0  0  0  0
  7 30  1  0  0  0  0
  8  9  1  0  0  0  0
  8 31  1  0  0  0  0
  9 10  2  0  0  0  0
  9 32  1  0  0  0  0
 10 11  1  0  0  0  0
 10 33  1  0  0  0  0
 11 12  1  0  0  0  0
 12 13  1  0  0  0  0
 13 14  1  0  0  0  0
 13 34  1  0  0  0  0
 13 35  1  0  0  0  0
 14 15  1  0  0  0  0
 14 16  1  0  0  0  0
 14 36  1  0  0  0  0
 15 37  1  0  0  0  0
 16 17  1  0  0  0  0
 16 38  1  0  0  0  0
 16 39  1  0  0  0  0
 17 18  1  0  0  0  0
 18 24  1  0  0  0  0
 18 19  2  0  0  0  0
 19 20  1  0  0  0  0
 19 40  1  0  0  0  0
 20 21  2  0  0  0  0
 20 41  1  0  0  0  0
 21 22  1  0  0  0  0
 21 23  1  0  0  0  0
 22 42  1  0  0  0  0
 22 43  1  0  0  0  0
 22 44  1  0  0  0  0
 23 24  2  0  0  0  0
 23 45  1  0  0  0  0
 24 46  1  0  0  0  0
M  END
> <s_m_source_file>
AV-unprocessed.smi

> <i_m_source_file_index>
869

> <i_lp_mmshare_version>
43012

> <i_f3d_flags>
0

> <s_epik_input>
W2NIXTFbY0hdW2NIXVtjSF1jKGMxMiluKGMobjIpW0NIMl1PW0NIM10pW0NIMl1bQ0BIXShbT0hdKVtDSDJdT2MzW2NIXVtjSF1jKFtDSDNdKVtjSF1bY0hdMw==

> <s_epik_cmdline>
J2VwaWtfcHl0aG9uJywgJy1waCcsICc3LjAnLCAnLXRuJywgJzgnLCAnLW1hJywgJzIwMCcsICctbWV0YWxfYmluZGluZycsICctaW1hZScsICc8aW5maWxlLm1hZT4nLCAnLW9tYWUnLCAnPG91dGZpbGUubWFlPic=

> <r_lp_tautomer_probability>
1

> <r_epik_Ionization_Penalty>
0.0446698

> <r_epik_Ionization_Penalty_Charging>
0

> <r_epik_Ionization_Penalty_Neutral>
0.0446698

> <r_epik_State_Penalty>
0.0378721

> <r_epik_Charging_Adjusted_Penalty>
0.0378721

> <i_epik_Tot_Q>
0

> <i_epik_Tot_abs_Q>
0

> <r_epik_Metal_State_Penalty>
3.91074e-05

> <b_epik_Metal_Only>
0

> <s_lp_Force_Field>
OPLS_2005

> <r_lp_Energy>
18.3229

> <b_lp_Chiralities_Consistent>
1

> <s_lp_Variant>
AV-unprocessed.smi:869-1

> <Gold.Version>
5.8.1

> <Gold.Id.Protein>
6NUR|6NUR_protein|mol2

> <Gold.PLP.Fitness>
49.4981

> <Gold.PLP.PLP>
-44.0142

> <Gold.PLP.part.hbond>
-3.8673

> <Gold.PLP.part.metal>
0.0000

> <Gold.PLP.part.buried>
-2.4537

> <Gold.PLP.part.nonpolar>
-37.4718

> <Gold.PLP.part.repulsive>
0.1298

> <Gold.PLP.ligand.clash>
0.0000

> <Gold.PLP.ligand.torsion>
0.3857

> <Gold.PLP.Chemscore.Hbond>
2.0000

> <Gold.PLP.Chemscore.CHOScore>
0.0000

> <Gold.PLP.Chemscore.Metal>
0.0000

> <Gold.Chemscore.Hbonds>
donor molecule, donor type, donor heavy atom, donor atom, acceptor molecule, acceptor atom, score
      P1  H  7989  7998       L1    17  1.00
      P1  H  7997  8009       L1     2  1.00

> <Gold.PLP.Chemscore.Internal.Correction>
0.2554

> <Gold.Rescore>
     Score         DG    S(hbond)    S(metal)    S(lipo)     H(rot)  DE(clash)    DE(int)     intcor
     17.80     -19.70       1.70        0.00     124.51       2.36       1.40       0.50       ----

> <Gold.Chemscore.Fitness>
17.8031

> <Gold.Chemscore.DG>
-19.7021

> <Gold.Chemscore.ZeroCoef>
-5.4800

> <Gold.Chemscore.Hbond>
1.7044

> <Gold.Chemscore.Metal>
0.0000

> <Gold.Chemscore.Lipo>
124.5068

> <Gold.Chemscore.Internal_Hbond>
0.0000

> <Gold.Chemscore.DEClash>
1.3979

> <Gold.Chemscore.DEInternal>
0.5011

> <Gold.Chemscore.Rot>
2.3585

> <Gold.Chemscore.Internal.Correction>
   9.000000E+99

> <Gold.Chemscore.Hbonds>
donor molecule, donor type, donor heavy atom, donor atom, acceptor molecule, acceptor atom, score
      P1  H  7989  7998       L1    17  0.66
      P1  H  7997  8009       L1     2  0.88

> <Gold.Chemscore.Hbond.Weighted>
-5.6926

> <Gold.Chemscore.Metal.Weighted>
-0.0000

> <Gold.Chemscore.Lipo.Weighted>
-14.5673

> <Gold.Chemscore.Internal_Hbond.Weighted>
0.0000

> <Gold.Chemscore.DEClash.Weighted>
1.3979

> <Gold.Chemscore.DEInternal.Weighted>
0.5011

> <Gold.Chemscore.Rot.Weighted>
6.0378

> <Gold.Chemscore.Internal.Correction.Weighted>
   9.000000E+99

> <Gold.Protein.RotatedTorsions>
[ 6907 6896 6895 6894 ] final  127.65 input  -60.11 | X-H torsion
[ 7974 7965 7964 7962 ] final -109.86 input  175.53 | X-H torsion
[ 8008 7997 7996 7995 ] final  148.32 input   59.86 | X-H torsion
[ 10167 10162 10161 10158 ] final  174.47 input  -65.29 | X-H torsion
[ 10718 10713 10712 10709 ] final   25.45 input   66.30 | X-H torsion
[ 10763 10752 10751 10750 ] final -125.09 input  -60.55 | X-H torsion
[ 11005 11000 10999 10996 ] final -129.24 input  -57.11 | X-H torsion

> <Gold.Protein.ActiveResidues>
 VAL166  LYS551  ARG553  GLY616  TRP617  ASP618  TYR619  PRO620  LYS621  CYS622 
 ASP623  PHE694  ASN695  SER759  ASP760  ASP761  ALA762  ILE779  LEU786  VAL792 
 PHE793  MET794  SER795  GLU796  ALA797  LYS798  CYS799  TRP800  GLU811  SER814 

> <Gold.Protein.RotatedAtoms>
  152.3793  133.6523  159.6147 H   0  0  0  0  0  0  0  0  0  0  0  0  # atno 6907 bound_to 6896
  150.7728  133.9141  159.3387 H   0  0  0  0  0  0  0  0  0  0  0  0  # atno 6908 bound_to 6896
  151.6950  135.0941  160.0292 H   0  0  0  0  0  0  0  0  0  0  0  0  # atno 6909 bound_to 6896
  145.1753  140.8945  143.3511 H   0  0  0  0  0  0  0  0  0  0  0  0  # atno 7974 bound_to 7965
  156.2795  140.2132  156.5679 H   0  0  0  0  0  0  0  0  0  0  0  0  # atno 8008 bound_to 7997
  154.7159  140.0508  157.0617 H   0  0  0  0  0  0  0  0  0  0  0  0  # atno 8009 bound_to 7997
  155.0543  140.3159  155.4684 H   0  0  0  0  0  0  0  0  0  0  0  0  # atno 8010 bound_to 7997
  139.5143  144.3143  152.0262 H   0  0  0  0  0  0  0  0  0  0  0  0  # atno 10167 bound_to 10162
  157.1935  130.6857  149.6159 H   0  0  0  0  0  0  0  0  0  0  0  0  # atno 10718 bound_to 10713
  154.8732  135.4041  154.3212 H   0  0  0  0  0  0  0  0  0  0  0  0  # atno 10763 bound_to 10752
  153.4040  135.7019  153.6411 H   0  0  0  0  0  0  0  0  0  0  0  0  # atno 10764 bound_to 10752
  153.5142  135.3701  155.2572 H   0  0  0  0  0  0  0  0  0  0  0  0  # atno 10765 bound_to 10752
  140.9448  134.1144  157.4117 H   0  0  0  0  0  0  0  0  0  0  0  0  # atno 11005 bound_to 11000
  145.0191  139.3440  143.6081 LP  0  0  0  0  0  0  0  0  0  0  0  0  # atno 17320 bound_to 7965
  146.3462  139.9484  142.8732 LP  0  0  0  0  0  0  0  0  0  0  0  0  # atno 17321 bound_to 7965
  140.2587  144.4091  150.6194 LP  0  0  0  0  0  0  0  0  0  0  0  0  # atno 17342 bound_to 10162
  140.6173  143.2173  151.6766 LP  0  0  0  0  0  0  0  0  0  0  0  0  # atno 17343 bound_to 10162
  155.9709  130.4607  150.6081 LP  0  0  0  0  0  0  0  0  0  0  0  0  # atno 17370 bound_to 10713
  157.3837  131.0785  151.1454 LP  0  0  0  0  0  0  0  0  0  0  0  0  # atno 17371 bound_to 10713
  139.8830  135.0048  156.6272 LP  0  0  0  0  0  0  0  0  0  0  0  0  # atno 17394 bound_to 11000
  140.7684  133.8759  155.8472 LP  0  0  0  0  0  0  0  0  0  0  0  0  # atno 17395 bound_to 11000

$$$$
