AV-unprocessed.smi:66|AV-procd|sdf|618|dock7
  -GOLD-   2262016513D 1   1.00000     0.00000
 Structure written by MMmdl.
 28 30  0  0  0  0  0  0  0  0  2 V2000
  154.0045  141.5084  160.1260 O   0  0  0  0  0  0  0  0  0  0  0  0
  153.5761  140.6341  159.3419 C   0  0  0  0  0  0  0  0  0  0  0  0
  154.2462  139.6845  158.8780 O   0  5  0  0  0  0  0  0  0  0  0  0
  152.1053  140.7483  158.9147 C   0  0  1  0  0  0  0  0  0  0  0  0
  151.5582  142.1717  159.1146 C   0  0  0  0  0  0  0  0  0  0  0  0
  150.4604  142.2725  158.0604 C   0  0  1  0  0  0  0  0  0  0  0  0
  150.1491  143.6074  157.7218 O   0  0  0  0  0  0  0  0  0  0  0  0
  151.0396  141.4906  156.8822 C   0  0  0  0  0  0  0  0  0  0  0  0
  151.9099  140.4887  157.4846 N   0  0  0  0  0  0  0  0  0  0  0  0
  151.9789  139.2408  156.9496 C   0  0  0  0  0  0  0  0  0  0  0  0
  152.6156  138.2544  157.6359 N   0  0  0  0  0  0  0  0  0  0  0  0
  152.6979  137.0191  157.1335 C   0  0  0  0  0  0  0  0  0  0  0  0
  152.2205  136.5541  155.9774 N   0  0  0  0  0  0  0  0  0  0  0  0
  151.5862  137.5384  155.2823 C   0  0  0  0  0  0  0  0  0  0  0  0
  150.9745  137.4471  154.0505 N   0  0  0  0  0  0  0  0  0  0  0  0
  150.4908  138.7017  153.7737 C   0  0  0  0  0  0  0  0  0  0  0  0
  150.7266  139.5930  154.6981 N   0  0  0  0  0  0  0  0  0  0  0  0
  151.4187  138.8943  155.6851 C   0  0  0  0  0  0  0  0  0  0  0  0
  150.9277  136.5978  153.5067 H   0  0  0  0  0  0  0  0  0  0  0  0
  151.4974  140.0488  159.4906 H   0  0  0  0  0  0  0  0  0  0  0  0
  151.1832  142.3365  160.1251 H   0  0  0  0  0  0  0  0  0  0  0  0
  152.3300  142.9190  158.9190 H   0  0  0  0  0  0  0  0  0  0  0  0
  149.5620  141.7725  158.4250 H   0  0  0  0  0  0  0  0  0  0  0  0
  149.4295  143.5983  157.1092 H   0  0  0  0  0  0  0  0  0  0  0  0
  150.2423  141.0590  156.2757 H   0  0  0  0  0  0  0  0  0  0  0  0
  151.6490  142.1303  156.2425 H   0  0  0  0  0  0  0  0  0  0  0  0
  153.2220  136.3015  157.7472 H   0  0  0  0  0  0  0  0  0  0  0  0
  149.9593  138.9349  152.8628 H   0  0  0  0  0  0  0  0  0  0  0  0
  1  2  2  0  0  0  0
  2  3  1  0  0  0  0
  2  4  1  0  0  0  0
  4  5  1  0  0  0  0
  4 20  1  0  0  0  0
  4  9  1  0  0  0  0
  5  6  1  0  0  0  0
  5 21  1  0  0  0  0
  5 22  1  0  0  0  0
  6  7  1  0  0  0  0
  6  8  1  0  0  0  0
  6 23  1  0  0  0  0
  7 24  1  0  0  0  0
  8 25  1  0  0  0  0
  8 26  1  0  0  0  0
  8  9  1  0  0  0  0
  9 10  1  0  0  0  0
 10 11  1  0  0  0  0
 10 18  2  0  0  0  0
 11 12  2  0  0  0  0
 12 27  1  0  0  0  0
 12 13  1  0  0  0  0
 13 14  2  0  0  0  0
 14 15  1  0  0  0  0
 14 18  1  0  0  0  0
 15 16  1  0  0  0  0
 15 19  1  0  0  0  0
 16 17  2  0  0  0  0
 16 28  1  0  0  0  0
 17 18  1  0  0  0  0
M  CHG  1   3  -1
M  END
> <s_m_source_file>
AV-unprocessed.smi

> <i_m_source_file_index>
66

> <i_lp_mmshare_version>
43012

> <i_f3d_flags>
0

> <s_epik_input>
Tz1DKFtPSF0pW0NAQEhdMVtDSDJdW0NAQEhdKFtPSF0pW0NIMl1OMWMobltjSF1uMiljKGMyMylbbkhdW2NIXW4z

> <s_epik_cmdline>
J2VwaWtfcHl0aG9uJywgJy1waCcsICc3LjAnLCAnLXRuJywgJzgnLCAnLW1hJywgJzIwMCcsICctbWV0YWxfYmluZGluZycsICctaW1hZScsICc8aW5maWxlLm1hZT4nLCAnLW9tYWUnLCAnPG91dGZpbGUubWFlPic=

> <r_lp_tautomer_probability>
0.955585

> <r_epik_Ionization_Penalty>
0.00455415

> <r_epik_Ionization_Penalty_Charging>
0.000248217

> <r_epik_Ionization_Penalty_Neutral>
0.00430593

> <r_epik_State_Penalty>
0.0207074

> <r_epik_Charging_Adjusted_Penalty>
0.0209557

> <i_epik_Tot_Q>
-1

> <i_epik_Tot_abs_Q>
1

> <r_epik_Metal_State_Penalty>
0.337372

> <b_epik_Metal_Only>
0

> <s_lp_Force_Field>
OPLS_2005

> <r_lp_Energy>
25.5493

> <b_lp_Chiralities_Consistent>
1

> <s_lp_Variant>
AV-unprocessed.smi:66-2

> <Gold.Version>
5.8.1

> <Gold.Id.Protein>
6NUR|6NUR_protein|mol2

> <Gold.PLP.Fitness>
43.5840

> <Gold.PLP.PLP>
-26.4988

> <Gold.PLP.part.hbond>
-5.7419

> <Gold.PLP.part.metal>
0.0000

> <Gold.PLP.part.buried>
-5.0144

> <Gold.PLP.part.nonpolar>
-16.3458

> <Gold.PLP.part.repulsive>
0.2041

> <Gold.PLP.ligand.clash>
0.0224

> <Gold.PLP.ligand.torsion>
0.6428

> <Gold.PLP.Chemscore.Hbond>
5.0592

> <Gold.PLP.Chemscore.CHOScore>
1.0000

> <Gold.PLP.Chemscore.Metal>
0.0000

> <Gold.Chemscore.Hbonds>
donor molecule, donor type, donor heavy atom, donor atom, acceptor molecule, acceptor atom, score
      L1  H     7    24       P1  8028  0.69
      L1  H    15    19       P1  7949  0.55
      P1  H  7989  7998       L1    17  0.75
      P1  H  7997  8010       L1     3  2.00
      P1  H 10752 10765       L1    13  1.00
      L1  C    16    28       P1  7957  1.00

> <Gold.PLP.Chemscore.Internal.Correction>
0.2158

> <Gold.Rescore>
     Score         DG    S(hbond)    S(metal)    S(lipo)     H(rot)  DE(clash)    DE(int)     intcor
      8.93     -14.54       2.86        0.00      34.99       1.78       0.40       5.22       ----

> <Gold.Chemscore.Fitness>
8.9323

> <Gold.Chemscore.DG>
-14.5443

> <Gold.Chemscore.ZeroCoef>
-5.4800

> <Gold.Chemscore.Hbond>
2.8556

> <Gold.Chemscore.Metal>
0.0000

> <Gold.Chemscore.Lipo>
34.9923

> <Gold.Chemscore.Internal_Hbond>
0.0000

> <Gold.Chemscore.DEClash>
0.3962

> <Gold.Chemscore.DEInternal>
5.2159

> <Gold.Chemscore.Rot>
1.7842

> <Gold.Chemscore.Internal.Correction>
   9.000000E+99

> <Gold.Chemscore.Hbonds>
donor molecule, donor type, donor heavy atom, donor atom, acceptor molecule, acceptor atom, score
      L1  H     7    24       P1  8028  0.56
      L1  H    15    19       P1  7949  0.11
      P1  H  7989  7998       L1    17  0.09
      P1  H  7997  8010       L1     3  0.91
      P1  H 10752 10765       L1    13  0.89

> <Gold.Chemscore.Hbond.Weighted>
-9.5379

> <Gold.Chemscore.Metal.Weighted>
-0.0000

> <Gold.Chemscore.Lipo.Weighted>
-4.0941

> <Gold.Chemscore.Internal_Hbond.Weighted>
0.0000

> <Gold.Chemscore.DEClash.Weighted>
0.3962

> <Gold.Chemscore.DEInternal.Weighted>
5.2159

> <Gold.Chemscore.Rot.Weighted>
4.5676

> <Gold.Chemscore.Internal.Correction.Weighted>
   9.000000E+99

> <Gold.Protein.RotatedTorsions>
[ 6907 6896 6895 6894 ] final   95.34 input  -60.11 | X-H torsion
[ 7974 7965 7964 7962 ] final   91.57 input  175.53 | X-H torsion
[ 8008 7997 7996 7995 ] final   -2.14 input   59.86 | X-H torsion
[ 10167 10162 10161 10158 ] final  102.99 input  -65.29 | X-H torsion
[ 10718 10713 10712 10709 ] final  178.14 input   66.30 | X-H torsion
[ 10763 10752 10751 10750 ] final -145.61 input  -60.55 | X-H torsion
[ 11005 11000 10999 10996 ] final   46.79 input  -57.11 | X-H torsion

> <Gold.Protein.ActiveResidues>
 VAL166  LYS551  ARG553  GLY616  TRP617  ASP618  TYR619  PRO620  LYS621  CYS622 
 ASP623  PHE694  ASN695  SER759  ASP760  ASP761  ALA762  ILE779  LEU786  VAL792 
 PHE793  MET794  SER795  GLU796  ALA797  LYS798  CYS799  TRP800  GLU811  SER814 

> <Gold.Protein.RotatedAtoms>
  152.5444  134.1055  159.8335 H   0  0  0  0  0  0  0  0  0  0  0  0  # atno 6907 bound_to 6896
  151.1127  133.5154  159.2612 H   0  0  0  0  0  0  0  0  0  0  0  0  # atno 6908 bound_to 6896
  151.1866  135.0394  159.8869 H   0  0  0  0  0  0  0  0  0  0  0  0  # atno 6909 bound_to 6896
  145.5039  139.2276  143.2762 H   0  0  0  0  0  0  0  0  0  0  0  0  # atno 7974 bound_to 7965
  154.6390  140.2542  155.7344 H   0  0  0  0  0  0  0  0  0  0  0  0  # atno 8008 bound_to 7997
  156.2519  140.2891  156.0696 H   0  0  0  0  0  0  0  0  0  0  0  0  # atno 8009 bound_to 7997
  155.1625  140.0384  157.2836 H   0  0  0  0  0  0  0  0  0  0  0  0  # atno 8010 bound_to 7997
  139.7301  144.7038  151.0735 H   0  0  0  0  0  0  0  0  0  0  0  0  # atno 10167 bound_to 10162
  156.8949  130.9860  151.3044 H   0  0  0  0  0  0  0  0  0  0  0  0  # atno 10718 bound_to 10713
  154.8375  135.3408  154.6532 H   0  0  0  0  0  0  0  0  0  0  0  0  # atno 10763 bound_to 10752
  153.7145  135.6962  153.5033 H   0  0  0  0  0  0  0  0  0  0  0  0  # atno 10764 bound_to 10752
  153.2427  135.4379  155.0668 H   0  0  0  0  0  0  0  0  0  0  0  0  # atno 10765 bound_to 10752
  140.1337  134.4672  155.8501 H   0  0  0  0  0  0  0  0  0  0  0  0  # atno 11005 bound_to 11000
  146.2209  140.5841  142.9018 LP  0  0  0  0  0  0  0  0  0  0  0  0  # atno 17320 bound_to 7965
  144.7765  140.5750  143.6635 LP  0  0  0  0  0  0  0  0  0  0  0  0  # atno 17321 bound_to 7965
  140.7770  143.5054  150.9719 LP  0  0  0  0  0  0  0  0  0  0  0  0  # atno 17342 bound_to 10162
  139.8742  143.7154  152.3163 LP  0  0  0  0  0  0  0  0  0  0  0  0  # atno 17343 bound_to 10162
  157.6061  130.8548  149.8878 LP  0  0  0  0  0  0  0  0  0  0  0  0  # atno 17370 bound_to 10713
  156.0610  130.3700  150.0982 LP  0  0  0  0  0  0  0  0  0  0  0  0  # atno 17371 bound_to 10713
  141.2175  133.6806  156.7118 LP  0  0  0  0  0  0  0  0  0  0  0  0  # atno 17394 bound_to 11000
  140.2809  134.8317  157.3932 LP  0  0  0  0  0  0  0  0  0  0  0  0  # atno 17395 bound_to 11000

$$$$
