AV-unprocessed.smi:2465|AV-procd|sdf|9723|dock3
  -GOLD-   2272013363D 1   1.00000     0.00000
 Structure written by MMmdl.
 41 42  0  0  0  0  0  0  0  0  2 V2000
  147.4585  133.2788  151.9402 C   0  0  0  0  0  0  0  0  0  0  0  0
  146.0519  133.5191  151.4188 C   0  0  0  0  0  0  0  0  0  0  0  0
  145.2687  132.4197  151.0020 C   0  0  0  0  0  0  0  0  0  0  0  0
  143.9663  132.6424  150.5159 C   0  0  0  0  0  0  0  0  0  0  0  0
  143.4833  133.9000  150.4489 N   0  3  0  0  0  0  0  0  0  0  0  0
  144.1936  134.9812  150.8355 C   0  0  0  0  0  0  0  0  0  0  0  0
  145.5082  134.8279  151.3459 C   0  0  0  0  0  0  0  0  0  0  0  0
  146.3190  135.9237  151.7616 N   0  0  0  0  0  0  0  0  0  0  0  0
  145.9636  137.0447  152.4135 C   0  0  0  0  0  0  0  0  0  0  0  0
  144.8224  137.3287  152.7759 O   0  0  0  0  0  0  0  0  0  0  0  0
  147.0266  137.8304  152.6382 N   0  0  0  0  0  0  0  0  0  0  0  0
  146.9880  139.1214  153.3158 C   0  0  0  0  0  0  0  0  0  0  0  0
  148.2771  139.3902  154.1091 C   0  0  0  0  0  0  0  0  0  0  0  0
  148.4257  140.8713  154.4940 C   0  0  0  0  0  0  0  0  0  0  0  0
  149.2866  141.0425  155.6612 N   0  0  0  0  0  0  0  0  0  0  0  0
  148.7678  141.6356  156.8825 C   0  0  0  0  0  0  0  0  0  0  0  0
  149.8920  141.4709  157.9155 C   0  0  0  0  0  0  0  0  0  0  0  0
  151.1410  141.0854  157.1154 C   0  0  0  0  0  0  0  0  0  0  0  0
  150.5891  140.7453  155.7414 C   0  0  0  0  0  0  0  0  0  0  0  0
  151.2804  140.2633  154.8451 O   0  0  0  0  0  0  0  0  0  0  0  0
  147.7162  132.2194  151.9180 H   0  0  0  0  0  0  0  0  0  0  0  0
  147.5474  133.6256  152.9703 H   0  0  0  0  0  0  0  0  0  0  0  0
  148.1872  133.8143  151.3310 H   0  0  0  0  0  0  0  0  0  0  0  0
  145.6596  131.4137  151.0518 H   0  0  0  0  0  0  0  0  0  0  0  0
  143.3032  131.8598  150.1765 H   0  0  0  0  0  0  0  0  0  0  0  0
  143.6780  135.9203  150.7071 H   0  0  0  0  0  0  0  0  0  0  0  0
  147.3068  135.8180  151.5820 H   0  0  0  0  0  0  0  0  0  0  0  0
  147.9293  137.5185  152.3110 H   0  0  0  0  0  0  0  0  0  0  0  0
  146.8511  139.8942  152.5587 H   0  0  0  0  0  0  0  0  0  0  0  0
  146.1177  139.1719  153.9723 H   0  0  0  0  0  0  0  0  0  0  0  0
  148.2845  138.7816  155.0144 H   0  0  0  0  0  0  0  0  0  0  0  0
  149.1384  139.0751  153.5184 H   0  0  0  0  0  0  0  0  0  0  0  0
  148.8345  141.4391  153.6567 H   0  0  0  0  0  0  0  0  0  0  0  0
  147.4451  141.3001  154.7052 H   0  0  0  0  0  0  0  0  0  0  0  0
  148.5487  142.6897  156.7071 H   0  0  0  0  0  0  0  0  0  0  0  0
  147.8488  141.1433  157.2033 H   0  0  0  0  0  0  0  0  0  0  0  0
  150.0433  142.3823  158.4948 H   0  0  0  0  0  0  0  0  0  0  0  0
  149.6413  140.6745  158.6175 H   0  0  0  0  0  0  0  0  0  0  0  0
  151.8351  141.9222  157.0313 H   0  0  0  0  0  0  0  0  0  0  0  0
  151.6658  140.2367  157.5550 H   0  0  0  0  0  0  0  0  0  0  0  0
  142.5397  134.0417  150.0873 H   0  0  0  0  0  0  0  0  0  0  0  0
  1  2  1  0  0  0  0
  1 21  1  0  0  0  0
  1 22  1  0  0  0  0
  1 23  1  0  0  0  0
  2  7  1  0  0  0  0
  2  3  2  0  0  0  0
  3  4  1  0  0  0  0
  3 24  1  0  0  0  0
  4  5  2  0  0  0  0
  4 25  1  0  0  0  0
  5  6  1  0  0  0  0
  5 41  1  0  0  0  0
  6  7  2  0  0  0  0
  6 26  1  0  0  0  0
  7  8  1  0  0  0  0
  8  9  1  0  0  0  0
  8 27  1  0  0  0  0
  9 10  2  0  0  0  0
  9 11  1  0  0  0  0
 11 12  1  0  0  0  0
 11 28  1  0  0  0  0
 12 13  1  0  0  0  0
 12 29  1  0  0  0  0
 12 30  1  0  0  0  0
 13 14  1  0  0  0  0
 13 31  1  0  0  0  0
 13 32  1  0  0  0  0
 14 15  1  0  0  0  0
 14 33  1  0  0  0  0
 14 34  1  0  0  0  0
 15 19  1  0  0  0  0
 15 16  1  0  0  0  0
 16 17  1  0  0  0  0
 16 35  1  0  0  0  0
 16 36  1  0  0  0  0
 17 18  1  0  0  0  0
 17 37  1  0  0  0  0
 17 38  1  0  0  0  0
 18 19  1  0  0  0  0
 18 39  1  0  0  0  0
 18 40  1  0  0  0  0
 19 20  2  0  0  0  0
M  CHG  1   5   1
M  END
> <s_m_source_file>
AV-unprocessed.smi

> <i_m_source_file_index>
2465

> <i_lp_mmshare_version>
43012

> <i_f3d_flags>
0

> <s_epik_input>
W0NIM11jMVtjSF1bY0hdbltjSF1jMVtOSF1DKD1PKVtOSF1bQ0gyXVtDSDJdW0NIMl1OMltDSDJdW0NIMl1bQ0gyXUMyPU8=

> <s_epik_cmdline>
J2VwaWtfcHl0aG9uJywgJy1waCcsICc3LjAnLCAnLXRuJywgJzgnLCAnLW1hJywgJzIwMCcsICctbWV0YWxfYmluZGluZycsICctaW1hZScsICc8aW5maWxlLm1hZT4nLCAnLW9tYWUnLCAnPG91dGZpbGUubWFlPic=

> <r_epik_Ionization_Penalty>
1.98477

> <r_epik_Ionization_Penalty_Charging>
1.98474

> <r_epik_Ionization_Penalty_Neutral>
2.19328e-05

> <r_epik_State_Penalty>
2.1123

> <r_epik_Charging_Adjusted_Penalty>
4.09705

> <i_epik_Tot_Q>
1

> <i_epik_Tot_abs_Q>
1

> <r_epik_Metal_State_Penalty>
2.13405

> <b_epik_Metal_Only>
0

> <s_lp_Force_Field>
OPLS_2005

> <r_lp_Energy>
26.0932

> <b_lp_Chiralities_Consistent>
1

> <s_lp_Variant>
AV-unprocessed.smi:2465-2

> <Gold.Version>
5.8.1

> <Gold.Id.Protein>
6NUR|6NUR_protein|mol2

> <Gold.PLP.Fitness>
51.6300

> <Gold.PLP.PLP>
-37.8944

> <Gold.PLP.part.hbond>
-3.9313

> <Gold.PLP.part.metal>
0.0000

> <Gold.PLP.part.buried>
-5.0969

> <Gold.PLP.part.nonpolar>
-29.5942

> <Gold.PLP.part.repulsive>
0.4451

> <Gold.PLP.ligand.clash>
0.0000

> <Gold.PLP.ligand.torsion>
0.6656

> <Gold.PLP.Chemscore.Hbond>
5.0000

> <Gold.PLP.Chemscore.CHOScore>
0.0000

> <Gold.PLP.Chemscore.Metal>
0.0000

> <Gold.Chemscore.Hbonds>
donor molecule, donor type, donor heavy atom, donor atom, acceptor molecule, acceptor atom, score
      L1  H     5    41       P1 10186  2.00
      L1  H     8    27       P1  7948  1.00
      L1  H    11    28       P1  7948  0.99
      P1  H  7989  7998       L1    20  0.96

> <Gold.PLP.Chemscore.Internal.Correction>
0.0668

> <Gold.Rescore>
     Score         DG    S(hbond)    S(metal)    S(lipo)     H(rot)  DE(clash)    DE(int)     intcor
     21.50     -22.37       3.88        0.00      72.58       1.78       0.20       0.67       ----

> <Gold.Chemscore.Fitness>
21.5019

> <Gold.Chemscore.DG>
-22.3708

> <Gold.Chemscore.ZeroCoef>
-5.4800

> <Gold.Chemscore.Hbond>
3.8821

> <Gold.Chemscore.Metal>
0.0000

> <Gold.Chemscore.Lipo>
72.5788

> <Gold.Chemscore.Internal_Hbond>
0.0000

> <Gold.Chemscore.DEClash>
0.1971

> <Gold.Chemscore.DEInternal>
0.6718

> <Gold.Chemscore.Rot>
1.7841

> <Gold.Chemscore.Internal.Correction>
   9.000000E+99

> <Gold.Chemscore.Hbonds>
donor molecule, donor type, donor heavy atom, donor atom, acceptor molecule, acceptor atom, score
      L1  H     5    41       P1 10186  0.98
      L1  H     8    27       P1  7948  0.97
      L1  H    11    28       P1  7948  0.94
      P1  H  7989  7998       L1    20  0.90

> <Gold.Chemscore.Hbond.Weighted>
-12.9664

> <Gold.Chemscore.Metal.Weighted>
-0.0000

> <Gold.Chemscore.Lipo.Weighted>
-8.4917

> <Gold.Chemscore.Internal_Hbond.Weighted>
0.0000

> <Gold.Chemscore.DEClash.Weighted>
0.1971

> <Gold.Chemscore.DEInternal.Weighted>
0.6718

> <Gold.Chemscore.Rot.Weighted>
4.5673

> <Gold.Chemscore.Internal.Correction.Weighted>
   9.000000E+99

> <Gold.Protein.RotatedTorsions>
[ 6907 6896 6895 6894 ] final  -79.79 input  -60.11 | X-H torsion
[ 7974 7965 7964 7962 ] final   43.59 input  175.53 | X-H torsion
[ 8008 7997 7996 7995 ] final    6.99 input   59.86 | X-H torsion
[ 10167 10162 10161 10158 ] final  -52.28 input  -65.29 | X-H torsion
[ 10718 10713 10712 10709 ] final  102.07 input   66.30 | X-H torsion
[ 10763 10752 10751 10750 ] final  -49.74 input  -60.55 | X-H torsion
[ 11005 11000 10999 10996 ] final -147.89 input  -57.11 | X-H torsion

> <Gold.Protein.ActiveResidues>
 VAL166  LYS551  ARG553  GLY616  TRP617  ASP618  TYR619  PRO620  LYS621  CYS622 
 ASP623  PHE694  ASN695  SER759  ASP760  ASP761  ALA762  ILE779  LEU786  VAL792 
 PHE793  MET794  SER795  GLU796  ALA797  LYS798  CYS799  TRP800  GLU811  SER814 

> <Gold.Protein.RotatedAtoms>
  150.6942  134.4068  159.5143 H   0  0  0  0  0  0  0  0  0  0  0  0  # atno 6907 bound_to 6896
  152.1833  134.8732  160.0533 H   0  0  0  0  0  0  0  0  0  0  0  0  # atno 6908 bound_to 6896
  151.9715  133.3692  159.4110 H   0  0  0  0  0  0  0  0  0  0  0  0  # atno 6909 bound_to 6896
  146.0642  139.5169  142.9639 H   0  0  0  0  0  0  0  0  0  0  0  0  # atno 7974 bound_to 7965
  154.7481  140.2761  155.6316 H   0  0  0  0  0  0  0  0  0  0  0  0  # atno 8008 bound_to 7997
  156.2889  140.2684  156.2153 H   0  0  0  0  0  0  0  0  0  0  0  0  # atno 8009 bound_to 7997
  155.0172  140.0372  157.2413 H   0  0  0  0  0  0  0  0  0  0  0  0  # atno 8010 bound_to 7997
  140.6545  143.2589  151.4626 H   0  0  0  0  0  0  0  0  0  0  0  0  # atno 10167 bound_to 10162
  157.6812  131.0743  150.5349 H   0  0  0  0  0  0  0  0  0  0  0  0  # atno 10718 bound_to 10713
  154.0990  135.6566  153.4865 H   0  0  0  0  0  0  0  0  0  0  0  0  # atno 10763 bound_to 10752
  153.0295  135.5220  154.7305 H   0  0  0  0  0  0  0  0  0  0  0  0  # atno 10764 bound_to 10752
  154.6452  135.2993  155.0024 H   0  0  0  0  0  0  0  0  0  0  0  0  # atno 10765 bound_to 10752
  140.7669  134.3233  157.5086 H   0  0  0  0  0  0  0  0  0  0  0  0  # atno 11005 bound_to 11000
  145.6507  141.0264  143.1762 LP  0  0  0  0  0  0  0  0  0  0  0  0  # atno 17320 bound_to 7965
  144.7192  139.8087  143.7388 LP  0  0  0  0  0  0  0  0  0  0  0  0  # atno 17321 bound_to 7965
  139.5765  144.1806  152.1911 LP  0  0  0  0  0  0  0  0  0  0  0  0  # atno 17342 bound_to 10162
  140.1118  144.5450  150.6920 LP  0  0  0  0  0  0  0  0  0  0  0  0  # atno 17343 bound_to 10162
  156.5657  130.4267  149.6042 LP  0  0  0  0  0  0  0  0  0  0  0  0  # atno 17370 bound_to 10713
  156.2783  130.7056  151.1873 LP  0  0  0  0  0  0  0  0  0  0  0  0  # atno 17371 bound_to 10713
  139.8762  134.9237  156.3331 LP  0  0  0  0  0  0  0  0  0  0  0  0  # atno 17394 bound_to 11000
  140.9610  133.7388  156.0401 LP  0  0  0  0  0  0  0  0  0  0  0  0  # atno 17395 bound_to 11000

$$$$
