AV-unprocessed.smi:2828|AV-procd|sdf|10897|dock10
  -GOLD-   2272015343D 1   1.00000     0.00000
 Structure written by MMmdl.
 38 39  0  0  0  0  0  0  0  0  1 V2000
  146.4488  137.5683  162.9676 C   0  0  0  0  0  0  0  0  0  0  0  0
  145.7564  136.4687  162.1619 C   0  0  0  0  0  0  0  0  0  0  0  0
  144.2530  136.6962  162.2473 C   0  0  0  0  0  0  0  0  0  0  0  0
  146.3196  135.8970  160.8613 C   0  0  0  0  0  0  0  0  0  0  0  0
  147.5898  136.4482  160.2978 C   0  0  0  0  0  0  0  0  0  0  0  0
  148.2764  137.2778  160.8941 O   0  0  0  0  0  0  0  0  0  0  0  0
  147.8728  136.0163  159.0593 N   0  0  0  0  0  0  0  0  0  0  0  0
  149.0347  136.4218  158.2770 C   0  0  0  0  0  0  0  0  0  0  0  0
  149.0518  137.9389  158.0312 C   0  0  0  0  0  0  0  0  0  0  0  0
  149.5979  138.2916  156.6885 C   0  0  0  0  0  0  0  0  0  0  0  0
  149.2633  137.7532  155.5181 N   0  0  0  0  0  0  0  0  0  0  0  0
  150.0233  138.4913  154.6656 C   0  0  0  0  0  0  0  0  0  0  0  0
  150.0006  138.2548  153.2813 N   0  0  0  0  0  0  0  0  0  0  0  0
  150.7715  139.4351  155.2211 N   0  0  0  0  0  0  0  0  0  0  0  0
  150.4801  139.3148  156.5879 O   0  0  0  0  0  0  0  0  0  0  0  0
  146.3362  135.0537  162.1332 C   0  0  0  0  0  0  0  0  0  0  0  0
  147.6252  134.7237  162.8863 C   0  0  0  0  0  0  0  0  0  0  0  0
  145.4223  133.8374  162.1973 C   0  0  0  0  0  0  0  0  0  0  0  0
  146.1574  138.5506  162.5942 H   0  0  0  0  0  0  0  0  0  0  0  0
  147.5340  137.5108  162.9147 H   0  0  0  0  0  0  0  0  0  0  0  0
  146.1608  137.5014  164.0171 H   0  0  0  0  0  0  0  0  0  0  0  0
  143.7058  136.0277  161.5839 H   0  0  0  0  0  0  0  0  0  0  0  0
  144.0053  137.7175  161.9560 H   0  0  0  0  0  0  0  0  0  0  0  0
  143.9032  136.5325  163.2669 H   0  0  0  0  0  0  0  0  0  0  0  0
  145.5780  135.6491  160.1039 H   0  0  0  0  0  0  0  0  0  0  0  0
  147.2423  135.3529  158.6324 H   0  0  0  0  0  0  0  0  0  0  0  0
  149.9512  136.1048  158.7777 H   0  0  0  0  0  0  0  0  0  0  0  0
  149.0024  135.8917  157.3248 H   0  0  0  0  0  0  0  0  0  0  0  0
  148.0430  138.3450  158.1135 H   0  0  0  0  0  0  0  0  0  0  0  0
  149.6532  138.4410  158.7901 H   0  0  0  0  0  0  0  0  0  0  0  0
  149.4148  137.5275  152.8972 H   0  0  0  0  0  0  0  0  0  0  0  0
  150.5637  138.8159  152.6587 H   0  0  0  0  0  0  0  0  0  0  0  0
  148.0712  133.8104  162.4917 H   0  0  0  0  0  0  0  0  0  0  0  0
  147.4112  134.5712  163.9445 H   0  0  0  0  0  0  0  0  0  0  0  0
  148.3737  135.5094  162.8036 H   0  0  0  0  0  0  0  0  0  0  0  0
  145.9503  132.9446  161.8610 H   0  0  0  0  0  0  0  0  0  0  0  0
  144.5484  133.9573  161.5583 H   0  0  0  0  0  0  0  0  0  0  0  0
  145.0819  133.6742  163.2204 H   0  0  0  0  0  0  0  0  0  0  0  0
  1  2  1  0  0  0  0
  1 19  1  0  0  0  0
  1 20  1  0  0  0  0
  1 21  1  0  0  0  0
  2 16  1  0  0  0  0
  2  3  1  0  0  0  0
  2  4  1  0  0  0  0
  3 22  1  0  0  0  0
  3 23  1  0  0  0  0
  3 24  1  0  0  0  0
  4  5  1  0  0  0  0
  4 16  1  0  0  0  0
  4 25  1  0  0  0  0
  5  6  2  0  0  0  0
  5  7  1  0  0  0  0
  7  8  1  0  0  0  0
  7 26  1  0  0  0  0
  8  9  1  0  0  0  0
  8 27  1  0  0  0  0
  8 28  1  0  0  0  0
  9 10  1  0  0  0  0
  9 29  1  0  0  0  0
  9 30  1  0  0  0  0
 10 15  1  0  0  0  0
 10 11  2  0  0  0  0
 11 12  1  0  0  0  0
 12 13  1  0  0  0  0
 12 14  2  0  0  0  0
 13 31  1  0  0  0  0
 13 32  1  0  0  0  0
 14 15  1  0  0  0  0
 16 17  1  0  0  0  0
 16 18  1  0  0  0  0
 17 33  1  0  0  0  0
 17 34  1  0  0  0  0
 17 35  1  0  0  0  0
 18 36  1  0  0  0  0
 18 37  1  0  0  0  0
 18 38  1  0  0  0  0
M  END
> <s_m_source_file>
AV-unprocessed.smi

> <i_m_source_file_index>
2828

> <i_lp_mmshare_version>
43012

> <i_f3d_flags>
0

> <s_epik_input>
W0NIM11DMShbQ0gzXSlbQ0hdKEMxKFtDSDNdKVtDSDNdKUMoPU8pW05IXVtDSDJdW0NIMl1jMm5jKFtOSDJdKW5vMg==

> <s_epik_cmdline>
J2VwaWtfcHl0aG9uJywgJy1waCcsICc3LjAnLCAnLXRuJywgJzgnLCAnLW1hJywgJzIwMCcsICctbWV0YWxfYmluZGluZycsICctaW1hZScsICc8aW5maWxlLm1hZT4nLCAnLW9tYWUnLCAnPG91dGZpbGUubWFlPic=

> <r_lp_tautomer_probability>
1

> <r_epik_Ionization_Penalty>
9.99855e-05

> <r_epik_Ionization_Penalty_Charging>
0

> <r_epik_Ionization_Penalty_Neutral>
9.99855e-05

> <r_epik_State_Penalty>
-0

> <r_epik_Charging_Adjusted_Penalty>
0

> <i_epik_Tot_Q>
0

> <i_epik_Tot_abs_Q>
0

> <r_epik_Metal_State_Penalty>
-0

> <b_epik_Metal_Only>
0

> <s_lp_Force_Field>
OPLS_2005

> <r_lp_Energy>
20.4222

> <b_lp_Chiralities_Consistent>
1

> <s_lp_Variant>
AV-unprocessed.smi:2828-1

> <Gold.Version>
5.8.1

> <Gold.Id.Protein>
6NUR|6NUR_protein|mol2

> <Gold.PLP.Fitness>
33.8711

> <Gold.PLP.PLP>
-25.8024

> <Gold.PLP.part.hbond>
-4.2007

> <Gold.PLP.part.metal>
0.0000

> <Gold.PLP.part.buried>
-3.8192

> <Gold.PLP.part.nonpolar>
-17.2184

> <Gold.PLP.part.repulsive>
0.2814

> <Gold.PLP.ligand.clash>
0.0000

> <Gold.PLP.ligand.torsion>
0.4827

> <Gold.PLP.Chemscore.Hbond>
2.9659

> <Gold.PLP.Chemscore.CHOScore>
0.0000

> <Gold.PLP.Chemscore.Metal>
0.0000

> <Gold.Chemscore.Hbonds>
donor molecule, donor type, donor heavy atom, donor atom, acceptor molecule, acceptor atom, score
      L1  H    13    31       P1  7948  1.00
      L1  H    13    32       P1  7957  0.26
      P1  H  6931  6943       L1     6  0.88
      P1  H  6934  6947       L1     6  0.57
      P1  H  7989  7998       L1    14  0.08

> <Gold.PLP.Chemscore.Internal.Correction>
0.1365

> <Gold.Rescore>
     Score         DG    S(hbond)    S(metal)    S(lipo)     H(rot)  DE(clash)    DE(int)     intcor
     15.48     -17.56       3.59        0.00      50.66       2.28       0.03       2.05       ----

> <Gold.Chemscore.Fitness>
15.4825

> <Gold.Chemscore.DG>
-17.5577

> <Gold.Chemscore.ZeroCoef>
-5.4800

> <Gold.Chemscore.Hbond>
3.5889

> <Gold.Chemscore.Metal>
0.0000

> <Gold.Chemscore.Lipo>
50.6639

> <Gold.Chemscore.Internal_Hbond>
0.0000

> <Gold.Chemscore.DEClash>
0.0276

> <Gold.Chemscore.DEInternal>
2.0475

> <Gold.Chemscore.Rot>
2.2801

> <Gold.Chemscore.Internal.Correction>
   9.000000E+99

> <Gold.Chemscore.Hbonds>
donor molecule, donor type, donor heavy atom, donor atom, acceptor molecule, acceptor atom, score
      L1  H    13    31       P1  7948  0.87
      L1  H    13    32       P1  7957  0.05
      P1  H  6931  6943       L1     6  0.85
      P1  H  6934  6947       L1     6  0.33
      P1  H  7989  7998       L1    14  0.08

> <Gold.Chemscore.Hbond.Weighted>
-11.9870

> <Gold.Chemscore.Metal.Weighted>
-0.0000

> <Gold.Chemscore.Lipo.Weighted>
-5.9277

> <Gold.Chemscore.Internal_Hbond.Weighted>
0.0000

> <Gold.Chemscore.DEClash.Weighted>
0.0276

> <Gold.Chemscore.DEInternal.Weighted>
2.0475

> <Gold.Chemscore.Rot.Weighted>
5.8370

> <Gold.Chemscore.Internal.Correction.Weighted>
   9.000000E+99

> <Gold.Protein.RotatedTorsions>
[ 6907 6896 6895 6894 ] final -128.00 input  -60.11 | X-H torsion
[ 7974 7965 7964 7962 ] final   42.53 input  175.53 | X-H torsion
[ 8008 7997 7996 7995 ] final  136.58 input   59.86 | X-H torsion
[ 10167 10162 10161 10158 ] final  -90.86 input  -65.29 | X-H torsion
[ 10718 10713 10712 10709 ] final  -42.23 input   66.30 | X-H torsion
[ 10763 10752 10751 10750 ] final  -98.99 input  -60.55 | X-H torsion
[ 11005 11000 10999 10996 ] final  -41.64 input  -57.11 | X-H torsion

> <Gold.Protein.ActiveResidues>
 VAL166  LYS551  ARG553  GLY616  TRP617  ASP618  TYR619  PRO620  LYS621  CYS622 
 ASP623  PHE694  ASN695  SER759  ASP760  ASP761  ALA762  ILE779  LEU786  VAL792 
 PHE793  MET794  SER795  GLU796  ALA797  LYS798  CYS799  TRP800  GLU811  SER814 

> <Gold.Protein.RotatedAtoms>
  150.9132  133.6971  159.2849 H   0  0  0  0  0  0  0  0  0  0  0  0  # atno 6907 bound_to 6896
  151.4451  135.1023  159.9691 H   0  0  0  0  0  0  0  0  0  0  0  0  # atno 6908 bound_to 6896
  152.4941  133.8531  159.7267 H   0  0  0  0  0  0  0  0  0  0  0  0  # atno 6909 bound_to 6896
  146.0732  139.5289  142.9584 H   0  0  0  0  0  0  0  0  0  0  0  0  # atno 7974 bound_to 7965
  156.3004  140.2441  156.3769 H   0  0  0  0  0  0  0  0  0  0  0  0  # atno 8008 bound_to 7997
  154.8737  140.0415  157.1759 H   0  0  0  0  0  0  0  0  0  0  0  0  # atno 8009 bound_to 7997
  154.8769  140.2943  155.5452 H   0  0  0  0  0  0  0  0  0  0  0  0  # atno 8010 bound_to 7997
  140.3507  143.2893  151.9729 H   0  0  0  0  0  0  0  0  0  0  0  0  # atno 10167 bound_to 10162
  156.2618  130.4198  149.8533 H   0  0  0  0  0  0  0  0  0  0  0  0  # atno 10718 bound_to 10713
  154.7461  135.4989  153.9206 H   0  0  0  0  0  0  0  0  0  0  0  0  # atno 10763 bound_to 10752
  153.1093  135.6705  153.9537 H   0  0  0  0  0  0  0  0  0  0  0  0  # atno 10764 bound_to 10752
  153.9301  135.3079  155.3425 H   0  0  0  0  0  0  0  0  0  0  0  0  # atno 10765 bound_to 10752
  141.0260  133.6841  156.2485 H   0  0  0  0  0  0  0  0  0  0  0  0  # atno 11005 bound_to 11000
  145.6353  141.0295  143.1841 LP  0  0  0  0  0  0  0  0  0  0  0  0  # atno 17320 bound_to 7965
  144.7245  139.7921  143.7370 LP  0  0  0  0  0  0  0  0  0  0  0  0  # atno 17321 bound_to 7965
  139.4827  144.6078  151.7489 LP  0  0  0  0  0  0  0  0  0  0  0  0  # atno 17342 bound_to 10162
  140.5222  144.0862  150.6026 LP  0  0  0  0  0  0  0  0  0  0  0  0  # atno 17343 bound_to 10162
  156.6046  130.8561  151.3440 LP  0  0  0  0  0  0  0  0  0  0  0  0  # atno 17370 bound_to 10713
  157.7253  130.9614  150.1610 LP  0  0  0  0  0  0  0  0  0  0  0  0  # atno 17371 bound_to 10713
  140.6490  134.5086  157.5576 LP  0  0  0  0  0  0  0  0  0  0  0  0  # atno 17394 bound_to 11000
  139.9176  134.8214  156.1314 LP  0  0  0  0  0  0  0  0  0  0  0  0  # atno 17395 bound_to 11000

$$$$
