AV-unprocessed.smi:252|AV-procd|sdf|1940|dock5
  -GOLD-   2262021 63D 1   1.00000     0.00000
 Structure written by MMmdl.
 56 59  0  0  0  0  0  0  0  0  1 V2000
  146.6265  132.4405  151.4721 C   0  0  0  0  0  0  0  0  0  0  0  0
  146.7012  132.5086  153.0046 C   0  0  0  0  0  0  0  0  0  0  0  0
  148.1382  132.6129  153.5233 C   0  0  0  0  0  0  0  0  0  0  0  0
  148.9331  131.6923  153.3340 O   0  0  0  0  0  0  0  0  0  0  0  0
  148.4492  133.7432  154.1808 N   0  0  0  0  0  0  0  0  0  0  0  0
  149.7395  134.1057  154.7691 C   0  0  2  0  0  0  0  0  0  0  0  0
  150.0257  133.3525  156.0849 C   0  0  0  0  0  0  0  0  0  0  0  0
  151.4113  133.7422  156.6204 C   0  0  0  0  0  0  0  0  0  0  0  0
  151.5307  135.2673  156.7740 C   0  0  0  0  0  0  0  0  0  0  0  0
  151.2138  135.9462  155.5171 N   0  0  0  0  0  0  0  0  0  0  0  0
  151.6418  137.2321  155.4440 C   0  0  0  0  0  0  0  0  0  0  0  0
  152.6273  137.5723  154.5706 N   0  0  0  0  0  0  0  0  0  0  0  0
  153.0427  138.8394  154.4811 C   0  0  0  0  0  0  0  0  0  0  0  0
  152.6186  139.9067  155.1603 N   0  0  0  0  0  0  0  0  0  0  0  0
  151.6355  139.5717  156.0439 C   0  0  0  0  0  0  0  0  0  0  0  0
  151.0964  138.2704  156.2512 C   0  0  0  0  0  0  0  0  0  0  0  0
  150.1260  138.3139  157.2458 N   0  0  0  0  0  0  0  0  0  0  0  0
  150.0845  139.5700  157.5962 C   0  0  0  0  0  0  0  0  0  0  0  0
  150.9496  140.3980  156.9173 N   0  0  0  0  0  0  0  0  0  0  0  0
  151.1010  141.8334  157.0973 C   0  0  0  0  0  0  0  0  0  0  0  0
  151.3981  142.2381  158.5608 C   0  0  1  0  0  0  0  0  0  0  0  0
  150.1650  142.4257  159.2370 O   0  0  0  0  0  0  0  0  0  0  0  0
  152.2195  141.2162  159.3330 C   0  0  0  0  0  0  0  0  0  0  0  0
  152.8498  142.0616  160.4323 C   0  0  0  0  0  0  0  0  0  0  0  0
  153.1190  143.3150  159.8176 O   0  0  0  0  0  0  0  0  0  0  0  0
  152.2828  143.4991  158.6757 C   0  0  2  0  0  0  0  0  0  0  0  0
  151.5522  144.8497  158.7415 C   0  0  0  0  0  0  0  0  0  0  0  0
  149.9000  135.6301  154.9531 C   0  0  0  0  0  0  0  0  0  0  0  0
  145.5896  132.3977  151.1386 H   0  0  0  0  0  0  0  0  0  0  0  0
  147.1314  131.5548  151.0849 H   0  0  0  0  0  0  0  0  0  0  0  0
  147.0847  133.3174  151.0132 H   0  0  0  0  0  0  0  0  0  0  0  0
  146.1202  133.3623  153.3562 H   0  0  0  0  0  0  0  0  0  0  0  0
  146.2417  131.6192  153.4363 H   0  0  0  0  0  0  0  0  0  0  0  0
  147.7144  134.4283  154.2821 H   0  0  0  0  0  0  0  0  0  0  0  0
  150.4864  133.7860  154.0412 H   0  0  0  0  0  0  0  0  0  0  0  0
  149.2746  133.5918  156.8381 H   0  0  0  0  0  0  0  0  0  0  0  0
  149.9778  132.2749  155.9250 H   0  0  0  0  0  0  0  0  0  0  0  0
  151.5928  133.2553  157.5787 H   0  0  0  0  0  0  0  0  0  0  0  0
  152.1830  133.3832  155.9382 H   0  0  0  0  0  0  0  0  0  0  0  0
  150.8393  135.6168  157.5421 H   0  0  0  0  0  0  0  0  0  0  0  0
  152.5325  135.5157  157.1226 H   0  0  0  0  0  0  0  0  0  0  0  0
  153.8248  139.0249  153.7596 H   0  0  0  0  0  0  0  0  0  0  0  0
  149.4115  139.9306  158.3607 H   0  0  0  0  0  0  0  0  0  0  0  0
  151.9063  142.1686  156.4424 H   0  0  0  0  0  0  0  0  0  0  0  0
  150.1949  142.3270  156.7434 H   0  0  0  0  0  0  0  0  0  0  0  0
  149.4618  142.2662  158.6262 H   0  0  0  0  0  0  0  0  0  0  0  0
  151.6344  140.3796  159.7173 H   0  0  0  0  0  0  0  0  0  0  0  0
  153.0079  140.8102  158.6976 H   0  0  0  0  0  0  0  0  0  0  0  0
  152.1450  142.2126  161.2511 H   0  0  0  0  0  0  0  0  0  0  0  0
  153.7547  141.6128  160.8420 H   0  0  0  0  0  0  0  0  0  0  0  0
  152.9631  143.5243  157.8231 H   0  0  0  0  0  0  0  0  0  0  0  0
  150.9057  144.9880  157.8744 H   0  0  0  0  0  0  0  0  0  0  0  0
  152.2661  145.6733  158.7570 H   0  0  0  0  0  0  0  0  0  0  0  0
  150.9382  144.9339  159.6386 H   0  0  0  0  0  0  0  0  0  0  0  0
  149.7819  136.1262  153.9887 H   0  0  0  0  0  0  0  0  0  0  0  0
  149.1290  136.0240  155.6162 H   0  0  0  0  0  0  0  0  0  0  0  0
  1  2  1  0  0  0  0
  1 29  1  0  0  0  0
  1 30  1  0  0  0  0
  1 31  1  0  0  0  0
  2  3  1  0  0  0  0
  2 32  1  0  0  0  0
  2 33  1  0  0  0  0
  3  4  2  0  0  0  0
  3  5  1  0  0  0  0
  5  6  1  0  0  0  0
  5 34  1  0  0  0  0
  6 28  1  0  0  0  0
  6  7  1  0  0  0  0
  6 35  1  0  0  0  0
  7  8  1  0  0  0  0
  7 36  1  0  0  0  0
  7 37  1  0  0  0  0
  8  9  1  0  0  0  0
  8 38  1  0  0  0  0
  8 39  1  0  0  0  0
  9 10  1  0  0  0  0
  9 40  1  0  0  0  0
  9 41  1  0  0  0  0
 10 11  1  0  0  0  0
 10 28  1  0  0  0  0
 11 16  1  0  0  0  0
 11 12  2  0  0  0  0
 12 13  1  0  0  0  0
 13 14  2  0  0  0  0
 13 42  1  0  0  0  0
 14 15  1  0  0  0  0
 15 19  1  0  0  0  0
 15 16  2  0  0  0  0
 16 17  1  0  0  0  0
 17 18  2  0  0  0  0
 18 19  1  0  0  0  0
 18 43  1  0  0  0  0
 19 20  1  0  0  0  0
 20 21  1  0  0  0  0
 20 44  1  0  0  0  0
 20 45  1  0  0  0  0
 21 26  1  0  0  0  0
 21 22  1  0  0  0  0
 21 23  1  0  0  0  0
 22 46  1  0  0  0  0
 23 24  1  0  0  0  0
 23 47  1  0  0  0  0
 23 48  1  0  0  0  0
 24 25  1  0  0  0  0
 24 49  1  0  0  0  0
 24 50  1  0  0  0  0
 25 26  1  0  0  0  0
 26 27  1  0  0  0  0
 26 51  1  0  0  0  0
 27 52  1  0  0  0  0
 27 53  1  0  0  0  0
 27 54  1  0  0  0  0
 28 55  1  0  0  0  0
 28 56  1  0  0  0  0
M  END
> <s_m_source_file>
AV-unprocessed.smi

> <i_m_source_file_index>
252

> <i_lp_mmshare_version>
43012

> <i_f3d_flags>
0

> <s_epik_input>
W0NIM11bQ0gyXUMoPU8pW05IXVtDQEBIXTFbQ0gyXVtDSDJdW0NIMl1OKFtDSDJdMSljKG5bY0hdbjIpYyhjMjMpbltjSF1uM1tDSDJdW0NAQF00KFtPSF0pW0NIMl1bQ0gyXU9bQ0BIXTRbQ0gzXQ==

> <s_epik_cmdline>
J2VwaWtfcHl0aG9uJywgJy1waCcsICc3LjAnLCAnLXRuJywgJzgnLCAnLW1hJywgJzIwMCcsICctbWV0YWxfYmluZGluZycsICctaW1hZScsICc8aW5maWxlLm1hZT4nLCAnLW9tYWUnLCAnPG91dGZpbGUubWFlPic=

> <r_lp_tautomer_probability>
1

> <r_epik_Ionization_Penalty>
0.00182575

> <r_epik_Ionization_Penalty_Charging>
0

> <r_epik_Ionization_Penalty_Neutral>
0.00182575

> <r_epik_State_Penalty>
0.00104524

> <r_epik_Charging_Adjusted_Penalty>
0.00104524

> <i_epik_Tot_Q>
0

> <i_epik_Tot_abs_Q>
0

> <r_epik_Metal_State_Penalty>
-0

> <b_epik_Metal_Only>
0

> <s_lp_Force_Field>
OPLS_2005

> <r_lp_Energy>
36.8902

> <b_lp_Chiralities_Consistent>
1

> <s_lp_Variant>
AV-unprocessed.smi:252-5

> <Gold.Version>
5.8.1

> <Gold.Id.Protein>
6NUR|6NUR_protein|mol2

> <Gold.PLP.Fitness>
52.3835

> <Gold.PLP.PLP>
-48.6685

> <Gold.PLP.part.hbond>
-5.3055

> <Gold.PLP.part.metal>
0.0000

> <Gold.PLP.part.buried>
-5.4605

> <Gold.PLP.part.nonpolar>
-37.6748

> <Gold.PLP.part.repulsive>
0.5784

> <Gold.PLP.ligand.clash>
0.0000

> <Gold.PLP.ligand.torsion>
1.0306

> <Gold.PLP.Chemscore.Hbond>
1.7644

> <Gold.PLP.Chemscore.CHOScore>
0.0000

> <Gold.PLP.Chemscore.Metal>
0.0000

> <Gold.Chemscore.Hbonds>
donor molecule, donor type, donor heavy atom, donor atom, acceptor molecule, acceptor atom, score
      P1  H  7989  7998       L1    14  0.33
      P1  H  7997  8009       L1    14  0.73
      P1  H 10752 10765       L1    12  0.40

> <Gold.PLP.Chemscore.Internal.Correction>
0.4831

> <Gold.Rescore>
     Score         DG    S(hbond)    S(metal)    S(lipo)     H(rot)  DE(clash)    DE(int)     intcor
     12.21     -12.91       0.93        0.00      96.15       2.70       0.10       0.60       ----

> <Gold.Chemscore.Fitness>
12.2138

> <Gold.Chemscore.DG>
-12.9145

> <Gold.Chemscore.ZeroCoef>
-5.4800

> <Gold.Chemscore.Hbond>
0.9303

> <Gold.Chemscore.Metal>
0.0000

> <Gold.Chemscore.Lipo>
96.1512

> <Gold.Chemscore.Internal_Hbond>
0.0000

> <Gold.Chemscore.DEClash>
0.1033

> <Gold.Chemscore.DEInternal>
0.5974

> <Gold.Chemscore.Rot>
2.7041

> <Gold.Chemscore.Internal.Correction>
   9.000000E+99

> <Gold.Chemscore.Hbonds>
donor molecule, donor type, donor heavy atom, donor atom, acceptor molecule, acceptor atom, score
      P1  H  7989  7998       L1    14  0.03
      P1  H  7997  8009       L1    14  0.06
      P1  H 10752 10765       L1    12  0.10

> <Gold.Chemscore.Hbond.Weighted>
-3.1073

> <Gold.Chemscore.Metal.Weighted>
-0.0000

> <Gold.Chemscore.Lipo.Weighted>
-11.2497

> <Gold.Chemscore.Internal_Hbond.Weighted>
0.0000

> <Gold.Chemscore.DEClash.Weighted>
0.1033

> <Gold.Chemscore.DEInternal.Weighted>
0.5974

> <Gold.Chemscore.Rot.Weighted>
6.9225

> <Gold.Chemscore.Internal.Correction.Weighted>
   9.000000E+99

> <Gold.Protein.RotatedTorsions>
[ 6907 6896 6895 6894 ] final -130.58 input  -60.11 | X-H torsion
[ 7974 7965 7964 7962 ] final   78.27 input  175.53 | X-H torsion
[ 8008 7997 7996 7995 ] final -157.04 input   59.86 | X-H torsion
[ 10167 10162 10161 10158 ] final  -45.98 input  -65.29 | X-H torsion
[ 10718 10713 10712 10709 ] final -118.84 input   66.30 | X-H torsion
[ 10763 10752 10751 10750 ] final  134.13 input  -60.55 | X-H torsion
[ 11005 11000 10999 10996 ] final  143.86 input  -57.11 | X-H torsion

> <Gold.Protein.ActiveResidues>
 VAL166  LYS551  ARG553  GLY616  TRP617  ASP618  TYR619  PRO620  LYS621  CYS622 
 ASP623  PHE694  ASN695  SER759  ASP760  ASP761  ALA762  ILE779  LEU786  VAL792 
 PHE793  MET794  SER795  GLU796  ALA797  LYS798  CYS799  TRP800  GLU811  SER814 

> <Gold.Protein.RotatedAtoms>
  150.9413  133.6653  159.2789 H   0  0  0  0  0  0  0  0  0  0  0  0  # atno 6907 bound_to 6896
  151.4041  135.0974  159.9574 H   0  0  0  0  0  0  0  0  0  0  0  0  # atno 6908 bound_to 6896
  152.5070  133.8901  159.7444 H   0  0  0  0  0  0  0  0  0  0  0  0  # atno 6909 bound_to 6896
  145.6793  139.2519  143.1823 H   0  0  0  0  0  0  0  0  0  0  0  0  # atno 7974 bound_to 7965
  155.7264  140.0796  157.2308 H   0  0  0  0  0  0  0  0  0  0  0  0  # atno 8008 bound_to 7997
  154.4038  140.1603  156.2514 H   0  0  0  0  0  0  0  0  0  0  0  0  # atno 8009 bound_to 7997
  155.9149  140.3401  155.6130 H   0  0  0  0  0  0  0  0  0  0  0  0  # atno 8010 bound_to 7997
  140.6836  143.2853  151.3717 H   0  0  0  0  0  0  0  0  0  0  0  0  # atno 10167 bound_to 10162
  156.1136  130.6268  150.9342 H   0  0  0  0  0  0  0  0  0  0  0  0  # atno 10718 bound_to 10713
  153.8185  135.3119  155.3408 H   0  0  0  0  0  0  0  0  0  0  0  0  # atno 10763 bound_to 10752
  154.8022  135.4719  154.0307 H   0  0  0  0  0  0  0  0  0  0  0  0  # atno 10764 bound_to 10752
  153.1708  135.6877  153.8700 H   0  0  0  0  0  0  0  0  0  0  0  0  # atno 10765 bound_to 10752
  140.0586  134.9217  157.1145 H   0  0  0  0  0  0  0  0  0  0  0  0  # atno 11005 bound_to 11000
  146.0978  140.7580  142.9564 LP  0  0  0  0  0  0  0  0  0  0  0  0  # atno 17320 bound_to 7965
  144.7031  140.3739  143.7140 LP  0  0  0  0  0  0  0  0  0  0  0  0  # atno 17321 bound_to 7965
  139.6177  144.0970  152.2361 LP  0  0  0  0  0  0  0  0  0  0  0  0  # atno 17342 bound_to 10162
  140.0404  144.6012  150.7415 LP  0  0  0  0  0  0  0  0  0  0  0  0  # atno 17343 bound_to 10162
  157.6319  131.0920  150.8425 LP  0  0  0  0  0  0  0  0  0  0  0  0  # atno 17370 bound_to 10713
  156.8532  130.5087  149.5310 LP  0  0  0  0  0  0  0  0  0  0  0  0  # atno 17371 bound_to 10713
  140.3804  134.2293  155.7171 LP  0  0  0  0  0  0  0  0  0  0  0  0  # atno 17394 bound_to 11000
  141.1963  133.8085  157.0676 LP  0  0  0  0  0  0  0  0  0  0  0  0  # atno 17395 bound_to 11000

$$$$
