AV-unprocessed.smi:2195|AV-procd|sdf|8907|dock2
  -GOLD-   2272012123D 1   1.00000     0.00000
 Structure written by MMmdl.
 40 42  0  0  0  0  0  0  0  0  2 V2000
  153.5552  141.9670  162.1939 C   0  0  0  0  0  0  0  0  0  0  0  0
  152.9116  141.9931  160.8228 C   0  0  0  0  0  0  0  0  0  0  0  0
  152.3119  143.1733  160.3411 C   0  0  0  0  0  0  0  0  0  0  0  0
  151.7165  143.1929  159.0651 C   0  0  0  0  0  0  0  0  0  0  0  0
  151.7130  142.0417  158.2511 C   0  0  0  0  0  0  0  0  0  0  0  0
  151.1100  142.1501  157.0161 O   0  0  0  0  0  0  0  0  0  0  0  0
  151.1769  141.0370  156.1345 C   0  0  0  0  0  0  0  0  0  0  0  0
  149.8886  140.9810  155.2996 C   0  0  1  0  0  0  0  0  0  0  0  0
  150.1302  140.1784  154.1608 O   0  0  0  0  0  0  0  0  0  0  0  0
  148.6934  140.4243  156.0990 C   0  0  0  0  0  0  0  0  0  0  0  0
  147.4011  140.9467  155.6319 N   0  0  0  0  0  0  0  0  0  0  0  0
  146.7294  140.6916  154.4764 C   0  0  0  0  0  0  0  0  0  0  0  0
  145.5758  141.4147  154.5021 N   0  3  0  0  0  0  0  0  0  0  0  0
  145.5081  142.1427  155.6919 C   0  0  0  0  0  0  0  0  0  0  0  0
  144.5358  143.0153  156.1712 C   0  0  0  0  0  0  0  0  0  0  0  0
  144.7737  143.5956  157.4345 C   0  0  0  0  0  0  0  0  0  0  0  0
  145.9395  143.3004  158.1706 C   0  0  0  0  0  0  0  0  0  0  0  0
  146.9187  142.4148  157.6745 C   0  0  0  0  0  0  0  0  0  0  0  0
  146.6778  141.8468  156.4238 C   0  0  0  0  0  0  0  0  0  0  0  0
  152.3213  140.8582  158.7407 C   0  0  0  0  0  0  0  0  0  0  0  0
  152.9152  140.8369  160.0178 C   0  0  0  0  0  0  0  0  0  0  0  0
  153.1308  142.7351  162.8413 H   0  0  0  0  0  0  0  0  0  0  0  0
  154.6276  142.1441  162.1086 H   0  0  0  0  0  0  0  0  0  0  0  0
  153.4031  140.9997  162.6738 H   0  0  0  0  0  0  0  0  0  0  0  0
  152.3058  144.0674  160.9474 H   0  0  0  0  0  0  0  0  0  0  0  0
  151.2577  144.1027  158.7071 H   0  0  0  0  0  0  0  0  0  0  0  0
  152.0372  141.1527  155.4728 H   0  0  0  0  0  0  0  0  0  0  0  0
  151.3017  140.1076  156.6929 H   0  0  0  0  0  0  0  0  0  0  0  0
  149.6514  141.9850  154.9450 H   0  0  0  0  0  0  0  0  0  0  0  0
  149.3260  139.7399  153.9270 H   0  0  0  0  0  0  0  0  0  0  0  0
  148.6722  139.3345  156.0761 H   0  0  0  0  0  0  0  0  0  0  0  0
  148.7870  140.7030  157.1492 H   0  0  0  0  0  0  0  0  0  0  0  0
  147.0535  140.0343  153.6823 H   0  0  0  0  0  0  0  0  0  0  0  0
  143.6407  143.2415  155.6106 H   0  0  0  0  0  0  0  0  0  0  0  0
  144.0470  144.2796  157.8482 H   0  0  0  0  0  0  0  0  0  0  0  0
  146.0857  143.7613  159.1367 H   0  0  0  0  0  0  0  0  0  0  0  0
  147.8050  142.1910  158.2495 H   0  0  0  0  0  0  0  0  0  0  0  0
  152.3473  139.9514  158.1558 H   0  0  0  0  0  0  0  0  0  0  0  0
  153.3748  139.9279  160.3771 H   0  0  0  0  0  0  0  0  0  0  0  0
  144.8865  141.4093  153.7610 H   0  0  0  0  0  0  0  0  0  0  0  0
  1  2  1  0  0  0  0
  1 22  1  0  0  0  0
  1 23  1  0  0  0  0
  1 24  1  0  0  0  0
  2 21  1  0  0  0  0
  2  3  2  0  0  0  0
  3  4  1  0  0  0  0
  3 25  1  0  0  0  0
  4  5  2  0  0  0  0
  4 26  1  0  0  0  0
  5  6  1  0  0  0  0
  5 20  1  0  0  0  0
  6  7  1  0  0  0  0
  7  8  1  0  0  0  0
  7 27  1  0  0  0  0
  7 28  1  0  0  0  0
  8  9  1  0  0  0  0
  8 10  1  0  0  0  0
  8 29  1  0  0  0  0
  9 30  1  0  0  0  0
 10 11  1  0  0  0  0
 10 31  1  0  0  0  0
 10 32  1  0  0  0  0
 11 19  1  0  0  0  0
 11 12  1  0  0  0  0
 12 13  2  0  0  0  0
 12 33  1  0  0  0  0
 13 14  1  0  0  0  0
 13 40  1  0  0  0  0
 14 19  2  0  0  0  0
 14 15  1  0  0  0  0
 15 16  2  0  0  0  0
 15 34  1  0  0  0  0
 16 17  1  0  0  0  0
 16 35  1  0  0  0  0
 17 18  2  0  0  0  0
 17 36  1  0  0  0  0
 18 19  1  0  0  0  0
 18 37  1  0  0  0  0
 20 21  2  0  0  0  0
 20 38  1  0  0  0  0
 21 39  1  0  0  0  0
M  CHG  1  13   1
M  END
> <s_m_source_file>
AV-unprocessed.smi

> <i_m_source_file_index>
2195

> <i_lp_mmshare_version>
43012

> <i_f3d_flags>
0

> <s_epik_input>
W0NIM11jMVtjSF1bY0hdYyhbY0hdW2NIXTEpT1tDSDJdW0NASF0oW09IXSlbQ0gyXW4oW2NIXW4yKWMoYzIzKVtjSF1bY0hdW2NIXVtjSF0z

> <s_epik_cmdline>
J2VwaWtfcHl0aG9uJywgJy1waCcsICc3LjAnLCAnLXRuJywgJzgnLCAnLW1hJywgJzIwMCcsICctbWV0YWxfYmluZGluZycsICctaW1hZScsICc8aW5maWxlLm1hZT4nLCAnLW9tYWUnLCAnPG91dGZpbGUubWFlPic=

> <r_lp_tautomer_probability>
1

> <r_epik_Ionization_Penalty>
1.3774

> <r_epik_Ionization_Penalty_Charging>
1.37739

> <r_epik_Ionization_Penalty_Neutral>
2.3993e-06

> <r_epik_State_Penalty>
1.45762

> <r_epik_Charging_Adjusted_Penalty>
2.83501

> <i_epik_Tot_Q>
1

> <i_epik_Tot_abs_Q>
1

> <r_epik_Metal_State_Penalty>
5.49752

> <b_epik_Metal_Only>
0

> <s_lp_Force_Field>
OPLS_2005

> <r_lp_Energy>
19.9339

> <b_lp_Chiralities_Consistent>
1

> <s_lp_Variant>
AV-unprocessed.smi:2195-4

> <Gold.Version>
5.8.1

> <Gold.Id.Protein>
6NUR|6NUR_protein|mol2

> <Gold.PLP.Fitness>
47.3817

> <Gold.PLP.PLP>
-40.0361

> <Gold.PLP.part.hbond>
-2.9083

> <Gold.PLP.part.metal>
0.0000

> <Gold.PLP.part.buried>
-6.4084

> <Gold.PLP.part.nonpolar>
-31.6615

> <Gold.PLP.part.repulsive>
0.0821

> <Gold.PLP.ligand.clash>
0.0000

> <Gold.PLP.ligand.torsion>
0.8277

> <Gold.PLP.Chemscore.Hbond>
2.9760

> <Gold.PLP.Chemscore.CHOScore>
0.0000

> <Gold.PLP.Chemscore.Metal>
0.0000

> <Gold.Chemscore.Hbonds>
donor molecule, donor type, donor heavy atom, donor atom, acceptor molecule, acceptor atom, score
      L1  H    13    40       P1 10175  2.00
      P1  H  7989  7998       L1     9  0.96

> <Gold.PLP.Chemscore.Internal.Correction>
0.0731

> <Gold.Rescore>
     Score         DG    S(hbond)    S(metal)    S(lipo)     H(rot)  DE(clash)    DE(int)     intcor
     17.12     -18.16       1.89        0.00     104.27       2.27       0.03       1.01       ----

> <Gold.Chemscore.Fitness>
17.1244

> <Gold.Chemscore.DG>
-18.1641

> <Gold.Chemscore.ZeroCoef>
-5.4800

> <Gold.Chemscore.Hbond>
1.8867

> <Gold.Chemscore.Metal>
0.0000

> <Gold.Chemscore.Lipo>
104.2705

> <Gold.Chemscore.Internal_Hbond>
0.0000

> <Gold.Chemscore.DEClash>
0.0317

> <Gold.Chemscore.DEInternal>
1.0080

> <Gold.Chemscore.Rot>
2.2723

> <Gold.Chemscore.Internal.Correction>
   9.000000E+99

> <Gold.Chemscore.Hbonds>
donor molecule, donor type, donor heavy atom, donor atom, acceptor molecule, acceptor atom, score
      L1  H    13    40       P1 10175  0.25
      P1  H  7989  7998       L1     9  0.37

> <Gold.Chemscore.Hbond.Weighted>
-6.3014

> <Gold.Chemscore.Metal.Weighted>
-0.0000

> <Gold.Chemscore.Lipo.Weighted>
-12.1996

> <Gold.Chemscore.Internal_Hbond.Weighted>
0.0000

> <Gold.Chemscore.DEClash.Weighted>
0.0317

> <Gold.Chemscore.DEInternal.Weighted>
1.0080

> <Gold.Chemscore.Rot.Weighted>
5.8170

> <Gold.Chemscore.Internal.Correction.Weighted>
   9.000000E+99

> <Gold.Protein.RotatedTorsions>
[ 6907 6896 6895 6894 ] final   46.95 input  -60.11 | X-H torsion
[ 7974 7965 7964 7962 ] final -130.37 input  175.53 | X-H torsion
[ 8008 7997 7996 7995 ] final  -57.10 input   59.86 | X-H torsion
[ 10167 10162 10161 10158 ] final   79.77 input  -65.29 | X-H torsion
[ 10718 10713 10712 10709 ] final  163.75 input   66.30 | X-H torsion
[ 10763 10752 10751 10750 ] final  174.09 input  -60.55 | X-H torsion
[ 11005 11000 10999 10996 ] final  -44.15 input  -57.11 | X-H torsion

> <Gold.Protein.ActiveResidues>
 VAL166  LYS551  ARG553  GLY616  TRP617  ASP618  TYR619  PRO620  LYS621  CYS622 
 ASP623  PHE694  ASN695  SER759  ASP760  ASP761  ALA762  ILE779  LEU786  VAL792 
 PHE793  MET794  SER795  GLU796  ALA797  LYS798  CYS799  TRP800  GLU811  SER814 

> <Gold.Protein.RotatedAtoms>
  152.2624  134.8020  160.0428 H   0  0  0  0  0  0  0  0  0  0  0  0  # atno 6907 bound_to 6896
  151.8662  133.3461  159.3728 H   0  0  0  0  0  0  0  0  0  0  0  0  # atno 6908 bound_to 6896
  150.7121  134.5085  159.5640 H   0  0  0  0  0  0  0  0  0  0  0  0  # atno 6909 bound_to 6896
  144.9482  140.7315  143.4804 H   0  0  0  0  0  0  0  0  0  0  0  0  # atno 7974 bound_to 7965
  154.4255  140.1114  156.5743 H   0  0  0  0  0  0  0  0  0  0  0  0  # atno 8008 bound_to 7997
  155.6179  140.3495  155.4624 H   0  0  0  0  0  0  0  0  0  0  0  0  # atno 8009 bound_to 7997
  156.0047  140.1206  157.0502 H   0  0  0  0  0  0  0  0  0  0  0  0  # atno 8010 bound_to 7997
  139.9568  144.5988  150.8109 H   0  0  0  0  0  0  0  0  0  0  0  0  # atno 10167 bound_to 10162
  157.1041  131.0451  151.2485 H   0  0  0  0  0  0  0  0  0  0  0  0  # atno 10718 bound_to 10713
  154.4491  135.2764  155.1794 H   0  0  0  0  0  0  0  0  0  0  0  0  # atno 10763 bound_to 10752
  154.3628  135.6125  153.5703 H   0  0  0  0  0  0  0  0  0  0  0  0  # atno 10764 bound_to 10752
  152.9846  135.5838  154.4832 H   0  0  0  0  0  0  0  0  0  0  0  0  # atno 10765 bound_to 10752
  141.0431  133.6772  156.2833 H   0  0  0  0  0  0  0  0  0  0  0  0  # atno 11005 bound_to 11000
  145.2886  139.1892  143.4753 LP  0  0  0  0  0  0  0  0  0  0  0  0  # atno 17320 bound_to 7965
  146.3311  140.2859  142.8612 LP  0  0  0  0  0  0  0  0  0  0  0  0  # atno 17321 bound_to 7965
  140.7566  143.3068  151.2942 LP  0  0  0  0  0  0  0  0  0  0  0  0  # atno 17342 bound_to 10162
  139.6585  144.0233  152.2676 LP  0  0  0  0  0  0  0  0  0  0  0  0  # atno 17343 bound_to 10162
  157.4615  130.7656  149.7240 LP  0  0  0  0  0  0  0  0  0  0  0  0  # atno 17370 bound_to 10713
  155.9866  130.3973  150.3204 LP  0  0  0  0  0  0  0  0  0  0  0  0  # atno 17371 bound_to 10713
  140.6196  134.5375  157.5545 LP  0  0  0  0  0  0  0  0  0  0  0  0  # atno 17394 bound_to 11000
  139.9291  134.7998  156.0982 LP  0  0  0  0  0  0  0  0  0  0  0  0  # atno 17395 bound_to 11000

$$$$
