AV-unprocessed.smi:2454|AV-procd|sdf|9695|dock4
  -GOLD-   2272013333D 1   1.00000     0.00000
 Structure written by MMmdl.
 42 43  0  0  0  0  0  0  0  0  1 V2000
  153.6045  138.4495  154.6199 C   0  0  0  0  0  0  0  0  0  0  0  0
  152.8935  139.4001  155.3933 O   0  0  0  0  0  0  0  0  0  0  0  0
  151.6883  138.8751  155.9310 C   0  0  0  0  0  0  0  0  0  0  0  0
  150.4497  139.3476  155.1897 C   0  0  0  0  0  0  0  0  0  0  0  0
  149.4504  138.4302  154.8014 C   0  0  0  0  0  0  0  0  0  0  0  0
  148.3298  138.9410  154.1080 C   0  0  0  0  0  0  0  0  0  0  0  0
  147.3438  137.9754  153.7492 N   0  0  0  0  0  0  0  0  0  0  0  0
  146.4691  137.9383  152.7211 C   0  0  0  0  0  0  0  0  0  0  0  0
  146.4236  138.8444  151.8907 O   0  0  0  0  0  0  0  0  0  0  0  0
  145.6625  136.8657  152.6724 N   0  0  0  0  0  0  0  0  0  0  0  0
  144.6599  136.5848  151.6479 C   0  0  2  0  0  0  0  0  0  0  0  0
  143.2595  136.5167  152.2857 C   0  0  0  0  0  0  0  0  0  0  0  0
  143.0891  135.2719  153.1729 C   0  0  0  0  0  0  0  0  0  0  0  0
  143.4084  133.9845  152.3968 C   0  0  0  0  0  0  0  0  0  0  0  0
  144.8240  134.0218  151.7827 C   0  0  1  0  0  0  0  0  0  0  0  0
  145.1547  132.7258  151.0144 C   0  0  0  0  0  0  0  0  0  0  0  0
  144.9411  131.6530  151.7774 F   0  0  0  0  0  0  0  0  0  0  0  0
  144.3953  132.6361  149.9224 F   0  0  0  0  0  0  0  0  0  0  0  0
  146.4316  132.7349  150.6319 F   0  0  0  0  0  0  0  0  0  0  0  0
  144.9850  135.2771  150.8945 C   0  0  0  0  0  0  0  0  0  0  0  0
  148.2502  140.2713  153.8482 N   0  0  0  0  0  0  0  0  0  0  0  0
  149.2506  141.0539  154.2587 C   0  0  0  0  0  0  0  0  0  0  0  0
  150.3451  140.6661  154.9128 N   0  0  0  0  0  0  0  0  0  0  0  0
  154.5195  138.9002  154.2361 H   0  0  0  0  0  0  0  0  0  0  0  0
  153.0126  138.1122  153.7682 H   0  0  0  0  0  0  0  0  0  0  0  0
  153.8828  137.5817  155.2193 H   0  0  0  0  0  0  0  0  0  0  0  0
  151.7133  137.7849  155.8958 H   0  0  0  0  0  0  0  0  0  0  0  0
  151.5955  139.1656  156.9787 H   0  0  0  0  0  0  0  0  0  0  0  0
  149.5440  137.3777  155.0276 H   0  0  0  0  0  0  0  0  0  0  0  0
  147.2588  137.2060  154.3974 H   0  0  0  0  0  0  0  0  0  0  0  0
  145.7695  136.1722  153.3997 H   0  0  0  0  0  0  0  0  0  0  0  0
  144.6615  137.4098  150.9333 H   0  0  0  0  0  0  0  0  0  0  0  0
  143.0640  137.4192  152.8664 H   0  0  0  0  0  0  0  0  0  0  0  0
  142.5077  136.4961  151.4958 H   0  0  0  0  0  0  0  0  0  0  0  0
  143.7404  135.3453  154.0448 H   0  0  0  0  0  0  0  0  0  0  0  0
  142.0692  135.2290  153.5562 H   0  0  0  0  0  0  0  0  0  0  0  0
  143.3120  133.1284  153.0650 H   0  0  0  0  0  0  0  0  0  0  0  0
  142.6676  133.8444  151.6087 H   0  0  0  0  0  0  0  0  0  0  0  0
  145.5383  134.0982  152.6041 H   0  0  0  0  0  0  0  0  0  0  0  0
  144.3221  135.1941  150.0324 H   0  0  0  0  0  0  0  0  0  0  0  0
  145.9963  135.3249  150.4890 H   0  0  0  0  0  0  0  0  0  0  0  0
  149.1632  142.1076  154.0385 H   0  0  0  0  0  0  0  0  0  0  0  0
  1  2  1  0  0  0  0
  1 24  1  0  0  0  0
  1 25  1  0  0  0  0
  1 26  1  0  0  0  0
  2  3  1  0  0  0  0
  3  4  1  0  0  0  0
  3 27  1  0  0  0  0
  3 28  1  0  0  0  0
  4 23  1  0  0  0  0
  4  5  2  0  0  0  0
  5  6  1  0  0  0  0
  5 29  1  0  0  0  0
  6  7  1  0  0  0  0
  6 21  2  0  0  0  0
  7  8  1  0  0  0  0
  7 30  1  0  0  0  0
  8  9  2  0  0  0  0
  8 10  1  0  0  0  0
 10 11  1  0  0  0  0
 10 31  1  0  0  0  0
 11 20  1  0  0  0  0
 11 12  1  0  0  0  0
 11 32  1  0  0  0  0
 12 13  1  0  0  0  0
 12 33  1  0  0  0  0
 12 34  1  0  0  0  0
 13 14  1  0  0  0  0
 13 35  1  0  0  0  0
 13 36  1  0  0  0  0
 14 15  1  0  0  0  0
 14 37  1  0  0  0  0
 14 38  1  0  0  0  0
 15 16  1  0  0  0  0
 15 20  1  0  0  0  0
 15 39  1  0  0  0  0
 16 17  1  0  0  0  0
 16 18  1  0  0  0  0
 16 19  1  0  0  0  0
 20 40  1  0  0  0  0
 20 41  1  0  0  0  0
 21 22  1  0  0  0  0
 22 23  2  0  0  0  0
 22 42  1  0  0  0  0
M  END
> <s_m_source_file>
AV-unprocessed.smi

> <i_m_source_file_index>
2454

> <i_lp_mmshare_version>
43012

> <i_f3d_flags>
0

> <s_epik_input>
W0NIM11PW0NIMl1jMVtjSF1jKG5bY0hdbjEpW05IXUMoPU8pW05IXVtDQEBIXTJbQ0gyXVtDSDJdW0NIMl1bQ0BASF0oQyhGKShGKUYpW0NIMl0y

> <s_epik_cmdline>
J2VwaWtfcHl0aG9uJywgJy1waCcsICc3LjAnLCAnLXRuJywgJzgnLCAnLW1hJywgJzIwMCcsICctbWV0YWxfYmluZGluZycsICctaW1hZScsICc8aW5maWxlLm1hZT4nLCAnLW9tYWUnLCAnPG91dGZpbGUubWFlPic=

> <r_lp_tautomer_probability>
1

> <r_epik_Ionization_Penalty>
3.01554e-05

> <r_epik_Ionization_Penalty_Charging>
0

> <r_epik_Ionization_Penalty_Neutral>
3.01554e-05

> <r_epik_State_Penalty>
-0

> <r_epik_Charging_Adjusted_Penalty>
0

> <i_epik_Tot_Q>
0

> <i_epik_Tot_abs_Q>
0

> <r_epik_Metal_State_Penalty>
-0

> <b_epik_Metal_Only>
0

> <s_lp_Force_Field>
OPLS_2005

> <r_lp_Energy>
13.8487

> <b_lp_Chiralities_Consistent>
1

> <s_lp_Variant>
AV-unprocessed.smi:2454-1

> <Gold.Version>
5.8.1

> <Gold.Id.Protein>
6NUR|6NUR_protein|mol2

> <Gold.PLP.Fitness>
43.2166

> <Gold.PLP.PLP>
-38.8360

> <Gold.PLP.part.hbond>
-3.1377

> <Gold.PLP.part.metal>
0.0000

> <Gold.PLP.part.buried>
-3.8046

> <Gold.PLP.part.nonpolar>
-34.6719

> <Gold.PLP.part.repulsive>
0.8834

> <Gold.PLP.ligand.clash>
0.0000

> <Gold.PLP.ligand.torsion>
0.6910

> <Gold.PLP.Chemscore.Hbond>
1.9120

> <Gold.PLP.Chemscore.CHOScore>
0.0000

> <Gold.PLP.Chemscore.Metal>
0.0000

> <Gold.Chemscore.Hbonds>
donor molecule, donor type, donor heavy atom, donor atom, acceptor molecule, acceptor atom, score
      P1  H  7989  7998       L1    23  0.85
      P1  H  7997  8010       L1     2  0.90

> <Gold.PLP.Chemscore.Internal.Correction>
0.0266

> <Gold.Rescore>
     Score         DG    S(hbond)    S(metal)    S(lipo)     H(rot)  DE(clash)    DE(int)     intcor
      7.07     -10.31       0.35        0.00      66.48       1.60       1.54       1.71       ----

> <Gold.Chemscore.Fitness>
7.0680

> <Gold.Chemscore.DG>
-10.3132

> <Gold.Chemscore.ZeroCoef>
-5.4800

> <Gold.Chemscore.Hbond>
0.3473

> <Gold.Chemscore.Metal>
0.0000

> <Gold.Chemscore.Lipo>
66.4816

> <Gold.Chemscore.Internal_Hbond>
0.0000

> <Gold.Chemscore.DEClash>
1.5365

> <Gold.Chemscore.DEInternal>
1.7087

> <Gold.Chemscore.Rot>
1.6035

> <Gold.Chemscore.Internal.Correction>
   9.000000E+99

> <Gold.Chemscore.Hbonds>
donor molecule, donor type, donor heavy atom, donor atom, acceptor molecule, acceptor atom, score
      P1  H  7989  7998       L1    23  0.08
      P1  H  7997  8010       L1     2  0.18

> <Gold.Chemscore.Hbond.Weighted>
-1.1599

> <Gold.Chemscore.Metal.Weighted>
-0.0000

> <Gold.Chemscore.Lipo.Weighted>
-7.7783

> <Gold.Chemscore.Internal_Hbond.Weighted>
0.0000

> <Gold.Chemscore.DEClash.Weighted>
1.5365

> <Gold.Chemscore.DEInternal.Weighted>
1.7087

> <Gold.Chemscore.Rot.Weighted>
4.1050

> <Gold.Chemscore.Internal.Correction.Weighted>
   9.000000E+99

> <Gold.Protein.RotatedTorsions>
[ 6907 6896 6895 6894 ] final   42.60 input  -60.11 | X-H torsion
[ 7974 7965 7964 7962 ] final   16.59 input  175.53 | X-H torsion
[ 8008 7997 7996 7995 ] final   78.29 input   59.86 | X-H torsion
[ 10167 10162 10161 10158 ] final -178.69 input  -65.29 | X-H torsion
[ 10718 10713 10712 10709 ] final   77.05 input   66.30 | X-H torsion
[ 10763 10752 10751 10750 ] final  -13.65 input  -60.55 | X-H torsion
[ 11005 11000 10999 10996 ] final -161.81 input  -57.11 | X-H torsion

> <Gold.Protein.ActiveResidues>
 VAL166  LYS551  ARG553  GLY616  TRP617  ASP618  TYR619  PRO620  LYS621  CYS622 
 ASP623  PHE694  ASN695  SER759  ASP760  ASP761  ALA762  ILE779  LEU786  VAL792 
 PHE793  MET794  SER795  GLU796  ALA797  LYS798  CYS799  TRP800  GLU811  SER814 

> <Gold.Protein.RotatedAtoms>
  152.2099  134.8511  160.0498 H   0  0  0  0  0  0  0  0  0  0  0  0  # atno 6907 bound_to 6896
  151.9333  133.3612  159.3947 H   0  0  0  0  0  0  0  0  0  0  0  0  # atno 6908 bound_to 6896
  150.6974  134.4440  159.5349 H   0  0  0  0  0  0  0  0  0  0  0  0  # atno 6909 bound_to 6896
  146.2245  139.8726  142.8585 H   0  0  0  0  0  0  0  0  0  0  0  0  # atno 7974 bound_to 7965
  155.8537  140.3457  155.5710 H   0  0  0  0  0  0  0  0  0  0  0  0  # atno 8008 bound_to 7997
  155.8010  140.0885  157.1977 H   0  0  0  0  0  0  0  0  0  0  0  0  # atno 8009 bound_to 7997
  154.4008  140.1465  156.3261 H   0  0  0  0  0  0  0  0  0  0  0  0  # atno 8010 bound_to 7997
  139.5420  144.2336  152.0915 H   0  0  0  0  0  0  0  0  0  0  0  0  # atno 10167 bound_to 10162
  157.6696  130.9803  150.1585 H   0  0  0  0  0  0  0  0  0  0  0  0  # atno 10718 bound_to 10713
  153.5165  135.7016  153.5753 H   0  0  0  0  0  0  0  0  0  0  0  0  # atno 10763 bound_to 10752
  153.3821  135.3917  155.1864 H   0  0  0  0  0  0  0  0  0  0  0  0  # atno 10764 bound_to 10752
  154.8698  135.3837  154.4650 H   0  0  0  0  0  0  0  0  0  0  0  0  # atno 10765 bound_to 10752
  140.6163  134.4797  157.5220 H   0  0  0  0  0  0  0  0  0  0  0  0  # atno 11005 bound_to 11000
  145.2592  141.0071  143.3836 LP  0  0  0  0  0  0  0  0  0  0  0  0  # atno 17320 bound_to 7965
  144.9312  139.4297  143.6494 LP  0  0  0  0  0  0  0  0  0  0  0  0  # atno 17321 bound_to 7965
  140.1816  144.4839  150.6525 LP  0  0  0  0  0  0  0  0  0  0  0  0  # atno 17342 bound_to 10162
  140.6654  143.2266  151.5755 LP  0  0  0  0  0  0  0  0  0  0  0  0  # atno 17343 bound_to 10162
  156.2367  130.3687  149.8383 LP  0  0  0  0  0  0  0  0  0  0  0  0  # atno 17370 bound_to 10713
  156.6195  130.8620  151.3472 LP  0  0  0  0  0  0  0  0  0  0  0  0  # atno 17371 bound_to 10713
  139.9171  134.8223  156.1329 LP  0  0  0  0  0  0  0  0  0  0  0  0  # atno 17394 bound_to 11000
  141.0773  133.6769  156.2264 LP  0  0  0  0  0  0  0  0  0  0  0  0  # atno 17395 bound_to 11000

$$$$
