AV-unprocessed.smi:1180|AV-procd|sdf|4962|dock1
  -GOLD-   22720 3553D 1   1.00000     0.00000
 Structure written by MMmdl.
 38 39  0  0  0  0  0  0  0  0  1 V2000
  151.4292  143.1947  157.4147 C   0  0  0  0  0  0  0  0  0  0  0  0
  151.0777  141.9371  156.6501 C   0  0  0  0  0  0  0  0  0  0  0  0
  150.0030  142.0905  155.7897 N   0  0  0  0  0  0  0  0  0  0  0  0
  149.6054  140.9923  155.0478 C   0  0  0  0  0  0  0  0  0  0  0  0
  148.4201  141.2448  154.1324 C   0  0  0  0  0  0  0  0  0  0  0  0
  150.2505  139.8027  155.1531 C   0  0  0  0  0  0  0  0  0  0  0  0
  149.8512  138.5674  154.3466 C   0  0  0  0  0  0  0  0  0  0  0  0
  149.3662  137.3589  155.1527 C   0  0  0  0  0  0  0  0  0  0  0  0
  149.3037  137.4053  156.3817 O   0  0  0  0  0  0  0  0  0  0  0  0
  149.0210  136.2772  154.4390 N   0  0  0  0  0  0  0  0  0  0  0  0
  148.5176  135.0277  154.9991 C   0  0  0  0  0  0  0  0  0  0  0  0
  149.3298  133.8082  154.5216 C   0  0  2  0  0  0  0  0  0  0  0  0
  148.7981  133.1717  153.2428 C   0  0  0  0  0  0  0  0  0  0  0  0
  148.9876  131.6661  153.4589 C   0  0  0  0  0  0  0  0  0  0  0  0
  149.7189  131.5443  154.6709 O   0  0  0  0  0  0  0  0  0  0  0  0
  149.3508  132.6338  155.4985 C   0  0  0  0  0  0  0  0  0  0  0  0
  151.4006  139.7028  156.0824 C   0  0  0  0  0  0  0  0  0  0  0  0
  152.0364  138.6571  156.2090 O   0  0  0  0  0  0  0  0  0  0  0  0
  151.7569  140.8436  156.8201 N   0  0  0  0  0  0  0  0  0  0  0  0
  149.4978  142.9576  155.6779 H   0  0  0  0  0  0  0  0  0  0  0  0
  152.1479  142.9811  158.2069 H   0  0  0  0  0  0  0  0  0  0  0  0
  150.5388  143.6280  157.8715 H   0  0  0  0  0  0  0  0  0  0  0  0
  151.8699  143.9327  156.7439 H   0  0  0  0  0  0  0  0  0  0  0  0
  147.5755  140.6191  154.4216 H   0  0  0  0  0  0  0  0  0  0  0  0
  148.6807  141.0172  153.0985 H   0  0  0  0  0  0  0  0  0  0  0  0
  148.0952  142.2853  154.1738 H   0  0  0  0  0  0  0  0  0  0  0  0
  150.7072  138.2449  153.7539 H   0  0  0  0  0  0  0  0  0  0  0  0
  149.0885  138.8290  153.6118 H   0  0  0  0  0  0  0  0  0  0  0  0
  149.1046  136.3253  153.4338 H   0  0  0  0  0  0  0  0  0  0  0  0
  148.5637  135.1055  156.0858 H   0  0  0  0  0  0  0  0  0  0  0  0
  147.4638  134.9038  154.7442 H   0  0  0  0  0  0  0  0  0  0  0  0
  150.3629  134.1090  154.3388 H   0  0  0  0  0  0  0  0  0  0  0  0
  147.7426  133.3962  153.0838 H   0  0  0  0  0  0  0  0  0  0  0  0
  149.3476  133.5292  152.3712 H   0  0  0  0  0  0  0  0  0  0  0  0
  148.0216  131.1719  153.5717 H   0  0  0  0  0  0  0  0  0  0  0  0
  149.5183  131.1888  152.6348 H   0  0  0  0  0  0  0  0  0  0  0  0
  150.0606  132.7758  156.3139 H   0  0  0  0  0  0  0  0  0  0  0  0
  148.3630  132.4532  155.9259 H   0  0  0  0  0  0  0  0  0  0  0  0
  1 21  1  0  0  0  0
  1 22  1  0  0  0  0
  1 23  1  0  0  0  0
  1  2  1  0  0  0  0
  2  3  1  0  0  0  0
  2 19  2  0  0  0  0
  3  4  1  0  0  0  0
  3 20  1  0  0  0  0
  4  6  2  0  0  0  0
  4  5  1  0  0  0  0
  5 24  1  0  0  0  0
  5 25  1  0  0  0  0
  5 26  1  0  0  0  0
  6 17  1  0  0  0  0
  6  7  1  0  0  0  0
  7  8  1  0  0  0  0
  7 27  1  0  0  0  0
  7 28  1  0  0  0  0
  8  9  2  0  0  0  0
  8 10  1  0  0  0  0
 10 11  1  0  0  0  0
 10 29  1  0  0  0  0
 11 12  1  0  0  0  0
 11 30  1  0  0  0  0
 11 31  1  0  0  0  0
 12 16  1  0  0  0  0
 12 13  1  0  0  0  0
 12 32  1  0  0  0  0
 13 14  1  0  0  0  0
 13 33  1  0  0  0  0
 13 34  1  0  0  0  0
 14 15  1  0  0  0  0
 14 35  1  0  0  0  0
 14 36  1  0  0  0  0
 15 16  1  0  0  0  0
 16 37  1  0  0  0  0
 16 38  1  0  0  0  0
 17 18  2  0  0  0  0
 17 19  1  0  0  0  0
M  END
> <s_m_source_file>
AV-unprocessed.smi

> <i_m_source_file_index>
1180

> <i_lp_mmshare_version>
43012

> <i_f3d_flags>
0

> <s_epik_input>
W0NIM11jMW5jKFtDSDNdKWMoYyg9TylbbkhdMSlbQ0gyXUMoPU8pW05IXVtDSDJdW0NAQEhdMltDSDJdW0NIMl1PW0NIMl0y

> <s_epik_cmdline>
J2VwaWtfcHl0aG9uJywgJy1waCcsICc3LjAnLCAnLXRuJywgJzgnLCAnLW1hJywgJzIwMCcsICctbWV0YWxfYmluZGluZycsICctaW1hZScsICc8aW5maWxlLm1hZT4nLCAnLW9tYWUnLCAnPG91dGZpbGUubWFlPic=

> <r_lp_tautomer_probability>
0.156392

> <r_epik_Ionization_Penalty>
0.014237

> <r_epik_Ionization_Penalty_Charging>
0.0141173

> <r_epik_Ionization_Penalty_Neutral>
0.000119724

> <r_epik_State_Penalty>
1.52876

> <r_epik_Charging_Adjusted_Penalty>
1.54288

> <i_epik_Tot_Q>
0

> <i_epik_Tot_abs_Q>
0

> <r_epik_Metal_State_Penalty>
1.70686

> <b_epik_Metal_Only>
0

> <s_lp_Force_Field>
OPLS_2005

> <r_lp_Energy>
24.076

> <b_lp_Chiralities_Consistent>
1

> <s_lp_Variant>
AV-unprocessed.smi:1180-3

> <Gold.Version>
5.8.1

> <Gold.Id.Protein>
6NUR|6NUR_protein|mol2

> <Gold.PLP.Fitness>
37.7308

> <Gold.PLP.PLP>
-32.4932

> <Gold.PLP.part.hbond>
-2.0000

> <Gold.PLP.part.metal>
0.0000

> <Gold.PLP.part.buried>
-4.4487

> <Gold.PLP.part.nonpolar>
-27.1731

> <Gold.PLP.part.repulsive>
0.1880

> <Gold.PLP.ligand.clash>
0.0000

> <Gold.PLP.ligand.torsion>
0.3933

> <Gold.PLP.Chemscore.Hbond>
2.0000

> <Gold.PLP.Chemscore.CHOScore>
0.0000

> <Gold.PLP.Chemscore.Metal>
0.0000

> <Gold.Chemscore.Hbonds>
donor molecule, donor type, donor heavy atom, donor atom, acceptor molecule, acceptor atom, score
      L1  H     3    20       P1  8028  1.00
      L1  H    10    29       P1  7948  1.00

> <Gold.PLP.Chemscore.Internal.Correction>
0.0241

> <Gold.Rescore>
     Score         DG    S(hbond)    S(metal)    S(lipo)     H(rot)  DE(clash)    DE(int)     intcor
     13.97     -14.98       1.94        0.00      65.42       1.81       0.04       0.97       ----

> <Gold.Chemscore.Fitness>
13.9655

> <Gold.Chemscore.DG>
-14.9830

> <Gold.Chemscore.ZeroCoef>
-5.4800

> <Gold.Chemscore.Hbond>
1.9381

> <Gold.Chemscore.Metal>
0.0000

> <Gold.Chemscore.Lipo>
65.4219

> <Gold.Chemscore.Internal_Hbond>
0.0000

> <Gold.Chemscore.DEClash>
0.0444

> <Gold.Chemscore.DEInternal>
0.9730

> <Gold.Chemscore.Rot>
1.8065

> <Gold.Chemscore.Internal.Correction>
   9.000000E+99

> <Gold.Chemscore.Hbonds>
donor molecule, donor type, donor heavy atom, donor atom, acceptor molecule, acceptor atom, score
      L1  H     3    20       P1  8028  1.00
      L1  H    10    29       P1  7948  0.93

> <Gold.Chemscore.Hbond.Weighted>
-6.4732

> <Gold.Chemscore.Metal.Weighted>
-0.0000

> <Gold.Chemscore.Lipo.Weighted>
-7.6544

> <Gold.Chemscore.Internal_Hbond.Weighted>
0.0000

> <Gold.Chemscore.DEClash.Weighted>
0.0444

> <Gold.Chemscore.DEInternal.Weighted>
0.9730

> <Gold.Chemscore.Rot.Weighted>
4.6246

> <Gold.Chemscore.Internal.Correction.Weighted>
   9.000000E+99

> <Gold.Protein.RotatedTorsions>
[ 6907 6896 6895 6894 ] final  -37.90 input  -60.11 | X-H torsion
[ 7974 7965 7964 7962 ] final  149.71 input  175.53 | X-H torsion
[ 8008 7997 7996 7995 ] final  156.45 input   59.86 | X-H torsion
[ 10167 10162 10161 10158 ] final  168.95 input  -65.29 | X-H torsion
[ 10718 10713 10712 10709 ] final -115.55 input   66.30 | X-H torsion
[ 10763 10752 10751 10750 ] final   90.74 input  -60.55 | X-H torsion
[ 11005 11000 10999 10996 ] final  138.71 input  -57.11 | X-H torsion

> <Gold.Protein.ActiveResidues>
 VAL166  LYS551  ARG553  GLY616  TRP617  ASP618  TYR619  PRO620  LYS621  CYS622 
 ASP623  PHE694  ASN695  SER759  ASP760  ASP761  ALA762  ILE779  LEU786  VAL792 
 PHE793  MET794  SER795  GLU796  ALA797  LYS798  CYS799  TRP800  GLU811  SER814 

> <Gold.Protein.RotatedAtoms>
  151.0090  134.9382  159.7996 H   0  0  0  0  0  0  0  0  0  0  0  0  # atno 6907 bound_to 6896
  152.5298  134.3053  159.9103 H   0  0  0  0  0  0  0  0  0  0  0  0  # atno 6908 bound_to 6896
  151.3059  133.4060  159.2677 H   0  0  0  0  0  0  0  0  0  0  0  0  # atno 6909 bound_to 6896
  144.8417  139.6316  143.6013 H   0  0  0  0  0  0  0  0  0  0  0  0  # atno 7974 bound_to 7965
  156.2421  140.1912  156.6958 H   0  0  0  0  0  0  0  0  0  0  0  0  # atno 8008 bound_to 7997
  154.6218  140.0607  156.9651 H   0  0  0  0  0  0  0  0  0  0  0  0  # atno 8009 bound_to 7997
  155.1849  140.3279  155.4371 H   0  0  0  0  0  0  0  0  0  0  0  0  # atno 8010 bound_to 7997
  139.4980  144.3759  151.9674 H   0  0  0  0  0  0  0  0  0  0  0  0  # atno 10167 bound_to 10162
  156.0903  130.6087  150.8920 H   0  0  0  0  0  0  0  0  0  0  0  0  # atno 10718 bound_to 10713
  153.2008  135.4423  155.0264 H   0  0  0  0  0  0  0  0  0  0  0  0  # atno 10763 bound_to 10752
  154.8146  135.3309  154.7215 H   0  0  0  0  0  0  0  0  0  0  0  0  # atno 10764 bound_to 10752
  153.7661  135.6988  153.4971 H   0  0  0  0  0  0  0  0  0  0  0  0  # atno 10765 bound_to 10752
  140.0203  134.9400  157.0460 H   0  0  0  0  0  0  0  0  0  0  0  0  # atno 11005 bound_to 11000
  146.2709  139.6632  142.9297 LP  0  0  0  0  0  0  0  0  0  0  0  0  # atno 17320 bound_to 7965
  145.4679  141.0435  143.2715 LP  0  0  0  0  0  0  0  0  0  0  0  0  # atno 17321 bound_to 7965
  140.3196  144.3444  150.6013 LP  0  0  0  0  0  0  0  0  0  0  0  0  # atno 17342 bound_to 10162
  140.5734  143.2179  151.7559 LP  0  0  0  0  0  0  0  0  0  0  0  0  # atno 17343 bound_to 10162
  157.6050  131.0939  150.8895 LP  0  0  0  0  0  0  0  0  0  0  0  0  # atno 17370 bound_to 10713
  156.9045  130.5258  149.5282 LP  0  0  0  0  0  0  0  0  0  0  0  0  # atno 17371 bound_to 10713
  140.4399  134.1692  155.7173 LP  0  0  0  0  0  0  0  0  0  0  0  0  # atno 17394 bound_to 11000
  141.1769  133.8495  157.1390 LP  0  0  0  0  0  0  0  0  0  0  0  0  # atno 17395 bound_to 11000

$$$$
