AV-unprocessed.smi:1473|AV-procd|sdf|5971|dock1
  -GOLD-   22720 6 63D 1   1.00000     0.00000
 Structure written by MMmdl.
 32 33  0  0  0  0  0  0  0  0  3 V2000
  152.0491  137.1985  153.9056 N   0  5  0  0  0  0  0  0  0  0  0  0
  151.8711  138.6425  154.6181 S   0  0  0  0  0  0  0  0  0  0  0  0
  153.1539  139.3620  154.6033 O   0  0  0  0  0  0  0  0  0  0  0  0
  150.7301  139.3838  154.0523 O   0  0  0  0  0  0  0  0  0  0  0  0
  151.5756  138.0705  156.1172 N   0  5  0  0  0  0  0  0  0  0  0  0
  152.6311  137.5238  156.9662 C   0  0  0  0  0  0  0  0  0  0  0  0
  153.0664  138.5223  158.0295 C   0  0  0  0  0  0  0  0  0  0  0  0
  154.1493  138.2358  158.8894 C   0  0  0  0  0  0  0  0  0  0  0  0
  154.5037  139.1911  159.8591 C   0  0  0  0  0  0  0  0  0  0  0  0
  153.8672  140.3713  160.0061 N   0  0  0  0  0  0  0  0  0  0  0  0
  152.8287  140.6622  159.1840 C   0  0  0  0  0  0  0  0  0  0  0  0
  152.1749  141.9030  159.3474 N   0  0  0  0  0  0  0  0  0  0  0  0
  151.7949  142.5833  158.1119 C   0  0  0  0  0  0  0  0  0  0  0  0
  150.8359  143.7480  158.4142 C   0  0  0  0  0  0  0  0  0  0  0  0
  151.4240  144.6235  159.3708 O   0  0  0  0  0  0  0  0  0  0  0  0
  151.6802  143.9619  160.6052 C   0  0  0  0  0  0  0  0  0  0  0  0
  152.6739  142.8104  160.3788 C   0  0  0  0  0  0  0  0  0  0  0  0
  152.3957  139.7575  158.1850 C   0  0  0  0  0  0  0  0  0  0  0  0
  151.6432  137.2537  152.9640 H   0  0  0  0  0  0  0  0  0  0  0  0
  152.3106  136.6130  157.4739 H   0  0  0  0  0  0  0  0  0  0  0  0
  153.5124  137.2397  156.3893 H   0  0  0  0  0  0  0  0  0  0  0  0
  154.6990  137.3066  158.8249 H   0  0  0  0  0  0  0  0  0  0  0  0
  155.3238  139.0026  160.5358 H   0  0  0  0  0  0  0  0  0  0  0  0
  152.6965  142.9595  157.6270 H   0  0  0  0  0  0  0  0  0  0  0  0
  151.3161  141.9055  157.4068 H   0  0  0  0  0  0  0  0  0  0  0  0
  150.6275  144.3077  157.5022 H   0  0  0  0  0  0  0  0  0  0  0  0
  149.8792  143.3766  158.7849 H   0  0  0  0  0  0  0  0  0  0  0  0
  152.0929  144.6796  161.3141 H   0  0  0  0  0  0  0  0  0  0  0  0
  150.7469  143.5923  161.0331 H   0  0  0  0  0  0  0  0  0  0  0  0
  152.8226  142.2721  161.3158 H   0  0  0  0  0  0  0  0  0  0  0  0
  153.6423  143.2083  160.0724 H   0  0  0  0  0  0  0  0  0  0  0  0
  151.5480  140.0021  157.5594 H   0  0  0  0  0  0  0  0  0  0  0  0
  1  2  1  0  0  0  0
  1 19  1  0  0  0  0
  2  3  2  0  0  0  0
  2  4  2  0  0  0  0
  2  5  1  0  0  0  0
  5  6  1  0  0  0  0
  6  7  1  0  0  0  0
  6 20  1  0  0  0  0
  6 21  1  0  0  0  0
  7 18  1  0  0  0  0
  7  8  2  0  0  0  0
  8  9  1  0  0  0  0
  8 22  1  0  0  0  0
  9 10  2  0  0  0  0
  9 23  1  0  0  0  0
 10 11  1  0  0  0  0
 11 12  1  0  0  0  0
 11 18  2  0  0  0  0
 12 17  1  0  0  0  0
 12 13  1  0  0  0  0
 13 14  1  0  0  0  0
 13 24  1  0  0  0  0
 13 25  1  0  0  0  0
 14 15  1  0  0  0  0
 14 26  1  0  0  0  0
 14 27  1  0  0  0  0
 15 16  1  0  0  0  0
 16 17  1  0  0  0  0
 16 28  1  0  0  0  0
 16 29  1  0  0  0  0
 17 30  1  0  0  0  0
 17 31  1  0  0  0  0
 18 32  1  0  0  0  0
M  CHG  1   1  -1
M  CHG  1   5  -1
M  END
> <s_m_source_file>
AV-unprocessed.smi

> <i_m_source_file_index>
1473

> <i_lp_mmshare_version>
43012

> <i_f3d_flags>
0

> <s_epik_input>
W05IMl1TKD1PKSg9TylbTkhdW0NIMl1jMVtjSF1bY0hdbmMoW2NIXTEpTjJbQ0gyXVtDSDJdT1tDSDJdW0NIMl0y

> <s_epik_cmdline>
J2VwaWtfcHl0aG9uJywgJy1waCcsICc3LjAnLCAnLXRuJywgJzgnLCAnLW1hJywgJzIwMCcsICctbWV0YWxfYmluZGluZycsICctaW1hZScsICc8aW5maWxlLm1hZT4nLCAnLW9tYWUnLCAnPG91dGZpbGUubWFlPic=

> <r_lp_tautomer_probability>
1

> <r_epik_Ionization_Penalty>
9.31635

> <r_epik_Ionization_Penalty_Charging>
9.0542

> <r_epik_Ionization_Penalty_Neutral>
0.262148

> <r_epik_State_Penalty>
4.75451

> <r_epik_Charging_Adjusted_Penalty>
13.8087

> <i_epik_Tot_Q>
-2

> <i_epik_Tot_abs_Q>
2

> <r_epik_Metal_State_Penalty>
1.32914

> <b_epik_Metal_Only>
1

> <s_lp_Force_Field>
OPLS_2005

> <r_lp_Energy>
19.9679

> <b_lp_Chiralities_Consistent>
1

> <s_lp_Variant>
AV-unprocessed.smi:1473-6

> <Gold.Version>
5.8.1

> <Gold.Id.Protein>
6NUR|6NUR_protein|mol2

> <Gold.PLP.Fitness>
43.4951

> <Gold.PLP.PLP>
-29.6606

> <Gold.PLP.part.hbond>
-4.8393

> <Gold.PLP.part.metal>
0.0000

> <Gold.PLP.part.buried>
-6.7581

> <Gold.PLP.part.nonpolar>
-18.9252

> <Gold.PLP.part.repulsive>
0.2875

> <Gold.PLP.ligand.clash>
0.0000

> <Gold.PLP.ligand.torsion>
0.9378

> <Gold.PLP.Chemscore.Hbond>
4.7800

> <Gold.PLP.Chemscore.CHOScore>
0.0000

> <Gold.PLP.Chemscore.Metal>
0.0000

> <Gold.Chemscore.Hbonds>
donor molecule, donor type, donor heavy atom, donor atom, acceptor molecule, acceptor atom, score
      L1  H     1    19       P1  7949  0.75
      P1  H  7989  7998       L1     4  0.90
      P1  H  7997  8008       L1     3  1.00
      P1  H 10752 10763       L1     1  2.00

> <Gold.PLP.Chemscore.Internal.Correction>
1.3701

> <Gold.Rescore>
     Score         DG    S(hbond)    S(metal)    S(lipo)     H(rot)  DE(clash)    DE(int)     intcor
     18.60     -20.06       3.50        0.00      65.46       1.86       0.47       1.00       ----

> <Gold.Chemscore.Fitness>
18.5970

> <Gold.Chemscore.DG>
-20.0583

> <Gold.Chemscore.ZeroCoef>
-5.4800

> <Gold.Chemscore.Hbond>
3.4979

> <Gold.Chemscore.Metal>
0.0000

> <Gold.Chemscore.Lipo>
65.4569

> <Gold.Chemscore.Internal_Hbond>
0.0000

> <Gold.Chemscore.DEClash>
0.4660

> <Gold.Chemscore.DEInternal>
0.9953

> <Gold.Chemscore.Rot>
1.8606

> <Gold.Chemscore.Internal.Correction>
   9.000000E+99

> <Gold.Chemscore.Hbonds>
donor molecule, donor type, donor heavy atom, donor atom, acceptor molecule, acceptor atom, score
      L1  H     1    19       P1  7949  0.71
      P1  H  7989  7998       L1     4  0.18
      P1  H  7997  8008       L1     3  0.95
      P1  H 10752 10763       L1     1  0.75

> <Gold.Chemscore.Hbond.Weighted>
-11.6830

> <Gold.Chemscore.Metal.Weighted>
-0.0000

> <Gold.Chemscore.Lipo.Weighted>
-7.6585

> <Gold.Chemscore.Internal_Hbond.Weighted>
0.0000

> <Gold.Chemscore.DEClash.Weighted>
0.4660

> <Gold.Chemscore.DEInternal.Weighted>
0.9953

> <Gold.Chemscore.Rot.Weighted>
4.7631

> <Gold.Chemscore.Internal.Correction.Weighted>
   9.000000E+99

> <Gold.Protein.RotatedTorsions>
[ 6907 6896 6895 6894 ] final  118.29 input  -60.11 | X-H torsion
[ 7974 7965 7964 7962 ] final  172.86 input  175.53 | X-H torsion
[ 8008 7997 7996 7995 ] final  -16.98 input   59.86 | X-H torsion
[ 10167 10162 10161 10158 ] final  -32.93 input  -65.29 | X-H torsion
[ 10718 10713 10712 10709 ] final   86.59 input   66.30 | X-H torsion
[ 10763 10752 10751 10750 ] final   31.57 input  -60.55 | X-H torsion
[ 11005 11000 10999 10996 ] final  -97.86 input  -57.11 | X-H torsion

> <Gold.Protein.ActiveResidues>
 VAL166  LYS551  ARG553  GLY616  TRP617  ASP618  TYR619  PRO620  LYS621  CYS622 
 ASP623  PHE694  ASN695  SER759  ASP760  ASP761  ALA762  ILE779  LEU786  VAL792 
 PHE793  MET794  SER795  GLU796  ALA797  LYS798  CYS799  TRP800  GLU811  SER814 

> <Gold.Protein.RotatedAtoms>
  152.4553  133.7711  159.6799 H   0  0  0  0  0  0  0  0  0  0  0  0  # atno 6907 bound_to 6896
  150.8478  133.7824  159.3043 H   0  0  0  0  0  0  0  0  0  0  0  0  # atno 6908 bound_to 6896
  151.5429  135.1071  159.9982 H   0  0  0  0  0  0  0  0  0  0  0  0  # atno 6909 bound_to 6896
  144.7257  139.9562  143.6433 H   0  0  0  0  0  0  0  0  0  0  0  0  # atno 7974 bound_to 7965
  154.5012  140.2155  155.9343 H   0  0  0  0  0  0  0  0  0  0  0  0  # atno 8008 bound_to 7997
  156.1436  140.3175  155.8502 H   0  0  0  0  0  0  0  0  0  0  0  0  # atno 8009 bound_to 7997
  155.4074  140.0488  157.3024 H   0  0  0  0  0  0  0  0  0  0  0  0  # atno 8010 bound_to 7997
  140.7213  143.3658  151.1874 H   0  0  0  0  0  0  0  0  0  0  0  0  # atno 10167 bound_to 10162
  157.6930  131.0221  150.2995 H   0  0  0  0  0  0  0  0  0  0  0  0  # atno 10718 bound_to 10713
  153.0308  135.6435  154.1220 H   0  0  0  0  0  0  0  0  0  0  0  0  # atno 10763 bound_to 10752
  154.0942  135.2864  155.3267 H   0  0  0  0  0  0  0  0  0  0  0  0  # atno 10764 bound_to 10752
  154.6443  135.5448  153.7890 H   0  0  0  0  0  0  0  0  0  0  0  0  # atno 10765 bound_to 10752
  141.1365  133.8202  157.0762 H   0  0  0  0  0  0  0  0  0  0  0  0  # atno 11005 bound_to 11000
  146.0673  139.3663  143.0545 LP  0  0  0  0  0  0  0  0  0  0  0  0  # atno 17320 bound_to 7965
  145.8014  140.9769  143.0996 LP  0  0  0  0  0  0  0  0  0  0  0  0  # atno 17321 bound_to 7965
  139.7219  143.9210  152.2988 LP  0  0  0  0  0  0  0  0  0  0  0  0  # atno 17342 bound_to 10162
  139.8970  144.6933  150.8707 LP  0  0  0  0  0  0  0  0  0  0  0  0  # atno 17343 bound_to 10162
  156.3513  130.3831  149.7326 LP  0  0  0  0  0  0  0  0  0  0  0  0  # atno 17370 bound_to 10713
  156.4803  130.8038  151.3052 LP  0  0  0  0  0  0  0  0  0  0  0  0  # atno 17371 bound_to 10713
  140.0480  134.9820  157.1084 LP  0  0  0  0  0  0  0  0  0  0  0  0  # atno 17394 bound_to 11000
  140.4033  134.2059  155.7163 LP  0  0  0  0  0  0  0  0  0  0  0  0  # atno 17395 bound_to 11000

$$$$
