AV-unprocessed.smi:767|AV-procd|sdf|3671|dock5
  -GOLD-   22720 1 83D 1   1.00000     0.00000
 Structure written by MMmdl.
 48 50  0  0  0  0  0  0  0  0  2 V2000
  149.1893  133.2058  153.9446 C   0  0  0  0  0  0  0  0  0  0  0  0
  149.9211  134.2788  154.7229 C   0  0  0  0  0  0  0  0  0  0  0  0
  150.6530  133.9873  155.8937 C   0  0  0  0  0  0  0  0  0  0  0  0
  151.3094  135.0334  156.5750 C   0  0  0  0  0  0  0  0  0  0  0  0
  151.2175  136.3505  156.0740 C   0  0  0  0  0  0  0  0  0  0  0  0
  151.9004  137.5034  156.7905 C   0  0  0  0  0  0  0  0  0  0  0  0
  151.4339  137.7012  158.2490 C   0  0  0  0  0  0  0  0  0  0  0  0
  151.2206  139.0996  158.6142 N   0  0  0  0  0  0  0  0  0  0  0  0
  152.1609  140.0543  158.6128 C   0  0  0  0  0  0  0  0  0  0  0  0
  153.3340  139.8681  158.2902 O   0  0  0  0  0  0  0  0  0  0  0  0
  151.6632  141.2422  158.9791 N   0  0  0  0  0  0  0  0  0  0  0  0
  152.4368  142.4874  159.0143 C   0  0  2  0  0  0  0  0  0  0  0  0
  153.1277  142.7193  160.3606 C   0  0  2  0  0  0  0  0  0  0  0  0
  153.4890  141.8793  161.5319 C   0  0  0  0  0  0  0  0  0  0  0  0
  153.0885  142.9001  162.6317 C   0  0  0  0  0  0  0  0  0  0  0  0
  152.3735  143.9633  161.9500 O   0  0  0  0  0  0  0  0  0  0  0  0
  151.8174  143.3271  160.8168 C   0  0  1  0  0  0  0  0  0  0  0  0
  151.6079  143.7889  159.3572 C   0  0  0  0  0  0  0  0  0  0  0  0
  152.2212  145.1409  158.9510 C   0  0  0  0  0  0  0  0  0  0  0  0
  150.1496  143.8329  158.8871 C   0  0  0  0  0  0  0  0  0  0  0  0
  150.4730  136.5817  154.8971 C   0  0  0  0  0  0  0  0  0  0  0  0
  149.8590  135.5525  154.2738 N   0  3  0  0  0  0  0  0  0  0  0  0
  149.7141  132.2526  154.0174 H   0  0  0  0  0  0  0  0  0  0  0  0
  149.1129  133.4700  152.8893 H   0  0  0  0  0  0  0  0  0  0  0  0
  148.1821  133.0738  154.3406 H   0  0  0  0  0  0  0  0  0  0  0  0
  150.7112  132.9750  156.2668 H   0  0  0  0  0  0  0  0  0  0  0  0
  151.8717  134.8266  157.4737 H   0  0  0  0  0  0  0  0  0  0  0  0
  152.9787  137.3416  156.7693 H   0  0  0  0  0  0  0  0  0  0  0  0
  151.7281  138.4205  156.2256 H   0  0  0  0  0  0  0  0  0  0  0  0
  150.4820  137.1894  158.3925 H   0  0  0  0  0  0  0  0  0  0  0  0
  152.1384  137.2365  158.9403 H   0  0  0  0  0  0  0  0  0  0  0  0
  150.2856  139.3570  158.8950 H   0  0  0  0  0  0  0  0  0  0  0  0
  150.6878  141.2997  159.2326 H   0  0  0  0  0  0  0  0  0  0  0  0
  153.1125  142.6145  158.1667 H   0  0  0  0  0  0  0  0  0  0  0  0
  153.9123  143.4660  160.2161 H   0  0  0  0  0  0  0  0  0  0  0  0
  152.8954  140.9657  161.5852 H   0  0  0  0  0  0  0  0  0  0  0  0
  154.5481  141.6226  161.5617 H   0  0  0  0  0  0  0  0  0  0  0  0
  152.4503  142.4315  163.3821 H   0  0  0  0  0  0  0  0  0  0  0  0
  153.9599  143.3144  163.1396 H   0  0  0  0  0  0  0  0  0  0  0  0
  151.0677  142.5913  161.1255 H   0  0  0  0  0  0  0  0  0  0  0  0
  151.7329  145.9674  159.4682 H   0  0  0  0  0  0  0  0  0  0  0  0
  152.1121  145.3175  157.8806 H   0  0  0  0  0  0  0  0  0  0  0  0
  153.2845  145.2201  159.1700 H   0  0  0  0  0  0  0  0  0  0  0  0
  149.6368  144.7255  159.2471 H   0  0  0  0  0  0  0  0  0  0  0  0
  149.5790  142.9780  159.2496 H   0  0  0  0  0  0  0  0  0  0  0  0
  150.0828  143.8299  157.7986 H   0  0  0  0  0  0  0  0  0  0  0  0
  150.3433  137.5533  154.4430 H   0  0  0  0  0  0  0  0  0  0  0  0
  149.3243  135.7457  153.4266 H   0  0  0  0  0  0  0  0  0  0  0  0
  1  2  1  0  0  0  0
  1 23  1  0  0  0  0
  1 24  1  0  0  0  0
  1 25  1  0  0  0  0
  2 22  1  0  0  0  0
  2  3  2  0  0  0  0
  3  4  1  0  0  0  0
  3 26  1  0  0  0  0
  4  5  2  0  0  0  0
  4 27  1  0  0  0  0
  5  6  1  0  0  0  0
  5 21  1  0  0  0  0
  6  7  1  0  0  0  0
  6 28  1  0  0  0  0
  6 29  1  0  0  0  0
  7  8  1  0  0  0  0
  7 30  1  0  0  0  0
  7 31  1  0  0  0  0
  8  9  1  0  0  0  0
  8 32  1  0  0  0  0
  9 10  2  0  0  0  0
  9 11  1  0  0  0  0
 11 12  1  0  0  0  0
 11 33  1  0  0  0  0
 12 18  1  0  0  0  0
 12 13  1  0  0  0  0
 12 34  1  0  0  0  0
 13 17  1  0  0  0  0
 13 14  1  0  0  0  0
 13 35  1  0  0  0  0
 14 15  1  0  0  0  0
 14 36  1  0  0  0  0
 14 37  1  0  0  0  0
 15 16  1  0  0  0  0
 15 38  1  0  0  0  0
 15 39  1  0  0  0  0
 16 17  1  0  0  0  0
 17 18  1  0  0  0  0
 17 40  1  0  0  0  0
 18 19  1  0  0  0  0
 18 20  1  0  0  0  0
 19 41  1  0  0  0  0
 19 42  1  0  0  0  0
 19 43  1  0  0  0  0
 20 44  1  0  0  0  0
 20 45  1  0  0  0  0
 20 46  1  0  0  0  0
 21 22  2  0  0  0  0
 21 47  1  0  0  0  0
 22 48  1  0  0  0  0
M  CHG  1  22   1
M  END
> <s_m_source_file>
AV-unprocessed.smi

> <i_m_source_file_index>
767

> <i_lp_mmshare_version>
43012

> <i_f3d_flags>
0

> <s_epik_input>
W0NIM11jMVtjSF1bY0hdYyhbY0hdbjEpW0NIMl1bQ0gyXVtOSF1DKD1PKVtOSF1bQ0BIXTJDKFtDSDNdKShbQ0gzXSlbQ0BIXShbQ0BASF0yMylPW0NIMl1bQ0gyXTM=

> <s_epik_cmdline>
J2VwaWtfcHl0aG9uJywgJy1waCcsICc3LjAnLCAnLXRuJywgJzgnLCAnLW1hJywgJzIwMCcsICctbWV0YWxfYmluZGluZycsICctaW1hZScsICc8aW5maWxlLm1hZT4nLCAnLW9tYWUnLCAnPG91dGZpbGUubWFlPic=

> <r_epik_Ionization_Penalty>
1.41853

> <r_epik_Ionization_Penalty_Charging>
1.41848

> <r_epik_Ionization_Penalty_Neutral>
5.17407e-05

> <r_epik_State_Penalty>
1.50205

> <r_epik_Charging_Adjusted_Penalty>
2.92053

> <i_epik_Tot_Q>
1

> <i_epik_Tot_abs_Q>
1

> <r_epik_Metal_State_Penalty>
1.5544

> <b_epik_Metal_Only>
0

> <s_lp_Force_Field>
OPLS_2005

> <r_lp_Energy>
65.9861

> <b_lp_Chiralities_Consistent>
1

> <s_lp_Variant>
AV-unprocessed.smi:767-15

> <Gold.Version>
5.8.1

> <Gold.Id.Protein>
6NUR|6NUR_protein|mol2

> <Gold.PLP.Fitness>
53.6388

> <Gold.PLP.PLP>
-45.3899

> <Gold.PLP.part.hbond>
-2.7905

> <Gold.PLP.part.metal>
0.0000

> <Gold.PLP.part.buried>
-4.9639

> <Gold.PLP.part.nonpolar>
-38.7623

> <Gold.PLP.part.repulsive>
0.4913

> <Gold.PLP.ligand.clash>
0.0000

> <Gold.PLP.ligand.torsion>
0.5057

> <Gold.PLP.Chemscore.Hbond>
3.0000

> <Gold.PLP.Chemscore.CHOScore>
0.0000

> <Gold.PLP.Chemscore.Metal>
0.0000

> <Gold.Chemscore.Hbonds>
donor molecule, donor type, donor heavy atom, donor atom, acceptor molecule, acceptor atom, score
      L1  H    22    48       P1  7948  2.00
      P1  H  7997  8010       L1    10  1.00

> <Gold.PLP.Chemscore.Internal.Correction>
0.2603

> <Gold.Rescore>
     Score         DG    S(hbond)    S(metal)    S(lipo)     H(rot)  DE(clash)    DE(int)     intcor
     21.91     -22.46       1.78        0.00     127.59       1.52       0.02       0.53       ----

> <Gold.Chemscore.Fitness>
21.9136

> <Gold.Chemscore.DG>
-22.4590

> <Gold.Chemscore.ZeroCoef>
-5.4800

> <Gold.Chemscore.Hbond>
1.7817

> <Gold.Chemscore.Metal>
0.0000

> <Gold.Chemscore.Lipo>
127.5856

> <Gold.Chemscore.Internal_Hbond>
0.0000

> <Gold.Chemscore.DEClash>
0.0180

> <Gold.Chemscore.DEInternal>
0.5274

> <Gold.Chemscore.Rot>
1.5233

> <Gold.Chemscore.Internal.Correction>
   9.000000E+99

> <Gold.Chemscore.Hbonds>
donor molecule, donor type, donor heavy atom, donor atom, acceptor molecule, acceptor atom, score
      L1  H    22    48       P1  7948  0.44
      P1  H  7997  8010       L1    10  0.99

> <Gold.Chemscore.Hbond.Weighted>
-5.9510

> <Gold.Chemscore.Metal.Weighted>
-0.0000

> <Gold.Chemscore.Lipo.Weighted>
-14.9275

> <Gold.Chemscore.Internal_Hbond.Weighted>
0.0000

> <Gold.Chemscore.DEClash.Weighted>
0.0180

> <Gold.Chemscore.DEInternal.Weighted>
0.5274

> <Gold.Chemscore.Rot.Weighted>
3.8995

> <Gold.Chemscore.Internal.Correction.Weighted>
   9.000000E+99

> <Gold.Protein.RotatedTorsions>
[ 6907 6896 6895 6894 ] final  -52.75 input  -60.11 | X-H torsion
[ 7974 7965 7964 7962 ] final -123.65 input  175.53 | X-H torsion
[ 8008 7997 7996 7995 ] final   29.09 input   59.86 | X-H torsion
[ 10167 10162 10161 10158 ] final  159.82 input  -65.29 | X-H torsion
[ 10718 10713 10712 10709 ] final   86.03 input   66.30 | X-H torsion
[ 10763 10752 10751 10750 ] final   92.81 input  -60.55 | X-H torsion
[ 11005 11000 10999 10996 ] final  -55.15 input  -57.11 | X-H torsion

> <Gold.Protein.ActiveResidues>
 VAL166  LYS551  ARG553  GLY616  TRP617  ASP618  TYR619  PRO620  LYS621  CYS622 
 ASP623  PHE694  ASN695  SER759  ASP760  ASP761  ALA762  ILE779  LEU786  VAL792 
 PHE793  MET794  SER795  GLU796  ALA797  LYS798  CYS799  TRP800  GLU811  SER814 

> <Gold.Protein.RotatedAtoms>
  150.8489  134.7807  159.6992 H   0  0  0  0  0  0  0  0  0  0  0  0  # atno 6907 bound_to 6896
  152.4559  134.5289  159.9815 H   0  0  0  0  0  0  0  0  0  0  0  0  # atno 6908 bound_to 6896
  151.5414  133.3394  159.2972 H   0  0  0  0  0  0  0  0  0  0  0  0  # atno 6909 bound_to 6896
  145.0164  140.7951  143.4407 H   0  0  0  0  0  0  0  0  0  0  0  0  # atno 7974 bound_to 7965
  155.0690  140.3198  155.4636 H   0  0  0  0  0  0  0  0  0  0  0  0  # atno 8008 bound_to 7997
  156.2795  140.2115  156.5762 H   0  0  0  0  0  0  0  0  0  0  0  0  # atno 8009 bound_to 7997
  154.7070  140.0501  157.0501 H   0  0  0  0  0  0  0  0  0  0  0  0  # atno 8010 bound_to 7997
  139.4835  144.4693  151.8598 H   0  0  0  0  0  0  0  0  0  0  0  0  # atno 10167 bound_to 10162
  157.6923  131.0199  150.2911 H   0  0  0  0  0  0  0  0  0  0  0  0  # atno 10718 bound_to 10713
  153.2233  135.4348  155.0514 H   0  0  0  0  0  0  0  0  0  0  0  0  # atno 10763 bound_to 10752
  154.8261  135.3361  154.6894 H   0  0  0  0  0  0  0  0  0  0  0  0  # atno 10764 bound_to 10752
  153.7325  135.7010  153.5042 H   0  0  0  0  0  0  0  0  0  0  0  0  # atno 10765 bound_to 10752
  141.1060  133.6613  156.4427 H   0  0  0  0  0  0  0  0  0  0  0  0  # atno 11005 bound_to 11000
  145.1954  139.2279  143.5221 LP  0  0  0  0  0  0  0  0  0  0  0  0  # atno 17320 bound_to 7965
  146.3478  140.1759  142.8589 LP  0  0  0  0  0  0  0  0  0  0  0  0  # atno 17321 bound_to 7965
  140.4161  144.2305  150.5888 LP  0  0  0  0  0  0  0  0  0  0  0  0  # atno 17342 bound_to 10162
  140.4919  143.2344  151.8805 LP  0  0  0  0  0  0  0  0  0  0  0  0  # atno 17343 bound_to 10162
  156.3442  130.3820  149.7383 LP  0  0  0  0  0  0  0  0  0  0  0  0  # atno 17370 bound_to 10713
  156.4882  130.8073  151.3084 LP  0  0  0  0  0  0  0  0  0  0  0  0  # atno 17371 bound_to 10713
  140.4901  134.6584  157.5207 LP  0  0  0  0  0  0  0  0  0  0  0  0  # atno 17394 bound_to 11000
  139.9931  134.6954  155.9656 LP  0  0  0  0  0  0  0  0  0  0  0  0  # atno 17395 bound_to 11000

$$$$
