AV-unprocessed.smi:1803|AV-procd|sdf|7291|dock2
  -GOLD-   22720 8543D 1   1.00000     0.00000
 Structure written by MMmdl.
 35 37  0  0  0  0  0  0  0  0  3 V2000
  150.8321  134.0376  155.8482 O   0  0  0  0  0  0  0  0  0  0  0  0
  150.6376  135.2288  155.6110 C   0  0  0  0  0  0  0  0  0  0  0  0
  151.5689  136.1942  155.8239 N   0  5  0  0  0  0  0  0  0  0  0  0
  151.3323  137.4962  155.5776 C   0  0  0  0  0  0  0  0  0  0  0  0
  152.1538  138.2518  154.8315 N   0  0  0  0  0  0  0  0  0  0  0  0
  151.7183  139.5633  154.6993 N   0  0  0  0  0  0  0  0  0  0  0  0
  150.5806  139.7673  155.3629 C   0  0  0  0  0  0  0  0  0  0  0  0
  149.9322  138.3733  156.2005 S   0  0  0  0  0  0  0  0  0  0  0  0
  149.4399  135.6112  155.1265 N   0  0  0  0  0  0  0  0  0  0  0  0
  148.2823  134.7524  154.8877 C   0  0  2  0  0  0  0  0  0  0  0  0
  148.6032  133.5836  153.9351 C   0  0  0  0  0  0  0  0  0  0  0  0
  147.4230  133.5339  152.9595 C   0  0  0  0  0  0  0  0  0  0  0  0
  147.0082  134.9386  152.8684 N   0  3  1  0  0  0  0  0  0  0  0  0
  145.7254  135.2493  152.2048 C   0  0  0  0  0  0  0  0  0  0  0  0
  145.5938  136.7822  152.0831 C   0  0  0  0  0  0  0  0  0  0  0  0
  145.7913  137.4930  153.4405 C   0  0  0  0  0  0  0  0  0  0  0  0
  147.0893  137.0353  154.1384 C   0  0  0  0  0  0  0  0  0  0  0  0
  147.0987  135.4974  154.2279 C   0  0  2  0  0  0  0  0  0  0  0  0
  150.1198  140.7439  155.3580 H   0  0  0  0  0  0  0  0  0  0  0  0
  149.3225  136.5935  154.9257 H   0  0  0  0  0  0  0  0  0  0  0  0
  147.9426  134.3312  155.8357 H   0  0  0  0  0  0  0  0  0  0  0  0
  149.5200  133.7873  153.3795 H   0  0  0  0  0  0  0  0  0  0  0  0
  148.7446  132.6398  154.4627 H   0  0  0  0  0  0  0  0  0  0  0  0
  147.6977  133.1250  151.9868 H   0  0  0  0  0  0  0  0  0  0  0  0
  146.6092  132.9349  153.3715 H   0  0  0  0  0  0  0  0  0  0  0  0
  145.7017  134.7900  151.2161 H   0  0  0  0  0  0  0  0  0  0  0  0
  144.8956  134.8320  152.7771 H   0  0  0  0  0  0  0  0  0  0  0  0
  146.3413  137.1500  151.3788 H   0  0  0  0  0  0  0  0  0  0  0  0
  144.6223  137.0428  151.6622 H   0  0  0  0  0  0  0  0  0  0  0  0
  145.8032  138.5742  153.2998 H   0  0  0  0  0  0  0  0  0  0  0  0
  144.9395  137.2765  154.0866 H   0  0  0  0  0  0  0  0  0  0  0  0
  147.9567  137.3908  153.5801 H   0  0  0  0  0  0  0  0  0  0  0  0
  147.1493  137.4771  155.1334 H   0  0  0  0  0  0  0  0  0  0  0  0
  146.2020  135.1881  154.7693 H   0  0  0  0  0  0  0  0  0  0  0  0
  147.7300  135.3989  152.3324 H   0  0  0  0  0  0  0  0  0  0  0  0
  1  2  2  0  0  0  0
  2  3  1  0  0  0  0
  2  9  1  0  0  0  0
  3  4  1  0  0  0  0
  4  8  1  0  0  0  0
  4  5  2  0  0  0  0
  5  6  1  0  0  0  0
  6  7  2  0  0  0  0
  7  8  1  0  0  0  0
  7 19  1  0  0  0  0
  9 10  1  0  0  0  0
  9 20  1  0  0  0  0
 10 18  1  0  0  0  0
 10 11  1  0  0  0  0
 10 21  1  0  0  0  0
 11 12  1  0  0  0  0
 11 22  1  0  0  0  0
 11 23  1  0  0  0  0
 12 13  1  0  0  0  0
 12 24  1  0  0  0  0
 12 25  1  0  0  0  0
 13 18  1  0  0  0  0
 13 14  1  0  0  0  0
 13 35  1  0  0  0  0
 14 15  1  0  0  0  0
 14 26  1  0  0  0  0
 14 27  1  0  0  0  0
 15 16  1  0  0  0  0
 15 28  1  0  0  0  0
 15 29  1  0  0  0  0
 16 17  1  0  0  0  0
 16 30  1  0  0  0  0
 16 31  1  0  0  0  0
 17 18  1  0  0  0  0
 17 32  1  0  0  0  0
 17 33  1  0  0  0  0
 18 34  1  0  0  0  0
M  CHG  1   3  -1
M  CHG  1  13   1
M  END
> <s_m_source_file>
AV-unprocessed.smi

> <i_m_source_file_index>
1803

> <i_lp_mmshare_version>
43012

> <i_f3d_flags>
0

> <s_epik_input>
czFbY0hdbm5jMVtOSF1DKD1PKVtOSF1bQ0BIXShbQ0gyXVtDSDJdMilbQ0BASF0oTjIzKVtDSDJdW0NIMl1bQ0gyXVtDSDJdMw==

> <s_epik_cmdline>
J2VwaWtfcHl0aG9uJywgJy1waCcsICc3LjAnLCAnLXRuJywgJzgnLCAnLW1hJywgJzIwMCcsICctbWV0YWxfYmluZGluZycsICctaW1hZScsICc8aW5maWxlLm1hZT4nLCAnLW9tYWUnLCAnPG91dGZpbGUubWFlPic=

> <r_lp_tautomer_probability>
1

> <r_epik_Ionization_Penalty>
3.78828

> <r_epik_Ionization_Penalty_Charging>
3.7591

> <r_epik_Ionization_Penalty_Neutral>
0.0291838

> <r_epik_State_Penalty>
3.757

> <r_epik_Charging_Adjusted_Penalty>
7.51609

> <i_epik_Tot_Q>
0

> <i_epik_Tot_abs_Q>
2

> <r_epik_Metal_State_Penalty>
0.558016

> <b_epik_Metal_Only>
1

> <s_lp_Force_Field>
OPLS_2005

> <r_lp_Energy>
35.249

> <b_lp_Chiralities_Consistent>
1

> <s_lp_Variant>
AV-unprocessed.smi:1803-13

> <Gold.Version>
5.8.1

> <Gold.Id.Protein>
6NUR|6NUR_protein|mol2

> <Gold.PLP.Fitness>
32.1664

> <Gold.PLP.PLP>
-19.5817

> <Gold.PLP.part.hbond>
-2.9847

> <Gold.PLP.part.metal>
0.0000

> <Gold.PLP.part.buried>
-1.6887

> <Gold.PLP.part.nonpolar>
-14.6720

> <Gold.PLP.part.repulsive>
0.2124

> <Gold.PLP.ligand.clash>
1.4854

> <Gold.PLP.ligand.torsion>
0.4738

> <Gold.PLP.Chemscore.Hbond>
5.0000

> <Gold.PLP.Chemscore.CHOScore>
0.0000

> <Gold.PLP.Chemscore.Metal>
0.0000

> <Gold.Chemscore.Hbonds>
donor molecule, donor type, donor heavy atom, donor atom, acceptor molecule, acceptor atom, score
      L1  H    13    35       P1  7948  1.98
      P1  H  7989  7998       L1     6  1.00
      P1  H 10752 10764       L1     3  2.00

> <Gold.PLP.Chemscore.Internal.Correction>
0.0176

> <Gold.Rescore>
     Score         DG    S(hbond)    S(metal)    S(lipo)     H(rot)  DE(clash)    DE(int)     intcor
     14.72     -16.68       2.73        0.00      39.67       1.00       0.13       1.84       ----

> <Gold.Chemscore.Fitness>
14.7156

> <Gold.Chemscore.DG>
-16.6820

> <Gold.Chemscore.ZeroCoef>
-5.4800

> <Gold.Chemscore.Hbond>
2.7309

> <Gold.Chemscore.Metal>
0.0000

> <Gold.Chemscore.Lipo>
39.6662

> <Gold.Chemscore.Internal_Hbond>
0.0000

> <Gold.Chemscore.DEClash>
0.1307

> <Gold.Chemscore.DEInternal>
1.8356

> <Gold.Chemscore.Rot>
1.0000

> <Gold.Chemscore.Internal.Correction>
   9.000000E+99

> <Gold.Chemscore.Hbonds>
donor molecule, donor type, donor heavy atom, donor atom, acceptor molecule, acceptor atom, score
      L1  H    13    35       P1  7948  0.92
      P1  H  7989  7998       L1     6  0.34
      P1  H 10752 10764       L1     3  0.25

> <Gold.Chemscore.Hbond.Weighted>
-9.1210

> <Gold.Chemscore.Metal.Weighted>
-0.0000

> <Gold.Chemscore.Lipo.Weighted>
-4.6410

> <Gold.Chemscore.Internal_Hbond.Weighted>
0.0000

> <Gold.Chemscore.DEClash.Weighted>
0.1307

> <Gold.Chemscore.DEInternal.Weighted>
1.8356

> <Gold.Chemscore.Rot.Weighted>
2.5600

> <Gold.Chemscore.Internal.Correction.Weighted>
   9.000000E+99

> <Gold.Protein.RotatedTorsions>
[ 6907 6896 6895 6894 ] final  -28.42 input  -60.11 | X-H torsion
[ 7974 7965 7964 7962 ] final  -89.67 input  175.53 | X-H torsion
[ 8008 7997 7996 7995 ] final   99.09 input   59.86 | X-H torsion
[ 10167 10162 10161 10158 ] final  168.60 input  -65.29 | X-H torsion
[ 10718 10713 10712 10709 ] final  125.43 input   66.30 | X-H torsion
[ 10763 10752 10751 10750 ] final  -48.27 input  -60.55 | X-H torsion
[ 11005 11000 10999 10996 ] final  128.92 input  -57.11 | X-H torsion

> <Gold.Protein.ActiveResidues>
 VAL166  LYS551  ARG553  GLY616  TRP617  ASP618  TYR619  PRO620  LYS621  CYS622 
 ASP623  PHE694  ASN695  SER759  ASP760  ASP761  ALA762  ILE779  LEU786  VAL792 
 PHE793  MET794  SER795  GLU796  ALA797  LYS798  CYS799  TRP800  GLU811  SER814 

> <Gold.Protein.RotatedAtoms>
  151.1333  135.0141  159.8591 H   0  0  0  0  0  0  0  0  0  0  0  0  # atno 6907 bound_to 6896
  152.5451  134.1585  159.8558 H   0  0  0  0  0  0  0  0  0  0  0  0  # atno 6908 bound_to 6896
  151.1654  133.4773  159.2627 H   0  0  0  0  0  0  0  0  0  0  0  0  # atno 6909 bound_to 6896
  145.4366  140.9557  143.2098 H   0  0  0  0  0  0  0  0  0  0  0  0  # atno 7974 bound_to 7965
  156.1070  140.3234  155.8020 H   0  0  0  0  0  0  0  0  0  0  0  0  # atno 8008 bound_to 7997
  155.4738  140.0548  157.2993 H   0  0  0  0  0  0  0  0  0  0  0  0  # atno 8009 bound_to 7997
  154.4734  140.2022  155.9951 H   0  0  0  0  0  0  0  0  0  0  0  0  # atno 8010 bound_to 7997
  139.4972  144.3797  151.9636 H   0  0  0  0  0  0  0  0  0  0  0  0  # atno 10167 bound_to 10162
  157.5504  131.1094  150.8712 H   0  0  0  0  0  0  0  0  0  0  0  0  # atno 10718 bound_to 10713
  154.0750  135.6599  153.4829 H   0  0  0  0  0  0  0  0  0  0  0  0  # atno 10763 bound_to 10752
  153.0377  135.5166  154.7530 H   0  0  0  0  0  0  0  0  0  0  0  0  # atno 10764 bound_to 10752
  154.6607  135.3014  154.9838 H   0  0  0  0  0  0  0  0  0  0  0  0  # atno 10765 bound_to 10752
  139.9587  134.9607  156.9072 H   0  0  0  0  0  0  0  0  0  0  0  0  # atno 11005 bound_to 11000
  144.8148  139.5896  143.7013 LP  0  0  0  0  0  0  0  0  0  0  0  0  # atno 17320 bound_to 7965
  146.2578  139.6342  142.9382 LP  0  0  0  0  0  0  0  0  0  0  0  0  # atno 17321 bound_to 7965
  140.3233  144.3402  150.6004 LP  0  0  0  0  0  0  0  0  0  0  0  0  # atno 17342 bound_to 10162
  140.5705  143.2181  151.7608 LP  0  0  0  0  0  0  0  0  0  0  0  0  # atno 17343 bound_to 10162
  156.9238  130.5325  149.5279 LP  0  0  0  0  0  0  0  0  0  0  0  0  # atno 17370 bound_to 10713
  156.0572  130.5631  150.9116 LP  0  0  0  0  0  0  0  0  0  0  0  0  # atno 17371 bound_to 10713
  140.5550  134.0590  155.7381 LP  0  0  0  0  0  0  0  0  0  0  0  0  # atno 17394 bound_to 11000
  141.1261  133.9380  157.2631 LP  0  0  0  0  0  0  0  0  0  0  0  0  # atno 17395 bound_to 11000

$$$$
