AV-unprocessed.smi:1432|AV-procd|sdf|5833|dock8
  -GOLD-   22720 5493D 1   1.00000     0.00000
 Structure written by MMmdl.
 47 48  0  0  0  0  0  0  0  0  2 V2000
  144.3032  135.0749  153.2191 C   0  0  0  0  0  0  0  0  0  0  0  0
  145.6292  135.5878  152.6162 C   0  0  2  0  0  0  0  0  0  0  0  0
  145.8519  135.0848  151.1743 C   0  0  0  0  0  0  0  0  0  0  0  0
  146.2214  133.5947  151.1330 C   0  0  0  0  0  0  0  0  0  0  0  0
  147.4303  133.3276  152.0377 C   0  0  0  0  0  0  0  0  0  0  0  0
  147.1813  133.8399  153.4660 C   0  0  0  0  0  0  0  0  0  0  0  0
  146.8230  135.2849  153.4620 N   0  3  2  0  0  0  0  0  0  0  0  0
  146.7621  135.8891  154.8180 C   0  0  0  0  0  0  0  0  0  0  0  0
  147.7362  135.2136  155.8018 C   0  0  0  0  0  0  0  0  0  0  0  0
  147.6949  135.8431  157.1165 N   0  0  0  0  0  0  0  0  0  0  0  0
  148.6169  135.6757  158.0766 C   0  0  0  0  0  0  0  0  0  0  0  0
  149.6227  134.9802  157.9271 O   0  0  0  0  0  0  0  0  0  0  0  0
  148.3667  136.4271  159.3918 C   0  0  0  0  0  0  0  0  0  0  0  0
  148.0176  135.5370  160.5120 N   0  0  0  0  0  0  0  0  0  0  0  0
  148.1115  134.1498  160.2843 C   0  0  0  0  0  0  0  0  0  0  0  0
  147.8028  133.2311  161.2194 C   0  0  0  0  0  0  0  0  0  0  0  0
  147.9605  131.7409  160.9596 C   0  0  0  0  0  0  0  0  0  0  0  0
  148.7665  131.1789  161.8608 F   0  0  0  0  0  0  0  0  0  0  0  0
  146.7735  131.1404  161.0323 F   0  0  0  0  0  0  0  0  0  0  0  0
  148.4662  131.5149  159.7464 F   0  0  0  0  0  0  0  0  0  0  0  0
  147.3942  133.7402  162.5139 C   0  0  0  0  0  0  0  0  0  0  0  0
  147.3048  135.0636  162.7503 C   0  0  0  0  0  0  0  0  0  0  0  0
  147.6172  136.0502  161.7139 C   0  0  0  0  0  0  0  0  0  0  0  0
  147.5248  137.2618  161.9125 O   0  0  0  0  0  0  0  0  0  0  0  0
  143.4627  135.3380  152.5766 H   0  0  0  0  0  0  0  0  0  0  0  0
  144.1044  135.5172  154.1953 H   0  0  0  0  0  0  0  0  0  0  0  0
  144.2912  133.9919  153.3375 H   0  0  0  0  0  0  0  0  0  0  0  0
  145.5493  136.6745  152.5561 H   0  0  0  0  0  0  0  0  0  0  0  0
  144.9644  135.2671  150.5671 H   0  0  0  0  0  0  0  0  0  0  0  0
  146.6552  135.6622  150.7140 H   0  0  0  0  0  0  0  0  0  0  0  0
  145.3749  132.9875  151.4551 H   0  0  0  0  0  0  0  0  0  0  0  0
  146.4454  133.2924  150.1095 H   0  0  0  0  0  0  0  0  0  0  0  0
  147.6521  132.2601  152.0579 H   0  0  0  0  0  0  0  0  0  0  0  0
  148.3120  133.8181  151.6232 H   0  0  0  0  0  0  0  0  0  0  0  0
  146.3943  133.2580  153.9467 H   0  0  0  0  0  0  0  0  0  0  0  0
  148.0841  133.6769  154.0531 H   0  0  0  0  0  0  0  0  0  0  0  0
  147.0241  136.9457  154.7457 H   0  0  0  0  0  0  0  0  0  0  0  0
  145.7404  135.8488  155.1988 H   0  0  0  0  0  0  0  0  0  0  0  0
  147.4830  134.1633  155.9399 H   0  0  0  0  0  0  0  0  0  0  0  0
  148.7544  135.2378  155.4097 H   0  0  0  0  0  0  0  0  0  0  0  0
  146.8999  136.4327  157.3187 H   0  0  0  0  0  0  0  0  0  0  0  0
  149.2600  137.0072  159.6266 H   0  0  0  0  0  0  0  0  0  0  0  0
  147.5783  137.1675  159.2431 H   0  0  0  0  0  0  0  0  0  0  0  0
  148.4466  133.8782  159.2937 H   0  0  0  0  0  0  0  0  0  0  0  0
  147.1505  133.0490  163.3072 H   0  0  0  0  0  0  0  0  0  0  0  0
  146.9941  135.4074  163.7261 H   0  0  0  0  0  0  0  0  0  0  0  0
  147.5887  135.7541  152.9993 H   0  0  0  0  0  0  0  0  0  0  0  0
  1  2  1  0  0  0  0
  1 25  1  0  0  0  0
  1 26  1  0  0  0  0
  1 27  1  0  0  0  0
  2  7  1  0  0  0  0
  2  3  1  0  0  0  0
  2 28  1  0  0  0  0
  3  4  1  0  0  0  0
  3 29  1  0  0  0  0
  3 30  1  0  0  0  0
  4  5  1  0  0  0  0
  4 31  1  0  0  0  0
  4 32  1  0  0  0  0
  5  6  1  0  0  0  0
  5 33  1  0  0  0  0
  5 34  1  0  0  0  0
  6  7  1  0  0  0  0
  6 35  1  0  0  0  0
  6 36  1  0  0  0  0
  7  8  1  0  0  0  0
  7 47  1  0  0  0  0
  8  9  1  0  0  0  0
  8 37  1  0  0  0  0
  8 38  1  0  0  0  0
  9 10  1  0  0  0  0
  9 39  1  0  0  0  0
  9 40  1  0  0  0  0
 10 11  1  0  0  0  0
 10 41  1  0  0  0  0
 11 12  2  0  0  0  0
 11 13  1  0  0  0  0
 13 14  1  0  0  0  0
 13 42  1  0  0  0  0
 13 43  1  0  0  0  0
 14 23  1  0  0  0  0
 14 15  1  0  0  0  0
 15 16  2  0  0  0  0
 15 44  1  0  0  0  0
 16 17  1  0  0  0  0
 16 21  1  0  0  0  0
 17 18  1  0  0  0  0
 17 19  1  0  0  0  0
 17 20  1  0  0  0  0
 21 22  2  0  0  0  0
 21 45  1  0  0  0  0
 22 23  1  0  0  0  0
 22 46  1  0  0  0  0
 23 24  2  0  0  0  0
M  CHG  1   7   1
M  END
> <s_m_source_file>
AV-unprocessed.smi

> <i_m_source_file_index>
1432

> <i_lp_mmshare_version>
43012

> <i_f3d_flags>
0

> <s_epik_input>
W0NIM11bQ0BASF0xW0NIMl1bQ0gyXVtDSDJdW0NIMl1OMVtDSDJdW0NIMl1bTkhdQyg9TylbQ0gyXW4yW2NIXWMoQyhGKShGKUYpW2NIXVtjSF1jMj1P

> <s_epik_cmdline>
J2VwaWtfcHl0aG9uJywgJy1waCcsICc3LjAnLCAnLXRuJywgJzgnLCAnLW1hJywgJzIwMCcsICctbWV0YWxfYmluZGluZycsICctaW1hZScsICc8aW5maWxlLm1hZT4nLCAnLW9tYWUnLCAnPG91dGZpbGUubWFlPic=

> <r_lp_tautomer_probability>
1

> <r_epik_Ionization_Penalty>
0.00237222

> <r_epik_Ionization_Penalty_Charging>
0.00237213

> <r_epik_Ionization_Penalty_Neutral>
8.2065e-08

> <r_epik_State_Penalty>
0.00163922

> <r_epik_Charging_Adjusted_Penalty>
0.00401135

> <i_epik_Tot_Q>
1

> <i_epik_Tot_abs_Q>
1

> <r_epik_Metal_State_Penalty>
-0

> <b_epik_Metal_Only>
0

> <s_lp_Force_Field>
OPLS_2005

> <r_lp_Energy>
31.3892

> <b_lp_Chiralities_Consistent>
1

> <s_lp_Variant>
AV-unprocessed.smi:1432-3

> <Gold.Version>
5.8.1

> <Gold.Id.Protein>
6NUR|6NUR_protein|mol2

> <Gold.PLP.Fitness>
51.1216

> <Gold.PLP.PLP>
-40.3653

> <Gold.PLP.part.hbond>
-4.0000

> <Gold.PLP.part.metal>
0.0000

> <Gold.PLP.part.buried>
-4.5237

> <Gold.PLP.part.nonpolar>
-31.8989

> <Gold.PLP.part.repulsive>
0.0000

> <Gold.PLP.ligand.clash>
2.0469

> <Gold.PLP.ligand.torsion>
0.5816

> <Gold.PLP.Chemscore.Hbond>
4.6160

> <Gold.PLP.Chemscore.CHOScore>
0.0000

> <Gold.PLP.Chemscore.Metal>
0.0000

> <Gold.Chemscore.Hbonds>
donor molecule, donor type, donor heavy atom, donor atom, acceptor molecule, acceptor atom, score
      L1  H     7    47       P1  7948  2.00
      P1  H  6896  6909       L1    12  0.99
      P1  H  6931  6943       L1    24  0.91
      P1  H  6934  6947       L1    24  0.68

> <Gold.PLP.Chemscore.Internal.Correction>
0.1185

> <Gold.Rescore>
     Score         DG    S(hbond)    S(metal)    S(lipo)     H(rot)  DE(clash)    DE(int)     intcor
     18.85     -20.67       3.65        0.00      71.09       2.08       0.02       1.80       ----

> <Gold.Chemscore.Fitness>
18.8490

> <Gold.Chemscore.DG>
-20.6692

> <Gold.Chemscore.ZeroCoef>
-5.4800

> <Gold.Chemscore.Hbond>
3.6488

> <Gold.Chemscore.Metal>
0.0000

> <Gold.Chemscore.Lipo>
71.0872

> <Gold.Chemscore.Internal_Hbond>
0.0000

> <Gold.Chemscore.DEClash>
0.0234

> <Gold.Chemscore.DEInternal>
1.7967

> <Gold.Chemscore.Rot>
2.0762

> <Gold.Chemscore.Internal.Correction>
   9.000000E+99

> <Gold.Chemscore.Hbonds>
donor molecule, donor type, donor heavy atom, donor atom, acceptor molecule, acceptor atom, score
      L1  H     7    47       P1  7948  1.00
      P1  H  6896  6909       L1    12  0.92
      P1  H  6931  6943       L1    24  0.87
      P1  H  6934  6947       L1    24  0.63

> <Gold.Chemscore.Hbond.Weighted>
-12.1870

> <Gold.Chemscore.Metal.Weighted>
-0.0000

> <Gold.Chemscore.Lipo.Weighted>
-8.3172

> <Gold.Chemscore.Internal_Hbond.Weighted>
0.0000

> <Gold.Chemscore.DEClash.Weighted>
0.0234

> <Gold.Chemscore.DEInternal.Weighted>
1.7967

> <Gold.Chemscore.Rot.Weighted>
5.3150

> <Gold.Chemscore.Internal.Correction.Weighted>
   9.000000E+99

> <Gold.Protein.RotatedTorsions>
[ 6907 6896 6895 6894 ] final   21.76 input  -60.11 | X-H torsion
[ 7974 7965 7964 7962 ] final  -10.66 input  175.53 | X-H torsion
[ 8008 7997 7996 7995 ] final   31.75 input   59.86 | X-H torsion
[ 10167 10162 10161 10158 ] final   67.99 input  -65.29 | X-H torsion
[ 10718 10713 10712 10709 ] final   92.49 input   66.30 | X-H torsion
[ 10763 10752 10751 10750 ] final  -69.17 input  -60.55 | X-H torsion
[ 11005 11000 10999 10996 ] final  119.95 input  -57.11 | X-H torsion

> <Gold.Protein.ActiveResidues>
 VAL166  LYS551  ARG553  GLY616  TRP617  ASP618  TYR619  PRO620  LYS621  CYS622 
 ASP623  PHE694  ASN695  SER759  ASP760  ASP761  ALA762  ILE779  LEU786  VAL792 
 PHE793  MET794  SER795  GLU796  ALA797  LYS798  CYS799  TRP800  GLU811  SER814 

> <Gold.Protein.RotatedAtoms>
  151.9168  135.0315  160.0518 H   0  0  0  0  0  0  0  0  0  0  0  0  # atno 6907 bound_to 6896
  152.2233  133.4996  159.5183 H   0  0  0  0  0  0  0  0  0  0  0  0  # atno 6908 bound_to 6896
  150.7005  134.1230  159.4084 H   0  0  0  0  0  0  0  0  0  0  0  0  # atno 6909 bound_to 6896
  146.2213  140.2797  142.8361 H   0  0  0  0  0  0  0  0  0  0  0  0  # atno 7974 bound_to 7965
  155.1115  140.3239  155.4520 H   0  0  0  0  0  0  0  0  0  0  0  0  # atno 8008 bound_to 7997
  156.2689  140.2043  156.6186 H   0  0  0  0  0  0  0  0  0  0  0  0  # atno 8009 bound_to 7997
  154.6753  140.0532  157.0195 H   0  0  0  0  0  0  0  0  0  0  0  0  # atno 8010 bound_to 7997
  140.0835  144.5050  150.7146 H   0  0  0  0  0  0  0  0  0  0  0  0  # atno 10167 bound_to 10162
  157.6958  131.0445  150.3889 H   0  0  0  0  0  0  0  0  0  0  0  0  # atno 10718 bound_to 10713
  154.3996  135.6034  153.5889 H   0  0  0  0  0  0  0  0  0  0  0  0  # atno 10763 bound_to 10752
  152.9788  135.5903  154.4200 H   0  0  0  0  0  0  0  0  0  0  0  0  # atno 10764 bound_to 10752
  154.3996  135.2843  155.2083 H   0  0  0  0  0  0  0  0  0  0  0  0  # atno 10765 bound_to 10752
  139.9166  134.9632  156.7733 H   0  0  0  0  0  0  0  0  0  0  0  0  # atno 11005 bound_to 11000
  144.9206  140.7864  143.5750 LP  0  0  0  0  0  0  0  0  0  0  0  0  # atno 17320 bound_to 7965
  145.2733  139.1946  143.4830 LP  0  0  0  0  0  0  0  0  0  0  0  0  # atno 17321 bound_to 7965
  140.7065  143.2472  151.4710 LP  0  0  0  0  0  0  0  0  0  0  0  0  # atno 17342 bound_to 10162
  139.5765  144.1806  152.1911 LP  0  0  0  0  0  0  0  0  0  0  0  0  # atno 17343 bound_to 10162
  156.4294  130.3969  149.6770 LP  0  0  0  0  0  0  0  0  0  0  0  0  # atno 17370 bound_to 10713
  156.3993  130.7666  151.2673 LP  0  0  0  0  0  0  0  0  0  0  0  0  # atno 17371 bound_to 10713
  140.6603  133.9651  155.7801 LP  0  0  0  0  0  0  0  0  0  0  0  0  # atno 17394 bound_to 11000
  141.0648  134.0293  157.3609 LP  0  0  0  0  0  0  0  0  0  0  0  0  # atno 17395 bound_to 11000

$$$$
