AV-unprocessed.smi:1975|AV-procd|sdf|7982|dock7
  -GOLD-   2272010163D 1   1.00000     0.00000
 Structure written by MMmdl.
 33 34  0  0  0  0  0  0  0  0  1 V2000
  147.0980  142.2654  154.1611 C   0  0  0  0  0  0  0  0  0  0  0  0
  147.5887  140.8176  154.0109 C   0  0  0  0  0  0  0  0  0  0  0  0
  148.8734  140.5933  154.6213 N   0  0  0  0  0  0  0  0  0  0  0  0
  149.4518  141.5240  155.4590 C   0  0  0  0  0  0  0  0  0  0  0  0
  150.6623  141.3390  156.0246 C   0  0  0  0  0  0  0  0  0  0  0  0
  151.2452  142.3134  156.8863 C   0  0  0  0  0  0  0  0  0  0  0  0
  151.6997  143.1009  157.6024 N   0  0  0  0  0  0  0  0  0  0  0  0
  151.4344  140.1245  155.7727 C   0  0  0  0  0  0  0  0  0  0  0  0
  152.5481  139.9153  156.2566 O   0  0  0  0  0  0  0  0  0  0  0  0
  150.8221  139.1788  154.9111 N   0  0  0  0  0  0  0  0  0  0  0  0
  151.5547  137.9353  154.5848 C   0  0  0  0  0  0  0  0  0  0  0  0
  150.9846  136.6881  155.2788 C   0  0  0  0  0  0  0  0  0  0  0  0
  151.3738  136.3510  156.3981 O   0  0  0  0  0  0  0  0  0  0  0  0
  150.0500  136.0166  154.5910 N   0  0  0  0  0  0  0  0  0  0  0  0
  149.3809  134.8366  155.0346 C   0  0  0  0  0  0  0  0  0  0  0  0
  150.2331  133.6392  155.3962 C   0  0  0  0  0  0  0  0  0  0  0  0
  149.4228  133.6245  154.1296 C   0  0  0  0  0  0  0  0  0  0  0  0
  149.5541  139.3915  154.3177 C   0  0  0  0  0  0  0  0  0  0  0  0
  149.0652  138.5548  153.5538 O   0  0  0  0  0  0  0  0  0  0  0  0
  146.1096  142.3849  153.7173 H   0  0  0  0  0  0  0  0  0  0  0  0
  147.7675  142.9711  153.6687 H   0  0  0  0  0  0  0  0  0  0  0  0
  147.0269  142.5489  155.2115 H   0  0  0  0  0  0  0  0  0  0  0  0
  146.9008  140.1258  154.4988 H   0  0  0  0  0  0  0  0  0  0  0  0
  147.6600  140.5038  152.9679 H   0  0  0  0  0  0  0  0  0  0  0  0
  148.9164  142.4390  155.6688 H   0  0  0  0  0  0  0  0  0  0  0  0
  151.5664  137.7528  153.5092 H   0  0  0  0  0  0  0  0  0  0  0  0
  152.6102  138.0304  154.8458 H   0  0  0  0  0  0  0  0  0  0  0  0
  149.7913  136.3687  153.6806 H   0  0  0  0  0  0  0  0  0  0  0  0
  148.4677  134.9667  155.6139 H   0  0  0  0  0  0  0  0  0  0  0  0
  151.3131  133.7351  155.3006 H   0  0  0  0  0  0  0  0  0  0  0  0
  149.8932  133.0116  156.2175 H   0  0  0  0  0  0  0  0  0  0  0  0
  148.5419  132.9861  154.1052 H   0  0  0  0  0  0  0  0  0  0  0  0
  149.9619  133.7098  153.1881 H   0  0  0  0  0  0  0  0  0  0  0  0
  1  2  1  0  0  0  0
  1 20  1  0  0  0  0
  1 21  1  0  0  0  0
  1 22  1  0  0  0  0
  2  3  1  0  0  0  0
  2 23  1  0  0  0  0
  2 24  1  0  0  0  0
  3 18  1  0  0  0  0
  3  4  1  0  0  0  0
  4  5  2  0  0  0  0
  4 25  1  0  0  0  0
  5  6  1  0  0  0  0
  5  8  1  0  0  0  0
  6  7  3  0  0  0  0
  8  9  2  0  0  0  0
  8 10  1  0  0  0  0
 10 11  1  0  0  0  0
 10 18  1  0  0  0  0
 11 12  1  0  0  0  0
 11 26  1  0  0  0  0
 11 27  1  0  0  0  0
 12 13  2  0  0  0  0
 12 14  1  0  0  0  0
 14 15  1  0  0  0  0
 14 28  1  0  0  0  0
 15 17  1  0  0  0  0
 15 16  1  0  0  0  0
 15 29  1  0  0  0  0
 16 17  1  0  0  0  0
 16 30  1  0  0  0  0
 16 31  1  0  0  0  0
 17 32  1  0  0  0  0
 17 33  1  0  0  0  0
 18 19  2  0  0  0  0
M  END
> <s_m_source_file>
AV-unprocessed.smi

> <i_m_source_file_index>
1975

> <i_lp_mmshare_version>
43012

> <i_f3d_flags>
0

> <s_epik_input>
W0NIM11bQ0gyXW4xW2NIXWMoQyNOKWMoPU8pbihjMT1PKVtDSDJdQyg9TylbTkhdW0NIXTJbQ0gyXVtDSDJdMg==

> <s_epik_cmdline>
J2VwaWtfcHl0aG9uJywgJy1waCcsICc3LjAnLCAnLXRuJywgJzgnLCAnLW1hJywgJzIwMCcsICctbWV0YWxfYmluZGluZycsICctaW1hZScsICc8aW5maWxlLm1hZT4nLCAnLW9tYWUnLCAnPG91dGZpbGUubWFlPic=

> <r_lp_tautomer_probability>
1

> <r_epik_Ionization_Penalty>
2.07081e-08

> <r_epik_Ionization_Penalty_Charging>
3.77987e-11

> <r_epik_Ionization_Penalty_Neutral>
2.06703e-08

> <r_epik_State_Penalty>
-0

> <r_epik_Charging_Adjusted_Penalty>
3.77987e-11

> <i_epik_Tot_Q>
0

> <i_epik_Tot_abs_Q>
0

> <r_epik_Metal_State_Penalty>
-0

> <b_epik_Metal_Only>
0

> <s_lp_Force_Field>
OPLS_2005

> <r_lp_Energy>
17.9293

> <b_lp_Chiralities_Consistent>
1

> <s_lp_Variant>
AV-unprocessed.smi:1975-1

> <Gold.Version>
5.8.1

> <Gold.Id.Protein>
6NUR|6NUR_protein|mol2

> <Gold.PLP.Fitness>
43.5109

> <Gold.PLP.PLP>
-35.8519

> <Gold.PLP.part.hbond>
-2.3445

> <Gold.PLP.part.metal>
0.0000

> <Gold.PLP.part.buried>
-5.0615

> <Gold.PLP.part.nonpolar>
-33.0120

> <Gold.PLP.part.repulsive>
4.2959

> <Gold.PLP.ligand.clash>
0.0000

> <Gold.PLP.ligand.torsion>
0.6927

> <Gold.PLP.Chemscore.Hbond>
2.0000

> <Gold.PLP.Chemscore.CHOScore>
1.0000

> <Gold.PLP.Chemscore.Metal>
0.0000

> <Gold.Chemscore.Hbonds>
donor molecule, donor type, donor heavy atom, donor atom, acceptor molecule, acceptor atom, score
      L1  H    14    28       P1  7948  1.00
      P1  H  7997  8010       L1     9  1.00
      L1  C     4    25       P1  8028  1.00

> <Gold.PLP.Chemscore.Internal.Correction>
0.0443

> <Gold.Rescore>
     Score         DG    S(hbond)    S(metal)    S(lipo)     H(rot)  DE(clash)    DE(int)     intcor
     10.05     -12.32       1.81        0.00      48.15       1.89       0.43       1.83       ----

> <Gold.Chemscore.Fitness>
10.0550

> <Gold.Chemscore.DG>
-12.3184

> <Gold.Chemscore.ZeroCoef>
-5.4800

> <Gold.Chemscore.Hbond>
1.8074

> <Gold.Chemscore.Metal>
0.0000

> <Gold.Chemscore.Lipo>
48.1536

> <Gold.Chemscore.Internal_Hbond>
0.0000

> <Gold.Chemscore.DEClash>
0.4342

> <Gold.Chemscore.DEInternal>
1.8292

> <Gold.Chemscore.Rot>
1.8876

> <Gold.Chemscore.Internal.Correction>
   9.000000E+99

> <Gold.Chemscore.Hbonds>
donor molecule, donor type, donor heavy atom, donor atom, acceptor molecule, acceptor atom, score
      L1  H    14    28       P1  7948  0.33
      P1  H  7997  8010       L1     9  1.00

> <Gold.Chemscore.Hbond.Weighted>
-6.0367

> <Gold.Chemscore.Metal.Weighted>
-0.0000

> <Gold.Chemscore.Lipo.Weighted>
-5.6340

> <Gold.Chemscore.Internal_Hbond.Weighted>
0.0000

> <Gold.Chemscore.DEClash.Weighted>
0.4342

> <Gold.Chemscore.DEInternal.Weighted>
1.8292

> <Gold.Chemscore.Rot.Weighted>
4.8323

> <Gold.Chemscore.Internal.Correction.Weighted>
   9.000000E+99

> <Gold.Protein.RotatedTorsions>
[ 6907 6896 6895 6894 ] final   73.16 input  -60.11 | X-H torsion
[ 7974 7965 7964 7962 ] final  152.41 input  175.53 | X-H torsion
[ 8008 7997 7996 7995 ] final   72.16 input   59.86 | X-H torsion
[ 10167 10162 10161 10158 ] final  -78.08 input  -65.29 | X-H torsion
[ 10718 10713 10712 10709 ] final   75.73 input   66.30 | X-H torsion
[ 10763 10752 10751 10750 ] final   66.91 input  -60.55 | X-H torsion
[ 11005 11000 10999 10996 ] final  168.17 input  -57.11 | X-H torsion

> <Gold.Protein.ActiveResidues>
 VAL166  LYS551  ARG553  GLY616  TRP617  ASP618  TYR619  PRO620  LYS621  CYS622 
 ASP623  PHE694  ASN695  SER759  ASP760  ASP761  ALA762  ILE779  LEU786  VAL792 
 PHE793  MET794  SER795  GLU796  ALA797  LYS798  CYS799  TRP800  GLU811  SER814 

> <Gold.Protein.RotatedAtoms>
  152.4908  134.4463  159.9559 H   0  0  0  0  0  0  0  0  0  0  0  0  # atno 6907 bound_to 6896
  151.4450  133.3627  159.2795 H   0  0  0  0  0  0  0  0  0  0  0  0  # atno 6908 bound_to 6896
  150.9061  134.8500  159.7453 H   0  0  0  0  0  0  0  0  0  0  0  0  # atno 6909 bound_to 6896
  144.8224  139.6665  143.6094 H   0  0  0  0  0  0  0  0  0  0  0  0  # atno 7974 bound_to 7965
  155.7646  140.3486  155.5215 H   0  0  0  0  0  0  0  0  0  0  0  0  # atno 8008 bound_to 7997
  155.8881  140.1013  157.1459 H   0  0  0  0  0  0  0  0  0  0  0  0  # atno 8009 bound_to 7997
  154.4031  140.1309  156.4268 H   0  0  0  0  0  0  0  0  0  0  0  0  # atno 8010 bound_to 7997
  140.4714  143.2426  151.8199 H   0  0  0  0  0  0  0  0  0  0  0  0  # atno 10167 bound_to 10162
  157.6645  130.9740  150.1395 H   0  0  0  0  0  0  0  0  0  0  0  0  # atno 10718 bound_to 10713
  153.0161  135.5303  154.6897 H   0  0  0  0  0  0  0  0  0  0  0  0  # atno 10763 bound_to 10752
  154.6035  135.2870  155.0512 H   0  0  0  0  0  0  0  0  0  0  0  0  # atno 10764 bound_to 10752
  154.1560  135.6555  153.5027 H   0  0  0  0  0  0  0  0  0  0  0  0  # atno 10765 bound_to 10752
  140.2845  134.7723  157.3786 H   0  0  0  0  0  0  0  0  0  0  0  0  # atno 11005 bound_to 11000
  146.2530  139.6240  142.9414 LP  0  0  0  0  0  0  0  0  0  0  0  0  # atno 17320 bound_to 7965
  145.5074  141.0436  143.2506 LP  0  0  0  0  0  0  0  0  0  0  0  0  # atno 17321 bound_to 7965
  139.4819  144.4887  151.9213 LP  0  0  0  0  0  0  0  0  0  0  0  0  # atno 17342 bound_to 10162
  140.3972  144.2540  150.5895 LP  0  0  0  0  0  0  0  0  0  0  0  0  # atno 17343 bound_to 10162
  156.2221  130.3675  149.8543 LP  0  0  0  0  0  0  0  0  0  0  0  0  # atno 17370 bound_to 10713
  156.6393  130.8698  151.3511 LP  0  0  0  0  0  0  0  0  0  0  0  0  # atno 17371 bound_to 10713
  140.1253  134.5166  155.8150 LP  0  0  0  0  0  0  0  0  0  0  0  0  # atno 17394 bound_to 11000
  141.2157  133.6770  156.6940 LP  0  0  0  0  0  0  0  0  0  0  0  0  # atno 17395 bound_to 11000

$$$$
