AV-unprocessed.smi:1138|AV-procd|sdf|4868|dock2
  -GOLD-   22720 3433D 1   1.00000     0.00000
 Structure written by MMmdl.
 49 51  0  0  0  0  0  0  0  0  1 V2000
  143.8085  132.4140  149.8297 C   0  0  0  0  0  0  0  0  0  0  0  0
  144.7047  132.6789  150.9507 N   0  0  0  0  0  0  0  0  0  0  0  0
  145.5893  131.6251  151.4324 C   0  0  0  0  0  0  0  0  0  0  0  0
  144.8496  133.9996  151.4347 C   0  0  0  0  0  0  0  0  0  0  0  0
  145.8425  134.3326  152.3892 C   0  0  0  0  0  0  0  0  0  0  0  0
  145.9502  135.6640  152.8335 C   0  0  0  0  0  0  0  0  0  0  0  0
  145.0762  136.6380  152.3149 C   0  0  0  0  0  0  0  0  0  0  0  0
  145.2027  137.9713  152.7900 N   0  0  0  0  0  0  0  0  0  0  0  0
  146.2266  138.5237  153.4631 C   0  0  0  0  0  0  0  0  0  0  0  0
  147.2599  137.9410  153.7920 O   0  0  0  0  0  0  0  0  0  0  0  0
  145.9762  139.8072  153.7586 N   0  0  0  0  0  0  0  0  0  0  0  0
  146.8681  140.6875  154.5077 C   0  0  0  0  0  0  0  0  0  0  0  0
  148.1379  140.9713  153.6771 C   0  0  0  0  0  0  0  0  0  0  0  0
  149.1842  141.7458  154.4990 C   0  0  0  0  0  0  0  0  0  0  0  0
  149.4847  140.9843  155.7180 N   0  0  0  0  0  0  0  0  0  0  0  0
  150.6831  140.3837  155.9275 C   0  0  0  0  0  0  0  0  0  0  0  0
  151.6335  140.5289  155.1571 O   0  0  0  0  0  0  0  0  0  0  0  0
  150.8051  139.5047  157.1349 C   0  0  0  0  0  0  0  0  0  0  0  0
  151.6971  139.9998  158.2541 C   0  0  0  0  0  0  0  0  0  0  0  0
  152.1396  138.8346  157.4091 C   0  0  0  0  0  0  0  0  0  0  0  0
  148.3074  140.8951  156.5934 C   0  0  0  0  0  0  0  0  0  0  0  0
  147.2197  140.0717  155.8814 C   0  0  0  0  0  0  0  0  0  0  0  0
  144.1044  136.2125  151.3796 C   0  0  0  0  0  0  0  0  0  0  0  0
  143.9967  134.9366  150.9528 N   0  0  0  0  0  0  0  0  0  0  0  0
  142.7903  132.7209  150.0703 H   0  0  0  0  0  0  0  0  0  0  0  0
  143.7846  131.3530  149.5814 H   0  0  0  0  0  0  0  0  0  0  0  0
  144.1343  132.9590  148.9428 H   0  0  0  0  0  0  0  0  0  0  0  0
  145.4298  131.4471  152.4963 H   0  0  0  0  0  0  0  0  0  0  0  0
  146.6332  131.8981  151.2748 H   0  0  0  0  0  0  0  0  0  0  0  0
  145.4091  130.6861  150.9087 H   0  0  0  0  0  0  0  0  0  0  0  0
  146.5224  133.5960  152.7895 H   0  0  0  0  0  0  0  0  0  0  0  0
  146.7028  135.9313  153.5610 H   0  0  0  0  0  0  0  0  0  0  0  0
  144.3893  138.5552  152.6614 H   0  0  0  0  0  0  0  0  0  0  0  0
  145.0996  140.2033  153.4524 H   0  0  0  0  0  0  0  0  0  0  0  0
  146.3675  141.6429  154.6777 H   0  0  0  0  0  0  0  0  0  0  0  0
  148.5769  140.0313  153.3384 H   0  0  0  0  0  0  0  0  0  0  0  0
  147.8802  141.5334  152.7788 H   0  0  0  0  0  0  0  0  0  0  0  0
  150.0665  141.9352  153.8862 H   0  0  0  0  0  0  0  0  0  0  0  0
  148.7971  142.7289  154.7707 H   0  0  0  0  0  0  0  0  0  0  0  0
  149.9244  138.9247  157.4054 H   0  0  0  0  0  0  0  0  0  0  0  0
  152.2186  140.9456  158.1151 H   0  0  0  0  0  0  0  0  0  0  0  0
  151.3681  139.8004  159.2717 H   0  0  0  0  0  0  0  0  0  0  0  0
  152.1109  137.8425  157.8551 H   0  0  0  0  0  0  0  0  0  0  0  0
  152.9723  139.0060  156.7293 H   0  0  0  0  0  0  0  0  0  0  0  0
  148.5175  140.4747  157.5758 H   0  0  0  0  0  0  0  0  0  0  0  0
  147.9350  141.9011  156.7919 H   0  0  0  0  0  0  0  0  0  0  0  0
  146.3290  140.0152  156.5082 H   0  0  0  0  0  0  0  0  0  0  0  0
  147.5724  139.0472  155.7512 H   0  0  0  0  0  0  0  0  0  0  0  0
  143.3734  136.8883  150.9644 H   0  0  0  0  0  0  0  0  0  0  0  0
  1  2  1  0  0  0  0
  1 25  1  0  0  0  0
  1 26  1  0  0  0  0
  1 27  1  0  0  0  0
  2  3  1  0  0  0  0
  2  4  1  0  0  0  0
  3 28  1  0  0  0  0
  3 29  1  0  0  0  0
  3 30  1  0  0  0  0
  4 24  1  0  0  0  0
  4  5  2  0  0  0  0
  5  6  1  0  0  0  0
  5 31  1  0  0  0  0
  6  7  2  0  0  0  0
  6 32  1  0  0  0  0
  7  8  1  0  0  0  0
  7 23  1  0  0  0  0
  8  9  1  0  0  0  0
  8 33  1  0  0  0  0
  9 10  2  0  0  0  0
  9 11  1  0  0  0  0
 11 12  1  0  0  0  0
 11 34  1  0  0  0  0
 12 22  1  0  0  0  0
 12 13  1  0  0  0  0
 12 35  1  0  0  0  0
 13 14  1  0  0  0  0
 13 36  1  0  0  0  0
 13 37  1  0  0  0  0
 14 15  1  0  0  0  0
 14 38  1  0  0  0  0
 14 39  1  0  0  0  0
 15 16  1  0  0  0  0
 15 21  1  0  0  0  0
 16 17  2  0  0  0  0
 16 18  1  0  0  0  0
 18 20  1  0  0  0  0
 18 19  1  0  0  0  0
 18 40  1  0  0  0  0
 19 20  1  0  0  0  0
 19 41  1  0  0  0  0
 19 42  1  0  0  0  0
 20 43  1  0  0  0  0
 20 44  1  0  0  0  0
 21 22  1  0  0  0  0
 21 45  1  0  0  0  0
 21 46  1  0  0  0  0
 22 47  1  0  0  0  0
 22 48  1  0  0  0  0
 23 24  2  0  0  0  0
 23 49  1  0  0  0  0
M  END
> <s_m_source_file>
AV-unprocessed.smi

> <i_m_source_file_index>
1138

> <i_lp_mmshare_version>
43012

> <i_f3d_flags>
0

> <s_epik_input>
W0NIM11OKFtDSDNdKWMxW2NIXVtjSF1jKFtjSF1uMSlbTkhdQyg9TylbTkhdW0NIXTJbQ0gyXVtDSDJdTihbQ0gyXVtDSDJdMilDKD1PKVtDSF0zW0NIMl1bQ0gyXTM=

> <s_epik_cmdline>
J2VwaWtfcHl0aG9uJywgJy1waCcsICc3LjAnLCAnLXRuJywgJzgnLCAnLW1hJywgJzIwMCcsICctbWV0YWxfYmluZGluZycsICctaW1hZScsICc8aW5maWxlLm1hZT4nLCAnLW9tYWUnLCAnPG91dGZpbGUubWFlPic=

> <r_lp_tautomer_probability>
1

> <r_epik_Ionization_Penalty>
0.622325

> <r_epik_Ionization_Penalty_Charging>
0

> <r_epik_Ionization_Penalty_Neutral>
0.622325

> <r_epik_State_Penalty>
0.637335

> <r_epik_Charging_Adjusted_Penalty>
0.637335

> <i_epik_Tot_Q>
0

> <i_epik_Tot_abs_Q>
0

> <r_epik_Metal_State_Penalty>
0.306682

> <b_epik_Metal_Only>
0

> <s_lp_Force_Field>
OPLS_2005

> <r_lp_Energy>
33.2088

> <b_lp_Chiralities_Consistent>
1

> <s_lp_Variant>
AV-unprocessed.smi:1138-2

> <Gold.Version>
5.8.1

> <Gold.Id.Protein>
6NUR|6NUR_protein|mol2

> <Gold.PLP.Fitness>
44.7850

> <Gold.PLP.PLP>
-33.7663

> <Gold.PLP.part.hbond>
-3.0835

> <Gold.PLP.part.metal>
0.0000

> <Gold.PLP.part.buried>
-1.2248

> <Gold.PLP.part.nonpolar>
-29.5798

> <Gold.PLP.part.repulsive>
0.4583

> <Gold.PLP.ligand.clash>
0.0000

> <Gold.PLP.ligand.torsion>
0.2069

> <Gold.PLP.Chemscore.Hbond>
2.8080

> <Gold.PLP.Chemscore.CHOScore>
0.9587

> <Gold.PLP.Chemscore.Metal>
0.0000

> <Gold.Chemscore.Hbonds>
donor molecule, donor type, donor heavy atom, donor atom, acceptor molecule, acceptor atom, score
      L1  H     8    33       P1 10175  0.94
      L1  H    11    34       P1 10175  1.00
      P1  H  7989  7998       L1    17  0.80
      L1  C    23    49       P1 10171  0.90

> <Gold.PLP.Chemscore.Internal.Correction>
0.1322

> <Gold.Rescore>
     Score         DG    S(hbond)    S(metal)    S(lipo)     H(rot)  DE(clash)    DE(int)     intcor
     17.20     -20.16       2.76        0.00      72.76       1.20       0.36       2.61       ----

> <Gold.Chemscore.Fitness>
17.2022

> <Gold.Chemscore.DG>
-20.1626

> <Gold.Chemscore.ZeroCoef>
-5.4800

> <Gold.Chemscore.Hbond>
2.7645

> <Gold.Chemscore.Metal>
0.0000

> <Gold.Chemscore.Lipo>
72.7617

> <Gold.Chemscore.Internal_Hbond>
0.0000

> <Gold.Chemscore.DEClash>
0.3552

> <Gold.Chemscore.DEInternal>
2.6052

> <Gold.Chemscore.Rot>
1.1969

> <Gold.Chemscore.Internal.Correction>
   9.000000E+99

> <Gold.Chemscore.Hbonds>
donor molecule, donor type, donor heavy atom, donor atom, acceptor molecule, acceptor atom, score
      L1  H     8    33       P1 10175  0.84
      L1  H    11    34       P1 10175  1.00
      P1  H  7989  7998       L1    17  0.79

> <Gold.Chemscore.Hbond.Weighted>
-9.2336

> <Gold.Chemscore.Metal.Weighted>
-0.0000

> <Gold.Chemscore.Lipo.Weighted>
-8.5131

> <Gold.Chemscore.Internal_Hbond.Weighted>
0.0000

> <Gold.Chemscore.DEClash.Weighted>
0.3552

> <Gold.Chemscore.DEInternal.Weighted>
2.6052

> <Gold.Chemscore.Rot.Weighted>
3.0641

> <Gold.Chemscore.Internal.Correction.Weighted>
   9.000000E+99

> <Gold.Protein.RotatedTorsions>
[ 6907 6896 6895 6894 ] final  108.78 input  -60.11 | X-H torsion
[ 7974 7965 7964 7962 ] final   49.63 input  175.53 | X-H torsion
[ 8008 7997 7996 7995 ] final  -70.33 input   59.86 | X-H torsion
[ 10167 10162 10161 10158 ] final   40.19 input  -65.29 | X-H torsion
[ 10718 10713 10712 10709 ] final   79.72 input   66.30 | X-H torsion
[ 10763 10752 10751 10750 ] final  -81.14 input  -60.55 | X-H torsion
[ 11005 11000 10999 10996 ] final  -97.60 input  -57.11 | X-H torsion

> <Gold.Protein.ActiveResidues>
 VAL166  LYS551  ARG553  GLY616  TRP617  ASP618  TYR619  PRO620  LYS621  CYS622 
 ASP623  PHE694  ASN695  SER759  ASP760  ASP761  ALA762  ILE779  LEU786  VAL792 
 PHE793  MET794  SER795  GLU796  ALA797  LYS798  CYS799  TRP800  GLU811  SER814 

> <Gold.Protein.RotatedAtoms>
  152.5097  133.9039  159.7454 H   0  0  0  0  0  0  0  0  0  0  0  0  # atno 6907 bound_to 6896
  150.9448  133.6607  159.2790 H   0  0  0  0  0  0  0  0  0  0  0  0  # atno 6908 bound_to 6896
  151.3906  135.0960  159.9577 H   0  0  0  0  0  0  0  0  0  0  0  0  # atno 6909 bound_to 6896
  146.0090  139.4522  142.9968 H   0  0  0  0  0  0  0  0  0  0  0  0  # atno 7974 bound_to 7965
  154.5004  140.0836  156.7785 H   0  0  0  0  0  0  0  0  0  0  0  0  # atno 8008 bound_to 7997
  155.4017  140.3437  155.4239 H   0  0  0  0  0  0  0  0  0  0  0  0  # atno 8009 bound_to 7997
  156.1448  140.1540  156.8851 H   0  0  0  0  0  0  0  0  0  0  0  0  # atno 8010 bound_to 7997
  140.3766  144.2035  150.6131 H   0  0  0  0  0  0  0  0  0  0  0  0  # atno 10167 bound_to 10162
  157.6785  130.9927  150.1973 H   0  0  0  0  0  0  0  0  0  0  0  0  # atno 10718 bound_to 10713
  154.5599  135.5636  153.6998 H   0  0  0  0  0  0  0  0  0  0  0  0  # atno 10763 bound_to 10752
  153.0015  135.6271  154.2259 H   0  0  0  0  0  0  0  0  0  0  0  0  # atno 10764 bound_to 10752
  154.2196  135.2870  155.2909 H   0  0  0  0  0  0  0  0  0  0  0  0  # atno 10765 bound_to 10752
  141.1373  133.8183  157.0728 H   0  0  0  0  0  0  0  0  0  0  0  0  # atno 11005 bound_to 11000
  145.7371  141.0022  143.1321 LP  0  0  0  0  0  0  0  0  0  0  0  0  # atno 17320 bound_to 7965
  144.6946  139.9054  143.7461 LP  0  0  0  0  0  0  0  0  0  0  0  0  # atno 17321 bound_to 7965
  140.4980  143.2326  151.8721 LP  0  0  0  0  0  0  0  0  0  0  0  0  # atno 17342 bound_to 10162
  139.4799  144.5092  151.8956 LP  0  0  0  0  0  0  0  0  0  0  0  0  # atno 17343 bound_to 10162
  156.2672  130.3717  149.8069 LP  0  0  0  0  0  0  0  0  0  0  0  0  # atno 17370 bound_to 10713
  156.5797  130.8460  151.3379 LP  0  0  0  0  0  0  0  0  0  0  0  0  # atno 17371 bound_to 10713
  140.0501  134.9810  157.1120 LP  0  0  0  0  0  0  0  0  0  0  0  0  # atno 17394 bound_to 11000
  140.4003  134.2089  155.7163 LP  0  0  0  0  0  0  0  0  0  0  0  0  # atno 17395 bound_to 11000

$$$$
