AV-unprocessed.smi:1165|AV-procd|sdf|4931|dock1
  -GOLD-   22720 3513D 1   1.00000     0.00000
 Structure written by MMmdl.
 40 41  0  0  0  0  0  0  0  0  2 V2000
  149.2396  141.1230  155.4887 C   0  0  0  0  0  0  0  0  0  0  0  0
  150.1827  139.9275  155.6647 C   0  0  2  0  0  0  0  0  0  0  0  0
  151.0188  140.0402  156.9520 C   0  0  0  0  0  0  0  0  0  0  0  0
  152.0129  138.9597  157.0278 N   0  0  0  0  0  0  0  0  0  0  0  0
  152.7780  138.6773  158.5678 S   0  0  0  0  0  0  0  0  0  0  0  0
  151.7103  138.8484  159.5651 O   0  0  0  0  0  0  0  0  0  0  0  0
  153.4219  137.3548  158.4862 O   0  0  0  0  0  0  0  0  0  0  0  0
  153.8285  139.9224  158.5619 N   0  5  0  0  0  0  0  0  0  0  0  0
  154.4757  140.3790  159.7878 C   0  0  0  0  0  0  0  0  0  0  0  0
  153.4168  140.7891  160.8337 C   0  0  0  0  0  0  0  0  0  0  0  0
  152.7852  142.1571  160.5961 C   0  0  0  0  0  0  0  0  0  0  0  0
  152.1074  142.8350  161.6331 C   0  0  0  0  0  0  0  0  0  0  0  0
  151.5335  144.0921  161.3636 C   0  0  0  0  0  0  0  0  0  0  0  0
  151.6578  144.6206  160.0637 C   0  0  0  0  0  0  0  0  0  0  0  0
  152.2952  143.9811  159.0598 N   0  0  0  0  0  0  0  0  0  0  0  0
  152.8446  142.7766  159.3276 C   0  0  0  0  0  0  0  0  0  0  0  0
  152.8448  138.8662  155.8137 C   0  0  0  0  0  0  0  0  0  0  0  0
  151.9769  138.8015  154.5438 C   0  0  1  0  0  0  0  0  0  0  0  0
  151.3073  137.4307  154.3371 C   0  0  0  0  0  0  0  0  0  0  0  0
  151.0364  139.8729  154.5271 O   0  0  0  0  0  0  0  0  0  0  0  0
  148.5528  141.2086  156.3311 H   0  0  0  0  0  0  0  0  0  0  0  0
  148.6422  141.0182  154.5829 H   0  0  0  0  0  0  0  0  0  0  0  0
  149.7964  142.0575  155.4141 H   0  0  0  0  0  0  0  0  0  0  0  0
  149.5722  139.0255  155.7083 H   0  0  0  0  0  0  0  0  0  0  0  0
  151.5379  140.9985  156.9934 H   0  0  0  0  0  0  0  0  0  0  0  0
  150.3568  139.9967  157.8164 H   0  0  0  0  0  0  0  0  0  0  0  0
  155.1223  139.6150  160.2205 H   0  0  0  0  0  0  0  0  0  0  0  0
  155.1202  141.2363  159.5919 H   0  0  0  0  0  0  0  0  0  0  0  0
  152.6187  140.0461  160.8394 H   0  0  0  0  0  0  0  0  0  0  0  0
  153.8509  140.7639  161.8343 H   0  0  0  0  0  0  0  0  0  0  0  0
  152.0334  142.4009  162.6196 H   0  0  0  0  0  0  0  0  0  0  0  0
  151.0133  144.6384  162.1362 H   0  0  0  0  0  0  0  0  0  0  0  0
  151.2307  145.5827  159.8227 H   0  0  0  0  0  0  0  0  0  0  0  0
  153.3479  142.2923  158.5038 H   0  0  0  0  0  0  0  0  0  0  0  0
  153.4947  139.7411  155.7734 H   0  0  0  0  0  0  0  0  0  0  0  0
  153.5001  137.9969  155.8604 H   0  0  0  0  0  0  0  0  0  0  0  0
  152.6320  138.9633  153.6875 H   0  0  0  0  0  0  0  0  0  0  0  0
  152.0585  136.6511  154.2094 H   0  0  0  0  0  0  0  0  0  0  0  0
  150.6789  137.4333  153.4464 H   0  0  0  0  0  0  0  0  0  0  0  0
  150.6881  137.1415  155.1859 H   0  0  0  0  0  0  0  0  0  0  0  0
  1  2  1  0  0  0  0
  1 21  1  0  0  0  0
  1 22  1  0  0  0  0
  1 23  1  0  0  0  0
  2 20  1  0  0  0  0
  2  3  1  0  0  0  0
  2 24  1  0  0  0  0
  3  4  1  0  0  0  0
  3 25  1  0  0  0  0
  3 26  1  0  0  0  0
  4  5  1  0  0  0  0
  4 17  1  0  0  0  0
  5  6  2  0  0  0  0
  5  7  2  0  0  0  0
  5  8  1  0  0  0  0
  8  9  1  0  0  0  0
  9 10  1  0  0  0  0
  9 27  1  0  0  0  0
  9 28  1  0  0  0  0
 10 11  1  0  0  0  0
 10 29  1  0  0  0  0
 10 30  1  0  0  0  0
 11 16  1  0  0  0  0
 11 12  2  0  0  0  0
 12 13  1  0  0  0  0
 12 31  1  0  0  0  0
 13 14  2  0  0  0  0
 13 32  1  0  0  0  0
 14 15  1  0  0  0  0
 14 33  1  0  0  0  0
 15 16  2  0  0  0  0
 16 34  1  0  0  0  0
 17 18  1  0  0  0  0
 17 35  1  0  0  0  0
 17 36  1  0  0  0  0
 18 19  1  0  0  0  0
 18 20  1  0  0  0  0
 18 37  1  0  0  0  0
 19 38  1  0  0  0  0
 19 39  1  0  0  0  0
 19 40  1  0  0  0  0
M  CHG  1   8  -1
M  END
> <s_m_source_file>
AV-unprocessed.smi

> <i_m_source_file_index>
1165

> <i_lp_mmshare_version>
43012

> <i_f3d_flags>
0

> <s_epik_input>
W0NIM11bQ0BASF0xW0NIMl1OKFtDSDJdW0NASF0oTzEpW0NIM10pUyg9TykoPU8pW05IXVtDSDJdW0NIMl1jMltjSF1bY0hdW2NIXW5bY0hdMg==

> <s_epik_cmdline>
J2VwaWtfcHl0aG9uJywgJy1waCcsICc3LjAnLCAnLXRuJywgJzgnLCAnLW1hJywgJzIwMCcsICctbWV0YWxfYmluZGluZycsICctaW1hZScsICc8aW5maWxlLm1hZT4nLCAnLW9tYWUnLCAnPG91dGZpbGUubWFlPic=

> <r_epik_Ionization_Penalty>
1.23471

> <r_epik_Ionization_Penalty_Charging>
1.20871

> <r_epik_Ionization_Penalty_Neutral>
0.025996

> <r_epik_State_Penalty>
1.46261

> <r_epik_Charging_Adjusted_Penalty>
2.67132

> <i_epik_Tot_Q>
-1

> <i_epik_Tot_abs_Q>
1

> <r_epik_Metal_State_Penalty>
0.521406

> <b_epik_Metal_Only>
0

> <s_lp_Force_Field>
OPLS_2005

> <r_lp_Energy>
7.90597

> <b_lp_Chiralities_Consistent>
1

> <s_lp_Variant>
AV-unprocessed.smi:1165-4

> <Gold.Version>
5.8.1

> <Gold.Id.Protein>
6NUR|6NUR_protein|mol2

> <Gold.PLP.Fitness>
51.0221

> <Gold.PLP.PLP>
-43.1350

> <Gold.PLP.part.hbond>
-2.9459

> <Gold.PLP.part.metal>
0.0000

> <Gold.PLP.part.buried>
-3.6744

> <Gold.PLP.part.nonpolar>
-37.8276

> <Gold.PLP.part.repulsive>
0.1280

> <Gold.PLP.ligand.clash>
0.0000

> <Gold.PLP.ligand.torsion>
1.3492

> <Gold.PLP.Chemscore.Hbond>
3.0000

> <Gold.PLP.Chemscore.CHOScore>
0.0000

> <Gold.PLP.Chemscore.Metal>
0.0000

> <Gold.Chemscore.Hbonds>
donor molecule, donor type, donor heavy atom, donor atom, acceptor molecule, acceptor atom, score
      P1  H  7989  7998       L1    20  1.00
      P1  H  7997  8010       L1     8  2.00

> <Gold.PLP.Chemscore.Internal.Correction>
1.5856

> <Gold.Rescore>
     Score         DG    S(hbond)    S(metal)    S(lipo)     H(rot)  DE(clash)    DE(int)     intcor
     18.89     -21.54       1.73        0.00     120.23       1.47       0.14       2.52       ----

> <Gold.Chemscore.Fitness>
18.8861

> <Gold.Chemscore.DG>
-21.5432

> <Gold.Chemscore.ZeroCoef>
-5.4800

> <Gold.Chemscore.Hbond>
1.7267

> <Gold.Chemscore.Metal>
0.0000

> <Gold.Chemscore.Lipo>
120.2323

> <Gold.Chemscore.Internal_Hbond>
0.0000

> <Gold.Chemscore.DEClash>
0.1381

> <Gold.Chemscore.DEInternal>
2.5190

> <Gold.Chemscore.Rot>
1.4731

> <Gold.Chemscore.Internal.Correction>
   9.000000E+99

> <Gold.Chemscore.Hbonds>
donor molecule, donor type, donor heavy atom, donor atom, acceptor molecule, acceptor atom, score
      P1  H  7989  7998       L1    20  0.38
      P1  H  7997  8010       L1     8  0.80

> <Gold.Chemscore.Hbond.Weighted>
-5.7672

> <Gold.Chemscore.Metal.Weighted>
-0.0000

> <Gold.Chemscore.Lipo.Weighted>
-14.0672

> <Gold.Chemscore.Internal_Hbond.Weighted>
0.0000

> <Gold.Chemscore.DEClash.Weighted>
0.1381

> <Gold.Chemscore.DEInternal.Weighted>
2.5190

> <Gold.Chemscore.Rot.Weighted>
3.7712

> <Gold.Chemscore.Internal.Correction.Weighted>
   9.000000E+99

> <Gold.Protein.RotatedTorsions>
[ 6907 6896 6895 6894 ] final   70.44 input  -60.11 | X-H torsion
[ 7974 7965 7964 7962 ] final  167.53 input  175.53 | X-H torsion
[ 8008 7997 7996 7995 ] final   22.19 input   59.86 | X-H torsion
[ 10167 10162 10161 10158 ] final -112.96 input  -65.29 | X-H torsion
[ 10718 10713 10712 10709 ] final  -51.20 input   66.30 | X-H torsion
[ 10763 10752 10751 10750 ] final  168.30 input  -60.55 | X-H torsion
[ 11005 11000 10999 10996 ] final   51.61 input  -57.11 | X-H torsion

> <Gold.Protein.ActiveResidues>
 VAL166  LYS551  ARG553  GLY616  TRP617  ASP618  TYR619  PRO620  LYS621  CYS622 
 ASP623  PHE694  ASN695  SER759  ASP760  ASP761  ALA762  ILE779  LEU786  VAL792 
 PHE793  MET794  SER795  GLU796  ALA797  LYS798  CYS799  TRP800  GLU811  SER814 

> <Gold.Protein.RotatedAtoms>
  152.4749  134.4868  159.9682 H   0  0  0  0  0  0  0  0  0  0  0  0  # atno 6907 bound_to 6896
  151.4887  133.3524  159.2857 H   0  0  0  0  0  0  0  0  0  0  0  0  # atno 6908 bound_to 6896
  150.8781  134.8195  159.7266 H   0  0  0  0  0  0  0  0  0  0  0  0  # atno 6909 bound_to 6896
  144.7421  139.8775  143.6393 H   0  0  0  0  0  0  0  0  0  0  0  0  # atno 7974 bound_to 7965
  154.9619  140.3079  155.5027 H   0  0  0  0  0  0  0  0  0  0  0  0  # atno 8008 bound_to 7997
  156.2976  140.2300  156.4644 H   0  0  0  0  0  0  0  0  0  0  0  0  # atno 8009 bound_to 7997
  154.7957  140.0437  157.1223 H   0  0  0  0  0  0  0  0  0  0  0  0  # atno 8010 bound_to 7997
  140.1170  143.4477  152.1715 H   0  0  0  0  0  0  0  0  0  0  0  0  # atno 10167 bound_to 10162
  156.1731  130.4149  149.9617 H   0  0  0  0  0  0  0  0  0  0  0  0  # atno 10718 bound_to 10713
  154.3665  135.2753  155.2290 H   0  0  0  0  0  0  0  0  0  0  0  0  # atno 10763 bound_to 10752
  154.4456  135.5943  153.6161 H   0  0  0  0  0  0  0  0  0  0  0  0  # atno 10764 bound_to 10752
  152.9840  135.6029  154.3891 H   0  0  0  0  0  0  0  0  0  0  0  0  # atno 10765 bound_to 10752
  140.0918  134.5199  155.8845 H   0  0  0  0  0  0  0  0  0  0  0  0  # atno 11005 bound_to 11000
  146.1236  139.4258  143.0213 LP  0  0  0  0  0  0  0  0  0  0  0  0  # atno 17320 bound_to 7965
  145.7269  141.0056  143.1373 LP  0  0  0  0  0  0  0  0  0  0  0  0  # atno 17321 bound_to 7965
  139.5589  144.7392  151.4214 LP  0  0  0  0  0  0  0  0  0  0  0  0  # atno 17342 bound_to 10162
  140.6893  143.7899  150.7232 LP  0  0  0  0  0  0  0  0  0  0  0  0  # atno 17343 bound_to 10162
  156.7411  130.9080  151.3632 LP  0  0  0  0  0  0  0  0  0  0  0  0  # atno 17370 bound_to 10713
  157.6817  130.9146  150.0283 LP  0  0  0  0  0  0  0  0  0  0  0  0  # atno 17371 bound_to 10713
  141.2080  133.6669  156.6343 LP  0  0  0  0  0  0  0  0  0  0  0  0  # atno 17394 bound_to 11000
  140.3342  134.7903  157.4349 LP  0  0  0  0  0  0  0  0  0  0  0  0  # atno 17395 bound_to 11000

$$$$
