AV-unprocessed.smi:2176|AV-procd|sdf|8846|dock9
  -GOLD-   2272012 33D 1   1.00000     0.00000
 Structure written by MMmdl.
 29 30  0  0  0  0  0  0  0  0  1 V2000
  149.5486  141.1866  157.8194 O   0  0  0  0  0  0  0  0  0  0  0  0
  150.4525  141.5913  157.0869 C   0  0  0  0  0  0  0  0  0  0  0  0
  150.9607  140.7319  155.9196 C   0  0  0  0  0  0  0  0  0  0  0  0
  149.8963  140.3393  154.9841 N   0  0  0  0  0  0  0  0  0  0  0  0
  148.8443  141.2041  154.7171 C   0  0  0  0  0  0  0  0  0  0  0  0
  147.8372  140.9112  153.8606 C   0  0  0  0  0  0  0  0  0  0  0  0
  147.8131  139.6326  153.1583 C   0  0  0  0  0  0  0  0  0  0  0  0
  146.9438  139.2741  152.3672 O   0  0  0  0  0  0  0  0  0  0  0  0
  148.8901  138.7916  153.4507 N   0  0  0  0  0  0  0  0  0  0  0  0
  149.9322  139.0881  154.3306 C   0  0  0  0  0  0  0  0  0  0  0  0
  150.8373  138.2749  154.5134 O   0  0  0  0  0  0  0  0  0  0  0  0
  151.0661  142.7730  157.2537 N   0  0  0  0  0  0  0  0  0  0  0  0
  150.7737  143.7484  158.2974 C   0  0  0  0  0  0  0  0  0  0  0  0
  151.9909  144.1842  159.0862 C   0  0  0  0  0  0  0  0  0  0  0  0
  152.4095  143.4290  160.3257 C   0  0  0  0  0  0  0  0  0  0  0  0
  151.8510  144.8265  160.4468 C   0  0  0  0  0  0  0  0  0  0  0  0
  148.9175  137.8959  152.9855 H   0  0  0  0  0  0  0  0  0  0  0  0
  151.7525  141.2629  155.3869 H   0  0  0  0  0  0  0  0  0  0  0  0
  151.4408  139.8456  156.3370 H   0  0  0  0  0  0  0  0  0  0  0  0
  148.8228  142.1650  155.2116 H   0  0  0  0  0  0  0  0  0  0  0  0
  147.0456  141.6273  153.6932 H   0  0  0  0  0  0  0  0  0  0  0  0
  151.8006  143.0153  156.6047 H   0  0  0  0  0  0  0  0  0  0  0  0
  150.3154  144.6208  157.8303 H   0  0  0  0  0  0  0  0  0  0  0  0
  150.0395  143.3613  159.0053 H   0  0  0  0  0  0  0  0  0  0  0  0
  152.8075  144.5469  158.4643 H   0  0  0  0  0  0  0  0  0  0  0  0
  151.7782  142.6067  160.6567 H   0  0  0  0  0  0  0  0  0  0  0  0
  153.4757  143.2969  160.4982 H   0  0  0  0  0  0  0  0  0  0  0  0
  152.5450  145.6263  160.6976 H   0  0  0  0  0  0  0  0  0  0  0  0
  150.8491  144.9326  160.8583 H   0  0  0  0  0  0  0  0  0  0  0  0
  1  2  2  0  0  0  0
  2  3  1  0  0  0  0
  2 12  1  0  0  0  0
  3  4  1  0  0  0  0
  3 18  1  0  0  0  0
  3 19  1  0  0  0  0
  4 10  1  0  0  0  0
  4  5  1  0  0  0  0
  5  6  2  0  0  0  0
  5 20  1  0  0  0  0
  6  7  1  0  0  0  0
  6 21  1  0  0  0  0
  7  8  2  0  0  0  0
  7  9  1  0  0  0  0
  9 17  1  0  0  0  0
  9 10  1  0  0  0  0
 10 11  2  0  0  0  0
 12 13  1  0  0  0  0
 12 22  1  0  0  0  0
 13 14  1  0  0  0  0
 13 23  1  0  0  0  0
 13 24  1  0  0  0  0
 14 16  1  0  0  0  0
 14 15  1  0  0  0  0
 14 25  1  0  0  0  0
 15 16  1  0  0  0  0
 15 26  1  0  0  0  0
 15 27  1  0  0  0  0
 16 28  1  0  0  0  0
 16 29  1  0  0  0  0
M  END
> <s_m_source_file>
AV-unprocessed.smi

> <i_m_source_file_index>
2176

> <i_lp_mmshare_version>
43012

> <i_f3d_flags>
0

> <s_epik_input>
W0NIMl0xW0NIMl1bQ0hdMVtDSDJdW05IXUMoPU8pW0NIMl1uMltjSF1bY0hdYyg9TylbbkhdYzI9Tw==

> <s_epik_cmdline>
J2VwaWtfcHl0aG9uJywgJy1waCcsICc3LjAnLCAnLXRuJywgJzgnLCAnLW1hJywgJzIwMCcsICctbWV0YWxfYmluZGluZycsICctaW1hZScsICc8aW5maWxlLm1hZT4nLCAnLW9tYWUnLCAnPG91dGZpbGUubWFlPic=

> <r_lp_tautomer_probability>
0.999537

> <r_epik_Ionization_Penalty>
0.00328917

> <r_epik_Ionization_Penalty_Charging>
0.00328916

> <r_epik_Ionization_Penalty_Neutral>
1.93017e-08

> <r_epik_State_Penalty>
0.00232387

> <r_epik_Charging_Adjusted_Penalty>
0.00561303

> <i_epik_Tot_Q>
0

> <i_epik_Tot_abs_Q>
0

> <r_epik_Metal_State_Penalty>
0.365274

> <b_epik_Metal_Only>
0

> <s_lp_Force_Field>
OPLS_2005

> <r_lp_Energy>
12.7002

> <b_lp_Chiralities_Consistent>
1

> <s_lp_Variant>
AV-unprocessed.smi:2176-1

> <Gold.Version>
5.8.1

> <Gold.Id.Protein>
6NUR|6NUR_protein|mol2

> <Gold.PLP.Fitness>
40.4408

> <Gold.PLP.PLP>
-35.8487

> <Gold.PLP.part.hbond>
-2.6993

> <Gold.PLP.part.metal>
0.0000

> <Gold.PLP.part.buried>
-1.4620

> <Gold.PLP.part.nonpolar>
-32.9175

> <Gold.PLP.part.repulsive>
0.9227

> <Gold.PLP.ligand.clash>
0.0000

> <Gold.PLP.ligand.torsion>
0.6722

> <Gold.PLP.Chemscore.Hbond>
0.7963

> <Gold.PLP.Chemscore.CHOScore>
1.0000

> <Gold.PLP.Chemscore.Metal>
0.0000

> <Gold.Chemscore.Hbonds>
donor molecule, donor type, donor heavy atom, donor atom, acceptor molecule, acceptor atom, score
      L1  H     9    17       P1  7948  1.00
      L1  C     5    20       P1  8028  0.86

> <Gold.PLP.Chemscore.Internal.Correction>
0.5478

> <Gold.Rescore>
     Score         DG    S(hbond)    S(metal)    S(lipo)     H(rot)  DE(clash)    DE(int)     intcor
     10.90     -11.69       0.97        0.00      69.96       2.04       0.02       0.77       ----

> <Gold.Chemscore.Fitness>
10.8964

> <Gold.Chemscore.DG>
-11.6865

> <Gold.Chemscore.ZeroCoef>
-5.4800

> <Gold.Chemscore.Hbond>
0.9673

> <Gold.Chemscore.Metal>
0.0000

> <Gold.Chemscore.Lipo>
69.9624

> <Gold.Chemscore.Internal_Hbond>
0.0000

> <Gold.Chemscore.DEClash>
0.0208

> <Gold.Chemscore.DEInternal>
0.7693

> <Gold.Chemscore.Rot>
2.0351

> <Gold.Chemscore.Internal.Correction>
   9.000000E+99

> <Gold.Chemscore.Hbonds>
donor molecule, donor type, donor heavy atom, donor atom, acceptor molecule, acceptor atom, score
      L1  H     9    17       P1  7948  0.97

> <Gold.Chemscore.Hbond.Weighted>
-3.2307

> <Gold.Chemscore.Metal.Weighted>
-0.0000

> <Gold.Chemscore.Lipo.Weighted>
-8.1856

> <Gold.Chemscore.Internal_Hbond.Weighted>
0.0000

> <Gold.Chemscore.DEClash.Weighted>
0.0208

> <Gold.Chemscore.DEInternal.Weighted>
0.7693

> <Gold.Chemscore.Rot.Weighted>
5.2098

> <Gold.Chemscore.Internal.Correction.Weighted>
   9.000000E+99

> <Gold.Protein.RotatedTorsions>
[ 6907 6896 6895 6894 ] final    3.93 input  -60.11 | X-H torsion
[ 7974 7965 7964 7962 ] final  -15.06 input  175.53 | X-H torsion
[ 8008 7997 7996 7995 ] final -165.76 input   59.86 | X-H torsion
[ 10167 10162 10161 10158 ] final  -87.08 input  -65.29 | X-H torsion
[ 10718 10713 10712 10709 ] final -131.33 input   66.30 | X-H torsion
[ 10763 10752 10751 10750 ] final  118.72 input  -60.55 | X-H torsion
[ 11005 11000 10999 10996 ] final   58.35 input  -57.11 | X-H torsion

> <Gold.Protein.ActiveResidues>
 VAL166  LYS551  ARG553  GLY616  TRP617  ASP618  TYR619  PRO620  LYS621  CYS622 
 ASP623  PHE694  ASN695  SER759  ASP760  ASP761  ALA762  ILE779  LEU786  VAL792 
 PHE793  MET794  SER795  GLU796  ALA797  LYS798  CYS799  TRP800  GLU811  SER814 

> <Gold.Protein.RotatedAtoms>
  151.6331  135.1021  160.0125 H   0  0  0  0  0  0  0  0  0  0  0  0  # atno 6907 bound_to 6896
  152.4095  133.6937  159.6394 H   0  0  0  0  0  0  0  0  0  0  0  0  # atno 6908 bound_to 6896
  150.7987  133.8566  159.3261 H   0  0  0  0  0  0  0  0  0  0  0  0  # atno 6909 bound_to 6896
  146.2048  140.3438  142.8411 H   0  0  0  0  0  0  0  0  0  0  0  0  # atno 7974 bound_to 7965
  155.8543  140.0968  157.1654 H   0  0  0  0  0  0  0  0  0  0  0  0  # atno 8008 bound_to 7997
  154.3987  140.1377  156.3945 H   0  0  0  0  0  0  0  0  0  0  0  0  # atno 8009 bound_to 7997
  155.7926  140.3455  155.5360 H   0  0  0  0  0  0  0  0  0  0  0  0  # atno 8010 bound_to 7997
  140.3879  143.2718  151.9301 H   0  0  0  0  0  0  0  0  0  0  0  0  # atno 10167 bound_to 10162
  156.2233  130.6992  151.0779 H   0  0  0  0  0  0  0  0  0  0  0  0  # atno 10718 bound_to 10713
  153.5720  135.3500  155.2841 H   0  0  0  0  0  0  0  0  0  0  0  0  # atno 10763 bound_to 10752
  154.8680  135.4161  154.2714 H   0  0  0  0  0  0  0  0  0  0  0  0  # atno 10764 bound_to 10752
  153.3482  135.7053  153.6880 H   0  0  0  0  0  0  0  0  0  0  0  0  # atno 10765 bound_to 10752
  140.0384  134.5909  155.9414 H   0  0  0  0  0  0  0  0  0  0  0  0  # atno 11005 bound_to 11000
  144.8767  140.7346  143.6012 LP  0  0  0  0  0  0  0  0  0  0  0  0  # atno 17320 bound_to 7965
  145.3357  139.1746  143.4513 LP  0  0  0  0  0  0  0  0  0  0  0  0  # atno 17321 bound_to 7965
  139.4791  144.5756  151.8018 LP  0  0  0  0  0  0  0  0  0  0  0  0  # atno 17342 bound_to 10162
  140.4870  144.1366  150.5943 LP  0  0  0  0  0  0  0  0  0  0  0  0  # atno 17343 bound_to 10162
  157.7098  131.0739  150.6540 LP  0  0  0  0  0  0  0  0  0  0  0  0  # atno 17370 bound_to 10713
  156.6604  130.4510  149.5689 LP  0  0  0  0  0  0  0  0  0  0  0  0  # atno 17371 bound_to 10713
  141.1870  133.6558  156.5262 LP  0  0  0  0  0  0  0  0  0  0  0  0  # atno 17394 bound_to 11000
  140.4109  134.7273  157.4835 LP  0  0  0  0  0  0  0  0  0  0  0  0  # atno 17395 bound_to 11000

$$$$
