AV-unprocessed.smi:2743|AV-procd|sdf|10566|dock8
  -GOLD-   2272015 23D 1   1.00000     0.00000
 Structure written by MMmdl.
 38 39  0  0  0  0  0  0  0  0  1 V2000
  149.6408  133.3041  157.7859 N   0  0  0  0  0  0  0  0  0  0  0  0
  148.9586  134.2003  158.0525 C   0  0  0  0  0  0  0  0  0  0  0  0
  148.0917  135.3422  158.3890 C   0  0  0  0  0  0  0  0  0  0  0  0
  148.8414  136.5073  159.0354 C   0  0  0  0  0  0  0  0  0  0  0  0
  148.5824  136.8590  160.1862 O   0  0  0  0  0  0  0  0  0  0  0  0
  149.7669  137.1060  158.2702 N   0  0  0  0  0  0  0  0  0  0  0  0
  150.5905  138.2496  158.6626 C   0  0  0  0  0  0  0  0  0  0  0  0
  151.6476  138.6428  157.5871 C   0  0  0  0  0  0  0  0  0  0  0  0
  150.9090  139.2300  156.3630 C   0  0  0  0  0  0  0  0  0  0  0  0
  150.4644  140.5740  156.3817 C   0  0  0  0  0  0  0  0  0  0  0  0
  149.8038  141.0999  155.2542 C   0  0  0  0  0  0  0  0  0  0  0  0
  149.5712  140.3887  154.1329 N   0  0  0  0  0  0  0  0  0  0  0  0
  150.0002  139.1107  154.1035 C   0  0  0  0  0  0  0  0  0  0  0  0
  150.6687  138.4901  155.1776 C   0  0  0  0  0  0  0  0  0  0  0  0
  152.6828  139.6544  158.1729 C   0  0  0  0  0  0  0  0  0  0  0  0
  153.5960  139.0690  159.2652 C   0  0  0  0  0  0  0  0  0  0  0  0
  154.3435  137.8326  158.7554 C   0  0  0  0  0  0  0  0  0  0  0  0
  153.3603  136.7866  158.2194 C   0  0  0  0  0  0  0  0  0  0  0  0
  152.4395  137.3797  157.1366 C   0  0  0  0  0  0  0  0  0  0  0  0
  147.6032  135.6759  157.4730 H   0  0  0  0  0  0  0  0  0  0  0  0
  147.3156  134.9900  159.0689 H   0  0  0  0  0  0  0  0  0  0  0  0
  149.9074  136.7503  157.3357 H   0  0  0  0  0  0  0  0  0  0  0  0
  149.9629  139.0949  158.9429 H   0  0  0  0  0  0  0  0  0  0  0  0
  151.0976  137.9615  159.5837 H   0  0  0  0  0  0  0  0  0  0  0  0
  150.6268  141.2066  157.2411 H   0  0  0  0  0  0  0  0  0  0  0  0
  149.4576  142.1228  155.2533 H   0  0  0  0  0  0  0  0  0  0  0  0
  149.8086  138.5637  153.1922 H   0  0  0  0  0  0  0  0  0  0  0  0
  150.9829  137.4649  155.0607 H   0  0  0  0  0  0  0  0  0  0  0  0
  153.3335  140.0058  157.3708 H   0  0  0  0  0  0  0  0  0  0  0  0
  152.1843  140.5398  158.5675 H   0  0  0  0  0  0  0  0  0  0  0  0
  154.3147  139.8245  159.5838 H   0  0  0  0  0  0  0  0  0  0  0  0
  153.0171  138.8143  160.1525 H   0  0  0  0  0  0  0  0  0  0  0  0
  155.0360  138.1235  157.9642 H   0  0  0  0  0  0  0  0  0  0  0  0
  154.9481  137.4041  159.5550 H   0  0  0  0  0  0  0  0  0  0  0  0
  153.9145  135.9436  157.8061 H   0  0  0  0  0  0  0  0  0  0  0  0
  152.7668  136.3824  159.0394 H   0  0  0  0  0  0  0  0  0  0  0  0
  151.7631  136.5958  156.7971 H   0  0  0  0  0  0  0  0  0  0  0  0
  153.0545  137.6368  156.2726 H   0  0  0  0  0  0  0  0  0  0  0  0
  1  2  3  0  0  0  0
  2  3  1  0  0  0  0
  3  4  1  0  0  0  0
  3 20  1  0  0  0  0
  3 21  1  0  0  0  0
  4  5  2  0  0  0  0
  4  6  1  0  0  0  0
  6  7  1  0  0  0  0
  6 22  1  0  0  0  0
  7  8  1  0  0  0  0
  7 23  1  0  0  0  0
  7 24  1  0  0  0  0
  8 19  1  0  0  0  0
  8  9  1  0  0  0  0
  8 15  1  0  0  0  0
  9 14  1  0  0  0  0
  9 10  2  0  0  0  0
 10 11  1  0  0  0  0
 10 25  1  0  0  0  0
 11 12  2  0  0  0  0
 11 26  1  0  0  0  0
 12 13  1  0  0  0  0
 13 14  2  0  0  0  0
 13 27  1  0  0  0  0
 14 28  1  0  0  0  0
 15 16  1  0  0  0  0
 15 29  1  0  0  0  0
 15 30  1  0  0  0  0
 16 17  1  0  0  0  0
 16 31  1  0  0  0  0
 16 32  1  0  0  0  0
 17 18  1  0  0  0  0
 17 33  1  0  0  0  0
 17 34  1  0  0  0  0
 18 19  1  0  0  0  0
 18 35  1  0  0  0  0
 18 36  1  0  0  0  0
 19 37  1  0  0  0  0
 19 38  1  0  0  0  0
M  END
> <s_m_source_file>
AV-unprocessed.smi

> <i_m_source_file_index>
2743

> <i_lp_mmshare_version>
43012

> <i_f3d_flags>
0

> <s_epik_input>
TiNDW0NIMl1DKD1PKVtOSF1bQ0gyXUMxKFtDSDJdW0NIMl1bQ0gyXVtDSDJdW0NIMl0xKWMyW2NIXVtjSF1uW2NIXVtjSF0y

> <s_epik_cmdline>
J2VwaWtfcHl0aG9uJywgJy1waCcsICc3LjAnLCAnLXRuJywgJzgnLCAnLW1hJywgJzIwMCcsICctbWV0YWxfYmluZGluZycsICctaW1hZScsICc8aW5maWxlLm1hZT4nLCAnLW9tYWUnLCAnPG91dGZpbGUubWFlPic=

> <r_epik_Ionization_Penalty>
0.0541122

> <r_epik_Ionization_Penalty_Charging>
0

> <r_epik_Ionization_Penalty_Neutral>
0.0541122

> <r_epik_State_Penalty>
0.0465294

> <r_epik_Charging_Adjusted_Penalty>
0.0465294

> <i_epik_Tot_Q>
0

> <i_epik_Tot_abs_Q>
0

> <r_epik_Metal_State_Penalty>
0.042555

> <b_epik_Metal_Only>
0

> <s_lp_Force_Field>
OPLS_2005

> <r_lp_Energy>
19.5313

> <b_lp_Chiralities_Consistent>
1

> <s_lp_Variant>
AV-unprocessed.smi:2743-1

> <Gold.Version>
5.8.1

> <Gold.Id.Protein>
6NUR|6NUR_protein|mol2

> <Gold.PLP.Fitness>
32.9844

> <Gold.PLP.PLP>
-22.5292

> <Gold.PLP.part.hbond>
-4.0000

> <Gold.PLP.part.metal>
0.0000

> <Gold.PLP.part.buried>
-2.8590

> <Gold.PLP.part.nonpolar>
-17.4447

> <Gold.PLP.part.repulsive>
1.2292

> <Gold.PLP.ligand.clash>
0.0000

> <Gold.PLP.ligand.torsion>
0.8591

> <Gold.PLP.Chemscore.Hbond>
2.1857

> <Gold.PLP.Chemscore.CHOScore>
1.8652

> <Gold.PLP.Chemscore.Metal>
0.0000

> <Gold.Chemscore.Hbonds>
donor molecule, donor type, donor heavy atom, donor atom, acceptor molecule, acceptor atom, score
      P1  H  6896  6907       L1     1  0.55
      P1  H  6931  6943       L1     5  0.35
      P1  H  7989  7998       L1    12  0.04
      L1  C    11    26       P1  8028  0.61
      L1  C    13    27       P1  7948  0.39
      L1  C    13    27       P1  7957  0.68

> <Gold.PLP.Chemscore.Internal.Correction>
0.0207

> <Gold.Rescore>
     Score         DG    S(hbond)    S(metal)    S(lipo)     H(rot)  DE(clash)    DE(int)     intcor
     14.48     -15.67       2.23        0.00      62.61       1.79       0.21       0.99       ----

> <Gold.Chemscore.Fitness>
14.4760

> <Gold.Chemscore.DG>
-15.6682

> <Gold.Chemscore.ZeroCoef>
-5.4800

> <Gold.Chemscore.Hbond>
2.2287

> <Gold.Chemscore.Metal>
0.0000

> <Gold.Chemscore.Lipo>
62.6121

> <Gold.Chemscore.Internal_Hbond>
0.0000

> <Gold.Chemscore.DEClash>
0.2061

> <Gold.Chemscore.DEInternal>
0.9860

> <Gold.Chemscore.Rot>
1.7895

> <Gold.Chemscore.Internal.Correction>
   9.000000E+99

> <Gold.Chemscore.Hbonds>
donor molecule, donor type, donor heavy atom, donor atom, acceptor molecule, acceptor atom, score
      P1  H  6896  6907       L1     1  0.03
      P1  H  6931  6943       L1     5  0.34

> <Gold.Chemscore.Hbond.Weighted>
-7.4437

> <Gold.Chemscore.Metal.Weighted>
-0.0000

> <Gold.Chemscore.Lipo.Weighted>
-7.3256

> <Gold.Chemscore.Internal_Hbond.Weighted>
0.0000

> <Gold.Chemscore.DEClash.Weighted>
0.2061

> <Gold.Chemscore.DEInternal.Weighted>
0.9860

> <Gold.Chemscore.Rot.Weighted>
4.5812

> <Gold.Chemscore.Internal.Correction.Weighted>
   9.000000E+99

> <Gold.Protein.RotatedTorsions>
[ 6907 6896 6895 6894 ] final -124.77 input  -60.11 | X-H torsion
[ 7974 7965 7964 7962 ] final  108.10 input  175.53 | X-H torsion
[ 8008 7997 7996 7995 ] final -122.23 input   59.86 | X-H torsion
[ 10167 10162 10161 10158 ] final -163.90 input  -65.29 | X-H torsion
[ 10718 10713 10712 10709 ] final   79.12 input   66.30 | X-H torsion
[ 10763 10752 10751 10750 ] final  -29.45 input  -60.55 | X-H torsion
[ 11005 11000 10999 10996 ] final   87.98 input  -57.11 | X-H torsion

> <Gold.Protein.ActiveResidues>
 VAL166  LYS551  ARG553  GLY616  TRP617  ASP618  TYR619  PRO620  LYS621  CYS622 
 ASP623  PHE694  ASN695  SER759  ASP760  ASP761  ALA762  ILE779  LEU786  VAL792 
 PHE793  MET794  SER795  GLU796  ALA797  LYS798  CYS799  TRP800  GLU811  SER814 

> <Gold.Protein.RotatedAtoms>
  150.8801  133.7384  159.2934 H   0  0  0  0  0  0  0  0  0  0  0  0  # atno 6907 bound_to 6896
  151.4968  135.1058  159.9828 H   0  0  0  0  0  0  0  0  0  0  0  0  # atno 6908 bound_to 6896
  152.4754  133.8080  159.7043 H   0  0  0  0  0  0  0  0  0  0  0  0  # atno 6909 bound_to 6896
  145.2851  139.2619  143.3895 H   0  0  0  0  0  0  0  0  0  0  0  0  # atno 7974 bound_to 7965
  155.1608  140.0406  157.2842 H   0  0  0  0  0  0  0  0  0  0  0  0  # atno 8008 bound_to 7997
  154.6337  140.2530  155.7376 H   0  0  0  0  0  0  0  0  0  0  0  0  # atno 8009 bound_to 7997
  156.2498  140.2870  156.0700 H   0  0  0  0  0  0  0  0  0  0  0  0  # atno 8010 bound_to 7997
  139.6288  144.0480  152.1998 H   0  0  0  0  0  0  0  0  0  0  0  0  # atno 10167 bound_to 10162
  157.6767  130.9899  150.1886 H   0  0  0  0  0  0  0  0  0  0  0  0  # atno 10718 bound_to 10713
  153.7648  135.6916  153.4918 H   0  0  0  0  0  0  0  0  0  0  0  0  # atno 10763 bound_to 10752
  153.1914  135.4470  155.0152 H   0  0  0  0  0  0  0  0  0  0  0  0  # atno 10764 bound_to 10752
  154.8140  135.3390  154.7161 H   0  0  0  0  0  0  0  0  0  0  0  0  # atno 10765 bound_to 10752
  139.8907  134.8458  156.2936 H   0  0  0  0  0  0  0  0  0  0  0  0  # atno 11005 bound_to 11000
  146.3204  140.3328  142.8641 LP  0  0  0  0  0  0  0  0  0  0  0  0  # atno 17320 bound_to 7965
  144.9220  140.7879  143.5742 LP  0  0  0  0  0  0  0  0  0  0  0  0  # atno 17321 bound_to 7965
  140.0140  144.6202  150.7622 LP  0  0  0  0  0  0  0  0  0  0  0  0  # atno 17342 bound_to 10162
  140.7427  143.2835  151.3530 LP  0  0  0  0  0  0  0  0  0  0  0  0  # atno 17343 bound_to 10162
  156.2602  130.3710  149.8138 LP  0  0  0  0  0  0  0  0  0  0  0  0  # atno 17370 bound_to 10713
  156.5886  130.8496  151.3402 LP  0  0  0  0  0  0  0  0  0  0  0  0  # atno 17371 bound_to 10713
  140.9960  133.7180  156.0886 LP  0  0  0  0  0  0  0  0  0  0  0  0  # atno 17394 bound_to 11000
  140.7562  134.3990  157.5533 LP  0  0  0  0  0  0  0  0  0  0  0  0  # atno 17395 bound_to 11000

$$$$
