AV-unprocessed.smi:1396|AV-procd|sdf|5675|dock7
  -GOLD-   22720 5303D 1   1.00000     0.00000
 Structure written by MMmdl.
 47 48  0  0  0  0  0  0  0  0  2 V2000
  145.8982  132.1754  150.4892 C   0  0  0  0  0  0  0  0  0  0  0  0
  145.6139  133.5978  150.3744 N   0  0  0  0  0  0  0  0  0  0  0  0
  145.4361  134.4174  151.4200 C   0  0  0  0  0  0  0  0  0  0  0  0
  145.5098  134.0433  152.5911 O   0  0  0  0  0  0  0  0  0  0  0  0
  145.1439  135.8851  151.0903 C   0  0  0  0  0  0  0  0  0  0  0  0
  146.1238  136.8236  151.6961 N   0  3  2  0  0  0  0  0  0  0  0  0
  146.0340  136.8837  153.1800 C   0  0  0  0  0  0  0  0  0  0  0  0
  147.1536  137.7581  153.7682 C   0  0  0  0  0  0  0  0  0  0  0  0
  147.1193  139.1746  153.1734 C   0  0  1  0  0  0  0  0  0  0  0  0
  148.2362  139.9595  153.6919 N   0  0  0  0  0  0  0  0  0  0  0  0
  148.5711  140.0625  154.9863 C   0  0  0  0  0  0  0  0  0  0  0  0
  147.9543  139.4989  155.8896 O   0  0  0  0  0  0  0  0  0  0  0  0
  149.6580  140.8375  155.1464 N   0  0  0  0  0  0  0  0  0  0  0  0
  150.3294  141.1966  156.3477 C   0  0  0  0  0  0  0  0  0  0  0  0
  150.5102  140.1953  157.3234 C   0  0  0  0  0  0  0  0  0  0  0  0
  151.1827  140.5116  158.5188 C   0  0  0  0  0  0  0  0  0  0  0  0
  151.6613  141.8239  158.7011 C   0  0  0  0  0  0  0  0  0  0  0  0
  152.3144  142.1313  159.8771 O   0  0  0  0  0  0  0  0  0  0  0  0
  152.7648  143.4675  160.0709 C   0  0  0  0  0  0  0  0  0  0  0  0
  151.5056  142.7917  157.7643 N   0  0  0  0  0  0  0  0  0  0  0  0
  150.8597  142.4820  156.6197 C   0  0  0  0  0  0  0  0  0  0  0  0
  147.1730  139.0881  151.6372 C   0  0  0  0  0  0  0  0  0  0  0  0
  146.0591  138.1787  151.0908 C   0  0  0  0  0  0  0  0  0  0  0  0
  145.9810  131.7312  149.4972 H   0  0  0  0  0  0  0  0  0  0  0  0
  145.0998  131.6611  151.0261 H   0  0  0  0  0  0  0  0  0  0  0  0
  146.8377  132.0078  151.0175 H   0  0  0  0  0  0  0  0  0  0  0  0
  145.5474  133.9800  149.4419 H   0  0  0  0  0  0  0  0  0  0  0  0
  145.1759  135.9721  150.0034 H   0  0  0  0  0  0  0  0  0  0  0  0
  144.1313  136.1536  151.3966 H   0  0  0  0  0  0  0  0  0  0  0  0
  145.0592  137.2784  153.4708 H   0  0  0  0  0  0  0  0  0  0  0  0
  146.1060  135.8817  153.6040 H   0  0  0  0  0  0  0  0  0  0  0  0
  147.0513  137.8053  154.8530 H   0  0  0  0  0  0  0  0  0  0  0  0
  148.1197  137.2919  153.5677 H   0  0  0  0  0  0  0  0  0  0  0  0
  146.1804  139.6464  153.4709 H   0  0  0  0  0  0  0  0  0  0  0  0
  148.8002  140.4531  153.0152 H   0  0  0  0  0  0  0  0  0  0  0  0
  150.0883  141.1750  154.2979 H   0  0  0  0  0  0  0  0  0  0  0  0
  150.1351  139.1951  157.1626 H   0  0  0  0  0  0  0  0  0  0  0  0
  151.3286  139.7618  159.2823 H   0  0  0  0  0  0  0  0  0  0  0  0
  153.2480  143.5475  161.0445 H   0  0  0  0  0  0  0  0  0  0  0  0
  151.9348  144.1755  160.0551 H   0  0  0  0  0  0  0  0  0  0  0  0
  153.4958  143.7555  159.3141 H   0  0  0  0  0  0  0  0  0  0  0  0
  150.7937  143.2936  155.9129 H   0  0  0  0  0  0  0  0  0  0  0  0
  147.0795  140.0830  151.2000 H   0  0  0  0  0  0  0  0  0  0  0  0
  148.1435  138.7021  151.3210 H   0  0  0  0  0  0  0  0  0  0  0  0
  146.1595  138.1032  150.0075 H   0  0  0  0  0  0  0  0  0  0  0  0
  145.0813  138.6207  151.2892 H   0  0  0  0  0  0  0  0  0  0  0  0
  147.0372  136.4547  151.4710 H   0  0  0  0  0  0  0  0  0  0  0  0
  1  2  1  0  0  0  0
  1 24  1  0  0  0  0
  1 25  1  0  0  0  0
  1 26  1  0  0  0  0
  2  3  1  0  0  0  0
  2 27  1  0  0  0  0
  3  4  2  0  0  0  0
  3  5  1  0  0  0  0
  5  6  1  0  0  0  0
  5 28  1  0  0  0  0
  5 29  1  0  0  0  0
  6 23  1  0  0  0  0
  6  7  1  0  0  0  0
  6 47  1  0  0  0  0
  7  8  1  0  0  0  0
  7 30  1  0  0  0  0
  7 31  1  0  0  0  0
  8  9  1  0  0  0  0
  8 32  1  0  0  0  0
  8 33  1  0  0  0  0
  9 10  1  0  0  0  0
  9 22  1  0  0  0  0
  9 34  1  0  0  0  0
 10 11  1  0  0  0  0
 10 35  1  0  0  0  0
 11 12  2  0  0  0  0
 11 13  1  0  0  0  0
 13 14  1  0  0  0  0
 13 36  1  0  0  0  0
 14 21  1  0  0  0  0
 14 15  2  0  0  0  0
 15 16  1  0  0  0  0
 15 37  1  0  0  0  0
 16 17  2  0  0  0  0
 16 38  1  0  0  0  0
 17 18  1  0  0  0  0
 17 20  1  0  0  0  0
 18 19  1  0  0  0  0
 19 39  1  0  0  0  0
 19 40  1  0  0  0  0
 19 41  1  0  0  0  0
 20 21  2  0  0  0  0
 21 42  1  0  0  0  0
 22 23  1  0  0  0  0
 22 43  1  0  0  0  0
 22 44  1  0  0  0  0
 23 45  1  0  0  0  0
 23 46  1  0  0  0  0
M  CHG  1   6   1
M  END
> <s_m_source_file>
AV-unprocessed.smi

> <i_m_source_file_index>
1396

> <i_lp_mmshare_version>
43012

> <i_f3d_flags>
0

> <s_epik_input>
W0NIM11bTkhdQyg9TylbQ0gyXU4xW0NIMl1bQ0gyXVtDSF0oW0NIMl1bQ0gyXTEpW05IXUMoPU8pW05IXWMyW2NIXVtjSF1jKE9bQ0gzXSluW2NIXTI=

> <s_epik_cmdline>
J2VwaWtfcHl0aG9uJywgJy1waCcsICc3LjAnLCAnLXRuJywgJzgnLCAnLW1hJywgJzIwMCcsICctbWV0YWxfYmluZGluZycsICctaW1hZScsICc8aW5maWxlLm1hZT4nLCAnLW9tYWUnLCAnPG91dGZpbGUubWFlPic=

> <r_lp_tautomer_probability>
1

> <r_epik_Ionization_Penalty>
0.838943

> <r_epik_Ionization_Penalty_Charging>
0.838844

> <r_epik_Ionization_Penalty_Neutral>
9.87511e-05

> <r_epik_State_Penalty>
0.8734

> <r_epik_Charging_Adjusted_Penalty>
1.71224

> <i_epik_Tot_Q>
1

> <i_epik_Tot_abs_Q>
1

> <r_epik_Metal_State_Penalty>
0.877926

> <b_epik_Metal_Only>
0

> <s_lp_Force_Field>
OPLS_2005

> <r_lp_Energy>
18.1916

> <b_lp_Chiralities_Consistent>
1

> <s_lp_Variant>
AV-unprocessed.smi:1396-2

> <Gold.Version>
5.8.1

> <Gold.Id.Protein>
6NUR|6NUR_protein|mol2

> <Gold.PLP.Fitness>
44.4875

> <Gold.PLP.PLP>
-31.6981

> <Gold.PLP.part.hbond>
-3.0000

> <Gold.PLP.part.metal>
0.0000

> <Gold.PLP.part.buried>
4.5515

> <Gold.PLP.part.nonpolar>
-33.9997

> <Gold.PLP.part.repulsive>
0.5061

> <Gold.PLP.ligand.clash>
0.0000

> <Gold.PLP.ligand.torsion>
0.5014

> <Gold.PLP.Chemscore.Hbond>
3.5903

> <Gold.PLP.Chemscore.CHOScore>
1.0000

> <Gold.PLP.Chemscore.Metal>
0.0000

> <Gold.Chemscore.Hbonds>
donor molecule, donor type, donor heavy atom, donor atom, acceptor molecule, acceptor atom, score
      L1  H     2    27       P1  7921  0.89
      L1  H     6    47       P1  7948  2.00
      L1  H    10    35       P1  7957  0.68
      L1  C    21    42       P1  8028  0.91

> <Gold.PLP.Chemscore.Internal.Correction>
0.0212

> <Gold.Rescore>
     Score         DG    S(hbond)    S(metal)    S(lipo)     H(rot)  DE(clash)    DE(int)     intcor
     12.88     -19.95       2.64        0.00      91.87       2.00       4.68       2.40       ----

> <Gold.Chemscore.Fitness>
12.8787

> <Gold.Chemscore.DG>
-19.9527

> <Gold.Chemscore.ZeroCoef>
-5.4800

> <Gold.Chemscore.Hbond>
2.6449

> <Gold.Chemscore.Metal>
0.0000

> <Gold.Chemscore.Lipo>
91.8737

> <Gold.Chemscore.Internal_Hbond>
0.0000

> <Gold.Chemscore.DEClash>
4.6770

> <Gold.Chemscore.DEInternal>
2.3970

> <Gold.Chemscore.Rot>
1.9963

> <Gold.Chemscore.Internal.Correction>
   9.000000E+99

> <Gold.Chemscore.Hbonds>
donor molecule, donor type, donor heavy atom, donor atom, acceptor molecule, acceptor atom, score
      L1  H     2    27       P1  7921  0.57
      L1  H     6    47       P1  7948  0.96
      L1  H    10    35       P1  7957  0.65

> <Gold.Chemscore.Hbond.Weighted>
-8.8340

> <Gold.Chemscore.Metal.Weighted>
-0.0000

> <Gold.Chemscore.Lipo.Weighted>
-10.7492

> <Gold.Chemscore.Internal_Hbond.Weighted>
0.0000

> <Gold.Chemscore.DEClash.Weighted>
4.6770

> <Gold.Chemscore.DEInternal.Weighted>
2.3970

> <Gold.Chemscore.Rot.Weighted>
5.1105

> <Gold.Chemscore.Internal.Correction.Weighted>
   9.000000E+99

> <Gold.Protein.RotatedTorsions>
[ 6907 6896 6895 6894 ] final   -5.27 input  -60.11 | X-H torsion
[ 7974 7965 7964 7962 ] final   15.07 input  175.53 | X-H torsion
[ 8008 7997 7996 7995 ] final  -21.90 input   59.86 | X-H torsion
[ 10167 10162 10161 10158 ] final  110.85 input  -65.29 | X-H torsion
[ 10718 10713 10712 10709 ] final -162.85 input   66.30 | X-H torsion
[ 10763 10752 10751 10750 ] final -172.97 input  -60.55 | X-H torsion
[ 11005 11000 10999 10996 ] final  -35.72 input  -57.11 | X-H torsion

> <Gold.Protein.ActiveResidues>
 VAL166  LYS551  ARG553  GLY616  TRP617  ASP618  TYR619  PRO620  LYS621  CYS622 
 ASP623  PHE694  ASN695  SER759  ASP760  ASP761  ALA762  ILE779  LEU786  VAL792 
 PHE793  MET794  SER795  GLU796  ALA797  LYS798  CYS799  TRP800  GLU811  SER814 

> <Gold.Protein.RotatedAtoms>
  151.4843  135.1054  159.9785 H   0  0  0  0  0  0  0  0  0  0  0  0  # atno 6907 bound_to 6896
  152.4767  133.8151  159.7034 H   0  0  0  0  0  0  0  0  0  0  0  0  # atno 6908 bound_to 6896
  150.8809  133.7311  159.2958 H   0  0  0  0  0  0  0  0  0  0  0  0  # atno 6909 bound_to 6896
  146.2288  139.8948  142.8549 H   0  0  0  0  0  0  0  0  0  0  0  0  # atno 7974 bound_to 7965
  154.4677  140.2022  156.0075 H   0  0  0  0  0  0  0  0  0  0  0  0  # atno 8008 bound_to 7997
  156.0956  140.3251  155.7844 H   0  0  0  0  0  0  0  0  0  0  0  0  # atno 8009 bound_to 7997
  155.4884  140.0544  157.2948 H   0  0  0  0  0  0  0  0  0  0  0  0  # atno 8010 bound_to 7997
  139.6657  144.7127  151.1782 H   0  0  0  0  0  0  0  0  0  0  0  0  # atno 10167 bound_to 10162
  156.6163  130.8871  151.2948 H   0  0  0  0  0  0  0  0  0  0  0  0  # atno 10718 bound_to 10713
  154.6132  135.2867  155.0409 H   0  0  0  0  0  0  0  0  0  0  0  0  # atno 10763 bound_to 10752
  154.1631  135.6485  153.4994 H   0  0  0  0  0  0  0  0  0  0  0  0  # atno 10764 bound_to 10752
  153.0204  135.5383  154.6894 H   0  0  0  0  0  0  0  0  0  0  0  0  # atno 10765 bound_to 10752
  140.9818  133.7052  156.1698 H   0  0  0  0  0  0  0  0  0  0  0  0  # atno 11005 bound_to 11000
  145.2381  140.9999  143.3951 LP  0  0  0  0  0  0  0  0  0  0  0  0  # atno 17320 bound_to 7965
  144.9474  139.4120  143.6419 LP  0  0  0  0  0  0  0  0  0  0  0  0  # atno 17321 bound_to 7965
  140.7598  143.5924  150.8783 LP  0  0  0  0  0  0  0  0  0  0  0  0  # atno 17342 bound_to 10162
  139.9585  143.6191  152.3009 LP  0  0  0  0  0  0  0  0  0  0  0  0  # atno 17343 bound_to 10162
  157.7240  130.9597  150.1557 LP  0  0  0  0  0  0  0  0  0  0  0  0  # atno 17370 bound_to 10713
  156.2348  130.3685  149.8403 LP  0  0  0  0  0  0  0  0  0  0  0  0  # atno 17371 bound_to 10713
  140.7174  134.4395  157.5577 LP  0  0  0  0  0  0  0  0  0  0  0  0  # atno 17394 bound_to 11000
  139.8953  134.8685  156.2135 LP  0  0  0  0  0  0  0  0  0  0  0  0  # atno 17395 bound_to 11000

$$$$
