AV-unprocessed.smi:1047|AV-procd|sdf|4560|dock9
  -GOLD-   22720 3 03D 1   1.00000     0.00000
 Structure written by MMmdl.
 57 59  0  0  0  0  0  0  0  0  3 V2000
  145.0990  133.0684  151.2254 C   0  0  0  0  0  0  0  0  0  0  0  0
  146.0518  134.0108  151.9749 C   0  0  0  0  0  0  0  0  0  0  0  0
  145.5137  135.3891  152.0949 N   0  3  1  0  0  0  0  0  0  0  0  0
  144.2263  135.4283  152.8290 C   0  0  0  0  0  0  0  0  0  0  0  0
  143.6731  136.8624  152.8733 C   0  0  0  0  0  0  0  0  0  0  0  0
  144.6297  137.7274  153.4738 O   0  0  0  0  0  0  0  0  0  0  0  0
  145.8532  137.7673  152.7471 C   0  0  1  0  0  0  0  0  0  0  0  0
  146.7771  138.8172  153.3888 C   0  0  0  0  0  0  0  0  0  0  0  0
  148.2055  138.5094  153.1681 N   0  3  0  0  0  0  0  0  0  0  0  0
  149.0120  138.4521  154.4036 C   0  0  0  0  0  0  0  0  0  0  0  0
  149.5517  139.8426  154.7756 C   0  0  2  0  0  0  0  0  0  0  0  0
  149.5928  140.6395  153.6071 O   0  0  0  0  0  0  0  0  0  0  0  0
  150.9607  139.7722  155.3952 C   0  0  0  0  0  0  0  0  0  0  0  0
  151.2138  140.8665  156.3156 N   0  0  0  0  0  0  0  0  0  0  0  0
  150.8275  142.1500  156.1811 C   0  0  0  0  0  0  0  0  0  0  0  0
  151.1618  142.9911  157.1555 N   0  0  0  0  0  0  0  0  0  0  0  0
  151.8524  142.1584  158.0192 C   0  0  0  0  0  0  0  0  0  0  0  0
  152.4736  142.4324  159.2574 C   0  0  0  0  0  0  0  0  0  0  0  0
  153.1334  141.4120  159.9787 C   0  0  0  0  0  0  0  0  0  0  0  0
  153.7875  141.7510  161.3065 C   0  0  0  0  0  0  0  0  0  0  0  0
  153.1800  140.0922  159.4617 C   0  0  0  0  0  0  0  0  0  0  0  0
  153.8876  138.9810  160.2171 C   0  0  0  0  0  0  0  0  0  0  0  0
  152.5620  139.8006  158.2277 C   0  0  0  0  0  0  0  0  0  0  0  0
  151.9072  140.8242  157.5203 C   0  0  0  0  0  0  0  0  0  0  0  0
  146.4736  136.3548  152.6868 C   0  0  0  0  0  0  0  0  0  0  0  0
  145.4809  132.0472  151.2410 H   0  0  0  0  0  0  0  0  0  0  0  0
  144.9812  133.3509  150.1798 H   0  0  0  0  0  0  0  0  0  0  0  0
  144.1110  133.0568  151.6866 H   0  0  0  0  0  0  0  0  0  0  0  0
  146.2067  133.6023  152.9748 H   0  0  0  0  0  0  0  0  0  0  0  0
  147.0309  134.0295  151.4937 H   0  0  0  0  0  0  0  0  0  0  0  0
  143.5019  134.7728  152.3438 H   0  0  0  0  0  0  0  0  0  0  0  0
  144.3705  135.0514  153.8430 H   0  0  0  0  0  0  0  0  0  0  0  0
  143.4216  137.2157  151.8719 H   0  0  0  0  0  0  0  0  0  0  0  0
  142.7550  136.8920  153.4602 H   0  0  0  0  0  0  0  0  0  0  0  0
  145.6381  138.0980  151.7292 H   0  0  0  0  0  0  0  0  0  0  0  0
  146.5537  139.8055  152.9848 H   0  0  0  0  0  0  0  0  0  0  0  0
  146.5873  138.8628  154.4622 H   0  0  0  0  0  0  0  0  0  0  0  0
  148.2730  137.6106  152.7109 H   0  0  0  0  0  0  0  0  0  0  0  0
  148.3815  138.0725  155.2088 H   0  0  0  0  0  0  0  0  0  0  0  0
  149.8332  137.7444  154.2797 H   0  0  0  0  0  0  0  0  0  0  0  0
  148.8733  140.3151  155.4875 H   0  0  0  0  0  0  0  0  0  0  0  0
  149.4413  140.0822  152.8581 H   0  0  0  0  0  0  0  0  0  0  0  0
  151.0889  138.8356  155.9395 H   0  0  0  0  0  0  0  0  0  0  0  0
  151.7232  139.7869  154.6147 H   0  0  0  0  0  0  0  0  0  0  0  0
  150.2629  142.4850  155.3231 H   0  0  0  0  0  0  0  0  0  0  0  0
  152.4390  143.4381  159.6502 H   0  0  0  0  0  0  0  0  0  0  0  0
  154.8592  141.5552  161.2647 H   0  0  0  0  0  0  0  0  0  0  0  0
  153.3563  141.1523  162.1090 H   0  0  0  0  0  0  0  0  0  0  0  0
  153.6492  142.8019  161.5628 H   0  0  0  0  0  0  0  0  0  0  0  0
  153.8436  138.0378  159.6719 H   0  0  0  0  0  0  0  0  0  0  0  0
  153.4241  138.8267  161.1919 H   0  0  0  0  0  0  0  0  0  0  0  0
  154.9382  139.2302  160.3687 H   0  0  0  0  0  0  0  0  0  0  0  0
  152.5897  138.7997  157.8235 H   0  0  0  0  0  0  0  0  0  0  0  0
  146.7513  136.0154  153.6857 H   0  0  0  0  0  0  0  0  0  0  0  0
  147.3877  136.3902  152.0950 H   0  0  0  0  0  0  0  0  0  0  0  0
  148.6027  139.2107  152.5598 H   0  0  0  0  0  0  0  0  0  0  0  0
  145.3142  135.7030  151.1554 H   0  0  0  0  0  0  0  0  0  0  0  0
  1  2  1  0  0  0  0
  1 26  1  0  0  0  0
  1 27  1  0  0  0  0
  1 28  1  0  0  0  0
  2  3  1  0  0  0  0
  2 29  1  0  0  0  0
  2 30  1  0  0  0  0
  3 25  1  0  0  0  0
  3  4  1  0  0  0  0
  3 57  1  0  0  0  0
  4  5  1  0  0  0  0
  4 31  1  0  0  0  0
  4 32  1  0  0  0  0
  5  6  1  0  0  0  0
  5 33  1  0  0  0  0
  5 34  1  0  0  0  0
  6  7  1  0  0  0  0
  7  8  1  0  0  0  0
  7 25  1  0  0  0  0
  7 35  1  0  0  0  0
  8  9  1  0  0  0  0
  8 36  1  0  0  0  0
  8 37  1  0  0  0  0
  9 10  1  0  0  0  0
  9 38  1  0  0  0  0
  9 56  1  0  0  0  0
 10 11  1  0  0  0  0
 10 39  1  0  0  0  0
 10 40  1  0  0  0  0
 11 12  1  0  0  0  0
 11 13  1  0  0  0  0
 11 41  1  0  0  0  0
 12 42  1  0  0  0  0
 13 14  1  0  0  0  0
 13 43  1  0  0  0  0
 13 44  1  0  0  0  0
 14 24  1  0  0  0  0
 14 15  1  0  0  0  0
 15 16  2  0  0  0  0
 15 45  1  0  0  0  0
 16 17  1  0  0  0  0
 17 24  2  0  0  0  0
 17 18  1  0  0  0  0
 18 19  2  0  0  0  0
 18 46  1  0  0  0  0
 19 20  1  0  0  0  0
 19 21  1  0  0  0  0
 20 47  1  0  0  0  0
 20 48  1  0  0  0  0
 20 49  1  0  0  0  0
 21 22  1  0  0  0  0
 21 23  2  0  0  0  0
 22 50  1  0  0  0  0
 22 51  1  0  0  0  0
 22 52  1  0  0  0  0
 23 24  1  0  0  0  0
 23 53  1  0  0  0  0
 25 54  1  0  0  0  0
 25 55  1  0  0  0  0
M  CHG  1   3   1
M  CHG  1   9   1
M  END
> <s_m_source_file>
AV-unprocessed.smi

> <i_m_source_file_index>
1047

> <i_lp_mmshare_version>
43012

> <i_f3d_flags>
0

> <s_epik_input>
W0NIM11bQ0gyXU4xW0NIMl1bQ0gyXU9bQ0BIXShbQ0gyXTEpW0NIMl1bTkhdW0NIMl1bQ0BIXShbT0hdKVtDSDJdbihbY0hdbjIpYyhjMjMpW2NIXWMoW0NIM10pYyhbY0hdMylbQ0gzXQ==

> <s_epik_cmdline>
J2VwaWtfcHl0aG9uJywgJy1waCcsICc3LjAnLCAnLXRuJywgJzgnLCAnLW1hJywgJzIwMCcsICctbWV0YWxfYmluZGluZycsICctaW1hZScsICc8aW5maWxlLm1hZT4nLCAnLW9tYWUnLCAnPG91dGZpbGUubWFlPic=

> <r_epik_Ionization_Penalty>
0.528991

> <r_epik_Ionization_Penalty_Charging>
0.438567

> <r_epik_Ionization_Penalty_Neutral>
0.0904237

> <r_epik_State_Penalty>
0.533036

> <r_epik_Charging_Adjusted_Penalty>
0.971603

> <i_epik_Tot_Q>
2

> <i_epik_Tot_abs_Q>
2

> <r_epik_Metal_State_Penalty>
0.448985

> <b_epik_Metal_Only>
0

> <s_lp_Force_Field>
OPLS_2005

> <r_lp_Energy>
32.0872

> <b_lp_Chiralities_Consistent>
1

> <s_lp_Variant>
AV-unprocessed.smi:1047-1

> <Gold.Version>
5.8.1

> <Gold.Id.Protein>
6NUR|6NUR_protein|mol2

> <Gold.PLP.Fitness>
57.2424

> <Gold.PLP.PLP>
-44.9237

> <Gold.PLP.part.hbond>
-4.9599

> <Gold.PLP.part.metal>
0.0000

> <Gold.PLP.part.buried>
-1.6531

> <Gold.PLP.part.nonpolar>
-40.1305

> <Gold.PLP.part.repulsive>
1.3739

> <Gold.PLP.ligand.clash>
0.0000

> <Gold.PLP.ligand.torsion>
2.0239

> <Gold.PLP.Chemscore.Hbond>
4.6863

> <Gold.PLP.Chemscore.CHOScore>
0.7269

> <Gold.PLP.Chemscore.Metal>
0.0000

> <Gold.Chemscore.Hbonds>
donor molecule, donor type, donor heavy atom, donor atom, acceptor molecule, acceptor atom, score
      L1  H     9    38       P1  7948  2.00
      L1  H     9    56       P1  7957  1.00
      L1  H    12    42       P1  7957  0.83
      P1  H  7989  7998       L1    12  0.43
      P1  H  8011  8017       L1    12  0.36
      L1  C    15    45       P1  8028  0.52

> <Gold.PLP.Chemscore.Internal.Correction>
0.1272

> <Gold.Rescore>
     Score         DG    S(hbond)    S(metal)    S(lipo)     H(rot)  DE(clash)    DE(int)     intcor
     18.54     -22.40       2.92        0.00     120.13       2.70       1.95       1.91       ----

> <Gold.Chemscore.Fitness>
18.5358

> <Gold.Chemscore.DG>
-22.3957

> <Gold.Chemscore.ZeroCoef>
-5.4800

> <Gold.Chemscore.Hbond>
2.9248

> <Gold.Chemscore.Metal>
0.0000

> <Gold.Chemscore.Lipo>
120.1294

> <Gold.Chemscore.Internal_Hbond>
0.0000

> <Gold.Chemscore.DEClash>
1.9454

> <Gold.Chemscore.DEInternal>
1.9145

> <Gold.Chemscore.Rot>
2.6985

> <Gold.Chemscore.Internal.Correction>
   9.000000E+99

> <Gold.Chemscore.Hbonds>
donor molecule, donor type, donor heavy atom, donor atom, acceptor molecule, acceptor atom, score
      L1  H     9    38       P1  7948  0.99
      L1  H     9    56       P1  7957  1.00
      L1  H    12    42       P1  7957  0.83
      P1  H  7989  7998       L1    12  0.02
      P1  H  8011  8017       L1    12  0.03

> <Gold.Chemscore.Hbond.Weighted>
-9.7687

> <Gold.Chemscore.Metal.Weighted>
-0.0000

> <Gold.Chemscore.Lipo.Weighted>
-14.0551

> <Gold.Chemscore.Internal_Hbond.Weighted>
0.0000

> <Gold.Chemscore.DEClash.Weighted>
1.9454

> <Gold.Chemscore.DEInternal.Weighted>
1.9145

> <Gold.Chemscore.Rot.Weighted>
6.9081

> <Gold.Chemscore.Internal.Correction.Weighted>
   9.000000E+99

> <Gold.Protein.RotatedTorsions>
[ 6907 6896 6895 6894 ] final   89.41 input  -60.11 | X-H torsion
[ 7974 7965 7964 7962 ] final  128.90 input  175.53 | X-H torsion
[ 8008 7997 7996 7995 ] final   13.49 input   59.86 | X-H torsion
[ 10167 10162 10161 10158 ] final  151.86 input  -65.29 | X-H torsion
[ 10718 10713 10712 10709 ] final -124.34 input   66.30 | X-H torsion
[ 10763 10752 10751 10750 ] final   54.37 input  -60.55 | X-H torsion
[ 11005 11000 10999 10996 ] final   46.40 input  -57.11 | X-H torsion

> <Gold.Protein.ActiveResidues>
 VAL166  LYS551  ARG553  GLY616  TRP617  ASP618  TYR619  PRO620  LYS621  CYS622 
 ASP623  PHE694  ASN695  SER759  ASP760  ASP761  ALA762  ILE779  LEU786  VAL792 
 PHE793  MET794  SER795  GLU796  ALA797  LYS798  CYS799  TRP800  GLU811  SER814 

> <Gold.Protein.RotatedAtoms>
  152.5436  134.1971  159.8697 H   0  0  0  0  0  0  0  0  0  0  0  0  # atno 6907 bound_to 6896
  151.1963  133.4630  159.2603 H   0  0  0  0  0  0  0  0  0  0  0  0  # atno 6908 bound_to 6896
  151.1034  134.9997  159.8515 H   0  0  0  0  0  0  0  0  0  0  0  0  # atno 6909 bound_to 6896
  145.0345  139.4017  143.5133 H   0  0  0  0  0  0  0  0  0  0  0  0  # atno 7974 bound_to 7965
  154.8352  140.2906  155.5695 H   0  0  0  0  0  0  0  0  0  0  0  0  # atno 8008 bound_to 7997
  156.3008  140.2524  156.3216 H   0  0  0  0  0  0  0  0  0  0  0  0  # atno 8009 bound_to 7997
  154.9186  140.0386  157.1975 H   0  0  0  0  0  0  0  0  0  0  0  0  # atno 8010 bound_to 7997
  139.4837  144.5405  151.7572 H   0  0  0  0  0  0  0  0  0  0  0  0  # atno 10167 bound_to 10162
  156.1580  130.6581  151.0009 H   0  0  0  0  0  0  0  0  0  0  0  0  # atno 10718 bound_to 10713
  152.9804  135.5747  154.4893 H   0  0  0  0  0  0  0  0  0  0  0  0  # atno 10763 bound_to 10752
  154.4430  135.2776  155.1836 H   0  0  0  0  0  0  0  0  0  0  0  0  # atno 10764 bound_to 10752
  154.3496  135.6212  153.5690 H   0  0  0  0  0  0  0  0  0  0  0  0  # atno 10765 bound_to 10752
  140.1372  134.4630  155.8476 H   0  0  0  0  0  0  0  0  0  0  0  0  # atno 11005 bound_to 11000
  146.3502  139.9912  142.8685 LP  0  0  0  0  0  0  0  0  0  0  0  0  # atno 17320 bound_to 7965
  145.1728  140.9729  143.4312 LP  0  0  0  0  0  0  0  0  0  0  0  0  # atno 17321 bound_to 7965
  140.4944  144.1262  150.5957 LP  0  0  0  0  0  0  0  0  0  0  0  0  # atno 17342 bound_to 10162
  140.4134  143.2646  151.9805 LP  0  0  0  0  0  0  0  0  0  0  0  0  # atno 17343 bound_to 10162
  157.6710  131.0861  150.7612 LP  0  0  0  0  0  0  0  0  0  0  0  0  # atno 17370 bound_to 10713
  156.7677  130.4818  149.5424 LP  0  0  0  0  0  0  0  0  0  0  0  0  # atno 17371 bound_to 10713
  141.2180  133.6819  156.7179 LP  0  0  0  0  0  0  0  0  0  0  0  0  # atno 17394 bound_to 11000
  140.2767  134.8349  157.3897 LP  0  0  0  0  0  0  0  0  0  0  0  0  # atno 17395 bound_to 11000

$$$$
