AV-unprocessed.smi:83|AV-procd|sdf|802|dock7
  -GOLD-   2262017193D 1   1.00000     0.00000
 Structure written by MMmdl.
 56 59  0  0  0  0  0  0  0  0  1 V2000
  143.5391  139.5174  156.1591 C   0  0  0  0  0  0  0  0  0  0  0  0
  144.9885  139.3280  156.6091 C   0  0  0  0  0  0  0  0  0  0  0  0
  145.3612  139.8571  157.6558 O   0  0  0  0  0  0  0  0  0  0  0  0
  145.8096  138.5846  155.8398 N   0  0  0  0  0  0  0  0  0  0  0  0
  145.3969  137.9391  154.5965 C   0  0  0  0  0  0  0  0  0  0  0  0
  146.6225  137.1551  154.1167 C   0  0  0  0  0  0  0  0  0  0  0  0
  147.8111  137.8923  154.7325 C   0  0  1  0  0  0  0  0  0  0  0  0
  148.2633  139.0444  153.8017 C   0  0  0  0  0  0  0  0  0  0  0  0
  148.8600  140.1842  154.5003 N   0  0  0  0  0  0  0  0  0  0  0  0
  148.3200  141.5074  154.1918 C   0  0  0  0  0  0  0  0  0  0  0  0
  150.0829  140.0957  155.1069 C   0  0  0  0  0  0  0  0  0  0  0  0
  151.0750  139.4346  154.4491 N   0  0  0  0  0  0  0  0  0  0  0  0
  152.2800  139.2699  154.9991 C   0  0  0  0  0  0  0  0  0  0  0  0
  152.7126  139.6774  156.1910 N   0  0  0  0  0  0  0  0  0  0  0  0
  151.7396  140.3560  156.8600 C   0  0  0  0  0  0  0  0  0  0  0  0
  150.4151  140.6193  156.3980 C   0  0  0  0  0  0  0  0  0  0  0  0
  149.7372  141.3508  157.3692 N   0  0  0  0  0  0  0  0  0  0  0  0
  150.5895  141.4852  158.3458 C   0  0  0  0  0  0  0  0  0  0  0  0
  151.8174  140.9118  158.1248 N   0  0  0  0  0  0  0  0  0  0  0  0
  152.9407  140.9006  159.0448 C   0  0  0  0  0  0  0  0  0  0  0  0
  152.6984  141.8034  160.2702 C   0  0  1  0  0  0  0  0  0  0  0  0
  153.6132  141.4555  161.2917 O   0  0  0  0  0  0  0  0  0  0  0  0
  152.8704  143.2968  159.9389 C   0  0  2  0  0  0  0  0  0  0  0  0
  152.0667  144.2424  160.8338 C   0  0  0  0  0  0  0  0  0  0  0  0
  151.8630  145.4752  159.9668 C   0  0  0  0  0  0  0  0  0  0  0  0
  152.2180  145.0013  158.5552 C   0  0  0  0  0  0  0  0  0  0  0  0
  152.3340  143.5893  158.6577 O   0  0  0  0  0  0  0  0  0  0  0  0
  147.2304  138.3455  156.0815 C   0  0  0  0  0  0  0  0  0  0  0  0
  143.4978  139.9429  155.1562 H   0  0  0  0  0  0  0  0  0  0  0  0
  143.0102  140.1912  156.8338 H   0  0  0  0  0  0  0  0  0  0  0  0
  143.0101  138.5650  156.1565 H   0  0  0  0  0  0  0  0  0  0  0  0
  144.5361  137.2855  154.7434 H   0  0  0  0  0  0  0  0  0  0  0  0
  145.1223  138.7055  153.8700 H   0  0  0  0  0  0  0  0  0  0  0  0
  146.5806  136.1403  154.5149 H   0  0  0  0  0  0  0  0  0  0  0  0
  146.6745  137.0770  153.0302 H   0  0  0  0  0  0  0  0  0  0  0  0
  148.6481  137.2099  154.8861 H   0  0  0  0  0  0  0  0  0  0  0  0
  149.0283  138.6528  153.1304 H   0  0  0  0  0  0  0  0  0  0  0  0
  147.4643  139.3395  153.1307 H   0  0  0  0  0  0  0  0  0  0  0  0
  148.2801  142.1290  155.0869 H   0  0  0  0  0  0  0  0  0  0  0  0
  147.3064  141.4353  153.7966 H   0  0  0  0  0  0  0  0  0  0  0  0
  148.9347  142.0099  153.4442 H   0  0  0  0  0  0  0  0  0  0  0  0
  152.9976  138.7281  154.4007 H   0  0  0  0  0  0  0  0  0  0  0  0
  150.3416  142.0029  159.2612 H   0  0  0  0  0  0  0  0  0  0  0  0
  153.1374  139.8729  159.3533 H   0  0  0  0  0  0  0  0  0  0  0  0
  153.8237  141.2344  158.4986 H   0  0  0  0  0  0  0  0  0  0  0  0
  151.6895  141.6333  160.6488 H   0  0  0  0  0  0  0  0  0  0  0  0
  154.4556  141.2912  160.8961 H   0  0  0  0  0  0  0  0  0  0  0  0
  153.9263  143.5751  159.9533 H   0  0  0  0  0  0  0  0  0  0  0  0
  151.0977  143.8024  161.0735 H   0  0  0  0  0  0  0  0  0  0  0  0
  152.5750  144.4647  161.7725 H   0  0  0  0  0  0  0  0  0  0  0  0
  150.8324  145.8265  160.0277 H   0  0  0  0  0  0  0  0  0  0  0  0
  152.5156  146.2933  160.2733 H   0  0  0  0  0  0  0  0  0  0  0  0
  151.4660  145.2807  157.8172 H   0  0  0  0  0  0  0  0  0  0  0  0
  153.1761  145.4178  158.2405 H   0  0  0  0  0  0  0  0  0  0  0  0
  147.7500  139.2030  156.5014 H   0  0  0  0  0  0  0  0  0  0  0  0
  147.3150  137.5386  156.8109 H   0  0  0  0  0  0  0  0  0  0  0  0
  1  2  1  0  0  0  0
  1 29  1  0  0  0  0
  1 30  1  0  0  0  0
  1 31  1  0  0  0  0
  2  3  2  0  0  0  0
  2  4  1  0  0  0  0
  4 28  1  0  0  0  0
  4  5  1  0  0  0  0
  5  6  1  0  0  0  0
  5 32  1  0  0  0  0
  5 33  1  0  0  0  0
  6  7  1  0  0  0  0
  6 34  1  0  0  0  0
  6 35  1  0  0  0  0
  7  8  1  0  0  0  0
  7 28  1  0  0  0  0
  7 36  1  0  0  0  0
  8  9  1  0  0  0  0
  8 37  1  0  0  0  0
  8 38  1  0  0  0  0
  9 10  1  0  0  0  0
  9 11  1  0  0  0  0
 10 39  1  0  0  0  0
 10 40  1  0  0  0  0
 10 41  1  0  0  0  0
 11 16  1  0  0  0  0
 11 12  2  0  0  0  0
 12 13  1  0  0  0  0
 13 14  2  0  0  0  0
 13 42  1  0  0  0  0
 14 15  1  0  0  0  0
 15 19  1  0  0  0  0
 15 16  2  0  0  0  0
 16 17  1  0  0  0  0
 17 18  2  0  0  0  0
 18 19  1  0  0  0  0
 18 43  1  0  0  0  0
 19 20  1  0  0  0  0
 20 21  1  0  0  0  0
 20 44  1  0  0  0  0
 20 45  1  0  0  0  0
 21 22  1  0  0  0  0
 21 23  1  0  0  0  0
 21 46  1  0  0  0  0
 22 47  1  0  0  0  0
 23 27  1  0  0  0  0
 23 24  1  0  0  0  0
 23 48  1  0  0  0  0
 24 25  1  0  0  0  0
 24 49  1  0  0  0  0
 24 50  1  0  0  0  0
 25 26  1  0  0  0  0
 25 51  1  0  0  0  0
 25 52  1  0  0  0  0
 26 27  1  0  0  0  0
 26 53  1  0  0  0  0
 26 54  1  0  0  0  0
 28 55  1  0  0  0  0
 28 56  1  0  0  0  0
M  END
> <s_m_source_file>
AV-unprocessed.smi

> <i_m_source_file_index>
83

> <i_lp_mmshare_version>
43012

> <i_f3d_flags>
0

> <s_epik_input>
W0NIM11DKD1PKU4xW0NIMl1bQ0gyXVtDQEhdKFtDSDJdMSlbQ0gyXU4oW0NIM10pYyhuW2NIXW4yKWMoYzIzKW5bY0hdbjNbQ0gyXVtDQEhdKFtPSF0pW0NAQEhdNFtDSDJdW0NIMl1bQ0gyXU80

> <s_epik_cmdline>
J2VwaWtfcHl0aG9uJywgJy1waCcsICc3LjAnLCAnLXRuJywgJzgnLCAnLW1hJywgJzIwMCcsICctbWV0YWxfYmluZGluZycsICctaW1hZScsICc8aW5maWxlLm1hZT4nLCAnLW9tYWUnLCAnPG91dGZpbGUubWFlPic=

> <r_lp_tautomer_probability>
1

> <r_epik_Ionization_Penalty>
0.00109752

> <r_epik_Ionization_Penalty_Charging>
0

> <r_epik_Ionization_Penalty_Neutral>
0.00109752

> <r_epik_State_Penalty>
0.000634803

> <r_epik_Charging_Adjusted_Penalty>
0.000634803

> <i_epik_Tot_Q>
0

> <i_epik_Tot_abs_Q>
0

> <r_epik_Metal_State_Penalty>
-0

> <b_epik_Metal_Only>
0

> <s_lp_Force_Field>
OPLS_2005

> <r_lp_Energy>
53.2546

> <b_lp_Chiralities_Consistent>
1

> <s_lp_Variant>
AV-unprocessed.smi:83-3

> <Gold.Version>
5.8.1

> <Gold.Id.Protein>
6NUR|6NUR_protein|mol2

> <Gold.PLP.Fitness>
50.0189

> <Gold.PLP.PLP>
-48.9550

> <Gold.PLP.part.hbond>
-2.0000

> <Gold.PLP.part.metal>
0.0000

> <Gold.PLP.part.buried>
-5.7626

> <Gold.PLP.part.nonpolar>
-41.1342

> <Gold.PLP.part.repulsive>
0.1944

> <Gold.PLP.ligand.clash>
0.0000

> <Gold.PLP.ligand.torsion>
2.0166

> <Gold.PLP.Chemscore.Hbond>
1.5525

> <Gold.PLP.Chemscore.CHOScore>
0.0000

> <Gold.PLP.Chemscore.Metal>
0.0000

> <Gold.Chemscore.Hbonds>
donor molecule, donor type, donor heavy atom, donor atom, acceptor molecule, acceptor atom, score
      P1  H  7989  7998       L1    12  0.48
      P1  H  7997  8009       L1    14  1.00

> <Gold.PLP.Chemscore.Internal.Correction>
0.4395

> <Gold.Rescore>
     Score         DG    S(hbond)    S(metal)    S(lipo)     H(rot)  DE(clash)    DE(int)     intcor
      8.31     -12.91       0.95        0.00      93.66       2.62       0.04       4.56       ----

> <Gold.Chemscore.Fitness>
8.3144

> <Gold.Chemscore.DG>
-12.9103

> <Gold.Chemscore.ZeroCoef>
-5.4800

> <Gold.Chemscore.Hbond>
0.9483

> <Gold.Chemscore.Metal>
0.0000

> <Gold.Chemscore.Lipo>
93.6576

> <Gold.Chemscore.Internal_Hbond>
0.0000

> <Gold.Chemscore.DEClash>
0.0379

> <Gold.Chemscore.DEInternal>
4.5580

> <Gold.Chemscore.Rot>
2.6152

> <Gold.Chemscore.Internal.Correction>
   9.000000E+99

> <Gold.Chemscore.Hbonds>
donor molecule, donor type, donor heavy atom, donor atom, acceptor molecule, acceptor atom, score
      P1  H  7989  7998       L1    12  0.01
      P1  H  7997  8009       L1    14  0.92

> <Gold.Chemscore.Hbond.Weighted>
-3.1673

> <Gold.Chemscore.Metal.Weighted>
-0.0000

> <Gold.Chemscore.Lipo.Weighted>
-10.9579

> <Gold.Chemscore.Internal_Hbond.Weighted>
0.0000

> <Gold.Chemscore.DEClash.Weighted>
0.0379

> <Gold.Chemscore.DEInternal.Weighted>
4.5580

> <Gold.Chemscore.Rot.Weighted>
6.6949

> <Gold.Chemscore.Internal.Correction.Weighted>
   9.000000E+99

> <Gold.Protein.RotatedTorsions>
[ 6907 6896 6895 6894 ] final  105.17 input  -60.11 | X-H torsion
[ 7974 7965 7964 7962 ] final  147.67 input  175.53 | X-H torsion
[ 8008 7997 7996 7995 ] final -159.34 input   59.86 | X-H torsion
[ 10167 10162 10161 10158 ] final -170.52 input  -65.29 | X-H torsion
[ 10718 10713 10712 10709 ] final  115.93 input   66.30 | X-H torsion
[ 10763 10752 10751 10750 ] final  178.45 input  -60.55 | X-H torsion
[ 11005 11000 10999 10996 ] final  177.67 input  -57.11 | X-H torsion

> <Gold.Protein.ActiveResidues>
 VAL166  LYS551  ARG553  GLY616  TRP617  ASP618  TYR619  PRO620  LYS621  CYS622 
 ASP623  PHE694  ASN695  SER759  ASP760  ASP761  ALA762  ILE779  LEU786  VAL792 
 PHE793  MET794  SER795  GLU796  ALA797  LYS798  CYS799  TRP800  GLU811  SER814 

> <Gold.Protein.RotatedAtoms>
  152.5240  133.9568  159.7697 H   0  0  0  0  0  0  0  0  0  0  0  0  # atno 6907 bound_to 6896
  150.9867  133.6182  159.2721 H   0  0  0  0  0  0  0  0  0  0  0  0  # atno 6908 bound_to 6896
  151.3340  135.0854  159.9401 H   0  0  0  0  0  0  0  0  0  0  0  0  # atno 6909 bound_to 6896
  144.8573  139.6058  143.5946 H   0  0  0  0  0  0  0  0  0  0  0  0  # atno 7974 bound_to 7965
  155.7611  140.0839  157.2154 H   0  0  0  0  0  0  0  0  0  0  0  0  # atno 8008 bound_to 7997
  154.4003  140.1542  156.2890 H   0  0  0  0  0  0  0  0  0  0  0  0  # atno 8009 bound_to 7997
  155.8838  140.3419  155.5909 H   0  0  0  0  0  0  0  0  0  0  0  0  # atno 8010 bound_to 7997
  139.5857  144.1324  152.1572 H   0  0  0  0  0  0  0  0  0  0  0  0  # atno 10167 bound_to 10162
  157.6192  131.1019  150.7400 H   0  0  0  0  0  0  0  0  0  0  0  0  # atno 10718 bound_to 10713
  154.5077  135.2787  155.1368 H   0  0  0  0  0  0  0  0  0  0  0  0  # atno 10763 bound_to 10752
  154.2976  135.6254  153.5415 H   0  0  0  0  0  0  0  0  0  0  0  0  # atno 10764 bound_to 10752
  152.9913  135.5689  154.5535 H   0  0  0  0  0  0  0  0  0  0  0  0  # atno 10765 bound_to 10752
  140.3866  134.6899  157.4483 H   0  0  0  0  0  0  0  0  0  0  0  0  # atno 11005 bound_to 11000
  146.2833  139.6935  142.9213 LP  0  0  0  0  0  0  0  0  0  0  0  0  # atno 17320 bound_to 7965
  145.4381  141.0420  143.2873 LP  0  0  0  0  0  0  0  0  0  0  0  0  # atno 17321 bound_to 7965
  140.0887  144.5639  150.7070 LP  0  0  0  0  0  0  0  0  0  0  0  0  # atno 17342 bound_to 10162
  140.7129  143.2520  151.4525 LP  0  0  0  0  0  0  0  0  0  0  0  0  # atno 17343 bound_to 10162
  156.7761  130.4844  149.5409 LP  0  0  0  0  0  0  0  0  0  0  0  0  # atno 17370 bound_to 10713
  156.1329  130.6190  151.0359 LP  0  0  0  0  0  0  0  0  0  0  0  0  # atno 17371 bound_to 10713
  140.0438  134.6229  155.8947 LP  0  0  0  0  0  0  0  0  0  0  0  0  # atno 17394 bound_to 11000
  141.1905  133.6569  156.5416 LP  0  0  0  0  0  0  0  0  0  0  0  0  # atno 17395 bound_to 11000

$$$$
