AV-unprocessed.smi:568|AV-procd|sdf|2958|dock2
  -GOLD-   2262023463D 1   1.00000     0.00000
 Structure written by MMmdl.
 35 36  0  0  0  0  0  0  0  0  1 V2000
  146.6820  143.9123  152.8729 C   0  0  0  0  0  0  0  0  0  0  0  0
  146.6991  143.1331  154.1567 C   0  0  0  0  0  0  0  0  0  0  0  0
  145.6841  143.2509  154.9960 N   0  0  0  0  0  0  0  0  0  0  0  0
  145.9831  142.4188  156.0787 O   0  0  0  0  0  0  0  0  0  0  0  0
  147.1813  141.8259  155.8471 C   0  0  0  0  0  0  0  0  0  0  0  0
  147.6724  140.8911  156.9000 C   0  0  0  0  0  0  0  0  0  0  0  0
  147.6927  142.2357  154.6458 C   0  0  0  0  0  0  0  0  0  0  0  0
  148.9893  141.8382  153.9882 C   0  0  0  0  0  0  0  0  0  0  0  0
  150.0016  141.4296  155.0586 C   0  0  0  0  0  0  0  0  0  0  0  0
  150.5765  140.3443  154.9780 O   0  0  0  0  0  0  0  0  0  0  0  0
  150.2049  142.3044  156.0562 N   0  0  0  0  0  0  0  0  0  0  0  0
  151.1082  142.1083  157.1858 C   0  0  0  0  0  0  0  0  0  0  0  0
  151.7663  143.4268  157.6348 C   0  0  1  0  0  0  0  0  0  0  0  0
  150.7854  144.4467  158.1762 C   0  0  0  0  0  0  0  0  0  0  0  0
  151.7008  145.3977  158.9426 C   0  0  0  0  0  0  0  0  0  0  0  0
  152.8037  144.6108  159.3838 O   0  0  0  0  0  0  0  0  0  0  0  0
  152.7299  143.3067  158.8167 C   0  0  0  0  0  0  0  0  0  0  0  0
  147.4212  143.5351  152.1665 H   0  0  0  0  0  0  0  0  0  0  0  0
  146.9021  144.9647  153.0522 H   0  0  0  0  0  0  0  0  0  0  0  0
  145.7073  143.8529  152.3882 H   0  0  0  0  0  0  0  0  0  0  0  0
  148.5269  140.3143  156.5467 H   0  0  0  0  0  0  0  0  0  0  0  0
  146.8899  140.1891  157.1888 H   0  0  0  0  0  0  0  0  0  0  0  0
  147.9800  141.4403  157.7899 H   0  0  0  0  0  0  0  0  0  0  0  0
  148.8468  141.0029  153.3020 H   0  0  0  0  0  0  0  0  0  0  0  0
  149.3977  142.6512  153.3867 H   0  0  0  0  0  0  0  0  0  0  0  0
  149.6860  143.1703  156.0359 H   0  0  0  0  0  0  0  0  0  0  0  0
  150.5204  141.6989  158.0076 H   0  0  0  0  0  0  0  0  0  0  0  0
  151.8655  141.3579  156.9520 H   0  0  0  0  0  0  0  0  0  0  0  0
  152.2979  143.8731  156.7924 H   0  0  0  0  0  0  0  0  0  0  0  0
  150.2122  144.9480  157.3959 H   0  0  0  0  0  0  0  0  0  0  0  0
  150.0834  143.9718  158.8634 H   0  0  0  0  0  0  0  0  0  0  0  0
  152.0764  146.1804  158.2823 H   0  0  0  0  0  0  0  0  0  0  0  0
  151.1932  145.8765  159.7802 H   0  0  0  0  0  0  0  0  0  0  0  0
  152.3324  142.6263  159.5714 H   0  0  0  0  0  0  0  0  0  0  0  0
  153.7155  142.9460  158.5212 H   0  0  0  0  0  0  0  0  0  0  0  0
  1  2  1  0  0  0  0
  1 18  1  0  0  0  0
  1 19  1  0  0  0  0
  1 20  1  0  0  0  0
  2  7  1  0  0  0  0
  2  3  2  0  0  0  0
  3  4  1  0  0  0  0
  4  5  1  0  0  0  0
  5  6  1  0  0  0  0
  5  7  2  0  0  0  0
  6 21  1  0  0  0  0
  6 22  1  0  0  0  0
  6 23  1  0  0  0  0
  7  8  1  0  0  0  0
  8  9  1  0  0  0  0
  8 24  1  0  0  0  0
  8 25  1  0  0  0  0
  9 10  2  0  0  0  0
  9 11  1  0  0  0  0
 11 12  1  0  0  0  0
 11 26  1  0  0  0  0
 12 13  1  0  0  0  0
 12 27  1  0  0  0  0
 12 28  1  0  0  0  0
 13 17  1  0  0  0  0
 13 14  1  0  0  0  0
 13 29  1  0  0  0  0
 14 15  1  0  0  0  0
 14 30  1  0  0  0  0
 14 31  1  0  0  0  0
 15 16  1  0  0  0  0
 15 32  1  0  0  0  0
 15 33  1  0  0  0  0
 16 17  1  0  0  0  0
 17 34  1  0  0  0  0
 17 35  1  0  0  0  0
M  END
> <s_m_source_file>
AV-unprocessed.smi

> <i_m_source_file_index>
568

> <i_lp_mmshare_version>
43012

> <i_f3d_flags>
0

> <s_epik_input>
W0NIM11jMW5vYyhbQ0gzXSljMVtDSDJdQyg9TylbTkhdW0NIMl1bQ0BASF0yW0NIMl1bQ0gyXU9bQ0gyXTI=

> <s_epik_cmdline>
J2VwaWtfcHl0aG9uJywgJy1waCcsICc3LjAnLCAnLXRuJywgJzgnLCAnLW1hJywgJzIwMCcsICctbWV0YWxfYmluZGluZycsICctaW1hZScsICc8aW5maWxlLm1hZT4nLCAnLW9tYWUnLCAnPG91dGZpbGUubWFlPic=

> <r_lp_tautomer_probability>
1

> <r_epik_Ionization_Penalty>
2.07075e-08

> <r_epik_Ionization_Penalty_Charging>
0

> <r_epik_Ionization_Penalty_Neutral>
2.07075e-08

> <r_epik_State_Penalty>
-0

> <r_epik_Charging_Adjusted_Penalty>
0

> <i_epik_Tot_Q>
0

> <i_epik_Tot_abs_Q>
0

> <r_epik_Metal_State_Penalty>
-0

> <b_epik_Metal_Only>
0

> <s_lp_Force_Field>
OPLS_2005

> <r_lp_Energy>
12.1953

> <b_lp_Chiralities_Consistent>
1

> <s_lp_Variant>
AV-unprocessed.smi:568-2

> <Gold.Version>
5.8.1

> <Gold.Id.Protein>
6NUR|6NUR_protein|mol2

> <Gold.PLP.Fitness>
38.6679

> <Gold.PLP.PLP>
-34.5018

> <Gold.PLP.part.hbond>
-2.0000

> <Gold.PLP.part.metal>
0.0000

> <Gold.PLP.part.buried>
-4.6427

> <Gold.PLP.part.nonpolar>
-28.2795

> <Gold.PLP.part.repulsive>
0.3291

> <Gold.PLP.ligand.clash>
0.0000

> <Gold.PLP.ligand.torsion>
0.6005

> <Gold.PLP.Chemscore.Hbond>
1.7840

> <Gold.PLP.Chemscore.CHOScore>
0.0000

> <Gold.PLP.Chemscore.Metal>
0.0000

> <Gold.Chemscore.Hbonds>
donor molecule, donor type, donor heavy atom, donor atom, acceptor molecule, acceptor atom, score
      L1  H    11    26       P1  8028  1.00
      P1  H  7989  7998       L1    10  0.65

> <Gold.PLP.Chemscore.Internal.Correction>
0.0150

> <Gold.Rescore>
     Score         DG    S(hbond)    S(metal)    S(lipo)     H(rot)  DE(clash)    DE(int)     intcor
     14.68     -15.97       1.50        0.00      80.98       1.56       0.30       0.99       ----

> <Gold.Chemscore.Fitness>
14.6843

> <Gold.Chemscore.DG>
-15.9698

> <Gold.Chemscore.ZeroCoef>
-5.4800

> <Gold.Chemscore.Hbond>
1.4960

> <Gold.Chemscore.Metal>
0.0000

> <Gold.Chemscore.Lipo>
80.9762

> <Gold.Chemscore.Internal_Hbond>
0.0000

> <Gold.Chemscore.DEClash>
0.2979

> <Gold.Chemscore.DEInternal>
0.9876

> <Gold.Chemscore.Rot>
1.5551

> <Gold.Chemscore.Internal.Correction>
   9.000000E+99

> <Gold.Chemscore.Hbonds>
donor molecule, donor type, donor heavy atom, donor atom, acceptor molecule, acceptor atom, score
      L1  H    11    26       P1  8028  1.00
      P1  H  7989  7998       L1    10  0.06

> <Gold.Chemscore.Hbond.Weighted>
-4.9965

> <Gold.Chemscore.Metal.Weighted>
-0.0000

> <Gold.Chemscore.Lipo.Weighted>
-9.4742

> <Gold.Chemscore.Internal_Hbond.Weighted>
0.0000

> <Gold.Chemscore.DEClash.Weighted>
0.2979

> <Gold.Chemscore.DEInternal.Weighted>
0.9876

> <Gold.Chemscore.Rot.Weighted>
3.9809

> <Gold.Chemscore.Internal.Correction.Weighted>
   9.000000E+99

> <Gold.Protein.RotatedTorsions>
[ 6907 6896 6895 6894 ] final   35.55 input  -60.11 | X-H torsion
[ 7974 7965 7964 7962 ] final -167.40 input  175.53 | X-H torsion
[ 8008 7997 7996 7995 ] final -134.17 input   59.86 | X-H torsion
[ 10167 10162 10161 10158 ] final   13.63 input  -65.29 | X-H torsion
[ 10718 10713 10712 10709 ] final   78.38 input   66.30 | X-H torsion
[ 10763 10752 10751 10750 ] final   65.44 input  -60.55 | X-H torsion
[ 11005 11000 10999 10996 ] final   76.89 input  -57.11 | X-H torsion

> <Gold.Protein.ActiveResidues>
 VAL166  LYS551  ARG553  GLY616  TRP617  ASP618  TYR619  PRO620  LYS621  CYS622 
 ASP623  PHE694  ASN695  SER759  ASP760  ASP761  ALA762  ILE779  LEU786  VAL792 
 PHE793  MET794  SER795  GLU796  ALA797  LYS798  CYS799  TRP800  GLU811  SER814 

> <Gold.Protein.RotatedAtoms>
  152.1177  134.9228  160.0564 H   0  0  0  0  0  0  0  0  0  0  0  0  # atno 6907 bound_to 6896
  152.0381  133.3961  159.4333 H   0  0  0  0  0  0  0  0  0  0  0  0  # atno 6908 bound_to 6896
  150.6847  134.3366  159.4893 H   0  0  0  0  0  0  0  0  0  0  0  0  # atno 6909 bound_to 6896
  144.7224  140.2525  143.6276 H   0  0  0  0  0  0  0  0  0  0  0  0  # atno 7974 bound_to 7965
  155.3576  140.0481  157.3046 H   0  0  0  0  0  0  0  0  0  0  0  0  # atno 8008 bound_to 7997
  154.5194  140.2220  155.8967 H   0  0  0  0  0  0  0  0  0  0  0  0  # atno 8009 bound_to 7997
  156.1673  140.3103  155.8917 H   0  0  0  0  0  0  0  0  0  0  0  0  # atno 8010 bound_to 7997
  140.5990  143.8643  150.6946 H   0  0  0  0  0  0  0  0  0  0  0  0  # atno 10167 bound_to 10162
  157.6743  130.9865  150.1778 H   0  0  0  0  0  0  0  0  0  0  0  0  # atno 10718 bound_to 10713
  153.0097  135.5357  154.6668 H   0  0  0  0  0  0  0  0  0  0  0  0  # atno 10763 bound_to 10752
  154.5862  135.2854  155.0684 H   0  0  0  0  0  0  0  0  0  0  0  0  # atno 10764 bound_to 10752
  154.1794  135.6518  153.5083 H   0  0  0  0  0  0  0  0  0  0  0  0  # atno 10765 bound_to 10752
  139.9278  134.7638  156.1452 H   0  0  0  0  0  0  0  0  0  0  0  0  # atno 11005 bound_to 11000
  145.8214  139.2045  143.1935 LP  0  0  0  0  0  0  0  0  0  0  0  0  # atno 17320 bound_to 7965
  146.0510  140.8069  142.9781 LP  0  0  0  0  0  0  0  0  0  0  0  0  # atno 17321 bound_to 7965
  140.2185  143.3828  152.1662 LP  0  0  0  0  0  0  0  0  0  0  0  0  # atno 17342 bound_to 10162
  139.5278  144.7123  151.5166 LP  0  0  0  0  0  0  0  0  0  0  0  0  # atno 17343 bound_to 10162
  156.2517  130.3701  149.8225 LP  0  0  0  0  0  0  0  0  0  0  0  0  # atno 17370 bound_to 10713
  156.5995  130.8541  151.3428 LP  0  0  0  0  0  0  0  0  0  0  0  0  # atno 17371 bound_to 10713
  141.0848  133.6739  156.2412 LP  0  0  0  0  0  0  0  0  0  0  0  0  # atno 17394 bound_to 11000
  140.6286  134.5287  157.5557 LP  0  0  0  0  0  0  0  0  0  0  0  0  # atno 17395 bound_to 11000

$$$$
