AV-unprocessed.smi:3288|AV-procd|sdf|12606|dock9
  -GOLD-   2272018533D 1   1.00000     0.00000
 Structure written by MMmdl.
 38 39  0  0  0  0  0  0  0  0  1 V2000
  150.5195  135.3895  155.0196 C   0  0  0  0  0  0  0  0  0  0  0  0
  151.4814  136.4150  154.8307 O   0  0  0  0  0  0  0  0  0  0  0  0
  151.1663  137.6318  155.4929 C   0  0  0  0  0  0  0  0  0  0  0  0
  152.0552  138.7913  155.0203 C   0  0  0  0  0  0  0  0  0  0  0  0
  151.3619  140.0132  155.2540 O   0  0  0  0  0  0  0  0  0  0  0  0
  151.5470  140.6647  156.4588 C   0  0  0  0  0  0  0  0  0  0  0  0
  152.5012  140.1995  157.3040 N   0  0  0  0  0  0  0  0  0  0  0  0
  152.6821  140.8333  158.4805 C   0  0  0  0  0  0  0  0  0  0  0  0
  151.9293  141.9543  158.8745 C   0  0  0  0  0  0  0  0  0  0  0  0
  150.9409  142.4384  157.9982 C   0  0  0  0  0  0  0  0  0  0  0  0
  150.7366  141.7858  156.7591 C   0  0  0  0  0  0  0  0  0  0  0  0
  149.7792  142.2016  155.8192 N   0  0  0  0  0  0  0  0  0  0  0  0
  148.9204  141.2693  155.0995 C   0  0  0  0  0  0  0  0  0  0  0  0
  147.9667  141.9936  154.1330 C   0  0  0  0  0  0  0  0  0  0  0  0
  147.0078  140.9901  153.4713 C   0  0  0  0  0  0  0  0  0  0  0  0
  146.2837  140.2765  154.4683 O   0  0  0  0  0  0  0  0  0  0  0  0
  147.1236  139.5089  155.3244 C   0  0  0  0  0  0  0  0  0  0  0  0
  148.0867  140.4361  156.0833 C   0  0  0  0  0  0  0  0  0  0  0  0
  150.8622  134.4777  154.5306 H   0  0  0  0  0  0  0  0  0  0  0  0
  149.5547  135.6533  154.5866 H   0  0  0  0  0  0  0  0  0  0  0  0
  150.3805  135.1679  156.0786 H   0  0  0  0  0  0  0  0  0  0  0  0
  150.1083  137.8758  155.3859 H   0  0  0  0  0  0  0  0  0  0  0  0
  151.3391  137.4691  156.5571 H   0  0  0  0  0  0  0  0  0  0  0  0
  152.9932  138.7810  155.5778 H   0  0  0  0  0  0  0  0  0  0  0  0
  152.2878  138.6876  153.9600 H   0  0  0  0  0  0  0  0  0  0  0  0
  153.4499  140.4354  159.1273 H   0  0  0  0  0  0  0  0  0  0  0  0
  152.1067  142.4324  159.8263 H   0  0  0  0  0  0  0  0  0  0  0  0
  150.3596  143.2986  158.2924 H   0  0  0  0  0  0  0  0  0  0  0  0
  149.7275  143.1813  155.5777 H   0  0  0  0  0  0  0  0  0  0  0  0
  149.5467  140.5768  154.5367 H   0  0  0  0  0  0  0  0  0  0  0  0
  147.3867  142.7423  154.6743 H   0  0  0  0  0  0  0  0  0  0  0  0
  148.5241  142.5296  153.3648 H   0  0  0  0  0  0  0  0  0  0  0  0
  146.2990  141.5162  152.8318 H   0  0  0  0  0  0  0  0  0  0  0  0
  147.5539  140.2926  152.8343 H   0  0  0  0  0  0  0  0  0  0  0  0
  146.4994  138.9598  156.0296 H   0  0  0  0  0  0  0  0  0  0  0  0
  147.6741  138.7679  154.7429 H   0  0  0  0  0  0  0  0  0  0  0  0
  148.7405  139.8457  156.7262 H   0  0  0  0  0  0  0  0  0  0  0  0
  147.5127  141.0933  156.7385 H   0  0  0  0  0  0  0  0  0  0  0  0
  1  2  1  0  0  0  0
  1 19  1  0  0  0  0
  1 20  1  0  0  0  0
  1 21  1  0  0  0  0
  2  3  1  0  0  0  0
  3  4  1  0  0  0  0
  3 22  1  0  0  0  0
  3 23  1  0  0  0  0
  4  5  1  0  0  0  0
  4 24  1  0  0  0  0
  4 25  1  0  0  0  0
  5  6  1  0  0  0  0
  6 11  1  0  0  0  0
  6  7  2  0  0  0  0
  7  8  1  0  0  0  0
  8  9  2  0  0  0  0
  8 26  1  0  0  0  0
  9 10  1  0  0  0  0
  9 27  1  0  0  0  0
 10 11  2  0  0  0  0
 10 28  1  0  0  0  0
 11 12  1  0  0  0  0
 12 13  1  0  0  0  0
 12 29  1  0  0  0  0
 13 18  1  0  0  0  0
 13 14  1  0  0  0  0
 13 30  1  0  0  0  0
 14 15  1  0  0  0  0
 14 31  1  0  0  0  0
 14 32  1  0  0  0  0
 15 16  1  0  0  0  0
 15 33  1  0  0  0  0
 15 34  1  0  0  0  0
 16 17  1  0  0  0  0
 17 18  1  0  0  0  0
 17 35  1  0  0  0  0
 17 36  1  0  0  0  0
 18 37  1  0  0  0  0
 18 38  1  0  0  0  0
M  END
> <s_m_source_file>
AV-unprocessed.smi

> <i_m_source_file_index>
3288

> <i_lp_mmshare_version>
43012

> <i_f3d_flags>
0

> <s_epik_input>
W0NIM11PW0NIMl1bQ0gyXU9jMW5bY0hdW2NIXVtjSF1jMVtOSF1bQ0hdMltDSDJdW0NIMl1PW0NIMl1bQ0gyXTI=

> <s_epik_cmdline>
J2VwaWtfcHl0aG9uJywgJy1waCcsICc3LjAnLCAnLXRuJywgJzgnLCAnLW1hJywgJzIwMCcsICctbWV0YWxfYmluZGluZycsICctaW1hZScsICc8aW5maWxlLm1hZT4nLCAnLW9tYWUnLCAnPG91dGZpbGUubWFlPic=

> <r_lp_tautomer_probability>
1

> <r_epik_Ionization_Penalty>
0.000236303

> <r_epik_Ionization_Penalty_Charging>
0

> <r_epik_Ionization_Penalty_Neutral>
0.000236303

> <r_epik_State_Penalty>
-0

> <r_epik_Charging_Adjusted_Penalty>
0

> <i_epik_Tot_Q>
0

> <i_epik_Tot_abs_Q>
0

> <r_epik_Metal_State_Penalty>
-0

> <b_epik_Metal_Only>
0

> <s_lp_Force_Field>
OPLS_2005

> <r_lp_Energy>
13.3054

> <b_lp_Chiralities_Consistent>
1

> <s_lp_Variant>
AV-unprocessed.smi:3288-1

> <Gold.Version>
5.8.1

> <Gold.Id.Protein>
6NUR|6NUR_protein|mol2

> <Gold.PLP.Fitness>
41.6128

> <Gold.PLP.PLP>
-31.1460

> <Gold.PLP.part.hbond>
-4.0000

> <Gold.PLP.part.metal>
0.0000

> <Gold.PLP.part.buried>
-4.8343

> <Gold.PLP.part.nonpolar>
-22.6910

> <Gold.PLP.part.repulsive>
0.4418

> <Gold.PLP.ligand.clash>
0.0000

> <Gold.PLP.ligand.torsion>
0.7777

> <Gold.PLP.Chemscore.Hbond>
3.9920

> <Gold.PLP.Chemscore.CHOScore>
0.0000

> <Gold.PLP.Chemscore.Metal>
0.0000

> <Gold.Chemscore.Hbonds>
donor molecule, donor type, donor heavy atom, donor atom, acceptor molecule, acceptor atom, score
      L1  H    12    29       P1  8028  1.00
      P1  H  7989  7998       L1     5  0.95
      P1  H  7997  8010       L1     7  1.00
      P1  H 10752 10763       L1     2  1.00

> <Gold.PLP.Chemscore.Internal.Correction>
0.0461

> <Gold.Rescore>
     Score         DG    S(hbond)    S(metal)    S(lipo)     H(rot)  DE(clash)    DE(int)     intcor
     17.20     -19.53       2.82        0.00      76.40       1.68       0.01       2.32       ----

> <Gold.Chemscore.Fitness>
17.1982

> <Gold.Chemscore.DG>
-19.5316

> <Gold.Chemscore.ZeroCoef>
-5.4800

> <Gold.Chemscore.Hbond>
2.8203

> <Gold.Chemscore.Metal>
0.0000

> <Gold.Chemscore.Lipo>
76.4027

> <Gold.Chemscore.Internal_Hbond>
0.0000

> <Gold.Chemscore.DEClash>
0.0126

> <Gold.Chemscore.DEInternal>
2.3207

> <Gold.Chemscore.Rot>
1.6826

> <Gold.Chemscore.Internal.Correction>
   9.000000E+99

> <Gold.Chemscore.Hbonds>
donor molecule, donor type, donor heavy atom, donor atom, acceptor molecule, acceptor atom, score
      L1  H    12    29       P1  8028  0.94
      P1  H  7989  7998       L1     5  0.21
      P1  H  7997  8010       L1     7  0.27
      P1  H 10752 10763       L1     2  0.38

> <Gold.Chemscore.Hbond.Weighted>
-9.4199

> <Gold.Chemscore.Metal.Weighted>
-0.0000

> <Gold.Chemscore.Lipo.Weighted>
-8.9391

> <Gold.Chemscore.Internal_Hbond.Weighted>
0.0000

> <Gold.Chemscore.DEClash.Weighted>
0.0126

> <Gold.Chemscore.DEInternal.Weighted>
2.3207

> <Gold.Chemscore.Rot.Weighted>
4.3074

> <Gold.Chemscore.Internal.Correction.Weighted>
   9.000000E+99

> <Gold.Protein.RotatedTorsions>
[ 6907 6896 6895 6894 ] final -146.77 input  -60.11 | X-H torsion
[ 7974 7965 7964 7962 ] final   54.32 input  175.53 | X-H torsion
[ 8008 7997 7996 7995 ] final   60.41 input   59.86 | X-H torsion
[ 10167 10162 10161 10158 ] final  103.03 input  -65.29 | X-H torsion
[ 10718 10713 10712 10709 ] final  -74.78 input   66.30 | X-H torsion
[ 10763 10752 10751 10750 ] final   74.50 input  -60.55 | X-H torsion
[ 11005 11000 10999 10996 ] final  153.98 input  -57.11 | X-H torsion

> <Gold.Protein.ActiveResidues>
 VAL166  LYS551  ARG553  GLY616  TRP617  ASP618  TYR619  PRO620  LYS621  CYS622 
 ASP623  PHE694  ASN695  SER759  ASP760  ASP761  ALA762  ILE779  LEU786  VAL792 
 PHE793  MET794  SER795  GLU796  ALA797  LYS798  CYS799  TRP800  GLU811  SER814 

> <Gold.Protein.RotatedAtoms>
  151.1463  133.4937  159.2595 H   0  0  0  0  0  0  0  0  0  0  0  0  # atno 6907 bound_to 6896
  151.1601  135.0269  159.8716 H   0  0  0  0  0  0  0  0  0  0  0  0  # atno 6908 bound_to 6896
  152.5463  134.1338  159.8503 H   0  0  0  0  0  0  0  0  0  0  0  0  # atno 6909 bound_to 6896
  145.9621  139.4069  143.0242 H   0  0  0  0  0  0  0  0  0  0  0  0  # atno 7974 bound_to 7965
  155.5819  140.3491  155.4542 H   0  0  0  0  0  0  0  0  0  0  0  0  # atno 8008 bound_to 7997
  156.0367  140.1286  157.0225 H   0  0  0  0  0  0  0  0  0  0  0  0  # atno 8009 bound_to 7997
  154.4374  140.1032  156.6163 H   0  0  0  0  0  0  0  0  0  0  0  0  # atno 8010 bound_to 7997
  139.7298  144.7039  151.0740 H   0  0  0  0  0  0  0  0  0  0  0  0  # atno 10167 bound_to 10162
  156.0230  130.4425  150.2944 H   0  0  0  0  0  0  0  0  0  0  0  0  # atno 10718 bound_to 10713
  153.0591  135.5023  154.8051 H   0  0  0  0  0  0  0  0  0  0  0  0  # atno 10763 bound_to 10752
  154.6854  135.2975  154.9557 H   0  0  0  0  0  0  0  0  0  0  0  0  # atno 10764 bound_to 10752
  154.0329  135.6727  153.4835 H   0  0  0  0  0  0  0  0  0  0  0  0  # atno 10765 bound_to 10752
  140.1447  134.8715  157.2377 H   0  0  0  0  0  0  0  0  0  0  0  0  # atno 11005 bound_to 11000
  145.8025  140.9764  143.0991 LP  0  0  0  0  0  0  0  0  0  0  0  0  # atno 17320 bound_to 7965
  144.6817  139.9819  143.7483 LP  0  0  0  0  0  0  0  0  0  0  0  0  # atno 17321 bound_to 7965
  140.7769  143.5058  150.9714 LP  0  0  0  0  0  0  0  0  0  0  0  0  # atno 17342 bound_to 10162
  139.8746  143.7149  152.3163 LP  0  0  0  0  0  0  0  0  0  0  0  0  # atno 17343 bound_to 10162
  157.1047  131.0205  151.3072 LP  0  0  0  0  0  0  0  0  0  0  0  0  # atno 17370 bound_to 10713
  157.4752  130.7732  149.7361 LP  0  0  0  0  0  0  0  0  0  0  0  0  # atno 17371 bound_to 10713
  140.2679  134.3495  155.7384 LP  0  0  0  0  0  0  0  0  0  0  0  0  # atno 17394 bound_to 11000
  141.2191  133.7406  156.9178 LP  0  0  0  0  0  0  0  0  0  0  0  0  # atno 17395 bound_to 11000

$$$$
