AV-unprocessed.smi:109|AV-procd|sdf|1045|dock6
  -GOLD-   2262018 83D 1   1.00000     0.00000
 Structure written by MMmdl.
 58 61  0  0  0  0  0  0  0  0  1 V2000
  140.4382  143.1254  153.8032 O   0  0  0  0  0  0  0  0  0  0  0  0
  140.1522  141.7742  154.0936 C   0  0  0  0  0  0  0  0  0  0  0  0
  140.9147  141.3381  155.3565 C   0  0  0  0  0  0  0  0  0  0  0  0
  141.0802  139.8051  155.5025 C   0  0  2  0  0  0  0  0  0  0  0  0
  142.2523  139.3654  154.7415 N   0  0  0  0  0  0  0  0  0  0  0  0
  142.8014  138.1400  154.9000 C   0  0  0  0  0  0  0  0  0  0  0  0
  143.1960  137.6888  156.1193 N   0  0  0  0  0  0  0  0  0  0  0  0
  143.7414  136.4746  156.2407 C   0  0  0  0  0  0  0  0  0  0  0  0
  143.9776  135.5666  155.2910 N   0  0  0  0  0  0  0  0  0  0  0  0
  143.5795  136.0156  154.0658 C   0  0  0  0  0  0  0  0  0  0  0  0
  142.9891  137.2793  153.7882 C   0  0  0  0  0  0  0  0  0  0  0  0
  142.7220  137.3852  152.4288 N   0  0  0  0  0  0  0  0  0  0  0  0
  143.1316  136.2464  151.9366 C   0  0  0  0  0  0  0  0  0  0  0  0
  143.6615  135.3657  152.8550 N   0  0  0  0  0  0  0  0  0  0  0  0
  144.2217  133.9987  152.6295 C   0  0  1  0  0  0  0  0  0  0  0  0
  143.7972  133.5642  151.3809 O   0  0  0  0  0  0  0  0  0  0  0  0
  144.7156  132.5832  150.9291 C   0  0  1  0  0  0  0  0  0  0  0  0
  144.5617  132.3794  149.4143 C   0  0  0  0  0  0  0  0  0  0  0  0
  143.2685  131.8964  149.1217 O   0  0  0  0  0  0  0  0  0  0  0  0
  146.0703  133.1802  151.3342 C   0  0  2  0  0  0  0  0  0  0  0  0
  146.9978  132.1451  151.5936 O   0  0  0  0  0  0  0  0  0  0  0  0
  145.7649  133.9655  152.6111 C   0  0  1  0  0  0  0  0  0  0  0  0
  146.3738  135.2446  152.5768 O   0  0  0  0  0  0  0  0  0  0  0  0
  139.8341  138.9967  155.0392 C   0  0  0  0  0  0  0  0  0  0  0  0
  139.7266  137.6000  155.7015 C   0  0  0  0  0  0  0  0  0  0  0  0
  138.5122  136.8021  155.1981 C   0  0  0  0  0  0  0  0  0  0  0  0
  138.5282  136.6571  153.6719 C   0  0  0  0  0  0  0  0  0  0  0  0
  138.6044  138.0335  153.0009 C   0  0  0  0  0  0  0  0  0  0  0  0
  139.8234  138.8260  153.4979 C   0  0  0  0  0  0  0  0  0  0  0  0
  143.7887  133.3709  153.4098 H   0  0  0  0  0  0  0  0  0  0  0  0
  144.5370  131.6530  151.4737 H   0  0  0  0  0  0  0  0  0  0  0  0
  146.4454  133.8396  150.5495 H   0  0  0  0  0  0  0  0  0  0  0  0
  146.0981  133.4388  153.5067 H   0  0  0  0  0  0  0  0  0  0  0  0
  140.9284  143.1624  152.9963 H   0  0  0  0  0  0  0  0  0  0  0  0
  139.0752  141.6705  154.2252 H   0  0  0  0  0  0  0  0  0  0  0  0
  140.4399  141.1604  153.2396 H   0  0  0  0  0  0  0  0  0  0  0  0
  141.8937  141.8116  155.3077 H   0  0  0  0  0  0  0  0  0  0  0  0
  140.4212  141.7410  156.2422 H   0  0  0  0  0  0  0  0  0  0  0  0
  141.2084  139.5894  156.5630 H   0  0  0  0  0  0  0  0  0  0  0  0
  142.6205  140.0419  154.0881 H   0  0  0  0  0  0  0  0  0  0  0  0
  144.0296  136.1908  157.2421 H   0  0  0  0  0  0  0  0  0  0  0  0
  143.0613  136.0182  150.8829 H   0  0  0  0  0  0  0  0  0  0  0  0
  144.7575  133.3020  148.8669 H   0  0  0  0  0  0  0  0  0  0  0  0
  145.2754  131.6345  149.0614 H   0  0  0  0  0  0  0  0  0  0  0  0
  142.8295  132.5249  148.5692 H   0  0  0  0  0  0  0  0  0  0  0  0
  147.6795  132.1797  150.9399 H   0  0  0  0  0  0  0  0  0  0  0  0
  147.2619  135.1451  152.2699 H   0  0  0  0  0  0  0  0  0  0  0  0
  138.9439  139.5623  155.3202 H   0  0  0  0  0  0  0  0  0  0  0  0
  140.6391  137.0321  155.5152 H   0  0  0  0  0  0  0  0  0  0  0  0
  139.6296  137.6892  156.7823 H   0  0  0  0  0  0  0  0  0  0  0  0
  138.4976  135.8163  155.6636 H   0  0  0  0  0  0  0  0  0  0  0  0
  137.5938  137.3025  155.5074 H   0  0  0  0  0  0  0  0  0  0  0  0
  139.3831  136.0513  153.3689 H   0  0  0  0  0  0  0  0  0  0  0  0
  137.6360  136.1270  153.3371 H   0  0  0  0  0  0  0  0  0  0  0  0
  138.6551  137.9155  151.9181 H   0  0  0  0  0  0  0  0  0  0  0  0
  137.6928  138.5954  153.2086 H   0  0  0  0  0  0  0  0  0  0  0  0
  139.8256  139.7959  153.0008 H   0  0  0  0  0  0  0  0  0  0  0  0
  140.7366  138.3205  153.1804 H   0  0  0  0  0  0  0  0  0  0  0  0
  1  2  1  0  0  0  0
  1 34  1  0  0  0  0
  2  3  1  0  0  0  0
  2 35  1  0  0  0  0
  2 36  1  0  0  0  0
  3  4  1  0  0  0  0
  3 37  1  0  0  0  0
  3 38  1  0  0  0  0
  4  5  1  0  0  0  0
  4 24  1  0  0  0  0
  4 39  1  0  0  0  0
  5  6  1  0  0  0  0
  5 40  1  0  0  0  0
  6 11  1  0  0  0  0
  6  7  2  0  0  0  0
  7  8  1  0  0  0  0
  8  9  2  0  0  0  0
  8 41  1  0  0  0  0
  9 10  1  0  0  0  0
 10 14  1  0  0  0  0
 10 11  2  0  0  0  0
 11 12  1  0  0  0  0
 12 13  2  0  0  0  0
 13 14  1  0  0  0  0
 13 42  1  0  0  0  0
 14 15  1  0  0  0  0
 15 30  1  0  0  0  0
 15 22  1  0  0  0  0
 15 16  1  0  0  0  0
 16 17  1  0  0  0  0
 17 31  1  0  0  0  0
 17 18  1  0  0  0  0
 17 20  1  0  0  0  0
 18 19  1  0  0  0  0
 18 43  1  0  0  0  0
 18 44  1  0  0  0  0
 19 45  1  0  0  0  0
 20 32  1  0  0  0  0
 20 21  1  0  0  0  0
 20 22  1  0  0  0  0
 21 46  1  0  0  0  0
 22 33  1  0  0  0  0
 22 23  1  0  0  0  0
 23 47  1  0  0  0  0
 24 29  1  0  0  0  0
 24 25  1  0  0  0  0
 24 48  1  0  0  0  0
 25 26  1  0  0  0  0
 25 49  1  0  0  0  0
 25 50  1  0  0  0  0
 26 27  1  0  0  0  0
 26 51  1  0  0  0  0
 26 52  1  0  0  0  0
 27 28  1  0  0  0  0
 27 53  1  0  0  0  0
 27 54  1  0  0  0  0
 28 29  1  0  0  0  0
 28 55  1  0  0  0  0
 28 56  1  0  0  0  0
 29 57  1  0  0  0  0
 29 58  1  0  0  0  0
M  END
> <s_m_source_file>
AV-unprocessed.smi

> <i_m_source_file_index>
109

> <i_lp_mmshare_version>
43012

> <i_f3d_flags>
0

> <s_epik_input>
W0NIMl0xW0NIMl1bQ0gyXVtDSDJdW0NIMl1bQ0hdMVtDQEhdKFtDSDJdW0NIMl1bT0hdKVtOSF1jKG5bY0hdbjIpYyhjMjMpbltjSF1uM1tDQEBIXTRPW0NASF0oW0NIMl1bT0hdKVtDQEBIXShbT0hdKVtDQEhdNFtPSF0=

> <s_epik_cmdline>
J2VwaWtfcHl0aG9uJywgJy1waCcsICc3LjAnLCAnLXRuJywgJzgnLCAnLW1hJywgJzIwMCcsICctbWV0YWxfYmluZGluZycsICctaW1hZScsICc8aW5maWxlLm1hZT4nLCAnLW9tYWUnLCAnPG91dGZpbGUubWFlPic=

> <r_lp_tautomer_probability>
1

> <r_epik_Ionization_Penalty>
0.000793976

> <r_epik_Ionization_Penalty_Charging>
0

> <r_epik_Ionization_Penalty_Neutral>
0.000793976

> <r_epik_State_Penalty>
-0

> <r_epik_Charging_Adjusted_Penalty>
0

> <i_epik_Tot_Q>
0

> <i_epik_Tot_abs_Q>
0

> <r_epik_Metal_State_Penalty>
-0

> <b_epik_Metal_Only>
0

> <s_epik_Chemistry_Notes>
This compound contains an acetal/aminal-like group ( X-CH(R)-Y where X, Y are N, S, or O) that may be acid/base labile, releasing an aldehyde.

> <s_lp_Force_Field>
OPLS_2005

> <r_lp_Energy>
53.6553

> <b_lp_Chiralities_Consistent>
1

> <s_lp_Variant>
AV-unprocessed.smi:109-15

> <Gold.Version>
5.8.1

> <Gold.Id.Protein>
6NUR|6NUR_protein|mol2

> <Gold.PLP.Fitness>
48.1267

> <Gold.PLP.PLP>
-37.7225

> <Gold.PLP.part.hbond>
-7.2258

> <Gold.PLP.part.metal>
0.0000

> <Gold.PLP.part.buried>
-7.1986

> <Gold.PLP.part.nonpolar>
-23.9131

> <Gold.PLP.part.repulsive>
1.2434

> <Gold.PLP.ligand.clash>
0.0000

> <Gold.PLP.ligand.torsion>
1.8617

> <Gold.PLP.Chemscore.Hbond>
4.4400

> <Gold.PLP.Chemscore.CHOScore>
0.2127

> <Gold.PLP.Chemscore.Metal>
0.0000

> <Gold.Chemscore.Hbonds>
donor molecule, donor type, donor heavy atom, donor atom, acceptor molecule, acceptor atom, score
      L1  H     1    34       P1 10174  0.86
      L1  H     5    40       P1 10175  1.00
      L1  H    21    46       P1 10747  0.67
      L1  H    23    47       P1  7948  0.86
      P1  H 10785 10796       L1    19  1.00
      L1  C    13    42       P1 10171  0.06

> <Gold.PLP.Chemscore.Internal.Correction>
0.1695

> <Gold.Rescore>
     Score         DG    S(hbond)    S(metal)    S(lipo)     H(rot)  DE(clash)    DE(int)     intcor
     10.36     -12.66       4.09        0.00      64.13       5.47       0.02       2.28       ----

> <Gold.Chemscore.Fitness>
10.3588

> <Gold.Chemscore.DG>
-12.6597

> <Gold.Chemscore.ZeroCoef>
-5.4800

> <Gold.Chemscore.Hbond>
4.0930

> <Gold.Chemscore.Metal>
0.0000

> <Gold.Chemscore.Lipo>
64.1264

> <Gold.Chemscore.Internal_Hbond>
0.0000

> <Gold.Chemscore.DEClash>
0.0202

> <Gold.Chemscore.DEInternal>
2.2807

> <Gold.Chemscore.Rot>
5.4662

> <Gold.Chemscore.Internal.Correction>
   9.000000E+99

> <Gold.Chemscore.Hbonds>
donor molecule, donor type, donor heavy atom, donor atom, acceptor molecule, acceptor atom, score
      L1  H     1    34       P1 10174  0.82
      L1  H     5    40       P1 10175  0.94
      L1  H    21    46       P1 10747  0.67
      L1  H    23    47       P1  7948  0.80
      P1  H 10785 10796       L1    19  0.84

> <Gold.Chemscore.Hbond.Weighted>
-13.6705

> <Gold.Chemscore.Metal.Weighted>
-0.0000

> <Gold.Chemscore.Lipo.Weighted>
-7.5028

> <Gold.Chemscore.Internal_Hbond.Weighted>
0.0000

> <Gold.Chemscore.DEClash.Weighted>
0.0202

> <Gold.Chemscore.DEInternal.Weighted>
2.2807

> <Gold.Chemscore.Rot.Weighted>
13.9935

> <Gold.Chemscore.Internal.Correction.Weighted>
   9.000000E+99

> <Gold.Protein.RotatedTorsions>
[ 6907 6896 6895 6894 ] final  -55.09 input  -60.11 | X-H torsion
[ 7974 7965 7964 7962 ] final  137.07 input  175.53 | X-H torsion
[ 8008 7997 7996 7995 ] final  -30.00 input   59.86 | X-H torsion
[ 10167 10162 10161 10158 ] final -115.52 input  -65.29 | X-H torsion
[ 10718 10713 10712 10709 ] final  153.32 input   66.30 | X-H torsion
[ 10763 10752 10751 10750 ] final -148.45 input  -60.55 | X-H torsion
[ 11005 11000 10999 10996 ] final   29.58 input  -57.11 | X-H torsion

> <Gold.Protein.ActiveResidues>
 VAL166  LYS551  ARG553  GLY616  TRP617  ASP618  TYR619  PRO620  LYS621  CYS622 
 ASP623  PHE694  ASN695  SER759  ASP760  ASP761  ALA762  ILE779  LEU786  VAL792 
 PHE793  MET794  SER795  GLU796  ALA797  LYS798  CYS799  TRP800  GLU811  SER814 

> <Gold.Protein.RotatedAtoms>
  150.8281  134.7522  159.6830 H   0  0  0  0  0  0  0  0  0  0  0  0  # atno 6907 bound_to 6896
  152.4390  134.5626  159.9908 H   0  0  0  0  0  0  0  0  0  0  0  0  # atno 6908 bound_to 6896
  151.5794  133.3342  159.3041 H   0  0  0  0  0  0  0  0  0  0  0  0  # atno 6909 bound_to 6896
  144.9503  139.4826  143.5529 H   0  0  0  0  0  0  0  0  0  0  0  0  # atno 7974 bound_to 7965
  154.4267  140.1803  156.1337 H   0  0  0  0  0  0  0  0  0  0  0  0  # atno 8008 bound_to 7997
  156.0047  140.3356  155.6855 H   0  0  0  0  0  0  0  0  0  0  0  0  # atno 8009 bound_to 7997
  155.6194  140.0658  157.2673 H   0  0  0  0  0  0  0  0  0  0  0  0  # atno 8010 bound_to 7997
  140.0892  143.4715  152.1880 H   0  0  0  0  0  0  0  0  0  0  0  0  # atno 10167 bound_to 10162
  157.2463  131.0769  151.1759 H   0  0  0  0  0  0  0  0  0  0  0  0  # atno 10718 bound_to 10713
  154.8232  135.3334  154.6976 H   0  0  0  0  0  0  0  0  0  0  0  0  # atno 10763 bound_to 10752
  153.7606  135.6933  153.4931 H   0  0  0  0  0  0  0  0  0  0  0  0  # atno 10764 bound_to 10752
  153.2113  135.4481  155.0332 H   0  0  0  0  0  0  0  0  0  0  0  0  # atno 10765 bound_to 10752
  140.3034  134.2731  155.7749 H   0  0  0  0  0  0  0  0  0  0  0  0  # atno 11005 bound_to 11000
  146.3319  139.8585  142.8860 LP  0  0  0  0  0  0  0  0  0  0  0  0  # atno 17320 bound_to 7965
  145.2853  141.0151  143.3694 LP  0  0  0  0  0  0  0  0  0  0  0  0  # atno 17321 bound_to 7965
  139.5734  144.7475  151.3829 LP  0  0  0  0  0  0  0  0  0  0  0  0  # atno 17342 bound_to 10162
  140.7037  143.7567  150.7446 LP  0  0  0  0  0  0  0  0  0  0  0  0  # atno 17343 bound_to 10162
  157.3325  130.6992  149.6333 LP  0  0  0  0  0  0  0  0  0  0  0  0  # atno 17370 bound_to 10713
  155.9668  130.4303  150.4871 LP  0  0  0  0  0  0  0  0  0  0  0  0  # atno 17371 bound_to 10713
  141.2123  133.7661  156.9801 LP  0  0  0  0  0  0  0  0  0  0  0  0  # atno 17394 bound_to 11000
  140.1089  134.9489  157.2035 LP  0  0  0  0  0  0  0  0  0  0  0  0  # atno 17395 bound_to 11000

$$$$
