AV-unprocessed.smi:1123|AV-procd|sdf|4829|dock5
  -GOLD-   22720 3393D 1   1.00000     0.00000
 Structure written by MMmdl.
 37 38  0  0  0  0  0  0  0  0  1 V2000
  147.3492  140.2957  153.4227 C   0  0  0  0  0  0  0  0  0  0  0  0
  147.9227  141.4095  154.3228 C   0  0  2  0  0  0  0  0  0  0  0  0
  149.2299  140.9964  155.0175 C   0  0  0  0  0  0  0  0  0  0  0  0
  149.7276  139.8886  154.8126 O   0  0  0  0  0  0  0  0  0  0  0  0
  149.7759  141.9032  155.8436 N   0  0  0  0  0  0  0  0  0  0  0  0
  150.9966  141.7071  156.6155 C   0  0  0  0  0  0  0  0  0  0  0  0
  151.3899  142.9848  157.3804 C   0  0  0  0  0  0  0  0  0  0  0  0
  151.5813  142.8075  158.8189 N   0  0  0  0  0  0  0  0  0  0  0  0
  152.5901  141.7883  159.0890 C   0  0  0  0  0  0  0  0  0  0  0  0
  152.8125  141.5823  160.5973 C   0  0  0  0  0  0  0  0  0  0  0  0
  153.1766  142.8210  161.1974 O   0  0  0  0  0  0  0  0  0  0  0  0
  152.1961  143.8340  160.9997 C   0  0  0  0  0  0  0  0  0  0  0  0
  151.9658  144.0462  159.4930 C   0  0  0  0  0  0  0  0  0  0  0  0
  146.9557  141.8774  155.3086 N   0  0  0  0  0  0  0  0  0  0  0  0
  145.6512  142.1284  155.1772 C   0  0  0  0  0  0  0  0  0  0  0  0
  145.0776  142.5939  156.2779 N   0  0  0  0  0  0  0  0  0  0  0  0
  146.1634  142.6203  157.1063 C   0  0  0  0  0  0  0  0  0  0  0  0
  147.3146  142.2116  156.5736 N   0  0  0  0  0  0  0  0  0  0  0  0
  148.0681  140.0013  152.6572 H   0  0  0  0  0  0  0  0  0  0  0  0
  146.4492  140.6364  152.9099 H   0  0  0  0  0  0  0  0  0  0  0  0
  147.0868  139.4019  153.9903 H   0  0  0  0  0  0  0  0  0  0  0  0
  148.1520  142.2571  153.6747 H   0  0  0  0  0  0  0  0  0  0  0  0
  149.3053  142.7896  155.9540 H   0  0  0  0  0  0  0  0  0  0  0  0
  150.8120  140.8840  157.3049 H   0  0  0  0  0  0  0  0  0  0  0  0
  151.8085  141.3890  155.9592 H   0  0  0  0  0  0  0  0  0  0  0  0
  152.3204  143.3584  156.9507 H   0  0  0  0  0  0  0  0  0  0  0  0
  150.6454  143.7622  157.2016 H   0  0  0  0  0  0  0  0  0  0  0  0
  152.2900  140.8419  158.6379 H   0  0  0  0  0  0  0  0  0  0  0  0
  153.5349  142.0704  158.6218 H   0  0  0  0  0  0  0  0  0  0  0  0
  151.9113  141.1910  161.0718 H   0  0  0  0  0  0  0  0  0  0  0  0
  153.6069  140.8558  160.7683 H   0  0  0  0  0  0  0  0  0  0  0  0
  151.2666  143.5514  161.4959 H   0  0  0  0  0  0  0  0  0  0  0  0
  152.5391  144.7582  161.4648 H   0  0  0  0  0  0  0  0  0  0  0  0
  152.8754  144.4459  159.0423 H   0  0  0  0  0  0  0  0  0  0  0  0
  151.1934  144.8036  159.3646 H   0  0  0  0  0  0  0  0  0  0  0  0
  145.1107  141.9713  154.2555 H   0  0  0  0  0  0  0  0  0  0  0  0
  146.1049  142.9567  158.1310 H   0  0  0  0  0  0  0  0  0  0  0  0
  1  2  1  0  0  0  0
  1 19  1  0  0  0  0
  1 20  1  0  0  0  0
  1 21  1  0  0  0  0
  2  3  1  0  0  0  0
  2 14  1  0  0  0  0
  2 22  1  0  0  0  0
  3  4  2  0  0  0  0
  3  5  1  0  0  0  0
  5  6  1  0  0  0  0
  5 23  1  0  0  0  0
  6  7  1  0  0  0  0
  6 24  1  0  0  0  0
  6 25  1  0  0  0  0
  7  8  1  0  0  0  0
  7 26  1  0  0  0  0
  7 27  1  0  0  0  0
  8 13  1  0  0  0  0
  8  9  1  0  0  0  0
  9 10  1  0  0  0  0
  9 28  1  0  0  0  0
  9 29  1  0  0  0  0
 10 11  1  0  0  0  0
 10 30  1  0  0  0  0
 10 31  1  0  0  0  0
 11 12  1  0  0  0  0
 12 13  1  0  0  0  0
 12 32  1  0  0  0  0
 12 33  1  0  0  0  0
 13 34  1  0  0  0  0
 13 35  1  0  0  0  0
 14 18  1  0  0  0  0
 14 15  1  0  0  0  0
 15 16  2  0  0  0  0
 15 36  1  0  0  0  0
 16 17  1  0  0  0  0
 17 18  2  0  0  0  0
 17 37  1  0  0  0  0
M  END
> <s_m_source_file>
AV-unprocessed.smi

> <i_m_source_file_index>
1123

> <i_lp_mmshare_version>
43012

> <i_f3d_flags>
0

> <s_epik_input>
bjFbY0hdbltjSF1uMVtDQEhdKFtDSDNdKUMoPU8pW05IXVtDSDJdW0NIMl1OMltDSDJdW0NIMl1PW0NIMl1bQ0gyXTI=

> <s_epik_cmdline>
J2VwaWtfcHl0aG9uJywgJy1waCcsICc3LjAnLCAnLXRuJywgJzgnLCAnLW1hJywgJzIwMCcsICctbWV0YWxfYmluZGluZycsICctaW1hZScsICc8aW5maWxlLm1hZT4nLCAnLW9tYWUnLCAnPG91dGZpbGUubWFlPic=

> <r_lp_tautomer_probability>
1

> <r_epik_Ionization_Penalty>
0.211373

> <r_epik_Ionization_Penalty_Charging>
0

> <r_epik_Ionization_Penalty_Neutral>
0.211373

> <r_epik_State_Penalty>
0.201459

> <r_epik_Charging_Adjusted_Penalty>
0.201459

> <i_epik_Tot_Q>
0

> <i_epik_Tot_abs_Q>
0

> <r_epik_Metal_State_Penalty>
0.201458

> <b_epik_Metal_Only>
0

> <s_lp_Force_Field>
OPLS_2005

> <r_lp_Energy>
26.6349

> <b_lp_Chiralities_Consistent>
1

> <s_lp_Variant>
AV-unprocessed.smi:1123-1

> <Gold.Version>
5.8.1

> <Gold.Id.Protein>
6NUR|6NUR_protein|mol2

> <Gold.PLP.Fitness>
42.2124

> <Gold.PLP.PLP>
-35.2148

> <Gold.PLP.part.hbond>
-2.0000

> <Gold.PLP.part.metal>
0.0000

> <Gold.PLP.part.buried>
-3.2281

> <Gold.PLP.part.nonpolar>
-30.4816

> <Gold.PLP.part.repulsive>
0.5397

> <Gold.PLP.ligand.clash>
0.0000

> <Gold.PLP.ligand.torsion>
0.8803

> <Gold.PLP.Chemscore.Hbond>
1.9680

> <Gold.PLP.Chemscore.CHOScore>
0.9077

> <Gold.PLP.Chemscore.Metal>
0.0000

> <Gold.Chemscore.Hbonds>
donor molecule, donor type, donor heavy atom, donor atom, acceptor molecule, acceptor atom, score
      L1  H     5    23       P1  8028  1.00
      L1  C    15    36       P1 10175  0.45

> <Gold.PLP.Chemscore.Internal.Correction>
0.1311

> <Gold.Rescore>
     Score         DG    S(hbond)    S(metal)    S(lipo)     H(rot)  DE(clash)    DE(int)     intcor
     11.24     -13.56       1.65        0.00      79.02       2.61       0.07       2.25       ----

> <Gold.Chemscore.Fitness>
11.2443

> <Gold.Chemscore.DG>
-13.5619

> <Gold.Chemscore.ZeroCoef>
-5.4800

> <Gold.Chemscore.Hbond>
1.6520

> <Gold.Chemscore.Metal>
0.0000

> <Gold.Chemscore.Lipo>
79.0186

> <Gold.Chemscore.Internal_Hbond>
0.0000

> <Gold.Chemscore.DEClash>
0.0666

> <Gold.Chemscore.DEInternal>
2.2510

> <Gold.Chemscore.Rot>
2.6097

> <Gold.Chemscore.Internal.Correction>
   9.000000E+99

> <Gold.Chemscore.Hbonds>
donor molecule, donor type, donor heavy atom, donor atom, acceptor molecule, acceptor atom, score
      L1  H     5    23       P1  8028  0.96

> <Gold.Chemscore.Hbond.Weighted>
-5.5176

> <Gold.Chemscore.Metal.Weighted>
-0.0000

> <Gold.Chemscore.Lipo.Weighted>
-9.2452

> <Gold.Chemscore.Internal_Hbond.Weighted>
0.0000

> <Gold.Chemscore.DEClash.Weighted>
0.0666

> <Gold.Chemscore.DEInternal.Weighted>
2.2510

> <Gold.Chemscore.Rot.Weighted>
6.6809

> <Gold.Chemscore.Internal.Correction.Weighted>
   9.000000E+99

> <Gold.Protein.RotatedTorsions>
[ 6907 6896 6895 6894 ] final  -40.83 input  -60.11 | X-H torsion
[ 7974 7965 7964 7962 ] final  150.42 input  175.53 | X-H torsion
[ 8008 7997 7996 7995 ] final  -53.19 input   59.86 | X-H torsion
[ 10167 10162 10161 10158 ] final   -8.50 input  -65.29 | X-H torsion
[ 10718 10713 10712 10709 ] final  137.54 input   66.30 | X-H torsion
[ 10763 10752 10751 10750 ] final  163.12 input  -60.55 | X-H torsion
[ 11005 11000 10999 10996 ] final -117.98 input  -57.11 | X-H torsion

> <Gold.Protein.ActiveResidues>
 VAL166  LYS551  ARG553  GLY616  TRP617  ASP618  TYR619  PRO620  LYS621  CYS622 
 ASP623  PHE694  ASN695  SER759  ASP760  ASP761  ALA762  ILE779  LEU786  VAL792 
 PHE793  MET794  SER795  GLU796  ALA797  LYS798  CYS799  TRP800  GLU811  SER814 

> <Gold.Protein.RotatedAtoms>
  150.9738  134.9106  159.7803 H   0  0  0  0  0  0  0  0  0  0  0  0  # atno 6907 bound_to 6896
  152.5199  134.3504  159.9259 H   0  0  0  0  0  0  0  0  0  0  0  0  # atno 6908 bound_to 6896
  151.3513  133.3883  159.2715 H   0  0  0  0  0  0  0  0  0  0  0  0  # atno 6909 bound_to 6896
  144.8365  139.6406  143.6035 H   0  0  0  0  0  0  0  0  0  0  0  0  # atno 7974 bound_to 7965
  154.4126  140.1206  156.5113 H   0  0  0  0  0  0  0  0  0  0  0  0  # atno 8008 bound_to 7997
  155.6796  140.3496  155.4831 H   0  0  0  0  0  0  0  0  0  0  0  0  # atno 8009 bound_to 7997
  155.9563  140.1114  157.0924 H   0  0  0  0  0  0  0  0  0  0  0  0  # atno 8010 bound_to 7997
  140.7061  143.5961  150.8844 H   0  0  0  0  0  0  0  0  0  0  0  0  # atno 10167 bound_to 10162
  157.4349  131.1052  151.0208 H   0  0  0  0  0  0  0  0  0  0  0  0  # atno 10718 bound_to 10713
  154.2888  135.2761  155.2664 H   0  0  0  0  0  0  0  0  0  0  0  0  # atno 10763 bound_to 10752
  154.5152  135.5771  153.6640 H   0  0  0  0  0  0  0  0  0  0  0  0  # atno 10764 bound_to 10752
  152.9917  135.6191  154.3052 H   0  0  0  0  0  0  0  0  0  0  0  0  # atno 10765 bound_to 10752
  141.0318  133.9970  157.3132 H   0  0  0  0  0  0  0  0  0  0  0  0  # atno 11005 bound_to 11000
  146.2663  139.6528  142.9327 LP  0  0  0  0  0  0  0  0  0  0  0  0  # atno 17320 bound_to 7965
  145.4783  141.0437  143.2660 LP  0  0  0  0  0  0  0  0  0  0  0  0  # atno 17321 bound_to 7965
  139.9686  143.6082  152.2980 LP  0  0  0  0  0  0  0  0  0  0  0  0  # atno 17342 bound_to 10162
  139.6661  144.7662  151.1871 LP  0  0  0  0  0  0  0  0  0  0  0  0  # atno 17343 bound_to 10162
  157.1091  130.6014  149.5478 LP  0  0  0  0  0  0  0  0  0  0  0  0  # atno 17370 bound_to 10713
  155.9927  130.4985  150.7350 LP  0  0  0  0  0  0  0  0  0  0  0  0  # atno 17371 bound_to 10713
  139.9213  135.0200  156.8073 LP  0  0  0  0  0  0  0  0  0  0  0  0  # atno 17394 bound_to 11000
  140.6394  133.9832  155.7700 LP  0  0  0  0  0  0  0  0  0  0  0  0  # atno 17395 bound_to 11000

$$$$
