AV-unprocessed.smi:2074|AV-procd|sdf|8452|dock10
  -GOLD-   2272011143D 1   1.00000     0.00000
 Structure written by MMmdl.
 43 44  0  0  0  0  0  0  0  0  1 V2000
  148.7125  136.9651  158.3332 C   0  0  0  0  0  0  0  0  0  0  0  0
  149.2972  135.6611  157.8725 C   0  0  0  0  0  0  0  0  0  0  0  0
  149.1274  134.5760  158.6089 N   0  0  0  0  0  0  0  0  0  0  0  0
  149.7897  133.5471  157.9327 O   0  0  0  0  0  0  0  0  0  0  0  0
  150.3409  134.0603  156.8035 C   0  0  0  0  0  0  0  0  0  0  0  0
  151.1048  133.1133  155.9418 C   0  0  0  0  0  0  0  0  0  0  0  0
  150.0634  135.3956  156.7005 C   0  0  0  0  0  0  0  0  0  0  0  0
  150.4740  136.3602  155.6155 C   0  0  0  0  0  0  0  0  0  0  0  0
  151.4964  137.3630  156.1565 C   0  0  0  0  0  0  0  0  0  0  0  0
  152.7011  137.1777  155.9804 O   0  0  0  0  0  0  0  0  0  0  0  0
  151.0038  138.4156  156.8275 N   0  0  0  0  0  0  0  0  0  0  0  0
  151.8097  139.4375  157.4901 C   0  0  0  0  0  0  0  0  0  0  0  0
  151.1296  140.8374  157.4843 C   0  0  2  0  0  0  0  0  0  0  0  0
  150.8071  141.2244  156.0185 C   0  0  0  0  0  0  0  0  0  0  0  0
  151.9122  141.8797  158.1883 N   0  0  0  0  0  0  0  0  0  0  0  0
  152.0684  141.6021  159.6210 C   0  0  0  0  0  0  0  0  0  0  0  0
  152.8515  142.7012  160.3600 C   0  0  0  0  0  0  0  0  0  0  0  0
  152.2094  143.9551  160.1748 O   0  0  0  0  0  0  0  0  0  0  0  0
  152.1048  144.3021  158.8012 C   0  0  0  0  0  0  0  0  0  0  0  0
  151.3169  143.2145  158.0510 C   0  0  0  0  0  0  0  0  0  0  0  0
  148.3739  137.5639  157.4878 H   0  0  0  0  0  0  0  0  0  0  0  0
  149.4535  137.5493  158.8792 H   0  0  0  0  0  0  0  0  0  0  0  0
  147.8573  136.8124  158.9922 H   0  0  0  0  0  0  0  0  0  0  0  0
  152.0075  133.5858  155.5547 H   0  0  0  0  0  0  0  0  0  0  0  0
  150.5006  132.7910  155.0939 H   0  0  0  0  0  0  0  0  0  0  0  0
  151.4034  132.2268  156.5020 H   0  0  0  0  0  0  0  0  0  0  0  0
  150.9215  135.8407  154.7679 H   0  0  0  0  0  0  0  0  0  0  0  0
  149.6062  136.8903  155.2203 H   0  0  0  0  0  0  0  0  0  0  0  0
  150.0015  138.4952  156.9190 H   0  0  0  0  0  0  0  0  0  0  0  0
  152.0120  139.0777  158.4975 H   0  0  0  0  0  0  0  0  0  0  0  0
  152.7752  139.4917  156.9863 H   0  0  0  0  0  0  0  0  0  0  0  0
  150.1753  140.7311  158.0030 H   0  0  0  0  0  0  0  0  0  0  0  0
  150.3115  140.4234  155.4723 H   0  0  0  0  0  0  0  0  0  0  0  0
  151.7145  141.4780  155.4693 H   0  0  0  0  0  0  0  0  0  0  0  0
  150.1271  142.0734  155.9585 H   0  0  0  0  0  0  0  0  0  0  0  0
  151.0877  141.4824  160.0842 H   0  0  0  0  0  0  0  0  0  0  0  0
  152.6103  140.6723  159.7792 H   0  0  0  0  0  0  0  0  0  0  0  0
  152.8985  142.4802  161.4264 H   0  0  0  0  0  0  0  0  0  0  0  0
  153.8795  142.7522  159.9980 H   0  0  0  0  0  0  0  0  0  0  0  0
  151.5975  145.2632  158.7158 H   0  0  0  0  0  0  0  0  0  0  0  0
  153.0998  144.4261  158.3707 H   0  0  0  0  0  0  0  0  0  0  0  0
  151.2797  143.5128  157.0048 H   0  0  0  0  0  0  0  0  0  0  0  0
  150.2877  143.1991  158.4130 H   0  0  0  0  0  0  0  0  0  0  0  0
  1  2  1  0  0  0  0
  1 21  1  0  0  0  0
  1 22  1  0  0  0  0
  1 23  1  0  0  0  0
  2  7  1  0  0  0  0
  2  3  2  0  0  0  0
  3  4  1  0  0  0  0
  4  5  1  0  0  0  0
  5  6  1  0  0  0  0
  5  7  2  0  0  0  0
  6 24  1  0  0  0  0
  6 25  1  0  0  0  0
  6 26  1  0  0  0  0
  7  8  1  0  0  0  0
  8  9  1  0  0  0  0
  8 27  1  0  0  0  0
  8 28  1  0  0  0  0
  9 10  2  0  0  0  0
  9 11  1  0  0  0  0
 11 12  1  0  0  0  0
 11 29  1  0  0  0  0
 12 13  1  0  0  0  0
 12 30  1  0  0  0  0
 12 31  1  0  0  0  0
 13 14  1  0  0  0  0
 13 15  1  0  0  0  0
 13 32  1  0  0  0  0
 14 33  1  0  0  0  0
 14 34  1  0  0  0  0
 14 35  1  0  0  0  0
 15 20  1  0  0  0  0
 15 16  1  0  0  0  0
 16 17  1  0  0  0  0
 16 36  1  0  0  0  0
 16 37  1  0  0  0  0
 17 18  1  0  0  0  0
 17 38  1  0  0  0  0
 17 39  1  0  0  0  0
 18 19  1  0  0  0  0
 19 20  1  0  0  0  0
 19 40  1  0  0  0  0
 19 41  1  0  0  0  0
 20 42  1  0  0  0  0
 20 43  1  0  0  0  0
M  END
> <s_m_source_file>
AV-unprocessed.smi

> <i_m_source_file_index>
2074

> <i_lp_mmshare_version>
43012

> <i_f3d_flags>
0

> <s_epik_input>
W0NIM11jMW5vYyhbQ0gzXSljMVtDSDJdQyg9TylbTkhdW0NIMl1bQ0BIXShbQ0gzXSlOMltDSDJdW0NIMl1PW0NIMl1bQ0gyXTI=

> <s_epik_cmdline>
J2VwaWtfcHl0aG9uJywgJy1waCcsICc3LjAnLCAnLXRuJywgJzgnLCAnLW1hJywgJzIwMCcsICctbWV0YWxfYmluZGluZycsICctaW1hZScsICc8aW5maWxlLm1hZT4nLCAnLW9tYWUnLCAnPG91dGZpbGUubWFlPic=

> <r_epik_Ionization_Penalty>
0.234179

> <r_epik_Ionization_Penalty_Charging>
0

> <r_epik_Ionization_Penalty_Neutral>
0.234179

> <r_epik_State_Penalty>
0.224936

> <r_epik_Charging_Adjusted_Penalty>
0.224936

> <i_epik_Tot_Q>
0

> <i_epik_Tot_abs_Q>
0

> <r_epik_Metal_State_Penalty>
0.224936

> <b_epik_Metal_Only>
0

> <s_lp_Force_Field>
OPLS_2005

> <r_lp_Energy>
22.7236

> <b_lp_Chiralities_Consistent>
1

> <s_lp_Variant>
AV-unprocessed.smi:2074-1

> <Gold.Version>
5.8.1

> <Gold.Id.Protein>
6NUR|6NUR_protein|mol2

> <Gold.PLP.Fitness>
34.4108

> <Gold.PLP.PLP>
-31.5335

> <Gold.PLP.part.hbond>
-3.0000

> <Gold.PLP.part.metal>
0.0000

> <Gold.PLP.part.buried>
-4.8831

> <Gold.PLP.part.nonpolar>
-23.9560

> <Gold.PLP.part.repulsive>
0.0531

> <Gold.PLP.ligand.clash>
0.0000

> <Gold.PLP.ligand.torsion>
0.6398

> <Gold.PLP.Chemscore.Hbond>
1.3728

> <Gold.PLP.Chemscore.CHOScore>
0.0000

> <Gold.PLP.Chemscore.Metal>
0.0000

> <Gold.Chemscore.Hbonds>
donor molecule, donor type, donor heavy atom, donor atom, acceptor molecule, acceptor atom, score
      P1  H  6896  6908       L1     4  0.35
      P1  H 10752 10764       L1    10  0.66

> <Gold.PLP.Chemscore.Internal.Correction>
0.0384

> <Gold.Rescore>
     Score         DG    S(hbond)    S(metal)    S(lipo)     H(rot)  DE(clash)    DE(int)     intcor
     13.10     -13.89       0.95        0.00      82.48       1.72       0.08       0.71       ----

> <Gold.Chemscore.Fitness>
13.0986

> <Gold.Chemscore.DG>
-13.8873

> <Gold.Chemscore.ZeroCoef>
-5.4800

> <Gold.Chemscore.Hbond>
0.9457

> <Gold.Chemscore.Metal>
0.0000

> <Gold.Chemscore.Lipo>
82.4840

> <Gold.Chemscore.Internal_Hbond>
0.0000

> <Gold.Chemscore.DEClash>
0.0792

> <Gold.Chemscore.DEInternal>
0.7094

> <Gold.Chemscore.Rot>
1.7195

> <Gold.Chemscore.Internal.Correction>
   9.000000E+99

> <Gold.Chemscore.Hbonds>
donor molecule, donor type, donor heavy atom, donor atom, acceptor molecule, acceptor atom, score
      P1  H 10752 10764       L1    10  0.52

> <Gold.Chemscore.Hbond.Weighted>
-3.1585

> <Gold.Chemscore.Metal.Weighted>
-0.0000

> <Gold.Chemscore.Lipo.Weighted>
-9.6506

> <Gold.Chemscore.Internal_Hbond.Weighted>
0.0000

> <Gold.Chemscore.DEClash.Weighted>
0.0792

> <Gold.Chemscore.DEInternal.Weighted>
0.7094

> <Gold.Chemscore.Rot.Weighted>
4.4018

> <Gold.Chemscore.Internal.Correction.Weighted>
   9.000000E+99

> <Gold.Protein.RotatedTorsions>
[ 6907 6896 6895 6894 ] final  102.00 input  -60.11 | X-H torsion
[ 7974 7965 7964 7962 ] final  128.30 input  175.53 | X-H torsion
[ 8008 7997 7996 7995 ] final  118.38 input   59.86 | X-H torsion
[ 10167 10162 10161 10158 ] final   78.91 input  -65.29 | X-H torsion
[ 10718 10713 10712 10709 ] final   -6.48 input   66.30 | X-H torsion
[ 10763 10752 10751 10750 ] final  -43.77 input  -60.55 | X-H torsion
[ 11005 11000 10999 10996 ] final -161.39 input  -57.11 | X-H torsion

> <Gold.Protein.ActiveResidues>
 VAL166  LYS551  ARG553  GLY616  TRP617  ASP618  TYR619  PRO620  LYS621  CYS622 
 ASP623  PHE694  ASN695  SER759  ASP760  ASP761  ALA762  ILE779  LEU786  VAL792 
 PHE793  MET794  SER795  GLU796  ALA797  LYS798  CYS799  TRP800  GLU811  SER814 

> <Gold.Protein.RotatedAtoms>
  152.5335  134.0042  159.7908 H   0  0  0  0  0  0  0  0  0  0  0  0  # atno 6907 bound_to 6896
  151.0255  133.5829  159.2673 H   0  0  0  0  0  0  0  0  0  0  0  0  # atno 6908 bound_to 6896
  151.2853  135.0733  159.9238 H   0  0  0  0  0  0  0  0  0  0  0  0  # atno 6909 bound_to 6896
  145.0410  139.3963  143.5102 H   0  0  0  0  0  0  0  0  0  0  0  0  # atno 7974 bound_to 7965
  156.2543  140.2876  156.0826 H   0  0  0  0  0  0  0  0  0  0  0  0  # atno 8008 bound_to 7997
  155.1550  140.0398  157.2847 H   0  0  0  0  0  0  0  0  0  0  0  0  # atno 8009 bound_to 7997
  154.6434  140.2527  155.7303 H   0  0  0  0  0  0  0  0  0  0  0  0  # atno 8010 bound_to 7997
  139.9659  144.5928  150.8029 H   0  0  0  0  0  0  0  0  0  0  0  0  # atno 10167 bound_to 10162
  156.7313  130.5181  149.5845 H   0  0  0  0  0  0  0  0  0  0  0  0  # atno 10718 bound_to 10713
  154.0011  135.6693  153.4759 H   0  0  0  0  0  0  0  0  0  0  0  0  # atno 10763 bound_to 10752
  153.0662  135.5000  154.8201 H   0  0  0  0  0  0  0  0  0  0  0  0  # atno 10764 bound_to 10752
  154.7052  135.3086  154.9244 H   0  0  0  0  0  0  0  0  0  0  0  0  # atno 10765 bound_to 10752
  140.6209  134.4752  157.5223 H   0  0  0  0  0  0  0  0  0  0  0  0  # atno 11005 bound_to 11000
  146.3509  140.0011  142.8676 LP  0  0  0  0  0  0  0  0  0  0  0  0  # atno 17320 bound_to 7965
  145.1647  140.9691  143.4356 LP  0  0  0  0  0  0  0  0  0  0  0  0  # atno 17321 bound_to 7965
  140.7538  143.3015  151.3069 LP  0  0  0  0  0  0  0  0  0  0  0  0  # atno 17342 bound_to 10162
  139.6518  144.0349  152.2631 LP  0  0  0  0  0  0  0  0  0  0  0  0  # atno 17343 bound_to 10162
  156.1527  130.6321  151.0617 LP  0  0  0  0  0  0  0  0  0  0  0  0  # atno 17370 bound_to 10713
  157.6858  131.0825  150.7247 LP  0  0  0  0  0  0  0  0  0  0  0  0  # atno 17371 bound_to 10713
  139.9154  134.8257  156.1385 LP  0  0  0  0  0  0  0  0  0  0  0  0  # atno 17394 bound_to 11000
  141.0743  133.6782  156.2204 LP  0  0  0  0  0  0  0  0  0  0  0  0  # atno 17395 bound_to 11000

$$$$
