AV-unprocessed.smi:2083|AV-procd|sdf|8494|dock7
  -GOLD-   2272011203D 1   1.00000     0.00000
 Structure written by MMmdl.
 45 46  0  0  0  0  0  0  0  0  2 V2000
  150.2158  141.8475  156.1851 C   0  0  0  0  0  0  0  0  0  0  0  0
  149.9439  140.6571  155.3306 C   0  0  0  0  0  0  0  0  0  0  0  0
  148.7986  140.1390  154.7941 C   0  0  0  0  0  0  0  0  0  0  0  0
  149.2640  138.9979  154.0882 C   0  0  0  0  0  0  0  0  0  0  0  0
  148.3654  138.1685  153.3693 N   0  0  0  0  0  0  0  0  0  0  0  0
  147.0289  138.2868  153.2926 C   0  0  0  0  0  0  0  0  0  0  0  0
  146.3615  139.1704  153.8315 O   0  0  0  0  0  0  0  0  0  0  0  0
  146.4897  137.3089  152.5500 N   0  0  0  0  0  0  0  0  0  0  0  0
  145.0603  137.1618  152.2921 C   0  0  0  0  0  0  0  0  0  0  0  0
  144.4928  135.8050  152.7844 C   0  0  2  0  0  0  0  0  0  0  0  0
  144.8429  135.5900  154.2766 C   0  0  0  0  0  0  0  0  0  0  0  0
  144.9574  134.7062  151.8762 N   0  3  1  0  0  0  0  0  0  0  0  0
  146.3626  134.2426  152.0653 C   0  0  0  0  0  0  0  0  0  0  0  0
  146.7713  133.2281  150.9840 C   0  0  0  0  0  0  0  0  0  0  0  0
  145.8059  132.0379  150.9356 C   0  0  0  0  0  0  0  0  0  0  0  0
  144.3507  132.5135  150.7925 C   0  0  2  0  0  0  0  0  0  0  0  0
  144.0234  133.0287  149.3801 C   0  0  0  0  0  0  0  0  0  0  0  0
  144.0159  133.5487  151.8844 C   0  0  0  0  0  0  0  0  0  0  0  0
  150.5744  138.8326  154.1870 N   0  0  0  0  0  0  0  0  0  0  0  0
  151.0167  139.8949  154.9842 O   0  0  0  0  0  0  0  0  0  0  0  0
  149.3586  142.5208  156.1990 H   0  0  0  0  0  0  0  0  0  0  0  0
  151.0757  142.4045  155.8124 H   0  0  0  0  0  0  0  0  0  0  0  0
  150.4259  141.5456  157.2113 H   0  0  0  0  0  0  0  0  0  0  0  0
  147.7925  140.5192  154.8915 H   0  0  0  0  0  0  0  0  0  0  0  0
  148.7851  137.3977  152.8707 H   0  0  0  0  0  0  0  0  0  0  0  0
  147.1048  136.6215  152.1390 H   0  0  0  0  0  0  0  0  0  0  0  0
  144.5409  138.0074  152.7426 H   0  0  0  0  0  0  0  0  0  0  0  0
  144.9030  137.2562  151.2171 H   0  0  0  0  0  0  0  0  0  0  0  0
  143.4032  135.8334  152.7281 H   0  0  0  0  0  0  0  0  0  0  0  0
  144.4901  136.4168  154.8930 H   0  0  0  0  0  0  0  0  0  0  0  0
  145.9197  135.5097  154.4286 H   0  0  0  0  0  0  0  0  0  0  0  0
  144.3697  134.6958  154.6826 H   0  0  0  0  0  0  0  0  0  0  0  0
  147.0616  135.0752  151.9961 H   0  0  0  0  0  0  0  0  0  0  0  0
  146.4745  133.8050  153.0585 H   0  0  0  0  0  0  0  0  0  0  0  0
  146.8016  133.7210  150.0117 H   0  0  0  0  0  0  0  0  0  0  0  0
  147.7844  132.8729  151.1747 H   0  0  0  0  0  0  0  0  0  0  0  0
  146.0723  131.3651  150.1197 H   0  0  0  0  0  0  0  0  0  0  0  0
  145.9069  131.4588  151.8545 H   0  0  0  0  0  0  0  0  0  0  0  0
  143.7100  131.6462  150.9581 H   0  0  0  0  0  0  0  0  0  0  0  0
  144.6010  133.9171  149.1247 H   0  0  0  0  0  0  0  0  0  0  0  0
  142.9678  133.2877  149.2944 H   0  0  0  0  0  0  0  0  0  0  0  0
  144.2348  132.2680  148.6282 H   0  0  0  0  0  0  0  0  0  0  0  0
  144.0575  133.0695  152.8642 H   0  0  0  0  0  0  0  0  0  0  0  0
  142.9859  133.8786  151.7557 H   0  0  0  0  0  0  0  0  0  0  0  0
  144.9288  135.0948  150.9444 H   0  0  0  0  0  0  0  0  0  0  0  0
  1  2  1  0  0  0  0
  1 21  1  0  0  0  0
  1 22  1  0  0  0  0
  1 23  1  0  0  0  0
  2 20  1  0  0  0  0
  2  3  2  0  0  0  0
  3  4  1  0  0  0  0
  3 24  1  0  0  0  0
  4  5  1  0  0  0  0
  4 19  2  0  0  0  0
  5  6  1  0  0  0  0
  5 25  1  0  0  0  0
  6  7  2  0  0  0  0
  6  8  1  0  0  0  0
  8  9  1  0  0  0  0
  8 26  1  0  0  0  0
  9 10  1  0  0  0  0
  9 27  1  0  0  0  0
  9 28  1  0  0  0  0
 10 11  1  0  0  0  0
 10 12  1  0  0  0  0
 10 29  1  0  0  0  0
 11 30  1  0  0  0  0
 11 31  1  0  0  0  0
 11 32  1  0  0  0  0
 12 18  1  0  0  0  0
 12 13  1  0  0  0  0
 12 45  1  0  0  0  0
 13 14  1  0  0  0  0
 13 33  1  0  0  0  0
 13 34  1  0  0  0  0
 14 15  1  0  0  0  0
 14 35  1  0  0  0  0
 14 36  1  0  0  0  0
 15 16  1  0  0  0  0
 15 37  1  0  0  0  0
 15 38  1  0  0  0  0
 16 17  1  0  0  0  0
 16 18  1  0  0  0  0
 16 39  1  0  0  0  0
 17 40  1  0  0  0  0
 17 41  1  0  0  0  0
 17 42  1  0  0  0  0
 18 43  1  0  0  0  0
 18 44  1  0  0  0  0
 19 20  1  0  0  0  0
M  CHG  1  12   1
M  END
> <s_m_source_file>
AV-unprocessed.smi

> <i_m_source_file_index>
2083

> <i_lp_mmshare_version>
43012

> <i_f3d_flags>
0

> <s_epik_input>
W0NIM11jMVtjSF1jKG5vMSlbTkhdQyg9TylbTkhdW0NIMl1bQ0BIXShbQ0gzXSlOMltDSDJdW0NIMl1bQ0gyXVtDQEBIXShbQ0gzXSlbQ0gyXTI=

> <s_epik_cmdline>
J2VwaWtfcHl0aG9uJywgJy1waCcsICc3LjAnLCAnLXRuJywgJzgnLCAnLW1hJywgJzIwMCcsICctbWV0YWxfYmluZGluZycsICctaW1hZScsICc8aW5maWxlLm1hZT4nLCAnLW9tYWUnLCAnPG91dGZpbGUubWFlPic=

> <r_epik_Ionization_Penalty>
0.00216453

> <r_epik_Ionization_Penalty_Charging>
0.00212879

> <r_epik_Ionization_Penalty_Neutral>
3.57418e-05

> <r_epik_State_Penalty>
0.00146033

> <r_epik_Charging_Adjusted_Penalty>
0.00358912

> <i_epik_Tot_Q>
1

> <i_epik_Tot_abs_Q>
1

> <r_epik_Metal_State_Penalty>
0.0215827

> <b_epik_Metal_Only>
0

> <s_lp_Force_Field>
OPLS_2005

> <r_lp_Energy>
21.862

> <b_lp_Chiralities_Consistent>
1

> <s_lp_Variant>
AV-unprocessed.smi:2083-5

> <Gold.Version>
5.8.1

> <Gold.Id.Protein>
6NUR|6NUR_protein|mol2

> <Gold.PLP.Fitness>
37.8227

> <Gold.PLP.PLP>
-31.0500

> <Gold.PLP.part.hbond>
-3.6457

> <Gold.PLP.part.metal>
0.0000

> <Gold.PLP.part.buried>
-2.3528

> <Gold.PLP.part.nonpolar>
-26.0067

> <Gold.PLP.part.repulsive>
0.5059

> <Gold.PLP.ligand.clash>
0.0000

> <Gold.PLP.ligand.torsion>
0.4274

> <Gold.PLP.Chemscore.Hbond>
2.5230

> <Gold.PLP.Chemscore.CHOScore>
0.0000

> <Gold.PLP.Chemscore.Metal>
0.0000

> <Gold.Chemscore.Hbonds>
donor molecule, donor type, donor heavy atom, donor atom, acceptor molecule, acceptor atom, score
      L1  H     5    25       P1  7948  1.00
      L1  H     8    26       P1  7948  0.85
      P1  H  7989  7998       L1    20  0.65

> <Gold.PLP.Chemscore.Internal.Correction>
0.0584

> <Gold.Rescore>
     Score         DG    S(hbond)    S(metal)    S(lipo)     H(rot)  DE(clash)    DE(int)     intcor
     14.65     -16.49       1.89        0.00      74.12       1.55       0.00       1.84       ----

> <Gold.Chemscore.Fitness>
14.6499

> <Gold.Chemscore.DG>
-16.4890

> <Gold.Chemscore.ZeroCoef>
-5.4800

> <Gold.Chemscore.Hbond>
1.8856

> <Gold.Chemscore.Metal>
0.0000

> <Gold.Chemscore.Lipo>
74.1232

> <Gold.Chemscore.Internal_Hbond>
0.0000

> <Gold.Chemscore.DEClash>
0.0018

> <Gold.Chemscore.DEInternal>
1.8374

> <Gold.Chemscore.Rot>
1.5474

> <Gold.Chemscore.Internal.Correction>
   9.000000E+99

> <Gold.Chemscore.Hbonds>
donor molecule, donor type, donor heavy atom, donor atom, acceptor molecule, acceptor atom, score
      L1  H     5    25       P1  7948  0.93
      L1  H     8    26       P1  7948  0.85
      P1  H  7989  7998       L1    20  0.01

> <Gold.Chemscore.Hbond.Weighted>
-6.2979

> <Gold.Chemscore.Metal.Weighted>
-0.0000

> <Gold.Chemscore.Lipo.Weighted>
-8.6724

> <Gold.Chemscore.Internal_Hbond.Weighted>
0.0000

> <Gold.Chemscore.DEClash.Weighted>
0.0018

> <Gold.Chemscore.DEInternal.Weighted>
1.8374

> <Gold.Chemscore.Rot.Weighted>
3.9612

> <Gold.Chemscore.Internal.Correction.Weighted>
   9.000000E+99

> <Gold.Protein.RotatedTorsions>
[ 6907 6896 6895 6894 ] final   12.15 input  -60.11 | X-H torsion
[ 7974 7965 7964 7962 ] final -154.97 input  175.53 | X-H torsion
[ 8008 7997 7996 7995 ] final    6.61 input   59.86 | X-H torsion
[ 10167 10162 10161 10158 ] final -175.53 input  -65.29 | X-H torsion
[ 10718 10713 10712 10709 ] final   -4.49 input   66.30 | X-H torsion
[ 10763 10752 10751 10750 ] final   97.93 input  -60.55 | X-H torsion
[ 11005 11000 10999 10996 ] final   56.09 input  -57.11 | X-H torsion

> <Gold.Protein.ActiveResidues>
 VAL166  LYS551  ARG553  GLY616  TRP617  ASP618  TYR619  PRO620  LYS621  CYS622 
 ASP623  PHE694  ASN695  SER759  ASP760  ASP761  ALA762  ILE779  LEU786  VAL792 
 PHE793  MET794  SER795  GLU796  ALA797  LYS798  CYS799  TRP800  GLU811  SER814 

> <Gold.Protein.RotatedAtoms>
  151.7658  135.0799  160.0352 H   0  0  0  0  0  0  0  0  0  0  0  0  # atno 6907 bound_to 6896
  152.3322  133.5967  159.5826 H   0  0  0  0  0  0  0  0  0  0  0  0  # atno 6908 bound_to 6896
  150.7429  133.9766  159.3604 H   0  0  0  0  0  0  0  0  0  0  0  0  # atno 6909 bound_to 6896
  144.7663  140.4314  143.5940 H   0  0  0  0  0  0  0  0  0  0  0  0  # atno 7974 bound_to 7965
  154.7433  140.2753  155.6355 H   0  0  0  0  0  0  0  0  0  0  0  0  # atno 8008 bound_to 7997
  156.2879  140.2693  156.2092 H   0  0  0  0  0  0  0  0  0  0  0  0  # atno 8009 bound_to 7997
  155.0231  140.0371  157.2435 H   0  0  0  0  0  0  0  0  0  0  0  0  # atno 8010 bound_to 7997
  139.5576  144.1949  152.1186 H   0  0  0  0  0  0  0  0  0  0  0  0  # atno 10167 bound_to 10162
  156.7606  130.5268  149.5786 H   0  0  0  0  0  0  0  0  0  0  0  0  # atno 10718 bound_to 10713
  153.2828  135.4166  155.1095 H   0  0  0  0  0  0  0  0  0  0  0  0  # atno 10763 bound_to 10752
  154.8495  135.3499  154.6088 H   0  0  0  0  0  0  0  0  0  0  0  0  # atno 10764 bound_to 10752
  153.6509  135.7053  153.5267 H   0  0  0  0  0  0  0  0  0  0  0  0  # atno 10765 bound_to 10752
  140.0556  134.5675  155.9212 H   0  0  0  0  0  0  0  0  0  0  0  0  # atno 11005 bound_to 11000
  145.6461  139.1557  143.2888 LP  0  0  0  0  0  0  0  0  0  0  0  0  # atno 17320 bound_to 7965
  146.1772  140.6554  142.9206 LP  0  0  0  0  0  0  0  0  0  0  0  0  # atno 17321 bound_to 7965
  140.1456  144.5161  150.6717 LP  0  0  0  0  0  0  0  0  0  0  0  0  # atno 17342 bound_to 10162
  140.6852  143.2346  151.5280 LP  0  0  0  0  0  0  0  0  0  0  0  0  # atno 17343 bound_to 10162
  156.1341  130.6199  151.0376 LP  0  0  0  0  0  0  0  0  0  0  0  0  # atno 17370 bound_to 10713
  157.6736  131.0855  150.7550 LP  0  0  0  0  0  0  0  0  0  0  0  0  # atno 17371 bound_to 10713
  141.1950  133.6585  156.5624 LP  0  0  0  0  0  0  0  0  0  0  0  0  # atno 17394 bound_to 11000
  140.3849  134.7491  157.4685 LP  0  0  0  0  0  0  0  0  0  0  0  0  # atno 17395 bound_to 11000

$$$$
