AV-unprocessed.smi:234|AV-procd|sdf|1800|dock7
  -GOLD-   2262020373D 1   1.00000     0.00000
 Structure written by MMmdl.
 59 62  0  0  0  0  0  0  0  0  1 V2000
  153.8971  140.1171  155.3485 C   0  0  0  0  0  0  0  0  0  0  0  0
  153.1558  138.7839  155.2297 C   0  0  0  0  0  0  0  0  0  0  0  0
  152.6711  138.6453  153.9044 O   0  0  0  0  0  0  0  0  0  0  0  0
  151.9575  137.4359  153.6988 C   0  0  1  0  0  0  0  0  0  0  0  0
  150.5785  137.4610  154.3560 C   0  0  0  0  0  0  0  0  0  0  0  0
  150.0349  136.7558  153.0981 C   0  0  2  0  0  0  0  0  0  0  0  0
  149.9214  135.2874  153.1646 N   0  0  0  0  0  0  0  0  0  0  0  0
  151.0753  134.4808  153.5359 C   0  0  0  0  0  0  0  0  0  0  0  0
  148.7416  134.6302  153.1146 C   0  0  0  0  0  0  0  0  0  0  0  0
  147.6218  135.2557  153.5578 N   0  0  0  0  0  0  0  0  0  0  0  0
  146.4464  134.6203  153.5256 C   0  0  0  0  0  0  0  0  0  0  0  0
  146.1790  133.3796  153.1115 N   0  0  0  0  0  0  0  0  0  0  0  0
  147.3080  132.7442  152.6846 C   0  0  0  0  0  0  0  0  0  0  0  0
  148.6202  133.2918  152.6544 C   0  0  0  0  0  0  0  0  0  0  0  0
  149.5185  132.3539  152.1617 N   0  0  0  0  0  0  0  0  0  0  0  0
  148.7765  131.3104  151.9079 C   0  0  0  0  0  0  0  0  0  0  0  0
  147.4385  131.4533  152.2028 N   0  0  0  0  0  0  0  0  0  0  0  0
  146.3955  130.4532  152.0292 C   0  0  0  0  0  0  0  0  0  0  0  0
  146.5356  129.2433  152.9903 C   0  0  2  0  0  0  0  0  0  0  0  0
  146.2281  129.6831  154.3024 O   0  0  0  0  0  0  0  0  0  0  0  0
  147.9428  128.6479  153.0146 C   0  0  0  0  0  0  0  0  0  0  0  0
  147.6939  127.1751  153.3018 C   0  0  0  0  0  0  0  0  0  0  0  0
  146.5333  126.9127  152.5344 O   0  0  0  0  0  0  0  0  0  0  0  0
  145.6380  128.0103  152.6845 C   0  0  2  0  0  0  0  0  0  0  0  0
  144.7543  128.0834  151.4294 C   0  0  0  0  0  0  0  0  0  0  0  0
  151.2723  137.2956  152.3154 C   0  0  0  0  0  0  0  0  0  0  0  0
  150.9962  138.6108  151.5724 C   0  0  0  0  0  0  0  0  0  0  0  0
  151.9730  136.3791  151.3048 C   0  0  0  0  0  0  0  0  0  0  0  0
  154.2804  140.2604  156.3589 H   0  0  0  0  0  0  0  0  0  0  0  0
  153.2374  140.9538  155.1189 H   0  0  0  0  0  0  0  0  0  0  0  0
  154.7418  140.1563  154.6605 H   0  0  0  0  0  0  0  0  0  0  0  0
  153.8294  137.9638  155.4786 H   0  0  0  0  0  0  0  0  0  0  0  0
  152.3257  138.7547  155.9368 H   0  0  0  0  0  0  0  0  0  0  0  0
  152.5212  136.5499  153.9970 H   0  0  0  0  0  0  0  0  0  0  0  0
  150.5184  136.9362  155.3068 H   0  0  0  0  0  0  0  0  0  0  0  0
  150.1868  138.4738  154.4595 H   0  0  0  0  0  0  0  0  0  0  0  0
  149.1056  137.2155  152.7598 H   0  0  0  0  0  0  0  0  0  0  0  0
  151.1919  133.6435  152.8471 H   0  0  0  0  0  0  0  0  0  0  0  0
  150.9671  134.0828  154.5451 H   0  0  0  0  0  0  0  0  0  0  0  0
  151.9887  135.0751  153.5020 H   0  0  0  0  0  0  0  0  0  0  0  0
  145.5993  135.1865  153.8841 H   0  0  0  0  0  0  0  0  0  0  0  0
  149.1894  130.3986  151.5014 H   0  0  0  0  0  0  0  0  0  0  0  0
  145.4292  130.9409  152.1653 H   0  0  0  0  0  0  0  0  0  0  0  0
  146.4307  130.1206  150.9916 H   0  0  0  0  0  0  0  0  0  0  0  0
  145.2886  129.6884  154.4048 H   0  0  0  0  0  0  0  0  0  0  0  0
  148.4039  128.7339  152.0300 H   0  0  0  0  0  0  0  0  0  0  0  0
  148.6118  129.1193  153.7363 H   0  0  0  0  0  0  0  0  0  0  0  0
  148.5275  126.5388  153.0038 H   0  0  0  0  0  0  0  0  0  0  0  0
  147.4868  127.0073  154.3599 H   0  0  0  0  0  0  0  0  0  0  0  0
  144.9972  127.7883  153.5403 H   0  0  0  0  0  0  0  0  0  0  0  0
  144.0405  128.9048  151.4929 H   0  0  0  0  0  0  0  0  0  0  0  0
  144.1816  127.1634  151.3110 H   0  0  0  0  0  0  0  0  0  0  0  0
  145.3492  128.2140  150.5255 H   0  0  0  0  0  0  0  0  0  0  0  0
  150.3443  138.4525  150.7129 H   0  0  0  0  0  0  0  0  0  0  0  0
  151.9148  139.0693  151.2052 H   0  0  0  0  0  0  0  0  0  0  0  0
  150.5076  139.3456  152.2124 H   0  0  0  0  0  0  0  0  0  0  0  0
  151.3129  136.1150  150.4784 H   0  0  0  0  0  0  0  0  0  0  0  0
  152.3149  135.4517  151.7622 H   0  0  0  0  0  0  0  0  0  0  0  0
  152.8543  136.8548  150.8738 H   0  0  0  0  0  0  0  0  0  0  0  0
  1  2  1  0  0  0  0
  1 29  1  0  0  0  0
  1 30  1  0  0  0  0
  1 31  1  0  0  0  0
  2  3  1  0  0  0  0
  2 32  1  0  0  0  0
  2 33  1  0  0  0  0
  3  4  1  0  0  0  0
  4 26  1  0  0  0  0
  4  5  1  0  0  0  0
  4 34  1  0  0  0  0
  5  6  1  0  0  0  0
  5 35  1  0  0  0  0
  5 36  1  0  0  0  0
  6  7  1  0  0  0  0
  6 26  1  0  0  0  0
  6 37  1  0  0  0  0
  7  8  1  0  0  0  0
  7  9  1  0  0  0  0
  8 38  1  0  0  0  0
  8 39  1  0  0  0  0
  8 40  1  0  0  0  0
  9 14  1  0  0  0  0
  9 10  2  0  0  0  0
 10 11  1  0  0  0  0
 11 12  2  0  0  0  0
 11 41  1  0  0  0  0
 12 13  1  0  0  0  0
 13 17  1  0  0  0  0
 13 14  2  0  0  0  0
 14 15  1  0  0  0  0
 15 16  2  0  0  0  0
 16 17  1  0  0  0  0
 16 42  1  0  0  0  0
 17 18  1  0  0  0  0
 18 19  1  0  0  0  0
 18 43  1  0  0  0  0
 18 44  1  0  0  0  0
 19 24  1  0  0  0  0
 19 20  1  0  0  0  0
 19 21  1  0  0  0  0
 20 45  1  0  0  0  0
 21 22  1  0  0  0  0
 21 46  1  0  0  0  0
 21 47  1  0  0  0  0
 22 23  1  0  0  0  0
 22 48  1  0  0  0  0
 22 49  1  0  0  0  0
 23 24  1  0  0  0  0
 24 25  1  0  0  0  0
 24 50  1  0  0  0  0
 25 51  1  0  0  0  0
 25 52  1  0  0  0  0
 25 53  1  0  0  0  0
 26 27  1  0  0  0  0
 26 28  1  0  0  0  0
 27 54  1  0  0  0  0
 27 55  1  0  0  0  0
 27 56  1  0  0  0  0
 28 57  1  0  0  0  0
 28 58  1  0  0  0  0
 28 59  1  0  0  0  0
M  END
> <s_m_source_file>
AV-unprocessed.smi

> <i_m_source_file_index>
234

> <i_lp_mmshare_version>
43012

> <i_f3d_flags>
0

> <s_epik_input>
W0NIM11bQ0gyXU9bQ0BASF0oQzEoW0NIM10pW0NIM10pW0NIMl1bQ0BIXTFOKFtDSDNdKWMobltjSF1uMiljKGMyMyluW2NIXW4zW0NIMl1bQ0BAXTQoW09IXSlbQ0gyXVtDSDJdT1tDQEhdNFtDSDNd

> <s_epik_cmdline>
J2VwaWtfcHl0aG9uJywgJy1waCcsICc3LjAnLCAnLXRuJywgJzgnLCAnLW1hJywgJzIwMCcsICctbWV0YWxfYmluZGluZycsICctaW1hZScsICc8aW5maWxlLm1hZT4nLCAnLW9tYWUnLCAnPG91dGZpbGUubWFlPic=

> <r_lp_tautomer_probability>
1

> <r_epik_Ionization_Penalty>
0.00349132

> <r_epik_Ionization_Penalty_Charging>
0

> <r_epik_Ionization_Penalty_Neutral>
0.00349132

> <r_epik_State_Penalty>
0.00242418

> <r_epik_Charging_Adjusted_Penalty>
0.00242418

> <i_epik_Tot_Q>
0

> <i_epik_Tot_abs_Q>
0

> <r_epik_Metal_State_Penalty>
-0

> <b_epik_Metal_Only>
0

> <s_lp_Force_Field>
OPLS_2005

> <r_lp_Energy>
53.0859

> <b_lp_Chiralities_Consistent>
1

> <s_lp_Variant>
AV-unprocessed.smi:234-16

> <Gold.Version>
5.8.1

> <Gold.Id.Protein>
6NUR|6NUR_protein|mol2

> <Gold.PLP.Fitness>
37.6379

> <Gold.PLP.PLP>
-32.9472

> <Gold.PLP.part.hbond>
-1.0000

> <Gold.PLP.part.metal>
0.0000

> <Gold.PLP.part.buried>
-6.1499

> <Gold.PLP.part.nonpolar>
-27.3324

> <Gold.PLP.part.repulsive>
0.3516

> <Gold.PLP.ligand.clash>
0.0000

> <Gold.PLP.ligand.torsion>
0.8988

> <Gold.PLP.Chemscore.Hbond>
1.0000

> <Gold.PLP.Chemscore.CHOScore>
0.9455

> <Gold.PLP.Chemscore.Metal>
0.0000

> <Gold.Chemscore.Hbonds>
donor molecule, donor type, donor heavy atom, donor atom, acceptor molecule, acceptor atom, score
      L1  H    20    45       P1 10956  0.96

> <Gold.PLP.Chemscore.Internal.Correction>
0.6518

> <Gold.Rescore>
     Score         DG    S(hbond)    S(metal)    S(lipo)     H(rot)  DE(clash)    DE(int)     intcor
      9.54     -12.50       0.90        0.00      86.00       2.37       0.40       2.56       ----

> <Gold.Chemscore.Fitness>
9.5412

> <Gold.Chemscore.DG>
-12.4978

> <Gold.Chemscore.ZeroCoef>
-5.4800

> <Gold.Chemscore.Hbond>
0.9031

> <Gold.Chemscore.Metal>
0.0000

> <Gold.Chemscore.Lipo>
86.0027

> <Gold.Chemscore.Internal_Hbond>
0.0000

> <Gold.Chemscore.DEClash>
0.3961

> <Gold.Chemscore.DEInternal>
2.5605

> <Gold.Chemscore.Rot>
2.3676

> <Gold.Chemscore.Internal.Correction>
   9.000000E+99

> <Gold.Chemscore.Hbonds>
donor molecule, donor type, donor heavy atom, donor atom, acceptor molecule, acceptor atom, score
      L1  H    20    45       P1 10956  0.80
      P1  H  7989  7998       L1     3  0.01

> <Gold.Chemscore.Hbond.Weighted>
-3.0165

> <Gold.Chemscore.Metal.Weighted>
-0.0000

> <Gold.Chemscore.Lipo.Weighted>
-10.0623

> <Gold.Chemscore.Internal_Hbond.Weighted>
0.0000

> <Gold.Chemscore.DEClash.Weighted>
0.3961

> <Gold.Chemscore.DEInternal.Weighted>
2.5605

> <Gold.Chemscore.Rot.Weighted>
6.0610

> <Gold.Chemscore.Internal.Correction.Weighted>
   9.000000E+99

> <Gold.Protein.RotatedTorsions>
[ 6907 6896 6895 6894 ] final  163.04 input  -60.11 | X-H torsion
[ 7974 7965 7964 7962 ] final -133.19 input  175.53 | X-H torsion
[ 8008 7997 7996 7995 ] final  164.31 input   59.86 | X-H torsion
[ 10167 10162 10161 10158 ] final -129.29 input  -65.29 | X-H torsion
[ 10718 10713 10712 10709 ] final   -3.10 input   66.30 | X-H torsion
[ 10763 10752 10751 10750 ] final -163.26 input  -60.55 | X-H torsion
[ 11005 11000 10999 10996 ] final  159.60 input  -57.11 | X-H torsion

> <Gold.Protein.ActiveResidues>
 VAL166  LYS551  ARG553  GLY616  TRP617  ASP618  TYR619  PRO620  LYS621  CYS622 
 ASP623  PHE694  ASN695  SER759  ASP760  ASP761  ALA762  ILE779  LEU786  VAL792 
 PHE793  MET794  SER795  GLU796  ALA797  LYS798  CYS799  TRP800  GLU811  SER814 

> <Gold.Protein.RotatedAtoms>
  151.9313  133.3612  159.3931 H   0  0  0  0  0  0  0  0  0  0  0  0  # atno 6907 bound_to 6896
  150.7016  134.4534  159.5356 H   0  0  0  0  0  0  0  0  0  0  0  0  # atno 6908 bound_to 6896
  152.2175  134.8444  160.0541 H   0  0  0  0  0  0  0  0  0  0  0  0  # atno 6909 bound_to 6896
  144.9216  140.7020  143.4962 H   0  0  0  0  0  0  0  0  0  0  0  0  # atno 7974 bound_to 7965
  156.1889  140.1700  156.8130 H   0  0  0  0  0  0  0  0  0  0  0  0  # atno 8008 bound_to 7997
  154.5448  140.0729  156.8602 H   0  0  0  0  0  0  0  0  0  0  0  0  # atno 8009 bound_to 7997
  155.3144  140.3369  155.4245 H   0  0  0  0  0  0  0  0  0  0  0  0  # atno 8010 bound_to 7997
  139.9413  143.6160  152.2502 H   0  0  0  0  0  0  0  0  0  0  0  0  # atno 10167 bound_to 10162
  156.7810  130.5331  149.5751 H   0  0  0  0  0  0  0  0  0  0  0  0  # atno 10718 bound_to 10713
  154.7138  135.3011  154.9155 H   0  0  0  0  0  0  0  0  0  0  0  0  # atno 10763 bound_to 10752
  154.0048  135.6702  153.4765 H   0  0  0  0  0  0  0  0  0  0  0  0  # atno 10764 bound_to 10752
  153.0777  135.5026  154.8353 H   0  0  0  0  0  0  0  0  0  0  0  0  # atno 10765 bound_to 10752
  140.1977  134.8360  157.2984 H   0  0  0  0  0  0  0  0  0  0  0  0  # atno 11005 bound_to 11000
  145.3287  139.1766  143.4548 LP  0  0  0  0  0  0  0  0  0  0  0  0  # atno 17320 bound_to 7965
  146.3207  140.3314  142.8640 LP  0  0  0  0  0  0  0  0  0  0  0  0  # atno 17321 bound_to 7965
  139.6702  144.7661  151.1797 LP  0  0  0  0  0  0  0  0  0  0  0  0  # atno 17342 bound_to 10162
  140.7610  143.5877  150.8829 LP  0  0  0  0  0  0  0  0  0  0  0  0  # atno 17343 bound_to 10162
  156.1218  130.6115  151.0204 LP  0  0  0  0  0  0  0  0  0  0  0  0  # atno 17370 bound_to 10713
  157.6646  131.0874  150.7758 LP  0  0  0  0  0  0  0  0  0  0  0  0  # atno 17371 bound_to 10713
  140.2088  134.4164  155.7623 LP  0  0  0  0  0  0  0  0  0  0  0  0  # atno 17394 bound_to 11000
  141.2227  133.7108  156.8305 LP  0  0  0  0  0  0  0  0  0  0  0  0  # atno 17395 bound_to 11000

$$$$
