AV-unprocessed.smi:1586|AV-procd|sdf|6379|dock4
  -GOLD-   22720 7 13D 1   1.00000     0.00000
 Structure written by MMmdl.
 46 47  0  0  0  0  0  0  0  0  3 V2000
  143.5404  132.5859  150.5985 C   0  0  0  0  0  0  0  0  0  0  0  0
  143.8242  133.6757  151.6420 C   0  0  0  0  0  0  0  0  0  0  0  0
  144.5484  133.1565  152.8286 N   0  3  0  0  0  0  0  0  0  0  0  0
  144.9392  134.2385  153.7654 C   0  0  0  0  0  0  0  0  0  0  0  0
  145.6638  133.6561  154.9974 C   0  0  0  0  0  0  0  0  0  0  0  0
  146.8769  132.9174  154.6181 N   0  0  0  0  0  0  0  0  0  0  0  0
  147.9739  133.7354  154.0497 C   0  0  2  0  0  0  0  0  0  0  0  0
  149.2638  132.8908  153.9121 C   0  0  0  0  0  0  0  0  0  0  0  0
  148.2351  135.0030  154.9081 C   0  0  0  0  0  0  0  0  0  0  0  0
  149.5428  135.5972  154.6412 N   0  0  0  0  0  0  0  0  0  0  0  0
  150.5766  135.6734  155.4917 C   0  0  0  0  0  0  0  0  0  0  0  0
  150.4756  135.2123  156.6307 O   0  0  0  0  0  0  0  0  0  0  0  0
  151.6685  136.2693  154.9604 N   0  5  0  0  0  0  0  0  0  0  0  0
  151.8902  137.5774  155.1618 C   0  0  0  0  0  0  0  0  0  0  0  0
  151.0435  138.4659  155.8793 C   0  0  0  0  0  0  0  0  0  0  0  0
  151.7119  139.6553  155.8142 C   0  0  0  0  0  0  0  0  0  0  0  0
  151.4095  141.0155  156.3437 C   0  0  0  0  0  0  0  0  0  0  0  0
  152.8741  139.5063  155.1233 O   0  0  0  0  0  0  0  0  0  0  0  0
  152.9836  138.1717  154.7145 N   0  0  0  0  0  0  0  0  0  0  0  0
  146.4184  131.8070  153.7702 C   0  0  0  0  0  0  0  0  0  0  0  0
  145.7215  132.3113  152.4881 C   0  0  0  0  0  0  0  0  0  0  0  0
  142.9270  132.9823  149.7891 H   0  0  0  0  0  0  0  0  0  0  0  0
  143.0008  131.7477  151.0403 H   0  0  0  0  0  0  0  0  0  0  0  0
  144.4554  132.2008  150.1496 H   0  0  0  0  0  0  0  0  0  0  0  0
  144.3814  134.5003  151.1948 H   0  0  0  0  0  0  0  0  0  0  0  0
  142.8670  134.0880  151.9636 H   0  0  0  0  0  0  0  0  0  0  0  0
  145.5580  134.9778  153.2551 H   0  0  0  0  0  0  0  0  0  0  0  0
  144.0427  134.7630  154.0973 H   0  0  0  0  0  0  0  0  0  0  0  0
  145.8795  134.4362  155.7245 H   0  0  0  0  0  0  0  0  0  0  0  0
  144.9905  132.9742  155.5193 H   0  0  0  0  0  0  0  0  0  0  0  0
  147.6966  134.0712  153.0516 H   0  0  0  0  0  0  0  0  0  0  0  0
  150.0998  133.4846  153.5452 H   0  0  0  0  0  0  0  0  0  0  0  0
  149.1588  132.0807  153.1923 H   0  0  0  0  0  0  0  0  0  0  0  0
  149.5629  132.4626  154.8695 H   0  0  0  0  0  0  0  0  0  0  0  0
  147.5291  135.7953  154.6682 H   0  0  0  0  0  0  0  0  0  0  0  0
  148.1021  134.7827  155.9686 H   0  0  0  0  0  0  0  0  0  0  0  0
  149.6807  135.9909  153.7221 H   0  0  0  0  0  0  0  0  0  0  0  0
  150.0986  138.2624  156.3601 H   0  0  0  0  0  0  0  0  0  0  0  0
  151.4471  141.0212  157.4330 H   0  0  0  0  0  0  0  0  0  0  0  0
  150.4133  141.3349  156.0379 H   0  0  0  0  0  0  0  0  0  0  0  0
  152.1269  141.7499  155.9766 H   0  0  0  0  0  0  0  0  0  0  0  0
  147.2335  131.1290  153.5247 H   0  0  0  0  0  0  0  0  0  0  0  0
  145.7174  131.1981  154.3429 H   0  0  0  0  0  0  0  0  0  0  0  0
  145.3960  131.4471  151.9101 H   0  0  0  0  0  0  0  0  0  0  0  0
  146.4158  132.8623  151.8528 H   0  0  0  0  0  0  0  0  0  0  0  0
  143.9015  132.5688  153.3346 H   0  0  0  0  0  0  0  0  0  0  0  0
  1  2  1  0  0  0  0
  1 22  1  0  0  0  0
  1 23  1  0  0  0  0
  1 24  1  0  0  0  0
  2  3  1  0  0  0  0
  2 25  1  0  0  0  0
  2 26  1  0  0  0  0
  3 21  1  0  0  0  0
  3  4  1  0  0  0  0
  3 46  1  0  0  0  0
  4  5  1  0  0  0  0
  4 27  1  0  0  0  0
  4 28  1  0  0  0  0
  5  6  1  0  0  0  0
  5 29  1  0  0  0  0
  5 30  1  0  0  0  0
  6  7  1  0  0  0  0
  6 20  1  0  0  0  0
  7  8  1  0  0  0  0
  7  9  1  0  0  0  0
  7 31  1  0  0  0  0
  8 32  1  0  0  0  0
  8 33  1  0  0  0  0
  8 34  1  0  0  0  0
  9 10  1  0  0  0  0
  9 35  1  0  0  0  0
  9 36  1  0  0  0  0
 10 11  1  0  0  0  0
 10 37  1  0  0  0  0
 11 12  2  0  0  0  0
 11 13  1  0  0  0  0
 13 14  1  0  0  0  0
 14 19  2  0  0  0  0
 14 15  1  0  0  0  0
 15 16  2  0  0  0  0
 15 38  1  0  0  0  0
 16 17  1  0  0  0  0
 16 18  1  0  0  0  0
 17 39  1  0  0  0  0
 17 40  1  0  0  0  0
 17 41  1  0  0  0  0
 18 19  1  0  0  0  0
 20 21  1  0  0  0  0
 20 42  1  0  0  0  0
 20 43  1  0  0  0  0
 21 44  1  0  0  0  0
 21 45  1  0  0  0  0
M  CHG  1   3   1
M  CHG  1  13  -1
M  END
> <s_m_source_file>
AV-unprocessed.smi

> <i_m_source_file_index>
1586

> <i_lp_mmshare_version>
43012

> <i_f3d_flags>
0

> <s_epik_input>
W0NIM11bQ0gyXU4xW0NIMl1bQ0gyXU4oW0NIMl1bQ0gyXTEpW0NASF0oW0NIM10pW0NIMl1bTkhdQyg9TylbTkhdYzJbY0hdYyhbQ0gzXSlvbjI=

> <s_epik_cmdline>
J2VwaWtfcHl0aG9uJywgJy1waCcsICc3LjAnLCAnLXRuJywgJzgnLCAnLW1hJywgJzIwMCcsICctbWV0YWxfYmluZGluZycsICctaW1hZScsICc8aW5maWxlLm1hZT4nLCAnLW9tYWUnLCAnPG91dGZpbGUubWFlPic=

> <r_epik_Ionization_Penalty>
6.66134

> <r_epik_Ionization_Penalty_Charging>
6.66063

> <r_epik_Ionization_Penalty_Neutral>
0.000714131

> <r_epik_State_Penalty>
6.77843

> <r_epik_Charging_Adjusted_Penalty>
13.4391

> <i_epik_Tot_Q>
0

> <i_epik_Tot_abs_Q>
2

> <r_epik_Metal_State_Penalty>
2.70494

> <b_epik_Metal_Only>
1

> <s_lp_Force_Field>
OPLS_2005

> <r_lp_Energy>
11.4851

> <b_lp_Chiralities_Consistent>
1

> <s_lp_Variant>
AV-unprocessed.smi:1586-7

> <Gold.Version>
5.8.1

> <Gold.Id.Protein>
6NUR|6NUR_protein|mol2

> <Gold.PLP.Fitness>
48.0735

> <Gold.PLP.PLP>
-32.0194

> <Gold.PLP.part.hbond>
-5.4127

> <Gold.PLP.part.metal>
0.0000

> <Gold.PLP.part.buried>
-6.1424

> <Gold.PLP.part.nonpolar>
-22.0187

> <Gold.PLP.part.repulsive>
0.2751

> <Gold.PLP.ligand.clash>
0.0000

> <Gold.PLP.ligand.torsion>
1.0840

> <Gold.PLP.Chemscore.Hbond>
6.0237

> <Gold.PLP.Chemscore.CHOScore>
0.0000

> <Gold.PLP.Chemscore.Metal>
0.0000

> <Gold.Chemscore.Hbonds>
donor molecule, donor type, donor heavy atom, donor atom, acceptor molecule, acceptor atom, score
      L1  H     3    46       P1 10957  1.89
      L1  H    10    37       P1  7948  0.96
      P1  H  7997  8010       L1    18  1.00
      P1  H 10752 10764       L1    13  2.00

> <Gold.PLP.Chemscore.Internal.Correction>
0.1509

> <Gold.Rescore>
     Score         DG    S(hbond)    S(metal)    S(lipo)     H(rot)  DE(clash)    DE(int)     intcor
     15.80     -17.37       3.02        0.00      53.22       1.73       0.22       1.35       ----

> <Gold.Chemscore.Fitness>
15.7965

> <Gold.Chemscore.DG>
-17.3657

> <Gold.Chemscore.ZeroCoef>
-5.4800

> <Gold.Chemscore.Hbond>
3.0163

> <Gold.Chemscore.Metal>
0.0000

> <Gold.Chemscore.Lipo>
53.2250

> <Gold.Chemscore.Internal_Hbond>
0.0000

> <Gold.Chemscore.DEClash>
0.2221

> <Gold.Chemscore.DEInternal>
1.3470

> <Gold.Chemscore.Rot>
1.7250

> <Gold.Chemscore.Internal.Correction>
   9.000000E+99

> <Gold.Chemscore.Hbonds>
donor molecule, donor type, donor heavy atom, donor atom, acceptor molecule, acceptor atom, score
      L1  H     3    46       P1 10957  0.23
      L1  H    10    37       P1  7948  0.27
      P1  H  7997  8010       L1    18  0.84
      P1  H 10752 10764       L1    13  0.68

> <Gold.Chemscore.Hbond.Weighted>
-10.0745

> <Gold.Chemscore.Metal.Weighted>
-0.0000

> <Gold.Chemscore.Lipo.Weighted>
-6.2273

> <Gold.Chemscore.Internal_Hbond.Weighted>
0.0000

> <Gold.Chemscore.DEClash.Weighted>
0.2221

> <Gold.Chemscore.DEInternal.Weighted>
1.3470

> <Gold.Chemscore.Rot.Weighted>
4.4161

> <Gold.Chemscore.Internal.Correction.Weighted>
   9.000000E+99

> <Gold.Protein.RotatedTorsions>
[ 6907 6896 6895 6894 ] final  -83.09 input  -60.11 | X-H torsion
[ 7974 7965 7964 7962 ] final  111.92 input  175.53 | X-H torsion
[ 8008 7997 7996 7995 ] final  103.54 input   59.86 | X-H torsion
[ 10167 10162 10161 10158 ] final -137.45 input  -65.29 | X-H torsion
[ 10718 10713 10712 10709 ] final  -43.00 input   66.30 | X-H torsion
[ 10763 10752 10751 10750 ] final  -43.78 input  -60.55 | X-H torsion
[ 11005 11000 10999 10996 ] final  -82.62 input  -57.11 | X-H torsion

> <Gold.Protein.ActiveResidues>
 VAL166  LYS551  ARG553  GLY616  TRP617  ASP618  TYR619  PRO620  LYS621  CYS622 
 ASP623  PHE694  ASN695  SER759  ASP760  ASP761  ALA762  ILE779  LEU786  VAL792 
 PHE793  MET794  SER795  GLU796  ALA797  LYS798  CYS799  TRP800  GLU811  SER814 

> <Gold.Protein.RotatedAtoms>
  150.6889  134.3565  159.4931 H   0  0  0  0  0  0  0  0  0  0  0  0  # atno 6907 bound_to 6896
  152.1399  134.9068  160.0563 H   0  0  0  0  0  0  0  0  0  0  0  0  # atno 6908 bound_to 6896
  152.0205  133.3862  159.4293 H   0  0  0  0  0  0  0  0  0  0  0  0  # atno 6909 bound_to 6896
  145.2361  139.2798  143.4142 H   0  0  0  0  0  0  0  0  0  0  0  0  # atno 7974 bound_to 7965
  156.1493  140.3163  155.8622 H   0  0  0  0  0  0  0  0  0  0  0  0  # atno 8008 bound_to 7997
  155.4002  140.0499  157.3054 H   0  0  0  0  0  0  0  0  0  0  0  0  # atno 8009 bound_to 7997
  154.5044  140.2141  155.9292 H   0  0  0  0  0  0  0  0  0  0  0  0  # atno 8010 bound_to 7997
  139.8577  143.7117  152.2653 H   0  0  0  0  0  0  0  0  0  0  0  0  # atno 10167 bound_to 10162
  156.2536  130.4190  149.8621 H   0  0  0  0  0  0  0  0  0  0  0  0  # atno 10718 bound_to 10713
  154.0012  135.6693  153.4759 H   0  0  0  0  0  0  0  0  0  0  0  0  # atno 10763 bound_to 10752
  153.0662  135.5000  154.8200 H   0  0  0  0  0  0  0  0  0  0  0  0  # atno 10764 bound_to 10752
  154.7052  135.3086  154.9244 H   0  0  0  0  0  0  0  0  0  0  0  0  # atno 10765 bound_to 10752
  141.1662  133.7253  156.8598 H   0  0  0  0  0  0  0  0  0  0  0  0  # atno 11005 bound_to 11000
  146.3340  140.2710  142.8606 LP  0  0  0  0  0  0  0  0  0  0  0  0  # atno 17320 bound_to 7965
  144.9632  140.8295  143.5501 LP  0  0  0  0  0  0  0  0  0  0  0  0  # atno 17321 bound_to 7965
  139.7404  144.7561  151.0661 LP  0  0  0  0  0  0  0  0  0  0  0  0  # atno 17342 bound_to 10162
  140.7779  143.4979  150.9809 LP  0  0  0  0  0  0  0  0  0  0  0  0  # atno 17343 bound_to 10162
  156.6161  130.8607  151.3465 LP  0  0  0  0  0  0  0  0  0  0  0  0  # atno 17370 bound_to 10713
  157.7224  130.9576  150.1493 LP  0  0  0  0  0  0  0  0  0  0  0  0  # atno 17371 bound_to 10713
  140.1856  134.9002  157.3001 LP  0  0  0  0  0  0  0  0  0  0  0  0  # atno 17394 bound_to 11000
  140.2346  134.3868  155.7507 LP  0  0  0  0  0  0  0  0  0  0  0  0  # atno 17395 bound_to 11000

$$$$
