AV-unprocessed.smi:258|AV-procd|sdf|1970|dock6
  -GOLD-   2262021133D 1   1.00000     0.00000
 Structure written by MMmdl.
 57 60  0  0  0  0  0  0  0  0  1 V2000
  151.1014  139.6079  154.4341 O   0  0  0  0  0  0  0  0  0  0  0  0
  151.5964  140.1390  155.6442 C   0  0  0  0  0  0  0  0  0  0  0  0
  150.8605  141.4457  155.9785 C   0  0  0  0  0  0  0  0  0  0  0  0
  150.7043  141.5984  157.3837 O   0  0  0  0  0  0  0  0  0  0  0  0
  151.8370  142.1193  158.0690 C   0  0  1  0  0  0  0  0  0  0  0  0
  151.3893  143.3827  158.8216 C   0  0  0  0  0  0  0  0  0  0  0  0
  152.5446  143.9361  159.6689 C   0  0  0  0  0  0  0  0  0  0  0  0
  153.0917  142.8603  160.6207 C   0  0  0  0  0  0  0  0  0  0  0  0
  153.4576  141.6500  159.8853 N   0  0  0  0  0  0  0  0  0  0  0  0
  154.2500  140.7898  160.5742 C   0  0  0  0  0  0  0  0  0  0  0  0
  155.1888  141.2703  161.4334 N   0  0  0  0  0  0  0  0  0  0  0  0
  155.9815  140.4313  162.1065 C   0  0  0  0  0  0  0  0  0  0  0  0
  156.0020  139.0979  162.0760 N   0  0  0  0  0  0  0  0  0  0  0  0
  155.0558  138.6082  161.2252 C   0  0  0  0  0  0  0  0  0  0  0  0
  154.1493  139.3760  160.4402 C   0  0  0  0  0  0  0  0  0  0  0  0
  153.3322  138.5296  159.6997 N   0  0  0  0  0  0  0  0  0  0  0  0
  153.7384  137.3316  160.0206 C   0  0  0  0  0  0  0  0  0  0  0  0
  154.7564  137.2859  160.9466 N   0  0  0  0  0  0  0  0  0  0  0  0
  155.3968  136.0939  161.4742 C   0  0  0  0  0  0  0  0  0  0  0  0
  155.0451  135.7584  162.9509 C   0  0  2  0  0  0  0  0  0  0  0  0
  155.4896  136.9326  163.8569 C   0  0  0  0  0  0  0  0  0  0  0  0
  154.7363  136.9766  165.0512 O   0  0  0  0  0  0  0  0  0  0  0  0
  155.6507  134.4053  163.4319 C   0  0  1  0  0  0  0  0  0  0  0  0
  155.0860  133.8720  164.7409 C   0  0  0  0  0  0  0  0  0  0  0  0
  155.4843  132.4050  164.6934 C   0  0  0  0  0  0  0  0  0  0  0  0
  155.2995  132.0396  163.3360 O   0  0  0  0  0  0  0  0  0  0  0  0
  155.4029  133.1966  162.5112 C   0  0  0  0  0  0  0  0  0  0  0  0
  152.3915  141.0765  159.0610 C   0  0  0  0  0  0  0  0  0  0  0  0
  150.2909  139.1565  154.6136 H   0  0  0  0  0  0  0  0  0  0  0  0
  151.4700  139.3966  156.4315 H   0  0  0  0  0  0  0  0  0  0  0  0
  152.6656  140.3221  155.5373 H   0  0  0  0  0  0  0  0  0  0  0  0
  151.4571  142.2884  155.6279 H   0  0  0  0  0  0  0  0  0  0  0  0
  149.9049  141.5064  155.4570 H   0  0  0  0  0  0  0  0  0  0  0  0
  152.6184  142.4023  157.3625 H   0  0  0  0  0  0  0  0  0  0  0  0
  151.0453  144.1393  158.1156 H   0  0  0  0  0  0  0  0  0  0  0  0
  150.5418  143.1483  159.4671 H   0  0  0  0  0  0  0  0  0  0  0  0
  153.3446  144.2847  159.0145 H   0  0  0  0  0  0  0  0  0  0  0  0
  152.2095  144.8027  160.2389 H   0  0  0  0  0  0  0  0  0  0  0  0
  153.9403  143.2653  161.1708 H   0  0  0  0  0  0  0  0  0  0  0  0
  152.3346  142.6021  161.3623 H   0  0  0  0  0  0  0  0  0  0  0  0
  156.7021  140.8952  162.7640 H   0  0  0  0  0  0  0  0  0  0  0  0
  153.2933  136.4425  159.5981 H   0  0  0  0  0  0  0  0  0  0  0  0
  155.1383  135.2503  160.8329 H   0  0  0  0  0  0  0  0  0  0  0  0
  156.4710  136.2414  161.3606 H   0  0  0  0  0  0  0  0  0  0  0  0
  153.9607  135.6835  163.0411 H   0  0  0  0  0  0  0  0  0  0  0  0
  156.5321  136.8349  164.1569 H   0  0  0  0  0  0  0  0  0  0  0  0
  155.3938  137.8846  163.3338 H   0  0  0  0  0  0  0  0  0  0  0  0
  155.3328  136.9680  165.7844 H   0  0  0  0  0  0  0  0  0  0  0  0
  156.7274  134.5247  163.5626 H   0  0  0  0  0  0  0  0  0  0  0  0
  155.4867  134.3758  165.6209 H   0  0  0  0  0  0  0  0  0  0  0  0
  153.9987  133.9628  164.7558 H   0  0  0  0  0  0  0  0  0  0  0  0
  156.5363  132.2842  164.9553 H   0  0  0  0  0  0  0  0  0  0  0  0
  154.8898  131.7830  165.3627 H   0  0  0  0  0  0  0  0  0  0  0  0
  154.4671  133.2990  161.9610 H   0  0  0  0  0  0  0  0  0  0  0  0
  156.2071  133.0619  161.7891 H   0  0  0  0  0  0  0  0  0  0  0  0
  151.5905  140.7195  159.7099 H   0  0  0  0  0  0  0  0  0  0  0  0
  152.7750  140.2127  158.5173 H   0  0  0  0  0  0  0  0  0  0  0  0
  1  2  1  0  0  0  0
  1 29  1  0  0  0  0
  2  3  1  0  0  0  0
  2 30  1  0  0  0  0
  2 31  1  0  0  0  0
  3  4  1  0  0  0  0
  3 32  1  0  0  0  0
  3 33  1  0  0  0  0
  4  5  1  0  0  0  0
  5 28  1  0  0  0  0
  5  6  1  0  0  0  0
  5 34  1  0  0  0  0
  6  7  1  0  0  0  0
  6 35  1  0  0  0  0
  6 36  1  0  0  0  0
  7  8  1  0  0  0  0
  7 37  1  0  0  0  0
  7 38  1  0  0  0  0
  8  9  1  0  0  0  0
  8 39  1  0  0  0  0
  8 40  1  0  0  0  0
  9 10  1  0  0  0  0
  9 28  1  0  0  0  0
 10 15  1  0  0  0  0
 10 11  2  0  0  0  0
 11 12  1  0  0  0  0
 12 13  2  0  0  0  0
 12 41  1  0  0  0  0
 13 14  1  0  0  0  0
 14 18  1  0  0  0  0
 14 15  2  0  0  0  0
 15 16  1  0  0  0  0
 16 17  2  0  0  0  0
 17 18  1  0  0  0  0
 17 42  1  0  0  0  0
 18 19  1  0  0  0  0
 19 20  1  0  0  0  0
 19 43  1  0  0  0  0
 19 44  1  0  0  0  0
 20 21  1  0  0  0  0
 20 23  1  0  0  0  0
 20 45  1  0  0  0  0
 21 22  1  0  0  0  0
 21 46  1  0  0  0  0
 21 47  1  0  0  0  0
 22 48  1  0  0  0  0
 23 27  1  0  0  0  0
 23 24  1  0  0  0  0
 23 49  1  0  0  0  0
 24 25  1  0  0  0  0
 24 50  1  0  0  0  0
 24 51  1  0  0  0  0
 25 26  1  0  0  0  0
 25 52  1  0  0  0  0
 25 53  1  0  0  0  0
 26 27  1  0  0  0  0
 27 54  1  0  0  0  0
 27 55  1  0  0  0  0
 28 56  1  0  0  0  0
 28 57  1  0  0  0  0
M  END
> <s_m_source_file>
AV-unprocessed.smi

> <i_m_source_file_index>
258

> <i_lp_mmshare_version>
43012

> <i_f3d_flags>
0

> <s_epik_input>
W09IXVtDSDJdW0NIMl1PW0NAQEhdMVtDSDJdW0NIMl1bQ0gyXU4oW0NIMl0xKWMobltjSF1uMiljKGMyMyluW2NIXW4zW0NIMl1bQ0BIXShbQ0gyXVtPSF0pW0NAQEhdNFtDSDJdW0NIMl1PW0NIMl00

> <s_epik_cmdline>
J2VwaWtfcHl0aG9uJywgJy1waCcsICc3LjAnLCAnLXRuJywgJzgnLCAnLW1hJywgJzIwMCcsICctbWV0YWxfYmluZGluZycsICctaW1hZScsICc8aW5maWxlLm1hZT4nLCAnLW9tYWUnLCAnPG91dGZpbGUubWFlPic=

> <r_lp_tautomer_probability>
1

> <r_epik_Ionization_Penalty>
0.00349036

> <r_epik_Ionization_Penalty_Charging>
0

> <r_epik_Ionization_Penalty_Neutral>
0.00349036

> <r_epik_State_Penalty>
0.00229798

> <r_epik_Charging_Adjusted_Penalty>
0.00229798

> <i_epik_Tot_Q>
0

> <i_epik_Tot_abs_Q>
0

> <r_epik_Metal_State_Penalty>
-0

> <b_epik_Metal_Only>
0

> <s_lp_Force_Field>
OPLS_2005

> <r_lp_Energy>
44.143

> <b_lp_Chiralities_Consistent>
1

> <s_lp_Variant>
AV-unprocessed.smi:258-6

> <Gold.Version>
5.8.1

> <Gold.Id.Protein>
6NUR|6NUR_protein|mol2

> <Gold.PLP.Fitness>
55.1788

> <Gold.PLP.PLP>
-55.4915

> <Gold.PLP.part.hbond>
-4.3027

> <Gold.PLP.part.metal>
0.0000

> <Gold.PLP.part.buried>
-5.7689

> <Gold.PLP.part.nonpolar>
-44.2209

> <Gold.PLP.part.repulsive>
0.0531

> <Gold.PLP.ligand.clash>
0.0000

> <Gold.PLP.ligand.torsion>
1.9443

> <Gold.PLP.Chemscore.Hbond>
1.0000

> <Gold.PLP.Chemscore.CHOScore>
0.0000

> <Gold.PLP.Chemscore.Metal>
0.0000

> <Gold.Chemscore.Hbonds>
donor molecule, donor type, donor heavy atom, donor atom, acceptor molecule, acceptor atom, score
      P1  H  7989  7998       L1     1  0.75

> <Gold.PLP.Chemscore.Internal.Correction>
0.5760

> <Gold.Rescore>
     Score         DG    S(hbond)    S(metal)    S(lipo)     H(rot)  DE(clash)    DE(int)     intcor
      4.83     -11.89       0.97        0.00     119.55       4.22       2.04       5.03       ----

> <Gold.Chemscore.Fitness>
4.8280

> <Gold.Chemscore.DG>
-11.8926

> <Gold.Chemscore.ZeroCoef>
-5.4800

> <Gold.Chemscore.Hbond>
0.9700

> <Gold.Chemscore.Metal>
0.0000

> <Gold.Chemscore.Lipo>
119.5520

> <Gold.Chemscore.Internal_Hbond>
0.0000

> <Gold.Chemscore.DEClash>
2.0369

> <Gold.Chemscore.DEInternal>
5.0277

> <Gold.Chemscore.Rot>
4.2246

> <Gold.Chemscore.Internal.Correction>
   9.000000E+99

> <Gold.Chemscore.Hbonds>
donor molecule, donor type, donor heavy atom, donor atom, acceptor molecule, acceptor atom, score
      P1  H  7989  7998       L1     1  0.09

> <Gold.Chemscore.Hbond.Weighted>
-3.2399

> <Gold.Chemscore.Metal.Weighted>
-0.0000

> <Gold.Chemscore.Lipo.Weighted>
-13.9876

> <Gold.Chemscore.Internal_Hbond.Weighted>
0.0000

> <Gold.Chemscore.DEClash.Weighted>
2.0369

> <Gold.Chemscore.DEInternal.Weighted>
5.0277

> <Gold.Chemscore.Rot.Weighted>
10.8149

> <Gold.Chemscore.Internal.Correction.Weighted>
   9.000000E+99

> <Gold.Protein.RotatedTorsions>
[ 6907 6896 6895 6894 ] final   54.09 input  -60.11 | X-H torsion
[ 7974 7965 7964 7962 ] final -168.17 input  175.53 | X-H torsion
[ 8008 7997 7996 7995 ] final  106.56 input   59.86 | X-H torsion
[ 10167 10162 10161 10158 ] final  148.93 input  -65.29 | X-H torsion
[ 10718 10713 10712 10709 ] final   43.22 input   66.30 | X-H torsion
[ 10763 10752 10751 10750 ] final  -63.33 input  -60.55 | X-H torsion
[ 11005 11000 10999 10996 ] final  124.52 input  -57.11 | X-H torsion

> <Gold.Protein.ActiveResidues>
 VAL166  LYS551  ARG553  GLY616  TRP617  ASP618  TYR619  PRO620  LYS621  CYS622 
 ASP623  PHE694  ASN695  SER759  ASP760  ASP761  ALA762  ILE779  LEU786  VAL792 
 PHE793  MET794  SER795  GLU796  ALA797  LYS798  CYS799  TRP800  GLU811  SER814 

> <Gold.Protein.RotatedAtoms>
  152.3403  134.7143  160.0265 H   0  0  0  0  0  0  0  0  0  0  0  0  # atno 6907 bound_to 6896
  151.7530  133.3323  159.3405 H   0  0  0  0  0  0  0  0  0  0  0  0  # atno 6908 bound_to 6896
  150.7476  134.6108  159.6129 H   0  0  0  0  0  0  0  0  0  0  0  0  # atno 6909 bound_to 6896
  144.7208  140.2410  143.6291 H   0  0  0  0  0  0  0  0  0  0  0  0  # atno 7974 bound_to 7965
  156.1753  140.3110  155.9047 H   0  0  0  0  0  0  0  0  0  0  0  0  # atno 8008 bound_to 7997
  155.3501  140.0470  157.3063 H   0  0  0  0  0  0  0  0  0  0  0  0  # atno 8009 bound_to 7997
  154.5283  140.2222  155.8860 H   0  0  0  0  0  0  0  0  0  0  0  0  # atno 8010 bound_to 7997
  139.4868  144.5641  151.7176 H   0  0  0  0  0  0  0  0  0  0  0  0  # atno 10167 bound_to 10162
  157.4135  130.7928  149.7451 H   0  0  0  0  0  0  0  0  0  0  0  0  # atno 10718 bound_to 10713
  154.3134  135.6211  153.5475 H   0  0  0  0  0  0  0  0  0  0  0  0  # atno 10763 bound_to 10752
  152.9827  135.5706  154.5151 H   0  0  0  0  0  0  0  0  0  0  0  0  # atno 10764 bound_to 10752
  154.4805  135.2863  155.1550 H   0  0  0  0  0  0  0  0  0  0  0  0  # atno 10765 bound_to 10752
  139.9363  134.9639  156.8422 H   0  0  0  0  0  0  0  0  0  0  0  0  # atno 11005 bound_to 11000
  145.8320  139.2090  143.1877 LP  0  0  0  0  0  0  0  0  0  0  0  0  # atno 17320 bound_to 7965
  146.0423  140.8153  142.9823 LP  0  0  0  0  0  0  0  0  0  0  0  0  # atno 17321 bound_to 7965
  140.5216  144.0869  150.6024 LP  0  0  0  0  0  0  0  0  0  0  0  0  # atno 17342 bound_to 10162
  140.3829  143.2793  152.0149 LP  0  0  0  0  0  0  0  0  0  0  0  0  # atno 17343 bound_to 10162
  155.9858  130.3980  150.3245 LP  0  0  0  0  0  0  0  0  0  0  0  0  # atno 17370 bound_to 10713
  157.1386  131.0290  151.2938 LP  0  0  0  0  0  0  0  0  0  0  0  0  # atno 17371 bound_to 10713
  140.6068  134.0120  155.7560 LP  0  0  0  0  0  0  0  0  0  0  0  0  # atno 17394 bound_to 11000
  141.0978  133.9816  157.3131 LP  0  0  0  0  0  0  0  0  0  0  0  0  # atno 17395 bound_to 11000

$$$$
