AV-unprocessed.smi:3298|AV-procd|sdf|12643|dock6
  -GOLD-   2272018573D 1   1.00000     0.00000
 Structure written by MMmdl.
 35 36  0  0  0  0  0  0  0  0  1 V2000
  153.3349  142.8858  163.0193 C   0  0  0  0  0  0  0  0  0  0  0  0
  152.8619  142.8499  161.5809 C   0  0  0  0  0  0  0  0  0  0  0  0
  153.1773  141.7602  160.7423 C   0  0  0  0  0  0  0  0  0  0  0  0
  152.7246  141.7764  159.4067 C   0  0  0  0  0  0  0  0  0  0  0  0
  153.0399  140.6579  158.5887 N   0  0  0  0  0  0  0  0  0  0  0  0
  152.3409  140.1433  157.5621 C   0  0  0  0  0  0  0  0  0  0  0  0
  151.2933  140.6043  157.1082 O   0  0  0  0  0  0  0  0  0  0  0  0
  152.9415  139.0521  157.0667 N   0  0  0  0  0  0  0  0  0  0  0  0
  152.4351  138.2511  155.9582 C   0  0  1  0  0  0  0  0  0  0  0  0
  151.1664  137.5473  156.3594 C   0  0  0  0  0  0  0  0  0  0  0  0
  150.1312  137.8707  155.5874 C   0  0  0  0  0  0  0  0  0  0  0  0
  150.4948  138.8674  154.5174 C   0  0  1  0  0  0  0  0  0  0  0  0
  149.6303  140.1422  154.5605 C   0  0  0  0  0  0  0  0  0  0  0  0
  149.6937  140.8604  153.3435 O   0  0  0  0  0  0  0  0  0  0  0  0
  152.0086  139.1159  154.7418 C   0  0  0  0  0  0  0  0  0  0  0  0
  151.9513  142.8819  158.9781 C   0  0  0  0  0  0  0  0  0  0  0  0
  151.6922  143.9190  159.8959 C   0  0  0  0  0  0  0  0  0  0  0  0
  152.1366  143.9126  161.1704 N   0  0  0  0  0  0  0  0  0  0  0  0
  153.1730  137.5022  155.6655 H   0  0  0  0  0  0  0  0  0  0  0  0
  150.3509  138.3789  153.5529 H   0  0  0  0  0  0  0  0  0  0  0  0
  153.7591  141.9273  163.3198 H   0  0  0  0  0  0  0  0  0  0  0  0
  152.5054  143.1138  163.6894 H   0  0  0  0  0  0  0  0  0  0  0  0
  154.0999  143.6525  163.1454 H   0  0  0  0  0  0  0  0  0  0  0  0
  153.7603  140.9306  161.1156 H   0  0  0  0  0  0  0  0  0  0  0  0
  153.9260  140.2164  158.7855 H   0  0  0  0  0  0  0  0  0  0  0  0
  153.8003  138.7413  157.4967 H   0  0  0  0  0  0  0  0  0  0  0  0
  151.1314  136.8509  157.1842 H   0  0  0  0  0  0  0  0  0  0  0  0
  149.1305  137.4788  155.6928 H   0  0  0  0  0  0  0  0  0  0  0  0
  148.5903  139.8855  154.7638 H   0  0  0  0  0  0  0  0  0  0  0  0
  149.9611  140.7955  155.3688 H   0  0  0  0  0  0  0  0  0  0  0  0
  149.6200  140.2468  152.6285 H   0  0  0  0  0  0  0  0  0  0  0  0
  152.2202  140.1746  154.9017 H   0  0  0  0  0  0  0  0  0  0  0  0
  152.5739  138.8213  153.8566 H   0  0  0  0  0  0  0  0  0  0  0  0
  151.5453  142.9498  157.9809 H   0  0  0  0  0  0  0  0  0  0  0  0
  151.1053  144.7754  159.5989 H   0  0  0  0  0  0  0  0  0  0  0  0
  1  2  1  0  0  0  0
  1 21  1  0  0  0  0
  1 22  1  0  0  0  0
  1 23  1  0  0  0  0
  2 18  1  0  0  0  0
  2  3  2  0  0  0  0
  3  4  1  0  0  0  0
  3 24  1  0  0  0  0
  4  5  1  0  0  0  0
  4 16  2  0  0  0  0
  5  6  1  0  0  0  0
  5 25  1  0  0  0  0
  6  7  2  0  0  0  0
  6  8  1  0  0  0  0
  8  9  1  0  0  0  0
  8 26  1  0  0  0  0
  9 19  1  0  0  0  0
  9 15  1  0  0  0  0
  9 10  1  0  0  0  0
 10 11  2  0  0  0  0
 10 27  1  0  0  0  0
 11 12  1  0  0  0  0
 11 28  1  0  0  0  0
 12 20  1  0  0  0  0
 12 13  1  0  0  0  0
 12 15  1  0  0  0  0
 13 14  1  0  0  0  0
 13 29  1  0  0  0  0
 13 30  1  0  0  0  0
 14 31  1  0  0  0  0
 15 32  1  0  0  0  0
 15 33  1  0  0  0  0
 16 17  1  0  0  0  0
 16 34  1  0  0  0  0
 17 18  2  0  0  0  0
 17 35  1  0  0  0  0
M  END
> <s_m_source_file>
AV-unprocessed.smi

> <i_m_source_file_index>
3298

> <i_lp_mmshare_version>
43012

> <i_f3d_flags>
0

> <s_epik_input>
W0NIM11jMVtjSF1jKFtjSF1bY0hdbjEpW05IXUMoPU8pW05IXVtDQEBIXTJbQ0hdPVtDSF1bQ0BASF0oW0NIMl0yKVtDSDJdW09IXQ==

> <s_epik_cmdline>
J2VwaWtfcHl0aG9uJywgJy1waCcsICc3LjAnLCAnLXRuJywgJzgnLCAnLW1hJywgJzIwMCcsICctbWV0YWxfYmluZGluZycsICctaW1hZScsICc8aW5maWxlLm1hZT4nLCAnLW9tYWUnLCAnPG91dGZpbGUubWFlPic=

> <r_epik_Ionization_Penalty>
0.379275

> <r_epik_Ionization_Penalty_Charging>
0

> <r_epik_Ionization_Penalty_Neutral>
0.379275

> <r_epik_State_Penalty>
0.377195

> <r_epik_Charging_Adjusted_Penalty>
0.377195

> <i_epik_Tot_Q>
0

> <i_epik_Tot_abs_Q>
0

> <r_epik_Metal_State_Penalty>
0.22815

> <b_epik_Metal_Only>
0

> <s_lp_Force_Field>
OPLS_2005

> <r_lp_Energy>
21.2721

> <b_lp_Chiralities_Consistent>
1

> <s_lp_Variant>
AV-unprocessed.smi:3298-4

> <Gold.Version>
5.8.1

> <Gold.Id.Protein>
6NUR|6NUR_protein|mol2

> <Gold.PLP.Fitness>
42.8506

> <Gold.PLP.PLP>
-37.7543

> <Gold.PLP.part.hbond>
-2.4098

> <Gold.PLP.part.metal>
0.0000

> <Gold.PLP.part.buried>
-5.6508

> <Gold.PLP.part.nonpolar>
-30.1128

> <Gold.PLP.part.repulsive>
0.7899

> <Gold.PLP.ligand.clash>
0.0000

> <Gold.PLP.ligand.torsion>
0.4426

> <Gold.PLP.Chemscore.Hbond>
1.9895

> <Gold.PLP.Chemscore.CHOScore>
0.0000

> <Gold.PLP.Chemscore.Metal>
0.0000

> <Gold.Chemscore.Hbonds>
donor molecule, donor type, donor heavy atom, donor atom, acceptor molecule, acceptor atom, score
      L1  H    14    31       P1  7957  0.81
      P1  H  7989  7998       L1    14  0.13
      P1  H  8011  8017       L1    14  0.85

> <Gold.PLP.Chemscore.Internal.Correction>
0.0130

> <Gold.Rescore>
     Score         DG    S(hbond)    S(metal)    S(lipo)     H(rot)  DE(clash)    DE(int)     intcor
     12.73     -16.07       0.99        0.00     101.09       1.78       0.14       3.21       ----

> <Gold.Chemscore.Fitness>
12.7258

> <Gold.Chemscore.DG>
-16.0706

> <Gold.Chemscore.ZeroCoef>
-5.4800

> <Gold.Chemscore.Hbond>
0.9936

> <Gold.Chemscore.Metal>
0.0000

> <Gold.Chemscore.Lipo>
101.0918

> <Gold.Chemscore.Internal_Hbond>
0.0000

> <Gold.Chemscore.DEClash>
0.1361

> <Gold.Chemscore.DEInternal>
3.2087

> <Gold.Chemscore.Rot>
1.7796

> <Gold.Chemscore.Internal.Correction>
   9.000000E+99

> <Gold.Chemscore.Hbonds>
donor molecule, donor type, donor heavy atom, donor atom, acceptor molecule, acceptor atom, score
      L1  H    14    31       P1  7957  0.78
      P1  H  8011  8017       L1    14  0.15

> <Gold.Chemscore.Hbond.Weighted>
-3.3187

> <Gold.Chemscore.Metal.Weighted>
-0.0000

> <Gold.Chemscore.Lipo.Weighted>
-11.8277

> <Gold.Chemscore.Internal_Hbond.Weighted>
0.0000

> <Gold.Chemscore.DEClash.Weighted>
0.1361

> <Gold.Chemscore.DEInternal.Weighted>
3.2087

> <Gold.Chemscore.Rot.Weighted>
4.5558

> <Gold.Chemscore.Internal.Correction.Weighted>
   9.000000E+99

> <Gold.Protein.RotatedTorsions>
[ 6907 6896 6895 6894 ] final   86.96 input  -60.11 | X-H torsion
[ 7974 7965 7964 7962 ] final -157.80 input  175.53 | X-H torsion
[ 8008 7997 7996 7995 ] final  -45.21 input   59.86 | X-H torsion
[ 10167 10162 10161 10158 ] final  118.92 input  -65.29 | X-H torsion
[ 10718 10713 10712 10709 ] final   47.86 input   66.30 | X-H torsion
[ 10763 10752 10751 10750 ] final  166.60 input  -60.55 | X-H torsion
[ 11005 11000 10999 10996 ] final  148.17 input  -57.11 | X-H torsion

> <Gold.Protein.ActiveResidues>
 VAL166  LYS551  ARG553  GLY616  TRP617  ASP618  TYR619  PRO620  LYS621  CYS622 
 ASP623  PHE694  ASN695  SER759  ASP760  ASP761  ALA762  ILE779  LEU786  VAL792 
 PHE793  MET794  SER795  GLU796  ALA797  LYS798  CYS799  TRP800  GLU811  SER814 

> <Gold.Protein.RotatedAtoms>
  152.5403  134.2350  159.8839 H   0  0  0  0  0  0  0  0  0  0  0  0  # atno 6907 bound_to 6896
  151.2320  133.4438  159.2611 H   0  0  0  0  0  0  0  0  0  0  0  0  # atno 6908 bound_to 6896
  151.0706  134.9809  159.8363 H   0  0  0  0  0  0  0  0  0  0  0  0  # atno 6909 bound_to 6896
  144.7533  140.3918  143.6032 H   0  0  0  0  0  0  0  0  0  0  0  0  # atno 7974 bound_to 7965
  154.4000  140.1402  156.3809 H   0  0  0  0  0  0  0  0  0  0  0  0  # atno 8008 bound_to 7997
  155.8004  140.3476  155.5379 H   0  0  0  0  0  0  0  0  0  0  0  0  # atno 8009 bound_to 7997
  155.8489  140.0938  157.1678 H   0  0  0  0  0  0  0  0  0  0  0  0  # atno 8010 bound_to 7997
  139.6080  144.7075  151.2910 H   0  0  0  0  0  0  0  0  0  0  0  0  # atno 10167 bound_to 10162
  157.4628  130.8207  149.7905 H   0  0  0  0  0  0  0  0  0  0  0  0  # atno 10718 bound_to 10713
  154.3414  135.2754  155.2420 H   0  0  0  0  0  0  0  0  0  0  0  0  # atno 10763 bound_to 10752
  154.4689  135.5888  153.6311 H   0  0  0  0  0  0  0  0  0  0  0  0  # atno 10764 bound_to 10752
  152.9857  135.6083  154.3616 H   0  0  0  0  0  0  0  0  0  0  0  0  # atno 10765 bound_to 10752
  140.0937  134.9025  157.1690 H   0  0  0  0  0  0  0  0  0  0  0  0  # atno 11005 bound_to 11000
  145.6868  139.1630  143.2669 LP  0  0  0  0  0  0  0  0  0  0  0  0  # atno 17320 bound_to 7965
  146.1511  140.6924  142.9322 LP  0  0  0  0  0  0  0  0  0  0  0  0  # atno 17321 bound_to 7965
  140.7298  143.6896  150.7933 LP  0  0  0  0  0  0  0  0  0  0  0  0  # atno 17342 bound_to 10162
  140.0486  143.5273  152.2684 LP  0  0  0  0  0  0  0  0  0  0  0  0  # atno 17343 bound_to 10162
  156.0036  130.3867  150.2511 LP  0  0  0  0  0  0  0  0  0  0  0  0  # atno 17370 bound_to 10713
  157.0690  131.0111  151.3197 LP  0  0  0  0  0  0  0  0  0  0  0  0  # atno 17371 bound_to 10713
  140.3316  134.2803  155.7227 LP  0  0  0  0  0  0  0  0  0  0  0  0  # atno 17394 bound_to 11000
  141.2085  133.7774  157.0052 LP  0  0  0  0  0  0  0  0  0  0  0  0  # atno 17395 bound_to 11000

$$$$
