AV-unprocessed.smi:536|AV-procd|sdf|2862|dock2
  -GOLD-   2262023353D 1   1.00000     0.00000
 Structure written by MMmdl.
 46 48  0  0  0  0  0  0  0  0  1 V2000
  153.4811  137.9582  159.3321 C   0  0  0  0  0  0  0  0  0  0  0  0
  153.4879  138.6869  158.1179 O   0  0  0  0  0  0  0  0  0  0  0  0
  152.1828  138.9588  157.6360 C   0  0  0  0  0  0  0  0  0  0  0  0
  152.2521  139.7467  156.3179 C   0  0  0  0  0  0  0  0  0  0  0  0
  150.9606  140.3196  155.9536 N   0  0  0  0  0  0  0  0  0  0  0  0
  150.3579  141.4163  156.4802 C   0  0  0  0  0  0  0  0  0  0  0  0
  150.9868  142.1891  157.4524 N   0  0  0  0  0  0  0  0  0  0  0  0
  150.8894  143.6462  157.4481 C   0  0  0  0  0  0  0  0  0  0  0  0
  152.2126  144.3885  157.7134 C   0  0  0  0  0  0  0  0  0  0  0  0
  152.6150  144.3800  159.1960 C   0  0  0  0  0  0  0  0  0  0  0  0
  153.3491  143.1113  159.6617 C   0  0  0  0  0  0  0  0  0  0  0  0
  152.9307  141.8031  158.9704 C   0  0  0  0  0  0  0  0  0  0  0  0
  151.4188  141.6445  158.7368 C   0  0  0  0  0  0  0  0  0  0  0  0
  149.1541  141.6962  155.9746 N   0  0  0  0  0  0  0  0  0  0  0  0
  148.9811  140.6955  155.0295 C   0  0  0  0  0  0  0  0  0  0  0  0
  150.0560  139.8679  154.9919 C   0  0  0  0  0  0  0  0  0  0  0  0
  150.1417  138.7315  154.0655 C   0  0  0  0  0  0  0  0  0  0  0  0
  151.1113  137.9793  154.0000 O   0  0  0  0  0  0  0  0  0  0  0  0
  149.0423  138.6011  153.2838 N   0  0  0  0  0  0  0  0  0  0  0  0
  147.9270  139.3941  153.2751 C   0  0  0  0  0  0  0  0  0  0  0  0
  147.0066  139.1420  152.4980 O   0  0  0  0  0  0  0  0  0  0  0  0
  147.8910  140.4526  154.1487 N   0  0  0  0  0  0  0  0  0  0  0  0
  146.7490  141.3668  154.2134 C   0  0  0  0  0  0  0  0  0  0  0  0
  149.0485  137.8325  152.6292 H   0  0  0  0  0  0  0  0  0  0  0  0
  154.5062  137.7837  159.6588 H   0  0  0  0  0  0  0  0  0  0  0  0
  152.9977  136.9884  159.2075 H   0  0  0  0  0  0  0  0  0  0  0  0
  152.9656  138.5087  160.1200 H   0  0  0  0  0  0  0  0  0  0  0  0
  151.6534  138.0184  157.4826 H   0  0  0  0  0  0  0  0  0  0  0  0
  151.6240  139.5315  158.3775 H   0  0  0  0  0  0  0  0  0  0  0  0
  152.9869  140.5464  156.4033 H   0  0  0  0  0  0  0  0  0  0  0  0
  152.6061  139.1102  155.5080 H   0  0  0  0  0  0  0  0  0  0  0  0
  150.5189  143.9492  156.4678 H   0  0  0  0  0  0  0  0  0  0  0  0
  150.1264  143.9581  158.1624 H   0  0  0  0  0  0  0  0  0  0  0  0
  153.0172  144.0141  157.0794 H   0  0  0  0  0  0  0  0  0  0  0  0
  152.0648  145.4281  157.4190 H   0  0  0  0  0  0  0  0  0  0  0  0
  153.2543  145.2394  159.4013 H   0  0  0  0  0  0  0  0  0  0  0  0
  151.7243  144.5299  159.8073 H   0  0  0  0  0  0  0  0  0  0  0  0
  154.4211  143.2442  159.5120 H   0  0  0  0  0  0  0  0  0  0  0  0
  153.2140  143.0117  160.7394 H   0  0  0  0  0  0  0  0  0  0  0  0
  153.4638  141.7077  158.0247 H   0  0  0  0  0  0  0  0  0  0  0  0
  153.2813  140.9728  159.5842 H   0  0  0  0  0  0  0  0  0  0  0  0
  150.8474  142.0862  159.5540 H   0  0  0  0  0  0  0  0  0  0  0  0
  151.1764  140.5810  158.7417 H   0  0  0  0  0  0  0  0  0  0  0  0
  145.9411  141.1187  153.5244 H   0  0  0  0  0  0  0  0  0  0  0  0
  147.0733  142.3826  153.9852 H   0  0  0  0  0  0  0  0  0  0  0  0
  146.3292  141.3671  155.2198 H   0  0  0  0  0  0  0  0  0  0  0  0
  1  2  1  0  0  0  0
  1 25  1  0  0  0  0
  1 26  1  0  0  0  0
  1 27  1  0  0  0  0
  2  3  1  0  0  0  0
  3  4  1  0  0  0  0
  3 28  1  0  0  0  0
  3 29  1  0  0  0  0
  4  5  1  0  0  0  0
  4 30  1  0  0  0  0
  4 31  1  0  0  0  0
  5 16  1  0  0  0  0
  5  6  1  0  0  0  0
  6  7  1  0  0  0  0
  6 14  2  0  0  0  0
  7 13  1  0  0  0  0
  7  8  1  0  0  0  0
  8  9  1  0  0  0  0
  8 32  1  0  0  0  0
  8 33  1  0  0  0  0
  9 10  1  0  0  0  0
  9 34  1  0  0  0  0
  9 35  1  0  0  0  0
 10 11  1  0  0  0  0
 10 36  1  0  0  0  0
 10 37  1  0  0  0  0
 11 12  1  0  0  0  0
 11 38  1  0  0  0  0
 11 39  1  0  0  0  0
 12 13  1  0  0  0  0
 12 40  1  0  0  0  0
 12 41  1  0  0  0  0
 13 42  1  0  0  0  0
 13 43  1  0  0  0  0
 14 15  1  0  0  0  0
 15 22  1  0  0  0  0
 15 16  2  0  0  0  0
 16 17  1  0  0  0  0
 17 18  2  0  0  0  0
 17 19  1  0  0  0  0
 19 24  1  0  0  0  0
 19 20  1  0  0  0  0
 20 21  2  0  0  0  0
 20 22  1  0  0  0  0
 22 23  1  0  0  0  0
 23 44  1  0  0  0  0
 23 45  1  0  0  0  0
 23 46  1  0  0  0  0
M  END
> <s_m_source_file>
AV-unprocessed.smi

> <i_m_source_file_index>
536

> <i_lp_mmshare_version>
43012

> <i_f3d_flags>
0

> <s_epik_input>
W0NIM11uMWMoPU8pW25IXWMoPU8pYyhjMTIpbihbQ0gyXVtDSDJdT1tDSDNdKWMobjIpTjNbQ0gyXVtDSDJdW0NIMl1bQ0gyXVtDSDJdW0NIMl0z

> <s_epik_cmdline>
J2VwaWtfcHl0aG9uJywgJy1waCcsICc3LjAnLCAnLXRuJywgJzgnLCAnLW1hJywgJzIwMCcsICctbWV0YWxfYmluZGluZycsICctaW1hZScsICc8aW5maWxlLm1hZT4nLCAnLW9tYWUnLCAnPG91dGZpbGUubWFlPic=

> <r_lp_tautomer_probability>
1

> <r_epik_Ionization_Penalty>
0.000219348

> <r_epik_Ionization_Penalty_Charging>
2.05342e-05

> <r_epik_Ionization_Penalty_Neutral>
0.000198814

> <r_epik_State_Penalty>
-0

> <r_epik_Charging_Adjusted_Penalty>
2.05342e-05

> <i_epik_Tot_Q>
0

> <i_epik_Tot_abs_Q>
0

> <r_epik_Metal_State_Penalty>
0.0195159

> <b_epik_Metal_Only>
0

> <s_lp_Force_Field>
OPLS_2005

> <r_lp_Energy>
45.5568

> <b_lp_Chiralities_Consistent>
1

> <s_lp_Variant>
AV-unprocessed.smi:536-1

> <Gold.Version>
5.8.1

> <Gold.Id.Protein>
6NUR|6NUR_protein|mol2

> <Gold.PLP.Fitness>
48.3295

> <Gold.PLP.PLP>
-43.5424

> <Gold.PLP.part.hbond>
-3.0000

> <Gold.PLP.part.metal>
0.0000

> <Gold.PLP.part.buried>
-0.3912

> <Gold.PLP.part.nonpolar>
-41.2645

> <Gold.PLP.part.repulsive>
1.9335

> <Gold.PLP.ligand.clash>
0.0000

> <Gold.PLP.ligand.torsion>
1.1044

> <Gold.PLP.Chemscore.Hbond>
1.9913

> <Gold.PLP.Chemscore.CHOScore>
0.0000

> <Gold.PLP.Chemscore.Metal>
0.0000

> <Gold.Chemscore.Hbonds>
donor molecule, donor type, donor heavy atom, donor atom, acceptor molecule, acceptor atom, score
      L1  H    19    24       P1  7948  1.00
      P1  H  7997  8008       L1     2  0.93

> <Gold.PLP.Chemscore.Internal.Correction>
1.0222

> <Gold.Rescore>
     Score         DG    S(hbond)    S(metal)    S(lipo)     H(rot)  DE(clash)    DE(int)     intcor
     15.45     -19.19       1.74        0.00      99.28       1.46       2.60       1.15       ----

> <Gold.Chemscore.Fitness>
15.4489

> <Gold.Chemscore.DG>
-19.1929

> <Gold.Chemscore.ZeroCoef>
-5.4800

> <Gold.Chemscore.Hbond>
1.7435

> <Gold.Chemscore.Metal>
0.0000

> <Gold.Chemscore.Lipo>
99.2841

> <Gold.Chemscore.Internal_Hbond>
0.0000

> <Gold.Chemscore.DEClash>
2.5958

> <Gold.Chemscore.DEInternal>
1.1482

> <Gold.Chemscore.Rot>
1.4557

> <Gold.Chemscore.Internal.Correction>
   9.000000E+99

> <Gold.Chemscore.Hbonds>
donor molecule, donor type, donor heavy atom, donor atom, acceptor molecule, acceptor atom, score
      L1  H    19    24       P1  7948  0.99
      P1  H  7997  8008       L1     2  0.49

> <Gold.Chemscore.Hbond.Weighted>
-5.8233

> <Gold.Chemscore.Metal.Weighted>
-0.0000

> <Gold.Chemscore.Lipo.Weighted>
-11.6162

> <Gold.Chemscore.Internal_Hbond.Weighted>
0.0000

> <Gold.Chemscore.DEClash.Weighted>
2.5958

> <Gold.Chemscore.DEInternal.Weighted>
1.1482

> <Gold.Chemscore.Rot.Weighted>
3.7267

> <Gold.Chemscore.Internal.Correction.Weighted>
   9.000000E+99

> <Gold.Protein.RotatedTorsions>
[ 6907 6896 6895 6894 ] final  -29.14 input  -60.11 | X-H torsion
[ 7974 7965 7964 7962 ] final  167.65 input  175.53 | X-H torsion
[ 8008 7997 7996 7995 ] final  -97.02 input   59.86 | X-H torsion
[ 10167 10162 10161 10158 ] final -173.54 input  -65.29 | X-H torsion
[ 10718 10713 10712 10709 ] final  -50.60 input   66.30 | X-H torsion
[ 10763 10752 10751 10750 ] final -134.59 input  -60.55 | X-H torsion
[ 11005 11000 10999 10996 ] final   69.88 input  -57.11 | X-H torsion

> <Gold.Protein.ActiveResidues>
 VAL166  LYS551  ARG553  GLY616  TRP617  ASP618  TYR619  PRO620  LYS621  CYS622 
 ASP623  PHE694  ASN695  SER759  ASP760  ASP761  ALA762  ILE779  LEU786  VAL792 
 PHE793  MET794  SER795  GLU796  ALA797  LYS798  CYS799  TRP800  GLU811  SER814 

> <Gold.Protein.RotatedAtoms>
  151.1233  135.0091  159.8548 H   0  0  0  0  0  0  0  0  0  0  0  0  # atno 6907 bound_to 6896
  152.5448  134.1697  159.8602 H   0  0  0  0  0  0  0  0  0  0  0  0  # atno 6908 bound_to 6896
  151.1757  133.4711  159.2627 H   0  0  0  0  0  0  0  0  0  0  0  0  # atno 6909 bound_to 6896
  144.7416  139.8792  143.6395 H   0  0  0  0  0  0  0  0  0  0  0  0  # atno 7974 bound_to 7965
  154.7822  140.0466  157.1136 H   0  0  0  0  0  0  0  0  0  0  0  0  # atno 8008 bound_to 7997
  154.9691  140.3087  155.4976 H   0  0  0  0  0  0  0  0  0  0  0  0  # atno 8009 bound_to 7997
  156.2938  140.2256  156.4782 H   0  0  0  0  0  0  0  0  0  0  0  0  # atno 8010 bound_to 7997
  139.5683  144.1703  152.1345 H   0  0  0  0  0  0  0  0  0  0  0  0  # atno 10167 bound_to 10162
  156.1785  130.4150  149.9541 H   0  0  0  0  0  0  0  0  0  0  0  0  # atno 10718 bound_to 10713
  154.8717  135.3730  154.4761 H   0  0  0  0  0  0  0  0  0  0  0  0  # atno 10763 bound_to 10752
  153.5417  135.7026  153.5638 H   0  0  0  0  0  0  0  0  0  0  0  0  # atno 10764 bound_to 10752
  153.3797  135.4000  155.1812 H   0  0  0  0  0  0  0  0  0  0  0  0  # atno 10765 bound_to 10752
  139.9629  134.7030  156.0607 H   0  0  0  0  0  0  0  0  0  0  0  0  # atno 11005 bound_to 11000
  146.1224  139.4244  143.0220 LP  0  0  0  0  0  0  0  0  0  0  0  0  # atno 17320 bound_to 7965
  145.7285  141.0050  143.1364 LP  0  0  0  0  0  0  0  0  0  0  0  0  # atno 17321 bound_to 7965
  140.1231  144.5356  150.6850 LP  0  0  0  0  0  0  0  0  0  0  0  0  # atno 17342 bound_to 10162
  140.6967  143.2408  151.4981 LP  0  0  0  0  0  0  0  0  0  0  0  0  # atno 17343 bound_to 10162
  156.7319  130.9046  151.3626 LP  0  0  0  0  0  0  0  0  0  0  0  0  # atno 17370 bound_to 10713
  157.6852  130.9179  150.0369 LP  0  0  0  0  0  0  0  0  0  0  0  0  # atno 17371 bound_to 10713
  141.1307  133.6587  156.3457 LP  0  0  0  0  0  0  0  0  0  0  0  0  # atno 17394 bound_to 11000
  140.5460  134.6074  157.5394 LP  0  0  0  0  0  0  0  0  0  0  0  0  # atno 17395 bound_to 11000

$$$$
