AV-unprocessed.smi:3031|AV-procd|sdf|11543|dock3
  -GOLD-   2272016493D 1   1.00000     0.00000
 Structure written by MMmdl.
 47 48  0  0  0  0  0  0  0  0  2 V2000
  152.9407  141.9079  163.2333 C   0  0  0  0  0  0  0  0  0  0  0  0
  152.8070  142.5187  161.8682 C   0  0  0  0  0  0  0  0  0  0  0  0
  153.1212  141.9299  160.6105 C   0  0  0  0  0  0  0  0  0  0  0  0
  152.8907  142.7415  159.5912 N   0  0  0  0  0  0  0  0  0  0  0  0
  152.4185  143.8716  160.1599 N   0  0  0  0  0  0  0  0  0  0  0  0
  152.0600  145.0068  159.3283 C   0  0  0  0  0  0  0  0  0  0  0  0
  150.6470  144.8673  158.7282 C   0  0  2  0  0  0  0  0  0  0  0  0
  149.6061  144.6161  159.8314 C   0  0  0  0  0  0  0  0  0  0  0  0
  150.6256  143.7795  157.7240 N   0  3  0  0  0  0  0  0  0  0  0  0
  149.7482  142.6341  158.0432 C   0  0  0  0  0  0  0  0  0  0  0  0
  149.9370  141.5002  157.0216 C   0  0  1  0  0  0  0  0  0  0  0  0
  149.9671  142.0362  155.7138 O   0  0  0  0  0  0  0  0  0  0  0  0
  151.1687  140.5873  157.2254 C   0  0  0  0  0  0  0  0  0  0  0  0
  151.0631  139.5436  158.2516 N   0  0  0  0  0  0  0  0  0  0  0  0
  152.3603  138.9143  158.4868 C   0  0  0  0  0  0  0  0  0  0  0  0
  152.2870  137.8217  159.5676 C   0  0  0  0  0  0  0  0  0  0  0  0
  151.3253  136.8432  159.1894 O   0  0  0  0  0  0  0  0  0  0  0  0
  150.0315  137.3992  158.9826 C   0  0  0  0  0  0  0  0  0  0  0  0
  150.1063  138.4924  157.9020 C   0  0  0  0  0  0  0  0  0  0  0  0
  152.3577  143.7644  161.5328 C   0  0  0  0  0  0  0  0  0  0  0  0
  153.1878  140.8473  163.1811 H   0  0  0  0  0  0  0  0  0  0  0  0
  152.0164  141.9940  163.8050 H   0  0  0  0  0  0  0  0  0  0  0  0
  153.7256  142.3918  163.8147 H   0  0  0  0  0  0  0  0  0  0  0  0
  153.5104  140.9423  160.4099 H   0  0  0  0  0  0  0  0  0  0  0  0
  152.1462  145.9220  159.9165 H   0  0  0  0  0  0  0  0  0  0  0  0
  152.8004  145.0811  158.5309 H   0  0  0  0  0  0  0  0  0  0  0  0
  150.4015  145.8064  158.2298 H   0  0  0  0  0  0  0  0  0  0  0  0
  149.6353  145.4060  160.5826 H   0  0  0  0  0  0  0  0  0  0  0  0
  149.7883  143.6691  160.3407 H   0  0  0  0  0  0  0  0  0  0  0  0
  148.5918  144.5912  159.4333 H   0  0  0  0  0  0  0  0  0  0  0  0
  150.2941  144.1775  156.8562 H   0  0  0  0  0  0  0  0  0  0  0  0
  149.9676  142.2821  159.0504 H   0  0  0  0  0  0  0  0  0  0  0  0
  148.7123  142.9752  158.0260 H   0  0  0  0  0  0  0  0  0  0  0  0
  149.0616  140.8514  157.0770 H   0  0  0  0  0  0  0  0  0  0  0  0
  149.4684  142.8393  155.7053 H   0  0  0  0  0  0  0  0  0  0  0  0
  151.4613  140.1409  156.2740 H   0  0  0  0  0  0  0  0  0  0  0  0
  151.9930  141.2524  157.4880 H   0  0  0  0  0  0  0  0  0  0  0  0
  152.7362  138.4801  157.5590 H   0  0  0  0  0  0  0  0  0  0  0  0
  153.0869  139.6672  158.7945 H   0  0  0  0  0  0  0  0  0  0  0  0
  153.2578  137.3404  159.6882 H   0  0  0  0  0  0  0  0  0  0  0  0
  152.0188  138.2514  160.5344 H   0  0  0  0  0  0  0  0  0  0  0  0
  149.3489  136.6071  158.6745 H   0  0  0  0  0  0  0  0  0  0  0  0
  149.6480  137.8070  159.9193 H   0  0  0  0  0  0  0  0  0  0  0  0
  149.1100  138.8998  157.7590 H   0  0  0  0  0  0  0  0  0  0  0  0
  150.3907  138.0351  156.9529 H   0  0  0  0  0  0  0  0  0  0  0  0
  152.0049  144.5763  162.1521 H   0  0  0  0  0  0  0  0  0  0  0  0
  151.5675  143.4444  157.5783 H   0  0  0  0  0  0  0  0  0  0  0  0
  1  2  1  0  0  0  0
  1 21  1  0  0  0  0
  1 22  1  0  0  0  0
  1 23  1  0  0  0  0
  2 20  2  0  0  0  0
  2  3  1  0  0  0  0
  3  4  2  0  0  0  0
  3 24  1  0  0  0  0
  4  5  1  0  0  0  0
  5  6  1  0  0  0  0
  5 20  1  0  0  0  0
  6  7  1  0  0  0  0
  6 25  1  0  0  0  0
  6 26  1  0  0  0  0
  7  8  1  0  0  0  0
  7  9  1  0  0  0  0
  7 27  1  0  0  0  0
  8 28  1  0  0  0  0
  8 29  1  0  0  0  0
  8 30  1  0  0  0  0
  9 10  1  0  0  0  0
  9 31  1  0  0  0  0
  9 47  1  0  0  0  0
 10 11  1  0  0  0  0
 10 32  1  0  0  0  0
 10 33  1  0  0  0  0
 11 12  1  0  0  0  0
 11 13  1  0  0  0  0
 11 34  1  0  0  0  0
 12 35  1  0  0  0  0
 13 14  1  0  0  0  0
 13 36  1  0  0  0  0
 13 37  1  0  0  0  0
 14 19  1  0  0  0  0
 14 15  1  0  0  0  0
 15 16  1  0  0  0  0
 15 38  1  0  0  0  0
 15 39  1  0  0  0  0
 16 17  1  0  0  0  0
 16 40  1  0  0  0  0
 16 41  1  0  0  0  0
 17 18  1  0  0  0  0
 18 19  1  0  0  0  0
 18 42  1  0  0  0  0
 18 43  1  0  0  0  0
 19 44  1  0  0  0  0
 19 45  1  0  0  0  0
 20 46  1  0  0  0  0
M  CHG  1   9   1
M  END
> <s_m_source_file>
AV-unprocessed.smi

> <i_m_source_file_index>
3031

> <i_lp_mmshare_version>
43012

> <i_f3d_flags>
0

> <s_epik_input>
W0NIM11jMVtjSF1ubihbY0hdMSlbQ0gyXVtDQEhdKFtDSDNdKVtOSF1bQ0gyXVtDQEhdKFtPSF0pW0NIMl1OMltDSDJdW0NIMl1PW0NIMl1bQ0gyXTI=

> <s_epik_cmdline>
J2VwaWtfcHl0aG9uJywgJy1waCcsICc3LjAnLCAnLXRuJywgJzgnLCAnLW1hJywgJzIwMCcsICctbWV0YWxfYmluZGluZycsICctaW1hZScsICc8aW5maWxlLm1hZT4nLCAnLW9tYWUnLCAnPG91dGZpbGUubWFlPic=

> <r_lp_tautomer_probability>
1

> <r_epik_Ionization_Penalty>
0.108564

> <r_epik_Ionization_Penalty_Charging>
0.01811

> <r_epik_Ionization_Penalty_Neutral>
0.0904541

> <r_epik_State_Penalty>
0.141043

> <r_epik_Charging_Adjusted_Penalty>
0.159153

> <i_epik_Tot_Q>
1

> <i_epik_Tot_abs_Q>
1

> <r_epik_Metal_State_Penalty>
0.141052

> <b_epik_Metal_Only>
0

> <s_lp_Force_Field>
OPLS_2005

> <r_lp_Energy>
34.8443

> <b_lp_Chiralities_Consistent>
1

> <s_lp_Variant>
AV-unprocessed.smi:3031-3

> <Gold.Version>
5.8.1

> <Gold.Id.Protein>
6NUR|6NUR_protein|mol2

> <Gold.PLP.Fitness>
49.2158

> <Gold.PLP.PLP>
-42.8768

> <Gold.PLP.part.hbond>
-3.0000

> <Gold.PLP.part.metal>
0.0000

> <Gold.PLP.part.buried>
-7.7164

> <Gold.PLP.part.nonpolar>
-31.7652

> <Gold.PLP.part.repulsive>
0.0146

> <Gold.PLP.ligand.clash>
2.7534

> <Gold.PLP.ligand.torsion>
1.4950

> <Gold.PLP.Chemscore.Hbond>
4.0000

> <Gold.PLP.Chemscore.CHOScore>
0.0000

> <Gold.PLP.Chemscore.Metal>
0.0000

> <Gold.Chemscore.Hbonds>
donor molecule, donor type, donor heavy atom, donor atom, acceptor molecule, acceptor atom, score
      L1  H     9    31       P1  8028  2.00
      L1  H    12    35       P1  8028  1.00
      P1  H  6896  6908       L1    17  1.00

> <Gold.PLP.Chemscore.Internal.Correction>
0.0824

> <Gold.Rescore>
     Score         DG    S(hbond)    S(metal)    S(lipo)     H(rot)  DE(clash)    DE(int)     intcor
     19.72     -21.42       2.91        0.00     110.59       2.63       0.08       1.62       ----

> <Gold.Chemscore.Fitness>
19.7157

> <Gold.Chemscore.DG>
-21.4202

> <Gold.Chemscore.ZeroCoef>
-5.4800

> <Gold.Chemscore.Hbond>
2.9121

> <Gold.Chemscore.Metal>
0.0000

> <Gold.Chemscore.Lipo>
110.5880

> <Gold.Chemscore.Internal_Hbond>
0.0000

> <Gold.Chemscore.DEClash>
0.0806

> <Gold.Chemscore.DEInternal>
1.6239

> <Gold.Chemscore.Rot>
2.6270

> <Gold.Chemscore.Internal.Correction>
   9.000000E+99

> <Gold.Chemscore.Hbonds>
donor molecule, donor type, donor heavy atom, donor atom, acceptor molecule, acceptor atom, score
      L1  H     9    31       P1  8028  0.94
      L1  H    12    35       P1  8028  0.98
      P1  H  6896  6908       L1    17  0.88

> <Gold.Chemscore.Hbond.Weighted>
-9.7265

> <Gold.Chemscore.Metal.Weighted>
-0.0000

> <Gold.Chemscore.Lipo.Weighted>
-12.9388

> <Gold.Chemscore.Internal_Hbond.Weighted>
0.0000

> <Gold.Chemscore.DEClash.Weighted>
0.0806

> <Gold.Chemscore.DEInternal.Weighted>
1.6239

> <Gold.Chemscore.Rot.Weighted>
6.7251

> <Gold.Chemscore.Internal.Correction.Weighted>
   9.000000E+99

> <Gold.Protein.RotatedTorsions>
[ 6907 6896 6895 6894 ] final -122.18 input  -60.11 | X-H torsion
[ 7974 7965 7964 7962 ] final -113.75 input  175.53 | X-H torsion
[ 8008 7997 7996 7995 ] final  -77.98 input   59.86 | X-H torsion
[ 10167 10162 10161 10158 ] final   38.34 input  -65.29 | X-H torsion
[ 10718 10713 10712 10709 ] final  -93.39 input   66.30 | X-H torsion
[ 10763 10752 10751 10750 ] final -143.06 input  -60.55 | X-H torsion
[ 11005 11000 10999 10996 ] final  -68.64 input  -57.11 | X-H torsion

> <Gold.Protein.ActiveResidues>
 VAL166  LYS551  ARG553  GLY616  TRP617  ASP618  TYR619  PRO620  LYS621  CYS622 
 ASP623  PHE694  ASN695  SER759  ASP760  ASP761  ALA762  ILE779  LEU786  VAL792 
 PHE793  MET794  SER795  GLU796  ALA797  LYS798  CYS799  TRP800  GLU811  SER814 

> <Gold.Protein.RotatedAtoms>
  150.8552  133.7726  159.3011 H   0  0  0  0  0  0  0  0  0  0  0  0  # atno 6907 bound_to 6896
  151.5385  135.1067  159.9930 H   0  0  0  0  0  0  0  0  0  0  0  0  # atno 6908 bound_to 6896
  152.4584  133.7727  159.6864 H   0  0  0  0  0  0  0  0  0  0  0  0  # atno 6909 bound_to 6896
  145.1284  140.8710  143.3773 H   0  0  0  0  0  0  0  0  0  0  0  0  # atno 7974 bound_to 7965
  154.5646  140.0701  156.8872 H   0  0  0  0  0  0  0  0  0  0  0  0  # atno 8008 bound_to 7997
  155.2746  140.3367  155.4244 H   0  0  0  0  0  0  0  0  0  0  0  0  # atno 8009 bound_to 7997
  156.2070  140.1744  156.7763 H   0  0  0  0  0  0  0  0  0  0  0  0  # atno 8010 bound_to 7997
  140.3945  144.1807  150.6131 H   0  0  0  0  0  0  0  0  0  0  0  0  # atno 10167 bound_to 10162
  156.0013  130.5025  150.5769 H   0  0  0  0  0  0  0  0  0  0  0  0  # atno 10718 bound_to 10713
  154.8485  135.3478  154.6127 H   0  0  0  0  0  0  0  0  0  0  0  0  # atno 10763 bound_to 10752
  153.6736  135.6984  153.5144 H   0  0  0  0  0  0  0  0  0  0  0  0  # atno 10764 bound_to 10752
  153.2723  135.4289  155.0956 H   0  0  0  0  0  0  0  0  0  0  0  0  # atno 10765 bound_to 10752
  141.1536  133.6745  156.6476 H   0  0  0  0  0  0  0  0  0  0  0  0  # atno 11005 bound_to 11000
  145.0663  139.3066  143.5855 LP  0  0  0  0  0  0  0  0  0  0  0  0  # atno 17320 bound_to 7965
  146.3516  140.0122  142.8666 LP  0  0  0  0  0  0  0  0  0  0  0  0  # atno 17321 bound_to 7965
  140.4804  143.2381  151.8963 LP  0  0  0  0  0  0  0  0  0  0  0  0  # atno 17342 bound_to 10162
  139.4787  144.5275  151.8714 LP  0  0  0  0  0  0  0  0  0  0  0  0  # atno 17343 bound_to 10162
  157.3655  131.0757  151.1601 LP  0  0  0  0  0  0  0  0  0  0  0  0  # atno 17370 bound_to 10713
  157.2371  130.6552  149.5874 LP  0  0  0  0  0  0  0  0  0  0  0  0  # atno 17371 bound_to 10713
  140.3345  134.7901  157.4351 LP  0  0  0  0  0  0  0  0  0  0  0  0  # atno 17394 bound_to 11000
  140.0989  134.5499  155.8372 LP  0  0  0  0  0  0  0  0  0  0  0  0  # atno 17395 bound_to 11000

$$$$
