AV-unprocessed.smi:546|AV-procd|sdf|2885|dock9
  -GOLD-   2262023383D 1   1.00000     0.00000
 Structure written by MMmdl.
 52 54  0  0  0  0  0  0  0  0  1 V2000
  148.8109  133.6276  154.1321 C   0  0  0  0  0  0  0  0  0  0  0  0
  149.6411  133.4810  155.4090 C   0  0  0  0  0  0  0  0  0  0  0  0
  149.2438  134.4885  156.3208 O   0  0  0  0  0  0  0  0  0  0  0  0
  148.0198  134.1983  156.9746 C   0  0  0  0  0  0  0  0  0  0  0  0
  147.4663  135.4769  157.6204 C   0  0  0  0  0  0  0  0  0  0  0  0
  148.5205  136.2469  158.2725 N   0  0  0  0  0  0  0  0  0  0  0  0
  148.7848  136.3636  159.6025 C   0  0  0  0  0  0  0  0  0  0  0  0
  147.9883  135.7686  160.5846 N   0  0  0  0  0  0  0  0  0  0  0  0
  147.9842  136.1698  161.9954 C   0  0  0  0  0  0  0  0  0  0  0  0
  146.6112  136.0124  162.6902 C   0  0  1  0  0  0  0  0  0  0  0  0
  145.5926  137.0902  162.2852 C   0  0  0  0  0  0  0  0  0  0  0  0
  146.0671  134.5875  162.4951 C   0  0  0  0  0  0  0  0  0  0  0  0
  146.1114  134.1770  161.0152 C   0  0  2  0  0  0  0  0  0  0  0  0
  145.6423  132.7287  160.8214 C   0  0  0  0  0  0  0  0  0  0  0  0
  147.5337  134.3832  160.4648 C   0  0  0  0  0  0  0  0  0  0  0  0
  149.8837  137.0688  159.8878 N   0  0  0  0  0  0  0  0  0  0  0  0
  150.3460  137.4553  158.6401 C   0  0  0  0  0  0  0  0  0  0  0  0
  149.5428  136.9743  157.6575 C   0  0  0  0  0  0  0  0  0  0  0  0
  149.8186  137.2093  156.2322 C   0  0  0  0  0  0  0  0  0  0  0  0
  149.1125  136.7818  155.3218 O   0  0  0  0  0  0  0  0  0  0  0  0
  150.9366  137.9450  156.0208 N   0  0  0  0  0  0  0  0  0  0  0  0
  151.7855  138.4575  156.9627 C   0  0  0  0  0  0  0  0  0  0  0  0
  152.7719  139.1060  156.6139 O   0  0  0  0  0  0  0  0  0  0  0  0
  151.4932  138.2187  158.2809 N   0  0  0  0  0  0  0  0  0  0  0  0
  152.3716  138.7383  159.3307 C   0  0  0  0  0  0  0  0  0  0  0  0
  151.1716  138.1343  155.0574 H   0  0  0  0  0  0  0  0  0  0  0  0
  149.0837  132.8680  153.3997 H   0  0  0  0  0  0  0  0  0  0  0  0
  148.9659  134.6053  153.6752 H   0  0  0  0  0  0  0  0  0  0  0  0
  147.7468  133.5226  154.3442 H   0  0  0  0  0  0  0  0  0  0  0  0
  149.4863  132.4937  155.8460 H   0  0  0  0  0  0  0  0  0  0  0  0
  150.7025  133.5798  155.1770 H   0  0  0  0  0  0  0  0  0  0  0  0
  147.2987  133.7982  156.2607 H   0  0  0  0  0  0  0  0  0  0  0  0
  148.1823  133.4375  157.7396 H   0  0  0  0  0  0  0  0  0  0  0  0
  146.9690  136.0957  156.8761 H   0  0  0  0  0  0  0  0  0  0  0  0
  146.6926  135.2289  158.3390 H   0  0  0  0  0  0  0  0  0  0  0  0
  148.7147  135.5465  162.5131 H   0  0  0  0  0  0  0  0  0  0  0  0
  148.3512  137.1896  162.1043 H   0  0  0  0  0  0  0  0  0  0  0  0
  146.7780  136.1481  163.7594 H   0  0  0  0  0  0  0  0  0  0  0  0
  145.3610  137.0509  161.2221 H   0  0  0  0  0  0  0  0  0  0  0  0
  145.9671  138.0885  162.5115 H   0  0  0  0  0  0  0  0  0  0  0  0
  144.6562  136.9658  162.8296 H   0  0  0  0  0  0  0  0  0  0  0  0
  146.6745  133.8933  163.0779 H   0  0  0  0  0  0  0  0  0  0  0  0
  145.0524  134.5080  162.8868 H   0  0  0  0  0  0  0  0  0  0  0  0
  145.4317  134.8176  160.4523 H   0  0  0  0  0  0  0  0  0  0  0  0
  146.2838  132.0286  161.3575 H   0  0  0  0  0  0  0  0  0  0  0  0
  145.6540  132.4505  159.7673 H   0  0  0  0  0  0  0  0  0  0  0  0
  144.6236  132.5943  161.1861 H   0  0  0  0  0  0  0  0  0  0  0  0
  147.5566  134.0928  159.4136 H   0  0  0  0  0  0  0  0  0  0  0  0
  148.2400  133.7309  160.9807 H   0  0  0  0  0  0  0  0  0  0  0  0
  152.4834  139.8195  159.2394 H   0  0  0  0  0  0  0  0  0  0  0  0
  153.3612  138.2862  159.2562 H   0  0  0  0  0  0  0  0  0  0  0  0
  151.9932  138.5364  160.3326 H   0  0  0  0  0  0  0  0  0  0  0  0
  1  2  1  0  0  0  0
  1 27  1  0  0  0  0
  1 28  1  0  0  0  0
  1 29  1  0  0  0  0
  2  3  1  0  0  0  0
  2 30  1  0  0  0  0
  2 31  1  0  0  0  0
  3  4  1  0  0  0  0
  4  5  1  0  0  0  0
  4 32  1  0  0  0  0
  4 33  1  0  0  0  0
  5  6  1  0  0  0  0
  5 34  1  0  0  0  0
  5 35  1  0  0  0  0
  6 18  1  0  0  0  0
  6  7  1  0  0  0  0
  7  8  1  0  0  0  0
  7 16  2  0  0  0  0
  8 15  1  0  0  0  0
  8  9  1  0  0  0  0
  9 10  1  0  0  0  0
  9 36  1  0  0  0  0
  9 37  1  0  0  0  0
 10 11  1  0  0  0  0
 10 12  1  0  0  0  0
 10 38  1  0  0  0  0
 11 39  1  0  0  0  0
 11 40  1  0  0  0  0
 11 41  1  0  0  0  0
 12 13  1  0  0  0  0
 12 42  1  0  0  0  0
 12 43  1  0  0  0  0
 13 14  1  0  0  0  0
 13 15  1  0  0  0  0
 13 44  1  0  0  0  0
 14 45  1  0  0  0  0
 14 46  1  0  0  0  0
 14 47  1  0  0  0  0
 15 48  1  0  0  0  0
 15 49  1  0  0  0  0
 16 17  1  0  0  0  0
 17 24  1  0  0  0  0
 17 18  2  0  0  0  0
 18 19  1  0  0  0  0
 19 20  2  0  0  0  0
 19 21  1  0  0  0  0
 21 26  1  0  0  0  0
 21 22  1  0  0  0  0
 22 23  2  0  0  0  0
 22 24  1  0  0  0  0
 24 25  1  0  0  0  0
 25 50  1  0  0  0  0
 25 51  1  0  0  0  0
 25 52  1  0  0  0  0
M  END
> <s_m_source_file>
AV-unprocessed.smi

> <i_m_source_file_index>
546

> <i_lp_mmshare_version>
43012

> <i_f3d_flags>
0

> <s_epik_input>
W0NIM11uMWMoPU8pW25IXWMoPU8pYyhjMTIpbihbQ0gyXVtDSDJdT1tDSDJdW0NIM10pYyhuMilOM1tDSDJdW0NAQEhdKFtDSDNdKVtDSDJdW0NAQEhdKFtDSDNdKVtDSDJdMw==

> <s_epik_cmdline>
J2VwaWtfcHl0aG9uJywgJy1waCcsICc3LjAnLCAnLXRuJywgJzgnLCAnLW1hJywgJzIwMCcsICctbWV0YWxfYmluZGluZycsICctaW1hZScsICc8aW5maWxlLm1hZT4nLCAnLW9tYWUnLCAnPG91dGZpbGUubWFlPic=

> <r_lp_tautomer_probability>
1

> <r_epik_Ionization_Penalty>
0.000576472

> <r_epik_Ionization_Penalty_Charging>
0.000118943

> <r_epik_Ionization_Penalty_Neutral>
0.000457529

> <r_epik_State_Penalty>
-0

> <r_epik_Charging_Adjusted_Penalty>
0.000118943

> <i_epik_Tot_Q>
0

> <i_epik_Tot_abs_Q>
0

> <r_epik_Metal_State_Penalty>
0.0916165

> <b_epik_Metal_Only>
0

> <s_lp_Force_Field>
OPLS_2005

> <r_lp_Energy>
39.3864

> <b_lp_Chiralities_Consistent>
1

> <s_lp_Variant>
AV-unprocessed.smi:546-3

> <Gold.Version>
5.8.1

> <Gold.Id.Protein>
6NUR|6NUR_protein|mol2

> <Gold.PLP.Fitness>
36.1604

> <Gold.PLP.PLP>
-34.1525

> <Gold.PLP.part.hbond>
-2.0000

> <Gold.PLP.part.metal>
0.0000

> <Gold.PLP.part.buried>
-5.7513

> <Gold.PLP.part.nonpolar>
-27.0112

> <Gold.PLP.part.repulsive>
0.1576

> <Gold.PLP.ligand.clash>
0.0000

> <Gold.PLP.ligand.torsion>
0.8402

> <Gold.PLP.Chemscore.Hbond>
1.0582

> <Gold.PLP.Chemscore.CHOScore>
0.0000

> <Gold.PLP.Chemscore.Metal>
0.0000

> <Gold.Chemscore.Hbonds>
donor molecule, donor type, donor heavy atom, donor atom, acceptor molecule, acceptor atom, score
      P1  H  6896  6907       L1    16  0.01
      P1  H  7997  8008       L1    23  1.00

> <Gold.PLP.Chemscore.Internal.Correction>
0.5136

> <Gold.Rescore>
     Score         DG    S(hbond)    S(metal)    S(lipo)     H(rot)  DE(clash)    DE(int)     intcor
      9.32     -14.16       1.04        0.00      78.20       1.55       0.09       4.75       ----

> <Gold.Chemscore.Fitness>
9.3168

> <Gold.Chemscore.DG>
-14.1560

> <Gold.Chemscore.ZeroCoef>
-5.4800

> <Gold.Chemscore.Hbond>
1.0437

> <Gold.Chemscore.Metal>
0.0000

> <Gold.Chemscore.Lipo>
78.1975

> <Gold.Chemscore.Internal_Hbond>
0.0000

> <Gold.Chemscore.DEClash>
0.0894

> <Gold.Chemscore.DEInternal>
4.7498

> <Gold.Chemscore.Rot>
1.5465

> <Gold.Chemscore.Internal.Correction>
   9.000000E+99

> <Gold.Chemscore.Hbonds>
donor molecule, donor type, donor heavy atom, donor atom, acceptor molecule, acceptor atom, score
      P1  H  7997  8008       L1    23  1.00

> <Gold.Chemscore.Hbond.Weighted>
-3.4860

> <Gold.Chemscore.Metal.Weighted>
-0.0000

> <Gold.Chemscore.Lipo.Weighted>
-9.1491

> <Gold.Chemscore.Internal_Hbond.Weighted>
0.0000

> <Gold.Chemscore.DEClash.Weighted>
0.0894

> <Gold.Chemscore.DEInternal.Weighted>
4.7498

> <Gold.Chemscore.Rot.Weighted>
3.9591

> <Gold.Chemscore.Internal.Correction.Weighted>
   9.000000E+99

> <Gold.Protein.RotatedTorsions>
[ 6907 6896 6895 6894 ] final  -45.53 input  -60.11 | X-H torsion
[ 7974 7965 7964 7962 ] final  -49.57 input  175.53 | X-H torsion
[ 8008 7997 7996 7995 ] final  -59.45 input   59.86 | X-H torsion
[ 10167 10162 10161 10158 ] final   35.92 input  -65.29 | X-H torsion
[ 10718 10713 10712 10709 ] final  -67.32 input   66.30 | X-H torsion
[ 10763 10752 10751 10750 ] final  -35.31 input  -60.55 | X-H torsion
[ 11005 11000 10999 10996 ] final   27.64 input  -57.11 | X-H torsion

> <Gold.Protein.ActiveResidues>
 VAL166  LYS551  ARG553  GLY616  TRP617  ASP618  TYR619  PRO620  LYS621  CYS622 
 ASP623  PHE694  ASN695  SER759  ASP760  ASP761  ALA762  ILE779  LEU786  VAL792 
 PHE793  MET794  SER795  GLU796  ALA797  LYS798  CYS799  TRP800  GLU811  SER814 

> <Gold.Protein.RotatedAtoms>
  150.9210  134.8627  159.7488 H   0  0  0  0  0  0  0  0  0  0  0  0  # atno 6907 bound_to 6896
  152.4992  134.4219  159.9493 H   0  0  0  0  0  0  0  0  0  0  0  0  # atno 6908 bound_to 6896
  151.4253  133.3646  159.2796 H   0  0  0  0  0  0  0  0  0  0  0  0  # atno 6909 bound_to 6896
  145.9391  140.7679  142.9561 H   0  0  0  0  0  0  0  0  0  0  0  0  # atno 7974 bound_to 7965
  154.4353  140.1061  156.6117 H   0  0  0  0  0  0  0  0  0  0  0  0  # atno 8008 bound_to 7997
  155.5802  140.3490  155.4519 H   0  0  0  0  0  0  0  0  0  0  0  0  # atno 8009 bound_to 7997
  156.0324  140.1263  157.0233 H   0  0  0  0  0  0  0  0  0  0  0  0  # atno 8010 bound_to 7997
  140.4177  144.1504  150.6145 H   0  0  0  0  0  0  0  0  0  0  0  0  # atno 10167 bound_to 10162
  156.0564  130.4276  150.1838 H   0  0  0  0  0  0  0  0  0  0  0  0  # atno 10718 bound_to 10713
  153.8612  135.6840  153.4783 H   0  0  0  0  0  0  0  0  0  0  0  0  # atno 10763 bound_to 10752
  153.1341  135.4685  154.9392 H   0  0  0  0  0  0  0  0  0  0  0  0  # atno 10764 bound_to 10752
  154.7758  135.3253  154.8045 H   0  0  0  0  0  0  0  0  0  0  0  0  # atno 10765 bound_to 10752
  140.3241  134.2510  155.7712 H   0  0  0  0  0  0  0  0  0  0  0  0  # atno 11005 bound_to 11000
  144.6776  140.2251  143.7362 LP  0  0  0  0  0  0  0  0  0  0  0  0  # atno 17320 bound_to 7965
  145.8324  139.2092  143.1875 LP  0  0  0  0  0  0  0  0  0  0  0  0  # atno 17321 bound_to 7965
  140.4568  143.2464  151.9273 LP  0  0  0  0  0  0  0  0  0  0  0  0  # atno 17342 bound_to 10162
  139.4782  144.5507  151.8390 LP  0  0  0  0  0  0  0  0  0  0  0  0  # atno 17343 bound_to 10162
  156.9913  130.9894  151.3414 LP  0  0  0  0  0  0  0  0  0  0  0  0  # atno 17370 bound_to 10713
  157.5537  130.8199  149.8177 LP  0  0  0  0  0  0  0  0  0  0  0  0  # atno 17371 bound_to 10713
  141.2079  133.7792  157.0089 LP  0  0  0  0  0  0  0  0  0  0  0  0  # atno 17394 bound_to 11000
  140.0916  134.9589  157.1785 LP  0  0  0  0  0  0  0  0  0  0  0  0  # atno 17395 bound_to 11000

$$$$
