AV-unprocessed.smi:1434|AV-procd|sdf|5849|dock5
  -GOLD-   22720 5513D 1   1.00000     0.00000
 Structure written by MMmdl.
 44 45  0  0  0  0  0  0  0  0  1 V2000
  144.6117  136.8594  152.5038 C   0  0  0  0  0  0  0  0  0  0  0  0
  145.9826  136.7953  153.7260 S   0  0  0  0  0  0  0  0  0  0  0  0
  145.4598  137.2133  155.0356 O   0  0  0  0  0  0  0  0  0  0  0  0
  146.6890  135.5130  153.5881 O   0  0  0  0  0  0  0  0  0  0  0  0
  147.0435  138.0328  153.1611 N   0  0  0  0  0  0  0  0  0  0  0  0
  147.3272  139.1676  154.0414 C   0  0  2  0  0  0  0  0  0  0  0  0
  146.0597  140.0281  154.2341 C   0  0  0  0  0  0  0  0  0  0  0  0
  146.3670  141.3363  154.9869 C   0  0  0  0  0  0  0  0  0  0  0  0
  147.5621  142.0684  154.3517 C   0  0  0  0  0  0  0  0  0  0  0  0
  148.7195  141.1570  154.3353 N   0  0  0  0  0  0  0  0  0  0  0  0
  149.8271  141.2450  155.1147 C   0  0  0  0  0  0  0  0  0  0  0  0
  150.7630  140.4475  155.0469 O   0  0  0  0  0  0  0  0  0  0  0  0
  149.8263  142.2775  155.9760 N   0  0  0  0  0  0  0  0  0  0  0  0
  150.9063  142.6307  156.8942 C   0  0  0  0  0  0  0  0  0  0  0  0
  150.8898  141.7640  158.1673 C   0  0  0  0  0  0  0  0  0  0  0  0
  151.3808  142.4932  159.4062 C   0  0  0  0  0  0  0  0  0  0  0  0
  152.4966  142.0179  160.1289 C   0  0  0  0  0  0  0  0  0  0  0  0
  152.8937  142.7166  161.2850 C   0  0  0  0  0  0  0  0  0  0  0  0
  152.1661  143.8589  161.6703 C   0  0  0  0  0  0  0  0  0  0  0  0
  151.0690  144.2534  160.8788 C   0  0  0  0  0  0  0  0  0  0  0  0
  150.6793  143.5904  159.7689 N   0  0  0  0  0  0  0  0  0  0  0  0
  148.4772  140.0088  153.4524 C   0  0  0  0  0  0  0  0  0  0  0  0
  143.8620  136.1114  152.7618 H   0  0  0  0  0  0  0  0  0  0  0  0
  145.0003  136.6528  151.5068 H   0  0  0  0  0  0  0  0  0  0  0  0
  144.1556  137.8492  152.5194 H   0  0  0  0  0  0  0  0  0  0  0  0
  147.9062  137.6339  152.7920 H   0  0  0  0  0  0  0  0  0  0  0  0
  147.6484  138.7823  155.0109 H   0  0  0  0  0  0  0  0  0  0  0  0
  145.6397  140.2759  153.2582 H   0  0  0  0  0  0  0  0  0  0  0  0
  145.2910  139.4672  154.7658 H   0  0  0  0  0  0  0  0  0  0  0  0
  145.4877  141.9809  154.9875 H   0  0  0  0  0  0  0  0  0  0  0  0
  146.5896  141.1136  156.0311 H   0  0  0  0  0  0  0  0  0  0  0  0
  147.3196  142.3541  153.3271 H   0  0  0  0  0  0  0  0  0  0  0  0
  147.7437  143.0082  154.8730 H   0  0  0  0  0  0  0  0  0  0  0  0
  149.0161  142.8796  155.9799 H   0  0  0  0  0  0  0  0  0  0  0  0
  151.8519  142.4893  156.3711 H   0  0  0  0  0  0  0  0  0  0  0  0
  150.8637  143.6880  157.1604 H   0  0  0  0  0  0  0  0  0  0  0  0
  149.8790  141.3959  158.3477 H   0  0  0  0  0  0  0  0  0  0  0  0
  151.5081  140.8787  158.0128 H   0  0  0  0  0  0  0  0  0  0  0  0
  153.0294  141.1334  159.8120 H   0  0  0  0  0  0  0  0  0  0  0  0
  153.7397  142.3811  161.8666 H   0  0  0  0  0  0  0  0  0  0  0  0
  152.4413  144.4195  162.5513 H   0  0  0  0  0  0  0  0  0  0  0  0
  150.4893  145.1251  161.1438 H   0  0  0  0  0  0  0  0  0  0  0  0
  149.3639  139.3874  153.3167 H   0  0  0  0  0  0  0  0  0  0  0  0
  148.2144  140.3695  152.4566 H   0  0  0  0  0  0  0  0  0  0  0  0
  1  2  1  0  0  0  0
  1 23  1  0  0  0  0
  1 24  1  0  0  0  0
  1 25  1  0  0  0  0
  2  3  2  0  0  0  0
  2  4  2  0  0  0  0
  2  5  1  0  0  0  0
  5  6  1  0  0  0  0
  5 26  1  0  0  0  0
  6 22  1  0  0  0  0
  6  7  1  0  0  0  0
  6 27  1  0  0  0  0
  7  8  1  0  0  0  0
  7 28  1  0  0  0  0
  7 29  1  0  0  0  0
  8  9  1  0  0  0  0
  8 30  1  0  0  0  0
  8 31  1  0  0  0  0
  9 10  1  0  0  0  0
  9 32  1  0  0  0  0
  9 33  1  0  0  0  0
 10 11  1  0  0  0  0
 10 22  1  0  0  0  0
 11 12  2  0  0  0  0
 11 13  1  0  0  0  0
 13 14  1  0  0  0  0
 13 34  1  0  0  0  0
 14 15  1  0  0  0  0
 14 35  1  0  0  0  0
 14 36  1  0  0  0  0
 15 16  1  0  0  0  0
 15 37  1  0  0  0  0
 15 38  1  0  0  0  0
 16 21  1  0  0  0  0
 16 17  2  0  0  0  0
 17 18  1  0  0  0  0
 17 39  1  0  0  0  0
 18 19  2  0  0  0  0
 18 40  1  0  0  0  0
 19 20  1  0  0  0  0
 19 41  1  0  0  0  0
 20 21  2  0  0  0  0
 20 42  1  0  0  0  0
 22 43  1  0  0  0  0
 22 44  1  0  0  0  0
M  END
> <s_m_source_file>
AV-unprocessed.smi

> <i_m_source_file_index>
1434

> <i_lp_mmshare_version>
43012

> <i_f3d_flags>
0

> <s_epik_input>
W0NIM11TKD1PKSg9TylbTkhdW0NAQEhdMVtDSDJdW0NIMl1bQ0gyXU4oW0NIMl0xKUMoPU8pW05IXVtDSDJdW0NIMl1jMltjSF1bY0hdW2NIXVtjSF1uMg==

> <s_epik_cmdline>
J2VwaWtfcHl0aG9uJywgJy1waCcsICc3LjAnLCAnLXRuJywgJzgnLCAnLW1hJywgJzIwMCcsICctbWV0YWxfYmluZGluZycsICctaW1hZScsICc8aW5maWxlLm1hZT4nLCAnLW9tYWUnLCAnPG91dGZpbGUubWFlPic=

> <r_epik_Ionization_Penalty>
0.0449488

> <r_epik_Ionization_Penalty_Charging>
0

> <r_epik_Ionization_Penalty_Neutral>
0.0449488

> <r_epik_State_Penalty>
0.0380669

> <r_epik_Charging_Adjusted_Penalty>
0.0380669

> <i_epik_Tot_Q>
0

> <i_epik_Tot_abs_Q>
0

> <r_epik_Metal_State_Penalty>
0.0441384

> <b_epik_Metal_Only>
0

> <s_lp_Force_Field>
OPLS_2005

> <r_lp_Energy>
23.2159

> <b_lp_Chiralities_Consistent>
1

> <s_lp_Variant>
AV-unprocessed.smi:1434-1

> <Gold.Version>
5.8.1

> <Gold.Id.Protein>
6NUR|6NUR_protein|mol2

> <Gold.PLP.Fitness>
45.2086

> <Gold.PLP.PLP>
-37.7817

> <Gold.PLP.part.hbond>
-3.0780

> <Gold.PLP.part.metal>
0.0000

> <Gold.PLP.part.buried>
0.0517

> <Gold.PLP.part.nonpolar>
-35.2754

> <Gold.PLP.part.repulsive>
0.6387

> <Gold.PLP.ligand.clash>
0.0000

> <Gold.PLP.ligand.torsion>
0.4397

> <Gold.PLP.Chemscore.Hbond>
2.7200

> <Gold.PLP.Chemscore.CHOScore>
0.0000

> <Gold.PLP.Chemscore.Metal>
0.0000

> <Gold.Chemscore.Hbonds>
donor molecule, donor type, donor heavy atom, donor atom, acceptor molecule, acceptor atom, score
      L1  H     5    26       P1  7948  1.00
      L1  H    13    34       P1  8028  0.61
      P1  H  7989  7998       L1    12  1.00

> <Gold.PLP.Chemscore.Internal.Correction>
0.1462

> <Gold.Rescore>
     Score         DG    S(hbond)    S(metal)    S(lipo)     H(rot)  DE(clash)    DE(int)     intcor
     15.88     -18.38       1.99        0.00      97.85       2.03       1.93       0.57       ----

> <Gold.Chemscore.Fitness>
15.8809

> <Gold.Chemscore.DG>
-18.3793

> <Gold.Chemscore.ZeroCoef>
-5.4800

> <Gold.Chemscore.Hbond>
1.9933

> <Gold.Chemscore.Metal>
0.0000

> <Gold.Chemscore.Lipo>
97.8527

> <Gold.Chemscore.Internal_Hbond>
0.0000

> <Gold.Chemscore.DEClash>
1.9271

> <Gold.Chemscore.DEInternal>
0.5714

> <Gold.Chemscore.Rot>
2.0340

> <Gold.Chemscore.Internal.Correction>
   9.000000E+99

> <Gold.Chemscore.Hbonds>
donor molecule, donor type, donor heavy atom, donor atom, acceptor molecule, acceptor atom, score
      L1  H     5    26       P1  7948  0.96
      L1  H    13    34       P1  8028  0.60
      P1  H  7989  7998       L1    12  0.48

> <Gold.Chemscore.Hbond.Weighted>
-6.6576

> <Gold.Chemscore.Metal.Weighted>
-0.0000

> <Gold.Chemscore.Lipo.Weighted>
-11.4488

> <Gold.Chemscore.Internal_Hbond.Weighted>
0.0000

> <Gold.Chemscore.DEClash.Weighted>
1.9271

> <Gold.Chemscore.DEInternal.Weighted>
0.5714

> <Gold.Chemscore.Rot.Weighted>
5.2071

> <Gold.Chemscore.Internal.Correction.Weighted>
   9.000000E+99

> <Gold.Protein.RotatedTorsions>
[ 6907 6896 6895 6894 ] final   26.74 input  -60.11 | X-H torsion
[ 7974 7965 7964 7962 ] final -123.72 input  175.53 | X-H torsion
[ 8008 7997 7996 7995 ] final   88.81 input   59.86 | X-H torsion
[ 10167 10162 10161 10158 ] final  -23.84 input  -65.29 | X-H torsion
[ 10718 10713 10712 10709 ] final  152.71 input   66.30 | X-H torsion
[ 10763 10752 10751 10750 ] final   78.53 input  -60.55 | X-H torsion
[ 11005 11000 10999 10996 ] final    1.71 input  -57.11 | X-H torsion

> <Gold.Protein.ActiveResidues>
 VAL166  LYS551  ARG553  GLY616  TRP617  ASP618  TYR619  PRO620  LYS621  CYS622 
 ASP623  PHE694  ASN695  SER759  ASP760  ASP761  ALA762  ILE779  LEU786  VAL792 
 PHE793  MET794  SER795  GLU796  ALA797  LYS798  CYS799  TRP800  GLU811  SER814 

> <Gold.Protein.RotatedAtoms>
  151.9919  134.9974  160.0561 H   0  0  0  0  0  0  0  0  0  0  0  0  # atno 6907 bound_to 6896
  152.1600  133.4571  159.4864 H   0  0  0  0  0  0  0  0  0  0  0  0  # atno 6908 bound_to 6896
  150.6886  134.2001  159.4362 H   0  0  0  0  0  0  0  0  0  0  0  0  # atno 6909 bound_to 6896
  145.0157  140.7945  143.4411 H   0  0  0  0  0  0  0  0  0  0  0  0  # atno 7974 bound_to 7965
  155.9924  140.3367  155.6765 H   0  0  0  0  0  0  0  0  0  0  0  0  # atno 8008 bound_to 7997
  155.6403  140.0694  157.2638 H   0  0  0  0  0  0  0  0  0  0  0  0  # atno 8009 bound_to 7997
  154.4223  140.1744  156.1553 H   0  0  0  0  0  0  0  0  0  0  0  0  # atno 8010 bound_to 7997
  140.7288  143.4407  151.0662 H   0  0  0  0  0  0  0  0  0  0  0  0  # atno 10167 bound_to 10162
  157.2542  131.0785  151.1709 H   0  0  0  0  0  0  0  0  0  0  0  0  # atno 10718 bound_to 10713
  153.0881  135.4874  154.8637 H   0  0  0  0  0  0  0  0  0  0  0  0  # atno 10763 bound_to 10752
  154.7236  135.3044  154.9010 H   0  0  0  0  0  0  0  0  0  0  0  0  # atno 10764 bound_to 10752
  153.9667  135.6806  153.4799 H   0  0  0  0  0  0  0  0  0  0  0  0  # atno 10765 bound_to 10752
  140.6124  133.9736  155.8184 H   0  0  0  0  0  0  0  0  0  0  0  0  # atno 11005 bound_to 11000
  145.1963  139.2275  143.5216 LP  0  0  0  0  0  0  0  0  0  0  0  0  # atno 17320 bound_to 7965
  146.3477  140.1770  142.8589 LP  0  0  0  0  0  0  0  0  0  0  0  0  # atno 17321 bound_to 7965
  139.8073  143.8000  152.3168 LP  0  0  0  0  0  0  0  0  0  0  0  0  # atno 17342 bound_to 10162
  139.8037  144.7364  150.9790 LP  0  0  0  0  0  0  0  0  0  0  0  0  # atno 17343 bound_to 10162
  157.3245  130.6954  149.6288 LP  0  0  0  0  0  0  0  0  0  0  0  0  # atno 17370 bound_to 10713
  155.9665  130.4325  150.4968 LP  0  0  0  0  0  0  0  0  0  0  0  0  # atno 17371 bound_to 10713
  141.0799  134.0078  157.3402 LP  0  0  0  0  0  0  0  0  0  0  0  0  # atno 17394 bound_to 11000
  139.9187  135.0199  156.7980 LP  0  0  0  0  0  0  0  0  0  0  0  0  # atno 17395 bound_to 11000

$$$$
