AV-unprocessed.smi:3248|AV-procd|sdf|12413|dock10
  -GOLD-   2272018293D 1   1.00000     0.00000
 Structure written by MMmdl.
 38 39  0  0  0  0  0  0  0  0  1 V2000
  154.0709  140.1602  161.1461 C   0  0  0  0  0  0  0  0  0  0  0  0
  153.5669  141.3294  160.2841 C   0  0  2  0  0  0  0  0  0  0  0  0
  152.9511  142.4765  161.1174 C   0  0  0  0  0  0  0  0  0  0  0  0
  152.4228  143.5553  160.3018 N   0  0  0  0  0  0  0  0  0  0  0  0
  151.6728  144.6424  160.6996 C   0  0  0  0  0  0  0  0  0  0  0  0
  151.3958  145.3759  159.5818 C   0  0  0  0  0  0  0  0  0  0  0  0
  152.0229  144.6449  158.5340 C   0  0  0  0  0  0  0  0  0  0  0  0
  152.6321  143.5532  158.9674 N   0  0  0  0  0  0  0  0  0  0  0  0
  152.5920  140.8263  159.3206 N   0  0  0  0  0  0  0  0  0  0  0  0
  152.8347  139.9122  158.3652 C   0  0  0  0  0  0  0  0  0  0  0  0
  153.9292  139.3627  158.2417 O   0  0  0  0  0  0  0  0  0  0  0  0
  151.7328  139.5805  157.6472 N   0  0  0  0  0  0  0  0  0  0  0  0
  150.6923  140.5763  157.3486 C   0  0  0  0  0  0  0  0  0  0  0  0
  150.9782  141.1745  155.9572 C   0  0  0  0  0  0  0  0  0  0  0  0
  151.0044  140.1375  154.9790 O   0  0  0  0  0  0  0  0  0  0  0  0
  151.9633  139.1192  155.2582 C   0  0  0  0  0  0  0  0  0  0  0  0
  151.6644  138.5031  156.6398 C   0  0  1  0  0  0  0  0  0  0  0  0
  152.5256  137.2569  156.9341 C   0  0  0  0  0  0  0  0  0  0  0  0
  154.8666  140.4750  161.8217 H   0  0  0  0  0  0  0  0  0  0  0  0
  154.4745  139.3609  160.5239 H   0  0  0  0  0  0  0  0  0  0  0  0
  153.2675  139.7384  161.7510 H   0  0  0  0  0  0  0  0  0  0  0  0
  154.4243  141.7191  159.7319 H   0  0  0  0  0  0  0  0  0  0  0  0
  152.1420  142.1024  161.7463 H   0  0  0  0  0  0  0  0  0  0  0  0
  153.7005  142.8933  161.7918 H   0  0  0  0  0  0  0  0  0  0  0  0
  151.4023  144.8022  161.7331 H   0  0  0  0  0  0  0  0  0  0  0  0
  150.8302  146.2938  159.5211 H   0  0  0  0  0  0  0  0  0  0  0  0
  152.0510  144.8720  157.4785 H   0  0  0  0  0  0  0  0  0  0  0  0
  151.6553  141.1967  159.3880 H   0  0  0  0  0  0  0  0  0  0  0  0
  149.7105  140.1007  157.3608 H   0  0  0  0  0  0  0  0  0  0  0  0
  150.6385  141.3801  158.0836 H   0  0  0  0  0  0  0  0  0  0  0  0
  150.2033  141.8925  155.6883 H   0  0  0  0  0  0  0  0  0  0  0  0
  151.9276  141.7126  155.9525 H   0  0  0  0  0  0  0  0  0  0  0  0
  151.8976  138.3593  154.4793 H   0  0  0  0  0  0  0  0  0  0  0  0
  152.9728  139.5319  155.2192 H   0  0  0  0  0  0  0  0  0  0  0  0
  150.6339  138.1437  156.6274 H   0  0  0  0  0  0  0  0  0  0  0  0
  152.2566  136.4422  156.2614 H   0  0  0  0  0  0  0  0  0  0  0  0
  152.3730  136.9006  157.9534 H   0  0  0  0  0  0  0  0  0  0  0  0
  153.5900  137.4412  156.7908 H   0  0  0  0  0  0  0  0  0  0  0  0
  1  2  1  0  0  0  0
  1 19  1  0  0  0  0
  1 20  1  0  0  0  0
  1 21  1  0  0  0  0
  2  3  1  0  0  0  0
  2  9  1  0  0  0  0
  2 22  1  0  0  0  0
  3  4  1  0  0  0  0
  3 23  1  0  0  0  0
  3 24  1  0  0  0  0
  4  8  1  0  0  0  0
  4  5  1  0  0  0  0
  5  6  2  0  0  0  0
  5 25  1  0  0  0  0
  6  7  1  0  0  0  0
  6 26  1  0  0  0  0
  7  8  2  0  0  0  0
  7 27  1  0  0  0  0
  9 10  1  0  0  0  0
  9 28  1  0  0  0  0
 10 11  2  0  0  0  0
 10 12  1  0  0  0  0
 12 17  1  0  0  0  0
 12 13  1  0  0  0  0
 13 14  1  0  0  0  0
 13 29  1  0  0  0  0
 13 30  1  0  0  0  0
 14 15  1  0  0  0  0
 14 31  1  0  0  0  0
 14 32  1  0  0  0  0
 15 16  1  0  0  0  0
 16 17  1  0  0  0  0
 16 33  1  0  0  0  0
 16 34  1  0  0  0  0
 17 18  1  0  0  0  0
 17 35  1  0  0  0  0
 18 36  1  0  0  0  0
 18 37  1  0  0  0  0
 18 38  1  0  0  0  0
M  END
> <s_m_source_file>
AV-unprocessed.smi

> <i_m_source_file_index>
3248

> <i_lp_mmshare_version>
43012

> <i_f3d_flags>
0

> <s_epik_input>
bjFbY0hdW2NIXVtjSF1uMVtDSDJdW0NAQEhdKFtDSDNdKVtOSF1DKD1PKU4yW0NIMl1bQ0gyXU9bQ0gyXVtDQEhdMltDSDNd

> <s_epik_cmdline>
J2VwaWtfcHl0aG9uJywgJy1waCcsICc3LjAnLCAnLXRuJywgJzgnLCAnLW1hJywgJzIwMCcsICctbWV0YWxfYmluZGluZycsICctaW1hZScsICc8aW5maWxlLm1hZT4nLCAnLW9tYWUnLCAnPG91dGZpbGUubWFlPic=

> <r_lp_tautomer_probability>
1

> <r_epik_Ionization_Penalty>
4.45233e-05

> <r_epik_Ionization_Penalty_Charging>
0

> <r_epik_Ionization_Penalty_Neutral>
4.45233e-05

> <r_epik_State_Penalty>
-0

> <r_epik_Charging_Adjusted_Penalty>
0

> <i_epik_Tot_Q>
0

> <i_epik_Tot_abs_Q>
0

> <r_epik_Metal_State_Penalty>
-0

> <b_epik_Metal_Only>
0

> <s_lp_Force_Field>
OPLS_2005

> <r_lp_Energy>
31.5175

> <b_lp_Chiralities_Consistent>
1

> <s_lp_Variant>
AV-unprocessed.smi:3248-1

> <Gold.Version>
5.8.1

> <Gold.Id.Protein>
6NUR|6NUR_protein|mol2

> <Gold.PLP.Fitness>
49.0945

> <Gold.PLP.PLP>
-43.2648

> <Gold.PLP.part.hbond>
-2.0000

> <Gold.PLP.part.metal>
0.0000

> <Gold.PLP.part.buried>
-5.4250

> <Gold.PLP.part.nonpolar>
-35.4280

> <Gold.PLP.part.repulsive>
0.1739

> <Gold.PLP.ligand.clash>
0.0154

> <Gold.PLP.ligand.torsion>
0.3006

> <Gold.PLP.Chemscore.Hbond>
2.0000

> <Gold.PLP.Chemscore.CHOScore>
0.0000

> <Gold.PLP.Chemscore.Metal>
0.0000

> <Gold.Chemscore.Hbonds>
donor molecule, donor type, donor heavy atom, donor atom, acceptor molecule, acceptor atom, score
      P1  H  7989  7998       L1    15  1.00
      P1  H  7997  8009       L1    11  0.99

> <Gold.PLP.Chemscore.Internal.Correction>
0.4461

> <Gold.Rescore>
     Score         DG    S(hbond)    S(metal)    S(lipo)     H(rot)  DE(clash)    DE(int)     intcor
     16.95     -18.61       1.54        0.00      99.25       1.42       0.02       1.64       ----

> <Gold.Chemscore.Fitness>
16.9548

> <Gold.Chemscore.DG>
-18.6148

> <Gold.Chemscore.ZeroCoef>
-5.4800

> <Gold.Chemscore.Hbond>
1.5435

> <Gold.Chemscore.Metal>
0.0000

> <Gold.Chemscore.Lipo>
99.2525

> <Gold.Chemscore.Internal_Hbond>
0.0000

> <Gold.Chemscore.DEClash>
0.0240

> <Gold.Chemscore.DEInternal>
1.6359

> <Gold.Chemscore.Rot>
1.4191

> <Gold.Chemscore.Internal.Correction>
   9.000000E+99

> <Gold.Chemscore.Hbonds>
donor molecule, donor type, donor heavy atom, donor atom, acceptor molecule, acceptor atom, score
      P1  H  7989  7998       L1    15  0.22
      P1  H  7997  8009       L1    11  0.86

> <Gold.Chemscore.Hbond.Weighted>
-5.1552

> <Gold.Chemscore.Metal.Weighted>
-0.0000

> <Gold.Chemscore.Lipo.Weighted>
-11.6125

> <Gold.Chemscore.Internal_Hbond.Weighted>
0.0000

> <Gold.Chemscore.DEClash.Weighted>
0.0240

> <Gold.Chemscore.DEInternal.Weighted>
1.6359

> <Gold.Chemscore.Rot.Weighted>
3.6330

> <Gold.Chemscore.Internal.Correction.Weighted>
   9.000000E+99

> <Gold.Protein.RotatedTorsions>
[ 6907 6896 6895 6894 ] final -170.74 input  -60.11 | X-H torsion
[ 7974 7965 7964 7962 ] final   -1.32 input  175.53 | X-H torsion
[ 8008 7997 7996 7995 ] final  132.27 input   59.86 | X-H torsion
[ 10167 10162 10161 10158 ] final   96.69 input  -65.29 | X-H torsion
[ 10718 10713 10712 10709 ] final -147.59 input   66.30 | X-H torsion
[ 10763 10752 10751 10750 ] final  -80.58 input  -60.55 | X-H torsion
[ 11005 11000 10999 10996 ] final   80.01 input  -57.11 | X-H torsion

> <Gold.Protein.ActiveResidues>
 VAL166  LYS551  ARG553  GLY616  TRP617  ASP618  TYR619  PRO620  LYS621  CYS622 
 ASP623  PHE694  ASN695  SER759  ASP760  ASP761  ALA762  ILE779  LEU786  VAL792 
 PHE793  MET794  SER795  GLU796  ALA797  LYS798  CYS799  TRP800  GLU811  SER814 

> <Gold.Protein.RotatedAtoms>
  151.5126  133.3482  159.2887 H   0  0  0  0  0  0  0  0  0  0  0  0  # atno 6907 bound_to 6896
  150.8702  134.8077  159.7160 H   0  0  0  0  0  0  0  0  0  0  0  0  # atno 6908 bound_to 6896
  152.4693  134.5009  159.9776 H   0  0  0  0  0  0  0  0  0  0  0  0  # atno 6909 bound_to 6896
  146.2418  140.1403  142.8336 H   0  0  0  0  0  0  0  0  0  0  0  0  # atno 7974 bound_to 7965
  156.2980  140.2550  156.3062 H   0  0  0  0  0  0  0  0  0  0  0  0  # atno 8008 bound_to 7997
  154.9370  140.0397  157.2096 H   0  0  0  0  0  0  0  0  0  0  0  0  # atno 8009 bound_to 7997
  154.8163  140.2852  155.5822 H   0  0  0  0  0  0  0  0  0  0  0  0  # atno 8010 bound_to 7997
  139.7871  144.6866  150.9943 H   0  0  0  0  0  0  0  0  0  0  0  0  # atno 10167 bound_to 10162
  156.4095  130.7974  151.2191 H   0  0  0  0  0  0  0  0  0  0  0  0  # atno 10718 bound_to 10713
  154.5530  135.5656  153.6939 H   0  0  0  0  0  0  0  0  0  0  0  0  # atno 10763 bound_to 10752
  152.9995  135.6255  154.2348 H   0  0  0  0  0  0  0  0  0  0  0  0  # atno 10764 bound_to 10752
  154.2283  135.2867  155.2879 H   0  0  0  0  0  0  0  0  0  0  0  0  # atno 10765 bound_to 10752
  139.9151  134.7887  156.1853 H   0  0  0  0  0  0  0  0  0  0  0  0  # atno 11005 bound_to 11000
  145.0252  140.8826  143.5142 LP  0  0  0  0  0  0  0  0  0  0  0  0  # atno 17320 bound_to 7965
  145.1458  139.2544  143.5467 LP  0  0  0  0  0  0  0  0  0  0  0  0  # atno 17321 bound_to 7965
  140.7820  143.4420  151.0537 LP  0  0  0  0  0  0  0  0  0  0  0  0  # atno 17342 bound_to 10162
  139.8099  143.7966  152.3170 LP  0  0  0  0  0  0  0  0  0  0  0  0  # atno 17343 bound_to 10162
  157.7506  131.0262  150.3952 LP  0  0  0  0  0  0  0  0  0  0  0  0  # atno 17370 bound_to 10713
  156.4247  130.3960  149.6801 LP  0  0  0  0  0  0  0  0  0  0  0  0  # atno 17371 bound_to 10713
  141.0617  133.6838  156.1965 LP  0  0  0  0  0  0  0  0  0  0  0  0  # atno 17394 bound_to 11000
  140.6650  134.4928  157.5585 LP  0  0  0  0  0  0  0  0  0  0  0  0  # atno 17395 bound_to 11000

$$$$
