AV-unprocessed.smi:1040|AV-procd|sdf|4527|dock2
  -GOLD-   22720 2543D 1   1.00000     0.00000
 Structure written by MMmdl.
 55 56  0  0  0  0  0  0  0  0  2 V2000
  147.2384  134.9939  157.5429 C   0  0  0  0  0  0  0  0  0  0  0  0
  148.1973  135.8157  158.4201 C   0  0  1  0  0  0  0  0  0  0  0  0
  148.4544  137.1217  157.8171 N   0  0  0  0  0  0  0  0  0  0  0  0
  149.3121  138.0447  158.2732 C   0  0  0  0  0  0  0  0  0  0  0  0
  150.0365  137.8820  159.2548 O   0  0  0  0  0  0  0  0  0  0  0  0
  149.2519  139.1631  157.5327 N   0  0  0  0  0  0  0  0  0  0  0  0
  149.9530  140.3861  157.7289 C   0  0  0  0  0  0  0  0  0  0  0  0
  151.1317  140.4637  158.5133 C   0  0  0  0  0  0  0  0  0  0  0  0
  151.7855  141.7015  158.6707 C   0  0  0  0  0  0  0  0  0  0  0  0
  151.2547  142.8405  158.0382 C   0  0  0  0  0  0  0  0  0  0  0  0
  150.1389  142.7308  157.2874 N   0  3  0  0  0  0  0  0  0  0  0  0
  149.4728  141.5651  157.0982 C   0  0  0  0  0  0  0  0  0  0  0  0
  148.3249  141.5683  156.2820 N   0  0  0  0  0  0  0  0  0  0  0  0
  147.1273  142.2071  156.8265 C   0  0  0  0  0  0  0  0  0  0  0  0
  145.8879  141.8334  155.9955 C   0  0  0  0  0  0  0  0  0  0  0  0
  146.1046  142.1550  154.5077 C   0  0  0  0  0  0  0  0  0  0  0  0
  147.3925  141.4874  153.9983 C   0  0  0  0  0  0  0  0  0  0  0  0
  148.5961  141.8677  154.8774 C   0  0  0  0  0  0  0  0  0  0  0  0
  147.7136  135.9731  159.8666 C   0  0  0  0  0  0  0  0  0  0  0  0
  147.7445  137.0766  160.4136 O   0  0  0  0  0  0  0  0  0  0  0  0
  147.2563  134.8566  160.4613 N   0  0  0  0  0  0  0  0  0  0  0  0
  146.7331  134.6976  161.8236 C   0  0  0  0  0  0  0  0  0  0  0  0
  146.7847  133.1947  162.1499 C   0  0  0  0  0  0  0  0  0  0  0  0
  145.2685  135.1780  161.9038 C   0  0  0  0  0  0  0  0  0  0  0  0
  147.6130  135.4600  162.8371 C   0  0  0  0  0  0  0  0  0  0  0  0
  147.0547  134.0096  157.9752 H   0  0  0  0  0  0  0  0  0  0  0  0
  147.6490  134.8394  156.5448 H   0  0  0  0  0  0  0  0  0  0  0  0
  146.2748  135.4928  157.4330 H   0  0  0  0  0  0  0  0  0  0  0  0
  149.1467  135.2780  158.4679 H   0  0  0  0  0  0  0  0  0  0  0  0
  147.9010  137.3485  157.0035 H   0  0  0  0  0  0  0  0  0  0  0  0
  148.5406  139.1798  156.8166 H   0  0  0  0  0  0  0  0  0  0  0  0
  151.5509  139.5899  158.9888 H   0  0  0  0  0  0  0  0  0  0  0  0
  152.6835  141.7743  159.2668 H   0  0  0  0  0  0  0  0  0  0  0  0
  151.6898  143.8274  158.1030 H   0  0  0  0  0  0  0  0  0  0  0  0
  146.9811  141.9001  157.8630 H   0  0  0  0  0  0  0  0  0  0  0  0
  147.2606  143.2900  156.8252 H   0  0  0  0  0  0  0  0  0  0  0  0
  145.6784  140.7690  156.1118 H   0  0  0  0  0  0  0  0  0  0  0  0
  145.0126  142.3642  156.3707 H   0  0  0  0  0  0  0  0  0  0  0  0
  145.2488  141.8201  153.9207 H   0  0  0  0  0  0  0  0  0  0  0  0
  146.1728  143.2350  154.3718 H   0  0  0  0  0  0  0  0  0  0  0  0
  147.2680  140.4035  154.0002 H   0  0  0  0  0  0  0  0  0  0  0  0
  147.5792  141.7760  152.9636 H   0  0  0  0  0  0  0  0  0  0  0  0
  148.8049  142.9338  154.7796 H   0  0  0  0  0  0  0  0  0  0  0  0
  149.4858  141.3419  154.5302 H   0  0  0  0  0  0  0  0  0  0  0  0
  147.2730  134.0140  159.9050 H   0  0  0  0  0  0  0  0  0  0  0  0
  146.4098  132.9933  163.1541 H   0  0  0  0  0  0  0  0  0  0  0  0
  147.8043  132.8104  162.0987 H   0  0  0  0  0  0  0  0  0  0  0  0
  146.1791  132.6142  161.4526 H   0  0  0  0  0  0  0  0  0  0  0  0
  144.6437  134.6725  161.1666 H   0  0  0  0  0  0  0  0  0  0  0  0
  145.1773  136.2506  161.7330 H   0  0  0  0  0  0  0  0  0  0  0  0
  144.8423  134.9755  162.8870 H   0  0  0  0  0  0  0  0  0  0  0  0
  147.2862  135.2700  163.8600 H   0  0  0  0  0  0  0  0  0  0  0  0
  147.5744  136.5388  162.6868 H   0  0  0  0  0  0  0  0  0  0  0  0
  148.6575  135.1543  162.7651 H   0  0  0  0  0  0  0  0  0  0  0  0
  149.7808  143.5708  156.8328 H   0  0  0  0  0  0  0  0  0  0  0  0
  1  2  1  0  0  0  0
  1 26  1  0  0  0  0
  1 27  1  0  0  0  0
  1 28  1  0  0  0  0
  2  3  1  0  0  0  0
  2 19  1  0  0  0  0
  2 29  1  0  0  0  0
  3  4  1  0  0  0  0
  3 30  1  0  0  0  0
  4  5  2  0  0  0  0
  4  6  1  0  0  0  0
  6  7  1  0  0  0  0
  6 31  1  0  0  0  0
  7 12  1  0  0  0  0
  7  8  2  0  0  0  0
  8  9  1  0  0  0  0
  8 32  1  0  0  0  0
  9 10  2  0  0  0  0
  9 33  1  0  0  0  0
 10 11  1  0  0  0  0
 10 34  1  0  0  0  0
 11 12  2  0  0  0  0
 11 55  1  0  0  0  0
 12 13  1  0  0  0  0
 13 18  1  0  0  0  0
 13 14  1  0  0  0  0
 14 15  1  0  0  0  0
 14 35  1  0  0  0  0
 14 36  1  0  0  0  0
 15 16  1  0  0  0  0
 15 37  1  0  0  0  0
 15 38  1  0  0  0  0
 16 17  1  0  0  0  0
 16 39  1  0  0  0  0
 16 40  1  0  0  0  0
 17 18  1  0  0  0  0
 17 41  1  0  0  0  0
 17 42  1  0  0  0  0
 18 43  1  0  0  0  0
 18 44  1  0  0  0  0
 19 20  2  0  0  0  0
 19 21  1  0  0  0  0
 21 22  1  0  0  0  0
 21 45  1  0  0  0  0
 22 23  1  0  0  0  0
 22 24  1  0  0  0  0
 22 25  1  0  0  0  0
 23 46  1  0  0  0  0
 23 47  1  0  0  0  0
 23 48  1  0  0  0  0
 24 49  1  0  0  0  0
 24 50  1  0  0  0  0
 24 51  1  0  0  0  0
 25 52  1  0  0  0  0
 25 53  1  0  0  0  0
 25 54  1  0  0  0  0
M  CHG  1  11   1
M  END
> <s_m_source_file>
AV-unprocessed.smi

> <i_m_source_file_index>
1040

> <i_lp_mmshare_version>
43012

> <i_f3d_flags>
0

> <s_epik_input>
W0NIM11DKFtDSDNdKShbQ0gzXSlbTkhdQyg9TylbQ0BIXShbQ0gzXSlbTkhdQyg9TylbTkhdYzFbY0hdW2NIXVtjSF1uYzFOMltDSDJdW0NIMl1bQ0gyXVtDSDJdW0NIMl0y

> <s_epik_cmdline>
J2VwaWtfcHl0aG9uJywgJy1waCcsICc3LjAnLCAnLXRuJywgJzgnLCAnLW1hJywgJzIwMCcsICctbWV0YWxfYmluZGluZycsICctaW1hZScsICc8aW5maWxlLm1hZT4nLCAnLW9tYWUnLCAnPG91dGZpbGUubWFlPic=

> <r_lp_tautomer_probability>
0.999994

> <r_epik_Ionization_Penalty>
1.20468

> <r_epik_Ionization_Penalty_Charging>
1.20466

> <r_epik_Ionization_Penalty_Neutral>
1.88859e-05

> <r_epik_State_Penalty>
1.27057

> <r_epik_Charging_Adjusted_Penalty>
2.47523

> <i_epik_Tot_Q>
1

> <i_epik_Tot_abs_Q>
1

> <r_epik_Metal_State_Penalty>
1.34448

> <b_epik_Metal_Only>
0

> <s_lp_Force_Field>
OPLS_2005

> <r_lp_Energy>
27.4215

> <b_lp_Chiralities_Consistent>
1

> <s_lp_Variant>
AV-unprocessed.smi:1040-4

> <Gold.Version>
5.8.1

> <Gold.Id.Protein>
6NUR|6NUR_protein|mol2

> <Gold.PLP.Fitness>
50.0054

> <Gold.PLP.PLP>
-40.7504

> <Gold.PLP.part.hbond>
-4.0000

> <Gold.PLP.part.metal>
0.0000

> <Gold.PLP.part.buried>
-5.7161

> <Gold.PLP.part.nonpolar>
-32.5986

> <Gold.PLP.part.repulsive>
0.3371

> <Gold.PLP.ligand.clash>
0.0000

> <Gold.PLP.ligand.torsion>
0.8787

> <Gold.PLP.Chemscore.Hbond>
3.5453

> <Gold.PLP.Chemscore.CHOScore>
0.0000

> <Gold.PLP.Chemscore.Metal>
0.0000

> <Gold.Chemscore.Hbonds>
donor molecule, donor type, donor heavy atom, donor atom, acceptor molecule, acceptor atom, score
      L1  H    11    55       P1  8028  2.00
      P1  H  6931  6943       L1    20  0.27
      P1  H  6934  6947       L1    20  0.79

> <Gold.PLP.Chemscore.Internal.Correction>
0.3764

> <Gold.Rescore>
     Score         DG    S(hbond)    S(metal)    S(lipo)     H(rot)  DE(clash)    DE(int)     intcor
     16.62     -20.99       2.54        0.00      95.96       1.64       0.07       4.30       ----

> <Gold.Chemscore.Fitness>
16.6196

> <Gold.Chemscore.DG>
-20.9942

> <Gold.Chemscore.ZeroCoef>
-5.4800

> <Gold.Chemscore.Hbond>
2.5425

> <Gold.Chemscore.Metal>
0.0000

> <Gold.Chemscore.Lipo>
95.9643

> <Gold.Chemscore.Internal_Hbond>
0.0000

> <Gold.Chemscore.DEClash>
0.0697

> <Gold.Chemscore.DEInternal>
4.3049

> <Gold.Chemscore.Rot>
1.6428

> <Gold.Chemscore.Internal.Correction>
   9.000000E+99

> <Gold.Chemscore.Hbonds>
donor molecule, donor type, donor heavy atom, donor atom, acceptor molecule, acceptor atom, score
      L1  H    11    55       P1  8028  0.99
      P1  H  6931  6943       L1    20  0.27
      P1  H  6934  6947       L1    20  0.74

> <Gold.Chemscore.Hbond.Weighted>
-8.4919

> <Gold.Chemscore.Metal.Weighted>
-0.0000

> <Gold.Chemscore.Lipo.Weighted>
-11.2278

> <Gold.Chemscore.Internal_Hbond.Weighted>
0.0000

> <Gold.Chemscore.DEClash.Weighted>
0.0697

> <Gold.Chemscore.DEInternal.Weighted>
4.3049

> <Gold.Chemscore.Rot.Weighted>
4.2055

> <Gold.Chemscore.Internal.Correction.Weighted>
   9.000000E+99

> <Gold.Protein.RotatedTorsions>
[ 6907 6896 6895 6894 ] final  -46.87 input  -60.11 | X-H torsion
[ 7974 7965 7964 7962 ] final   69.00 input  175.53 | X-H torsion
[ 8008 7997 7996 7995 ] final   76.13 input   59.86 | X-H torsion
[ 10167 10162 10161 10158 ] final   21.68 input  -65.29 | X-H torsion
[ 10718 10713 10712 10709 ] final    3.94 input   66.30 | X-H torsion
[ 10763 10752 10751 10750 ] final -109.55 input  -60.55 | X-H torsion
[ 11005 11000 10999 10996 ] final  -52.82 input  -57.11 | X-H torsion

> <Gold.Protein.ActiveResidues>
 VAL166  LYS551  ARG553  GLY616  TRP617  ASP618  TYR619  PRO620  LYS621  CYS622 
 ASP623  PHE694  ASN695  SER759  ASP760  ASP761  ALA762  ILE779  LEU786  VAL792 
 PHE793  MET794  SER795  GLU796  ALA797  LYS798  CYS799  TRP800  GLU811  SER814 

> <Gold.Protein.RotatedAtoms>
  150.9067  134.8482  159.7397 H   0  0  0  0  0  0  0  0  0  0  0  0  # atno 6907 bound_to 6896
  152.4922  134.4420  159.9556 H   0  0  0  0  0  0  0  0  0  0  0  0  # atno 6908 bound_to 6896
  151.4467  133.3589  159.2824 H   0  0  0  0  0  0  0  0  0  0  0  0  # atno 6909 bound_to 6896
  145.7958  139.2957  143.1184 H   0  0  0  0  0  0  0  0  0  0  0  0  # atno 7974 bound_to 7965
  155.8229  140.3469  155.5525 H   0  0  0  0  0  0  0  0  0  0  0  0  # atno 8008 bound_to 7997
  155.8323  140.0929  157.1805 H   0  0  0  0  0  0  0  0  0  0  0  0  # atno 8009 bound_to 7997
  154.4004  140.1410  156.3616 H   0  0  0  0  0  0  0  0  0  0  0  0  # atno 8010 bound_to 7997
  140.5408  143.9681  150.6518 H   0  0  0  0  0  0  0  0  0  0  0  0  # atno 10167 bound_to 10162
  156.8852  130.5668  149.5651 H   0  0  0  0  0  0  0  0  0  0  0  0  # atno 10718 bound_to 10713
  154.8199  135.4597  154.0750 H   0  0  0  0  0  0  0  0  0  0  0  0  # atno 10763 bound_to 10752
  153.2112  135.6882  153.8118 H   0  0  0  0  0  0  0  0  0  0  0  0  # atno 10764 bound_to 10752
  153.7569  135.3290  155.3307 H   0  0  0  0  0  0  0  0  0  0  0  0  # atno 10765 bound_to 10752
  141.0944  133.6627  156.4080 H   0  0  0  0  0  0  0  0  0  0  0  0  # atno 11005 bound_to 11000
  145.9930  140.8586  143.0057 LP  0  0  0  0  0  0  0  0  0  0  0  0  # atno 17320 bound_to 7965
  144.6775  140.2242  143.7363 LP  0  0  0  0  0  0  0  0  0  0  0  0  # atno 17321 bound_to 7965
  140.3081  143.3216  152.0906 LP  0  0  0  0  0  0  0  0  0  0  0  0  # atno 17342 bound_to 10162
  139.4988  144.6654  151.6368 LP  0  0  0  0  0  0  0  0  0  0  0  0  # atno 17343 bound_to 10162
  156.0657  130.5700  150.9283 LP  0  0  0  0  0  0  0  0  0  0  0  0  # atno 17370 bound_to 10713
  157.6116  131.0936  150.8784 LP  0  0  0  0  0  0  0  0  0  0  0  0  # atno 17371 bound_to 10713
  140.5175  134.6336  157.5306 LP  0  0  0  0  0  0  0  0  0  0  0  0  # atno 17394 bound_to 11000
  139.9777  134.7188  155.9918 LP  0  0  0  0  0  0  0  0  0  0  0  0  # atno 17395 bound_to 11000

$$$$
