AV-unprocessed.smi:496|AV-procd|sdf|2716|dock6
  -GOLD-   2262023163D 1   1.00000     0.00000
 Structure written by MMmdl.
 42 44  0  0  0  0  0  0  0  0  1 V2000
  155.8888  139.7853  160.3275 C   0  0  0  0  0  0  0  0  0  0  0  0
  154.9832  139.4372  159.2949 O   0  0  0  0  0  0  0  0  0  0  0  0
  153.8648  138.7126  159.7762 C   0  0  0  0  0  0  0  0  0  0  0  0
  152.8447  138.5644  158.6406 C   0  0  0  0  0  0  0  0  0  0  0  0
  151.9003  139.6715  158.6156 N   0  0  0  0  0  0  0  0  0  0  0  0
  150.5905  139.6645  158.2519 C   0  0  0  0  0  0  0  0  0  0  0  0
  149.8778  138.4204  157.7824 C   0  0  2  0  0  0  0  0  0  0  0  0
  148.9958  138.6875  156.5549 C   0  0  0  0  0  0  0  0  0  0  0  0
  149.0686  137.9076  158.8852 N   0  0  0  0  0  0  0  0  0  0  0  0
  148.9325  136.6119  159.2095 C   0  0  0  0  0  0  0  0  0  0  0  0
  149.4683  135.6962  158.5849 O   0  0  0  0  0  0  0  0  0  0  0  0
  148.0706  136.3295  160.3725 C   0  0  0  0  0  0  0  0  0  0  0  0
  147.5839  135.1506  160.8743 C   0  0  0  0  0  0  0  0  0  0  0  0
  146.7889  135.4866  162.0048 C   0  0  0  0  0  0  0  0  0  0  0  0
  146.8412  136.8470  162.1096 C   0  0  0  0  0  0  0  0  0  0  0  0
  147.6122  137.3753  161.1205 O   0  0  0  0  0  0  0  0  0  0  0  0
  149.9629  140.8404  158.3439 N   0  0  0  0  0  0  0  0  0  0  0  0
  150.9565  141.6866  158.7918 C   0  0  0  0  0  0  0  0  0  0  0  0
  150.9231  143.0702  159.0780 C   0  0  0  0  0  0  0  0  0  0  0  0
  152.0838  143.7345  159.5252 C   0  0  0  0  0  0  0  0  0  0  0  0
  153.2913  143.0263  159.6928 C   0  0  0  0  0  0  0  0  0  0  0  0
  153.3450  141.6468  159.4149 C   0  0  0  0  0  0  0  0  0  0  0  0
  152.1833  140.9878  158.9688 C   0  0  0  0  0  0  0  0  0  0  0  0
  156.7279  140.3397  159.9072 H   0  0  0  0  0  0  0  0  0  0  0  0
  156.2855  138.8968  160.8206 H   0  0  0  0  0  0  0  0  0  0  0  0
  155.4092  140.4170  161.0764 H   0  0  0  0  0  0  0  0  0  0  0  0
  154.1803  137.7277  160.1250 H   0  0  0  0  0  0  0  0  0  0  0  0
  153.4193  139.2355  160.6236 H   0  0  0  0  0  0  0  0  0  0  0  0
  153.3392  138.4849  157.6728 H   0  0  0  0  0  0  0  0  0  0  0  0
  152.2891  137.6347  158.7650 H   0  0  0  0  0  0  0  0  0  0  0  0
  150.5954  137.6528  157.4968 H   0  0  0  0  0  0  0  0  0  0  0  0
  149.5905  139.0628  155.7218 H   0  0  0  0  0  0  0  0  0  0  0  0
  148.2230  139.4263  156.7701 H   0  0  0  0  0  0  0  0  0  0  0  0
  148.5003  137.7751  156.2221 H   0  0  0  0  0  0  0  0  0  0  0  0
  148.5924  138.5906  159.4558 H   0  0  0  0  0  0  0  0  0  0  0  0
  147.7749  134.1643  160.4769 H   0  0  0  0  0  0  0  0  0  0  0  0
  146.2460  134.8184  162.6569 H   0  0  0  0  0  0  0  0  0  0  0  0
  146.4094  137.5648  162.7916 H   0  0  0  0  0  0  0  0  0  0  0  0
  150.0031  143.6215  158.9518 H   0  0  0  0  0  0  0  0  0  0  0  0
  152.0478  144.7925  159.7399 H   0  0  0  0  0  0  0  0  0  0  0  0
  154.1764  143.5425  160.0350 H   0  0  0  0  0  0  0  0  0  0  0  0
  154.2695  141.1037  159.5422 H   0  0  0  0  0  0  0  0  0  0  0  0
  1  2  1  0  0  0  0
  1 24  1  0  0  0  0
  1 25  1  0  0  0  0
  1 26  1  0  0  0  0
  2  3  1  0  0  0  0
  3  4  1  0  0  0  0
  3 27  1  0  0  0  0
  3 28  1  0  0  0  0
  4  5  1  0  0  0  0
  4 29  1  0  0  0  0
  4 30  1  0  0  0  0
  5 23  1  0  0  0  0
  5  6  1  0  0  0  0
  6  7  1  0  0  0  0
  6 17  2  0  0  0  0
  7  8  1  0  0  0  0
  7  9  1  0  0  0  0
  7 31  1  0  0  0  0
  8 32  1  0  0  0  0
  8 33  1  0  0  0  0
  8 34  1  0  0  0  0
  9 10  1  0  0  0  0
  9 35  1  0  0  0  0
 10 11  2  0  0  0  0
 10 12  1  0  0  0  0
 12 16  1  0  0  0  0
 12 13  2  0  0  0  0
 13 14  1  0  0  0  0
 13 36  1  0  0  0  0
 14 15  2  0  0  0  0
 14 37  1  0  0  0  0
 15 16  1  0  0  0  0
 15 38  1  0  0  0  0
 17 18  1  0  0  0  0
 18 23  2  0  0  0  0
 18 19  1  0  0  0  0
 19 20  2  0  0  0  0
 19 39  1  0  0  0  0
 20 21  1  0  0  0  0
 20 40  1  0  0  0  0
 21 22  2  0  0  0  0
 21 41  1  0  0  0  0
 22 23  1  0  0  0  0
 22 42  1  0  0  0  0
M  END
> <s_m_source_file>
AV-unprocessed.smi

> <i_m_source_file_index>
496

> <i_lp_mmshare_version>
43012

> <i_f3d_flags>
0

> <s_epik_input>
W2NIXTFbY0hdW2NIXVtjSF1jKGMxMiluKFtDSDJdW0NIMl1PW0NIM10pYyhuMilbQ0BIXShbQ0gzXSlbTkhdQyg9TyljM1tjSF1bY0hdW2NIXW8z

> <s_epik_cmdline>
J2VwaWtfcHl0aG9uJywgJy1waCcsICc3LjAnLCAnLXRuJywgJzgnLCAnLW1hJywgJzIwMCcsICctbWV0YWxfYmluZGluZycsICctaW1hZScsICc8aW5maWxlLm1hZT4nLCAnLW9tYWUnLCAnPG91dGZpbGUubWFlPic=

> <r_epik_Ionization_Penalty>
0.116528

> <r_epik_Ionization_Penalty_Charging>
0

> <r_epik_Ionization_Penalty_Neutral>
0.116528

> <r_epik_State_Penalty>
0.106132

> <r_epik_Charging_Adjusted_Penalty>
0.106132

> <i_epik_Tot_Q>
0

> <i_epik_Tot_abs_Q>
0

> <r_epik_Metal_State_Penalty>
0.0963468

> <b_epik_Metal_Only>
0

> <s_lp_Force_Field>
OPLS_2005

> <r_lp_Energy>
7.66614

> <b_lp_Chiralities_Consistent>
1

> <s_lp_Variant>
AV-unprocessed.smi:496-1

> <Gold.Version>
5.8.1

> <Gold.Id.Protein>
6NUR|6NUR_protein|mol2

> <Gold.PLP.Fitness>
48.7487

> <Gold.PLP.PLP>
-40.1147

> <Gold.PLP.part.hbond>
-4.0000

> <Gold.PLP.part.metal>
0.0000

> <Gold.PLP.part.buried>
-5.4518

> <Gold.PLP.part.nonpolar>
-30.9474

> <Gold.PLP.part.repulsive>
0.2065

> <Gold.PLP.ligand.clash>
0.0000

> <Gold.PLP.ligand.torsion>
1.3480

> <Gold.PLP.Chemscore.Hbond>
3.7600

> <Gold.PLP.Chemscore.CHOScore>
0.0000

> <Gold.PLP.Chemscore.Metal>
0.0000

> <Gold.Chemscore.Hbonds>
donor molecule, donor type, donor heavy atom, donor atom, acceptor molecule, acceptor atom, score
      P1  H  6896  6909       L1    11  1.00
      P1  H  6931  6943       L1    16  0.82
      P1  H  6934  6947       L1    16  0.88
      P1  H  7997  8009       L1     2  0.93

> <Gold.PLP.Chemscore.Internal.Correction>
0.0501

> <Gold.Rescore>
     Score         DG    S(hbond)    S(metal)    S(lipo)     H(rot)  DE(clash)    DE(int)     intcor
     21.28     -23.63       3.22        0.00     103.68       1.85       0.06       2.29       ----

> <Gold.Chemscore.Fitness>
21.2772

> <Gold.Chemscore.DG>
-23.6305

> <Gold.Chemscore.ZeroCoef>
-5.4800

> <Gold.Chemscore.Hbond>
3.2189

> <Gold.Chemscore.Metal>
0.0000

> <Gold.Chemscore.Lipo>
103.6780

> <Gold.Chemscore.Internal_Hbond>
0.0000

> <Gold.Chemscore.DEClash>
0.0601

> <Gold.Chemscore.DEInternal>
2.2932

> <Gold.Chemscore.Rot>
1.8480

> <Gold.Chemscore.Internal.Correction>
   9.000000E+99

> <Gold.Chemscore.Hbonds>
donor molecule, donor type, donor heavy atom, donor atom, acceptor molecule, acceptor atom, score
      P1  H  6896  6909       L1    11  0.67
      P1  H  6931  6943       L1    16  0.40
      P1  H  6934  6947       L1    16  0.56
      P1  H  7997  8009       L1     2  0.85

> <Gold.Chemscore.Hbond.Weighted>
-10.7510

> <Gold.Chemscore.Metal.Weighted>
-0.0000

> <Gold.Chemscore.Lipo.Weighted>
-12.1303

> <Gold.Chemscore.Internal_Hbond.Weighted>
0.0000

> <Gold.Chemscore.DEClash.Weighted>
0.0601

> <Gold.Chemscore.DEInternal.Weighted>
2.2932

> <Gold.Chemscore.Rot.Weighted>
4.7308

> <Gold.Chemscore.Internal.Correction.Weighted>
   9.000000E+99

> <Gold.Protein.RotatedTorsions>
[ 6907 6896 6895 6894 ] final   72.17 input  -60.11 | X-H torsion
[ 7974 7965 7964 7962 ] final -126.10 input  175.53 | X-H torsion
[ 8008 7997 7996 7995 ] final  102.57 input   59.86 | X-H torsion
[ 10167 10162 10161 10158 ] final  173.39 input  -65.29 | X-H torsion
[ 10718 10713 10712 10709 ] final  -83.67 input   66.30 | X-H torsion
[ 10763 10752 10751 10750 ] final  -59.14 input  -60.55 | X-H torsion
[ 11005 11000 10999 10996 ] final   38.45 input  -57.11 | X-H torsion

> <Gold.Protein.ActiveResidues>
 VAL166  LYS551  ARG553  GLY616  TRP617  ASP618  TYR619  PRO620  LYS621  CYS622 
 ASP623  PHE694  ASN695  SER759  ASP760  ASP761  ALA762  ILE779  LEU786  VAL792 
 PHE793  MET794  SER795  GLU796  ALA797  LYS798  CYS799  TRP800  GLU811  SER814 

> <Gold.Protein.RotatedAtoms>
  152.4853  134.4611  159.9605 H   0  0  0  0  0  0  0  0  0  0  0  0  # atno 6907 bound_to 6896
  151.4608  133.3587  159.2817 H   0  0  0  0  0  0  0  0  0  0  0  0  # atno 6908 bound_to 6896
  150.8957  134.8390  159.7386 H   0  0  0  0  0  0  0  0  0  0  0  0  # atno 6909 bound_to 6896
  144.9908  140.7730  143.4555 H   0  0  0  0  0  0  0  0  0  0  0  0  # atno 7974 bound_to 7965
  156.1405  140.3179  155.8487 H   0  0  0  0  0  0  0  0  0  0  0  0  # atno 8008 bound_to 7997
  155.4164  140.0509  157.3045 H   0  0  0  0  0  0  0  0  0  0  0  0  # atno 8009 bound_to 7997
  154.4972  140.2115  155.9434 H   0  0  0  0  0  0  0  0  0  0  0  0  # atno 8010 bound_to 7997
  139.5107  144.3266  152.0152 H   0  0  0  0  0  0  0  0  0  0  0  0  # atno 10167 bound_to 10162
  156.0015  130.4673  150.4293 H   0  0  0  0  0  0  0  0  0  0  0  0  # atno 10718 bound_to 10713
  154.2491  135.6329  153.5234 H   0  0  0  0  0  0  0  0  0  0  0  0  # atno 10763 bound_to 10752
  152.9915  135.5560  154.5827 H   0  0  0  0  0  0  0  0  0  0  0  0  # atno 10764 bound_to 10752
  154.5350  135.2891  155.1121 H   0  0  0  0  0  0  0  0  0  0  0  0  # atno 10765 bound_to 10752
  140.2125  134.3738  155.8042 H   0  0  0  0  0  0  0  0  0  0  0  0  # atno 11005 bound_to 11000
  145.2289  139.2124  143.5053 LP  0  0  0  0  0  0  0  0  0  0  0  0  # atno 17320 bound_to 7965
  146.3431  140.2161  142.8590 LP  0  0  0  0  0  0  0  0  0  0  0  0  # atno 17321 bound_to 7965
  140.2706  144.3968  150.6152 LP  0  0  0  0  0  0  0  0  0  0  0  0  # atno 17342 bound_to 10162
  140.6091  143.2169  151.6922 LP  0  0  0  0  0  0  0  0  0  0  0  0  # atno 17343 bound_to 10162
  157.2343  131.0511  151.2474 LP  0  0  0  0  0  0  0  0  0  0  0  0  # atno 17370 bound_to 10713
  157.3681  130.7167  149.6546 LP  0  0  0  0  0  0  0  0  0  0  0  0  # atno 17371 bound_to 10713
  141.2226  133.7150  156.8441 LP  0  0  0  0  0  0  0  0  0  0  0  0  # atno 17394 bound_to 11000
  140.1936  134.8948  157.3089 LP  0  0  0  0  0  0  0  0  0  0  0  0  # atno 17395 bound_to 11000

$$$$
