AV-unprocessed.smi:1824|AV-procd|sdf|7395|dock3
  -GOLD-   22720 9 63D 1   1.00000     0.00000
 Structure written by MMmdl.
 44 46  0  0  0  0  0  0  0  0  1 V2000
  144.4352  144.4699  154.3043 C   0  0  0  0  0  0  0  0  0  0  0  0
  145.1833  143.3017  154.9548 C   0  0  2  0  0  0  0  0  0  0  0  0
  146.3320  142.7827  154.0710 C   0  0  0  0  0  0  0  0  0  0  0  0
  146.9880  141.6250  154.6634 N   0  0  0  0  0  0  0  0  0  0  0  0
  148.1205  141.1796  153.8498 C   0  0  0  0  0  0  0  0  0  0  0  0
  149.3267  140.6507  154.6500 C   0  0  1  0  0  0  0  0  0  0  0  0
  150.2037  139.9965  153.7559 O   0  0  0  0  0  0  0  0  0  0  0  0
  150.0945  141.7740  155.3747 C   0  0  0  0  0  0  0  0  0  0  0  0
  150.9884  141.2541  156.3910 N   0  0  0  0  0  0  0  0  0  0  0  0
  151.6776  140.0973  156.3673 C   0  0  0  0  0  0  0  0  0  0  0  0
  152.4420  139.8245  157.4215 N   0  0  0  0  0  0  0  0  0  0  0  0
  152.2269  140.9355  158.2196 C   0  0  0  0  0  0  0  0  0  0  0  0
  152.7492  141.2709  159.4893 C   0  0  0  0  0  0  0  0  0  0  0  0
  152.3793  142.4782  160.1186 C   0  0  0  0  0  0  0  0  0  0  0  0
  152.8902  142.7845  161.3347 F   0  0  0  0  0  0  0  0  0  0  0  0
  151.4822  143.3671  159.4892 C   0  0  0  0  0  0  0  0  0  0  0  0
  151.1322  144.5241  160.0995 F   0  0  0  0  0  0  0  0  0  0  0  0
  150.9487  143.0539  158.2247 C   0  0  0  0  0  0  0  0  0  0  0  0
  151.3214  141.8490  157.6018 C   0  0  0  0  0  0  0  0  0  0  0  0
  145.9943  140.5739  154.8762 C   0  0  0  0  0  0  0  0  0  0  0  0
  144.8009  141.0494  155.7277 C   0  0  1  0  0  0  0  0  0  0  0  0
  145.1445  141.2036  157.2191 C   0  0  0  0  0  0  0  0  0  0  0  0
  144.2486  142.2487  155.1826 O   0  0  0  0  0  0  0  0  0  0  0  0
  145.1042  145.3112  154.1226 H   0  0  0  0  0  0  0  0  0  0  0  0
  143.6275  144.8207  154.9472 H   0  0  0  0  0  0  0  0  0  0  0  0
  143.9976  144.1767  153.3496 H   0  0  0  0  0  0  0  0  0  0  0  0
  145.5846  143.6413  155.9103 H   0  0  0  0  0  0  0  0  0  0  0  0
  145.9474  142.5241  153.0831 H   0  0  0  0  0  0  0  0  0  0  0  0
  147.0588  143.5823  153.9232 H   0  0  0  0  0  0  0  0  0  0  0  0
  147.7821  140.4122  153.1516 H   0  0  0  0  0  0  0  0  0  0  0  0
  148.4662  142.0109  153.2333 H   0  0  0  0  0  0  0  0  0  0  0  0
  148.9985  139.9007  155.3688 H   0  0  0  0  0  0  0  0  0  0  0  0
  149.7825  139.9381  152.9121 H   0  0  0  0  0  0  0  0  0  0  0  0
  150.6664  142.3758  154.6667 H   0  0  0  0  0  0  0  0  0  0  0  0
  149.3994  142.4545  155.8677 H   0  0  0  0  0  0  0  0  0  0  0  0
  151.6122  139.4163  155.5310 H   0  0  0  0  0  0  0  0  0  0  0  0
  153.4368  140.5986  159.9805 H   0  0  0  0  0  0  0  0  0  0  0  0
  150.2619  143.7308  157.7391 H   0  0  0  0  0  0  0  0  0  0  0  0
  145.6235  140.2270  153.9104 H   0  0  0  0  0  0  0  0  0  0  0  0
  146.4431  139.7083  155.3614 H   0  0  0  0  0  0  0  0  0  0  0  0
  144.0181  140.2936  155.6593 H   0  0  0  0  0  0  0  0  0  0  0  0
  145.4461  140.2478  157.6480 H   0  0  0  0  0  0  0  0  0  0  0  0
  144.2810  141.5591  157.7815 H   0  0  0  0  0  0  0  0  0  0  0  0
  145.9624  141.9054  157.3815 H   0  0  0  0  0  0  0  0  0  0  0  0
  1  2  1  0  0  0  0
  1 24  1  0  0  0  0
  1 25  1  0  0  0  0
  1 26  1  0  0  0  0
  2 23  1  0  0  0  0
  2  3  1  0  0  0  0
  2 27  1  0  0  0  0
  3  4  1  0  0  0  0
  3 28  1  0  0  0  0
  3 29  1  0  0  0  0
  4  5  1  0  0  0  0
  4 20  1  0  0  0  0
  5  6  1  0  0  0  0
  5 30  1  0  0  0  0
  5 31  1  0  0  0  0
  6  7  1  0  0  0  0
  6  8  1  0  0  0  0
  6 32  1  0  0  0  0
  7 33  1  0  0  0  0
  8  9  1  0  0  0  0
  8 34  1  0  0  0  0
  8 35  1  0  0  0  0
  9 19  1  0  0  0  0
  9 10  1  0  0  0  0
 10 11  2  0  0  0  0
 10 36  1  0  0  0  0
 11 12  1  0  0  0  0
 12 19  2  0  0  0  0
 12 13  1  0  0  0  0
 13 14  2  0  0  0  0
 13 37  1  0  0  0  0
 14 15  1  0  0  0  0
 14 16  1  0  0  0  0
 16 17  1  0  0  0  0
 16 18  2  0  0  0  0
 18 19  1  0  0  0  0
 18 38  1  0  0  0  0
 20 21  1  0  0  0  0
 20 39  1  0  0  0  0
 20 40  1  0  0  0  0
 21 22  1  0  0  0  0
 21 23  1  0  0  0  0
 21 41  1  0  0  0  0
 22 42  1  0  0  0  0
 22 43  1  0  0  0  0
 22 44  1  0  0  0  0
M  END
> <s_m_source_file>
AV-unprocessed.smi

> <i_m_source_file_index>
1824

> <i_lp_mmshare_version>
43012

> <i_f3d_flags>
0

> <s_epik_input>
W0NIM11bQ0BASF0xW0NIMl1OKFtDSDJdW0NASF0oTzEpW0NIM10pW0NIMl1bQ0BIXShbT0hdKVtDSDJdbihbY0hdbjIpYyhjMjMpW2NIXWMoRiljKEYpW2NIXTM=

> <s_epik_cmdline>
J2VwaWtfcHl0aG9uJywgJy1waCcsICc3LjAnLCAnLXRuJywgJzgnLCAnLW1hJywgJzIwMCcsICctbWV0YWxfYmluZGluZycsICctaW1hZScsICc8aW5maWxlLm1hZT4nLCAnLW9tYWUnLCAnPG91dGZpbGUubWFlPic=

> <r_epik_Ionization_Penalty>
0.273778

> <r_epik_Ionization_Penalty_Charging>
0

> <r_epik_Ionization_Penalty_Neutral>
0.273778

> <r_epik_State_Penalty>
0.246794

> <r_epik_Charging_Adjusted_Penalty>
0.246794

> <i_epik_Tot_Q>
0

> <i_epik_Tot_abs_Q>
0

> <r_epik_Metal_State_Penalty>
0.238234

> <b_epik_Metal_Only>
0

> <s_lp_Force_Field>
OPLS_2005

> <r_lp_Energy>
25.978

> <b_lp_Chiralities_Consistent>
1

> <s_lp_Variant>
AV-unprocessed.smi:1824-3

> <Gold.Version>
5.8.1

> <Gold.Id.Protein>
6NUR|6NUR_protein|mol2

> <Gold.PLP.Fitness>
54.8708

> <Gold.PLP.PLP>
-48.2007

> <Gold.PLP.part.hbond>
-3.0000

> <Gold.PLP.part.metal>
0.0000

> <Gold.PLP.part.buried>
-6.1287

> <Gold.PLP.part.nonpolar>
-39.0309

> <Gold.PLP.part.repulsive>
0.2858

> <Gold.PLP.ligand.clash>
0.0000

> <Gold.PLP.ligand.torsion>
1.0126

> <Gold.PLP.Chemscore.Hbond>
2.8873

> <Gold.PLP.Chemscore.CHOScore>
0.0000

> <Gold.PLP.Chemscore.Metal>
0.0000

> <Gold.Chemscore.Hbonds>
donor molecule, donor type, donor heavy atom, donor atom, acceptor molecule, acceptor atom, score
      L1  H     7    33       P1  7957  1.00
      P1  H  7989  7998       L1     7  0.85
      P1  H  7997  8010       L1    11  0.83

> <Gold.PLP.Chemscore.Internal.Correction>
0.0336

> <Gold.Rescore>
     Score         DG    S(hbond)    S(metal)    S(lipo)     H(rot)  DE(clash)    DE(int)     intcor
     16.03     -18.14       2.20        0.00      94.90       2.26       0.22       1.89       ----

> <Gold.Chemscore.Fitness>
16.0347

> <Gold.Chemscore.DG>
-18.1398

> <Gold.Chemscore.ZeroCoef>
-5.4800

> <Gold.Chemscore.Hbond>
2.1996

> <Gold.Chemscore.Metal>
0.0000

> <Gold.Chemscore.Lipo>
94.9024

> <Gold.Chemscore.Internal_Hbond>
0.0000

> <Gold.Chemscore.DEClash>
0.2190

> <Gold.Chemscore.DEInternal>
1.8861

> <Gold.Chemscore.Rot>
2.2619

> <Gold.Chemscore.Internal.Correction>
   9.000000E+99

> <Gold.Chemscore.Hbonds>
donor molecule, donor type, donor heavy atom, donor atom, acceptor molecule, acceptor atom, score
      L1  H     7    33       P1  7957  0.99
      P1  H  7989  7998       L1     7  0.32
      P1  H  7997  8010       L1    11  0.16

> <Gold.Chemscore.Hbond.Weighted>
-7.3466

> <Gold.Chemscore.Metal.Weighted>
-0.0000

> <Gold.Chemscore.Lipo.Weighted>
-11.1036

> <Gold.Chemscore.Internal_Hbond.Weighted>
0.0000

> <Gold.Chemscore.DEClash.Weighted>
0.2190

> <Gold.Chemscore.DEInternal.Weighted>
1.8861

> <Gold.Chemscore.Rot.Weighted>
5.7904

> <Gold.Chemscore.Internal.Correction.Weighted>
   9.000000E+99

> <Gold.Protein.RotatedTorsions>
[ 6907 6896 6895 6894 ] final   41.74 input  -60.11 | X-H torsion
[ 7974 7965 7964 7962 ] final  131.05 input  175.53 | X-H torsion
[ 8008 7997 7996 7995 ] final   52.43 input   59.86 | X-H torsion
[ 10167 10162 10161 10158 ] final   76.15 input  -65.29 | X-H torsion
[ 10718 10713 10712 10709 ] final -146.61 input   66.30 | X-H torsion
[ 10763 10752 10751 10750 ] final -142.62 input  -60.55 | X-H torsion
[ 11005 11000 10999 10996 ] final -124.20 input  -57.11 | X-H torsion

> <Gold.Protein.ActiveResidues>
 VAL166  LYS551  ARG553  GLY616  TRP617  ASP618  TYR619  PRO620  LYS621  CYS622 
 ASP623  PHE694  ASN695  SER759  ASP760  ASP761  ALA762  ILE779  LEU786  VAL792 
 PHE793  MET794  SER795  GLU796  ALA797  LYS798  CYS799  TRP800  GLU811  SER814 

> <Gold.Protein.RotatedAtoms>
  152.1991  134.8604  160.0509 H   0  0  0  0  0  0  0  0  0  0  0  0  # atno 6907 bound_to 6896
  151.9464  133.3648  159.3992 H   0  0  0  0  0  0  0  0  0  0  0  0  # atno 6908 bound_to 6896
  150.6951  134.4310  159.5292 H   0  0  0  0  0  0  0  0  0  0  0  0  # atno 6909 bound_to 6896
  145.0114  139.4216  143.5243 H   0  0  0  0  0  0  0  0  0  0  0  0  # atno 7974 bound_to 7965
  155.4517  140.3458  155.4301 H   0  0  0  0  0  0  0  0  0  0  0  0  # atno 8008 bound_to 7997
  156.1216  140.1489  156.9226 H   0  0  0  0  0  0  0  0  0  0  0  0  # atno 8009 bound_to 7997
  154.4827  140.0864  156.7395 H   0  0  0  0  0  0  0  0  0  0  0  0  # atno 8010 bound_to 7997
  139.9954  144.5726  150.7782 H   0  0  0  0  0  0  0  0  0  0  0  0  # atno 10167 bound_to 10162
  156.3971  130.7915  151.2122 H   0  0  0  0  0  0  0  0  0  0  0  0  # atno 10718 bound_to 10713
  154.8502  135.3491  154.6056 H   0  0  0  0  0  0  0  0  0  0  0  0  # atno 10763 bound_to 10752
  153.6665  135.6987  153.5165 H   0  0  0  0  0  0  0  0  0  0  0  0  # atno 10764 bound_to 10752
  153.2776  135.4273  155.1005 H   0  0  0  0  0  0  0  0  0  0  0  0  # atno 10765 bound_to 10752
  140.9860  134.0606  157.3711 H   0  0  0  0  0  0  0  0  0  0  0  0  # atno 11005 bound_to 11000
  146.3470  139.9560  142.8723 LP  0  0  0  0  0  0  0  0  0  0  0  0  # atno 17320 bound_to 7965
  145.2018  140.9857  143.4151 LP  0  0  0  0  0  0  0  0  0  0  0  0  # atno 17321 bound_to 7965
  140.7439  143.2853  151.3482 LP  0  0  0  0  0  0  0  0  0  0  0  0  # atno 17342 bound_to 10162
  139.6310  144.0721  152.2476 LP  0  0  0  0  0  0  0  0  0  0  0  0  # atno 17343 bound_to 10162
  157.7502  131.0298  150.4109 LP  0  0  0  0  0  0  0  0  0  0  0  0  # atno 17370 bound_to 10713
  156.4381  130.3986  149.6715 LP  0  0  0  0  0  0  0  0  0  0  0  0  # atno 17371 bound_to 10713
  139.8970  135.0148  156.7082 LP  0  0  0  0  0  0  0  0  0  0  0  0  # atno 17394 bound_to 11000
  140.7114  133.9220  155.8087 LP  0  0  0  0  0  0  0  0  0  0  0  0  # atno 17395 bound_to 11000

$$$$
