AV-unprocessed.smi:2424|AV-procd|sdf|9566|dock9
  -GOLD-   2272013193D 1   1.00000     0.00000
 Structure written by MMmdl.
 50 51  0  0  0  0  0  0  0  0  1 V2000
  149.2012  138.3266  158.0904 C   0  0  0  0  0  0  0  0  0  0  0  0
  147.9360  138.1774  157.2279 C   0  0  0  0  0  0  0  0  0  0  0  0
  148.1815  137.8780  155.7278 C   0  0  0  0  0  0  0  0  0  0  0  0
  148.9381  136.5285  155.6166 C   0  0  0  0  0  0  0  0  0  0  0  0
  148.1656  135.3046  156.1373 C   0  0  0  0  0  0  0  0  0  0  0  0
  146.9128  138.0524  154.8416 C   0  0  2  0  0  0  0  0  0  0  0  0
  146.9322  137.2317  153.6281 N   0  0  0  0  0  0  0  0  0  0  0  0
  146.0203  136.3095  153.2955 C   0  0  0  0  0  0  0  0  0  0  0  0
  145.0348  136.0532  153.9857 O   0  0  0  0  0  0  0  0  0  0  0  0
  146.3495  135.7191  152.1326 N   0  0  0  0  0  0  0  0  0  0  0  0
  145.6808  134.7078  151.4299 C   0  0  0  0  0  0  0  0  0  0  0  0
  144.8349  135.0805  150.4539 C   0  0  0  0  0  0  0  0  0  0  0  0
  144.1290  134.1424  149.6975 N   0  0  0  0  0  0  0  0  0  0  0  0
  144.2221  132.8042  149.8673 C   0  0  0  0  0  0  0  0  0  0  0  0
  143.5717  132.0393  149.1572 O   0  0  0  0  0  0  0  0  0  0  0  0
  145.1331  132.3638  150.9363 C   0  0  0  0  0  0  0  0  0  0  0  0
  145.2720  130.8723  151.1850 C   0  0  0  0  0  0  0  0  0  0  0  0
  145.8166  133.2744  151.6682 C   0  0  0  0  0  0  0  0  0  0  0  0
  147.3368  139.5023  154.5536 C   0  0  2  0  0  0  0  0  0  0  0  0
  147.0565  140.1701  153.2087 C   0  0  0  0  0  0  0  0  0  0  0  0
  148.7663  139.0861  154.9375 C   0  0  2  0  0  0  0  0  0  0  0  0
  149.5105  138.7200  153.7808 O   0  0  0  0  0  0  0  0  0  0  0  0
  150.8381  138.3226  154.0788 C   0  0  0  0  0  0  0  0  0  0  0  0
  143.5170  134.4994  148.9783 H   0  0  0  0  0  0  0  0  0  0  0  0
  148.9408  138.6755  159.0898 H   0  0  0  0  0  0  0  0  0  0  0  0
  149.8993  139.0468  157.6650 H   0  0  0  0  0  0  0  0  0  0  0  0
  149.7250  137.3793  158.2128 H   0  0  0  0  0  0  0  0  0  0  0  0
  147.2877  137.4222  157.6709 H   0  0  0  0  0  0  0  0  0  0  0  0
  147.3711  139.1038  157.3305 H   0  0  0  0  0  0  0  0  0  0  0  0
  149.1947  136.3263  154.5771 H   0  0  0  0  0  0  0  0  0  0  0  0
  149.9025  136.5783  156.1194 H   0  0  0  0  0  0  0  0  0  0  0  0
  148.7065  134.3866  155.9074 H   0  0  0  0  0  0  0  0  0  0  0  0
  147.1792  135.2266  155.6803 H   0  0  0  0  0  0  0  0  0  0  0  0
  148.0351  135.3359  157.2184 H   0  0  0  0  0  0  0  0  0  0  0  0
  145.9842  137.9876  155.4115 H   0  0  0  0  0  0  0  0  0  0  0  0
  147.7082  137.3805  152.9997 H   0  0  0  0  0  0  0  0  0  0  0  0
  147.2061  136.0351  151.7019 H   0  0  0  0  0  0  0  0  0  0  0  0
  144.6395  136.1057  150.1744 H   0  0  0  0  0  0  0  0  0  0  0  0
  145.9618  130.6662  152.0039 H   0  0  0  0  0  0  0  0  0  0  0  0
  145.6492  130.3715  150.2927 H   0  0  0  0  0  0  0  0  0  0  0  0
  144.3057  130.4366  151.4412 H   0  0  0  0  0  0  0  0  0  0  0  0
  146.4637  132.9014  152.4446 H   0  0  0  0  0  0  0  0  0  0  0  0
  146.9395  140.1334  155.3501 H   0  0  0  0  0  0  0  0  0  0  0  0
  147.4722  139.6061  152.3739 H   0  0  0  0  0  0  0  0  0  0  0  0
  147.4876  141.1705  153.1714 H   0  0  0  0  0  0  0  0  0  0  0  0
  145.9845  140.2673  153.0365 H   0  0  0  0  0  0  0  0  0  0  0  0
  149.2602  139.8470  155.5441 H   0  0  0  0  0  0  0  0  0  0  0  0
  151.3405  138.0144  153.1621 H   0  0  0  0  0  0  0  0  0  0  0  0
  150.8617  137.4843  154.7751 H   0  0  0  0  0  0  0  0  0  0  0  0
  151.4046  139.1483  154.5105 H   0  0  0  0  0  0  0  0  0  0  0  0
  1  2  1  0  0  0  0
  1 25  1  0  0  0  0
  1 26  1  0  0  0  0
  1 27  1  0  0  0  0
  2  3  1  0  0  0  0
  2 28  1  0  0  0  0
  2 29  1  0  0  0  0
  3 21  1  0  0  0  0
  3  4  1  0  0  0  0
  3  6  1  0  0  0  0
  4  5  1  0  0  0  0
  4 30  1  0  0  0  0
  4 31  1  0  0  0  0
  5 32  1  0  0  0  0
  5 33  1  0  0  0  0
  5 34  1  0  0  0  0
  6  7  1  0  0  0  0
  6 19  1  0  0  0  0
  6 35  1  0  0  0  0
  7  8  1  0  0  0  0
  7 36  1  0  0  0  0
  8  9  2  0  0  0  0
  8 10  1  0  0  0  0
 10 11  1  0  0  0  0
 10 37  1  0  0  0  0
 11 18  1  0  0  0  0
 11 12  2  0  0  0  0
 12 13  1  0  0  0  0
 12 38  1  0  0  0  0
 13 24  1  0  0  0  0
 13 14  1  0  0  0  0
 14 15  2  0  0  0  0
 14 16  1  0  0  0  0
 16 17  1  0  0  0  0
 16 18  2  0  0  0  0
 17 39  1  0  0  0  0
 17 40  1  0  0  0  0
 17 41  1  0  0  0  0
 18 42  1  0  0  0  0
 19 20  1  0  0  0  0
 19 21  1  0  0  0  0
 19 43  1  0  0  0  0
 20 44  1  0  0  0  0
 20 45  1  0  0  0  0
 20 46  1  0  0  0  0
 21 22  1  0  0  0  0
 21 47  1  0  0  0  0
 22 23  1  0  0  0  0
 23 48  1  0  0  0  0
 23 49  1  0  0  0  0
 23 50  1  0  0  0  0
M  END
> <s_m_source_file>
AV-unprocessed.smi

> <i_m_source_file_index>
2424

> <i_lp_mmshare_version>
43012

> <i_f3d_flags>
0

> <s_epik_input>
W0NIM11PW0NAQEhdMVtDQEhdKFtDSDNdKVtDQEBIXShDMShbQ0gyXVtDSDNdKVtDSDJdW0NIM10pW05IXUMoPU8pW05IXWMyW2NIXVtuSF1jKD1PKWMoW0NIM10pW2NIXTI=

> <s_epik_cmdline>
J2VwaWtfcHl0aG9uJywgJy1waCcsICc3LjAnLCAnLXRuJywgJzgnLCAnLW1hJywgJzIwMCcsICctbWV0YWxfYmluZGluZycsICctaW1hZScsICc8aW5maWxlLm1hZT4nLCAnLW9tYWUnLCAnPG91dGZpbGUubWFlPic=

> <r_lp_tautomer_probability>
1

> <r_epik_Ionization_Penalty>
4.7326e-05

> <r_epik_Ionization_Penalty_Charging>
2.70169e-05

> <r_epik_Ionization_Penalty_Neutral>
2.0309e-05

> <r_epik_State_Penalty>
-0

> <r_epik_Charging_Adjusted_Penalty>
2.70169e-05

> <i_epik_Tot_Q>
0

> <i_epik_Tot_abs_Q>
0

> <r_epik_Metal_State_Penalty>
0.0198736

> <b_epik_Metal_Only>
0

> <s_lp_Force_Field>
OPLS_2005

> <r_lp_Energy>
37.0094

> <b_lp_Chiralities_Consistent>
1

> <s_lp_Variant>
AV-unprocessed.smi:2424-8

> <Gold.Version>
5.8.1

> <Gold.Id.Protein>
6NUR|6NUR_protein|mol2

> <Gold.PLP.Fitness>
40.7432

> <Gold.PLP.PLP>
-31.4241

> <Gold.PLP.part.hbond>
-4.8159

> <Gold.PLP.part.metal>
0.0000

> <Gold.PLP.part.buried>
-6.9246

> <Gold.PLP.part.nonpolar>
-20.9348

> <Gold.PLP.part.repulsive>
1.7022

> <Gold.PLP.ligand.clash>
0.0000

> <Gold.PLP.ligand.torsion>
1.1145

> <Gold.PLP.Chemscore.Hbond>
2.6177

> <Gold.PLP.Chemscore.CHOScore>
0.9979

> <Gold.PLP.Chemscore.Metal>
0.0000

> <Gold.Chemscore.Hbonds>
donor molecule, donor type, donor heavy atom, donor atom, acceptor molecule, acceptor atom, score
      L1  H     7    36       P1  7948  0.75
      L1  H    10    37       P1  7948  0.96
      P1  H 10785 10796       L1    15  0.91
      L1  C    12    38       P1 10171  0.82

> <Gold.PLP.Chemscore.Internal.Correction>
0.7012

> <Gold.Rescore>
     Score         DG    S(hbond)    S(metal)    S(lipo)     H(rot)  DE(clash)    DE(int)     intcor
     17.03     -18.33       2.79        0.00      64.20       1.55       0.15       1.15       ----

> <Gold.Chemscore.Fitness>
17.0266

> <Gold.Chemscore.DG>
-18.3310

> <Gold.Chemscore.ZeroCoef>
-5.4800

> <Gold.Chemscore.Hbond>
2.7870

> <Gold.Chemscore.Metal>
0.0000

> <Gold.Chemscore.Lipo>
64.1955

> <Gold.Chemscore.Internal_Hbond>
0.0000

> <Gold.Chemscore.DEClash>
0.1521

> <Gold.Chemscore.DEInternal>
1.1522

> <Gold.Chemscore.Rot>
1.5502

> <Gold.Chemscore.Internal.Correction>
   9.000000E+99

> <Gold.Chemscore.Hbonds>
donor molecule, donor type, donor heavy atom, donor atom, acceptor molecule, acceptor atom, score
      L1  H     7    36       P1  7948  0.70
      L1  H    10    37       P1  7948  0.92
      P1  H 10785 10796       L1    15  0.86

> <Gold.Chemscore.Hbond.Weighted>
-9.3086

> <Gold.Chemscore.Metal.Weighted>
-0.0000

> <Gold.Chemscore.Lipo.Weighted>
-7.5109

> <Gold.Chemscore.Internal_Hbond.Weighted>
0.0000

> <Gold.Chemscore.DEClash.Weighted>
0.1521

> <Gold.Chemscore.DEInternal.Weighted>
1.1522

> <Gold.Chemscore.Rot.Weighted>
3.9685

> <Gold.Chemscore.Internal.Correction.Weighted>
   9.000000E+99

> <Gold.Protein.RotatedTorsions>
[ 6907 6896 6895 6894 ] final  161.23 input  -60.11 | X-H torsion
[ 7974 7965 7964 7962 ] final   30.43 input  175.53 | X-H torsion
[ 8008 7997 7996 7995 ] final   -8.24 input   59.86 | X-H torsion
[ 10167 10162 10161 10158 ] final  -32.48 input  -65.29 | X-H torsion
[ 10718 10713 10712 10709 ] final -109.36 input   66.30 | X-H torsion
[ 10763 10752 10751 10750 ] final  -58.24 input  -60.55 | X-H torsion
[ 11005 11000 10999 10996 ] final  -48.73 input  -57.11 | X-H torsion

> <Gold.Protein.ActiveResidues>
 VAL166  LYS551  ARG553  GLY616  TRP617  ASP618  TYR619  PRO620  LYS621  CYS622 
 ASP623  PHE694  ASN695  SER759  ASP760  ASP761  ALA762  ILE779  LEU786  VAL792 
 PHE793  MET794  SER795  GLU796  ALA797  LYS798  CYS799  TRP800  GLU811  SER814 

> <Gold.Protein.RotatedAtoms>
  151.9587  133.3688  159.4026 H   0  0  0  0  0  0  0  0  0  0  0  0  # atno 6907 bound_to 6896
  150.6968  134.4263  159.5237 H   0  0  0  0  0  0  0  0  0  0  0  0  # atno 6908 bound_to 6896
  152.1948  134.8640  160.0564 H   0  0  0  0  0  0  0  0  0  0  0  0  # atno 6909 bound_to 6896
  146.1612  139.6789  142.9032 H   0  0  0  0  0  0  0  0  0  0  0  0  # atno 7974 bound_to 7965
  154.5761  140.2386  155.8121 H   0  0  0  0  0  0  0  0  0  0  0  0  # atno 8008 bound_to 7997
  156.2144  140.3016  155.9762 H   0  0  0  0  0  0  0  0  0  0  0  0  # atno 8009 bound_to 7997
  155.2625  140.0415  157.2989 H   0  0  0  0  0  0  0  0  0  0  0  0  # atno 8010 bound_to 7997
  140.7220  143.3691  151.1812 H   0  0  0  0  0  0  0  0  0  0  0  0  # atno 10167 bound_to 10162
  156.0533  130.5760  150.8089 H   0  0  0  0  0  0  0  0  0  0  0  0  # atno 10718 bound_to 10713
  154.2351  135.6353  153.5188 H   0  0  0  0  0  0  0  0  0  0  0  0  # atno 10763 bound_to 10752
  152.9941  135.5528  154.5971 H   0  0  0  0  0  0  0  0  0  0  0  0  # atno 10764 bound_to 10752
  154.5463  135.2898  155.1024 H   0  0  0  0  0  0  0  0  0  0  0  0  # atno 10765 bound_to 10752
  141.0718  133.6677  156.3483 H   0  0  0  0  0  0  0  0  0  0  0  0  # atno 11005 bound_to 11000
  145.4584  141.0432  143.2765 LP  0  0  0  0  0  0  0  0  0  0  0  0  # atno 17320 bound_to 7965
  144.8029  139.6106  143.7063 LP  0  0  0  0  0  0  0  0  0  0  0  0  # atno 17321 bound_to 7965
  139.7259  143.9149  152.3002 LP  0  0  0  0  0  0  0  0  0  0  0  0  # atno 17342 bound_to 10162
  139.8922  144.6959  150.8758 LP  0  0  0  0  0  0  0  0  0  0  0  0  # atno 17343 bound_to 10162
  157.5480  131.0943  150.9736 LP  0  0  0  0  0  0  0  0  0  0  0  0  # atno 17370 bound_to 10713
  157.0002  130.5597  149.5311 LP  0  0  0  0  0  0  0  0  0  0  0  0  # atno 17371 bound_to 10713
  140.5658  134.5889  157.5445 LP  0  0  0  0  0  0  0  0  0  0  0  0  # atno 17394 bound_to 11000
  139.9531  134.7582  156.0403 LP  0  0  0  0  0  0  0  0  0  0  0  0  # atno 17395 bound_to 11000

$$$$
