AV-unprocessed.smi:2198|AV-procd|sdf|8916|dock8
  -GOLD-   2272012133D 1   1.00000     0.00000
 Structure written by MMmdl.
 43 44  0  0  0  0  0  0  0  0  1 V2000
  144.4493  144.1133  154.7437 C   0  0  0  0  0  0  0  0  0  0  0  0
  145.5579  143.1265  155.0386 C   0  0  0  0  0  0  0  0  0  0  0  0
  145.9084  142.3413  153.9527 N   0  0  0  0  0  0  0  0  0  0  0  0
  146.9106  141.4037  154.1284 C   0  0  0  0  0  0  0  0  0  0  0  0
  147.2310  140.5828  152.8915 C   0  0  0  0  0  0  0  0  0  0  0  0
  147.5373  141.2611  155.3239 C   0  0  0  0  0  0  0  0  0  0  0  0
  148.6515  140.2414  155.5587 C   0  0  0  0  0  0  0  0  0  0  0  0
  150.0335  140.8103  155.8916 C   0  0  0  0  0  0  0  0  0  0  0  0
  151.0249  140.4753  155.2426 O   0  0  0  0  0  0  0  0  0  0  0  0
  150.0816  141.6703  156.9200 N   0  0  0  0  0  0  0  0  0  0  0  0
  151.2903  142.3132  157.4270 C   0  0  1  0  0  0  0  0  0  0  0  0
  151.1079  143.8417  157.4108 C   0  0  0  0  0  0  0  0  0  0  0  0
  152.3338  144.5582  157.9978 C   0  0  0  0  0  0  0  0  0  0  0  0
  152.6471  144.0570  159.4163 C   0  0  0  0  0  0  0  0  0  0  0  0
  152.8423  142.5290  159.4447 C   0  0  1  0  0  0  0  0  0  0  0  0
  153.1499  142.0272  160.8628 C   0  0  0  0  0  0  0  0  0  0  0  0
  151.6111  141.8164  158.8522 C   0  0  0  0  0  0  0  0  0  0  0  0
  147.1273  142.1389  156.4453 C   0  0  0  0  0  0  0  0  0  0  0  0
  147.6689  142.0703  157.5481 O   0  0  0  0  0  0  0  0  0  0  0  0
  146.0976  143.0663  156.2180 N   0  0  0  0  0  0  0  0  0  0  0  0
  145.4720  142.4172  153.0453 H   0  0  0  0  0  0  0  0  0  0  0  0
  144.0955  144.5867  155.6604 H   0  0  0  0  0  0  0  0  0  0  0  0
  143.6038  143.6105  154.2734 H   0  0  0  0  0  0  0  0  0  0  0  0
  144.8072  144.8937  154.0715 H   0  0  0  0  0  0  0  0  0  0  0  0
  147.0271  139.5274  153.0721 H   0  0  0  0  0  0  0  0  0  0  0  0
  148.2822  140.6905  152.6237 H   0  0  0  0  0  0  0  0  0  0  0  0
  146.6342  140.8971  152.0345 H   0  0  0  0  0  0  0  0  0  0  0  0
  148.7516  139.6294  154.6621 H   0  0  0  0  0  0  0  0  0  0  0  0
  148.3673  139.5392  156.3432 H   0  0  0  0  0  0  0  0  0  0  0  0
  149.2173  141.8897  157.3935 H   0  0  0  0  0  0  0  0  0  0  0  0
  152.1261  142.0650  156.7697 H   0  0  0  0  0  0  0  0  0  0  0  0
  150.9345  144.1870  156.3909 H   0  0  0  0  0  0  0  0  0  0  0  0
  150.2217  144.1154  157.9855 H   0  0  0  0  0  0  0  0  0  0  0  0
  153.1976  144.3934  157.3527 H   0  0  0  0  0  0  0  0  0  0  0  0
  152.1614  145.6345  158.0139 H   0  0  0  0  0  0  0  0  0  0  0  0
  153.5425  144.5552  159.7895 H   0  0  0  0  0  0  0  0  0  0  0  0
  151.8349  144.3383  160.0882 H   0  0  0  0  0  0  0  0  0  0  0  0
  153.7023  142.2884  158.8180 H   0  0  0  0  0  0  0  0  0  0  0  0
  152.3255  142.2372  161.5452 H   0  0  0  0  0  0  0  0  0  0  0  0
  154.0444  142.5045  161.2637 H   0  0  0  0  0  0  0  0  0  0  0  0
  153.3210  140.9505  160.8689 H   0  0  0  0  0  0  0  0  0  0  0  0
  150.7486  141.9800  159.5003 H   0  0  0  0  0  0  0  0  0  0  0  0
  151.7847  140.7395  158.8388 H   0  0  0  0  0  0  0  0  0  0  0  0
  1 22  1  0  0  0  0
  1 23  1  0  0  0  0
  1 24  1  0  0  0  0
  1  2  1  0  0  0  0
  2  3  1  0  0  0  0
  2 20  2  0  0  0  0
  3  4  1  0  0  0  0
  3 21  1  0  0  0  0
  4  6  2  0  0  0  0
  4  5  1  0  0  0  0
  5 25  1  0  0  0  0
  5 26  1  0  0  0  0
  5 27  1  0  0  0  0
  6 18  1  0  0  0  0
  6  7  1  0  0  0  0
  7  8  1  0  0  0  0
  7 28  1  0  0  0  0
  7 29  1  0  0  0  0
  8  9  2  0  0  0  0
  8 10  1  0  0  0  0
 10 11  1  0  0  0  0
 10 30  1  0  0  0  0
 11 17  1  0  0  0  0
 11 12  1  0  0  0  0
 11 31  1  0  0  0  0
 12 13  1  0  0  0  0
 12 32  1  0  0  0  0
 12 33  1  0  0  0  0
 13 14  1  0  0  0  0
 13 34  1  0  0  0  0
 13 35  1  0  0  0  0
 14 15  1  0  0  0  0
 14 36  1  0  0  0  0
 14 37  1  0  0  0  0
 15 16  1  0  0  0  0
 15 17  1  0  0  0  0
 15 38  1  0  0  0  0
 16 39  1  0  0  0  0
 16 40  1  0  0  0  0
 16 41  1  0  0  0  0
 17 42  1  0  0  0  0
 17 43  1  0  0  0  0
 18 19  2  0  0  0  0
 18 20  1  0  0  0  0
M  END
> <s_m_source_file>
AV-unprocessed.smi

> <i_m_source_file_index>
2198

> <i_lp_mmshare_version>
43012

> <i_f3d_flags>
0

> <s_epik_input>
W0NIM11jMW5jKFtDSDNdKWMoYyg9TylbbkhdMSlbQ0gyXUMoPU8pW05IXVtDQEBIXTJbQ0gyXVtDSDJdW0NIMl1bQ0BASF0oW0NIM10pW0NIMl0y

> <s_epik_cmdline>
J2VwaWtfcHl0aG9uJywgJy1waCcsICc3LjAnLCAnLXRuJywgJzgnLCAnLW1hJywgJzIwMCcsICctbWV0YWxfYmluZGluZycsICctaW1hZScsICc8aW5maWxlLm1hZT4nLCAnLW9tYWUnLCAnPG91dGZpbGUubWFlPic=

> <r_lp_tautomer_probability>
0.156392

> <r_epik_Ionization_Penalty>
0.0136514

> <r_epik_Ionization_Penalty_Charging>
0.0135207

> <r_epik_Ionization_Penalty_Neutral>
0.000130657

> <r_epik_State_Penalty>
1.15342

> <r_epik_Charging_Adjusted_Penalty>
1.16694

> <i_epik_Tot_Q>
0

> <i_epik_Tot_abs_Q>
0

> <r_epik_Metal_State_Penalty>
1.31404

> <b_epik_Metal_Only>
0

> <s_lp_Force_Field>
OPLS_2005

> <r_lp_Energy>
13.5708

> <b_lp_Chiralities_Consistent>
1

> <s_lp_Variant>
AV-unprocessed.smi:2198-6

> <Gold.Version>
5.8.1

> <Gold.Id.Protein>
6NUR|6NUR_protein|mol2

> <Gold.PLP.Fitness>
41.5248

> <Gold.PLP.PLP>
-38.7149

> <Gold.PLP.part.hbond>
-1.3359

> <Gold.PLP.part.metal>
0.0000

> <Gold.PLP.part.buried>
-1.8687

> <Gold.PLP.part.nonpolar>
-35.7064

> <Gold.PLP.part.repulsive>
0.4426

> <Gold.PLP.ligand.clash>
0.0000

> <Gold.PLP.ligand.torsion>
0.0847

> <Gold.PLP.Chemscore.Hbond>
0.9920

> <Gold.PLP.Chemscore.CHOScore>
0.0000

> <Gold.PLP.Chemscore.Metal>
0.0000

> <Gold.Chemscore.Hbonds>
donor molecule, donor type, donor heavy atom, donor atom, acceptor molecule, acceptor atom, score
      P1  H  7989  7998       L1     9  0.99

> <Gold.PLP.Chemscore.Internal.Correction>
0.0032

> <Gold.Rescore>
     Score         DG    S(hbond)    S(metal)    S(lipo)     H(rot)  DE(clash)    DE(int)     intcor
     13.94     -16.78       0.85        0.00     104.60       1.48       0.00       2.84       ----

> <Gold.Chemscore.Fitness>
13.9352

> <Gold.Chemscore.DG>
-16.7785

> <Gold.Chemscore.ZeroCoef>
-5.4800

> <Gold.Chemscore.Hbond>
0.8532

> <Gold.Chemscore.Metal>
0.0000

> <Gold.Chemscore.Lipo>
104.5968

> <Gold.Chemscore.Internal_Hbond>
0.0000

> <Gold.Chemscore.DEClash>
0.0025

> <Gold.Chemscore.DEInternal>
2.8407

> <Gold.Chemscore.Rot>
1.4801

> <Gold.Chemscore.Internal.Correction>
   9.000000E+99

> <Gold.Chemscore.Hbonds>
donor molecule, donor type, donor heavy atom, donor atom, acceptor molecule, acceptor atom, score
      P1  H  7989  7998       L1     9  0.93

> <Gold.Chemscore.Hbond.Weighted>
-2.8498

> <Gold.Chemscore.Metal.Weighted>
-0.0000

> <Gold.Chemscore.Lipo.Weighted>
-12.2378

> <Gold.Chemscore.Internal_Hbond.Weighted>
0.0000

> <Gold.Chemscore.DEClash.Weighted>
0.0025

> <Gold.Chemscore.DEInternal.Weighted>
2.8407

> <Gold.Chemscore.Rot.Weighted>
3.7891

> <Gold.Chemscore.Internal.Correction.Weighted>
   9.000000E+99

> <Gold.Protein.RotatedTorsions>
[ 6907 6896 6895 6894 ] final -124.45 input  -60.11 | X-H torsion
[ 7974 7965 7964 7962 ] final  -34.71 input  175.53 | X-H torsion
[ 8008 7997 7996 7995 ] final  -50.38 input   59.86 | X-H torsion
[ 10167 10162 10161 10158 ] final   27.37 input  -65.29 | X-H torsion
[ 10718 10713 10712 10709 ] final  -83.07 input   66.30 | X-H torsion
[ 10763 10752 10751 10750 ] final -112.09 input  -60.55 | X-H torsion
[ 11005 11000 10999 10996 ] final  -83.35 input  -57.11 | X-H torsion

> <Gold.Protein.ActiveResidues>
 VAL166  LYS551  ARG553  GLY616  TRP617  ASP618  TYR619  PRO620  LYS621  CYS622 
 ASP623  PHE694  ASN695  SER759  ASP760  ASP761  ALA762  ILE779  LEU786  VAL792 
 PHE793  MET794  SER795  GLU796  ALA797  LYS798  CYS799  TRP800  GLU811  SER814 

> <Gold.Protein.RotatedAtoms>
  150.8769  133.7426  159.2943 H   0  0  0  0  0  0  0  0  0  0  0  0  # atno 6907 bound_to 6896
  151.5020  135.1060  159.9841 H   0  0  0  0  0  0  0  0  0  0  0  0  # atno 6908 bound_to 6896
  152.4734  133.8036  159.7021 H   0  0  0  0  0  0  0  0  0  0  0  0  # atno 6909 bound_to 6896
  146.0807  140.6071  142.8909 H   0  0  0  0  0  0  0  0  0  0  0  0  # atno 7974 bound_to 7965
  154.4061  140.1274  156.4656 H   0  0  0  0  0  0  0  0  0  0  0  0  # atno 8008 bound_to 7997
  155.7230  140.3492  155.5005 H   0  0  0  0  0  0  0  0  0  0  0  0  # atno 8009 bound_to 7997
  155.9197  140.1050  157.1206 H   0  0  0  0  0  0  0  0  0  0  0  0  # atno 8010 bound_to 7997
  140.4944  144.0416  150.6309 H   0  0  0  0  0  0  0  0  0  0  0  0  # atno 10167 bound_to 10162
  156.0023  130.4654  150.4201 H   0  0  0  0  0  0  0  0  0  0  0  0  # atno 10718 bound_to 10713
  154.8333  135.4503  154.1140 H   0  0  0  0  0  0  0  0  0  0  0  0  # atno 10763 bound_to 10752
  153.2395  135.6914  153.7806 H   0  0  0  0  0  0  0  0  0  0  0  0  # atno 10764 bound_to 10752
  153.7159  135.3349  155.3232 H   0  0  0  0  0  0  0  0  0  0  0  0  # atno 10765 bound_to 10752
  141.1658  133.7290  156.8707 H   0  0  0  0  0  0  0  0  0  0  0  0  # atno 11005 bound_to 11000
  144.7291  140.4618  143.6951 LP  0  0  0  0  0  0  0  0  0  0  0  0  # atno 17320 bound_to 7965
  145.6223  139.1525  143.3016 LP  0  0  0  0  0  0  0  0  0  0  0  0  # atno 17321 bound_to 7965
  140.3694  143.2863  152.0295 LP  0  0  0  0  0  0  0  0  0  0  0  0  # atno 17342 bound_to 10162
  139.4858  144.6242  151.7197 LP  0  0  0  0  0  0  0  0  0  0  0  0  # atno 17343 bound_to 10162
  157.2258  131.0493  151.2521 LP  0  0  0  0  0  0  0  0  0  0  0  0  # atno 17370 bound_to 10713
  157.3758  130.7205  149.6596 LP  0  0  0  0  0  0  0  0  0  0  0  0  # atno 17371 bound_to 10713
  140.1784  134.9051  157.2918 LP  0  0  0  0  0  0  0  0  0  0  0  0  # atno 17394 bound_to 11000
  140.2423  134.3781  155.7475 LP  0  0  0  0  0  0  0  0  0  0  0  0  # atno 17395 bound_to 11000

$$$$
