AV-unprocessed.smi:1877|AV-procd|sdf|7625|dock1
  -GOLD-   22720 9353D 1   1.00000     0.00000
 Structure written by MMmdl.
 33 35  0  0  0  0  0  0  0  0  2 V2000
  149.3290  140.9298  157.5765 O   0  0  0  0  0  0  0  0  0  0  0  0
  150.7152  140.7348  157.3856 C   0  0  1  0  0  0  0  0  0  0  0  0
  151.0335  141.0010  155.9003 C   0  0  0  0  0  0  0  0  0  0  0  0
  150.3176  140.0909  154.9975 N   0  0  0  0  0  0  0  0  0  0  0  0
  150.6254  138.8240  154.6075 C   0  0  0  0  0  0  0  0  0  0  0  0
  149.6339  138.3978  153.7767 N   0  3  0  0  0  0  0  0  0  0  0  0
  148.6816  139.4089  153.6297 C   0  0  0  0  0  0  0  0  0  0  0  0
  147.5014  139.4510  152.8940 C   0  0  0  0  0  0  0  0  0  0  0  0
  146.7552  140.6463  152.9627 C   0  0  0  0  0  0  0  0  0  0  0  0
  147.1891  141.7403  153.7397 C   0  0  0  0  0  0  0  0  0  0  0  0
  148.3870  141.6862  154.4823 C   0  0  0  0  0  0  0  0  0  0  0  0
  149.1175  140.5012  154.4089 C   0  0  0  0  0  0  0  0  0  0  0  0
  151.5576  141.5983  158.3180 C   0  0  0  0  0  0  0  0  0  0  0  0
  151.4547  143.0065  158.2707 C   0  0  0  0  0  0  0  0  0  0  0  0
  152.2445  143.8077  159.1175 C   0  0  0  0  0  0  0  0  0  0  0  0
  152.1391  145.1564  159.0647 F   0  0  0  0  0  0  0  0  0  0  0  0
  153.1457  143.2068  160.0163 C   0  0  0  0  0  0  0  0  0  0  0  0
  153.2578  141.8044  160.0657 C   0  0  0  0  0  0  0  0  0  0  0  0
  152.4689  141.0010  159.2194 C   0  0  0  0  0  0  0  0  0  0  0  0
  152.6011  139.6536  159.2707 F   0  0  0  0  0  0  0  0  0  0  0  0
  149.0643  141.6990  157.0949 H   0  0  0  0  0  0  0  0  0  0  0  0
  150.9018  139.6847  157.6109 H   0  0  0  0  0  0  0  0  0  0  0  0
  150.7773  142.0244  155.6220 H   0  0  0  0  0  0  0  0  0  0  0  0
  152.1016  140.8853  155.7095 H   0  0  0  0  0  0  0  0  0  0  0  0
  151.4932  138.2563  154.9110 H   0  0  0  0  0  0  0  0  0  0  0  0
  147.1663  138.6148  152.2979 H   0  0  0  0  0  0  0  0  0  0  0  0
  145.8316  140.7256  152.4077 H   0  0  0  0  0  0  0  0  0  0  0  0
  146.5910  142.6395  153.7673 H   0  0  0  0  0  0  0  0  0  0  0  0
  148.7114  142.5282  155.0757 H   0  0  0  0  0  0  0  0  0  0  0  0
  150.7716  143.4791  157.5801 H   0  0  0  0  0  0  0  0  0  0  0  0
  153.7525  143.8211  160.6652 H   0  0  0  0  0  0  0  0  0  0  0  0
  153.9526  141.3442  160.7527 H   0  0  0  0  0  0  0  0  0  0  0  0
  149.6109  137.4832  153.3439 H   0  0  0  0  0  0  0  0  0  0  0  0
  1  2  1  0  0  0  0
  1 21  1  0  0  0  0
  2  3  1  0  0  0  0
  2 13  1  0  0  0  0
  2 22  1  0  0  0  0
  3  4  1  0  0  0  0
  3 23  1  0  0  0  0
  3 24  1  0  0  0  0
  4 12  1  0  0  0  0
  4  5  1  0  0  0  0
  5  6  2  0  0  0  0
  5 25  1  0  0  0  0
  6  7  1  0  0  0  0
  6 33  1  0  0  0  0
  7 12  2  0  0  0  0
  7  8  1  0  0  0  0
  8  9  2  0  0  0  0
  8 26  1  0  0  0  0
  9 10  1  0  0  0  0
  9 27  1  0  0  0  0
 10 11  2  0  0  0  0
 10 28  1  0  0  0  0
 11 12  1  0  0  0  0
 11 29  1  0  0  0  0
 13 19  1  0  0  0  0
 13 14  2  0  0  0  0
 14 15  1  0  0  0  0
 14 30  1  0  0  0  0
 15 16  1  0  0  0  0
 15 17  2  0  0  0  0
 17 18  1  0  0  0  0
 17 31  1  0  0  0  0
 18 19  2  0  0  0  0
 18 32  1  0  0  0  0
 19 20  1  0  0  0  0
M  CHG  1   6   1
M  END
> <s_m_source_file>
AV-unprocessed.smi

> <i_m_source_file_index>
1877

> <i_lp_mmshare_version>
43012

> <i_f3d_flags>
0

> <s_epik_input>
RmMxW2NIXVtjSF1jKEYpW2NIXWMxW0NASF0oW09IXSlbQ0gyXW4oW2NIXW4yKWMoYzIzKVtjSF1bY0hdW2NIXVtjSF0z

> <s_epik_cmdline>
J2VwaWtfcHl0aG9uJywgJy1waCcsICc3LjAnLCAnLXRuJywgJzgnLCAnLW1hJywgJzIwMCcsICctbWV0YWxfYmluZGluZycsICctaW1hZScsICc8aW5maWxlLm1hZT4nLCAnLW9tYWUnLCAnPG91dGZpbGUubWFlPic=

> <r_epik_Ionization_Penalty>
1.3029

> <r_epik_Ionization_Penalty_Charging>
1.3029

> <r_epik_Ionization_Penalty_Neutral>
3.53208e-06

> <r_epik_State_Penalty>
1.377

> <r_epik_Charging_Adjusted_Penalty>
2.6799

> <i_epik_Tot_Q>
1

> <i_epik_Tot_abs_Q>
1

> <r_epik_Metal_State_Penalty>
5.40879

> <b_epik_Metal_Only>
0

> <s_lp_Force_Field>
OPLS_2005

> <r_lp_Energy>
17.5281

> <b_lp_Chiralities_Consistent>
1

> <s_lp_Variant>
AV-unprocessed.smi:1877-4

> <Gold.Version>
5.8.1

> <Gold.Id.Protein>
6NUR|6NUR_protein|mol2

> <Gold.PLP.Fitness>
53.5115

> <Gold.PLP.PLP>
-48.1806

> <Gold.PLP.part.hbond>
-1.8489

> <Gold.PLP.part.metal>
0.0000

> <Gold.PLP.part.buried>
2.8749

> <Gold.PLP.part.nonpolar>
-48.6686

> <Gold.PLP.part.repulsive>
0.0584

> <Gold.PLP.ligand.clash>
0.0000

> <Gold.PLP.ligand.torsion>
0.3449

> <Gold.PLP.Chemscore.Hbond>
2.0000

> <Gold.PLP.Chemscore.CHOScore>
0.0000

> <Gold.PLP.Chemscore.Metal>
0.0000

> <Gold.Chemscore.Hbonds>
donor molecule, donor type, donor heavy atom, donor atom, acceptor molecule, acceptor atom, score
      L1  H     6    33       P1  7948  2.00

> <Gold.PLP.Chemscore.Internal.Correction>
0.0207

> <Gold.Rescore>
     Score         DG    S(hbond)    S(metal)    S(lipo)     H(rot)  DE(clash)    DE(int)     intcor
     15.20     -15.96       0.73        0.00     113.87       2.06       0.38       0.38       ----

> <Gold.Chemscore.Fitness>
15.2018

> <Gold.Chemscore.DG>
-15.9594

> <Gold.Chemscore.ZeroCoef>
-5.4800

> <Gold.Chemscore.Hbond>
0.7274

> <Gold.Chemscore.Metal>
0.0000

> <Gold.Chemscore.Lipo>
113.8700

> <Gold.Chemscore.Internal_Hbond>
0.0000

> <Gold.Chemscore.DEClash>
0.3790

> <Gold.Chemscore.DEInternal>
0.3786

> <Gold.Chemscore.Rot>
2.0597

> <Gold.Chemscore.Internal.Correction>
   9.000000E+99

> <Gold.Chemscore.Hbonds>
donor molecule, donor type, donor heavy atom, donor atom, acceptor molecule, acceptor atom, score
      L1  H     6    33       P1  7948  0.75

> <Gold.Chemscore.Hbond.Weighted>
-2.4294

> <Gold.Chemscore.Metal.Weighted>
-0.0000

> <Gold.Chemscore.Lipo.Weighted>
-13.3228

> <Gold.Chemscore.Internal_Hbond.Weighted>
0.0000

> <Gold.Chemscore.DEClash.Weighted>
0.3790

> <Gold.Chemscore.DEInternal.Weighted>
0.3786

> <Gold.Chemscore.Rot.Weighted>
5.2728

> <Gold.Chemscore.Internal.Correction.Weighted>
   9.000000E+99

> <Gold.Protein.RotatedTorsions>
[ 6907 6896 6895 6894 ] final  -71.03 input  -60.11 | X-H torsion
[ 7974 7965 7964 7962 ] final  -81.63 input  175.53 | X-H torsion
[ 8008 7997 7996 7995 ] final  -53.07 input   59.86 | X-H torsion
[ 10167 10162 10161 10158 ] final  160.50 input  -65.29 | X-H torsion
[ 10718 10713 10712 10709 ] final  141.86 input   66.30 | X-H torsion
[ 10763 10752 10751 10750 ] final    2.60 input  -60.55 | X-H torsion
[ 11005 11000 10999 10996 ] final  108.72 input  -57.11 | X-H torsion

> <Gold.Protein.ActiveResidues>
 VAL166  LYS551  ARG553  GLY616  TRP617  ASP618  TYR619  PRO620  LYS621  CYS622 
 ASP623  PHE694  ASN695  SER759  ASP760  ASP761  ALA762  ILE779  LEU786  VAL792 
 PHE793  MET794  SER795  GLU796  ALA797  LYS798  CYS799  TRP800  GLU811  SER814 

> <Gold.Protein.RotatedAtoms>
  150.7231  134.5368  159.5727 H   0  0  0  0  0  0  0  0  0  0  0  0  # atno 6907 bound_to 6896
  152.2888  134.7742  160.0391 H   0  0  0  0  0  0  0  0  0  0  0  0  # atno 6908 bound_to 6896
  151.8363  133.3381  159.3666 H   0  0  0  0  0  0  0  0  0  0  0  0  # atno 6909 bound_to 6896
  145.5441  140.9506  143.1535 H   0  0  0  0  0  0  0  0  0  0  0  0  # atno 7974 bound_to 7965
  154.4123  140.1209  156.5093 H   0  0  0  0  0  0  0  0  0  0  0  0  # atno 8008 bound_to 7997
  155.6815  140.3496  155.4838 H   0  0  0  0  0  0  0  0  0  0  0  0  # atno 8009 bound_to 7997
  155.9547  140.1111  157.0936 H   0  0  0  0  0  0  0  0  0  0  0  0  # atno 8010 bound_to 7997
  139.4840  144.4628  151.8682 H   0  0  0  0  0  0  0  0  0  0  0  0  # atno 10167 bound_to 10162
  157.3872  131.1000  151.0682 H   0  0  0  0  0  0  0  0  0  0  0  0  # atno 10718 bound_to 10713
  153.2936  135.6950  153.7270 H   0  0  0  0  0  0  0  0  0  0  0  0  # atno 10763 bound_to 10752
  153.6211  135.3427  155.3012 H   0  0  0  0  0  0  0  0  0  0  0  0  # atno 10764 bound_to 10752
  154.8531  135.4386  154.2025 H   0  0  0  0  0  0  0  0  0  0  0  0  # atno 10765 bound_to 10752
  139.8849  134.9438  156.6015 H   0  0  0  0  0  0  0  0  0  0  0  0  # atno 11005 bound_to 11000
  144.7562  139.7068  143.7253 LP  0  0  0  0  0  0  0  0  0  0  0  0  # atno 17320 bound_to 7965
  146.1961  139.5229  142.9773 LP  0  0  0  0  0  0  0  0  0  0  0  0  # atno 17321 bound_to 7965
  140.4092  144.2392  150.5889 LP  0  0  0  0  0  0  0  0  0  0  0  0  # atno 17342 bound_to 10162
  140.4983  143.2326  151.8716 LP  0  0  0  0  0  0  0  0  0  0  0  0  # atno 17343 bound_to 10162
  157.1729  130.6275  149.5646 LP  0  0  0  0  0  0  0  0  0  0  0  0  # atno 17370 bound_to 10713
  155.9789  130.4779  150.6686 LP  0  0  0  0  0  0  0  0  0  0  0  0  # atno 17371 bound_to 10713
  140.7880  133.8605  155.8622 LP  0  0  0  0  0  0  0  0  0  0  0  0  # atno 17394 bound_to 11000
  140.9702  134.1541  157.4582 LP  0  0  0  0  0  0  0  0  0  0  0  0  # atno 17395 bound_to 11000

$$$$
