AV-unprocessed.smi:2519|AV-procd|sdf|9904|dock1
  -GOLD-   2272013543D 1   1.00000     0.00000
 Structure written by MMmdl.
 43 44  0  0  0  0  0  0  0  0  1 V2000
  138.8387  141.2514  161.0266 C   0  0  0  0  0  0  0  0  0  0  0  0
  139.7457  142.3528  160.7445 N   0  0  0  0  0  0  0  0  0  0  0  0
  141.0815  142.2372  160.6634 C   0  0  0  0  0  0  0  0  0  0  0  0
  141.6735  141.1695  160.8284 O   0  0  0  0  0  0  0  0  0  0  0  0
  141.8378  143.5086  160.3771 C   0  0  0  0  0  0  0  0  0  0  0  0
  141.2109  144.7615  160.5587 C   0  0  0  0  0  0  0  0  0  0  0  0
  141.9447  145.9302  160.2895 C   0  0  0  0  0  0  0  0  0  0  0  0
  143.2758  145.8117  159.8491 C   0  0  0  0  0  0  0  0  0  0  0  0
  143.8385  144.5274  159.6890 C   0  0  0  0  0  0  0  0  0  0  0  0
  145.1831  144.5096  159.2345 N   0  0  0  0  0  0  0  0  0  0  0  0
  146.1065  143.5399  159.3914 C   0  0  0  0  0  0  0  0  0  0  0  0
  145.9267  142.4955  160.0157 O   0  0  0  0  0  0  0  0  0  0  0  0
  147.2853  143.7974  158.7944 N   0  0  0  0  0  0  0  0  0  0  0  0
  148.4931  142.9693  158.7650 C   0  0  1  0  0  0  0  0  0  0  0  0
  148.5375  142.1812  157.4436 C   0  0  0  0  0  0  0  0  0  0  0  0
  149.8152  141.3355  157.3394 C   0  0  0  0  0  0  0  0  0  0  0  0
  151.0726  142.2041  157.5013 C   0  0  0  0  0  0  0  0  0  0  0  0
  151.0510  142.9939  158.8269 C   0  0  1  0  0  0  0  0  0  0  0  0
  152.3171  143.8557  159.0101 C   0  0  0  0  0  0  0  0  0  0  0  0
  152.5078  144.6493  157.9558 F   0  0  0  0  0  0  0  0  0  0  0  0
  152.2006  144.6107  160.1026 F   0  0  0  0  0  0  0  0  0  0  0  0
  153.3851  143.0721  159.1590 F   0  0  0  0  0  0  0  0  0  0  0  0
  149.7612  143.8367  158.9196 C   0  0  0  0  0  0  0  0  0  0  0  0
  143.1215  143.4086  159.9544 N   0  0  0  0  0  0  0  0  0  0  0  0
  137.8077  141.6052  161.0083 H   0  0  0  0  0  0  0  0  0  0  0  0
  139.0373  140.8285  162.0122 H   0  0  0  0  0  0  0  0  0  0  0  0
  138.9419  140.4623  160.2806 H   0  0  0  0  0  0  0  0  0  0  0  0
  139.3401  143.2667  160.5983 H   0  0  0  0  0  0  0  0  0  0  0  0
  140.1873  144.8345  160.8969 H   0  0  0  0  0  0  0  0  0  0  0  0
  141.4939  146.9032  160.4184 H   0  0  0  0  0  0  0  0  0  0  0  0
  143.8535  146.6994  159.6355 H   0  0  0  0  0  0  0  0  0  0  0  0
  145.4717  145.3176  158.7033 H   0  0  0  0  0  0  0  0  0  0  0  0
  147.3481  144.6734  158.2956 H   0  0  0  0  0  0  0  0  0  0  0  0
  148.4526  142.2452  159.5809 H   0  0  0  0  0  0  0  0  0  0  0  0
  147.6625  141.5348  157.3631 H   0  0  0  0  0  0  0  0  0  0  0  0
  148.4915  142.8700  156.5986 H   0  0  0  0  0  0  0  0  0  0  0  0
  149.8043  140.5594  158.1058 H   0  0  0  0  0  0  0  0  0  0  0  0
  149.8411  140.8200  156.3790 H   0  0  0  0  0  0  0  0  0  0  0  0
  151.9581  141.5696  157.4558 H   0  0  0  0  0  0  0  0  0  0  0  0
  151.1463  142.8950  156.6606 H   0  0  0  0  0  0  0  0  0  0  0  0
  151.0313  142.2694  159.6428 H   0  0  0  0  0  0  0  0  0  0  0  0
  149.7729  144.6078  158.1480 H   0  0  0  0  0  0  0  0  0  0  0  0
  149.7384  144.3624  159.8744 H   0  0  0  0  0  0  0  0  0  0  0  0
  1  2  1  0  0  0  0
  1 25  1  0  0  0  0
  1 26  1  0  0  0  0
  1 27  1  0  0  0  0
  2  3  1  0  0  0  0
  2 28  1  0  0  0  0
  3  4  2  0  0  0  0
  3  5  1  0  0  0  0
  5 24  1  0  0  0  0
  5  6  2  0  0  0  0
  6  7  1  0  0  0  0
  6 29  1  0  0  0  0
  7  8  2  0  0  0  0
  7 30  1  0  0  0  0
  8  9  1  0  0  0  0
  8 31  1  0  0  0  0
  9 10  1  0  0  0  0
  9 24  2  0  0  0  0
 10 11  1  0  0  0  0
 10 32  1  0  0  0  0
 11 12  2  0  0  0  0
 11 13  1  0  0  0  0
 13 14  1  0  0  0  0
 13 33  1  0  0  0  0
 14 23  1  0  0  0  0
 14 15  1  0  0  0  0
 14 34  1  0  0  0  0
 15 16  1  0  0  0  0
 15 35  1  0  0  0  0
 15 36  1  0  0  0  0
 16 17  1  0  0  0  0
 16 37  1  0  0  0  0
 16 38  1  0  0  0  0
 17 18  1  0  0  0  0
 17 39  1  0  0  0  0
 17 40  1  0  0  0  0
 18 19  1  0  0  0  0
 18 23  1  0  0  0  0
 18 41  1  0  0  0  0
 19 20  1  0  0  0  0
 19 21  1  0  0  0  0
 19 22  1  0  0  0  0
 23 42  1  0  0  0  0
 23 43  1  0  0  0  0
M  END
> <s_m_source_file>
AV-unprocessed.smi

> <i_m_source_file_index>
2519

> <i_lp_mmshare_version>
43012

> <i_f3d_flags>
0

> <s_epik_input>
W0NIM11bTkhdQyg9TyljMVtjSF1bY0hdW2NIXWMobjEpW05IXUMoPU8pW05IXVtDQEBIXTJbQ0gyXVtDSDJdW0NIMl1bQ0BASF0oQyhGKShGKUYpW0NIMl0y

> <s_epik_cmdline>
J2VwaWtfcHl0aG9uJywgJy1waCcsICc3LjAnLCAnLXRuJywgJzgnLCAnLW1hJywgJzIwMCcsICctbWV0YWxfYmluZGluZycsICctaW1hZScsICc8aW5maWxlLm1hZT4nLCAnLW9tYWUnLCAnPG91dGZpbGUubWFlPic=

> <r_lp_tautomer_probability>
1

> <r_epik_Ionization_Penalty>
3.74915e-05

> <r_epik_Ionization_Penalty_Charging>
0

> <r_epik_Ionization_Penalty_Neutral>
3.74915e-05

> <r_epik_State_Penalty>
-0

> <r_epik_Charging_Adjusted_Penalty>
0

> <i_epik_Tot_Q>
0

> <i_epik_Tot_abs_Q>
0

> <r_epik_Metal_State_Penalty>
-0

> <b_epik_Metal_Only>
0

> <s_lp_Force_Field>
OPLS_2005

> <r_lp_Energy>
27.1439

> <b_lp_Chiralities_Consistent>
1

> <s_lp_Variant>
AV-unprocessed.smi:2519-2

> <Gold.Version>
5.8.1

> <Gold.Id.Protein>
6NUR|6NUR_protein|mol2

> <Gold.PLP.Fitness>
40.3920

> <Gold.PLP.PLP>
-35.6456

> <Gold.PLP.part.hbond>
-2.9825

> <Gold.PLP.part.metal>
0.0000

> <Gold.PLP.part.buried>
-4.2304

> <Gold.PLP.part.nonpolar>
-28.2516

> <Gold.PLP.part.repulsive>
0.2107

> <Gold.PLP.ligand.clash>
0.0000

> <Gold.PLP.ligand.torsion>
0.6586

> <Gold.PLP.Chemscore.Hbond>
2.0000

> <Gold.PLP.Chemscore.CHOScore>
0.0000

> <Gold.PLP.Chemscore.Metal>
0.0000

> <Gold.Chemscore.Hbonds>
donor molecule, donor type, donor heavy atom, donor atom, acceptor molecule, acceptor atom, score
      L1  H    13    33       P1  8029  1.00
      P1  H  6934  6946       L1    12  1.00

> <Gold.PLP.Chemscore.Internal.Correction>
0.0636

> <Gold.Rescore>
     Score         DG    S(hbond)    S(metal)    S(lipo)     H(rot)  DE(clash)    DE(int)     intcor
     15.46     -17.07       1.96        0.00      65.09       1.00       0.02       1.60       ----

> <Gold.Chemscore.Fitness>
15.4570

> <Gold.Chemscore.DG>
-17.0719

> <Gold.Chemscore.ZeroCoef>
-5.4800

> <Gold.Chemscore.Hbond>
1.9570

> <Gold.Chemscore.Metal>
0.0000

> <Gold.Chemscore.Lipo>
65.0883

> <Gold.Chemscore.Internal_Hbond>
0.0000

> <Gold.Chemscore.DEClash>
0.0186

> <Gold.Chemscore.DEInternal>
1.5962

> <Gold.Chemscore.Rot>
1.0000

> <Gold.Chemscore.Internal.Correction>
   9.000000E+99

> <Gold.Chemscore.Hbonds>
donor molecule, donor type, donor heavy atom, donor atom, acceptor molecule, acceptor atom, score
      L1  H    13    33       P1  8029  0.90
      P1  H  6934  6946       L1    12  0.93

> <Gold.Chemscore.Hbond.Weighted>
-6.5365

> <Gold.Chemscore.Metal.Weighted>
-0.0000

> <Gold.Chemscore.Lipo.Weighted>
-7.6153

> <Gold.Chemscore.Internal_Hbond.Weighted>
0.0000

> <Gold.Chemscore.DEClash.Weighted>
0.0186

> <Gold.Chemscore.DEInternal.Weighted>
1.5962

> <Gold.Chemscore.Rot.Weighted>
2.5600

> <Gold.Chemscore.Internal.Correction.Weighted>
   9.000000E+99

> <Gold.Protein.RotatedTorsions>
[ 6907 6896 6895 6894 ] final  115.79 input  -60.11 | X-H torsion
[ 7974 7965 7964 7962 ] final -147.01 input  175.53 | X-H torsion
[ 8008 7997 7996 7995 ] final -114.66 input   59.86 | X-H torsion
[ 10167 10162 10161 10158 ] final   24.99 input  -65.29 | X-H torsion
[ 10718 10713 10712 10709 ] final  -19.21 input   66.30 | X-H torsion
[ 10763 10752 10751 10750 ] final  -28.69 input  -60.55 | X-H torsion
[ 11005 11000 10999 10996 ] final  -59.03 input  -57.11 | X-H torsion

> <Gold.Protein.ActiveResidues>
 VAL166  LYS551  ARG553  GLY616  TRP617  ASP618  TYR619  PRO620  LYS621  CYS622 
 ASP623  PHE694  ASN695  SER759  ASP760  ASP761  ALA762  ILE779  LEU786  VAL792 
 PHE793  MET794  SER795  GLU796  ALA797  LYS798  CYS799  TRP800  GLU811  SER814 

> <Gold.Protein.RotatedAtoms>
  152.4719  133.8049  159.6972 H   0  0  0  0  0  0  0  0  0  0  0  0  # atno 6907 bound_to 6896
  150.8713  133.7492  159.2967 H   0  0  0  0  0  0  0  0  0  0  0  0  # atno 6908 bound_to 6896
  151.5026  135.1065  159.9885 H   0  0  0  0  0  0  0  0  0  0  0  0  # atno 6909 bound_to 6896
  144.8121  140.5382  143.5635 H   0  0  0  0  0  0  0  0  0  0  0  0  # atno 7974 bound_to 7965
  155.0399  140.0392  157.2505 H   0  0  0  0  0  0  0  0  0  0  0  0  # atno 8008 bound_to 7997
  154.7225  140.2715  155.6504 H   0  0  0  0  0  0  0  0  0  0  0  0  # atno 8009 bound_to 7997
  156.2820  140.2700  156.1901 H   0  0  0  0  0  0  0  0  0  0  0  0  # atno 8010 bound_to 7997
  140.5142  144.0109  150.6386 H   0  0  0  0  0  0  0  0  0  0  0  0  # atno 10167 bound_to 10162
  156.5488  130.4696  149.6462 H   0  0  0  0  0  0  0  0  0  0  0  0  # atno 10718 bound_to 10713
  153.7525  135.6925  153.4942 H   0  0  0  0  0  0  0  0  0  0  0  0  # atno 10763 bound_to 10752
  153.1994  135.4442  155.0246 H   0  0  0  0  0  0  0  0  0  0  0  0  # atno 10764 bound_to 10752
  154.8182  135.3409  154.7045 H   0  0  0  0  0  0  0  0  0  0  0  0  # atno 10765 bound_to 10752
  141.1232  133.6614  156.5010 H   0  0  0  0  0  0  0  0  0  0  0  0  # atno 11005 bound_to 11000
  145.5299  139.1475  143.3505 LP  0  0  0  0  0  0  0  0  0  0  0  0  # atno 17320 bound_to 7965
  146.2421  140.5439  142.8929 LP  0  0  0  0  0  0  0  0  0  0  0  0  # atno 17321 bound_to 7965
  140.3440  143.3002  152.0558 LP  0  0  0  0  0  0  0  0  0  0  0  0  # atno 17342 bound_to 10162
  139.4904  144.6422  151.6854 LP  0  0  0  0  0  0  0  0  0  0  0  0  # atno 17343 bound_to 10162
  156.2904  130.7121  151.1968 LP  0  0  0  0  0  0  0  0  0  0  0  0  # atno 17370 bound_to 10713
  157.7391  131.0532  150.5250 LP  0  0  0  0  0  0  0  0  0  0  0  0  # atno 17371 bound_to 10713
  140.4446  134.6984  157.5009 LP  0  0  0  0  0  0  0  0  0  0  0  0  # atno 17394 bound_to 11000
  140.0206  134.6553  155.9245 LP  0  0  0  0  0  0  0  0  0  0  0  0  # atno 17395 bound_to 11000

$$$$
