AV-unprocessed.smi:1435|AV-procd|sdf|5858|dock7
  -GOLD-   22720 5533D 1   1.00000     0.00000
 Structure written by MMmdl.
 44 45  0  0  0  0  0  0  0  0  2 V2000
  145.6302  136.3458  155.8616 O   0  0  0  0  0  0  0  0  0  0  0  0
  146.6403  135.6431  155.8218 C   0  0  0  0  0  0  0  0  0  0  0  0
  147.6791  135.7282  156.9411 C   0  0  0  0  0  0  0  0  0  0  0  0
  147.2679  136.7113  158.0514 C   0  0  0  0  0  0  0  0  0  0  0  0
  148.0547  136.2852  159.6696 S   0  0  0  0  0  0  0  0  0  0  0  0
  149.4975  136.1051  159.4479 O   0  0  0  0  0  0  0  0  0  0  0  0
  147.5998  137.2608  160.6725 O   0  0  0  0  0  0  0  0  0  0  0  0
  147.3013  134.6327  160.0469 C   0  0  0  0  0  0  0  0  0  0  0  0
  145.7858  134.7323  160.2638 C   0  0  0  0  0  0  0  0  0  0  0  0
  145.5826  135.0212  161.7589 C   0  0  0  0  0  0  0  0  0  0  0  0
  146.9244  134.7322  162.4479 C   0  0  0  0  0  0  0  0  0  0  0  0
  147.8137  134.0868  161.3823 C   0  0  0  0  0  0  0  0  0  0  0  0
  146.9093  134.7942  154.8186 N   0  0  0  0  0  0  0  0  0  0  0  0
  146.0916  134.6330  153.6232 C   0  0  0  0  0  0  0  0  0  0  0  0
  145.9903  133.1548  153.2113 C   0  0  0  0  0  0  0  0  0  0  0  0
  145.4273  132.9873  151.8140 C   0  0  0  0  0  0  0  0  0  0  0  0
  146.1758  132.3347  150.8098 C   0  0  0  0  0  0  0  0  0  0  0  0
  145.6236  132.1915  149.5197 C   0  0  0  0  0  0  0  0  0  0  0  0
  144.3354  132.7043  149.2634 C   0  0  0  0  0  0  0  0  0  0  0  0
  143.6490  133.3222  150.2496 N   0  3  0  0  0  0  0  0  0  0  0  0
  144.1426  133.4794  151.4977 C   0  0  0  0  0  0  0  0  0  0  0  0
  147.7879  134.7302  157.3664 H   0  0  0  0  0  0  0  0  0  0  0  0
  148.6570  135.9981  156.5399 H   0  0  0  0  0  0  0  0  0  0  0  0
  147.5281  137.7371  157.7904 H   0  0  0  0  0  0  0  0  0  0  0  0
  146.1876  136.6787  158.1908 H   0  0  0  0  0  0  0  0  0  0  0  0
  147.5515  133.9629  159.2241 H   0  0  0  0  0  0  0  0  0  0  0  0
  145.3099  135.4812  159.6313 H   0  0  0  0  0  0  0  0  0  0  0  0
  145.3282  133.7725  160.0209 H   0  0  0  0  0  0  0  0  0  0  0  0
  145.2950  136.0612  161.9179 H   0  0  0  0  0  0  0  0  0  0  0  0
  144.7850  134.3986  162.1655 H   0  0  0  0  0  0  0  0  0  0  0  0
  147.3720  135.6677  162.7856 H   0  0  0  0  0  0  0  0  0  0  0  0
  146.8101  134.0928  163.3238 H   0  0  0  0  0  0  0  0  0  0  0  0
  147.6745  133.0053  161.4051 H   0  0  0  0  0  0  0  0  0  0  0  0
  148.8739  134.2813  161.5469 H   0  0  0  0  0  0  0  0  0  0  0  0
  147.7622  134.2556  154.8676 H   0  0  0  0  0  0  0  0  0  0  0  0
  145.0986  135.0309  153.8341 H   0  0  0  0  0  0  0  0  0  0  0  0
  146.5012  135.2322  152.8080 H   0  0  0  0  0  0  0  0  0  0  0  0
  146.9725  132.6814  153.2508 H   0  0  0  0  0  0  0  0  0  0  0  0
  145.3617  132.6110  153.9179 H   0  0  0  0  0  0  0  0  0  0  0  0
  147.1612  131.9470  151.0245 H   0  0  0  0  0  0  0  0  0  0  0  0
  146.1807  131.6951  148.7384 H   0  0  0  0  0  0  0  0  0  0  0  0
  143.8369  132.6390  148.3073 H   0  0  0  0  0  0  0  0  0  0  0  0
  143.4992  133.9895  152.2002 H   0  0  0  0  0  0  0  0  0  0  0  0
  142.7182  133.6854  150.0428 H   0  0  0  0  0  0  0  0  0  0  0  0
  1  2  2  0  0  0  0
  2  3  1  0  0  0  0
  2 13  1  0  0  0  0
  3  4  1  0  0  0  0
  3 22  1  0  0  0  0
  3 23  1  0  0  0  0
  4  5  1  0  0  0  0
  4 24  1  0  0  0  0
  4 25  1  0  0  0  0
  5  6  2  0  0  0  0
  5  7  2  0  0  0  0
  5  8  1  0  0  0  0
  8 12  1  0  0  0  0
  8  9  1  0  0  0  0
  8 26  1  0  0  0  0
  9 10  1  0  0  0  0
  9 27  1  0  0  0  0
  9 28  1  0  0  0  0
 10 11  1  0  0  0  0
 10 29  1  0  0  0  0
 10 30  1  0  0  0  0
 11 12  1  0  0  0  0
 11 31  1  0  0  0  0
 11 32  1  0  0  0  0
 12 33  1  0  0  0  0
 12 34  1  0  0  0  0
 13 14  1  0  0  0  0
 13 35  1  0  0  0  0
 14 15  1  0  0  0  0
 14 36  1  0  0  0  0
 14 37  1  0  0  0  0
 15 16  1  0  0  0  0
 15 38  1  0  0  0  0
 15 39  1  0  0  0  0
 16 21  1  0  0  0  0
 16 17  2  0  0  0  0
 17 18  1  0  0  0  0
 17 40  1  0  0  0  0
 18 19  2  0  0  0  0
 18 41  1  0  0  0  0
 19 20  1  0  0  0  0
 19 42  1  0  0  0  0
 20 21  2  0  0  0  0
 20 44  1  0  0  0  0
 21 43  1  0  0  0  0
M  CHG  1  20   1
M  END
> <s_m_source_file>
AV-unprocessed.smi

> <i_m_source_file_index>
1435

> <i_lp_mmshare_version>
43012

> <i_f3d_flags>
0

> <s_epik_input>
W0NIMl0xW0NIMl1bQ0gyXVtDSDJdW0NIXTFTKD1PKSg9TylbQ0gyXVtDSDJdQyg9TylbTkhdW0NIMl1bQ0gyXWMyW2NIXVtjSF1bY0hdbltjSF0y

> <s_epik_cmdline>
J2VwaWtfcHl0aG9uJywgJy1waCcsICc3LjAnLCAnLXRuJywgJzgnLCAnLW1hJywgJzIwMCcsICctbWV0YWxfYmluZGluZycsICctaW1hZScsICc8aW5maWxlLm1hZT4nLCAnLW9tYWUnLCAnPG91dGZpbGUubWFlPic=

> <r_epik_Ionization_Penalty>
2.2792

> <r_epik_Ionization_Penalty_Charging>
2.2792

> <r_epik_Ionization_Penalty_Neutral>
6.52611e-08

> <r_epik_State_Penalty>
2.42836

> <r_epik_Charging_Adjusted_Penalty>
4.70756

> <i_epik_Tot_Q>
1

> <i_epik_Tot_abs_Q>
1

> <r_epik_Metal_State_Penalty>
2.44099

> <b_epik_Metal_Only>
0

> <s_lp_Force_Field>
OPLS_2005

> <r_lp_Energy>
17.5712

> <b_lp_Chiralities_Consistent>
1

> <s_lp_Variant>
AV-unprocessed.smi:1435-2

> <Gold.Version>
5.8.1

> <Gold.Id.Protein>
6NUR|6NUR_protein|mol2

> <Gold.PLP.Fitness>
45.1050

> <Gold.PLP.PLP>
-31.9442

> <Gold.PLP.part.hbond>
-4.0000

> <Gold.PLP.part.metal>
0.0000

> <Gold.PLP.part.buried>
-5.4316

> <Gold.PLP.part.nonpolar>
-22.4121

> <Gold.PLP.part.repulsive>
0.0265

> <Gold.PLP.ligand.clash>
0.0000

> <Gold.PLP.ligand.torsion>
0.4816

> <Gold.PLP.Chemscore.Hbond>
4.6097

> <Gold.PLP.Chemscore.CHOScore>
0.0000

> <Gold.PLP.Chemscore.Metal>
0.0000

> <Gold.Chemscore.Hbonds>
donor molecule, donor type, donor heavy atom, donor atom, acceptor molecule, acceptor atom, score
      L1  H    20    44       P1 10186  2.00
      P1  H  6896  6909       L1     6  0.99
      P1  H  6931  6943       L1     7  0.56
      P1  H  6934  6947       L1     7  0.98

> <Gold.PLP.Chemscore.Internal.Correction>
0.2948

> <Gold.Rescore>
     Score         DG    S(hbond)    S(metal)    S(lipo)     H(rot)  DE(clash)    DE(int)     intcor
     20.46     -21.20       3.53        0.00      80.36       2.14       0.00       0.74       ----

> <Gold.Chemscore.Fitness>
20.4579

> <Gold.Chemscore.DG>
-21.1961

> <Gold.Chemscore.ZeroCoef>
-5.4800

> <Gold.Chemscore.Hbond>
3.5312

> <Gold.Chemscore.Metal>
0.0000

> <Gold.Chemscore.Lipo>
80.3615

> <Gold.Chemscore.Internal_Hbond>
0.0000

> <Gold.Chemscore.DEClash>
0.0000

> <Gold.Chemscore.DEInternal>
0.7381

> <Gold.Chemscore.Rot>
2.1408

> <Gold.Chemscore.Internal.Correction>
   9.000000E+99

> <Gold.Chemscore.Hbonds>
donor molecule, donor type, donor heavy atom, donor atom, acceptor molecule, acceptor atom, score
      L1  H    20    44       P1 10186  1.00
      P1  H  6896  6909       L1     6  0.94
      P1  H  6931  6943       L1     7  0.55
      P1  H  6934  6947       L1     7  0.92

> <Gold.Chemscore.Hbond.Weighted>
-11.7942

> <Gold.Chemscore.Metal.Weighted>
-0.0000

> <Gold.Chemscore.Lipo.Weighted>
-9.4023

> <Gold.Chemscore.Internal_Hbond.Weighted>
0.0000

> <Gold.Chemscore.DEClash.Weighted>
0.0000

> <Gold.Chemscore.DEInternal.Weighted>
0.7381

> <Gold.Chemscore.Rot.Weighted>
5.4805

> <Gold.Chemscore.Internal.Correction.Weighted>
   9.000000E+99

> <Gold.Protein.RotatedTorsions>
[ 6907 6896 6895 6894 ] final   48.71 input  -60.11 | X-H torsion
[ 7974 7965 7964 7962 ] final   40.97 input  175.53 | X-H torsion
[ 8008 7997 7996 7995 ] final  -79.69 input   59.86 | X-H torsion
[ 10167 10162 10161 10158 ] final  176.26 input  -65.29 | X-H torsion
[ 10718 10713 10712 10709 ] final  -25.75 input   66.30 | X-H torsion
[ 10763 10752 10751 10750 ] final   68.99 input  -60.55 | X-H torsion
[ 11005 11000 10999 10996 ] final  -87.78 input  -57.11 | X-H torsion

> <Gold.Protein.ActiveResidues>
 VAL166  LYS551  ARG553  GLY616  TRP617  ASP618  TYR619  PRO620  LYS621  CYS622 
 ASP623  PHE694  ASN695  SER759  ASP760  ASP761  ALA762  ILE779  LEU786  VAL792 
 PHE793  MET794  SER795  GLU796  ALA797  LYS798  CYS799  TRP800  GLU811  SER814 

> <Gold.Protein.RotatedAtoms>
  152.2825  134.7812  160.0393 H   0  0  0  0  0  0  0  0  0  0  0  0  # atno 6907 bound_to 6896
  151.8386  133.3415  159.3644 H   0  0  0  0  0  0  0  0  0  0  0  0  # atno 6908 bound_to 6896
  150.7196  134.5341  159.5759 H   0  0  0  0  0  0  0  0  0  0  0  0  # atno 6909 bound_to 6896
  146.0862  139.5471  142.9505 H   0  0  0  0  0  0  0  0  0  0  0  0  # atno 7974 bound_to 7965
  154.5809  140.0674  156.9103 H   0  0  0  0  0  0  0  0  0  0  0  0  # atno 8008 bound_to 7997
  155.2464  140.3348  155.4268 H   0  0  0  0  0  0  0  0  0  0  0  0  # atno 8009 bound_to 7997
  156.2188  140.1790  156.7510 H   0  0  0  0  0  0  0  0  0  0  0  0  # atno 8010 bound_to 7997
  139.5207  144.2936  152.0441 H   0  0  0  0  0  0  0  0  0  0  0  0  # atno 10167 bound_to 10162
  156.4603  130.4502  149.6933 H   0  0  0  0  0  0  0  0  0  0  0  0  # atno 10718 bound_to 10713
  153.0264  135.5227  154.7220 H   0  0  0  0  0  0  0  0  0  0  0  0  # atno 10763 bound_to 10752
  154.6272  135.2896  155.0260 H   0  0  0  0  0  0  0  0  0  0  0  0  # atno 10764 bound_to 10752
  154.1225  135.6605  153.4958 H   0  0  0  0  0  0  0  0  0  0  0  0  # atno 10765 bound_to 10752
  141.1612  133.7531  156.9357 H   0  0  0  0  0  0  0  0  0  0  0  0  # atno 11005 bound_to 11000
  145.6126  141.0337  143.1958 LP  0  0  0  0  0  0  0  0  0  0  0  0  # atno 17320 bound_to 7965
  144.7327  139.7677  143.7341 LP  0  0  0  0  0  0  0  0  0  0  0  0  # atno 17321 bound_to 7965
  140.2387  144.4293  150.6269 LP  0  0  0  0  0  0  0  0  0  0  0  0  # atno 17342 bound_to 10162
  140.6306  143.2187  151.6504 LP  0  0  0  0  0  0  0  0  0  0  0  0  # atno 17343 bound_to 10162
  156.3724  130.7537  151.2521 LP  0  0  0  0  0  0  0  0  0  0  0  0  # atno 17370 bound_to 10713
  157.7498  131.0319  150.4204 LP  0  0  0  0  0  0  0  0  0  0  0  0  # atno 17371 bound_to 10713
  140.1356  134.9327  157.2397 LP  0  0  0  0  0  0  0  0  0  0  0  0  # atno 17394 bound_to 11000
  140.2899  134.3252  155.7318 LP  0  0  0  0  0  0  0  0  0  0  0  0  # atno 17395 bound_to 11000

$$$$
