AV-unprocessed.smi:1938|AV-procd|sdf|7835|dock2
  -GOLD-   22720 9583D 1   1.00000     0.00000
 Structure written by MMmdl.
 35 36  0  0  0  0  0  0  0  0  1 V2000
  151.4411  138.2116  154.5329 C   0  0  0  0  0  0  0  0  0  0  0  0
  150.1534  138.2478  153.9269 O   0  0  0  0  0  0  0  0  0  0  0  0
  149.4239  139.4199  153.9950 C   0  0  0  0  0  0  0  0  0  0  0  0
  149.9734  140.4830  154.6343 N   0  0  0  0  0  0  0  0  0  0  0  0
  149.2626  141.6264  154.7078 C   0  0  0  0  0  0  0  0  0  0  0  0
  147.9762  141.7693  154.1576 C   0  0  0  0  0  0  0  0  0  0  0  0
  147.4034  140.6680  153.4947 C   0  0  0  0  0  0  0  0  0  0  0  0
  148.1410  139.4620  153.3992 C   0  0  0  0  0  0  0  0  0  0  0  0
  147.6666  138.2784  152.7652 N   0  0  0  0  0  0  0  0  0  0  0  0
  146.4125  137.9265  152.4337 C   0  0  0  0  0  0  0  0  0  0  0  0
  145.4044  138.6084  152.6140 O   0  0  0  0  0  0  0  0  0  0  0  0
  146.3916  136.7143  151.8620 N   0  0  0  0  0  0  0  0  0  0  0  0
  145.1977  136.0167  151.3951 C   0  0  0  0  0  0  0  0  0  0  0  0
  145.3270  134.4933  151.5642 C   0  0  1  0  0  0  0  0  0  0  0  0
  144.1195  133.6825  151.0933 C   0  0  0  0  0  0  0  0  0  0  0  0
  144.7467  132.3332  150.8296 C   0  0  0  0  0  0  0  0  0  0  0  0
  146.1012  132.7237  150.2437 C   0  0  0  0  0  0  0  0  0  0  0  0
  146.4172  134.0028  150.7893 O   0  0  0  0  0  0  0  0  0  0  0  0
  151.8743  137.2208  154.3978 H   0  0  0  0  0  0  0  0  0  0  0  0
  151.3826  138.4033  155.6053 H   0  0  0  0  0  0  0  0  0  0  0  0
  152.1187  138.9340  154.0755 H   0  0  0  0  0  0  0  0  0  0  0  0
  149.7319  142.4504  155.2246 H   0  0  0  0  0  0  0  0  0  0  0  0
  147.4391  142.7019  154.2450 H   0  0  0  0  0  0  0  0  0  0  0  0
  146.4113  140.7763  153.0874 H   0  0  0  0  0  0  0  0  0  0  0  0
  148.3877  137.6224  152.5025 H   0  0  0  0  0  0  0  0  0  0  0  0
  147.2698  136.2293  151.7489 H   0  0  0  0  0  0  0  0  0  0  0  0
  144.3021  136.3833  151.8995 H   0  0  0  0  0  0  0  0  0  0  0  0
  145.0691  136.2535  150.3388 H   0  0  0  0  0  0  0  0  0  0  0  0
  145.5357  134.2512  152.6078 H   0  0  0  0  0  0  0  0  0  0  0  0
  143.3170  133.6447  151.8304 H   0  0  0  0  0  0  0  0  0  0  0  0
  143.7161  134.0937  150.1667 H   0  0  0  0  0  0  0  0  0  0  0  0
  144.8841  131.7957  151.7690 H   0  0  0  0  0  0  0  0  0  0  0  0
  144.1564  131.7075  150.1597 H   0  0  0  0  0  0  0  0  0  0  0  0
  146.8758  131.9917  150.4731 H   0  0  0  0  0  0  0  0  0  0  0  0
  146.0359  132.8184  149.1592 H   0  0  0  0  0  0  0  0  0  0  0  0
  1  2  1  0  0  0  0
  1 19  1  0  0  0  0
  1 20  1  0  0  0  0
  1 21  1  0  0  0  0
  2  3  1  0  0  0  0
  3  8  1  0  0  0  0
  3  4  2  0  0  0  0
  4  5  1  0  0  0  0
  5  6  2  0  0  0  0
  5 22  1  0  0  0  0
  6  7  1  0  0  0  0
  6 23  1  0  0  0  0
  7  8  2  0  0  0  0
  7 24  1  0  0  0  0
  8  9  1  0  0  0  0
  9 10  1  0  0  0  0
  9 25  1  0  0  0  0
 10 11  2  0  0  0  0
 10 12  1  0  0  0  0
 12 13  1  0  0  0  0
 12 26  1  0  0  0  0
 13 14  1  0  0  0  0
 13 27  1  0  0  0  0
 13 28  1  0  0  0  0
 14 18  1  0  0  0  0
 14 15  1  0  0  0  0
 14 29  1  0  0  0  0
 15 16  1  0  0  0  0
 15 30  1  0  0  0  0
 15 31  1  0  0  0  0
 16 17  1  0  0  0  0
 16 32  1  0  0  0  0
 16 33  1  0  0  0  0
 17 18  1  0  0  0  0
 17 34  1  0  0  0  0
 17 35  1  0  0  0  0
M  END
> <s_m_source_file>
AV-unprocessed.smi

> <i_m_source_file_index>
1938

> <i_lp_mmshare_version>
43012

> <i_f3d_flags>
0

> <s_epik_input>
W0NIM11PYzFuW2NIXVtjSF1bY0hdYzFbTkhdQyg9TylbTkhdW0NIMl1bQ0BASF0yW0NIMl1bQ0gyXVtDSDJdTzI=

> <s_epik_cmdline>
J2VwaWtfcHl0aG9uJywgJy1waCcsICc3LjAnLCAnLXRuJywgJzgnLCAnLW1hJywgJzIwMCcsICctbWV0YWxfYmluZGluZycsICctaW1hZScsICc8aW5maWxlLm1hZT4nLCAnLW9tYWUnLCAnPG91dGZpbGUubWFlPic=

> <r_lp_tautomer_probability>
1

> <r_epik_Ionization_Penalty>
9.01657e-05

> <r_epik_Ionization_Penalty_Charging>
0

> <r_epik_Ionization_Penalty_Neutral>
9.01657e-05

> <r_epik_State_Penalty>
-0

> <r_epik_Charging_Adjusted_Penalty>
0

> <i_epik_Tot_Q>
0

> <i_epik_Tot_abs_Q>
0

> <r_epik_Metal_State_Penalty>
-0

> <b_epik_Metal_Only>
0

> <s_lp_Force_Field>
OPLS_2005

> <r_lp_Energy>
20.0509

> <b_lp_Chiralities_Consistent>
1

> <s_lp_Variant>
AV-unprocessed.smi:1938-2

> <Gold.Version>
5.8.1

> <Gold.Id.Protein>
6NUR|6NUR_protein|mol2

> <Gold.PLP.Fitness>
40.6909

> <Gold.PLP.PLP>
-29.5453

> <Gold.PLP.part.hbond>
-3.9402

> <Gold.PLP.part.metal>
0.0000

> <Gold.PLP.part.buried>
1.2842

> <Gold.PLP.part.nonpolar>
-31.0371

> <Gold.PLP.part.repulsive>
4.6244

> <Gold.PLP.ligand.clash>
0.0000

> <Gold.PLP.ligand.torsion>
0.2560

> <Gold.PLP.Chemscore.Hbond>
2.8800

> <Gold.PLP.Chemscore.CHOScore>
0.9996

> <Gold.PLP.Chemscore.Metal>
0.0000

> <Gold.Chemscore.Hbonds>
donor molecule, donor type, donor heavy atom, donor atom, acceptor molecule, acceptor atom, score
      L1  H     9    25       P1  7948  1.00
      L1  H    12    26       P1  7948  1.00
      P1  H  7989  7998       L1     4  0.87
      L1  C     5    22       P1  8028  0.99

> <Gold.PLP.Chemscore.Internal.Correction>
0.0188

> <Gold.Rescore>
     Score         DG    S(hbond)    S(metal)    S(lipo)     H(rot)  DE(clash)    DE(int)     intcor
     12.96     -16.15       1.97        0.00      67.60       1.50       1.88       1.32       ----

> <Gold.Chemscore.Fitness>
12.9573

> <Gold.Chemscore.DG>
-16.1517

> <Gold.Chemscore.ZeroCoef>
-5.4800

> <Gold.Chemscore.Hbond>
1.9747

> <Gold.Chemscore.Metal>
0.0000

> <Gold.Chemscore.Lipo>
67.5962

> <Gold.Chemscore.Internal_Hbond>
0.0000

> <Gold.Chemscore.DEClash>
1.8785

> <Gold.Chemscore.DEInternal>
1.3158

> <Gold.Chemscore.Rot>
1.4971

> <Gold.Chemscore.Internal.Correction>
   9.000000E+99

> <Gold.Chemscore.Hbonds>
donor molecule, donor type, donor heavy atom, donor atom, acceptor molecule, acceptor atom, score
      L1  H     9    25       P1  7948  0.97
      L1  H    12    26       P1  7948  0.94
      P1  H  7989  7998       L1     4  0.17

> <Gold.Chemscore.Hbond.Weighted>
-6.5955

> <Gold.Chemscore.Metal.Weighted>
-0.0000

> <Gold.Chemscore.Lipo.Weighted>
-7.9088

> <Gold.Chemscore.Internal_Hbond.Weighted>
0.0000

> <Gold.Chemscore.DEClash.Weighted>
1.8785

> <Gold.Chemscore.DEInternal.Weighted>
1.3158

> <Gold.Chemscore.Rot.Weighted>
3.8326

> <Gold.Chemscore.Internal.Correction.Weighted>
   9.000000E+99

> <Gold.Protein.RotatedTorsions>
[ 6907 6896 6895 6894 ] final -131.51 input  -60.11 | X-H torsion
[ 7974 7965 7964 7962 ] final   -2.59 input  175.53 | X-H torsion
[ 8008 7997 7996 7995 ] final -140.94 input   59.86 | X-H torsion
[ 10167 10162 10161 10158 ] final  -29.45 input  -65.29 | X-H torsion
[ 10718 10713 10712 10709 ] final -121.50 input   66.30 | X-H torsion
[ 10763 10752 10751 10750 ] final -125.37 input  -60.55 | X-H torsion
[ 11005 11000 10999 10996 ] final -162.87 input  -57.11 | X-H torsion

> <Gold.Protein.ActiveResidues>
 VAL166  LYS551  ARG553  GLY616  TRP617  ASP618  TYR619  PRO620  LYS621  CYS622 
 ASP623  PHE694  ASN695  SER759  ASP760  ASP761  ALA762  ILE779  LEU786  VAL792 
 PHE793  MET794  SER795  GLU796  ALA797  LYS798  CYS799  TRP800  GLU811  SER814 

> <Gold.Protein.RotatedAtoms>
  150.9518  133.6541  159.2770 H   0  0  0  0  0  0  0  0  0  0  0  0  # atno 6907 bound_to 6896
  151.3894  135.0952  159.9531 H   0  0  0  0  0  0  0  0  0  0  0  0  # atno 6908 bound_to 6896
  152.5113  133.9036  159.7508 H   0  0  0  0  0  0  0  0  0  0  0  0  # atno 6909 bound_to 6896
  146.2402  140.1594  142.8333 H   0  0  0  0  0  0  0  0  0  0  0  0  # atno 7974 bound_to 7965
  155.4696  140.0552  157.2981 H   0  0  0  0  0  0  0  0  0  0  0  0  # atno 8008 bound_to 7997
  154.4703  140.2037  155.9964 H   0  0  0  0  0  0  0  0  0  0  0  0  # atno 8009 bound_to 7997
  156.1045  140.3214  155.7992 H   0  0  0  0  0  0  0  0  0  0  0  0  # atno 8010 bound_to 7997
  140.7260  143.3927  151.1401 H   0  0  0  0  0  0  0  0  0  0  0  0  # atno 10167 bound_to 10162
  156.1342  130.6418  150.9670 H   0  0  0  0  0  0  0  0  0  0  0  0  # atno 10718 bound_to 10713
  154.8735  135.4032  154.3257 H   0  0  0  0  0  0  0  0  0  0  0  0  # atno 10763 bound_to 10752
  153.4079  135.7020  153.6385 H   0  0  0  0  0  0  0  0  0  0  0  0  # atno 10764 bound_to 10752
  153.5101  135.3709  155.2553 H   0  0  0  0  0  0  0  0  0  0  0  0  # atno 10765 bound_to 10752
  140.6044  134.4914  157.5209 H   0  0  0  0  0  0  0  0  0  0  0  0  # atno 11005 bound_to 11000
  145.0102  140.8707  143.5229 LP  0  0  0  0  0  0  0  0  0  0  0  0  # atno 17320 bound_to 7965
  145.1626  139.2450  143.5383 LP  0  0  0  0  0  0  0  0  0  0  0  0  # atno 17321 bound_to 7965
  139.7535  143.8743  152.3083 LP  0  0  0  0  0  0  0  0  0  0  0  0  # atno 17342 bound_to 10162
  139.8604  144.7120  150.9106 LP  0  0  0  0  0  0  0  0  0  0  0  0  # atno 17343 bound_to 10162
  157.6517  131.0896  150.8037 LP  0  0  0  0  0  0  0  0  0  0  0  0  # atno 17370 bound_to 10713
  156.8119  130.4955  149.5355 LP  0  0  0  0  0  0  0  0  0  0  0  0  # atno 17371 bound_to 10713
  139.9219  134.8133  156.1187 LP  0  0  0  0  0  0  0  0  0  0  0  0  # atno 17394 bound_to 11000
  141.0850  133.6738  156.2418 LP  0  0  0  0  0  0  0  0  0  0  0  0  # atno 17395 bound_to 11000

$$$$
