AV-unprocessed.smi:1045|AV-procd|sdf|4544|dock5
  -GOLD-   22720 2573D 1   1.00000     0.00000
 Structure written by MMmdl.
 42 43  0  0  0  0  0  0  0  0  1 V2000
  154.4378  132.8947  164.9100 C   0  0  0  0  0  0  0  0  0  0  0  0
  155.3345  133.0321  163.8219 O   0  0  0  0  0  0  0  0  0  0  0  0
  154.8058  133.8338  162.7783 C   0  0  0  0  0  0  0  0  0  0  0  0
  155.2288  135.2981  162.9934 C   0  0  2  0  0  0  0  0  0  0  0  0
  154.7896  135.8285  164.3658 C   0  0  0  0  0  0  0  0  0  0  0  0
  154.6609  136.1494  161.9516 N   0  0  0  0  0  0  0  0  0  0  0  0
  154.6201  137.4893  161.9786 C   0  0  0  0  0  0  0  0  0  0  0  0
  155.0825  138.1643  162.8978 O   0  0  0  0  0  0  0  0  0  0  0  0
  154.0326  137.9760  160.8721 N   0  0  0  0  0  0  0  0  0  0  0  0
  153.7663  139.3283  160.5245 C   0  0  0  0  0  0  0  0  0  0  0  0
  154.3552  140.4501  161.1532 C   0  0  0  0  0  0  0  0  0  0  0  0
  153.9890  141.7414  160.7273 C   0  0  0  0  0  0  0  0  0  0  0  0
  153.0363  141.8830  159.6909 C   0  0  0  0  0  0  0  0  0  0  0  0
  152.6464  143.1576  159.2334 N   0  0  0  0  0  0  0  0  0  0  0  0
  151.6006  143.3263  158.2363 C   0  0  0  0  0  0  0  0  0  0  0  0
  151.3954  144.8372  158.1437 C   0  0  0  0  0  0  0  0  0  0  0  0
  151.6860  145.3131  159.5668 C   0  0  0  0  0  0  0  0  0  0  0  0
  152.7561  144.3404  160.0762 C   0  0  0  0  0  0  0  0  0  0  0  0
  152.4711  140.8073  159.0934 N   0  0  0  0  0  0  0  0  0  0  0  0
  152.8245  139.5722  159.5053 C   0  0  0  0  0  0  0  0  0  0  0  0
  154.8921  132.2743  165.6823 H   0  0  0  0  0  0  0  0  0  0  0  0
  153.5084  132.4169  164.5978 H   0  0  0  0  0  0  0  0  0  0  0  0
  154.2027  133.8638  165.3518 H   0  0  0  0  0  0  0  0  0  0  0  0
  155.1819  133.4687  161.8212 H   0  0  0  0  0  0  0  0  0  0  0  0
  153.7175  133.7532  162.7527 H   0  0  0  0  0  0  0  0  0  0  0  0
  156.3176  135.3591  162.9423 H   0  0  0  0  0  0  0  0  0  0  0  0
  155.2294  135.2436  165.1741 H   0  0  0  0  0  0  0  0  0  0  0  0
  153.7057  135.7892  164.4794 H   0  0  0  0  0  0  0  0  0  0  0  0
  155.1028  136.8638  164.5051 H   0  0  0  0  0  0  0  0  0  0  0  0
  154.2634  135.6796  161.1514 H   0  0  0  0  0  0  0  0  0  0  0  0
  153.7766  137.2946  160.1728 H   0  0  0  0  0  0  0  0  0  0  0  0
  155.0674  140.3523  161.9573 H   0  0  0  0  0  0  0  0  0  0  0  0
  154.4441  142.6000  161.1981 H   0  0  0  0  0  0  0  0  0  0  0  0
  151.8864  142.8982  157.2749 H   0  0  0  0  0  0  0  0  0  0  0  0
  150.6889  142.8347  158.5781 H   0  0  0  0  0  0  0  0  0  0  0  0
  152.1239  145.2684  157.4554 H   0  0  0  0  0  0  0  0  0  0  0  0
  150.3988  145.1100  157.7959 H   0  0  0  0  0  0  0  0  0  0  0  0
  152.0057  146.3545  159.6106 H   0  0  0  0  0  0  0  0  0  0  0  0
  150.7847  145.2141  160.1732 H   0  0  0  0  0  0  0  0  0  0  0  0
  152.6020  144.1118  161.1314 H   0  0  0  0  0  0  0  0  0  0  0  0
  153.7532  144.7657  159.9585 H   0  0  0  0  0  0  0  0  0  0  0  0
  152.3386  138.7505  158.9997 H   0  0  0  0  0  0  0  0  0  0  0  0
  1  2  1  0  0  0  0
  1 21  1  0  0  0  0
  1 22  1  0  0  0  0
  1 23  1  0  0  0  0
  2  3  1  0  0  0  0
  3  4  1  0  0  0  0
  3 24  1  0  0  0  0
  3 25  1  0  0  0  0
  4  5  1  0  0  0  0
  4  6  1  0  0  0  0
  4 26  1  0  0  0  0
  5 27  1  0  0  0  0
  5 28  1  0  0  0  0
  5 29  1  0  0  0  0
  6  7  1  0  0  0  0
  6 30  1  0  0  0  0
  7  8  2  0  0  0  0
  7  9  1  0  0  0  0
  9 10  1  0  0  0  0
  9 31  1  0  0  0  0
 10 20  1  0  0  0  0
 10 11  2  0  0  0  0
 11 12  1  0  0  0  0
 11 32  1  0  0  0  0
 12 13  2  0  0  0  0
 12 33  1  0  0  0  0
 13 14  1  0  0  0  0
 13 19  1  0  0  0  0
 14 18  1  0  0  0  0
 14 15  1  0  0  0  0
 15 16  1  0  0  0  0
 15 34  1  0  0  0  0
 15 35  1  0  0  0  0
 16 17  1  0  0  0  0
 16 36  1  0  0  0  0
 16 37  1  0  0  0  0
 17 18  1  0  0  0  0
 17 38  1  0  0  0  0
 17 39  1  0  0  0  0
 18 40  1  0  0  0  0
 18 41  1  0  0  0  0
 19 20  2  0  0  0  0
 20 42  1  0  0  0  0
M  END
> <s_m_source_file>
AV-unprocessed.smi

> <i_m_source_file_index>
1045

> <i_lp_mmshare_version>
43012

> <i_f3d_flags>
0

> <s_epik_input>
W0NIM11PW0NIMl1bQ0BIXShbQ0gzXSlbTkhdQyg9TylbTkhdYzFbY0hdW2NIXWMobltjSF0xKU4yW0NIMl1bQ0gyXVtDSDJdW0NIMl0y

> <s_epik_cmdline>
J2VwaWtfcHl0aG9uJywgJy1waCcsICc3LjAnLCAnLXRuJywgJzgnLCAnLW1hJywgJzIwMCcsICctbWV0YWxfYmluZGluZycsICctaW1hZScsICc8aW5maWxlLm1hZT4nLCAnLW9tYWUnLCAnPG91dGZpbGUubWFlPic=

> <r_lp_tautomer_probability>
1

> <r_epik_Ionization_Penalty>
0.10064

> <r_epik_Ionization_Penalty_Charging>
0

> <r_epik_Ionization_Penalty_Neutral>
0.10064

> <r_epik_State_Penalty>
0.0900987

> <r_epik_Charging_Adjusted_Penalty>
0.0900987

> <i_epik_Tot_Q>
0

> <i_epik_Tot_abs_Q>
0

> <r_epik_Metal_State_Penalty>
0.076945

> <b_epik_Metal_Only>
0

> <s_lp_Force_Field>
OPLS_2005

> <r_lp_Energy>
28.0744

> <b_lp_Chiralities_Consistent>
1

> <s_lp_Variant>
AV-unprocessed.smi:1045-1

> <Gold.Version>
5.8.1

> <Gold.Id.Protein>
6NUR|6NUR_protein|mol2

> <Gold.PLP.Fitness>
42.8365

> <Gold.PLP.PLP>
-43.8072

> <Gold.PLP.part.hbond>
0.0000

> <Gold.PLP.part.metal>
0.0000

> <Gold.PLP.part.buried>
-6.0842

> <Gold.PLP.part.nonpolar>
-37.2032

> <Gold.PLP.part.repulsive>
0.0715

> <Gold.PLP.ligand.clash>
0.0000

> <Gold.PLP.ligand.torsion>
0.5894

> <Gold.PLP.Chemscore.Hbond>
0.0000

> <Gold.PLP.Chemscore.CHOScore>
0.0000

> <Gold.PLP.Chemscore.Metal>
0.0000

> <Gold.PLP.Chemscore.Internal.Correction>
0.2080

> <Gold.Rescore>
     Score         DG    S(hbond)    S(metal)    S(lipo)     H(rot)  DE(clash)    DE(int)     intcor
     11.84     -14.84       0.00        0.00     110.84       1.41       0.09       2.91       ----

> <Gold.Chemscore.Fitness>
11.8433

> <Gold.Chemscore.DG>
-14.8418

> <Gold.Chemscore.ZeroCoef>
-5.4800

> <Gold.Chemscore.Hbond>
0.0000

> <Gold.Chemscore.Metal>
0.0000

> <Gold.Chemscore.Lipo>
110.8364

> <Gold.Chemscore.Internal_Hbond>
0.0000

> <Gold.Chemscore.DEClash>
0.0921

> <Gold.Chemscore.DEInternal>
2.9064

> <Gold.Chemscore.Rot>
1.4086

> <Gold.Chemscore.Internal.Correction>
   9.000000E+99

> <Gold.Chemscore.Hbond.Weighted>
-0.0000

> <Gold.Chemscore.Metal.Weighted>
-0.0000

> <Gold.Chemscore.Lipo.Weighted>
-12.9679

> <Gold.Chemscore.Internal_Hbond.Weighted>
0.0000

> <Gold.Chemscore.DEClash.Weighted>
0.0921

> <Gold.Chemscore.DEInternal.Weighted>
2.9064

> <Gold.Chemscore.Rot.Weighted>
3.6060

> <Gold.Chemscore.Internal.Correction.Weighted>
   9.000000E+99

> <Gold.Protein.RotatedTorsions>
[ 6907 6896 6895 6894 ] final -170.63 input  -60.11 | X-H torsion
[ 7974 7965 7964 7962 ] final  -46.29 input  175.53 | X-H torsion
[ 8008 7997 7996 7995 ] final   33.31 input   59.86 | X-H torsion
[ 10167 10162 10161 10158 ] final -158.96 input  -65.29 | X-H torsion
[ 10718 10713 10712 10709 ] final   71.53 input   66.30 | X-H torsion
[ 10763 10752 10751 10750 ] final -115.94 input  -60.55 | X-H torsion
[ 11005 11000 10999 10996 ] final  -85.03 input  -57.11 | X-H torsion

> <Gold.Protein.ActiveResidues>
 VAL166  LYS551  ARG553  GLY616  TRP617  ASP618  TYR619  PRO620  LYS621  CYS622 
 ASP623  PHE694  ASN695  SER759  ASP760  ASP761  ALA762  ILE779  LEU786  VAL792 
 PHE793  MET794  SER795  GLU796  ALA797  LYS798  CYS799  TRP800  GLU811  SER814 

> <Gold.Protein.RotatedAtoms>
  151.5107  133.3485  159.2884 H   0  0  0  0  0  0  0  0  0  0  0  0  # atno 6907 bound_to 6896
  150.8714  134.8090  159.7168 H   0  0  0  0  0  0  0  0  0  0  0  0  # atno 6908 bound_to 6896
  152.4701  134.4992  159.9771 H   0  0  0  0  0  0  0  0  0  0  0  0  # atno 6909 bound_to 6896
  145.9734  140.7359  142.9399 H   0  0  0  0  0  0  0  0  0  0  0  0  # atno 7974 bound_to 7965
  155.1365  140.3262  155.4462 H   0  0  0  0  0  0  0  0  0  0  0  0  # atno 8008 bound_to 7997
  156.2618  140.2001  156.6432 H   0  0  0  0  0  0  0  0  0  0  0  0  # atno 8009 bound_to 7997
  154.6574  140.0551  157.0010 H   0  0  0  0  0  0  0  0  0  0  0  0  # atno 8010 bound_to 7997
  139.6652  143.9842  152.2250 H   0  0  0  0  0  0  0  0  0  0  0  0  # atno 10167 bound_to 10162
  157.6456  130.9533  150.0802 H   0  0  0  0  0  0  0  0  0  0  0  0  # atno 10718 bound_to 10713
  154.8500  135.4363  154.1742 H   0  0  0  0  0  0  0  0  0  0  0  0  # atno 10763 bound_to 10752
  153.2848  135.6956  153.7356 H   0  0  0  0  0  0  0  0  0  0  0  0  # atno 10764 bound_to 10752
  153.6545  135.3445  155.3084 H   0  0  0  0  0  0  0  0  0  0  0  0  # atno 10765 bound_to 10752
  141.1645  133.7377  156.8955 H   0  0  0  0  0  0  0  0  0  0  0  0  # atno 11005 bound_to 11000
  144.6842  140.2787  143.7295 LP  0  0  0  0  0  0  0  0  0  0  0  0  # atno 17320 bound_to 7965
  145.7873  139.1914  143.2123 LP  0  0  0  0  0  0  0  0  0  0  0  0  # atno 17321 bound_to 7965
  139.9592  144.6569  150.8096 LP  0  0  0  0  0  0  0  0  0  0  0  0  # atno 17342 bound_to 10162
  140.7596  143.3133  151.2793 LP  0  0  0  0  0  0  0  0  0  0  0  0  # atno 17343 bound_to 10162
  156.1780  130.3649  149.9073 LP  0  0  0  0  0  0  0  0  0  0  0  0  # atno 17370 bound_to 10713
  156.7033  130.8941  151.3601 LP  0  0  0  0  0  0  0  0  0  0  0  0  # atno 17371 bound_to 10713
  140.1619  134.9160  157.2725 LP  0  0  0  0  0  0  0  0  0  0  0  0  # atno 17394 bound_to 11000
  140.2602  134.3580  155.7409 LP  0  0  0  0  0  0  0  0  0  0  0  0  # atno 17395 bound_to 11000

$$$$
