AV-unprocessed.smi:2152|AV-procd|sdf|8764|dock7
  -GOLD-   2272011543D 1   1.00000     0.00000
 Structure written by MMmdl.
 41 42  0  0  0  0  0  0  0  0  1 V2000
  153.8243  140.6873  160.0861 C   0  0  0  0  0  0  0  0  0  0  0  0
  153.3314  142.1418  160.1777 C   0  0  2  0  0  0  0  0  0  0  0  0
  152.5803  142.4030  161.4998 C   0  0  0  0  0  0  0  0  0  0  0  0
  152.1439  143.8720  161.6214 C   0  0  0  0  0  0  0  0  0  0  0  0
  151.2939  144.3046  160.4177 C   0  0  0  0  0  0  0  0  0  0  0  0
  152.0334  144.0484  159.0927 C   0  0  0  0  0  0  0  0  0  0  0  0
  152.4885  142.5817  158.9521 C   0  0  2  0  0  0  0  0  0  0  0  0
  151.3215  141.7202  158.7503 N   0  0  0  0  0  0  0  0  0  0  0  0
  151.0925  140.9305  157.6899 C   0  0  0  0  0  0  0  0  0  0  0  0
  151.8765  140.8157  156.7468 O   0  0  0  0  0  0  0  0  0  0  0  0
  149.7828  140.1313  157.7247 C   0  0  0  0  0  0  0  0  0  0  0  0
  148.7613  140.6547  156.8088 N   0  0  0  0  0  0  0  0  0  0  0  0
  149.0450  140.7716  155.4603 C   0  0  0  0  0  0  0  0  0  0  0  0
  148.1691  141.2586  154.5542 C   0  0  0  0  0  0  0  0  0  0  0  0
  146.8390  141.6977  154.9586 C   0  0  0  0  0  0  0  0  0  0  0  0
  146.0172  142.1608  154.1670 O   0  0  0  0  0  0  0  0  0  0  0  0
  146.5708  141.5565  156.3418 N   0  0  0  0  0  0  0  0  0  0  0  0
  145.2827  141.9767  156.8530 C   0  0  0  0  0  0  0  0  0  0  0  0
  147.4957  141.0580  157.2859 C   0  0  0  0  0  0  0  0  0  0  0  0
  147.2210  140.9789  158.4861 O   0  0  0  0  0  0  0  0  0  0  0  0
  152.9995  139.9763  160.1381 H   0  0  0  0  0  0  0  0  0  0  0  0
  154.5083  140.4555  160.9027 H   0  0  0  0  0  0  0  0  0  0  0  0
  154.3574  140.5125  159.1512 H   0  0  0  0  0  0  0  0  0  0  0  0
  154.2239  142.7695  160.1880 H   0  0  0  0  0  0  0  0  0  0  0  0
  151.7055  141.7549  161.5662 H   0  0  0  0  0  0  0  0  0  0  0  0
  153.2170  142.1441  162.3466 H   0  0  0  0  0  0  0  0  0  0  0  0
  151.5819  144.0173  162.5445 H   0  0  0  0  0  0  0  0  0  0  0  0
  153.0257  144.5101  161.6930 H   0  0  0  0  0  0  0  0  0  0  0  0
  150.3473  143.7630  160.4246 H   0  0  0  0  0  0  0  0  0  0  0  0
  151.0422  145.3621  160.5031 H   0  0  0  0  0  0  0  0  0  0  0  0
  151.3998  144.3292  158.2504 H   0  0  0  0  0  0  0  0  0  0  0  0
  152.9071  144.6994  159.0424 H   0  0  0  0  0  0  0  0  0  0  0  0
  153.1263  142.5300  158.0677 H   0  0  0  0  0  0  0  0  0  0  0  0
  150.6220  141.7384  159.4780 H   0  0  0  0  0  0  0  0  0  0  0  0
  150.0116  139.0947  157.4735 H   0  0  0  0  0  0  0  0  0  0  0  0
  149.3932  140.1077  158.7442 H   0  0  0  0  0  0  0  0  0  0  0  0
  150.0199  140.4642  155.1104 H   0  0  0  0  0  0  0  0  0  0  0  0
  148.4579  141.3271  153.5155 H   0  0  0  0  0  0  0  0  0  0  0  0
  144.9053  141.1871  157.5055 H   0  0  0  0  0  0  0  0  0  0  0  0
  144.5703  142.1277  156.0422 H   0  0  0  0  0  0  0  0  0  0  0  0
  145.4470  142.9045  157.4033 H   0  0  0  0  0  0  0  0  0  0  0  0
  1  2  1  0  0  0  0
  1 21  1  0  0  0  0
  1 22  1  0  0  0  0
  1 23  1  0  0  0  0
  2  7  1  0  0  0  0
  2  3  1  0  0  0  0
  2 24  1  0  0  0  0
  3  4  1  0  0  0  0
  3 25  1  0  0  0  0
  3 26  1  0  0  0  0
  4  5  1  0  0  0  0
  4 27  1  0  0  0  0
  4 28  1  0  0  0  0
  5  6  1  0  0  0  0
  5 29  1  0  0  0  0
  5 30  1  0  0  0  0
  6  7  1  0  0  0  0
  6 31  1  0  0  0  0
  6 32  1  0  0  0  0
  7  8  1  0  0  0  0
  7 33  1  0  0  0  0
  8  9  1  0  0  0  0
  8 34  1  0  0  0  0
  9 10  2  0  0  0  0
  9 11  1  0  0  0  0
 11 12  1  0  0  0  0
 11 35  1  0  0  0  0
 11 36  1  0  0  0  0
 12 19  1  0  0  0  0
 12 13  1  0  0  0  0
 13 14  2  0  0  0  0
 13 37  1  0  0  0  0
 14 15  1  0  0  0  0
 14 38  1  0  0  0  0
 15 16  2  0  0  0  0
 15 17  1  0  0  0  0
 17 18  1  0  0  0  0
 17 19  1  0  0  0  0
 18 39  1  0  0  0  0
 18 40  1  0  0  0  0
 18 41  1  0  0  0  0
 19 20  2  0  0  0  0
M  END
> <s_m_source_file>
AV-unprocessed.smi

> <i_m_source_file_index>
2152

> <i_lp_mmshare_version>
43012

> <i_f3d_flags>
0

> <s_epik_input>
W0NIM11bQ0BASF0xW0NIMl1bQ0gyXVtDSDJdW0NIMl1bQ0BIXTFbTkhdQyg9TylbQ0gyXW4yW2NIXVtjSF1jKD1PKW4oW0NIM10pYzI9Tw==

> <s_epik_cmdline>
J2VwaWtfcHl0aG9uJywgJy1waCcsICc3LjAnLCAnLXRuJywgJzgnLCAnLW1hJywgJzIwMCcsICctbWV0YWxfYmluZGluZycsICctaW1hZScsICc8aW5maWxlLm1hZT4nLCAnLW9tYWUnLCAnPG91dGZpbGUubWFlPic=

> <r_lp_tautomer_probability>
1

> <r_epik_Ionization_Penalty>
3.20555e-08

> <r_epik_Ionization_Penalty_Charging>
1.30086e-08

> <r_epik_Ionization_Penalty_Neutral>
1.90469e-08

> <r_epik_State_Penalty>
-0

> <r_epik_Charging_Adjusted_Penalty>
1.30086e-08

> <i_epik_Tot_Q>
0

> <i_epik_Tot_abs_Q>
0

> <r_epik_Metal_State_Penalty>
-0

> <b_epik_Metal_Only>
0

> <s_lp_Force_Field>
OPLS_2005

> <r_lp_Energy>
17.3754

> <b_lp_Chiralities_Consistent>
1

> <s_lp_Variant>
AV-unprocessed.smi:2152-3

> <Gold.Version>
5.8.1

> <Gold.Id.Protein>
6NUR|6NUR_protein|mol2

> <Gold.PLP.Fitness>
42.4394

> <Gold.PLP.PLP>
-42.3118

> <Gold.PLP.part.hbond>
-1.0000

> <Gold.PLP.part.metal>
0.0000

> <Gold.PLP.part.buried>
-6.4886

> <Gold.PLP.part.nonpolar>
-35.7570

> <Gold.PLP.part.repulsive>
0.3723

> <Gold.PLP.ligand.clash>
0.0000

> <Gold.PLP.ligand.torsion>
0.1946

> <Gold.PLP.Chemscore.Hbond>
0.1693

> <Gold.PLP.Chemscore.CHOScore>
0.0000

> <Gold.PLP.Chemscore.Metal>
0.0000

> <Gold.Chemscore.Hbonds>
donor molecule, donor type, donor heavy atom, donor atom, acceptor molecule, acceptor atom, score
      P1  H  6934  6946       L1    20  0.09

> <Gold.PLP.Chemscore.Internal.Correction>
0.0090

> <Gold.Rescore>
     Score         DG    S(hbond)    S(metal)    S(lipo)     H(rot)  DE(clash)    DE(int)     intcor
     14.40     -14.52       0.66        0.00      91.69       1.52       0.00       0.11       ----

> <Gold.Chemscore.Fitness>
14.4038

> <Gold.Chemscore.DG>
-14.5159

> <Gold.Chemscore.ZeroCoef>
-5.4800

> <Gold.Chemscore.Hbond>
0.6616

> <Gold.Chemscore.Metal>
0.0000

> <Gold.Chemscore.Lipo>
91.6929

> <Gold.Chemscore.Internal_Hbond>
0.0000

> <Gold.Chemscore.DEClash>
0.0029

> <Gold.Chemscore.DEInternal>
0.1093

> <Gold.Chemscore.Rot>
1.5242

> <Gold.Chemscore.Internal.Correction>
   9.000000E+99

> <Gold.Chemscore.Hbonds>
donor molecule, donor type, donor heavy atom, donor atom, acceptor molecule, acceptor atom, score
      P1  H  6934  6946       L1    20  0.09

> <Gold.Chemscore.Hbond.Weighted>
-2.2097

> <Gold.Chemscore.Metal.Weighted>
-0.0000

> <Gold.Chemscore.Lipo.Weighted>
-10.7281

> <Gold.Chemscore.Internal_Hbond.Weighted>
0.0000

> <Gold.Chemscore.DEClash.Weighted>
0.0029

> <Gold.Chemscore.DEInternal.Weighted>
0.1093

> <Gold.Chemscore.Rot.Weighted>
3.9019

> <Gold.Chemscore.Internal.Correction.Weighted>
   9.000000E+99

> <Gold.Protein.RotatedTorsions>
[ 6907 6896 6895 6894 ] final -155.19 input  -60.11 | X-H torsion
[ 7974 7965 7964 7962 ] final  100.94 input  175.53 | X-H torsion
[ 8008 7997 7996 7995 ] final   19.17 input   59.86 | X-H torsion
[ 10167 10162 10161 10158 ] final -149.67 input  -65.29 | X-H torsion
[ 10718 10713 10712 10709 ] final  -67.97 input   66.30 | X-H torsion
[ 10763 10752 10751 10750 ] final    7.65 input  -60.55 | X-H torsion
[ 11005 11000 10999 10996 ] final  -29.67 input  -57.11 | X-H torsion

> <Gold.Protein.ActiveResidues>
 VAL166  LYS551  ARG553  GLY616  TRP617  ASP618  TYR619  PRO620  LYS621  CYS622 
 ASP623  PHE694  ASN695  SER759  ASP760  ASP761  ALA762  ILE779  LEU786  VAL792 
 PHE793  MET794  SER795  GLU796  ALA797  LYS798  CYS799  TRP800  GLU811  SER814 

> <Gold.Protein.RotatedAtoms>
  151.2688  133.4265  159.2619 H   0  0  0  0  0  0  0  0  0  0  0  0  # atno 6907 bound_to 6896
  151.0464  134.9643  159.8199 H   0  0  0  0  0  0  0  0  0  0  0  0  # atno 6908 bound_to 6896
  152.5375  134.2644  159.9000 H   0  0  0  0  0  0  0  0  0  0  0  0  # atno 6909 bound_to 6896
  145.3789  139.2383  143.3414 H   0  0  0  0  0  0  0  0  0  0  0  0  # atno 7974 bound_to 7965
  154.9167  140.3021  155.5237 H   0  0  0  0  0  0  0  0  0  0  0  0  # atno 8008 bound_to 7997
  156.3012  140.2379  156.4149 H   0  0  0  0  0  0  0  0  0  0  0  0  # atno 8009 bound_to 7997
  154.8371  140.0415  157.1505 H   0  0  0  0  0  0  0  0  0  0  0  0  # atno 8010 bound_to 7997
  139.7422  143.8645  152.2565 H   0  0  0  0  0  0  0  0  0  0  0  0  # atno 10167 bound_to 10162
  156.0529  130.4287  150.1933 H   0  0  0  0  0  0  0  0  0  0  0  0  # atno 10718 bound_to 10713
  153.2339  135.6896  153.7859 H   0  0  0  0  0  0  0  0  0  0  0  0  # atno 10763 bound_to 10752
  153.7013  135.3297  155.3226 H   0  0  0  0  0  0  0  0  0  0  0  0  # atno 10764 bound_to 10752
  154.8326  135.4568  154.1235 H   0  0  0  0  0  0  0  0  0  0  0  0  # atno 10765 bound_to 10752
  140.9316  133.7334  156.0945 H   0  0  0  0  0  0  0  0  0  0  0  0  # atno 11005 bound_to 11000
  146.2851  140.4453  142.8761 LP  0  0  0  0  0  0  0  0  0  0  0  0  # atno 17320 bound_to 7965
  144.8522  140.7018  143.6161 LP  0  0  0  0  0  0  0  0  0  0  0  0  # atno 17321 bound_to 7965
  139.8599  144.7122  150.9112 LP  0  0  0  0  0  0  0  0  0  0  0  0  # atno 17342 bound_to 10162
  140.7787  143.3827  151.1449 LP  0  0  0  0  0  0  0  0  0  0  0  0  # atno 17343 bound_to 10162
  157.0013  130.9923  151.3390 LP  0  0  0  0  0  0  0  0  0  0  0  0  # atno 17370 bound_to 10713
  157.5473  130.8159  149.8101 LP  0  0  0  0  0  0  0  0  0  0  0  0  # atno 17371 bound_to 10713
  140.7854  134.3678  157.5477 LP  0  0  0  0  0  0  0  0  0  0  0  0  # atno 17394 bound_to 11000
  139.8798  134.9108  156.3021 LP  0  0  0  0  0  0  0  0  0  0  0  0  # atno 17395 bound_to 11000

$$$$
