AV-unprocessed.smi:400|AV-procd|sdf|2492|dock8
  -GOLD-   2262022433D 1   1.00000     0.00000
 Structure written by MMmdl.
 40 41  0  0  0  0  0  0  0  0  1 V2000
  156.1487  139.9539  166.4195 C   0  0  0  0  0  0  0  0  0  0  0  0
  155.5450  141.0331  167.3320 C   0  0  0  0  0  0  0  0  0  0  0  0
  155.9030  142.4803  166.9266 C   0  0  2  0  0  0  0  0  0  0  0  0
  155.7296  143.4424  168.1146 C   0  0  0  0  0  0  0  0  0  0  0  0
  155.0696  142.9640  165.7293 C   0  0  0  0  0  0  0  0  0  0  0  0
  154.5052  144.0574  165.7829 O   0  0  0  0  0  0  0  0  0  0  0  0
  155.0140  142.1267  164.6760 N   0  0  0  0  0  0  0  0  0  0  0  0
  154.3235  142.3012  163.4475 C   0  0  0  0  0  0  0  0  0  0  0  0
  153.2408  143.2046  163.4915 C   0  0  0  0  0  0  0  0  0  0  0  0
  152.4928  143.4497  162.3241 C   0  0  0  0  0  0  0  0  0  0  0  0
  152.8395  142.7891  161.1214 C   0  0  0  0  0  0  0  0  0  0  0  0
  152.1368  142.9836  159.9122 N   0  0  0  0  0  0  0  0  0  0  0  0
  152.0272  144.3408  159.3851 C   0  0  0  0  0  0  0  0  0  0  0  0
  150.9825  144.3950  158.2570 C   0  0  0  0  0  0  0  0  0  0  0  0
  151.3094  143.4390  157.2541 O   0  0  0  0  0  0  0  0  0  0  0  0
  151.2981  142.1107  157.7666 C   0  0  0  0  0  0  0  0  0  0  0  0
  152.3509  141.9717  158.8802 C   0  0  0  0  0  0  0  0  0  0  0  0
  153.9367  141.8992  161.1823 C   0  0  0  0  0  0  0  0  0  0  0  0
  154.6539  141.6621  162.3003 N   0  0  0  0  0  0  0  0  0  0  0  0
  155.9109  138.9575  166.7923 H   0  0  0  0  0  0  0  0  0  0  0  0
  157.2346  140.0398  166.3742 H   0  0  0  0  0  0  0  0  0  0  0  0
  155.7628  140.0223  165.4022 H   0  0  0  0  0  0  0  0  0  0  0  0
  154.4614  140.9104  167.3669 H   0  0  0  0  0  0  0  0  0  0  0  0
  155.8957  140.8544  168.3491 H   0  0  0  0  0  0  0  0  0  0  0  0
  156.9571  142.4995  166.6438 H   0  0  0  0  0  0  0  0  0  0  0  0
  155.9632  144.4697  167.8322 H   0  0  0  0  0  0  0  0  0  0  0  0
  156.3945  143.1719  168.9353 H   0  0  0  0  0  0  0  0  0  0  0  0
  154.7088  143.4262  168.4989 H   0  0  0  0  0  0  0  0  0  0  0  0
  155.5248  141.2610  164.7684 H   0  0  0  0  0  0  0  0  0  0  0  0
  152.9818  143.7109  164.4100 H   0  0  0  0  0  0  0  0  0  0  0  0
  151.6721  144.1493  162.3733 H   0  0  0  0  0  0  0  0  0  0  0  0
  151.7359  145.0314  160.1774 H   0  0  0  0  0  0  0  0  0  0  0  0
  152.9987  144.6624  159.0072 H   0  0  0  0  0  0  0  0  0  0  0  0
  149.9808  144.2032  158.6450 H   0  0  0  0  0  0  0  0  0  0  0  0
  150.9651  145.3885  157.8090 H   0  0  0  0  0  0  0  0  0  0  0  0
  150.3032  141.8615  158.1394 H   0  0  0  0  0  0  0  0  0  0  0  0
  151.5163  141.4158  156.9556 H   0  0  0  0  0  0  0  0  0  0  0  0
  153.3510  142.1004  158.4644 H   0  0  0  0  0  0  0  0  0  0  0  0
  152.3048  140.9622  159.2861 H   0  0  0  0  0  0  0  0  0  0  0  0
  154.2484  141.3380  160.3141 H   0  0  0  0  0  0  0  0  0  0  0  0
  1  2  1  0  0  0  0
  1 20  1  0  0  0  0
  1 21  1  0  0  0  0
  1 22  1  0  0  0  0
  2  3  1  0  0  0  0
  2 23  1  0  0  0  0
  2 24  1  0  0  0  0
  3  4  1  0  0  0  0
  3  5  1  0  0  0  0
  3 25  1  0  0  0  0
  4 26  1  0  0  0  0
  4 27  1  0  0  0  0
  4 28  1  0  0  0  0
  5  6  2  0  0  0  0
  5  7  1  0  0  0  0
  7  8  1  0  0  0  0
  7 29  1  0  0  0  0
  8 19  1  0  0  0  0
  8  9  2  0  0  0  0
  9 10  1  0  0  0  0
  9 30  1  0  0  0  0
 10 11  2  0  0  0  0
 10 31  1  0  0  0  0
 11 12  1  0  0  0  0
 11 18  1  0  0  0  0
 12 17  1  0  0  0  0
 12 13  1  0  0  0  0
 13 14  1  0  0  0  0
 13 32  1  0  0  0  0
 13 33  1  0  0  0  0
 14 15  1  0  0  0  0
 14 34  1  0  0  0  0
 14 35  1  0  0  0  0
 15 16  1  0  0  0  0
 16 17  1  0  0  0  0
 16 36  1  0  0  0  0
 16 37  1  0  0  0  0
 17 38  1  0  0  0  0
 17 39  1  0  0  0  0
 18 19  2  0  0  0  0
 18 40  1  0  0  0  0
M  END
> <s_m_source_file>
AV-unprocessed.smi

> <i_m_source_file_index>
400

> <i_lp_mmshare_version>
43012

> <i_f3d_flags>
0

> <s_epik_input>
W0NIM11bQ0gyXVtDQEhdKFtDSDNdKUMoPU8pW05IXWMxW2NIXVtjSF1jKFtjSF1uMSlOMltDSDJdW0NIMl1PW0NIMl1bQ0gyXTI=

> <s_epik_cmdline>
J2VwaWtfcHl0aG9uJywgJy1waCcsICc3LjAnLCAnLXRuJywgJzgnLCAnLW1hJywgJzIwMCcsICctbWV0YWxfYmluZGluZycsICctaW1hZScsICc8aW5maWxlLm1hZT4nLCAnLW9tYWUnLCAnPG91dGZpbGUubWFlPic=

> <r_lp_tautomer_probability>
1

> <r_epik_Ionization_Penalty>
0.00393323

> <r_epik_Ionization_Penalty_Charging>
0

> <r_epik_Ionization_Penalty_Neutral>
0.00393323

> <r_epik_State_Penalty>
0.00357844

> <r_epik_Charging_Adjusted_Penalty>
0.00357844

> <i_epik_Tot_Q>
0

> <i_epik_Tot_abs_Q>
0

> <r_epik_Metal_State_Penalty>
-0

> <b_epik_Metal_Only>
0

> <s_lp_Force_Field>
OPLS_2005

> <r_lp_Energy>
25.3319

> <b_lp_Chiralities_Consistent>
1

> <s_lp_Variant>
AV-unprocessed.smi:400-1

> <Gold.Version>
5.8.1

> <Gold.Id.Protein>
6NUR|6NUR_protein|mol2

> <Gold.PLP.Fitness>
43.7669

> <Gold.PLP.PLP>
-44.7399

> <Gold.PLP.part.hbond>
-1.2844

> <Gold.PLP.part.metal>
0.0000

> <Gold.PLP.part.buried>
-6.0503

> <Gold.PLP.part.nonpolar>
-37.2242

> <Gold.PLP.part.repulsive>
0.2468

> <Gold.PLP.ligand.clash>
0.0000

> <Gold.PLP.ligand.torsion>
0.6879

> <Gold.PLP.Chemscore.Hbond>
0.0000

> <Gold.PLP.Chemscore.CHOScore>
0.0000

> <Gold.PLP.Chemscore.Metal>
0.0000

> <Gold.PLP.Chemscore.Internal.Correction>
0.4029

> <Gold.Rescore>
     Score         DG    S(hbond)    S(metal)    S(lipo)     H(rot)  DE(clash)    DE(int)     intcor
     11.94     -15.13       0.00        0.00     110.98       1.30       1.20       1.98       ----

> <Gold.Chemscore.Fitness>
11.9436

> <Gold.Chemscore.DG>
-15.1261

> <Gold.Chemscore.ZeroCoef>
-5.4800

> <Gold.Chemscore.Hbond>
0.0000

> <Gold.Chemscore.Metal>
0.0000

> <Gold.Chemscore.Lipo>
110.9797

> <Gold.Chemscore.Internal_Hbond>
0.0000

> <Gold.Chemscore.DEClash>
1.1998

> <Gold.Chemscore.DEInternal>
1.9827

> <Gold.Chemscore.Rot>
1.3041

> <Gold.Chemscore.Internal.Correction>
   9.000000E+99

> <Gold.Chemscore.Hbond.Weighted>
-0.0000

> <Gold.Chemscore.Metal.Weighted>
-0.0000

> <Gold.Chemscore.Lipo.Weighted>
-12.9846

> <Gold.Chemscore.Internal_Hbond.Weighted>
0.0000

> <Gold.Chemscore.DEClash.Weighted>
1.1998

> <Gold.Chemscore.DEInternal.Weighted>
1.9827

> <Gold.Chemscore.Rot.Weighted>
3.3385

> <Gold.Chemscore.Internal.Correction.Weighted>
   9.000000E+99

> <Gold.Protein.RotatedTorsions>
[ 6907 6896 6895 6894 ] final  137.75 input  -60.11 | X-H torsion
[ 7974 7965 7964 7962 ] final  156.52 input  175.53 | X-H torsion
[ 8008 7997 7996 7995 ] final  -99.82 input   59.86 | X-H torsion
[ 10167 10162 10161 10158 ] final  105.91 input  -65.29 | X-H torsion
[ 10718 10713 10712 10709 ] final  154.81 input   66.30 | X-H torsion
[ 10763 10752 10751 10750 ] final  116.00 input  -60.55 | X-H torsion
[ 11005 11000 10999 10996 ] final  -14.81 input  -57.11 | X-H torsion

> <Gold.Protein.ActiveResidues>
 VAL166  LYS551  ARG553  GLY616  TRP617  ASP618  TYR619  PRO620  LYS621  CYS622 
 ASP623  PHE694  ASN695  SER759  ASP760  ASP761  ALA762  ILE779  LEU786  VAL792 
 PHE793  MET794  SER795  GLU796  ALA797  LYS798  CYS799  TRP800  GLU811  SER814 

> <Gold.Protein.RotatedAtoms>
  152.2745  133.5413  159.5459 H   0  0  0  0  0  0  0  0  0  0  0  0  # atno 6907 bound_to 6896
  150.7172  134.0650  159.3853 H   0  0  0  0  0  0  0  0  0  0  0  0  # atno 6908 bound_to 6896
  151.8564  135.0540  160.0515 H   0  0  0  0  0  0  0  0  0  0  0  0  # atno 6909 bound_to 6896
  144.7958  139.7215  143.6202 H   0  0  0  0  0  0  0  0  0  0  0  0  # atno 7974 bound_to 7965
  154.8201  140.0445  157.1404 H   0  0  0  0  0  0  0  0  0  0  0  0  # atno 8008 bound_to 7997
  154.9270  140.3034  155.5167 H   0  0  0  0  0  0  0  0  0  0  0  0  # atno 8009 bound_to 7997
  156.2979  140.2330  156.4325 H   0  0  0  0  0  0  0  0  0  0  0  0  # atno 8010 bound_to 7997
  139.7053  144.7087  151.1117 H   0  0  0  0  0  0  0  0  0  0  0  0  # atno 10167 bound_to 10162
  157.2267  131.0730  151.1879 H   0  0  0  0  0  0  0  0  0  0  0  0  # atno 10718 bound_to 10713
  153.5307  135.3579  155.2674 H   0  0  0  0  0  0  0  0  0  0  0  0  # atno 10763 bound_to 10752
  154.8727  135.4067  154.3155 H   0  0  0  0  0  0  0  0  0  0  0  0  # atno 10764 bound_to 10752
  153.3843  135.7069  153.6609 H   0  0  0  0  0  0  0  0  0  0  0  0  # atno 10765 bound_to 10752
  140.7903  133.8293  155.9373 H   0  0  0  0  0  0  0  0  0  0  0  0  # atno 11005 bound_to 11000
  146.2225  139.5662  142.9609 LP  0  0  0  0  0  0  0  0  0  0  0  0  # atno 17320 bound_to 7965
  145.5678  141.0397  143.2191 LP  0  0  0  0  0  0  0  0  0  0  0  0  # atno 17321 bound_to 7965
  140.7720  143.5367  150.9360 LP  0  0  0  0  0  0  0  0  0  0  0  0  # atno 17342 bound_to 10162
  139.9050  143.6789  152.3125 LP  0  0  0  0  0  0  0  0  0  0  0  0  # atno 17343 bound_to 10162
  157.3520  130.7087  149.6447 LP  0  0  0  0  0  0  0  0  0  0  0  0  # atno 17370 bound_to 10713
  155.9678  130.4250  150.4632 LP  0  0  0  0  0  0  0  0  0  0  0  0  # atno 17371 bound_to 10713
  140.9396  134.1917  157.4807 LP  0  0  0  0  0  0  0  0  0  0  0  0  # atno 17394 bound_to 11000
  139.8732  134.9866  156.5333 LP  0  0  0  0  0  0  0  0  0  0  0  0  # atno 17395 bound_to 11000

$$$$
