AV-unprocessed.smi:2069|AV-procd|sdf|8434|dock9
  -GOLD-   2272011133D 1   1.00000     0.00000
 Structure written by MMmdl.
 39 40  0  0  0  0  0  0  0  0  2 V2000
  153.7326  141.4846  160.7622 C   0  0  0  0  0  0  0  0  0  0  0  0
  152.7988  142.0851  159.7679 C   0  0  0  0  0  0  0  0  0  0  0  0
  152.6175  143.4062  159.6521 N   0  0  0  0  0  0  0  0  0  0  0  0
  151.7058  143.7269  158.6561 N   0  0  0  0  0  0  0  0  0  0  0  0
  151.2262  142.6339  158.0471 C   0  0  0  0  0  0  0  0  0  0  0  0
  150.2826  142.6719  156.9865 N   0  0  0  0  0  0  0  0  0  0  0  0
  149.9051  141.6710  156.1721 C   0  0  0  0  0  0  0  0  0  0  0  0
  150.3470  140.5219  156.2000 O   0  0  0  0  0  0  0  0  0  0  0  0
  148.9658  142.0759  155.3056 N   0  0  0  0  0  0  0  0  0  0  0  0
  148.3399  141.2225  154.2999 C   0  0  0  0  0  0  0  0  0  0  0  0
  146.8016  141.1066  154.4723 C   0  0  1  0  0  0  0  0  0  0  0  0
  146.1385  142.4915  154.2733 C   0  0  0  0  0  0  0  0  0  0  0  0
  146.2572  140.0456  153.5634 N   0  3  0  0  0  0  0  0  0  0  0  0
  146.9585  140.0060  152.2507 C   0  0  0  0  0  0  0  0  0  0  0  0
  146.3122  138.9778  151.3087 C   0  0  0  0  0  0  0  0  0  0  0  0
  146.3390  137.6964  151.9194 O   0  0  0  0  0  0  0  0  0  0  0  0
  145.5935  137.6791  153.1276 C   0  0  0  0  0  0  0  0  0  0  0  0
  146.2005  138.6715  154.1346 C   0  0  0  0  0  0  0  0  0  0  0  0
  151.8556  141.1096  158.6478 S   0  0  0  0  0  0  0  0  0  0  0  0
  153.7897  142.1076  161.6553 H   0  0  0  0  0  0  0  0  0  0  0  0
  154.7295  141.3970  160.3300 H   0  0  0  0  0  0  0  0  0  0  0  0
  153.3872  140.4922  161.0522 H   0  0  0  0  0  0  0  0  0  0  0  0
  149.8365  143.5650  156.8374 H   0  0  0  0  0  0  0  0  0  0  0  0
  148.6587  143.0368  155.3464 H   0  0  0  0  0  0  0  0  0  0  0  0
  148.5685  141.6407  153.3192 H   0  0  0  0  0  0  0  0  0  0  0  0
  148.8304  140.2503  154.3320 H   0  0  0  0  0  0  0  0  0  0  0  0
  146.5821  140.8003  155.4964 H   0  0  0  0  0  0  0  0  0  0  0  0
  146.5746  143.2459  154.9277 H   0  0  0  0  0  0  0  0  0  0  0  0
  145.0755  142.4745  154.5140 H   0  0  0  0  0  0  0  0  0  0  0  0
  146.2524  142.8449  153.2480 H   0  0  0  0  0  0  0  0  0  0  0  0
  146.9427  140.9789  151.7632 H   0  0  0  0  0  0  0  0  0  0  0  0
  148.0081  139.7513  152.4064 H   0  0  0  0  0  0  0  0  0  0  0  0
  145.2872  139.2605  151.0629 H   0  0  0  0  0  0  0  0  0  0  0  0
  146.8636  138.9315  150.3694 H   0  0  0  0  0  0  0  0  0  0  0  0
  144.5479  137.9197  152.9273 H   0  0  0  0  0  0  0  0  0  0  0  0
  145.6129  136.6696  153.5386 H   0  0  0  0  0  0  0  0  0  0  0  0
  147.2036  138.3503  154.4201 H   0  0  0  0  0  0  0  0  0  0  0  0
  145.5801  138.6469  155.0299 H   0  0  0  0  0  0  0  0  0  0  0  0
  145.2983  140.3018  153.3766 H   0  0  0  0  0  0  0  0  0  0  0  0
  1  2  1  0  0  0  0
  1 20  1  0  0  0  0
  1 21  1  0  0  0  0
  1 22  1  0  0  0  0
  2 19  1  0  0  0  0
  2  3  2  0  0  0  0
  3  4  1  0  0  0  0
  4  5  2  0  0  0  0
  5  6  1  0  0  0  0
  5 19  1  0  0  0  0
  6  7  1  0  0  0  0
  6 23  1  0  0  0  0
  7  8  2  0  0  0  0
  7  9  1  0  0  0  0
  9 10  1  0  0  0  0
  9 24  1  0  0  0  0
 10 11  1  0  0  0  0
 10 25  1  0  0  0  0
 10 26  1  0  0  0  0
 11 12  1  0  0  0  0
 11 13  1  0  0  0  0
 11 27  1  0  0  0  0
 12 28  1  0  0  0  0
 12 29  1  0  0  0  0
 12 30  1  0  0  0  0
 13 18  1  0  0  0  0
 13 14  1  0  0  0  0
 13 39  1  0  0  0  0
 14 15  1  0  0  0  0
 14 31  1  0  0  0  0
 14 32  1  0  0  0  0
 15 16  1  0  0  0  0
 15 33  1  0  0  0  0
 15 34  1  0  0  0  0
 16 17  1  0  0  0  0
 17 18  1  0  0  0  0
 17 35  1  0  0  0  0
 17 36  1  0  0  0  0
 18 37  1  0  0  0  0
 18 38  1  0  0  0  0
M  CHG  1  13   1
M  END
> <s_m_source_file>
AV-unprocessed.smi

> <i_m_source_file_index>
2069

> <i_lp_mmshare_version>
43012

> <i_f3d_flags>
0

> <s_epik_input>
W0NIM11jMW5uYyhzMSlbTkhdQyg9TylbTkhdW0NIMl1bQ0BIXShbQ0gzXSlOMltDSDJdW0NIMl1PW0NIMl1bQ0gyXTI=

> <s_epik_cmdline>
J2VwaWtfcHl0aG9uJywgJy1waCcsICc3LjAnLCAnLXRuJywgJzgnLCAnLW1hJywgJzIwMCcsICctbWV0YWxfYmluZGluZycsICctaW1hZScsICc8aW5maWxlLm1hZT4nLCAnLW9tYWUnLCAnPG91dGZpbGUubWFlPic=

> <r_lp_tautomer_probability>
1

> <r_epik_Ionization_Penalty>
0.70016

> <r_epik_Ionization_Penalty_Charging>
0.695697

> <r_epik_Ionization_Penalty_Neutral>
0.00446266

> <r_epik_State_Penalty>
0.717972

> <r_epik_Charging_Adjusted_Penalty>
1.41367

> <i_epik_Tot_Q>
1

> <i_epik_Tot_abs_Q>
1

> <r_epik_Metal_State_Penalty>
1.06969

> <b_epik_Metal_Only>
0

> <s_lp_Force_Field>
OPLS_2005

> <r_lp_Energy>
18.8851

> <b_lp_Chiralities_Consistent>
1

> <s_lp_Variant>
AV-unprocessed.smi:2069-4

> <Gold.Version>
5.8.1

> <Gold.Id.Protein>
6NUR|6NUR_protein|mol2

> <Gold.PLP.Fitness>
46.0731

> <Gold.PLP.PLP>
-35.5327

> <Gold.PLP.part.hbond>
-3.0000

> <Gold.PLP.part.metal>
0.0000

> <Gold.PLP.part.buried>
-3.1496

> <Gold.PLP.part.nonpolar>
-31.2815

> <Gold.PLP.part.repulsive>
1.3482

> <Gold.PLP.ligand.clash>
0.0000

> <Gold.PLP.ligand.torsion>
0.7525

> <Gold.PLP.Chemscore.Hbond>
4.0000

> <Gold.PLP.Chemscore.CHOScore>
0.0000

> <Gold.PLP.Chemscore.Metal>
0.0000

> <Gold.Chemscore.Hbonds>
donor molecule, donor type, donor heavy atom, donor atom, acceptor molecule, acceptor atom, score
      L1  H     6    23       P1  8028  0.98
      L1  H     9    24       P1  8028  1.00
      L1  H    13    39       P1 10175  2.00

> <Gold.PLP.Chemscore.Internal.Correction>
0.0453

> <Gold.Rescore>
     Score         DG    S(hbond)    S(metal)    S(lipo)     H(rot)  DE(clash)    DE(int)     intcor
     16.24     -20.41       2.93        0.00      80.13       1.65       2.68       1.50       ----

> <Gold.Chemscore.Fitness>
16.2353

> <Gold.Chemscore.DG>
-20.4090

> <Gold.Chemscore.ZeroCoef>
-5.4800

> <Gold.Chemscore.Hbond>
2.9256

> <Gold.Chemscore.Metal>
0.0000

> <Gold.Chemscore.Lipo>
80.1319

> <Gold.Chemscore.Internal_Hbond>
0.0000

> <Gold.Chemscore.DEClash>
2.6775

> <Gold.Chemscore.DEInternal>
1.4962

> <Gold.Chemscore.Rot>
1.6476

> <Gold.Chemscore.Internal.Correction>
   9.000000E+99

> <Gold.Chemscore.Hbonds>
donor molecule, donor type, donor heavy atom, donor atom, acceptor molecule, acceptor atom, score
      L1  H     6    23       P1  8028  0.93
      L1  H     9    24       P1  8028  0.98
      L1  H    13    39       P1 10175  0.99

> <Gold.Chemscore.Hbond.Weighted>
-9.7715

> <Gold.Chemscore.Metal.Weighted>
-0.0000

> <Gold.Chemscore.Lipo.Weighted>
-9.3754

> <Gold.Chemscore.Internal_Hbond.Weighted>
0.0000

> <Gold.Chemscore.DEClash.Weighted>
2.6775

> <Gold.Chemscore.DEInternal.Weighted>
1.4962

> <Gold.Chemscore.Rot.Weighted>
4.2179

> <Gold.Chemscore.Internal.Correction.Weighted>
   9.000000E+99

> <Gold.Protein.RotatedTorsions>
[ 6907 6896 6895 6894 ] final  -71.09 input  -60.11 | X-H torsion
[ 7974 7965 7964 7962 ] final   63.01 input  175.53 | X-H torsion
[ 8008 7997 7996 7995 ] final  -53.28 input   59.86 | X-H torsion
[ 10167 10162 10161 10158 ] final  153.60 input  -65.29 | X-H torsion
[ 10718 10713 10712 10709 ] final   -0.48 input   66.30 | X-H torsion
[ 10763 10752 10751 10750 ] final -116.37 input  -60.55 | X-H torsion
[ 11005 11000 10999 10996 ] final -137.51 input  -57.11 | X-H torsion

> <Gold.Protein.ActiveResidues>
 VAL166  LYS551  ARG553  GLY616  TRP617  ASP618  TYR619  PRO620  LYS621  CYS622 
 ASP623  PHE694  ASN695  SER759  ASP760  ASP761  ALA762  ILE779  LEU786  VAL792 
 PHE793  MET794  SER795  GLU796  ALA797  LYS798  CYS799  TRP800  GLU811  SER814 

> <Gold.Protein.RotatedAtoms>
  150.7228  134.5359  159.5722 H   0  0  0  0  0  0  0  0  0  0  0  0  # atno 6907 bound_to 6896
  152.2881  134.7750  160.0392 H   0  0  0  0  0  0  0  0  0  0  0  0  # atno 6908 bound_to 6896
  151.8373  133.3382  159.3669 H   0  0  0  0  0  0  0  0  0  0  0  0  # atno 6909 bound_to 6896
  145.8668  139.3351  143.0786 H   0  0  0  0  0  0  0  0  0  0  0  0  # atno 7974 bound_to 7965
  154.4129  140.1204  156.5128 H   0  0  0  0  0  0  0  0  0  0  0  0  # atno 8008 bound_to 7997
  155.6782  140.3496  155.4825 H   0  0  0  0  0  0  0  0  0  0  0  0  # atno 8009 bound_to 7997
  155.9575  140.1116  157.0914 H   0  0  0  0  0  0  0  0  0  0  0  0  # atno 8010 bound_to 7997
  139.4826  144.5259  151.7801 H   0  0  0  0  0  0  0  0  0  0  0  0  # atno 10167 bound_to 10162
  156.8198  130.5452  149.5698 H   0  0  0  0  0  0  0  0  0  0  0  0  # atno 10718 bound_to 10713
  154.8517  135.4348  154.1811 H   0  0  0  0  0  0  0  0  0  0  0  0  # atno 10763 bound_to 10752
  153.2901  135.6961  153.7307 H   0  0  0  0  0  0  0  0  0  0  0  0  # atno 10764 bound_to 10752
  153.6477  135.3457  155.3065 H   0  0  0  0  0  0  0  0  0  0  0  0  # atno 10765 bound_to 10752
  140.8705  134.2057  157.4654 H   0  0  0  0  0  0  0  0  0  0  0  0  # atno 11005 bound_to 11000
  145.9184  140.9132  143.0418 LP  0  0  0  0  0  0  0  0  0  0  0  0  # atno 17320 bound_to 7965
  144.6726  140.1255  143.7447 LP  0  0  0  0  0  0  0  0  0  0  0  0  # atno 17321 bound_to 7965
  140.4779  144.1492  150.5928 LP  0  0  0  0  0  0  0  0  0  0  0  0  # atno 17342 bound_to 10162
  140.4310  143.2568  151.9595 LP  0  0  0  0  0  0  0  0  0  0  0  0  # atno 17343 bound_to 10162
  156.0995  130.5958  150.9871 LP  0  0  0  0  0  0  0  0  0  0  0  0  # atno 17370 bound_to 10713
  157.6463  131.0903  150.8147 LP  0  0  0  0  0  0  0  0  0  0  0  0  # atno 17371 bound_to 10713
  139.8712  134.9772  156.4949 LP  0  0  0  0  0  0  0  0  0  0  0  0  # atno 17394 bound_to 11000
  140.8579  133.8082  155.9235 LP  0  0  0  0  0  0  0  0  0  0  0  0  # atno 17395 bound_to 11000

$$$$
