AV-unprocessed.smi:275|AV-procd|sdf|2063|dock10
  -GOLD-   2262021313D 1   1.00000     0.00000
 Structure written by MMmdl.
 65 69  0  0  0  0  0  0  0  0  1 V2000
  149.2735  143.6881  158.9614 C   0  0  0  0  0  0  0  0  0  0  0  0
  148.8898  142.4940  158.0751 C   0  0  0  0  0  0  0  0  0  0  0  0
  147.4449  142.0500  158.3955 C   0  0  0  0  0  0  0  0  0  0  0  0
  149.9759  141.3871  158.1226 C   0  0  1  0  0  0  0  0  0  0  0  0
  149.7104  140.3378  157.1358 N   0  0  0  0  0  0  0  0  0  0  0  0
  149.7388  138.9805  157.5972 C   0  0  0  0  0  0  0  0  0  0  0  0
  150.0100  138.7447  158.9102 N   0  0  0  0  0  0  0  0  0  0  0  0
  150.0646  137.5056  159.4044 C   0  0  0  0  0  0  0  0  0  0  0  0
  149.8960  136.3488  158.7669 N   0  0  0  0  0  0  0  0  0  0  0  0
  149.6535  136.5560  157.4431 C   0  0  0  0  0  0  0  0  0  0  0  0
  149.5657  137.8179  156.7840 C   0  0  0  0  0  0  0  0  0  0  0  0
  149.3219  137.6109  155.4304 N   0  0  0  0  0  0  0  0  0  0  0  0
  149.2519  136.3153  155.3010 C   0  0  0  0  0  0  0  0  0  0  0  0
  149.4339  135.6044  156.4628 N   0  0  0  0  0  0  0  0  0  0  0  0
  149.4093  134.1587  156.6038 C   0  0  0  0  0  0  0  0  0  0  0  0
  148.8877  133.4287  155.3402 C   0  0  2  0  0  0  0  0  0  0  0  0
  147.4703  133.9249  154.9552 C   0  0  0  0  0  0  0  0  0  0  0  0
  147.1955  133.7159  153.5860 O   0  0  0  0  0  0  0  0  0  0  0  0
  148.9410  131.8909  155.5539 C   0  0  2  0  0  0  0  0  0  0  0  0
  150.3484  131.3254  155.7285 C   0  0  0  0  0  0  0  0  0  0  0  0
  150.2757  129.9075  155.1541 C   0  0  0  0  0  0  0  0  0  0  0  0
  148.9451  129.7483  154.6832 O   0  0  0  0  0  0  0  0  0  0  0  0
  148.4238  131.0342  154.3971 C   0  0  0  0  0  0  0  0  0  0  0  0
  150.8274  140.7604  156.2930 C   0  0  0  0  0  0  0  0  0  0  0  0
  151.3873  141.5365  157.4928 C   0  0  0  0  0  0  0  0  0  0  0  0
  152.5271  140.8090  158.2395 C   0  0  0  0  0  0  0  0  0  0  0  0
  152.9560  141.5190  159.5344 C   0  0  0  0  0  0  0  0  0  0  0  0
  153.4130  142.9537  159.2491 C   0  0  0  0  0  0  0  0  0  0  0  0
  152.3445  143.7232  158.4646 C   0  0  0  0  0  0  0  0  0  0  0  0
  151.9164  142.9559  157.2001 C   0  0  0  0  0  0  0  0  0  0  0  0
  149.2934  143.4079  160.0150 H   0  0  0  0  0  0  0  0  0  0  0  0
  148.5621  144.5067  158.8498 H   0  0  0  0  0  0  0  0  0  0  0  0
  150.2584  144.0744  158.6982 H   0  0  0  0  0  0  0  0  0  0  0  0
  148.8676  142.8854  157.0591 H   0  0  0  0  0  0  0  0  0  0  0  0
  147.3456  141.7192  159.4297 H   0  0  0  0  0  0  0  0  0  0  0  0
  147.0991  141.2416  157.7558 H   0  0  0  0  0  0  0  0  0  0  0  0
  146.7503  142.8788  158.2571 H   0  0  0  0  0  0  0  0  0  0  0  0
  150.0990  141.0021  159.1334 H   0  0  0  0  0  0  0  0  0  0  0  0
  150.2758  137.4321  160.4610 H   0  0  0  0  0  0  0  0  0  0  0  0
  149.0630  135.8401  154.3494 H   0  0  0  0  0  0  0  0  0  0  0  0
  150.4252  133.8454  156.8434 H   0  0  0  0  0  0  0  0  0  0  0  0
  148.7977  133.8984  157.4686 H   0  0  0  0  0  0  0  0  0  0  0  0
  149.5632  133.6815  154.5210 H   0  0  0  0  0  0  0  0  0  0  0  0
  146.7087  133.4357  155.5629 H   0  0  0  0  0  0  0  0  0  0  0  0
  147.3611  134.9953  155.1207 H   0  0  0  0  0  0  0  0  0  0  0  0
  147.1559  134.5565  153.1560 H   0  0  0  0  0  0  0  0  0  0  0  0
  148.3600  131.6340  156.4410 H   0  0  0  0  0  0  0  0  0  0  0  0
  151.0783  131.9094  155.1663 H   0  0  0  0  0  0  0  0  0  0  0  0
  150.6574  131.3264  156.7743 H   0  0  0  0  0  0  0  0  0  0  0  0
  150.9749  129.7907  154.3250 H   0  0  0  0  0  0  0  0  0  0  0  0
  150.5047  129.1475  155.9013 H   0  0  0  0  0  0  0  0  0  0  0  0
  147.3353  131.0049  154.3434 H   0  0  0  0  0  0  0  0  0  0  0  0
  148.8116  131.3818  153.4380 H   0  0  0  0  0  0  0  0  0  0  0  0
  151.4961  139.9834  155.9227 H   0  0  0  0  0  0  0  0  0  0  0  0
  150.4953  141.4046  155.4790 H   0  0  0  0  0  0  0  0  0  0  0  0
  152.2348  139.7888  158.4880 H   0  0  0  0  0  0  0  0  0  0  0  0
  153.3937  140.7070  157.5847 H   0  0  0  0  0  0  0  0  0  0  0  0
  152.1263  141.5311  160.2420 H   0  0  0  0  0  0  0  0  0  0  0  0
  153.7616  140.9625  160.0141 H   0  0  0  0  0  0  0  0  0  0  0  0
  153.6403  143.4700  160.1820 H   0  0  0  0  0  0  0  0  0  0  0  0
  154.3392  142.9311  158.6736 H   0  0  0  0  0  0  0  0  0  0  0  0
  151.4814  143.8972  159.1066 H   0  0  0  0  0  0  0  0  0  0  0  0
  152.7256  144.7073  158.1905 H   0  0  0  0  0  0  0  0  0  0  0  0
  152.7685  142.8955  156.5219 H   0  0  0  0  0  0  0  0  0  0  0  0
  151.1780  143.5507  156.6678 H   0  0  0  0  0  0  0  0  0  0  0  0
  1  2  1  0  0  0  0
  1 31  1  0  0  0  0
  1 32  1  0  0  0  0
  1 33  1  0  0  0  0
  2  3  1  0  0  0  0
  2  4  1  0  0  0  0
  2 34  1  0  0  0  0
  3 35  1  0  0  0  0
  3 36  1  0  0  0  0
  3 37  1  0  0  0  0
  4 25  1  0  0  0  0
  4  5  1  0  0  0  0
  4 38  1  0  0  0  0
  5  6  1  0  0  0  0
  5 24  1  0  0  0  0
  6 11  1  0  0  0  0
  6  7  2  0  0  0  0
  7  8  1  0  0  0  0
  8  9  2  0  0  0  0
  8 39  1  0  0  0  0
  9 10  1  0  0  0  0
 10 14  1  0  0  0  0
 10 11  2  0  0  0  0
 11 12  1  0  0  0  0
 12 13  2  0  0  0  0
 13 14  1  0  0  0  0
 13 40  1  0  0  0  0
 14 15  1  0  0  0  0
 15 16  1  0  0  0  0
 15 41  1  0  0  0  0
 15 42  1  0  0  0  0
 16 17  1  0  0  0  0
 16 19  1  0  0  0  0
 16 43  1  0  0  0  0
 17 18  1  0  0  0  0
 17 44  1  0  0  0  0
 17 45  1  0  0  0  0
 18 46  1  0  0  0  0
 19 23  1  0  0  0  0
 19 20  1  0  0  0  0
 19 47  1  0  0  0  0
 20 21  1  0  0  0  0
 20 48  1  0  0  0  0
 20 49  1  0  0  0  0
 21 22  1  0  0  0  0
 21 50  1  0  0  0  0
 21 51  1  0  0  0  0
 22 23  1  0  0  0  0
 23 52  1  0  0  0  0
 23 53  1  0  0  0  0
 24 25  1  0  0  0  0
 24 54  1  0  0  0  0
 24 55  1  0  0  0  0
 25 30  1  0  0  0  0
 25 26  1  0  0  0  0
 26 27  1  0  0  0  0
 26 56  1  0  0  0  0
 26 57  1  0  0  0  0
 27 28  1  0  0  0  0
 27 58  1  0  0  0  0
 27 59  1  0  0  0  0
 28 29  1  0  0  0  0
 28 60  1  0  0  0  0
 28 61  1  0  0  0  0
 29 30  1  0  0  0  0
 29 62  1  0  0  0  0
 29 63  1  0  0  0  0
 30 64  1  0  0  0  0
 30 65  1  0  0  0  0
M  END
> <s_m_source_file>
AV-unprocessed.smi

> <i_m_source_file_index>
275

> <i_lp_mmshare_version>
43012

> <i_f3d_flags>
0

> <s_epik_input>
W0NIMl0xW0NIMl1bQ0gyXVtDSDJdW0NIMl1DMTJbQ0BIXShbQ0hdKFtDSDNdKVtDSDNdKU4oW0NIMl0yKWMobltjSF1uMyljKGMzNCluW2NIXW40W0NIMl1bQ0BIXShbQ0gyXVtPSF0pW0NAQEhdNVtDSDJdW0NIMl1PW0NIMl01

> <s_epik_cmdline>
J2VwaWtfcHl0aG9uJywgJy1waCcsICc3LjAnLCAnLXRuJywgJzgnLCAnLW1hJywgJzIwMCcsICctbWV0YWxfYmluZGluZycsICctaW1hZScsICc8aW5maWxlLm1hZT4nLCAnLW9tYWUnLCAnPG91dGZpbGUubWFlPic=

> <r_lp_tautomer_probability>
1

> <r_epik_Ionization_Penalty>
0.00375122

> <r_epik_Ionization_Penalty_Charging>
0

> <r_epik_Ionization_Penalty_Neutral>
0.00375122

> <r_epik_State_Penalty>
0.00260593

> <r_epik_Charging_Adjusted_Penalty>
0.00260593

> <i_epik_Tot_Q>
0

> <i_epik_Tot_abs_Q>
0

> <r_epik_Metal_State_Penalty>
-0

> <b_epik_Metal_Only>
0

> <s_lp_Force_Field>
OPLS_2005

> <r_lp_Energy>
70.0888

> <b_lp_Chiralities_Consistent>
1

> <s_lp_Variant>
AV-unprocessed.smi:275-2

> <Gold.Version>
5.8.1

> <Gold.Id.Protein>
6NUR|6NUR_protein|mol2

> <Gold.PLP.Fitness>
51.3981

> <Gold.PLP.PLP>
-43.1959

> <Gold.PLP.part.hbond>
-2.4455

> <Gold.PLP.part.metal>
0.0000

> <Gold.PLP.part.buried>
-5.3952

> <Gold.PLP.part.nonpolar>
-35.6491

> <Gold.PLP.part.repulsive>
0.2233

> <Gold.PLP.ligand.clash>
0.0000

> <Gold.PLP.ligand.torsion>
0.5785

> <Gold.PLP.Chemscore.Hbond>
2.0000

> <Gold.PLP.Chemscore.CHOScore>
0.9762

> <Gold.PLP.Chemscore.Metal>
0.0000

> <Gold.Chemscore.Hbonds>
donor molecule, donor type, donor heavy atom, donor atom, acceptor molecule, acceptor atom, score
      P1  H  6896  6908       L1     9  0.92
      L1  C    13    40       P1  7948  1.00

> <Gold.PLP.Chemscore.Internal.Correction>
0.4305

> <Gold.Rescore>
     Score         DG    S(hbond)    S(metal)    S(lipo)     H(rot)  DE(clash)    DE(int)     intcor
     15.49     -16.63       1.49        0.00     108.41       2.54       0.30       0.85       ----

> <Gold.Chemscore.Fitness>
15.4880

> <Gold.Chemscore.DG>
-16.6288

> <Gold.Chemscore.ZeroCoef>
-5.4800

> <Gold.Chemscore.Hbond>
1.4854

> <Gold.Chemscore.Metal>
0.0000

> <Gold.Chemscore.Lipo>
108.4120

> <Gold.Chemscore.Internal_Hbond>
0.0000

> <Gold.Chemscore.DEClash>
0.2955

> <Gold.Chemscore.DEInternal>
0.8453

> <Gold.Chemscore.Rot>
2.5377

> <Gold.Chemscore.Internal.Correction>
   9.000000E+99

> <Gold.Chemscore.Hbonds>
donor molecule, donor type, donor heavy atom, donor atom, acceptor molecule, acceptor atom, score
      P1  H  6896  6908       L1     9  0.81

> <Gold.Chemscore.Hbond.Weighted>
-4.9612

> <Gold.Chemscore.Metal.Weighted>
-0.0000

> <Gold.Chemscore.Lipo.Weighted>
-12.6842

> <Gold.Chemscore.Internal_Hbond.Weighted>
0.0000

> <Gold.Chemscore.DEClash.Weighted>
0.2955

> <Gold.Chemscore.DEInternal.Weighted>
0.8453

> <Gold.Chemscore.Rot.Weighted>
6.4966

> <Gold.Chemscore.Internal.Correction.Weighted>
   9.000000E+99

> <Gold.Protein.RotatedTorsions>
[ 6907 6896 6895 6894 ] final  171.95 input  -60.11 | X-H torsion
[ 7974 7965 7964 7962 ] final   78.67 input  175.53 | X-H torsion
[ 8008 7997 7996 7995 ] final  103.29 input   59.86 | X-H torsion
[ 10167 10162 10161 10158 ] final  109.28 input  -65.29 | X-H torsion
[ 10718 10713 10712 10709 ] final   45.31 input   66.30 | X-H torsion
[ 10763 10752 10751 10750 ] final   17.26 input  -60.55 | X-H torsion
[ 11005 11000 10999 10996 ] final  179.13 input  -57.11 | X-H torsion

> <Gold.Protein.ActiveResidues>
 VAL166  LYS551  ARG553  GLY616  TRP617  ASP618  TYR619  PRO620  LYS621  CYS622 
 ASP623  PHE694  ASN695  SER759  ASP760  ASP761  ALA762  ILE779  LEU786  VAL792 
 PHE793  MET794  SER795  GLU796  ALA797  LYS798  CYS799  TRP800  GLU811  SER814 

> <Gold.Protein.RotatedAtoms>
  151.7921  133.3360  159.3501 H   0  0  0  0  0  0  0  0  0  0  0  0  # atno 6907 bound_to 6896
  150.7388  134.5833  159.5959 H   0  0  0  0  0  0  0  0  0  0  0  0  # atno 6908 bound_to 6896
  152.3203  134.7390  160.0366 H   0  0  0  0  0  0  0  0  0  0  0  0  # atno 6909 bound_to 6896
  145.6741  139.2505  143.1851 H   0  0  0  0  0  0  0  0  0  0  0  0  # atno 7974 bound_to 7965
  156.1471  140.3167  155.8587 H   0  0  0  0  0  0  0  0  0  0  0  0  # atno 8008 bound_to 7997
  155.4043  140.0501  157.3052 H   0  0  0  0  0  0  0  0  0  0  0  0  # atno 8009 bound_to 7997
  154.5026  140.2135  155.9328 H   0  0  0  0  0  0  0  0  0  0  0  0  # atno 8010 bound_to 7997
  139.6779  144.7120  151.1568 H   0  0  0  0  0  0  0  0  0  0  0  0  # atno 10167 bound_to 10162
  157.4361  130.8054  149.7649 H   0  0  0  0  0  0  0  0  0  0  0  0  # atno 10718 bound_to 10713
  153.1355  135.6749  153.9109 H   0  0  0  0  0  0  0  0  0  0  0  0  # atno 10763 bound_to 10752
  153.8582  135.3084  155.3437 H   0  0  0  0  0  0  0  0  0  0  0  0  # atno 10764 bound_to 10752
  154.7744  135.4922  153.9796 H   0  0  0  0  0  0  0  0  0  0  0  0  # atno 10765 bound_to 10752
  140.4028  134.6762  157.4571 H   0  0  0  0  0  0  0  0  0  0  0  0  # atno 11005 bound_to 11000
  146.1020  140.7532  142.9544 LP  0  0  0  0  0  0  0  0  0  0  0  0  # atno 17320 bound_to 7965
  144.7047  140.3802  143.7127 LP  0  0  0  0  0  0  0  0  0  0  0  0  # atno 17321 bound_to 7965
  140.7642  143.5743  150.8962 LP  0  0  0  0  0  0  0  0  0  0  0  0  # atno 17342 bound_to 10162
  139.9413  143.6378  152.3053 LP  0  0  0  0  0  0  0  0  0  0  0  0  # atno 17343 bound_to 10162
  155.9931  130.3926  150.2914 LP  0  0  0  0  0  0  0  0  0  0  0  0  # atno 17370 bound_to 10713
  157.1075  131.0212  151.3061 LP  0  0  0  0  0  0  0  0  0  0  0  0  # atno 17371 bound_to 10713
  140.0324  134.6387  155.9089 LP  0  0  0  0  0  0  0  0  0  0  0  0  # atno 17394 bound_to 11000
  141.1850  133.6554  156.5181 LP  0  0  0  0  0  0  0  0  0  0  0  0  # atno 17395 bound_to 11000

$$$$
