AV-unprocessed.smi:2741|AV-procd|sdf|10560|dock4
  -GOLD-   2272015 13D 1   1.00000     0.00000
 Structure written by MMmdl.
 39 40  0  0  0  0  0  0  0  0  1 V2000
  156.0470  140.0474  159.2027 O   0  0  0  0  0  0  0  0  0  0  0  0
  156.0255  140.3876  160.3865 C   0  0  0  0  0  0  0  0  0  0  0  0
  154.6966  140.6659  161.1040 C   0  0  0  0  0  0  0  0  0  0  0  0
  153.5799  140.9329  160.1816 N   0  0  0  0  0  0  0  0  0  0  0  0
  153.1394  142.2670  160.0766 C   0  0  0  0  0  0  0  0  0  0  0  0
  152.1148  142.6406  159.2863 C   0  0  0  0  0  0  0  0  0  0  0  0
  151.6963  144.0971  159.1586 C   0  0  0  0  0  0  0  0  0  0  0  0
  152.5479  144.7781  158.3916 F   0  0  0  0  0  0  0  0  0  0  0  0
  150.4865  144.1739  158.6063 F   0  0  0  0  0  0  0  0  0  0  0  0
  151.6447  144.6872  160.3534 F   0  0  0  0  0  0  0  0  0  0  0  0
  151.4892  141.5936  158.5029 C   0  0  0  0  0  0  0  0  0  0  0  0
  151.9025  140.3138  158.5865 C   0  0  0  0  0  0  0  0  0  0  0  0
  153.0029  139.9193  159.4689 C   0  0  0  0  0  0  0  0  0  0  0  0
  153.3827  138.7517  159.5616 O   0  0  0  0  0  0  0  0  0  0  0  0
  157.1333  140.5210  161.1314 N   0  0  0  0  0  0  0  0  0  0  0  0
  158.4950  140.2996  160.6568 C   0  0  0  0  0  0  0  0  0  0  0  0
  159.1404  141.5915  160.1193 C   0  0  2  0  0  0  0  0  0  0  0  0
  158.5755  142.0787  158.7712 C   0  0  0  0  0  0  0  0  0  0  0  0
  159.7622  142.6500  157.9780 C   0  0  0  0  0  0  0  0  0  0  0  0
  160.9535  142.6289  158.9404 C   0  0  2  0  0  0  0  0  0  0  0  0
  162.1822  142.4580  158.2663 O   0  0  0  0  0  0  0  0  0  0  0  0
  160.6487  141.4710  159.8881 C   0  0  0  0  0  0  0  0  0  0  0  0
  154.4698  139.8103  161.7415 H   0  0  0  0  0  0  0  0  0  0  0  0
  154.8261  141.5051  161.7901 H   0  0  0  0  0  0  0  0  0  0  0  0
  153.6867  142.9709  160.6867 H   0  0  0  0  0  0  0  0  0  0  0  0
  150.6712  141.8372  157.8411 H   0  0  0  0  0  0  0  0  0  0  0  0
  151.4110  139.5590  157.9905 H   0  0  0  0  0  0  0  0  0  0  0  0
  157.0265  140.7995  162.0962 H   0  0  0  0  0  0  0  0  0  0  0  0
  159.1034  139.8779  161.4587 H   0  0  0  0  0  0  0  0  0  0  0  0
  158.4588  139.5450  159.8705 H   0  0  0  0  0  0  0  0  0  0  0  0
  158.9911  142.3894  160.8488 H   0  0  0  0  0  0  0  0  0  0  0  0
  158.1236  141.2585  158.2120 H   0  0  0  0  0  0  0  0  0  0  0  0
  157.7994  142.8289  158.9268 H   0  0  0  0  0  0  0  0  0  0  0  0
  159.9583  142.0069  157.1187 H   0  0  0  0  0  0  0  0  0  0  0  0
  159.5646  143.6522  157.5963 H   0  0  0  0  0  0  0  0  0  0  0  0
  160.9826  143.5622  159.5047 H   0  0  0  0  0  0  0  0  0  0  0  0
  162.6144  143.2966  158.2122 H   0  0  0  0  0  0  0  0  0  0  0  0
  161.2209  141.5241  160.8147 H   0  0  0  0  0  0  0  0  0  0  0  0
  160.8785  140.5191  159.4057 H   0  0  0  0  0  0  0  0  0  0  0  0
  1  2  2  0  0  0  0
  2  3  1  0  0  0  0
  2 15  1  0  0  0  0
  3  4  1  0  0  0  0
  3 23  1  0  0  0  0
  3 24  1  0  0  0  0
  4 13  1  0  0  0  0
  4  5  1  0  0  0  0
  5  6  2  0  0  0  0
  5 25  1  0  0  0  0
  6  7  1  0  0  0  0
  6 11  1  0  0  0  0
  7  8  1  0  0  0  0
  7  9  1  0  0  0  0
  7 10  1  0  0  0  0
 11 12  2  0  0  0  0
 11 26  1  0  0  0  0
 12 13  1  0  0  0  0
 12 27  1  0  0  0  0
 13 14  2  0  0  0  0
 15 16  1  0  0  0  0
 15 28  1  0  0  0  0
 16 17  1  0  0  0  0
 16 29  1  0  0  0  0
 16 30  1  0  0  0  0
 17 22  1  0  0  0  0
 17 18  1  0  0  0  0
 17 31  1  0  0  0  0
 18 19  1  0  0  0  0
 18 32  1  0  0  0  0
 18 33  1  0  0  0  0
 19 20  1  0  0  0  0
 19 34  1  0  0  0  0
 19 35  1  0  0  0  0
 20 21  1  0  0  0  0
 20 22  1  0  0  0  0
 20 36  1  0  0  0  0
 21 37  1  0  0  0  0
 22 38  1  0  0  0  0
 22 39  1  0  0  0  0
M  END
> <s_m_source_file>
AV-unprocessed.smi

> <i_m_source_file_index>
2741

> <i_lp_mmshare_version>
43012

> <i_f3d_flags>
0

> <s_epik_input>
W09IXVtDQEBIXShbQ0gyXTEpW0NIMl1bQ0gyXVtDQEhdMVtDSDJdW05IXUMoPU8pW0NIMl1uMltjSF1jKEMoRikoRilGKVtjSF1bY0hdYzI9Tw==

> <s_epik_cmdline>
J2VwaWtfcHl0aG9uJywgJy1waCcsICc3LjAnLCAnLXRuJywgJzgnLCAnLW1hJywgJzIwMCcsICctbWV0YWxfYmluZGluZycsICctaW1hZScsICc8aW5maWxlLm1hZT4nLCAnLW9tYWUnLCAnPG91dGZpbGUubWFlPic=

> <r_lp_tautomer_probability>
1

> <r_epik_Ionization_Penalty>
1.17551e-06

> <r_epik_Ionization_Penalty_Charging>
1.78841e-08

> <r_epik_Ionization_Penalty_Neutral>
1.15762e-06

> <r_epik_State_Penalty>
-0

> <r_epik_Charging_Adjusted_Penalty>
1.78841e-08

> <i_epik_Tot_Q>
0

> <i_epik_Tot_abs_Q>
0

> <r_epik_Metal_State_Penalty>
-0

> <b_epik_Metal_Only>
0

> <s_lp_Force_Field>
OPLS_2005

> <r_lp_Energy>
33.0279

> <b_lp_Chiralities_Consistent>
1

> <s_lp_Variant>
AV-unprocessed.smi:2741-3

> <Gold.Version>
5.8.1

> <Gold.Id.Protein>
6NUR|6NUR_protein|mol2

> <Gold.PLP.Fitness>
51.3610

> <Gold.PLP.PLP>
-51.0533

> <Gold.PLP.part.hbond>
-3.5606

> <Gold.PLP.part.metal>
0.0000

> <Gold.PLP.part.buried>
-3.2605

> <Gold.PLP.part.nonpolar>
-45.2624

> <Gold.PLP.part.repulsive>
0.0169

> <Gold.PLP.ligand.clash>
0.0000

> <Gold.PLP.ligand.torsion>
1.3844

> <Gold.PLP.Chemscore.Hbond>
1.0000

> <Gold.PLP.Chemscore.CHOScore>
0.0000

> <Gold.PLP.Chemscore.Metal>
0.0000

> <Gold.Chemscore.Hbonds>
donor molecule, donor type, donor heavy atom, donor atom, acceptor molecule, acceptor atom, score
      P1  H  7997  8009       L1     1  0.99

> <Gold.PLP.Chemscore.Internal.Correction>
0.0764

> <Gold.Rescore>
     Score         DG    S(hbond)    S(metal)    S(lipo)     H(rot)  DE(clash)    DE(int)     intcor
     12.10     -14.10       0.98        0.00     100.11       2.48       0.48       1.52       ----

> <Gold.Chemscore.Fitness>
12.1012

> <Gold.Chemscore.DG>
-14.1008

> <Gold.Chemscore.ZeroCoef>
-5.4800

> <Gold.Chemscore.Hbond>
0.9755

> <Gold.Chemscore.Metal>
0.0000

> <Gold.Chemscore.Lipo>
100.1143

> <Gold.Chemscore.Internal_Hbond>
0.0000

> <Gold.Chemscore.DEClash>
0.4824

> <Gold.Chemscore.DEInternal>
1.5172

> <Gold.Chemscore.Rot>
2.4807

> <Gold.Chemscore.Internal.Correction>
   9.000000E+99

> <Gold.Chemscore.Hbonds>
donor molecule, donor type, donor heavy atom, donor atom, acceptor molecule, acceptor atom, score
      P1  H  7997  8009       L1     1  0.94

> <Gold.Chemscore.Hbond.Weighted>
-3.2581

> <Gold.Chemscore.Metal.Weighted>
-0.0000

> <Gold.Chemscore.Lipo.Weighted>
-11.7134

> <Gold.Chemscore.Internal_Hbond.Weighted>
0.0000

> <Gold.Chemscore.DEClash.Weighted>
0.4824

> <Gold.Chemscore.DEInternal.Weighted>
1.5172

> <Gold.Chemscore.Rot.Weighted>
6.3507

> <Gold.Chemscore.Internal.Correction.Weighted>
   9.000000E+99

> <Gold.Protein.RotatedTorsions>
[ 6907 6896 6895 6894 ] final   81.89 input  -60.11 | X-H torsion
[ 7974 7965 7964 7962 ] final  153.65 input  175.53 | X-H torsion
[ 8008 7997 7996 7995 ] final   82.41 input   59.86 | X-H torsion
[ 10167 10162 10161 10158 ] final  -89.31 input  -65.29 | X-H torsion
[ 10718 10713 10712 10709 ] final -152.58 input   66.30 | X-H torsion
[ 10763 10752 10751 10750 ] final -105.90 input  -60.55 | X-H torsion
[ 11005 11000 10999 10996 ] final -146.31 input  -57.11 | X-H torsion

> <Gold.Protein.ActiveResidues>
 VAL166  LYS551  ARG553  GLY616  TRP617  ASP618  TYR619  PRO620  LYS621  CYS622 
 ASP623  PHE694  ASN695  SER759  ASP760  ASP761  ALA762  ILE779  LEU786  VAL792 
 PHE793  MET794  SER795  GLU796  ALA797  LYS798  CYS799  TRP800  GLU811  SER814 

> <Gold.Protein.RotatedAtoms>
  152.5282  134.3133  159.9121 H   0  0  0  0  0  0  0  0  0  0  0  0  # atno 6907 bound_to 6896
  151.3083  133.4085  159.2652 H   0  0  0  0  0  0  0  0  0  0  0  0  # atno 6908 bound_to 6896
  151.0060  134.9376  159.8038 H   0  0  0  0  0  0  0  0  0  0  0  0  # atno 6909 bound_to 6896
  144.8140  139.6829  143.6129 H   0  0  0  0  0  0  0  0  0  0  0  0  # atno 7974 bound_to 7965
  155.9103  140.3428  155.6093 H   0  0  0  0  0  0  0  0  0  0  0  0  # atno 8008 bound_to 7997
  155.7396  140.0806  157.2270 H   0  0  0  0  0  0  0  0  0  0  0  0  # atno 8009 bound_to 7997
  154.4055  140.1573  156.2588 H   0  0  0  0  0  0  0  0  0  0  0  0  # atno 8010 bound_to 7997
  140.3660  143.2818  151.9557 H   0  0  0  0  0  0  0  0  0  0  0  0  # atno 10167 bound_to 10162
  156.4743  130.8273  151.2502 H   0  0  0  0  0  0  0  0  0  0  0  0  # atno 10718 bound_to 10713
  154.7977  135.4732  154.0200 H   0  0  0  0  0  0  0  0  0  0  0  0  # atno 10763 bound_to 10752
  153.1730  135.6828  153.8589 H   0  0  0  0  0  0  0  0  0  0  0  0  # atno 10764 bound_to 10752
  153.8165  135.3210  155.3384 H   0  0  0  0  0  0  0  0  0  0  0  0  # atno 10765 bound_to 10752
  140.7833  134.3054  157.5038 H   0  0  0  0  0  0  0  0  0  0  0  0  # atno 11005 bound_to 11000
  146.2442  139.6063  142.9471 LP  0  0  0  0  0  0  0  0  0  0  0  0  # atno 17320 bound_to 7965
  145.5256  141.0430  143.2411 LP  0  0  0  0  0  0  0  0  0  0  0  0  # atno 17321 bound_to 7965
  139.4809  144.5950  151.7706 LP  0  0  0  0  0  0  0  0  0  0  0  0  # atno 17342 bound_to 10162
  140.5080  144.1068  150.5987 LP  0  0  0  0  0  0  0  0  0  0  0  0  # atno 17343 bound_to 10162
  157.7489  131.0066  150.3157 LP  0  0  0  0  0  0  0  0  0  0  0  0  # atno 17370 bound_to 10713
  156.3586  130.3843  149.7270 LP  0  0  0  0  0  0  0  0  0  0  0  0  # atno 17371 bound_to 10713
  139.8740  134.9331  156.3572 LP  0  0  0  0  0  0  0  0  0  0  0  0  # atno 17394 bound_to 11000
  140.9461  133.7482  156.0210 LP  0  0  0  0  0  0  0  0  0  0  0  0  # atno 17395 bound_to 11000

$$$$
