AV-unprocessed.smi:2061|AV-procd|sdf|8369|dock9
  -GOLD-   2272011 43D 1   1.00000     0.00000
 Structure written by MMmdl.
 46 47  0  0  0  0  0  0  0  0  2 V2000
  153.7264  142.3651  159.7412 C   0  0  0  0  0  0  0  0  0  0  0  0
  152.8337  142.7103  158.5991 C   0  0  0  0  0  0  0  0  0  0  0  0
  151.9346  141.9853  157.8686 C   0  0  0  0  0  0  0  0  0  0  0  0
  151.4428  142.9348  156.9339 C   0  0  0  0  0  0  0  0  0  0  0  0
  150.4713  142.5701  155.9672 N   0  0  0  0  0  0  0  0  0  0  0  0
  150.0685  141.3300  155.6408 C   0  0  0  0  0  0  0  0  0  0  0  0
  150.5069  140.2882  156.1294 O   0  0  0  0  0  0  0  0  0  0  0  0
  149.1089  141.3566  154.7047 N   0  0  0  0  0  0  0  0  0  0  0  0
  148.4572  140.1736  154.1501 C   0  0  0  0  0  0  0  0  0  0  0  0
  147.2455  140.5150  153.2428 C   0  0  1  0  0  0  0  0  0  0  0  0
  146.7966  139.2591  152.4569 C   0  0  0  0  0  0  0  0  0  0  0  0
  146.1543  141.1394  154.0599 N   0  3  1  0  0  0  0  0  0  0  0  0
  146.0339  140.5183  155.4066 C   0  0  0  0  0  0  0  0  0  0  0  0
  144.8320  141.0799  156.1890 C   0  0  2  0  0  0  0  0  0  0  0  0
  143.4708  140.5884  155.6655 C   0  0  0  0  0  0  0  0  0  0  0  0
  144.9121  142.5019  156.2506 O   0  0  0  0  0  0  0  0  0  0  0  0
  144.9911  143.1453  154.9836 C   0  0  1  0  0  0  0  0  0  0  0  0
  145.0751  144.6561  155.2291 C   0  0  0  0  0  0  0  0  0  0  0  0
  146.2110  142.6193  154.2043 C   0  0  0  0  0  0  0  0  0  0  0  0
  151.9902  144.1315  157.0819 N   0  0  0  0  0  0  0  0  0  0  0  0
  152.8842  143.9936  158.1502 O   0  0  0  0  0  0  0  0  0  0  0  0
  153.5953  141.3242  160.0378 H   0  0  0  0  0  0  0  0  0  0  0  0
  153.5094  142.9931  160.6054 H   0  0  0  0  0  0  0  0  0  0  0  0
  154.7725  142.5099  159.4709 H   0  0  0  0  0  0  0  0  0  0  0  0
  151.6756  140.9437  157.9856 H   0  0  0  0  0  0  0  0  0  0  0  0
  150.0284  143.3361  155.4819 H   0  0  0  0  0  0  0  0  0  0  0  0
  148.8063  142.2538  154.3544 H   0  0  0  0  0  0  0  0  0  0  0  0
  149.2016  139.6219  153.5751 H   0  0  0  0  0  0  0  0  0  0  0  0
  148.1767  139.5221  154.9772 H   0  0  0  0  0  0  0  0  0  0  0  0
  147.5568  141.2501  152.4988 H   0  0  0  0  0  0  0  0  0  0  0  0
  147.6198  138.8212  151.8929 H   0  0  0  0  0  0  0  0  0  0  0  0
  146.0271  139.4915  151.7205 H   0  0  0  0  0  0  0  0  0  0  0  0
  146.4119  138.4868  153.1237 H   0  0  0  0  0  0  0  0  0  0  0  0
  145.9410  139.4357  155.3403 H   0  0  0  0  0  0  0  0  0  0  0  0
  146.9499  140.7133  155.9669 H   0  0  0  0  0  0  0  0  0  0  0  0
  144.9161  140.7313  157.2188 H   0  0  0  0  0  0  0  0  0  0  0  0
  143.3886  139.5056  155.7618 H   0  0  0  0  0  0  0  0  0  0  0  0
  143.3173  140.8306  154.6143 H   0  0  0  0  0  0  0  0  0  0  0  0
  142.6529  141.0314  156.2344 H   0  0  0  0  0  0  0  0  0  0  0  0
  144.0823  142.9487  154.4143 H   0  0  0  0  0  0  0  0  0  0  0  0
  145.1281  145.2055  154.2889 H   0  0  0  0  0  0  0  0  0  0  0  0
  145.9569  144.9130  155.8169 H   0  0  0  0  0  0  0  0  0  0  0  0
  144.1990  145.0123  155.7715 H   0  0  0  0  0  0  0  0  0  0  0  0
  147.1373  142.9019  154.7072 H   0  0  0  0  0  0  0  0  0  0  0  0
  146.2050  143.1050  153.2290 H   0  0  0  0  0  0  0  0  0  0  0  0
  145.2934  140.9465  153.5684 H   0  0  0  0  0  0  0  0  0  0  0  0
  1  2  1  0  0  0  0
  1 22  1  0  0  0  0
  1 23  1  0  0  0  0
  1 24  1  0  0  0  0
  2 21  1  0  0  0  0
  2  3  2  0  0  0  0
  3  4  1  0  0  0  0
  3 25  1  0  0  0  0
  4  5  1  0  0  0  0
  4 20  2  0  0  0  0
  5  6  1  0  0  0  0
  5 26  1  0  0  0  0
  6  7  2  0  0  0  0
  6  8  1  0  0  0  0
  8  9  1  0  0  0  0
  8 27  1  0  0  0  0
  9 10  1  0  0  0  0
  9 28  1  0  0  0  0
  9 29  1  0  0  0  0
 10 11  1  0  0  0  0
 10 12  1  0  0  0  0
 10 30  1  0  0  0  0
 11 31  1  0  0  0  0
 11 32  1  0  0  0  0
 11 33  1  0  0  0  0
 12 19  1  0  0  0  0
 12 13  1  0  0  0  0
 12 46  1  0  0  0  0
 13 14  1  0  0  0  0
 13 34  1  0  0  0  0
 13 35  1  0  0  0  0
 14 15  1  0  0  0  0
 14 16  1  0  0  0  0
 14 36  1  0  0  0  0
 15 37  1  0  0  0  0
 15 38  1  0  0  0  0
 15 39  1  0  0  0  0
 16 17  1  0  0  0  0
 17 18  1  0  0  0  0
 17 19  1  0  0  0  0
 17 40  1  0  0  0  0
 18 41  1  0  0  0  0
 18 42  1  0  0  0  0
 18 43  1  0  0  0  0
 19 44  1  0  0  0  0
 19 45  1  0  0  0  0
 20 21  1  0  0  0  0
M  CHG  1  12   1
M  END
> <s_m_source_file>
AV-unprocessed.smi

> <i_m_source_file_index>
2061

> <i_lp_mmshare_version>
43012

> <i_f3d_flags>
0

> <s_epik_input>
W0NIM11jMVtjSF1jKG5vMSlbTkhdQyg9TylbTkhdW0NIMl1bQ0BIXShbQ0gzXSlOMltDSDJdW0NAQEhdKFtDSDNdKU9bQ0BASF0oW0NIM10pW0NIMl0y

> <s_epik_cmdline>
J2VwaWtfcHl0aG9uJywgJy1waCcsICc3LjAnLCAnLXRuJywgJzgnLCAnLW1hJywgJzIwMCcsICctbWV0YWxfYmluZGluZycsICctaW1hZScsICc8aW5maWxlLm1hZT4nLCAnLW9tYWUnLCAnPG91dGZpbGUubWFlPic=

> <r_epik_Ionization_Penalty>
0.707076

> <r_epik_Ionization_Penalty_Charging>
0.707039

> <r_epik_Ionization_Penalty_Neutral>
3.6548e-05

> <r_epik_State_Penalty>
0.730276

> <r_epik_Charging_Adjusted_Penalty>
1.43732

> <i_epik_Tot_Q>
1

> <i_epik_Tot_abs_Q>
1

> <r_epik_Metal_State_Penalty>
0.743132

> <b_epik_Metal_Only>
0

> <s_lp_Force_Field>
OPLS_2005

> <r_lp_Energy>
19.7872

> <b_lp_Chiralities_Consistent>
1

> <s_lp_Variant>
AV-unprocessed.smi:2061-10

> <Gold.Version>
5.8.1

> <Gold.Id.Protein>
6NUR|6NUR_protein|mol2

> <Gold.PLP.Fitness>
41.2208

> <Gold.PLP.PLP>
-33.7074

> <Gold.PLP.part.hbond>
-2.0000

> <Gold.PLP.part.metal>
0.0000

> <Gold.PLP.part.buried>
-6.6128

> <Gold.PLP.part.nonpolar>
-26.4044

> <Gold.PLP.part.repulsive>
0.4699

> <Gold.PLP.ligand.clash>
0.0000

> <Gold.PLP.ligand.torsion>
0.7665

> <Gold.PLP.Chemscore.Hbond>
3.0000

> <Gold.PLP.Chemscore.CHOScore>
0.0000

> <Gold.PLP.Chemscore.Metal>
0.0000

> <Gold.Chemscore.Hbonds>
donor molecule, donor type, donor heavy atom, donor atom, acceptor molecule, acceptor atom, score
      L1  H     5    26       P1  8028  0.91
      L1  H    12    46       P1 10175  2.00

> <Gold.PLP.Chemscore.Internal.Correction>
0.0465

> <Gold.Rescore>
     Score         DG    S(hbond)    S(metal)    S(lipo)     H(rot)  DE(clash)    DE(int)     intcor
     13.82     -15.97       1.94        0.00      68.96       1.58       0.01       2.14       ----

> <Gold.Chemscore.Fitness>
13.8184

> <Gold.Chemscore.DG>
-15.9692

> <Gold.Chemscore.ZeroCoef>
-5.4800

> <Gold.Chemscore.Hbond>
1.9384

> <Gold.Chemscore.Metal>
0.0000

> <Gold.Chemscore.Lipo>
68.9622

> <Gold.Chemscore.Internal_Hbond>
0.0000

> <Gold.Chemscore.DEClash>
0.0115

> <Gold.Chemscore.DEInternal>
2.1394

> <Gold.Chemscore.Rot>
1.5834

> <Gold.Chemscore.Internal.Correction>
   9.000000E+99

> <Gold.Chemscore.Hbonds>
donor molecule, donor type, donor heavy atom, donor atom, acceptor molecule, acceptor atom, score
      L1  H     5    26       P1  8028  0.88
      L1  H    12    46       P1 10175  0.72

> <Gold.Chemscore.Hbond.Weighted>
-6.4741

> <Gold.Chemscore.Metal.Weighted>
-0.0000

> <Gold.Chemscore.Lipo.Weighted>
-8.0686

> <Gold.Chemscore.Internal_Hbond.Weighted>
0.0000

> <Gold.Chemscore.DEClash.Weighted>
0.0115

> <Gold.Chemscore.DEInternal.Weighted>
2.1394

> <Gold.Chemscore.Rot.Weighted>
4.0535

> <Gold.Chemscore.Internal.Correction.Weighted>
   9.000000E+99

> <Gold.Protein.RotatedTorsions>
[ 6907 6896 6895 6894 ] final   34.35 input  -60.11 | X-H torsion
[ 7974 7965 7964 7962 ] final  159.36 input  175.53 | X-H torsion
[ 8008 7997 7996 7995 ] final  -62.87 input   59.86 | X-H torsion
[ 10167 10162 10161 10158 ] final  160.93 input  -65.29 | X-H torsion
[ 10718 10713 10712 10709 ] final   49.52 input   66.30 | X-H torsion
[ 10763 10752 10751 10750 ] final  -14.55 input  -60.55 | X-H torsion
[ 11005 11000 10999 10996 ] final  120.63 input  -57.11 | X-H torsion

> <Gold.Protein.ActiveResidues>
 VAL166  LYS551  ARG553  GLY616  TRP617  ASP618  TYR619  PRO620  LYS621  CYS622 
 ASP623  PHE694  ASN695  SER759  ASP760  ASP761  ALA762  ILE779  LEU786  VAL792 
 PHE793  MET794  SER795  GLU796  ALA797  LYS798  CYS799  TRP800  GLU811  SER814 

> <Gold.Protein.RotatedAtoms>
  152.1011  134.9341  160.0569 H   0  0  0  0  0  0  0  0  0  0  0  0  # atno 6907 bound_to 6896
  152.0554  133.4033  159.4403 H   0  0  0  0  0  0  0  0  0  0  0  0  # atno 6908 bound_to 6896
  150.6839  134.3180  159.4818 H   0  0  0  0  0  0  0  0  0  0  0  0  # atno 6909 bound_to 6896
  144.7795  139.7606  143.6265 H   0  0  0  0  0  0  0  0  0  0  0  0  # atno 7974 bound_to 7965
  154.4523  140.0987  156.6654 H   0  0  0  0  0  0  0  0  0  0  0  0  # atno 8008 bound_to 7997
  155.5247  140.3480  155.4395 H   0  0  0  0  0  0  0  0  0  0  0  0  # atno 8009 bound_to 7997
  156.0706  140.1348  156.9822 H   0  0  0  0  0  0  0  0  0  0  0  0  # atno 8010 bound_to 7997
  139.4844  144.4586  151.8735 H   0  0  0  0  0  0  0  0  0  0  0  0  # atno 10167 bound_to 10162
  157.4795  130.8306  149.8077 H   0  0  0  0  0  0  0  0  0  0  0  0  # atno 10718 bound_to 10713
  153.5300  135.7015  153.5688 H   0  0  0  0  0  0  0  0  0  0  0  0  # atno 10763 bound_to 10752
  153.3700  135.3947  155.1781 H   0  0  0  0  0  0  0  0  0  0  0  0  # atno 10764 bound_to 10752
  154.8686  135.3809  154.4796 H   0  0  0  0  0  0  0  0  0  0  0  0  # atno 10765 bound_to 10752
  139.9193  134.9635  156.7836 H   0  0  0  0  0  0  0  0  0  0  0  0  # atno 11005 bound_to 11000
  146.1994  139.5280  142.9753 LP  0  0  0  0  0  0  0  0  0  0  0  0  # atno 17320 bound_to 7965
  145.6091  141.0342  143.1976 LP  0  0  0  0  0  0  0  0  0  0  0  0  # atno 17321 bound_to 7965
  140.4047  144.2447  150.5891 LP  0  0  0  0  0  0  0  0  0  0  0  0  # atno 17342 bound_to 10162
  140.5023  143.2314  151.8659 LP  0  0  0  0  0  0  0  0  0  0  0  0  # atno 17343 bound_to 10162
  156.0114  130.3832  150.2253 LP  0  0  0  0  0  0  0  0  0  0  0  0  # atno 17370 bound_to 10713
  157.0438  131.0043  151.3275 LP  0  0  0  0  0  0  0  0  0  0  0  0  # atno 17371 bound_to 10713
  140.6524  133.9719  155.7762 LP  0  0  0  0  0  0  0  0  0  0  0  0  # atno 17394 bound_to 11000
  141.0699  134.0221  157.3541 LP  0  0  0  0  0  0  0  0  0  0  0  0  # atno 17395 bound_to 11000

$$$$
