AV-unprocessed.smi:149|AV-procd|sdf|1236|dock6
  -GOLD-   2262018443D 1   1.00000     0.00000
 Structure written by MMmdl.
 60 64  0  0  0  0  0  0  0  0  2 V2000
  147.9996  141.7969  156.9004 C   0  0  0  0  0  0  0  0  0  0  0  0
  148.9877  141.4446  155.7697 C   0  0  2  0  0  0  0  0  0  0  0  0
  148.3764  140.3966  154.8242 C   0  0  0  0  0  0  0  0  0  0  0  0
  148.9254  139.1100  155.2347 N   0  0  0  0  0  0  0  0  0  0  0  0
  148.2312  137.9567  155.0534 C   0  0  0  0  0  0  0  0  0  0  0  0
  148.4338  136.9292  155.9202 N   0  0  0  0  0  0  0  0  0  0  0  0
  147.7746  135.7767  155.7720 C   0  0  0  0  0  0  0  0  0  0  0  0
  146.8819  135.4408  154.8400 N   0  0  0  0  0  0  0  0  0  0  0  0
  146.6757  136.4622  153.9606 C   0  0  0  0  0  0  0  0  0  0  0  0
  147.3073  137.7393  153.9886 C   0  0  0  0  0  0  0  0  0  0  0  0
  146.8657  138.5013  152.9122 N   0  0  0  0  0  0  0  0  0  0  0  0
  146.0233  137.7239  152.2896 C   0  0  0  0  0  0  0  0  0  0  0  0
  145.8248  136.4917  152.8685 N   0  0  0  0  0  0  0  0  0  0  0  0
  144.9904  135.4373  152.3694 C   0  0  0  0  0  0  0  0  0  0  0  0
  145.1522  133.9991  152.8731 C   0  0  0  0  0  0  0  0  0  0  0  0
  144.8462  133.4553  151.4595 C   0  0  0  0  0  0  0  0  0  0  0  0
  145.8066  132.3549  150.9828 C   0  0  0  0  0  0  0  0  0  0  0  0
  147.1473  132.6572  151.3119 O   0  0  0  0  0  0  0  0  0  0  0  0
  143.4087  132.9414  151.2214 C   0  0  0  0  0  0  0  0  0  0  0  0
  143.1828  132.5051  149.8963 O   0  0  0  0  0  0  0  0  0  0  0  0
  145.1789  134.8772  150.9565 C   0  0  0  0  0  0  0  0  0  0  0  0
  149.8372  139.2875  156.3548 C   0  0  0  0  0  0  0  0  0  0  0  0
  150.2798  140.7507  156.2476 C   0  0  2  0  0  0  0  0  0  0  0  0
  150.8833  141.3255  157.4831 N   0  3  0  0  0  0  0  0  0  0  0  0
  151.9955  140.5151  158.0427 C   0  0  0  0  0  0  0  0  0  0  0  0
  152.5398  141.1579  159.3304 C   0  0  0  0  0  0  0  0  0  0  0  0
  152.9595  142.4892  159.0639 O   0  0  0  0  0  0  0  0  0  0  0  0
  151.8838  143.3017  158.6144 C   0  0  0  0  0  0  0  0  0  0  0  0
  151.3246  142.7322  157.3006 C   0  0  0  0  0  0  0  0  0  0  0  0
  147.7318  140.9197  157.4899 H   0  0  0  0  0  0  0  0  0  0  0  0
  147.0771  142.2104  156.4921 H   0  0  0  0  0  0  0  0  0  0  0  0
  148.4105  142.5424  157.5807 H   0  0  0  0  0  0  0  0  0  0  0  0
  149.2190  142.3551  155.2160 H   0  0  0  0  0  0  0  0  0  0  0  0
  147.2863  140.4101  154.8634 H   0  0  0  0  0  0  0  0  0  0  0  0
  148.6786  140.5896  153.7944 H   0  0  0  0  0  0  0  0  0  0  0  0
  147.9924  135.0146  156.5056 H   0  0  0  0  0  0  0  0  0  0  0  0
  145.5173  138.0338  151.3866 H   0  0  0  0  0  0  0  0  0  0  0  0
  143.9652  135.7813  152.5103 H   0  0  0  0  0  0  0  0  0  0  0  0
  146.1721  133.7855  153.1969 H   0  0  0  0  0  0  0  0  0  0  0  0
  144.4347  133.7100  153.6417 H   0  0  0  0  0  0  0  0  0  0  0  0
  145.5610  131.3985  151.4455 H   0  0  0  0  0  0  0  0  0  0  0  0
  145.7311  132.2039  149.9055 H   0  0  0  0  0  0  0  0  0  0  0  0
  147.7021  131.9712  150.9733 H   0  0  0  0  0  0  0  0  0  0  0  0
  143.1784  132.1047  151.8814 H   0  0  0  0  0  0  0  0  0  0  0  0
  142.6787  133.7213  151.4404 H   0  0  0  0  0  0  0  0  0  0  0  0
  142.4297  132.9620  149.5544 H   0  0  0  0  0  0  0  0  0  0  0  0
  144.4815  135.2760  150.2193 H   0  0  0  0  0  0  0  0  0  0  0  0
  146.2086  134.9722  150.6077 H   0  0  0  0  0  0  0  0  0  0  0  0
  149.3125  139.0995  157.2928 H   0  0  0  0  0  0  0  0  0  0  0  0
  150.6827  138.6020  156.2847 H   0  0  0  0  0  0  0  0  0  0  0  0
  151.0202  140.8127  155.4474 H   0  0  0  0  0  0  0  0  0  0  0  0
  151.6574  139.5055  158.2743 H   0  0  0  0  0  0  0  0  0  0  0  0
  152.7924  140.4260  157.3025 H   0  0  0  0  0  0  0  0  0  0  0  0
  151.7842  141.1531  160.1177 H   0  0  0  0  0  0  0  0  0  0  0  0
  153.3909  140.5882  159.7041 H   0  0  0  0  0  0  0  0  0  0  0  0
  151.1070  143.3583  159.3788 H   0  0  0  0  0  0  0  0  0  0  0  0
  152.2505  144.3163  158.4571 H   0  0  0  0  0  0  0  0  0  0  0  0
  152.0892  142.7776  156.5234 H   0  0  0  0  0  0  0  0  0  0  0  0
  150.4951  143.3541  156.9653 H   0  0  0  0  0  0  0  0  0  0  0  0
  150.1551  141.3328  158.1828 H   0  0  0  0  0  0  0  0  0  0  0  0
  1  2  1  0  0  0  0
  1 30  1  0  0  0  0
  1 31  1  0  0  0  0
  1 32  1  0  0  0  0
  2 23  1  0  0  0  0
  2  3  1  0  0  0  0
  2 33  1  0  0  0  0
  3  4  1  0  0  0  0
  3 34  1  0  0  0  0
  3 35  1  0  0  0  0
  4  5  1  0  0  0  0
  4 22  1  0  0  0  0
  5 10  1  0  0  0  0
  5  6  2  0  0  0  0
  6  7  1  0  0  0  0
  7  8  2  0  0  0  0
  7 36  1  0  0  0  0
  8  9  1  0  0  0  0
  9 13  1  0  0  0  0
  9 10  2  0  0  0  0
 10 11  1  0  0  0  0
 11 12  2  0  0  0  0
 12 13  1  0  0  0  0
 12 37  1  0  0  0  0
 13 14  1  0  0  0  0
 14 21  1  0  0  0  0
 14 15  1  0  0  0  0
 14 38  1  0  0  0  0
 15 16  1  0  0  0  0
 15 39  1  0  0  0  0
 15 40  1  0  0  0  0
 16 17  1  0  0  0  0
 16 19  1  0  0  0  0
 16 21  1  0  0  0  0
 17 18  1  0  0  0  0
 17 41  1  0  0  0  0
 17 42  1  0  0  0  0
 18 43  1  0  0  0  0
 19 20  1  0  0  0  0
 19 44  1  0  0  0  0
 19 45  1  0  0  0  0
 20 46  1  0  0  0  0
 21 47  1  0  0  0  0
 21 48  1  0  0  0  0
 22 23  1  0  0  0  0
 22 49  1  0  0  0  0
 22 50  1  0  0  0  0
 23 24  1  0  0  0  0
 23 51  1  0  0  0  0
 24 29  1  0  0  0  0
 24 25  1  0  0  0  0
 24 60  1  0  0  0  0
 25 26  1  0  0  0  0
 25 52  1  0  0  0  0
 25 53  1  0  0  0  0
 26 27  1  0  0  0  0
 26 54  1  0  0  0  0
 26 55  1  0  0  0  0
 27 28  1  0  0  0  0
 28 29  1  0  0  0  0
 28 56  1  0  0  0  0
 28 57  1  0  0  0  0
 29 58  1  0  0  0  0
 29 59  1  0  0  0  0
M  CHG  1  24   1
M  END
> <s_m_source_file>
AV-unprocessed.smi

> <i_m_source_file_index>
149

> <i_lp_mmshare_version>
43012

> <i_f3d_flags>
0

> <s_epik_input>
W0NIMl0xW0NIMl1PW0NIMl1bQ0gyXU4xW0NAQEhdMltDSDJdTihbQ0gyXVtDQEhdMltDSDNdKWMobltjSF1uMyljKGMzNCluW2NIXW40W0NIXShbQ0gyXTUpW0NIMl1DNShbQ0gyXVtPSF0pW0NIMl1bT0hd

> <s_epik_cmdline>
J2VwaWtfcHl0aG9uJywgJy1waCcsICc3LjAnLCAnLXRuJywgJzgnLCAnLW1hJywgJzIwMCcsICctbWV0YWxfYmluZGluZycsICctaW1hZScsICc8aW5maWxlLm1hZT4nLCAnLW9tYWUnLCAnPG91dGZpbGUubWFlPic=

> <r_lp_tautomer_probability>
1

> <r_epik_Ionization_Penalty>
0.404847

> <r_epik_Ionization_Penalty_Charging>
0.404623

> <r_epik_Ionization_Penalty_Neutral>
0.000224096

> <r_epik_State_Penalty>
0.238803

> <r_epik_Charging_Adjusted_Penalty>
0.643425

> <i_epik_Tot_Q>
1

> <i_epik_Tot_abs_Q>
1

> <r_epik_Metal_State_Penalty>
0.239083

> <b_epik_Metal_Only>
0

> <s_lp_Force_Field>
OPLS_2005

> <r_lp_Energy>
71.321

> <b_lp_Chiralities_Consistent>
1

> <s_lp_Variant>
AV-unprocessed.smi:149-3

> <Gold.Version>
5.8.1

> <Gold.Id.Protein>
6NUR|6NUR_protein|mol2

> <Gold.PLP.Fitness>
44.6762

> <Gold.PLP.PLP>
-36.2033

> <Gold.PLP.part.hbond>
-2.2603

> <Gold.PLP.part.metal>
0.0000

> <Gold.PLP.part.buried>
-6.4424

> <Gold.PLP.part.nonpolar>
-29.1087

> <Gold.PLP.part.repulsive>
0.4326

> <Gold.PLP.ligand.clash>
0.0000

> <Gold.PLP.ligand.torsion>
0.6069

> <Gold.PLP.Chemscore.Hbond>
2.0000

> <Gold.PLP.Chemscore.CHOScore>
1.0000

> <Gold.PLP.Chemscore.Metal>
0.0000

> <Gold.Chemscore.Hbonds>
donor molecule, donor type, donor heavy atom, donor atom, acceptor molecule, acceptor atom, score
      L1  H    18    43       P1 10747  1.00
      L1  H    20    46       P1 10186  0.99
      L1  C    12    37       P1 10171  1.00

> <Gold.PLP.Chemscore.Internal.Correction>
0.6868

> <Gold.Rescore>
     Score         DG    S(hbond)    S(metal)    S(lipo)     H(rot)  DE(clash)    DE(int)     intcor
     13.08     -15.07       2.00        0.00      92.52       3.09       0.05       1.94       ----

> <Gold.Chemscore.Fitness>
13.0815

> <Gold.Chemscore.DG>
-15.0714

> <Gold.Chemscore.ZeroCoef>
-5.4800

> <Gold.Chemscore.Hbond>
2.0000

> <Gold.Chemscore.Metal>
0.0000

> <Gold.Chemscore.Lipo>
92.5212

> <Gold.Chemscore.Internal_Hbond>
0.0000

> <Gold.Chemscore.DEClash>
0.0516

> <Gold.Chemscore.DEInternal>
1.9383

> <Gold.Chemscore.Rot>
3.0912

> <Gold.Chemscore.Internal.Correction>
   9.000000E+99

> <Gold.Chemscore.Hbonds>
donor molecule, donor type, donor heavy atom, donor atom, acceptor molecule, acceptor atom, score
      L1  H    18    43       P1 10747  1.00
      L1  H    20    46       P1 10186  0.91

> <Gold.Chemscore.Hbond.Weighted>
-6.6799

> <Gold.Chemscore.Metal.Weighted>
-0.0000

> <Gold.Chemscore.Lipo.Weighted>
-10.8250

> <Gold.Chemscore.Internal_Hbond.Weighted>
0.0000

> <Gold.Chemscore.DEClash.Weighted>
0.0516

> <Gold.Chemscore.DEInternal.Weighted>
1.9383

> <Gold.Chemscore.Rot.Weighted>
7.9135

> <Gold.Chemscore.Internal.Correction.Weighted>
   9.000000E+99

> <Gold.Protein.RotatedTorsions>
[ 6907 6896 6895 6894 ] final -151.42 input  -60.11 | X-H torsion
[ 7974 7965 7964 7962 ] final -149.47 input  175.53 | X-H torsion
[ 8008 7997 7996 7995 ] final -109.24 input   59.86 | X-H torsion
[ 10167 10162 10161 10158 ] final  -20.61 input  -65.29 | X-H torsion
[ 10718 10713 10712 10709 ] final -155.37 input   66.30 | X-H torsion
[ 10763 10752 10751 10750 ] final   -3.61 input  -60.55 | X-H torsion
[ 11005 11000 10999 10996 ] final  125.44 input  -57.11 | X-H torsion

> <Gold.Protein.ActiveResidues>
 VAL166  LYS551  ARG553  GLY616  TRP617  ASP618  TYR619  PRO620  LYS621  CYS622 
 ASP623  PHE694  ASN695  SER759  ASP760  ASP761  ALA762  ILE779  LEU786  VAL792 
 PHE793  MET794  SER795  GLU796  ALA797  LYS798  CYS799  TRP800  GLU811  SER814 

> <Gold.Protein.RotatedAtoms>
  151.2128  133.4546  159.2598 H   0  0  0  0  0  0  0  0  0  0  0  0  # atno 6907 bound_to 6896
  151.0960  134.9944  159.8436 H   0  0  0  0  0  0  0  0  0  0  0  0  # atno 6908 bound_to 6896
  152.5439  134.2058  159.8783 H   0  0  0  0  0  0  0  0  0  0  0  0  # atno 6909 bound_to 6896
  144.7966  140.5061  143.5736 H   0  0  0  0  0  0  0  0  0  0  0  0  # atno 7974 bound_to 7965
  154.9564  140.0400  157.2169 H   0  0  0  0  0  0  0  0  0  0  0  0  # atno 8008 bound_to 7997
  154.7930  140.2839  155.5955 H   0  0  0  0  0  0  0  0  0  0  0  0  # atno 8009 bound_to 7997
  156.2952  140.2569  156.2782 H   0  0  0  0  0  0  0  0  0  0  0  0  # atno 8010 bound_to 7997
  140.7277  143.4706  151.0252 H   0  0  0  0  0  0  0  0  0  0  0  0  # atno 10167 bound_to 10162
  156.5119  130.8439  151.2649 H   0  0  0  0  0  0  0  0  0  0  0  0  # atno 10718 bound_to 10713
  153.3737  135.6995  153.6618 H   0  0  0  0  0  0  0  0  0  0  0  0  # atno 10763 bound_to 10752
  153.5258  135.3602  155.2653 H   0  0  0  0  0  0  0  0  0  0  0  0  # atno 10764 bound_to 10752
  154.8684  135.4169  154.3020 H   0  0  0  0  0  0  0  0  0  0  0  0  # atno 10765 bound_to 10752
  139.9407  134.9636  156.8559 H   0  0  0  0  0  0  0  0  0  0  0  0  # atno 11005 bound_to 11000
  145.5659  139.1481  143.3315 LP  0  0  0  0  0  0  0  0  0  0  0  0  # atno 17320 bound_to 7965
  146.2235  140.5793  142.9006 LP  0  0  0  0  0  0  0  0  0  0  0  0  # atno 17321 bound_to 7965
  139.8398  143.7579  152.3180 LP  0  0  0  0  0  0  0  0  0  0  0  0  # atno 17342 bound_to 10162
  139.7724  144.7472  151.0206 LP  0  0  0  0  0  0  0  0  0  0  0  0  # atno 17343 bound_to 10162
  157.7449  130.9947  150.2716 LP  0  0  0  0  0  0  0  0  0  0  0  0  # atno 17370 bound_to 10713
  156.3232  130.3789  149.7556 LP  0  0  0  0  0  0  0  0  0  0  0  0  # atno 17371 bound_to 10713
  140.5960  134.0217  155.7518 LP  0  0  0  0  0  0  0  0  0  0  0  0  # atno 17394 bound_to 11000
  141.1040  133.9724  157.3030 LP  0  0  0  0  0  0  0  0  0  0  0  0  # atno 17395 bound_to 11000

$$$$
