AV-unprocessed.smi:1762|AV-procd|sdf|7106|dock3
  -GOLD-   22720 8323D 1   1.00000     0.00000
 Structure written by MMmdl.
 53 54  0  0  0  0  0  0  0  0  2 V2000
  148.4079  136.5978  159.5973 C   0  0  0  0  0  0  0  0  0  0  0  0
  148.5750  136.2852  158.1060 C   0  0  1  0  0  0  0  0  0  0  0  0
  148.8577  137.5489  157.2704 C   0  0  0  0  0  0  0  0  0  0  0  0
  149.1072  137.2504  155.8493 N   0  0  0  0  0  0  0  0  0  0  0  0
  149.3773  138.4505  155.0085 C   0  0  2  0  0  0  0  0  0  0  0  0
  150.6027  139.2684  155.4821 C   0  0  0  0  0  0  0  0  0  0  0  0
  151.6852  139.1634  154.9043 O   0  0  0  0  0  0  0  0  0  0  0  0
  150.4117  140.0877  156.5285 N   0  0  0  0  0  0  0  0  0  0  0  0
  151.4381  140.9323  157.1272 C   0  0  0  0  0  0  0  0  0  0  0  0
  151.2908  142.3986  156.6868 C   0  0  0  0  0  0  0  0  0  0  0  0
  151.4638  143.3649  157.8425 C   0  0  0  0  0  0  0  0  0  0  0  0
  152.4706  143.1957  158.8178 C   0  0  0  0  0  0  0  0  0  0  0  0
  152.5822  144.1359  159.8635 C   0  0  0  0  0  0  0  0  0  0  0  0
  151.6871  145.2249  159.9109 C   0  0  0  0  0  0  0  0  0  0  0  0
  150.7014  145.3459  158.9101 C   0  0  0  0  0  0  0  0  0  0  0  0
  150.6262  144.4241  157.9249 N   0  3  0  0  0  0  0  0  0  0  0  0
  148.1446  139.3887  154.7789 C   0  0  0  0  0  0  0  0  0  0  0  0
  146.9622  138.6924  154.0745 C   0  0  0  0  0  0  0  0  0  0  0  0
  148.4917  140.7087  154.0625 C   0  0  0  0  0  0  0  0  0  0  0  0
  150.1720  136.2430  155.7668 C   0  0  0  0  0  0  0  0  0  0  0  0
  149.8752  134.9893  156.6117 C   0  0  1  0  0  0  0  0  0  0  0  0
  151.0282  133.9796  156.5802 C   0  0  0  0  0  0  0  0  0  0  0  0
  149.6594  135.3766  157.9626 O   0  0  0  0  0  0  0  0  0  0  0  0
  147.5755  137.2818  159.7645 H   0  0  0  0  0  0  0  0  0  0  0  0
  149.3074  137.0574  160.0078 H   0  0  0  0  0  0  0  0  0  0  0  0
  148.2094  135.6889  160.1658 H   0  0  0  0  0  0  0  0  0  0  0  0
  147.6620  135.8073  157.7463 H   0  0  0  0  0  0  0  0  0  0  0  0
  147.9960  138.2040  157.3929 H   0  0  0  0  0  0  0  0  0  0  0  0
  149.7148  138.0792  157.6896 H   0  0  0  0  0  0  0  0  0  0  0  0
  149.6455  138.0766  154.0179 H   0  0  0  0  0  0  0  0  0  0  0  0
  149.4901  140.1231  156.9400 H   0  0  0  0  0  0  0  0  0  0  0  0
  151.3978  140.8533  158.2152 H   0  0  0  0  0  0  0  0  0  0  0  0
  152.4114  140.5458  156.8239 H   0  0  0  0  0  0  0  0  0  0  0  0
  152.0257  142.6332  155.9152 H   0  0  0  0  0  0  0  0  0  0  0  0
  150.3111  142.5617  156.2352 H   0  0  0  0  0  0  0  0  0  0  0  0
  153.1508  142.3576  158.7664 H   0  0  0  0  0  0  0  0  0  0  0  0
  153.3457  144.0236  160.6195 H   0  0  0  0  0  0  0  0  0  0  0  0
  151.7564  145.9561  160.7031 H   0  0  0  0  0  0  0  0  0  0  0  0
  149.9764  146.1458  158.8683 H   0  0  0  0  0  0  0  0  0  0  0  0
  147.7448  139.6545  155.7561 H   0  0  0  0  0  0  0  0  0  0  0  0
  147.1795  138.4683  153.0296 H   0  0  0  0  0  0  0  0  0  0  0  0
  146.0749  139.3261  154.0894 H   0  0  0  0  0  0  0  0  0  0  0  0
  146.7025  137.7576  154.5719 H   0  0  0  0  0  0  0  0  0  0  0  0
  148.8159  140.5422  153.0356 H   0  0  0  0  0  0  0  0  0  0  0  0
  149.2851  141.2491  154.5791 H   0  0  0  0  0  0  0  0  0  0  0  0
  147.6244  141.3684  154.0255 H   0  0  0  0  0  0  0  0  0  0  0  0
  150.3051  135.9050  154.7412 H   0  0  0  0  0  0  0  0  0  0  0  0
  151.1216  136.6800  156.0811 H   0  0  0  0  0  0  0  0  0  0  0  0
  148.9748  134.5008  156.2348 H   0  0  0  0  0  0  0  0  0  0  0  0
  151.2242  133.6390  155.5632 H   0  0  0  0  0  0  0  0  0  0  0  0
  150.7945  133.1029  157.1844 H   0  0  0  0  0  0  0  0  0  0  0  0
  151.9475  134.4176  156.9700 H   0  0  0  0  0  0  0  0  0  0  0  0
  149.9046  144.5315  157.2115 H   0  0  0  0  0  0  0  0  0  0  0  0
  1  2  1  0  0  0  0
  1 24  1  0  0  0  0
  1 25  1  0  0  0  0
  1 26  1  0  0  0  0
  2 23  1  0  0  0  0
  2  3  1  0  0  0  0
  2 27  1  0  0  0  0
  3  4  1  0  0  0  0
  3 28  1  0  0  0  0
  3 29  1  0  0  0  0
  4  5  1  0  0  0  0
  4 20  1  0  0  0  0
  5  6  1  0  0  0  0
  5 17  1  0  0  0  0
  5 30  1  0  0  0  0
  6  7  2  0  0  0  0
  6  8  1  0  0  0  0
  8  9  1  0  0  0  0
  8 31  1  0  0  0  0
  9 10  1  0  0  0  0
  9 32  1  0  0  0  0
  9 33  1  0  0  0  0
 10 11  1  0  0  0  0
 10 34  1  0  0  0  0
 10 35  1  0  0  0  0
 11 16  1  0  0  0  0
 11 12  2  0  0  0  0
 12 13  1  0  0  0  0
 12 36  1  0  0  0  0
 13 14  2  0  0  0  0
 13 37  1  0  0  0  0
 14 15  1  0  0  0  0
 14 38  1  0  0  0  0
 15 16  2  0  0  0  0
 15 39  1  0  0  0  0
 16 53  1  0  0  0  0
 17 18  1  0  0  0  0
 17 19  1  0  0  0  0
 17 40  1  0  0  0  0
 18 41  1  0  0  0  0
 18 42  1  0  0  0  0
 18 43  1  0  0  0  0
 19 44  1  0  0  0  0
 19 45  1  0  0  0  0
 19 46  1  0  0  0  0
 20 21  1  0  0  0  0
 20 47  1  0  0  0  0
 20 48  1  0  0  0  0
 21 22  1  0  0  0  0
 21 23  1  0  0  0  0
 21 49  1  0  0  0  0
 22 50  1  0  0  0  0
 22 51  1  0  0  0  0
 22 52  1  0  0  0  0
M  CHG  1  16   1
M  END
> <s_m_source_file>
AV-unprocessed.smi

> <i_m_source_file_index>
1762

> <i_lp_mmshare_version>
43012

> <i_f3d_flags>
0

> <s_epik_input>
W0NIM11bQ0BASF0xW0NIMl1OKFtDSDJdW0NASF0oTzEpW0NIM10pW0NAQEhdKFtDSF0oW0NIM10pW0NIM10pQyg9TylbTkhdW0NIMl1bQ0gyXWMyW2NIXVtjSF1bY0hdW2NIXW4y

> <s_epik_cmdline>
J2VwaWtfcHl0aG9uJywgJy1waCcsICc3LjAnLCAnLXRuJywgJzgnLCAnLW1hJywgJzIwMCcsICctbWV0YWxfYmluZGluZycsICctaW1hZScsICc8aW5maWxlLm1hZT4nLCAnLW9tYWUnLCAnPG91dGZpbGUubWFlPic=

> <r_epik_Ionization_Penalty>
1.86475

> <r_epik_Ionization_Penalty_Charging>
1.85347

> <r_epik_Ionization_Penalty_Neutral>
0.0112771

> <r_epik_State_Penalty>
1.99714

> <r_epik_Charging_Adjusted_Penalty>
3.85061

> <i_epik_Tot_Q>
1

> <i_epik_Tot_abs_Q>
1

> <r_epik_Metal_State_Penalty>
2.02271

> <b_epik_Metal_Only>
0

> <s_lp_Force_Field>
OPLS_2005

> <r_lp_Energy>
32.9979

> <b_lp_Chiralities_Consistent>
1

> <s_lp_Variant>
AV-unprocessed.smi:1762-8

> <Gold.Version>
5.8.1

> <Gold.Id.Protein>
6NUR|6NUR_protein|mol2

> <Gold.PLP.Fitness>
48.1046

> <Gold.PLP.PLP>
-38.6706

> <Gold.PLP.part.hbond>
-3.4432

> <Gold.PLP.part.metal>
0.0000

> <Gold.PLP.part.buried>
-7.1493

> <Gold.PLP.part.nonpolar>
-28.5668

> <Gold.PLP.part.repulsive>
0.2428

> <Gold.PLP.ligand.clash>
0.0000

> <Gold.PLP.ligand.torsion>
1.2038

> <Gold.PLP.Chemscore.Hbond>
3.8424

> <Gold.PLP.Chemscore.CHOScore>
0.0000

> <Gold.PLP.Chemscore.Metal>
0.0000

> <Gold.Chemscore.Hbonds>
donor molecule, donor type, donor heavy atom, donor atom, acceptor molecule, acceptor atom, score
      L1  H    16    53       P1  8028  2.00
      P1  H  6896  6909       L1    23  0.99
      P1  H  7989  7998       L1     7  0.57

> <Gold.PLP.Chemscore.Internal.Correction>
0.3144

> <Gold.Rescore>
     Score         DG    S(hbond)    S(metal)    S(lipo)     H(rot)  DE(clash)    DE(int)     intcor
     18.01     -20.09       1.81        0.00     110.82       1.72       0.12       1.95       ----

> <Gold.Chemscore.Fitness>
18.0110

> <Gold.Chemscore.DG>
-20.0854

> <Gold.Chemscore.ZeroCoef>
-5.4800

> <Gold.Chemscore.Hbond>
1.8073

> <Gold.Chemscore.Metal>
0.0000

> <Gold.Chemscore.Lipo>
110.8169

> <Gold.Chemscore.Internal_Hbond>
0.0000

> <Gold.Chemscore.DEClash>
0.1219

> <Gold.Chemscore.DEInternal>
1.9524

> <Gold.Chemscore.Rot>
1.7174

> <Gold.Chemscore.Internal.Correction>
   9.000000E+99

> <Gold.Chemscore.Hbonds>
donor molecule, donor type, donor heavy atom, donor atom, acceptor molecule, acceptor atom, score
      L1  H    16    53       P1  8028  0.30
      P1  H  6896  6909       L1    23  0.87
      P1  H  7989  7998       L1     7  0.23

> <Gold.Chemscore.Hbond.Weighted>
-6.0363

> <Gold.Chemscore.Metal.Weighted>
-0.0000

> <Gold.Chemscore.Lipo.Weighted>
-12.9656

> <Gold.Chemscore.Internal_Hbond.Weighted>
0.0000

> <Gold.Chemscore.DEClash.Weighted>
0.1219

> <Gold.Chemscore.DEInternal.Weighted>
1.9524

> <Gold.Chemscore.Rot.Weighted>
4.3966

> <Gold.Chemscore.Internal.Correction.Weighted>
   9.000000E+99

> <Gold.Protein.RotatedTorsions>
[ 6907 6896 6895 6894 ] final   40.85 input  -60.11 | X-H torsion
[ 7974 7965 7964 7962 ] final -144.24 input  175.53 | X-H torsion
[ 8008 7997 7996 7995 ] final  -39.52 input   59.86 | X-H torsion
[ 10167 10162 10161 10158 ] final   88.18 input  -65.29 | X-H torsion
[ 10718 10713 10712 10709 ] final  177.34 input   66.30 | X-H torsion
[ 10763 10752 10751 10750 ] final -107.58 input  -60.55 | X-H torsion
[ 11005 11000 10999 10996 ] final  154.58 input  -57.11 | X-H torsion

> <Gold.Protein.ActiveResidues>
 VAL166  LYS551  ARG553  GLY616  TRP617  ASP618  TYR619  PRO620  LYS621  CYS622 
 ASP623  PHE694  ASN695  SER759  ASP760  ASP761  ALA762  ILE779  LEU786  VAL792 
 PHE793  MET794  SER795  GLU796  ALA797  LYS798  CYS799  TRP800  GLU811  SER814 

> <Gold.Protein.RotatedAtoms>
  152.1878  134.8698  160.0520 H   0  0  0  0  0  0  0  0  0  0  0  0  # atno 6907 bound_to 6896
  151.9598  133.3687  159.4039 H   0  0  0  0  0  0  0  0  0  0  0  0  # atno 6908 bound_to 6896
  150.6929  134.4176  159.5234 H   0  0  0  0  0  0  0  0  0  0  0  0  # atno 6909 bound_to 6896
  144.8312  140.5735  143.5514 H   0  0  0  0  0  0  0  0  0  0  0  0  # atno 7974 bound_to 7965
  154.4022  140.1549  156.2876 H   0  0  0  0  0  0  0  0  0  0  0  0  # atno 8008 bound_to 7997
  155.8814  140.3443  155.5868 H   0  0  0  0  0  0  0  0  0  0  0  0  # atno 8009 bound_to 7997
  155.7663  140.0824  157.2121 H   0  0  0  0  0  0  0  0  0  0  0  0  # atno 8010 bound_to 7997
  139.8699  144.6498  150.8961 H   0  0  0  0  0  0  0  0  0  0  0  0  # atno 10167 bound_to 10162
  156.9068  130.9897  151.3027 H   0  0  0  0  0  0  0  0  0  0  0  0  # atno 10718 bound_to 10713
  154.8084  135.4669  154.0451 H   0  0  0  0  0  0  0  0  0  0  0  0  # atno 10763 bound_to 10752
  153.1902  135.6854  153.8369 H   0  0  0  0  0  0  0  0  0  0  0  0  # atno 10764 bound_to 10752
  153.7890  135.3246  155.3353 H   0  0  0  0  0  0  0  0  0  0  0  0  # atno 10765 bound_to 10752
  140.1503  134.8679  157.2445 H   0  0  0  0  0  0  0  0  0  0  0  0  # atno 11005 bound_to 11000
  145.4892  139.1490  143.3719 LP  0  0  0  0  0  0  0  0  0  0  0  0  # atno 17320 bound_to 7965
  146.2614  140.5030  142.8852 LP  0  0  0  0  0  0  0  0  0  0  0  0  # atno 17321 bound_to 7965
  140.7762  143.3673  151.1716 LP  0  0  0  0  0  0  0  0  0  0  0  0  # atno 17342 bound_to 10162
  139.7294  143.9097  152.3014 LP  0  0  0  0  0  0  0  0  0  0  0  0  # atno 17343 bound_to 10162
  157.5992  130.8500  149.8776 LP  0  0  0  0  0  0  0  0  0  0  0  0  # atno 17370 bound_to 10713
  156.0555  130.3709  150.1101 LP  0  0  0  0  0  0  0  0  0  0  0  0  # atno 17371 bound_to 10713
  140.2613  134.3567  155.7405 LP  0  0  0  0  0  0  0  0  0  0  0  0  # atno 17394 bound_to 11000
  141.2198  133.7371  156.9084 LP  0  0  0  0  0  0  0  0  0  0  0  0  # atno 17395 bound_to 11000

$$$$
