AV-unprocessed.smi:692|AV-procd|sdf|3370|dock1
  -GOLD-   22720 0343D 1   1.00000     0.00000
 Structure written by MMmdl.
 36 37  0  0  0  0  0  0  0  0  2 V2000
  151.9226  144.3148  161.1094 C   0  0  0  0  0  0  0  0  0  0  0  0
  152.3936  144.3967  159.6532 C   0  0  0  0  0  0  0  0  0  0  0  0
  151.9498  143.2163  158.8441 C   0  0  0  0  0  0  0  0  0  0  0  0
  151.1137  143.2294  157.7580 C   0  0  0  0  0  0  0  0  0  0  0  0
  150.8690  141.6305  157.1154 S   0  0  0  0  0  0  0  0  0  0  0  0
  151.9250  140.9772  158.3698 C   0  0  0  0  0  0  0  0  0  0  0  0
  152.2410  139.6797  158.5114 N   0  5  0  0  0  0  0  0  0  0  0  0
  153.3610  139.3262  159.1820 C   0  0  0  0  0  0  0  0  0  0  0  0
  154.4373  139.9282  159.1754 O   0  0  0  0  0  0  0  0  0  0  0  0
  153.2241  138.2073  159.9080 N   0  0  0  0  0  0  0  0  0  0  0  0
  154.2570  137.5881  160.7339 C   0  0  2  0  0  0  0  0  0  0  0  0
  154.5870  136.1961  160.1928 C   0  0  0  0  0  0  0  0  0  0  0  0
  155.7009  135.5490  161.0242 C   0  0  0  0  0  0  0  0  0  0  0  0
  155.4759  135.6490  162.5406 C   0  0  0  0  0  0  0  0  0  0  0  0
  156.1028  134.8813  163.2716 O   0  0  0  0  0  0  0  0  0  0  0  0
  154.6290  136.5885  163.0272 N   0  0  0  0  0  0  0  0  0  0  0  0
  154.4273  136.7247  164.4707 C   0  0  0  0  0  0  0  0  0  0  0  0
  153.7985  137.4785  162.2011 C   0  0  0  0  0  0  0  0  0  0  0  0
  152.4026  141.9355  159.1713 N   0  0  0  0  0  0  0  0  0  0  0  0
  152.2601  145.1824  161.6765 H   0  0  0  0  0  0  0  0  0  0  0  0
  152.3138  143.4227  161.5991 H   0  0  0  0  0  0  0  0  0  0  0  0
  150.8343  144.2803  161.1697 H   0  0  0  0  0  0  0  0  0  0  0  0
  152.0186  145.3174  159.2051 H   0  0  0  0  0  0  0  0  0  0  0  0
  153.4809  144.4760  159.6325 H   0  0  0  0  0  0  0  0  0  0  0  0
  150.6303  144.0773  157.2972 H   0  0  0  0  0  0  0  0  0  0  0  0
  152.3254  137.7485  159.8820 H   0  0  0  0  0  0  0  0  0  0  0  0
  155.1636  138.1949  160.6846 H   0  0  0  0  0  0  0  0  0  0  0  0
  153.6974  135.5646  160.2109 H   0  0  0  0  0  0  0  0  0  0  0  0
  154.9010  136.2614  159.1502 H   0  0  0  0  0  0  0  0  0  0  0  0
  155.8127  134.5015  160.7419 H   0  0  0  0  0  0  0  0  0  0  0  0
  156.6511  136.0345  160.7995 H   0  0  0  0  0  0  0  0  0  0  0  0
  155.3518  137.0387  164.9570 H   0  0  0  0  0  0  0  0  0  0  0  0
  154.1148  135.7760  164.9099 H   0  0  0  0  0  0  0  0  0  0  0  0
  153.6597  137.4615  164.7115 H   0  0  0  0  0  0  0  0  0  0  0  0
  153.7734  138.4752  162.6444 H   0  0  0  0  0  0  0  0  0  0  0  0
  152.7769  137.0969  162.2385 H   0  0  0  0  0  0  0  0  0  0  0  0
  1  2  1  0  0  0  0
  1 20  1  0  0  0  0
  1 21  1  0  0  0  0
  1 22  1  0  0  0  0
  2  3  1  0  0  0  0
  2 23  1  0  0  0  0
  2 24  1  0  0  0  0
  3 19  1  0  0  0  0
  3  4  2  0  0  0  0
  4  5  1  0  0  0  0
  4 25  1  0  0  0  0
  5  6  1  0  0  0  0
  6  7  1  0  0  0  0
  6 19  2  0  0  0  0
  7  8  1  0  0  0  0
  8  9  2  0  0  0  0
  8 10  1  0  0  0  0
 10 11  1  0  0  0  0
 10 26  1  0  0  0  0
 11 18  1  0  0  0  0
 11 12  1  0  0  0  0
 11 27  1  0  0  0  0
 12 13  1  0  0  0  0
 12 28  1  0  0  0  0
 12 29  1  0  0  0  0
 13 14  1  0  0  0  0
 13 30  1  0  0  0  0
 13 31  1  0  0  0  0
 14 15  2  0  0  0  0
 14 16  1  0  0  0  0
 16 17  1  0  0  0  0
 16 18  1  0  0  0  0
 17 32  1  0  0  0  0
 17 33  1  0  0  0  0
 17 34  1  0  0  0  0
 18 35  1  0  0  0  0
 18 36  1  0  0  0  0
M  CHG  1   7  -1
M  END
> <s_m_source_file>
AV-unprocessed.smi

> <i_m_source_file_index>
692

> <i_lp_mmshare_version>
43012

> <i_f3d_flags>
0

> <s_epik_input>
W0NIM11bQ0gyXWMxW2NIXXNjKG4xKVtOSF1DKD1PKVtOSF1bQ0BASF0yW0NIMl1bQ0gyXUMoPU8pTihbQ0gzXSlbQ0gyXTI=

> <s_epik_cmdline>
J2VwaWtfcHl0aG9uJywgJy1waCcsICc3LjAnLCAnLXRuJywgJzgnLCAnLW1hJywgJzIwMCcsICctbWV0YWxfYmluZGluZycsICctaW1hZScsICc8aW5maWxlLm1hZT4nLCAnLW9tYWUnLCAnPG91dGZpbGUubWFlPic=

> <r_lp_tautomer_probability>
1

> <r_epik_Ionization_Penalty>
7.06728

> <r_epik_Ionization_Penalty_Charging>
5.78908

> <r_epik_Ionization_Penalty_Neutral>
1.2782

> <r_epik_State_Penalty>
5.78905

> <r_epik_Charging_Adjusted_Penalty>
11.5781

> <i_epik_Tot_Q>
-1

> <i_epik_Tot_abs_Q>
1

> <r_epik_Metal_State_Penalty>
1.76044

> <b_epik_Metal_Only>
1

> <s_lp_Force_Field>
OPLS_2005

> <r_lp_Energy>
4.23382

> <b_lp_Chiralities_Consistent>
1

> <s_lp_Variant>
AV-unprocessed.smi:692-3

> <Gold.Version>
5.8.1

> <Gold.Id.Protein>
6NUR|6NUR_protein|mol2

> <Gold.PLP.Fitness>
41.6025

> <Gold.PLP.PLP>
-36.3356

> <Gold.PLP.part.hbond>
-1.0000

> <Gold.PLP.part.metal>
0.0000

> <Gold.PLP.part.buried>
-4.8892

> <Gold.PLP.part.nonpolar>
-31.0893

> <Gold.PLP.part.repulsive>
0.1064

> <Gold.PLP.ligand.clash>
0.0000

> <Gold.PLP.ligand.torsion>
0.3767

> <Gold.PLP.Chemscore.Hbond>
1.0000

> <Gold.PLP.Chemscore.CHOScore>
1.0000

> <Gold.PLP.Chemscore.Metal>
0.0000

> <Gold.Chemscore.Hbonds>
donor molecule, donor type, donor heavy atom, donor atom, acceptor molecule, acceptor atom, score
      P1  H  7997  8010       L1     9  1.00
      L1  C     4    25       P1  8028  1.00

> <Gold.PLP.Chemscore.Internal.Correction>
0.0203

> <Gold.Rescore>
     Score         DG    S(hbond)    S(metal)    S(lipo)     H(rot)  DE(clash)    DE(int)     intcor
     13.83     -15.68       0.95        0.00      86.82       1.23       0.02       1.83       ----

> <Gold.Chemscore.Fitness>
13.8293

> <Gold.Chemscore.DG>
-15.6779

> <Gold.Chemscore.ZeroCoef>
-5.4800

> <Gold.Chemscore.Hbond>
0.9509

> <Gold.Chemscore.Metal>
0.0000

> <Gold.Chemscore.Lipo>
86.8209

> <Gold.Chemscore.Internal_Hbond>
0.0000

> <Gold.Chemscore.DEClash>
0.0174

> <Gold.Chemscore.DEInternal>
1.8312

> <Gold.Chemscore.Rot>
1.2251

> <Gold.Chemscore.Internal.Correction>
   9.000000E+99

> <Gold.Chemscore.Hbonds>
donor molecule, donor type, donor heavy atom, donor atom, acceptor molecule, acceptor atom, score
      P1  H  7997  8010       L1     9  0.63

> <Gold.Chemscore.Hbond.Weighted>
-3.1761

> <Gold.Chemscore.Metal.Weighted>
-0.0000

> <Gold.Chemscore.Lipo.Weighted>
-10.1580

> <Gold.Chemscore.Internal_Hbond.Weighted>
0.0000

> <Gold.Chemscore.DEClash.Weighted>
0.0174

> <Gold.Chemscore.DEInternal.Weighted>
1.8312

> <Gold.Chemscore.Rot.Weighted>
3.1362

> <Gold.Chemscore.Internal.Correction.Weighted>
   9.000000E+99

> <Gold.Protein.RotatedTorsions>
[ 6907 6896 6895 6894 ] final -167.71 input  -60.11 | X-H torsion
[ 7974 7965 7964 7962 ] final  -76.93 input  175.53 | X-H torsion
[ 8008 7997 7996 7995 ] final    3.63 input   59.86 | X-H torsion
[ 10167 10162 10161 10158 ] final   70.74 input  -65.29 | X-H torsion
[ 10718 10713 10712 10709 ] final -124.75 input   66.30 | X-H torsion
[ 10763 10752 10751 10750 ] final   20.10 input  -60.55 | X-H torsion
[ 11005 11000 10999 10996 ] final   24.75 input  -57.11 | X-H torsion

> <Gold.Protein.ActiveResidues>
 VAL166  LYS551  ARG553  GLY616  TRP617  ASP618  TYR619  PRO620  LYS621  CYS622 
 ASP623  PHE694  ASN695  SER759  ASP760  ASP761  ALA762  ILE779  LEU786  VAL792 
 PHE793  MET794  SER795  GLU796  ALA797  LYS798  CYS799  TRP800  GLU811  SER814 

> <Gold.Protein.RotatedAtoms>
  151.4639  133.3586  159.2812 H   0  0  0  0  0  0  0  0  0  0  0  0  # atno 6907 bound_to 6896
  150.9007  134.8420  159.7369 H   0  0  0  0  0  0  0  0  0  0  0  0  # atno 6908 bound_to 6896
  152.4877  134.4559  159.9641 H   0  0  0  0  0  0  0  0  0  0  0  0  # atno 6909 bound_to 6896
  145.6064  140.9397  143.1213 H   0  0  0  0  0  0  0  0  0  0  0  0  # atno 7974 bound_to 7965
  154.7061  140.2683  155.6673 H   0  0  0  0  0  0  0  0  0  0  0  0  # atno 8008 bound_to 7997
  156.2780  140.2762  156.1611 H   0  0  0  0  0  0  0  0  0  0  0  0  # atno 8009 bound_to 7997
  155.0699  140.0372  157.2595 H   0  0  0  0  0  0  0  0  0  0  0  0  # atno 8010 bound_to 7997
  140.0537  144.5290  150.7344 H   0  0  0  0  0  0  0  0  0  0  0  0  # atno 10167 bound_to 10162
  156.1615  130.6605  151.0056 H   0  0  0  0  0  0  0  0  0  0  0  0  # atno 10718 bound_to 10713
  153.1105  135.6695  153.9508 H   0  0  0  0  0  0  0  0  0  0  0  0  # atno 10763 bound_to 10752
  153.9053  135.3031  155.3450 H   0  0  0  0  0  0  0  0  0  0  0  0  # atno 10764 bound_to 10752
  154.7525  135.5028  153.9392 H   0  0  0  0  0  0  0  0  0  0  0  0  # atno 10765 bound_to 10752
  140.3553  134.2184  155.7676 H   0  0  0  0  0  0  0  0  0  0  0  0  # atno 11005 bound_to 11000
  144.7288  139.7790  143.7355 LP  0  0  0  0  0  0  0  0  0  0  0  0  # atno 17320 bound_to 7965
  146.1537  139.4628  143.0032 LP  0  0  0  0  0  0  0  0  0  0  0  0  # atno 17321 bound_to 7965
  140.7205  143.2584  151.4295 LP  0  0  0  0  0  0  0  0  0  0  0  0  # atno 17342 bound_to 10162
  139.5937  144.1444  152.2118 LP  0  0  0  0  0  0  0  0  0  0  0  0  # atno 17343 bound_to 10162
  157.6736  131.0856  150.7551 LP  0  0  0  0  0  0  0  0  0  0  0  0  # atno 17370 bound_to 10713
  156.7614  130.4799  149.5436 LP  0  0  0  0  0  0  0  0  0  0  0  0  # atno 17371 bound_to 10713
  141.2000  133.7998  157.0509 LP  0  0  0  0  0  0  0  0  0  0  0  0  # atno 17394 bound_to 11000
  140.0670  134.9723  157.1403 LP  0  0  0  0  0  0  0  0  0  0  0  0  # atno 17395 bound_to 11000

$$$$
