AV-unprocessed.smi:1289|AV-procd|sdf|5385|dock10
  -GOLD-   22720 4533D 1   1.00000     0.00000
 Structure written by MMmdl.
 37 39  0  0  0  0  0  0  0  0  1 V2000
  142.2025  144.1078  152.9387 N   0  0  0  0  0  0  0  0  0  0  0  0
  143.1281  143.5649  153.3717 C   0  0  0  0  0  0  0  0  0  0  0  0
  144.2907  142.8833  153.9159 C   0  0  0  0  0  0  0  0  0  0  0  0
  144.3872  142.6450  155.3008 C   0  0  0  0  0  0  0  0  0  0  0  0
  145.5133  141.9815  155.8247 C   0  0  0  0  0  0  0  0  0  0  0  0
  146.5544  141.5464  154.9793 C   0  0  0  0  0  0  0  0  0  0  0  0
  147.6166  140.9032  155.5772 O   0  0  0  0  0  0  0  0  0  0  0  0
  148.6415  140.3748  154.7444 C   0  0  0  0  0  0  0  0  0  0  0  0
  150.0220  140.6947  155.3404 C   0  0  2  0  0  0  0  0  0  0  0  0
  151.0188  140.0193  154.5989 O   0  0  0  0  0  0  0  0  0  0  0  0
  150.1334  140.3888  156.8469 C   0  0  0  0  0  0  0  0  0  0  0  0
  150.5901  141.5372  157.6084 N   0  0  0  0  0  0  0  0  0  0  0  0
  150.2461  142.8247  157.4136 C   0  0  0  0  0  0  0  0  0  0  0  0
  150.7847  143.7294  158.2262 N   0  0  0  0  0  0  0  0  0  0  0  0
  151.5687  142.9363  159.0464 C   0  0  0  0  0  0  0  0  0  0  0  0
  152.4082  143.2851  160.1285 C   0  0  0  0  0  0  0  0  0  0  0  0
  153.1225  142.2903  160.8282 C   0  0  0  0  0  0  0  0  0  0  0  0
  153.0102  140.9345  160.4568 C   0  0  0  0  0  0  0  0  0  0  0  0
  152.1809  140.5627  159.3809 C   0  0  0  0  0  0  0  0  0  0  0  0
  151.4687  141.5582  158.6865 C   0  0  0  0  0  0  0  0  0  0  0  0
  146.4512  141.7920  153.5866 C   0  0  0  0  0  0  0  0  0  0  0  0
  145.3259  142.4567  153.0606 C   0  0  0  0  0  0  0  0  0  0  0  0
  143.6008  142.9674  155.9681 H   0  0  0  0  0  0  0  0  0  0  0  0
  145.5777  141.8020  156.8880 H   0  0  0  0  0  0  0  0  0  0  0  0
  148.5264  139.2971  154.6140 H   0  0  0  0  0  0  0  0  0  0  0  0
  148.5709  140.8376  153.7589 H   0  0  0  0  0  0  0  0  0  0  0  0
  150.2053  141.7595  155.1908 H   0  0  0  0  0  0  0  0  0  0  0  0
  151.3151  139.2764  155.1025 H   0  0  0  0  0  0  0  0  0  0  0  0
  149.1630  140.0821  157.2396 H   0  0  0  0  0  0  0  0  0  0  0  0
  150.8184  139.5593  157.0262 H   0  0  0  0  0  0  0  0  0  0  0  0
  149.5634  143.1139  156.6280 H   0  0  0  0  0  0  0  0  0  0  0  0
  152.5032  144.3205  160.4205 H   0  0  0  0  0  0  0  0  0  0  0  0
  153.7610  142.5687  161.6539 H   0  0  0  0  0  0  0  0  0  0  0  0
  153.5617  140.1796  160.9977 H   0  0  0  0  0  0  0  0  0  0  0  0
  152.0945  139.5256  159.0921 H   0  0  0  0  0  0  0  0  0  0  0  0
  147.2225  141.4807  152.8989 H   0  0  0  0  0  0  0  0  0  0  0  0
  145.2636  142.6355  151.9966 H   0  0  0  0  0  0  0  0  0  0  0  0
  1  2  3  0  0  0  0
  2  3  1  0  0  0  0
  3 22  1  0  0  0  0
  3  4  2  0  0  0  0
  4  5  1  0  0  0  0
  4 23  1  0  0  0  0
  5  6  2  0  0  0  0
  5 24  1  0  0  0  0
  6  7  1  0  0  0  0
  6 21  1  0  0  0  0
  7  8  1  0  0  0  0
  8  9  1  0  0  0  0
  8 25  1  0  0  0  0
  8 26  1  0  0  0  0
  9 10  1  0  0  0  0
  9 11  1  0  0  0  0
  9 27  1  0  0  0  0
 10 28  1  0  0  0  0
 11 12  1  0  0  0  0
 11 29  1  0  0  0  0
 11 30  1  0  0  0  0
 12 20  1  0  0  0  0
 12 13  1  0  0  0  0
 13 14  2  0  0  0  0
 13 31  1  0  0  0  0
 14 15  1  0  0  0  0
 15 20  2  0  0  0  0
 15 16  1  0  0  0  0
 16 17  2  0  0  0  0
 16 32  1  0  0  0  0
 17 18  1  0  0  0  0
 17 33  1  0  0  0  0
 18 19  2  0  0  0  0
 18 34  1  0  0  0  0
 19 20  1  0  0  0  0
 19 35  1  0  0  0  0
 21 22  2  0  0  0  0
 21 36  1  0  0  0  0
 22 37  1  0  0  0  0
M  END
> <s_m_source_file>
AV-unprocessed.smi

> <i_m_source_file_index>
1289

> <i_lp_mmshare_version>
43012

> <i_f3d_flags>
0

> <s_epik_input>
TiNDYzFbY0hdW2NIXWMoW2NIXVtjSF0xKU9bQ0gyXVtDQEhdKFtPSF0pW0NIMl1uKFtjSF1uMiljKGMyMylbY0hdW2NIXVtjSF1bY0hdMw==

> <s_epik_cmdline>
J2VwaWtfcHl0aG9uJywgJy1waCcsICc3LjAnLCAnLXRuJywgJzgnLCAnLW1hJywgJzIwMCcsICctbWV0YWxfYmluZGluZycsICctaW1hZScsICc8aW5maWxlLm1hZT4nLCAnLW9tYWUnLCAnPG91dGZpbGUubWFlPic=

> <r_epik_Ionization_Penalty>
0.0590811

> <r_epik_Ionization_Penalty_Charging>
0

> <r_epik_Ionization_Penalty_Neutral>
0.0590811

> <r_epik_State_Penalty>
0.0511328

> <r_epik_Charging_Adjusted_Penalty>
0.0511328

> <i_epik_Tot_Q>
0

> <i_epik_Tot_abs_Q>
0

> <r_epik_Metal_State_Penalty>
5.34017e-05

> <b_epik_Metal_Only>
0

> <s_lp_Force_Field>
OPLS_2005

> <r_lp_Energy>
15.8446

> <b_lp_Chiralities_Consistent>
1

> <s_lp_Variant>
AV-unprocessed.smi:1289-1

> <Gold.Version>
5.8.1

> <Gold.Id.Protein>
6NUR|6NUR_protein|mol2

> <Gold.PLP.Fitness>
50.4619

> <Gold.PLP.PLP>
-47.1977

> <Gold.PLP.part.hbond>
-2.0000

> <Gold.PLP.part.metal>
0.0000

> <Gold.PLP.part.buried>
-7.3696

> <Gold.PLP.part.nonpolar>
-38.3339

> <Gold.PLP.part.repulsive>
0.2542

> <Gold.PLP.ligand.clash>
0.0000

> <Gold.PLP.ligand.torsion>
1.3939

> <Gold.PLP.Chemscore.Hbond>
1.0000

> <Gold.PLP.Chemscore.CHOScore>
1.0000

> <Gold.PLP.Chemscore.Metal>
0.0000

> <Gold.Chemscore.Hbonds>
donor molecule, donor type, donor heavy atom, donor atom, acceptor molecule, acceptor atom, score
      P1  H  7989  7998       L1    10  0.98
      L1  C    13    31       P1  8028  0.90

> <Gold.PLP.Chemscore.Internal.Correction>
0.0521

> <Gold.Rescore>
     Score         DG    S(hbond)    S(metal)    S(lipo)     H(rot)  DE(clash)    DE(int)     intcor
     12.63     -13.98       0.92        0.00     100.90       2.50       0.00       1.35       ----

> <Gold.Chemscore.Fitness>
12.6312

> <Gold.Chemscore.DG>
-13.9813

> <Gold.Chemscore.ZeroCoef>
-5.4800

> <Gold.Chemscore.Hbond>
0.9233

> <Gold.Chemscore.Metal>
0.0000

> <Gold.Chemscore.Lipo>
100.9041

> <Gold.Chemscore.Internal_Hbond>
0.0000

> <Gold.Chemscore.DEClash>
0.0000

> <Gold.Chemscore.DEInternal>
1.3502

> <Gold.Chemscore.Rot>
2.4954

> <Gold.Chemscore.Internal.Correction>
   9.000000E+99

> <Gold.Chemscore.Hbonds>
donor molecule, donor type, donor heavy atom, donor atom, acceptor molecule, acceptor atom, score
      P1  H  7989  7998       L1    10  0.80

> <Gold.Chemscore.Hbond.Weighted>
-3.0839

> <Gold.Chemscore.Metal.Weighted>
-0.0000

> <Gold.Chemscore.Lipo.Weighted>
-11.8058

> <Gold.Chemscore.Internal_Hbond.Weighted>
0.0000

> <Gold.Chemscore.DEClash.Weighted>
0.0000

> <Gold.Chemscore.DEInternal.Weighted>
1.3502

> <Gold.Chemscore.Rot.Weighted>
6.3883

> <Gold.Chemscore.Internal.Correction.Weighted>
   9.000000E+99

> <Gold.Protein.RotatedTorsions>
[ 6907 6896 6895 6894 ] final  -42.18 input  -60.11 | X-H torsion
[ 7974 7965 7964 7962 ] final   69.21 input  175.53 | X-H torsion
[ 8008 7997 7996 7995 ] final   85.43 input   59.86 | X-H torsion
[ 10167 10162 10161 10158 ] final -164.31 input  -65.29 | X-H torsion
[ 10718 10713 10712 10709 ] final  -67.59 input   66.30 | X-H torsion
[ 10763 10752 10751 10750 ] final  -71.92 input  -60.55 | X-H torsion
[ 11005 11000 10999 10996 ] final  107.94 input  -57.11 | X-H torsion

> <Gold.Protein.ActiveResidues>
 VAL166  LYS551  ARG553  GLY616  TRP617  ASP618  TYR619  PRO620  LYS621  CYS622 
 ASP623  PHE694  ASN695  SER759  ASP760  ASP761  ALA762  ILE779  LEU786  VAL792 
 PHE793  MET794  SER795  GLU796  ALA797  LYS798  CYS799  TRP800  GLU811  SER814 

> <Gold.Protein.RotatedAtoms>
  150.9582  134.8973  159.7713 H   0  0  0  0  0  0  0  0  0  0  0  0  # atno 6907 bound_to 6896
  152.5146  134.3710  159.9328 H   0  0  0  0  0  0  0  0  0  0  0  0  # atno 6908 bound_to 6896
  151.3723  133.3810  159.2736 H   0  0  0  0  0  0  0  0  0  0  0  0  # atno 6909 bound_to 6896
  145.7932  139.2944  143.1198 H   0  0  0  0  0  0  0  0  0  0  0  0  # atno 7974 bound_to 7965
  155.9499  140.3401  155.6399 H   0  0  0  0  0  0  0  0  0  0  0  0  # atno 8008 bound_to 7997
  155.6933  140.0751  157.2458 H   0  0  0  0  0  0  0  0  0  0  0  0  # atno 8009 bound_to 7997
  154.4120  140.1653  156.2097 H   0  0  0  0  0  0  0  0  0  0  0  0  # atno 8010 bound_to 7997
  139.6260  144.0532  152.1974 H   0  0  0  0  0  0  0  0  0  0  0  0  # atno 10167 bound_to 10162
  156.0549  130.4280  150.1877 H   0  0  0  0  0  0  0  0  0  0  0  0  # atno 10718 bound_to 10713
  154.4385  135.5946  153.6114 H   0  0  0  0  0  0  0  0  0  0  0  0  # atno 10763 bound_to 10752
  152.9804  135.5992  154.3751 H   0  0  0  0  0  0  0  0  0  0  0  0  # atno 10764 bound_to 10752
  154.3598  135.2841  155.2305 H   0  0  0  0  0  0  0  0  0  0  0  0  # atno 10765 bound_to 10752
  139.8836  134.9416  156.5896 H   0  0  0  0  0  0  0  0  0  0  0  0  # atno 11005 bound_to 11000
  145.9955  140.8566  143.0045 LP  0  0  0  0  0  0  0  0  0  0  0  0  # atno 17320 bound_to 7965
  144.6779  140.2276  143.7359 LP  0  0  0  0  0  0  0  0  0  0  0  0  # atno 17321 bound_to 7965
  140.0186  144.6170  150.7586 LP  0  0  0  0  0  0  0  0  0  0  0  0  # atno 17342 bound_to 10162
  140.7411  143.2813  151.3590 LP  0  0  0  0  0  0  0  0  0  0  0  0  # atno 17343 bound_to 10162
  156.9955  130.9906  151.3404 LP  0  0  0  0  0  0  0  0  0  0  0  0  # atno 17370 bound_to 10713
  157.5510  130.8182  149.8145 LP  0  0  0  0  0  0  0  0  0  0  0  0  # atno 17371 bound_to 10713
  140.7965  133.8540  155.8690 LP  0  0  0  0  0  0  0  0  0  0  0  0  # atno 17394 bound_to 11000
  140.9631  134.1630  157.4638 LP  0  0  0  0  0  0  0  0  0  0  0  0  # atno 17395 bound_to 11000

$$$$
