AV-unprocessed.smi:2627|AV-procd|sdf|10239|dock7
  -GOLD-   2272014243D 1   1.00000     0.00000
 Structure written by MMmdl.
 39 41  0  0  0  0  0  0  0  0  1 V2000
  153.1154  138.6796  154.5676 C   0  0  0  0  0  0  0  0  0  0  0  0
  151.7932  137.9697  154.8870 C   0  0  2  0  0  0  0  0  0  0  0  0
  151.7246  136.7944  154.1045 O   0  0  0  0  0  0  0  0  0  0  0  0
  150.6077  138.8713  154.6720 C   0  0  0  0  0  0  0  0  0  0  0  0
  149.6386  138.5776  153.8017 N   0  0  0  0  0  0  0  0  0  0  0  0
  148.7823  139.6542  153.9197 C   0  0  0  0  0  0  0  0  0  0  0  0
  147.5602  139.9315  153.2664 C   0  0  0  0  0  0  0  0  0  0  0  0
  146.8478  141.1134  153.5569 C   0  0  0  0  0  0  0  0  0  0  0  0
  147.3464  142.0329  154.5024 C   0  0  0  0  0  0  0  0  0  0  0  0
  148.5632  141.7764  155.1631 C   0  0  0  0  0  0  0  0  0  0  0  0
  149.2703  140.5951  154.8690 C   0  0  0  0  0  0  0  0  0  0  0  0
  150.4669  140.0529  155.3267 N   0  0  0  0  0  0  0  0  0  0  0  0
  151.3537  140.6526  156.3114 C   0  0  0  0  0  0  0  0  0  0  0  0
  150.6816  140.7526  157.6858 C   0  0  0  0  0  0  0  0  0  0  0  0
  151.6611  141.1319  158.6416 O   0  0  0  0  0  0  0  0  0  0  0  0
  151.7421  142.4609  158.9984 C   0  0  0  0  0  0  0  0  0  0  0  0
  151.3470  143.4080  158.0308 C   0  0  0  0  0  0  0  0  0  0  0  0
  151.3976  144.7875  158.3090 C   0  0  0  0  0  0  0  0  0  0  0  0
  151.8452  145.2355  159.5654 C   0  0  0  0  0  0  0  0  0  0  0  0
  152.2413  144.3019  160.5411 C   0  0  0  0  0  0  0  0  0  0  0  0
  152.1914  142.9219  160.2623 C   0  0  0  0  0  0  0  0  0  0  0  0
  153.2413  139.5690  155.1856 H   0  0  0  0  0  0  0  0  0  0  0  0
  153.1552  138.9925  153.5235 H   0  0  0  0  0  0  0  0  0  0  0  0
  153.9686  138.0263  154.7527 H   0  0  0  0  0  0  0  0  0  0  0  0
  151.8099  137.6367  155.9239 H   0  0  0  0  0  0  0  0  0  0  0  0
  151.4251  137.0286  153.2395 H   0  0  0  0  0  0  0  0  0  0  0  0
  147.1695  139.2325  152.5419 H   0  0  0  0  0  0  0  0  0  0  0  0
  145.9139  141.3147  153.0529 H   0  0  0  0  0  0  0  0  0  0  0  0
  146.7938  142.9352  154.7203 H   0  0  0  0  0  0  0  0  0  0  0  0
  148.9470  142.4786  155.8883 H   0  0  0  0  0  0  0  0  0  0  0  0
  152.2752  140.0737  156.3704 H   0  0  0  0  0  0  0  0  0  0  0  0
  151.6422  141.6448  155.9636 H   0  0  0  0  0  0  0  0  0  0  0  0
  149.8806  141.4926  157.6488 H   0  0  0  0  0  0  0  0  0  0  0  0
  150.2446  139.7907  157.9586 H   0  0  0  0  0  0  0  0  0  0  0  0
  151.0022  143.0735  157.0632 H   0  0  0  0  0  0  0  0  0  0  0  0
  151.0929  145.5011  157.5578 H   0  0  0  0  0  0  0  0  0  0  0  0
  151.8845  146.2931  159.7804 H   0  0  0  0  0  0  0  0  0  0  0  0
  152.5843  144.6443  161.5063 H   0  0  0  0  0  0  0  0  0  0  0  0
  152.5029  142.2373  161.0365 H   0  0  0  0  0  0  0  0  0  0  0  0
  1  2  1  0  0  0  0
  1 22  1  0  0  0  0
  1 23  1  0  0  0  0
  1 24  1  0  0  0  0
  2  3  1  0  0  0  0
  2  4  1  0  0  0  0
  2 25  1  0  0  0  0
  3 26  1  0  0  0  0
  4 12  1  0  0  0  0
  4  5  2  0  0  0  0
  5  6  1  0  0  0  0
  6 11  2  0  0  0  0
  6  7  1  0  0  0  0
  7  8  2  0  0  0  0
  7 27  1  0  0  0  0
  8  9  1  0  0  0  0
  8 28  1  0  0  0  0
  9 10  2  0  0  0  0
  9 29  1  0  0  0  0
 10 11  1  0  0  0  0
 10 30  1  0  0  0  0
 11 12  1  0  0  0  0
 12 13  1  0  0  0  0
 13 14  1  0  0  0  0
 13 31  1  0  0  0  0
 13 32  1  0  0  0  0
 14 15  1  0  0  0  0
 14 33  1  0  0  0  0
 14 34  1  0  0  0  0
 15 16  1  0  0  0  0
 16 21  1  0  0  0  0
 16 17  2  0  0  0  0
 17 18  1  0  0  0  0
 17 35  1  0  0  0  0
 18 19  2  0  0  0  0
 18 36  1  0  0  0  0
 19 20  1  0  0  0  0
 19 37  1  0  0  0  0
 20 21  2  0  0  0  0
 20 38  1  0  0  0  0
 21 39  1  0  0  0  0
M  END
> <s_m_source_file>
AV-unprocessed.smi

> <i_m_source_file_index>
2627

> <i_lp_mmshare_version>
43012

> <i_f3d_flags>
0

> <s_epik_input>
W2NIXTFbY0hdW2NIXVtjSF1jKGMxMiluKGMobjIpW0NASF0oW0NIM10pW09IXSlbQ0gyXVtDSDJdT2MzW2NIXVtjSF1bY0hdW2NIXVtjSF0z

> <s_epik_cmdline>
J2VwaWtfcHl0aG9uJywgJy1waCcsICc3LjAnLCAnLXRuJywgJzgnLCAnLW1hJywgJzIwMCcsICctbWV0YWxfYmluZGluZycsICctaW1hZScsICc8aW5maWxlLm1hZT4nLCAnLW9tYWUnLCAnPG91dGZpbGUubWFlPic=

> <r_lp_tautomer_probability>
1

> <r_epik_Ionization_Penalty>
0.0472514

> <r_epik_Ionization_Penalty_Charging>
0

> <r_epik_Ionization_Penalty_Neutral>
0.0472514

> <r_epik_State_Penalty>
0.040225

> <r_epik_Charging_Adjusted_Penalty>
0.040225

> <i_epik_Tot_Q>
0

> <i_epik_Tot_abs_Q>
0

> <r_epik_Metal_State_Penalty>
4.16204e-05

> <b_epik_Metal_Only>
0

> <s_lp_Force_Field>
OPLS_2005

> <r_lp_Energy>
15.0565

> <b_lp_Chiralities_Consistent>
1

> <s_lp_Variant>
AV-unprocessed.smi:2627-1

> <Gold.Version>
5.8.1

> <Gold.Id.Protein>
6NUR|6NUR_protein|mol2

> <Gold.PLP.Fitness>
53.5731

> <Gold.PLP.PLP>
-49.7970

> <Gold.PLP.part.hbond>
-2.0000

> <Gold.PLP.part.metal>
0.0000

> <Gold.PLP.part.buried>
-2.4986

> <Gold.PLP.part.nonpolar>
-47.5930

> <Gold.PLP.part.repulsive>
1.4085

> <Gold.PLP.ligand.clash>
0.0000

> <Gold.PLP.ligand.torsion>
0.6890

> <Gold.PLP.Chemscore.Hbond>
1.6978

> <Gold.PLP.Chemscore.CHOScore>
0.0000

> <Gold.PLP.Chemscore.Metal>
0.0000

> <Gold.Chemscore.Hbonds>
donor molecule, donor type, donor heavy atom, donor atom, acceptor molecule, acceptor atom, score
      L1  H     3    26       P1  7949  0.64
      P1  H 10752 10765       L1     3  1.00

> <Gold.PLP.Chemscore.Internal.Correction>
0.0606

> <Gold.Rescore>
     Score         DG    S(hbond)    S(metal)    S(lipo)     H(rot)  DE(clash)    DE(int)     intcor
     19.54     -20.53       1.36        0.00     135.00       2.06       0.29       0.70       ----

> <Gold.Chemscore.Fitness>
19.5403

> <Gold.Chemscore.DG>
-20.5335

> <Gold.Chemscore.ZeroCoef>
-5.4800

> <Gold.Chemscore.Hbond>
1.3551

> <Gold.Chemscore.Metal>
0.0000

> <Gold.Chemscore.Lipo>
135.0032

> <Gold.Chemscore.Internal_Hbond>
0.0000

> <Gold.Chemscore.DEClash>
0.2890

> <Gold.Chemscore.DEInternal>
0.7042

> <Gold.Chemscore.Rot>
2.0577

> <Gold.Chemscore.Internal.Correction>
   9.000000E+99

> <Gold.Chemscore.Hbonds>
donor molecule, donor type, donor heavy atom, donor atom, acceptor molecule, acceptor atom, score
      L1  H     3    26       P1  7949  0.50
      P1  H 10752 10765       L1     3  0.93

> <Gold.Chemscore.Hbond.Weighted>
-4.5259

> <Gold.Chemscore.Metal.Weighted>
-0.0000

> <Gold.Chemscore.Lipo.Weighted>
-15.7954

> <Gold.Chemscore.Internal_Hbond.Weighted>
0.0000

> <Gold.Chemscore.DEClash.Weighted>
0.2890

> <Gold.Chemscore.DEInternal.Weighted>
0.7042

> <Gold.Chemscore.Rot.Weighted>
5.2678

> <Gold.Chemscore.Internal.Correction.Weighted>
   9.000000E+99

> <Gold.Protein.RotatedTorsions>
[ 6907 6896 6895 6894 ] final  110.04 input  -60.11 | X-H torsion
[ 7974 7965 7964 7962 ] final   71.90 input  175.53 | X-H torsion
[ 8008 7997 7996 7995 ] final -122.46 input   59.86 | X-H torsion
[ 10167 10162 10161 10158 ] final  151.28 input  -65.29 | X-H torsion
[ 10718 10713 10712 10709 ] final  125.69 input   66.30 | X-H torsion
[ 10763 10752 10751 10750 ] final  162.55 input  -60.55 | X-H torsion
[ 11005 11000 10999 10996 ] final  -77.62 input  -57.11 | X-H torsion

> <Gold.Protein.ActiveResidues>
 VAL166  LYS551  ARG553  GLY616  TRP617  ASP618  TYR619  PRO620  LYS621  CYS622 
 ASP623  PHE694  ASN695  SER759  ASP760  ASP761  ALA762  ILE779  LEU786  VAL792 
 PHE793  MET794  SER795  GLU796  ALA797  LYS798  CYS799  TRP800  GLU811  SER814 

> <Gold.Protein.RotatedAtoms>
  152.5039  133.8857  159.7368 H   0  0  0  0  0  0  0  0  0  0  0  0  # atno 6907 bound_to 6896
  150.9308  133.6760  159.2818 H   0  0  0  0  0  0  0  0  0  0  0  0  # atno 6908 bound_to 6896
  151.4105  135.0989  159.9636 H   0  0  0  0  0  0  0  0  0  0  0  0  # atno 6909 bound_to 6896
  145.7600  139.2797  143.1381 H   0  0  0  0  0  0  0  0  0  0  0  0  # atno 7974 bound_to 7965
  155.1646  140.0406  157.2850 H   0  0  0  0  0  0  0  0  0  0  0  0  # atno 8008 bound_to 7997
  154.6312  140.2524  155.7405 H   0  0  0  0  0  0  0  0  0  0  0  0  # atno 8009 bound_to 7997
  156.2485  140.2875  156.0664 H   0  0  0  0  0  0  0  0  0  0  0  0  # atno 8010 bound_to 7997
  139.4842  144.5453  151.7494 H   0  0  0  0  0  0  0  0  0  0  0  0  # atno 10167 bound_to 10162
  157.5482  131.1095  150.8747 H   0  0  0  0  0  0  0  0  0  0  0  0  # atno 10718 bound_to 10713
  154.2802  135.2763  155.2700 H   0  0  0  0  0  0  0  0  0  0  0  0  # atno 10763 bound_to 10752
  154.5225  135.5752  153.6696 H   0  0  0  0  0  0  0  0  0  0  0  0  # atno 10764 bound_to 10752
  152.9930  135.6208  154.2961 H   0  0  0  0  0  0  0  0  0  0  0  0  # atno 10765 bound_to 10752
  141.1661  133.7030  156.7848 H   0  0  0  0  0  0  0  0  0  0  0  0  # atno 11005 bound_to 11000
  146.0273  140.8292  142.9893 LP  0  0  0  0  0  0  0  0  0  0  0  0  # atno 17320 bound_to 7965
  144.6832  140.2716  143.7305 LP  0  0  0  0  0  0  0  0  0  0  0  0  # atno 17321 bound_to 7965
  140.4999  144.1185  150.5968 LP  0  0  0  0  0  0  0  0  0  0  0  0  # atno 17342 bound_to 10162
  140.4074  143.2673  151.9874 LP  0  0  0  0  0  0  0  0  0  0  0  0  # atno 17343 bound_to 10162
  156.9280  130.5339  149.5279 LP  0  0  0  0  0  0  0  0  0  0  0  0  # atno 17370 bound_to 10713
  156.0553  130.5616  150.9079 LP  0  0  0  0  0  0  0  0  0  0  0  0  # atno 17371 bound_to 10713
  140.2368  134.8644  157.3533 LP  0  0  0  0  0  0  0  0  0  0  0  0  # atno 17394 bound_to 11000
  140.1836  134.4459  155.7757 LP  0  0  0  0  0  0  0  0  0  0  0  0  # atno 17395 bound_to 11000

$$$$
