AV-unprocessed.smi:477|AV-procd|sdf|2670|dock7
  -GOLD-   2262023 83D 1   1.00000     0.00000
 Structure written by MMmdl.
 45 46  0  0  0  0  0  0  0  0  1 V2000
  151.4737  143.8822  158.1647 C   0  0  0  0  0  0  0  0  0  0  0  0
  151.8258  142.4629  158.5207 C   0  0  0  0  0  0  0  0  0  0  0  0
  151.3192  141.5355  157.7766 N   0  0  0  0  0  0  0  0  0  0  0  0
  151.5788  140.1994  158.0146 N   0  0  0  0  0  0  0  0  0  0  0  0
  150.9418  139.2895  157.0516 C   0  0  0  0  0  0  0  0  0  0  0  0
  150.2574  140.0204  155.8873 C   0  0  0  0  0  0  0  0  0  0  0  0
  150.6424  139.8720  154.7265 O   0  0  0  0  0  0  0  0  0  0  0  0
  149.2351  140.8209  156.2234 N   0  0  0  0  0  0  0  0  0  0  0  0
  148.4737  141.6449  155.2916 C   0  0  0  0  0  0  0  0  0  0  0  0
  146.9503  141.4208  155.3879 C   0  0  0  0  0  0  0  0  0  0  0  0
  146.1202  142.5810  154.8582 C   0  0  0  0  0  0  0  0  0  0  0  0
  146.3697  143.1363  153.6566 C   0  0  0  0  0  0  0  0  0  0  0  0
  145.6063  144.3191  153.0869 C   0  0  0  0  0  0  0  0  0  0  0  0
  144.7714  145.0464  154.1541 C   0  0  0  0  0  0  0  0  0  0  0  0
  144.0390  144.0486  155.0595 C   0  0  0  0  0  0  0  0  0  0  0  0
  145.0274  143.1147  155.7800 C   0  0  0  0  0  0  0  0  0  0  0  0
  152.3626  139.7292  159.0274 C   0  0  0  0  0  0  0  0  0  0  0  0
  152.5672  138.5274  159.2046 O   0  0  0  0  0  0  0  0  0  0  0  0
  152.9323  140.7854  159.8670 C   0  0  0  0  0  0  0  0  0  0  0  0
  153.7594  140.3360  160.9401 C   0  0  0  0  0  0  0  0  0  0  0  0
  154.4463  139.9792  161.8009 N   0  0  0  0  0  0  0  0  0  0  0  0
  152.6909  142.1007  159.6390 C   0  0  0  0  0  0  0  0  0  0  0  0
  153.2607  143.2346  160.4805 C   0  0  0  0  0  0  0  0  0  0  0  0
  151.0477  144.4040  159.0220 H   0  0  0  0  0  0  0  0  0  0  0  0
  150.7422  143.9294  157.3564 H   0  0  0  0  0  0  0  0  0  0  0  0
  152.3592  144.4296  157.8408 H   0  0  0  0  0  0  0  0  0  0  0  0
  151.6642  138.5802  156.6445 H   0  0  0  0  0  0  0  0  0  0  0  0
  150.1977  138.6797  157.5681 H   0  0  0  0  0  0  0  0  0  0  0  0
  148.9817  140.8835  157.1989 H   0  0  0  0  0  0  0  0  0  0  0  0
  148.7071  142.6986  155.4532 H   0  0  0  0  0  0  0  0  0  0  0  0
  148.8146  141.4104  154.2829 H   0  0  0  0  0  0  0  0  0  0  0  0
  146.6616  140.5063  154.8684 H   0  0  0  0  0  0  0  0  0  0  0  0
  146.6898  141.2611  156.4349 H   0  0  0  0  0  0  0  0  0  0  0  0
  147.1500  142.7282  153.0304 H   0  0  0  0  0  0  0  0  0  0  0  0
  146.3097  145.0151  152.6294 H   0  0  0  0  0  0  0  0  0  0  0  0
  144.9602  143.9508  152.2895 H   0  0  0  0  0  0  0  0  0  0  0  0
  145.4252  145.6701  154.7653 H   0  0  0  0  0  0  0  0  0  0  0  0
  144.0603  145.7205  153.6761 H   0  0  0  0  0  0  0  0  0  0  0  0
  143.4274  144.5776  155.7908 H   0  0  0  0  0  0  0  0  0  0  0  0
  143.3522  143.4541  154.4556 H   0  0  0  0  0  0  0  0  0  0  0  0
  144.4756  142.2937  156.2345 H   0  0  0  0  0  0  0  0  0  0  0  0
  145.5136  143.6494  156.5965 H   0  0  0  0  0  0  0  0  0  0  0  0
  153.9668  142.8770  161.2295 H   0  0  0  0  0  0  0  0  0  0  0  0
  152.4603  143.7581  161.0043 H   0  0  0  0  0  0  0  0  0  0  0  0
  153.7897  143.9530  159.8533 H   0  0  0  0  0  0  0  0  0  0  0  0
  1  2  1  0  0  0  0
  1 24  1  0  0  0  0
  1 25  1  0  0  0  0
  1 26  1  0  0  0  0
  2 22  1  0  0  0  0
  2  3  2  0  0  0  0
  3  4  1  0  0  0  0
  4  5  1  0  0  0  0
  4 17  1  0  0  0  0
  5  6  1  0  0  0  0
  5 27  1  0  0  0  0
  5 28  1  0  0  0  0
  6  7  2  0  0  0  0
  6  8  1  0  0  0  0
  8  9  1  0  0  0  0
  8 29  1  0  0  0  0
  9 10  1  0  0  0  0
  9 30  1  0  0  0  0
  9 31  1  0  0  0  0
 10 11  1  0  0  0  0
 10 32  1  0  0  0  0
 10 33  1  0  0  0  0
 11 16  1  0  0  0  0
 11 12  2  0  0  0  0
 12 13  1  0  0  0  0
 12 34  1  0  0  0  0
 13 14  1  0  0  0  0
 13 35  1  0  0  0  0
 13 36  1  0  0  0  0
 14 15  1  0  0  0  0
 14 37  1  0  0  0  0
 14 38  1  0  0  0  0
 15 16  1  0  0  0  0
 15 39  1  0  0  0  0
 15 40  1  0  0  0  0
 16 41  1  0  0  0  0
 16 42  1  0  0  0  0
 17 18  2  0  0  0  0
 17 19  1  0  0  0  0
 19 20  1  0  0  0  0
 19 22  2  0  0  0  0
 20 21  3  0  0  0  0
 22 23  1  0  0  0  0
 23 43  1  0  0  0  0
 23 44  1  0  0  0  0
 23 45  1  0  0  0  0
M  END
> <s_m_source_file>
AV-unprocessed.smi

> <i_m_source_file_index>
477

> <i_lp_mmshare_version>
43012

> <i_f3d_flags>
0

> <s_epik_input>
TiNDYyhjMVtDSDNdKWMoPU8pbihuYzFbQ0gzXSlbQ0gyXUMoPU8pW05IXVtDSDJdW0NIMl1DMj1bQ0hdW0NIMl1bQ0gyXVtDSDJdW0NIMl0y

> <s_epik_cmdline>
J2VwaWtfcHl0aG9uJywgJy1waCcsICc3LjAnLCAnLXRuJywgJzgnLCAnLW1hJywgJzIwMCcsICctbWV0YWxfYmluZGluZycsICctaW1hZScsICc8aW5maWxlLm1hZT4nLCAnLW9tYWUnLCAnPG91dGZpbGUubWFlPic=

> <r_lp_tautomer_probability>
1

> <r_epik_Ionization_Penalty>
1.81256e-08

> <r_epik_Ionization_Penalty_Charging>
2.1856e-11

> <r_epik_Ionization_Penalty_Neutral>
1.81037e-08

> <r_epik_State_Penalty>
-0

> <r_epik_Charging_Adjusted_Penalty>
2.1856e-11

> <i_epik_Tot_Q>
0

> <i_epik_Tot_abs_Q>
0

> <r_epik_Metal_State_Penalty>
-0

> <b_epik_Metal_Only>
0

> <s_lp_Force_Field>
OPLS_2005

> <r_lp_Energy>
23.5318

> <b_lp_Chiralities_Consistent>
1

> <s_lp_Variant>
AV-unprocessed.smi:477-1

> <Gold.Version>
5.8.1

> <Gold.Id.Protein>
6NUR|6NUR_protein|mol2

> <Gold.PLP.Fitness>
44.6975

> <Gold.PLP.PLP>
-42.2644

> <Gold.PLP.part.hbond>
-0.9526

> <Gold.PLP.part.metal>
0.0000

> <Gold.PLP.part.buried>
-7.7708

> <Gold.PLP.part.nonpolar>
-34.4335

> <Gold.PLP.part.repulsive>
0.1572

> <Gold.PLP.ligand.clash>
0.0000

> <Gold.PLP.ligand.torsion>
0.2929

> <Gold.PLP.Chemscore.Hbond>
0.9913

> <Gold.PLP.Chemscore.CHOScore>
0.0000

> <Gold.PLP.Chemscore.Metal>
0.0000

> <Gold.Chemscore.Hbonds>
donor molecule, donor type, donor heavy atom, donor atom, acceptor molecule, acceptor atom, score
      P1  H  7989  7998       L1     7  1.00

> <Gold.PLP.Chemscore.Internal.Correction>
0.0451

> <Gold.Rescore>
     Score         DG    S(hbond)    S(metal)    S(lipo)     H(rot)  DE(clash)    DE(int)     intcor
     15.76     -16.10       1.00        0.00     102.33       1.83       0.14       0.20       ----

> <Gold.Chemscore.Fitness>
15.7610

> <Gold.Chemscore.DG>
-16.1040

> <Gold.Chemscore.ZeroCoef>
-5.4800

> <Gold.Chemscore.Hbond>
0.9992

> <Gold.Chemscore.Metal>
0.0000

> <Gold.Chemscore.Lipo>
102.3312

> <Gold.Chemscore.Internal_Hbond>
0.0000

> <Gold.Chemscore.DEClash>
0.1393

> <Gold.Chemscore.DEInternal>
0.2036

> <Gold.Chemscore.Rot>
1.8305

> <Gold.Chemscore.Internal.Correction>
   9.000000E+99

> <Gold.Chemscore.Hbonds>
donor molecule, donor type, donor heavy atom, donor atom, acceptor molecule, acceptor atom, score
      P1  H  7989  7998       L1     7  1.00

> <Gold.Chemscore.Hbond.Weighted>
-3.3372

> <Gold.Chemscore.Metal.Weighted>
-0.0000

> <Gold.Chemscore.Lipo.Weighted>
-11.9728

> <Gold.Chemscore.Internal_Hbond.Weighted>
0.0000

> <Gold.Chemscore.DEClash.Weighted>
0.1393

> <Gold.Chemscore.DEInternal.Weighted>
0.2036

> <Gold.Chemscore.Rot.Weighted>
4.6860

> <Gold.Chemscore.Internal.Correction.Weighted>
   9.000000E+99

> <Gold.Protein.RotatedTorsions>
[ 6907 6896 6895 6894 ] final -103.68 input  -60.11 | X-H torsion
[ 7974 7965 7964 7962 ] final  -60.25 input  175.53 | X-H torsion
[ 8008 7997 7996 7995 ] final  117.16 input   59.86 | X-H torsion
[ 10167 10162 10161 10158 ] final  -71.01 input  -65.29 | X-H torsion
[ 10718 10713 10712 10709 ] final   75.03 input   66.30 | X-H torsion
[ 10763 10752 10751 10750 ] final    8.10 input  -60.55 | X-H torsion
[ 11005 11000 10999 10996 ] final   35.87 input  -57.11 | X-H torsion

> <Gold.Protein.ActiveResidues>
 VAL166  LYS551  ARG553  GLY616  TRP617  ASP618  TYR619  PRO620  LYS621  CYS622 
 ASP623  PHE694  ASN695  SER759  ASP760  ASP761  ALA762  ILE779  LEU786  VAL792 
 PHE793  MET794  SER795  GLU796  ALA797  LYS798  CYS799  TRP800  GLU811  SER814 

> <Gold.Protein.RotatedAtoms>
  150.7251  134.0393  159.3759 H   0  0  0  0  0  0  0  0  0  0  0  0  # atno 6907 bound_to 6896
  151.8366  135.0602  160.0452 H   0  0  0  0  0  0  0  0  0  0  0  0  # atno 6908 bound_to 6896
  152.2894  133.5510  159.5584 H   0  0  0  0  0  0  0  0  0  0  0  0  # atno 6909 bound_to 6896
  145.8178  140.8559  143.0148 H   0  0  0  0  0  0  0  0  0  0  0  0  # atno 7974 bound_to 7965
  156.2479  140.2902  156.0636 H   0  0  0  0  0  0  0  0  0  0  0  0  # atno 8008 bound_to 7997
  155.1749  140.0402  157.2887 H   0  0  0  0  0  0  0  0  0  0  0  0  # atno 8009 bound_to 7997
  154.6300  140.2497  155.7452 H   0  0  0  0  0  0  0  0  0  0  0  0  # atno 8010 bound_to 7997
  140.5307  143.2322  151.7266 H   0  0  0  0  0  0  0  0  0  0  0  0  # atno 10167 bound_to 10162
  157.6617  130.9706  150.1295 H   0  0  0  0  0  0  0  0  0  0  0  0  # atno 10718 bound_to 10713
  153.2288  135.6890  153.7913 H   0  0  0  0  0  0  0  0  0  0  0  0  # atno 10763 bound_to 10752
  153.7085  135.3286  155.3242 H   0  0  0  0  0  0  0  0  0  0  0  0  # atno 10764 bound_to 10752
  154.8304  135.4585  154.1166 H   0  0  0  0  0  0  0  0  0  0  0  0  # atno 10765 bound_to 10752
  140.2382  134.3446  155.7936 H   0  0  0  0  0  0  0  0  0  0  0  0  # atno 11005 bound_to 11000
  144.6750  140.0489  143.7479 LP  0  0  0  0  0  0  0  0  0  0  0  0  # atno 17320 bound_to 7965
  145.9708  139.2868  143.1100 LP  0  0  0  0  0  0  0  0  0  0  0  0  # atno 17321 bound_to 7965
  139.4953  144.4118  152.0072 LP  0  0  0  0  0  0  0  0  0  0  0  0  # atno 17342 bound_to 10162
  140.3220  144.3417  150.6007 LP  0  0  0  0  0  0  0  0  0  0  0  0  # atno 17343 bound_to 10162
  156.2145  130.3669  149.8630 LP  0  0  0  0  0  0  0  0  0  0  0  0  # atno 17370 bound_to 10713
  156.6499  130.8739  151.3529 LP  0  0  0  0  0  0  0  0  0  0  0  0  # atno 17371 bound_to 10713
  141.2212  133.7284  156.8843 LP  0  0  0  0  0  0  0  0  0  0  0  0  # atno 17394 bound_to 11000
  140.1680  134.9120  157.2798 LP  0  0  0  0  0  0  0  0  0  0  0  0  # atno 17395 bound_to 11000

$$$$
