AV-unprocessed.smi:2860|AV-procd|sdf|11006|dock7
  -GOLD-   2272015463D 1   1.00000     0.00000
 Structure written by MMmdl.
 45 46  0  0  0  0  0  0  0  0  1 V2000
  149.0448  134.6102  155.3281 C   0  0  0  0  0  0  0  0  0  0  0  0
  150.5089  135.0474  155.1867 C   0  0  0  0  0  0  0  0  0  0  0  0
  150.6203  136.3016  154.4522 N   0  0  0  0  0  0  0  0  0  0  0  0
  150.1948  137.4952  154.8953 C   0  0  0  0  0  0  0  0  0  0  0  0
  149.6843  137.6660  156.0020 O   0  0  0  0  0  0  0  0  0  0  0  0
  150.3623  138.6767  153.9392 C   0  0  0  0  0  0  0  0  0  0  0  0
  150.0136  139.9258  154.5923 N   0  0  0  0  0  0  0  0  0  0  0  0
  149.1302  140.8990  154.1670 C   0  0  0  0  0  0  0  0  0  0  0  0
  149.1157  141.8839  155.1133 C   0  0  0  0  0  0  0  0  0  0  0  0
  150.0382  141.4140  156.0880 C   0  0  0  0  0  0  0  0  0  0  0  0
  150.3009  142.1710  157.2576 N   0  0  0  0  0  0  0  0  0  0  0  0
  151.1643  141.8834  158.2485 C   0  0  0  0  0  0  0  0  0  0  0  0
  151.9556  140.9406  158.2300 O   0  0  0  0  0  0  0  0  0  0  0  0
  151.1528  142.8883  159.3552 C   0  0  0  0  0  0  0  0  0  0  0  0
  151.9675  144.1746  159.2249 C   0  0  0  0  0  0  0  0  0  0  0  0
  152.8448  144.4944  158.0142 C   0  0  0  0  0  0  0  0  0  0  0  0
  151.3334  145.4731  159.7061 C   0  0  0  0  0  0  0  0  0  0  0  0
  152.3920  143.0956  160.2219 C   0  0  0  0  0  0  0  0  0  0  0  0
  152.1916  143.2955  161.7181 C   0  0  0  0  0  0  0  0  0  0  0  0
  153.6861  142.3082  160.0134 C   0  0  0  0  0  0  0  0  0  0  0  0
  150.5767  140.2427  155.7789 N   0  0  0  0  0  0  0  0  0  0  0  0
  148.9741  133.6576  155.8531 H   0  0  0  0  0  0  0  0  0  0  0  0
  148.5743  134.4879  154.3521 H   0  0  0  0  0  0  0  0  0  0  0  0
  148.4641  135.3418  155.8909 H   0  0  0  0  0  0  0  0  0  0  0  0
  150.9758  135.1390  156.1687 H   0  0  0  0  0  0  0  0  0  0  0  0
  151.0697  134.2850  154.6459 H   0  0  0  0  0  0  0  0  0  0  0  0
  151.0328  136.2563  153.5317 H   0  0  0  0  0  0  0  0  0  0  0  0
  151.3929  138.7271  153.5839 H   0  0  0  0  0  0  0  0  0  0  0  0
  149.7265  138.5468  153.0624 H   0  0  0  0  0  0  0  0  0  0  0  0
  148.5876  140.8071  153.2377 H   0  0  0  0  0  0  0  0  0  0  0  0
  148.5354  142.7947  155.1087 H   0  0  0  0  0  0  0  0  0  0  0  0
  149.7487  143.0082  157.3715 H   0  0  0  0  0  0  0  0  0  0  0  0
  150.1807  143.0015  159.8321 H   0  0  0  0  0  0  0  0  0  0  0  0
  153.6497  145.1706  158.3031 H   0  0  0  0  0  0  0  0  0  0  0  0
  152.2532  144.9781  157.2363 H   0  0  0  0  0  0  0  0  0  0  0  0
  153.2953  143.6073  157.5737 H   0  0  0  0  0  0  0  0  0  0  0  0
  152.0945  146.1341  160.1213 H   0  0  0  0  0  0  0  0  0  0  0  0
  150.5789  145.2930  160.4709 H   0  0  0  0  0  0  0  0  0  0  0  0
  150.8418  145.9868  158.8793 H   0  0  0  0  0  0  0  0  0  0  0  0
  152.9600  143.9587  162.1163 H   0  0  0  0  0  0  0  0  0  0  0  0
  152.2522  142.3412  162.2426 H   0  0  0  0  0  0  0  0  0  0  0  0
  151.2156  143.7259  161.9390 H   0  0  0  0  0  0  0  0  0  0  0  0
  154.5405  142.8965  160.3494 H   0  0  0  0  0  0  0  0  0  0  0  0
  153.8518  142.0384  158.9720 H   0  0  0  0  0  0  0  0  0  0  0  0
  153.6621  141.3811  160.5867 H   0  0  0  0  0  0  0  0  0  0  0  0
  1  2  1  0  0  0  0
  1 22  1  0  0  0  0
  1 23  1  0  0  0  0
  1 24  1  0  0  0  0
  2  3  1  0  0  0  0
  2 25  1  0  0  0  0
  2 26  1  0  0  0  0
  3  4  1  0  0  0  0
  3 27  1  0  0  0  0
  4  5  2  0  0  0  0
  4  6  1  0  0  0  0
  6  7  1  0  0  0  0
  6 28  1  0  0  0  0
  6 29  1  0  0  0  0
  7 21  1  0  0  0  0
  7  8  1  0  0  0  0
  8  9  2  0  0  0  0
  8 30  1  0  0  0  0
  9 10  1  0  0  0  0
  9 31  1  0  0  0  0
 10 11  1  0  0  0  0
 10 21  2  0  0  0  0
 11 12  1  0  0  0  0
 11 32  1  0  0  0  0
 12 13  2  0  0  0  0
 12 14  1  0  0  0  0
 14 18  1  0  0  0  0
 14 15  1  0  0  0  0
 14 33  1  0  0  0  0
 15 16  1  0  0  0  0
 15 17  1  0  0  0  0
 15 18  1  0  0  0  0
 16 34  1  0  0  0  0
 16 35  1  0  0  0  0
 16 36  1  0  0  0  0
 17 37  1  0  0  0  0
 17 38  1  0  0  0  0
 17 39  1  0  0  0  0
 18 19  1  0  0  0  0
 18 20  1  0  0  0  0
 19 40  1  0  0  0  0
 19 41  1  0  0  0  0
 19 42  1  0  0  0  0
 20 43  1  0  0  0  0
 20 44  1  0  0  0  0
 20 45  1  0  0  0  0
M  END
> <s_m_source_file>
AV-unprocessed.smi

> <i_m_source_file_index>
2860

> <i_lp_mmshare_version>
43012

> <i_f3d_flags>
0

> <s_epik_input>
W0NIM11bQ0gyXVtOSF1DKD1PKVtDSDJdbjFbY0hdW2NIXWMobjEpW05IXUMoPU8pW0NIXShDMihbQ0gzXSlbQ0gzXSlDMihbQ0gzXSlbQ0gzXQ==

> <s_epik_cmdline>
J2VwaWtfcHl0aG9uJywgJy1waCcsICc3LjAnLCAnLXRuJywgJzgnLCAnLW1hJywgJzIwMCcsICctbWV0YWxfYmluZGluZycsICctaW1hZScsICc8aW5maWxlLm1hZT4nLCAnLW9tYWUnLCAnPG91dGZpbGUubWFlPic=

> <r_lp_tautomer_probability>
1

> <r_epik_Ionization_Penalty>
1.3586e-05

> <r_epik_Ionization_Penalty_Charging>
0

> <r_epik_Ionization_Penalty_Neutral>
1.3586e-05

> <r_epik_State_Penalty>
-0

> <r_epik_Charging_Adjusted_Penalty>
0

> <i_epik_Tot_Q>
0

> <i_epik_Tot_abs_Q>
0

> <r_epik_Metal_State_Penalty>
-0

> <b_epik_Metal_Only>
0

> <s_lp_Force_Field>
OPLS_2005

> <r_lp_Energy>
28.3378

> <b_lp_Chiralities_Consistent>
1

> <s_lp_Variant>
AV-unprocessed.smi:2860-1

> <Gold.Version>
5.8.1

> <Gold.Id.Protein>
6NUR|6NUR_protein|mol2

> <Gold.PLP.Fitness>
50.5416

> <Gold.PLP.PLP>
-46.4563

> <Gold.PLP.part.hbond>
-2.0023

> <Gold.PLP.part.metal>
0.0000

> <Gold.PLP.part.buried>
-0.5606

> <Gold.PLP.part.nonpolar>
-43.8311

> <Gold.PLP.part.repulsive>
0.1649

> <Gold.PLP.ligand.clash>
0.0000

> <Gold.PLP.ligand.torsion>
0.8223

> <Gold.PLP.Chemscore.Hbond>
1.0000

> <Gold.PLP.Chemscore.CHOScore>
0.8637

> <Gold.PLP.Chemscore.Metal>
0.0000

> <Gold.Chemscore.Hbonds>
donor molecule, donor type, donor heavy atom, donor atom, acceptor molecule, acceptor atom, score
      L1  H     3    27       P1  7949  0.93
      L1  C     8    30       P1  7957  0.88

> <Gold.PLP.Chemscore.Internal.Correction>
0.1389

> <Gold.Rescore>
     Score         DG    S(hbond)    S(metal)    S(lipo)     H(rot)  DE(clash)    DE(int)     intcor
     10.52     -16.49       0.51        0.00     116.33       1.68       1.00       4.97       ----

> <Gold.Chemscore.Fitness>
10.5188

> <Gold.Chemscore.DG>
-16.4879

> <Gold.Chemscore.ZeroCoef>
-5.4800

> <Gold.Chemscore.Hbond>
0.5074

> <Gold.Chemscore.Metal>
0.0000

> <Gold.Chemscore.Lipo>
116.3344

> <Gold.Chemscore.Internal_Hbond>
0.0000

> <Gold.Chemscore.DEClash>
1.0003

> <Gold.Chemscore.DEInternal>
4.9688

> <Gold.Chemscore.Rot>
1.6789

> <Gold.Chemscore.Internal.Correction>
   9.000000E+99

> <Gold.Chemscore.Hbonds>
donor molecule, donor type, donor heavy atom, donor atom, acceptor molecule, acceptor atom, score
      L1  H     3    27       P1  7949  0.23

> <Gold.Chemscore.Hbond.Weighted>
-1.6949

> <Gold.Chemscore.Metal.Weighted>
-0.0000

> <Gold.Chemscore.Lipo.Weighted>
-13.6111

> <Gold.Chemscore.Internal_Hbond.Weighted>
0.0000

> <Gold.Chemscore.DEClash.Weighted>
1.0003

> <Gold.Chemscore.DEInternal.Weighted>
4.9688

> <Gold.Chemscore.Rot.Weighted>
4.2981

> <Gold.Chemscore.Internal.Correction.Weighted>
   9.000000E+99

> <Gold.Protein.RotatedTorsions>
[ 6907 6896 6895 6894 ] final   65.28 input  -60.11 | X-H torsion
[ 7974 7965 7964 7962 ] final -117.74 input  175.53 | X-H torsion
[ 8008 7997 7996 7995 ] final -123.82 input   59.86 | X-H torsion
[ 10167 10162 10161 10158 ] final  -97.80 input  -65.29 | X-H torsion
[ 10718 10713 10712 10709 ] final -125.44 input   66.30 | X-H torsion
[ 10763 10752 10751 10750 ] final   56.99 input  -60.55 | X-H torsion
[ 11005 11000 10999 10996 ] final  -66.76 input  -57.11 | X-H torsion

> <Gold.Protein.ActiveResidues>
 VAL166  LYS551  ARG553  GLY616  TRP617  ASP618  TYR619  PRO620  LYS621  CYS622 
 ASP623  PHE694  ASN695  SER759  ASP760  ASP761  ALA762  ILE779  LEU786  VAL792 
 PHE793  MET794  SER795  GLU796  ALA797  LYS798  CYS799  TRP800  GLU811  SER814 

> <Gold.Protein.RotatedAtoms>
  152.4395  134.5619  159.9896 H   0  0  0  0  0  0  0  0  0  0  0  0  # atno 6907 bound_to 6896
  151.5720  133.3383  159.2999 H   0  0  0  0  0  0  0  0  0  0  0  0  # atno 6908 bound_to 6896
  150.8299  134.7581  159.6909 H   0  0  0  0  0  0  0  0  0  0  0  0  # atno 6909 bound_to 6896
  145.0817  140.8430  143.4035 H   0  0  0  0  0  0  0  0  0  0  0  0  # atno 7974 bound_to 7965
  155.1868  140.0412  157.2892 H   0  0  0  0  0  0  0  0  0  0  0  0  # atno 8008 bound_to 7997
  154.6166  140.2490  155.7574 H   0  0  0  0  0  0  0  0  0  0  0  0  # atno 8009 bound_to 7997
  156.2410  140.2903  156.0454 H   0  0  0  0  0  0  0  0  0  0  0  0  # atno 8010 bound_to 7997
  140.2796  143.3291  152.0454 H   0  0  0  0  0  0  0  0  0  0  0  0  # atno 10167 bound_to 10162
  156.1675  130.6645  151.0135 H   0  0  0  0  0  0  0  0  0  0  0  0  # atno 10718 bound_to 10713
  152.9842  135.5657  154.5319 H   0  0  0  0  0  0  0  0  0  0  0  0  # atno 10763 bound_to 10752
  154.4789  135.2788  155.1588 H   0  0  0  0  0  0  0  0  0  0  0  0  # atno 10764 bound_to 10752
  154.3105  135.6289  153.5516 H   0  0  0  0  0  0  0  0  0  0  0  0  # atno 10765 bound_to 10752
  141.1490  133.6705  156.6188 H   0  0  0  0  0  0  0  0  0  0  0  0  # atno 11005 bound_to 11000
  145.1170  139.2719  143.5608 LP  0  0  0  0  0  0  0  0  0  0  0  0  # atno 17320 bound_to 7965
  146.3531  140.0782  142.8619 LP  0  0  0  0  0  0  0  0  0  0  0  0  # atno 17321 bound_to 7965
  139.4966  144.6601  151.6484 LP  0  0  0  0  0  0  0  0  0  0  0  0  # atno 17342 bound_to 10162
  140.5823  143.9925  150.6275 LP  0  0  0  0  0  0  0  0  0  0  0  0  # atno 17343 bound_to 10162
  157.6779  131.0846  150.7447 LP  0  0  0  0  0  0  0  0  0  0  0  0  # atno 17370 bound_to 10713
  156.7507  130.4768  149.5457 LP  0  0  0  0  0  0  0  0  0  0  0  0  # atno 17371 bound_to 10713
  140.3556  134.7731  157.4498 LP  0  0  0  0  0  0  0  0  0  0  0  0  # atno 17394 bound_to 11000
  140.0825  134.5711  155.8525 LP  0  0  0  0  0  0  0  0  0  0  0  0  # atno 17395 bound_to 11000

$$$$
