AV-unprocessed.smi:144|AV-procd|sdf|1195|dock6
  -GOLD-   2262018353D 1   1.00000     0.00000
 Structure written by MMmdl.
 46 48  0  0  0  0  0  0  0  0  1 V2000
  151.1264  136.8166  158.7661 O   0  0  0  0  0  0  0  0  0  0  0  0
  151.4008  137.0894  157.5987 C   0  0  0  0  0  0  0  0  0  0  0  0
  152.3749  138.2516  157.3273 C   0  0  0  0  0  0  0  0  0  0  0  0
  151.7343  139.5739  157.1340 N   0  0  0  0  0  0  0  0  0  0  0  0
  150.9078  139.7724  156.0002 C   0  0  0  0  0  0  0  0  0  0  0  0
  150.7198  138.8715  155.1817 O   0  0  0  0  0  0  0  0  0  0  0  0
  150.2979  141.0927  155.8883 C   0  0  0  0  0  0  0  0  0  0  0  0
  149.5077  141.3733  154.8384 F   0  0  0  0  0  0  0  0  0  0  0  0
  150.5089  142.0382  156.8270 C   0  0  0  0  0  0  0  0  0  0  0  0
  151.3040  141.8243  157.9387 N   0  0  0  0  0  0  0  0  0  0  0  0
  151.5106  142.8876  158.9963 C   0  0  2  0  0  0  0  0  0  0  0  0
  150.5782  144.0870  158.7442 C   0  0  0  0  0  0  0  0  0  0  0  0
  151.5268  145.2661  158.8233 C   0  0  0  0  0  0  0  0  0  0  0  0
  152.8293  144.6526  158.3320 C   0  0  0  0  0  0  0  0  0  0  0  0
  152.8241  143.3667  158.9388 O   0  0  0  0  0  0  0  0  0  0  0  0
  151.9426  140.5776  158.1101 C   0  0  0  0  0  0  0  0  0  0  0  0
  152.6503  140.3650  159.0973 O   0  0  0  0  0  0  0  0  0  0  0  0
  150.8870  136.4476  156.5305 N   0  0  0  0  0  0  0  0  0  0  0  0
  149.9467  135.3849  156.4878 C   0  0  0  0  0  0  0  0  0  0  0  0
  149.0673  135.2682  157.5828 C   0  0  0  0  0  0  0  0  0  0  0  0
  148.0976  134.2442  157.6224 C   0  0  0  0  0  0  0  0  0  0  0  0
  147.1529  134.1132  158.8074 C   0  0  0  0  0  0  0  0  0  0  0  0
  145.8947  134.1647  158.3721 F   0  0  0  0  0  0  0  0  0  0  0  0
  147.3468  132.9487  159.4267 F   0  0  0  0  0  0  0  0  0  0  0  0
  147.3399  135.0928  159.6929 F   0  0  0  0  0  0  0  0  0  0  0  0
  147.9963  133.3453  156.5404 C   0  0  0  0  0  0  0  0  0  0  0  0
  148.8515  133.4648  155.4241 C   0  0  0  0  0  0  0  0  0  0  0  0
  148.7394  132.4989  154.2535 C   0  0  0  0  0  0  0  0  0  0  0  0
  148.7810  133.1615  153.0973 F   0  0  0  0  0  0  0  0  0  0  0  0
  149.7583  131.6413  154.2942 F   0  0  0  0  0  0  0  0  0  0  0  0
  147.5984  131.8102  154.2977 F   0  0  0  0  0  0  0  0  0  0  0  0
  149.8267  134.4846  155.4029 C   0  0  0  0  0  0  0  0  0  0  0  0
  153.0897  138.2924  158.1508 H   0  0  0  0  0  0  0  0  0  0  0  0
  152.9888  137.9818  156.4667 H   0  0  0  0  0  0  0  0  0  0  0  0
  150.0271  142.9935  156.6858 H   0  0  0  0  0  0  0  0  0  0  0  0
  151.3522  142.3910  159.9554 H   0  0  0  0  0  0  0  0  0  0  0  0
  150.1377  144.0201  157.7479 H   0  0  0  0  0  0  0  0  0  0  0  0
  149.7785  144.1249  159.4842 H   0  0  0  0  0  0  0  0  0  0  0  0
  151.2026  146.1177  158.2249 H   0  0  0  0  0  0  0  0  0  0  0  0
  151.6347  145.5937  159.8582 H   0  0  0  0  0  0  0  0  0  0  0  0
  152.8261  144.5562  157.2455 H   0  0  0  0  0  0  0  0  0  0  0  0
  153.7061  145.2305  158.6249 H   0  0  0  0  0  0  0  0  0  0  0  0
  151.1433  136.8307  155.6323 H   0  0  0  0  0  0  0  0  0  0  0  0
  149.1459  135.9687  158.4018 H   0  0  0  0  0  0  0  0  0  0  0  0
  147.2512  132.5641  156.5696 H   0  0  0  0  0  0  0  0  0  0  0  0
  150.4650  134.5679  154.5371 H   0  0  0  0  0  0  0  0  0  0  0  0
  1  2  2  0  0  0  0
  2  3  1  0  0  0  0
  2 18  1  0  0  0  0
  3  4  1  0  0  0  0
  3 33  1  0  0  0  0
  3 34  1  0  0  0  0
  4 16  1  0  0  0  0
  4  5  1  0  0  0  0
  5  6  2  0  0  0  0
  5  7  1  0  0  0  0
  7  8  1  0  0  0  0
  7  9  2  0  0  0  0
  9 10  1  0  0  0  0
  9 35  1  0  0  0  0
 10 11  1  0  0  0  0
 10 16  1  0  0  0  0
 11 15  1  0  0  0  0
 11 12  1  0  0  0  0
 11 36  1  0  0  0  0
 12 13  1  0  0  0  0
 12 37  1  0  0  0  0
 12 38  1  0  0  0  0
 13 14  1  0  0  0  0
 13 39  1  0  0  0  0
 13 40  1  0  0  0  0
 14 15  1  0  0  0  0
 14 41  1  0  0  0  0
 14 42  1  0  0  0  0
 16 17  2  0  0  0  0
 18 19  1  0  0  0  0
 18 43  1  0  0  0  0
 19 32  1  0  0  0  0
 19 20  2  0  0  0  0
 20 21  1  0  0  0  0
 20 44  1  0  0  0  0
 21 22  1  0  0  0  0
 21 26  2  0  0  0  0
 22 23  1  0  0  0  0
 22 24  1  0  0  0  0
 22 25  1  0  0  0  0
 26 27  1  0  0  0  0
 26 45  1  0  0  0  0
 27 28  1  0  0  0  0
 27 32  2  0  0  0  0
 28 29  1  0  0  0  0
 28 30  1  0  0  0  0
 28 31  1  0  0  0  0
 32 46  1  0  0  0  0
M  END
> <s_m_source_file>
AV-unprocessed.smi

> <i_m_source_file_index>
144

> <i_lp_mmshare_version>
43012

> <i_f3d_flags>
0

> <s_epik_input>
RkMoRikoRiljKFtjSF0xKVtjSF1jKEMoRikoRilGKVtjSF1jMVtOSF1DKD1PKVtDSDJdbjJjKD1PKWMoRilbY0hdbihjMj1PKVtDQEBIXTNbQ0gyXVtDSDJdW0NIMl1PMw==

> <s_epik_cmdline>
J2VwaWtfcHl0aG9uJywgJy1waCcsICc3LjAnLCAnLXRuJywgJzgnLCAnLW1hJywgJzIwMCcsICctbWV0YWxfYmluZGluZycsICctaW1hZScsICc8aW5maWxlLm1hZT4nLCAnLW9tYWUnLCAnPG91dGZpbGUubWFlPic=

> <r_lp_tautomer_probability>
1

> <r_epik_Ionization_Penalty>
3.68082e-06

> <r_epik_Ionization_Penalty_Charging>
3.88729e-08

> <r_epik_Ionization_Penalty_Neutral>
3.64194e-06

> <r_epik_State_Penalty>
-0

> <r_epik_Charging_Adjusted_Penalty>
3.88729e-08

> <i_epik_Tot_Q>
0

> <i_epik_Tot_abs_Q>
0

> <r_epik_Metal_State_Penalty>
-0

> <b_epik_Metal_Only>
0

> <s_epik_Chemistry_Notes>
This compound contains an acetal/aminal-like group ( X-CH(R)-Y where X, Y are N, S, or O) that may be acid/base labile, releasing an aldehyde.

> <s_lp_Force_Field>
OPLS_2005

> <r_lp_Energy>
34.4133

> <b_lp_Chiralities_Consistent>
1

> <s_lp_Variant>
AV-unprocessed.smi:144-1

> <Gold.Version>
5.8.1

> <Gold.Id.Protein>
6NUR|6NUR_protein|mol2

> <Gold.PLP.Fitness>
52.6659

> <Gold.PLP.PLP>
-48.5565

> <Gold.PLP.part.hbond>
-1.0000

> <Gold.PLP.part.metal>
0.0000

> <Gold.PLP.part.buried>
-8.1055

> <Gold.PLP.part.nonpolar>
-40.0324

> <Gold.PLP.part.repulsive>
0.1705

> <Gold.PLP.ligand.clash>
0.7491

> <Gold.PLP.ligand.torsion>
1.2577

> <Gold.PLP.Chemscore.Hbond>
0.9600

> <Gold.PLP.Chemscore.CHOScore>
1.0000

> <Gold.PLP.Chemscore.Metal>
0.0000

> <Gold.Chemscore.Hbonds>
donor molecule, donor type, donor heavy atom, donor atom, acceptor molecule, acceptor atom, score
      P1  H  6896  6907       L1     1  0.96
      L1  C     9    35       P1  8028  1.00

> <Gold.PLP.Chemscore.Internal.Correction>
1.4939

> <Gold.Rescore>
     Score         DG    S(hbond)    S(metal)    S(lipo)     H(rot)  DE(clash)    DE(int)     intcor
     11.04     -13.55       0.97        0.00      81.46       1.83       0.06       2.45       ----

> <Gold.Chemscore.Fitness>
11.0431

> <Gold.Chemscore.DG>
-13.5545

> <Gold.Chemscore.ZeroCoef>
-5.4800

> <Gold.Chemscore.Hbond>
0.9686

> <Gold.Chemscore.Metal>
0.0000

> <Gold.Chemscore.Lipo>
81.4563

> <Gold.Chemscore.Internal_Hbond>
0.0000

> <Gold.Chemscore.DEClash>
0.0590

> <Gold.Chemscore.DEInternal>
2.4524

> <Gold.Chemscore.Rot>
1.8325

> <Gold.Chemscore.Internal.Correction>
   9.000000E+99

> <Gold.Chemscore.Hbonds>
donor molecule, donor type, donor heavy atom, donor atom, acceptor molecule, acceptor atom, score
      P1  H  6896  6907       L1     1  0.86

> <Gold.Chemscore.Hbond.Weighted>
-3.2352

> <Gold.Chemscore.Metal.Weighted>
-0.0000

> <Gold.Chemscore.Lipo.Weighted>
-9.5304

> <Gold.Chemscore.Internal_Hbond.Weighted>
0.0000

> <Gold.Chemscore.DEClash.Weighted>
0.0590

> <Gold.Chemscore.DEInternal.Weighted>
2.4524

> <Gold.Chemscore.Rot.Weighted>
4.6911

> <Gold.Chemscore.Internal.Correction.Weighted>
   9.000000E+99

> <Gold.Protein.RotatedTorsions>
[ 6907 6896 6895 6894 ] final  -16.45 input  -60.11 | X-H torsion
[ 7974 7965 7964 7962 ] final  123.78 input  175.53 | X-H torsion
[ 8008 7997 7996 7995 ] final  -84.44 input   59.86 | X-H torsion
[ 10167 10162 10161 10158 ] final   17.69 input  -65.29 | X-H torsion
[ 10718 10713 10712 10709 ] final  -37.04 input   66.30 | X-H torsion
[ 10763 10752 10751 10750 ] final   75.23 input  -60.55 | X-H torsion
[ 11005 11000 10999 10996 ] final  147.74 input  -57.11 | X-H torsion

> <Gold.Protein.ActiveResidues>
 VAL166  LYS551  ARG553  GLY616  TRP617  ASP618  TYR619  PRO620  LYS621  CYS622 
 ASP623  PHE694  ASN695  SER759  ASP760  ASP761  ALA762  ILE779  LEU786  VAL792 
 PHE793  MET794  SER795  GLU796  ALA797  LYS798  CYS799  TRP800  GLU811  SER814 

> <Gold.Protein.RotatedAtoms>
  151.3085  135.0788  159.9263 H   0  0  0  0  0  0  0  0  0  0  0  0  # atno 6907 bound_to 6896
  152.5283  133.9760  159.7795 H   0  0  0  0  0  0  0  0  0  0  0  0  # atno 6908 bound_to 6896
  151.0060  133.5959  159.2719 H   0  0  0  0  0  0  0  0  0  0  0  0  # atno 6909 bound_to 6896
  145.0920  139.3580  143.4856 H   0  0  0  0  0  0  0  0  0  0  0  0  # atno 7974 bound_to 7965
  154.6298  140.0605  156.9718 H   0  0  0  0  0  0  0  0  0  0  0  0  # atno 8008 bound_to 7997
  155.1683  140.3289  155.4379 H   0  0  0  0  0  0  0  0  0  0  0  0  # atno 8009 bound_to 7997
  156.2477  140.1918  156.6787 H   0  0  0  0  0  0  0  0  0  0  0  0  # atno 8010 bound_to 7997
  140.5707  143.9166  150.6711 H   0  0  0  0  0  0  0  0  0  0  0  0  # atno 10167 bound_to 10162
  156.3199  130.4264  149.7970 H   0  0  0  0  0  0  0  0  0  0  0  0  # atno 10718 bound_to 10713
  153.0641  135.4996  154.8159 H   0  0  0  0  0  0  0  0  0  0  0  0  # atno 10763 bound_to 10752
  154.6926  135.2987  154.9459 H   0  0  0  0  0  0  0  0  0  0  0  0  # atno 10764 bound_to 10752
  154.0209  135.6742  153.4825 H   0  0  0  0  0  0  0  0  0  0  0  0  # atno 10765 bound_to 10752
  140.0901  134.9046  157.1637 H   0  0  0  0  0  0  0  0  0  0  0  0  # atno 11005 bound_to 11000
  146.3531  140.0758  142.8620 LP  0  0  0  0  0  0  0  0  0  0  0  0  # atno 17320 bound_to 7965
  145.1055  140.9372  143.4687 LP  0  0  0  0  0  0  0  0  0  0  0  0  # atno 17321 bound_to 7965
  140.2640  143.3503  152.1297 LP  0  0  0  0  0  0  0  0  0  0  0  0  # atno 17342 bound_to 10162
  139.5116  144.6903  151.5776 LP  0  0  0  0  0  0  0  0  0  0  0  0  # atno 17343 bound_to 10162
  156.5282  130.8246  151.3228 LP  0  0  0  0  0  0  0  0  0  0  0  0  # atno 17370 bound_to 10713
  157.7409  130.9860  150.2411 LP  0  0  0  0  0  0  0  0  0  0  0  0  # atno 17371 bound_to 10713
  140.3365  134.2752  155.7219 LP  0  0  0  0  0  0  0  0  0  0  0  0  # atno 17394 bound_to 11000
  141.2075  133.7804  157.0115 LP  0  0  0  0  0  0  0  0  0  0  0  0  # atno 17395 bound_to 11000

$$$$
