AV-unprocessed.smi:1017|AV-procd|sdf|4438|dock7
  -GOLD-   22720 2393D 1   1.00000     0.00000
 Structure written by MMmdl.
 44 45  0  0  0  0  0  0  0  0  1 V2000
  154.2469  136.5899  161.6064 C   0  0  0  0  0  0  0  0  0  0  0  0
  153.6744  136.2560  160.3543 O   0  0  0  0  0  0  0  0  0  0  0  0
  154.1718  137.0597  159.2980 C   0  0  0  0  0  0  0  0  0  0  0  0
  153.3136  136.8206  158.0464 C   0  0  0  0  0  0  0  0  0  0  0  0
  152.0031  137.4699  158.1570 N   0  0  0  0  0  0  0  0  0  0  0  0
  150.9934  136.6323  158.6009 N   0  0  0  0  0  0  0  0  0  0  0  0
  149.7884  137.0792  158.7394 C   0  0  0  0  0  0  0  0  0  0  0  0
  148.7125  136.1681  159.2243 C   0  0  0  0  0  0  0  0  0  0  0  0
  148.8431  134.9461  159.1488 O   0  0  0  0  0  0  0  0  0  0  0  0
  147.6230  136.7674  159.7425 N   0  0  0  0  0  0  0  0  0  0  0  0
  146.4029  136.1770  160.3180 C   0  0  0  0  0  0  0  0  0  0  0  0
  145.2214  136.3023  159.3126 C   0  0  0  0  0  0  0  0  0  0  0  0
  144.1031  135.8057  159.8432 F   0  0  0  0  0  0  0  0  0  0  0  0
  145.0045  137.5837  159.0106 F   0  0  0  0  0  0  0  0  0  0  0  0
  145.4573  135.6400  158.1805 F   0  0  0  0  0  0  0  0  0  0  0  0
  146.6162  134.6958  160.7433 C   0  0  0  0  0  0  0  0  0  0  0  0
  147.6930  134.5301  161.8312 C   0  0  0  0  0  0  0  0  0  0  0  0
  147.3569  135.3692  163.0718 C   0  0  0  0  0  0  0  0  0  0  0  0
  147.1440  136.8441  162.7018 C   0  0  0  0  0  0  0  0  0  0  0  0
  146.0804  136.9978  161.5963 C   0  0  0  0  0  0  0  0  0  0  0  0
  149.4713  138.4684  158.4297 C   0  0  0  0  0  0  0  0  0  0  0  0
  150.4674  139.2713  157.9964 C   0  0  0  0  0  0  0  0  0  0  0  0
  151.8382  138.7873  157.8318 C   0  0  0  0  0  0  0  0  0  0  0  0
  152.7596  139.4994  157.4337 O   0  0  0  0  0  0  0  0  0  0  0  0
  153.8282  135.9489  162.3823 H   0  0  0  0  0  0  0  0  0  0  0  0
  154.0338  137.6256  161.8744 H   0  0  0  0  0  0  0  0  0  0  0  0
  155.3282  136.4455  161.5973 H   0  0  0  0  0  0  0  0  0  0  0  0
  154.1405  138.1116  159.5870 H   0  0  0  0  0  0  0  0  0  0  0  0
  155.2128  136.8042  159.0931 H   0  0  0  0  0  0  0  0  0  0  0  0
  153.8431  137.1973  157.1692 H   0  0  0  0  0  0  0  0  0  0  0  0
  153.1929  135.7497  157.8745 H   0  0  0  0  0  0  0  0  0  0  0  0
  147.6395  137.7768  159.7429 H   0  0  0  0  0  0  0  0  0  0  0  0
  145.6772  134.2958  161.1276 H   0  0  0  0  0  0  0  0  0  0  0  0
  146.8620  134.0688  159.8870 H   0  0  0  0  0  0  0  0  0  0  0  0
  147.7772  133.4793  162.1092 H   0  0  0  0  0  0  0  0  0  0  0  0
  148.6689  134.8212  161.4408 H   0  0  0  0  0  0  0  0  0  0  0  0
  146.4543  134.9773  163.5426 H   0  0  0  0  0  0  0  0  0  0  0  0
  148.1547  135.2805  163.8099 H   0  0  0  0  0  0  0  0  0  0  0  0
  146.8389  137.4038  163.5863 H   0  0  0  0  0  0  0  0  0  0  0  0
  148.0891  137.2808  162.3773 H   0  0  0  0  0  0  0  0  0  0  0  0
  145.9693  138.0539  161.3475 H   0  0  0  0  0  0  0  0  0  0  0  0
  145.1181  136.6853  162.0032 H   0  0  0  0  0  0  0  0  0  0  0  0
  148.4740  138.8684  158.5373 H   0  0  0  0  0  0  0  0  0  0  0  0
  150.2472  140.3028  157.7639 H   0  0  0  0  0  0  0  0  0  0  0  0
  1  2  1  0  0  0  0
  1 25  1  0  0  0  0
  1 26  1  0  0  0  0
  1 27  1  0  0  0  0
  2  3  1  0  0  0  0
  3  4  1  0  0  0  0
  3 28  1  0  0  0  0
  3 29  1  0  0  0  0
  4  5  1  0  0  0  0
  4 30  1  0  0  0  0
  4 31  1  0  0  0  0
  5 23  1  0  0  0  0
  5  6  1  0  0  0  0
  6  7  2  0  0  0  0
  7  8  1  0  0  0  0
  7 21  1  0  0  0  0
  8  9  2  0  0  0  0
  8 10  1  0  0  0  0
 10 11  1  0  0  0  0
 10 32  1  0  0  0  0
 11 20  1  0  0  0  0
 11 12  1  0  0  0  0
 11 16  1  0  0  0  0
 12 13  1  0  0  0  0
 12 14  1  0  0  0  0
 12 15  1  0  0  0  0
 16 17  1  0  0  0  0
 16 33  1  0  0  0  0
 16 34  1  0  0  0  0
 17 18  1  0  0  0  0
 17 35  1  0  0  0  0
 17 36  1  0  0  0  0
 18 19  1  0  0  0  0
 18 37  1  0  0  0  0
 18 38  1  0  0  0  0
 19 20  1  0  0  0  0
 19 39  1  0  0  0  0
 19 40  1  0  0  0  0
 20 41  1  0  0  0  0
 20 42  1  0  0  0  0
 21 22  2  0  0  0  0
 21 43  1  0  0  0  0
 22 23  1  0  0  0  0
 22 44  1  0  0  0  0
 23 24  2  0  0  0  0
M  END
> <s_m_source_file>
AV-unprocessed.smi

> <i_m_source_file_index>
1017

> <i_lp_mmshare_version>
43012

> <i_f3d_flags>
0

> <s_epik_input>
W0NIM11PW0NIMl1bQ0gyXW4xbmMoW2NIXVtjSF1jMT1PKUMoPU8pW05IXUMyKEMoRikoRilGKVtDSDJdW0NIMl1bQ0gyXVtDSDJdW0NIMl0y

> <s_epik_cmdline>
J2VwaWtfcHl0aG9uJywgJy1waCcsICc3LjAnLCAnLXRuJywgJzgnLCAnLW1hJywgJzIwMCcsICctbWV0YWxfYmluZGluZycsICctaW1hZScsICc8aW5maWxlLm1hZT4nLCAnLW9tYWUnLCAnPG91dGZpbGUubWFlPic=

> <r_lp_tautomer_probability>
1

> <r_epik_Ionization_Penalty>
9.29602e-06

> <r_epik_Ionization_Penalty_Charging>
4.97824e-09

> <r_epik_Ionization_Penalty_Neutral>
9.29104e-06

> <r_epik_State_Penalty>
-0

> <r_epik_Charging_Adjusted_Penalty>
4.97824e-09

> <i_epik_Tot_Q>
0

> <i_epik_Tot_abs_Q>
0

> <r_epik_Metal_State_Penalty>
0.00907788

> <b_epik_Metal_Only>
0

> <s_lp_Force_Field>
OPLS_2005

> <r_lp_Energy>
35.4859

> <b_lp_Chiralities_Consistent>
1

> <s_lp_Variant>
AV-unprocessed.smi:1017-1

> <Gold.Version>
5.8.1

> <Gold.Id.Protein>
6NUR|6NUR_protein|mol2

> <Gold.PLP.Fitness>
38.6026

> <Gold.PLP.PLP>
-31.3846

> <Gold.PLP.part.hbond>
-3.9835

> <Gold.PLP.part.metal>
0.0000

> <Gold.PLP.part.buried>
-5.3344

> <Gold.PLP.part.nonpolar>
-22.1437

> <Gold.PLP.part.repulsive>
0.1686

> <Gold.PLP.ligand.clash>
0.0000

> <Gold.PLP.ligand.torsion>
0.9547

> <Gold.PLP.Chemscore.Hbond>
3.0000

> <Gold.PLP.Chemscore.CHOScore>
0.0000

> <Gold.PLP.Chemscore.Metal>
0.0000

> <Gold.Chemscore.Hbonds>
donor molecule, donor type, donor heavy atom, donor atom, acceptor molecule, acceptor atom, score
      P1  H  6896  6907       L1     2  1.00
      P1  H  6896  6909       L1     9  1.00
      P1  H  7997  8008       L1    24  1.00

> <Gold.PLP.Chemscore.Internal.Correction>
0.1275

> <Gold.Rescore>
     Score         DG    S(hbond)    S(metal)    S(lipo)     H(rot)  DE(clash)    DE(int)     intcor
     16.39     -18.82       2.91        0.00      68.07       1.70       0.04       2.40       ----

> <Gold.Chemscore.Fitness>
16.3887

> <Gold.Chemscore.DG>
-18.8231

> <Gold.Chemscore.ZeroCoef>
-5.4800

> <Gold.Chemscore.Hbond>
2.9122

> <Gold.Chemscore.Metal>
0.0000

> <Gold.Chemscore.Lipo>
68.0656

> <Gold.Chemscore.Internal_Hbond>
0.0000

> <Gold.Chemscore.DEClash>
0.0384

> <Gold.Chemscore.DEInternal>
2.3960

> <Gold.Chemscore.Rot>
1.6982

> <Gold.Chemscore.Internal.Correction>
   9.000000E+99

> <Gold.Chemscore.Hbonds>
donor molecule, donor type, donor heavy atom, donor atom, acceptor molecule, acceptor atom, score
      P1  H  6896  6907       L1     2  0.96
      P1  H  6896  6909       L1     9  0.74
      P1  H  7997  8008       L1    24  1.00

> <Gold.Chemscore.Hbond.Weighted>
-9.7268

> <Gold.Chemscore.Metal.Weighted>
-0.0000

> <Gold.Chemscore.Lipo.Weighted>
-7.9637

> <Gold.Chemscore.Internal_Hbond.Weighted>
0.0000

> <Gold.Chemscore.DEClash.Weighted>
0.0384

> <Gold.Chemscore.DEInternal.Weighted>
2.3960

> <Gold.Chemscore.Rot.Weighted>
4.3474

> <Gold.Chemscore.Internal.Correction.Weighted>
   9.000000E+99

> <Gold.Protein.RotatedTorsions>
[ 6907 6896 6895 6894 ] final   43.41 input  -60.11 | X-H torsion
[ 7974 7965 7964 7962 ] final  150.79 input  175.53 | X-H torsion
[ 8008 7997 7996 7995 ] final  -61.38 input   59.86 | X-H torsion
[ 10167 10162 10161 10158 ] final -121.92 input  -65.29 | X-H torsion
[ 10718 10713 10712 10709 ] final   80.42 input   66.30 | X-H torsion
[ 10763 10752 10751 10750 ] final   54.29 input  -60.55 | X-H torsion
[ 11005 11000 10999 10996 ] final   28.19 input  -57.11 | X-H torsion

> <Gold.Protein.ActiveResidues>
 VAL166  LYS551  ARG553  GLY616  TRP617  ASP618  TYR619  PRO620  LYS621  CYS622 
 ASP623  PHE694  ASN695  SER759  ASP760  ASP761  ALA762  ILE779  LEU786  VAL792 
 PHE793  MET794  SER795  GLU796  ALA797  LYS798  CYS799  TRP800  GLU811  SER814 

> <Gold.Protein.RotatedAtoms>
  152.2199  134.8422  160.0486 H   0  0  0  0  0  0  0  0  0  0  0  0  # atno 6907 bound_to 6896
  151.9209  133.3580  159.3905 H   0  0  0  0  0  0  0  0  0  0  0  0  # atno 6908 bound_to 6896
  150.6997  134.4561  159.5403 H   0  0  0  0  0  0  0  0  0  0  0  0  # atno 6909 bound_to 6896
  144.8338  139.6454  143.6047 H   0  0  0  0  0  0  0  0  0  0  0  0  # atno 7974 bound_to 7965
  154.4445  140.1019  156.6422 H   0  0  0  0  0  0  0  0  0  0  0  0  # atno 8008 bound_to 7997
  155.5489  140.3485  155.4445 H   0  0  0  0  0  0  0  0  0  0  0  0  # atno 8009 bound_to 7997
  156.0543  140.1311  157.0004 H   0  0  0  0  0  0  0  0  0  0  0  0  # atno 8010 bound_to 7997
  140.0198  143.5356  152.2226 H   0  0  0  0  0  0  0  0  0  0  0  0  # atno 10167 bound_to 10162
  157.6805  130.9958  150.2076 H   0  0  0  0  0  0  0  0  0  0  0  0  # atno 10718 bound_to 10713
  152.9803  135.5750  154.4879 H   0  0  0  0  0  0  0  0  0  0  0  0  # atno 10763 bound_to 10752
  154.4418  135.2776  155.1844 H   0  0  0  0  0  0  0  0  0  0  0  0  # atno 10764 bound_to 10752
  154.3509  135.6209  153.5696 H   0  0  0  0  0  0  0  0  0  0  0  0  # atno 10765 bound_to 10752
  140.3182  134.2573  155.7722 H   0  0  0  0  0  0  0  0  0  0  0  0  # atno 11005 bound_to 11000
  146.2639  139.6474  142.9343 LP  0  0  0  0  0  0  0  0  0  0  0  0  # atno 17320 bound_to 7965
  145.4838  141.0438  143.2631 LP  0  0  0  0  0  0  0  0  0  0  0  0  # atno 17321 bound_to 7965
  139.6147  144.7617  151.2872 LP  0  0  0  0  0  0  0  0  0  0  0  0  # atno 17342 bound_to 10162
  140.7347  143.6758  150.8043 LP  0  0  0  0  0  0  0  0  0  0  0  0  # atno 17343 bound_to 10162
  156.2754  130.3727  149.7989 LP  0  0  0  0  0  0  0  0  0  0  0  0  # atno 17370 bound_to 10713
  156.5694  130.8418  151.3352 LP  0  0  0  0  0  0  0  0  0  0  0  0  # atno 17371 bound_to 10713
  141.2093  133.7754  157.0007 LP  0  0  0  0  0  0  0  0  0  0  0  0  # atno 17394 bound_to 11000
  140.0965  134.9561  157.1857 LP  0  0  0  0  0  0  0  0  0  0  0  0  # atno 17395 bound_to 11000

$$$$
