AV-unprocessed.smi:1244|AV-procd|sdf|5233|dock2
  -GOLD-   22720 4333D 1   1.00000     0.00000
 Structure written by MMmdl.
 56 58  0  0  0  0  0  0  0  0  3 V2000
  144.6371  132.4250  149.7858 C   0  0  0  0  0  0  0  0  0  0  0  0
  145.3326  132.7453  151.1134 C   0  0  2  0  0  0  0  0  0  0  0  0
  146.2797  133.9567  150.9936 C   0  0  0  0  0  0  0  0  0  0  0  0
  147.0093  134.1994  152.2622 N   0  3  1  0  0  0  0  0  0  0  0  0
  146.1875  134.8726  153.3029 C   0  0  0  0  0  0  0  0  0  0  0  0
  147.0152  135.2531  154.5459 C   0  0  0  0  0  0  0  0  0  0  0  0
  147.1077  136.6999  154.7077 N   0  0  0  0  0  0  0  0  0  0  0  0
  148.2484  137.3754  154.9070 C   0  0  0  0  0  0  0  0  0  0  0  0
  149.3515  136.8350  154.9871 O   0  0  0  0  0  0  0  0  0  0  0  0
  148.0273  138.6984  154.9878 N   0  0  0  0  0  0  0  0  0  0  0  0
  148.9859  139.7375  155.1617 C   0  0  0  0  0  0  0  0  0  0  0  0
  150.3640  139.4461  155.3324 C   0  0  0  0  0  0  0  0  0  0  0  0
  151.2789  140.4881  155.5744 C   0  0  0  0  0  0  0  0  0  0  0  0
  150.8009  141.8066  155.6590 C   0  0  0  0  0  0  0  0  0  0  0  0
  149.4832  142.0508  155.5051 N   0  3  0  0  0  0  0  0  0  0  0  0
  148.5554  141.0931  155.2552 C   0  0  0  0  0  0  0  0  0  0  0  0
  147.2102  141.4993  155.1034 N   0  0  0  0  0  0  0  0  0  0  0  0
  146.4927  142.1054  156.2191 C   0  0  0  0  0  0  0  0  0  0  0  0
  145.2476  142.7297  155.5956 C   0  0  0  0  0  0  0  0  0  0  0  0
  145.7630  143.2033  154.2398 C   0  0  0  0  0  0  0  0  0  0  0  0
  146.8108  142.1512  153.8597 C   0  0  0  0  0  0  0  0  0  0  0  0
  147.6900  132.9581  152.7127 C   0  0  0  0  0  0  0  0  0  0  0  0
  146.7166  131.7606  152.7700 C   0  0  2  0  0  0  0  0  0  0  0  0
  147.4371  130.4511  153.1090 C   0  0  0  0  0  0  0  0  0  0  0  0
  146.0906  131.6043  151.5011 O   0  0  0  0  0  0  0  0  0  0  0  0
  144.0331  133.2666  149.4455 H   0  0  0  0  0  0  0  0  0  0  0  0
  143.9768  131.5636  149.8896 H   0  0  0  0  0  0  0  0  0  0  0  0
  145.3622  132.1960  149.0045 H   0  0  0  0  0  0  0  0  0  0  0  0
  144.5652  132.9409  151.8642 H   0  0  0  0  0  0  0  0  0  0  0  0
  147.0147  133.7672  150.2100 H   0  0  0  0  0  0  0  0  0  0  0  0
  145.7340  134.8505  150.6884 H   0  0  0  0  0  0  0  0  0  0  0  0
  145.7691  135.7905  152.8876 H   0  0  0  0  0  0  0  0  0  0  0  0
  145.3364  134.2495  153.5769 H   0  0  0  0  0  0  0  0  0  0  0  0
  146.5973  134.8194  155.4549 H   0  0  0  0  0  0  0  0  0  0  0  0
  148.0272  134.8578  154.4521 H   0  0  0  0  0  0  0  0  0  0  0  0
  146.2449  137.2214  154.6511 H   0  0  0  0  0  0  0  0  0  0  0  0
  147.0825  139.0045  154.8071 H   0  0  0  0  0  0  0  0  0  0  0  0
  150.7340  138.4324  155.3049 H   0  0  0  0  0  0  0  0  0  0  0  0
  152.3299  140.2763  155.7063 H   0  0  0  0  0  0  0  0  0  0  0  0
  151.4259  142.6674  155.8484 H   0  0  0  0  0  0  0  0  0  0  0  0
  146.2378  141.3657  156.9788 H   0  0  0  0  0  0  0  0  0  0  0  0
  147.0967  142.8850  156.6849 H   0  0  0  0  0  0  0  0  0  0  0  0
  144.4769  141.9700  155.4563 H   0  0  0  0  0  0  0  0  0  0  0  0
  144.8272  143.5343  156.1999 H   0  0  0  0  0  0  0  0  0  0  0  0
  144.9733  143.3035  153.4948 H   0  0  0  0  0  0  0  0  0  0  0  0
  146.2437  144.1763  154.3515 H   0  0  0  0  0  0  0  0  0  0  0  0
  147.6573  142.6043  153.3418 H   0  0  0  0  0  0  0  0  0  0  0  0
  146.3675  141.4064  153.1983 H   0  0  0  0  0  0  0  0  0  0  0  0
  148.4879  132.7392  152.0017 H   0  0  0  0  0  0  0  0  0  0  0  0
  148.1771  133.1034  153.6759 H   0  0  0  0  0  0  0  0  0  0  0  0
  145.9509  131.9304  153.5281 H   0  0  0  0  0  0  0  0  0  0  0  0
  147.9289  130.5136  154.0801 H   0  0  0  0  0  0  0  0  0  0  0  0
  148.1967  130.2128  152.3638 H   0  0  0  0  0  0  0  0  0  0  0  0
  146.7346  129.6182  153.1463 H   0  0  0  0  0  0  0  0  0  0  0  0
  147.7382  134.8608  152.0353 H   0  0  0  0  0  0  0  0  0  0  0  0
  149.1672  143.0183  155.5733 H   0  0  0  0  0  0  0  0  0  0  0  0
  1  2  1  0  0  0  0
  1 26  1  0  0  0  0
  1 27  1  0  0  0  0
  1 28  1  0  0  0  0
  2 25  1  0  0  0  0
  2  3  1  0  0  0  0
  2 29  1  0  0  0  0
  3  4  1  0  0  0  0
  3 30  1  0  0  0  0
  3 31  1  0  0  0  0
  4  5  1  0  0  0  0
  4 22  1  0  0  0  0
  4 55  1  0  0  0  0
  5  6  1  0  0  0  0
  5 32  1  0  0  0  0
  5 33  1  0  0  0  0
  6  7  1  0  0  0  0
  6 34  1  0  0  0  0
  6 35  1  0  0  0  0
  7  8  1  0  0  0  0
  7 36  1  0  0  0  0
  8  9  2  0  0  0  0
  8 10  1  0  0  0  0
 10 11  1  0  0  0  0
 10 37  1  0  0  0  0
 11 16  1  0  0  0  0
 11 12  2  0  0  0  0
 12 13  1  0  0  0  0
 12 38  1  0  0  0  0
 13 14  2  0  0  0  0
 13 39  1  0  0  0  0
 14 15  1  0  0  0  0
 14 40  1  0  0  0  0
 15 16  2  0  0  0  0
 15 56  1  0  0  0  0
 16 17  1  0  0  0  0
 17 21  1  0  0  0  0
 17 18  1  0  0  0  0
 18 19  1  0  0  0  0
 18 41  1  0  0  0  0
 18 42  1  0  0  0  0
 19 20  1  0  0  0  0
 19 43  1  0  0  0  0
 19 44  1  0  0  0  0
 20 21  1  0  0  0  0
 20 45  1  0  0  0  0
 20 46  1  0  0  0  0
 21 47  1  0  0  0  0
 21 48  1  0  0  0  0
 22 23  1  0  0  0  0
 22 49  1  0  0  0  0
 22 50  1  0  0  0  0
 23 24  1  0  0  0  0
 23 25  1  0  0  0  0
 23 51  1  0  0  0  0
 24 52  1  0  0  0  0
 24 53  1  0  0  0  0
 24 54  1  0  0  0  0
M  CHG  1   4   1
M  CHG  1  15   1
M  END
> <s_m_source_file>
AV-unprocessed.smi

> <i_m_source_file_index>
1244

> <i_lp_mmshare_version>
43012

> <i_f3d_flags>
0

> <s_epik_input>
W0NIM11bQ0BASF0xW0NIMl1OKFtDSDJdW0NASF0oTzEpW0NIM10pW0NIMl1bQ0gyXVtOSF1DKD1PKVtOSF1jMltjSF1bY0hdW2NIXW5jMk4zW0NIMl1bQ0gyXVtDSDJdW0NIMl0z

> <s_epik_cmdline>
J2VwaWtfcHl0aG9uJywgJy1waCcsICc3LjAnLCAnLXRuJywgJzgnLCAnLW1hJywgJzIwMCcsICctbWV0YWxfYmluZGluZycsICctaW1hZScsICc8aW5maWxlLm1hZT4nLCAnLW9tYWUnLCAnPG91dGZpbGUubWFlPic=

> <r_lp_tautomer_probability>
0.999994

> <r_epik_Ionization_Penalty>
1.81601

> <r_epik_Ionization_Penalty_Charging>
1.81599

> <r_epik_Ionization_Penalty_Neutral>
2.01972e-05

> <r_epik_State_Penalty>
1.85672

> <r_epik_Charging_Adjusted_Penalty>
3.6727

> <i_epik_Tot_Q>
2

> <i_epik_Tot_abs_Q>
2

> <r_epik_Metal_State_Penalty>
1.93796

> <b_epik_Metal_Only>
0

> <s_lp_Force_Field>
OPLS_2005

> <r_lp_Energy>
53.9706

> <b_lp_Chiralities_Consistent>
1

> <s_lp_Variant>
AV-unprocessed.smi:1244-13

> <Gold.Version>
5.8.1

> <Gold.Id.Protein>
6NUR|6NUR_protein|mol2

> <Gold.PLP.Fitness>
48.9701

> <Gold.PLP.PLP>
-37.8299

> <Gold.PLP.part.hbond>
-2.0000

> <Gold.PLP.part.metal>
0.0000

> <Gold.PLP.part.buried>
-8.4131

> <Gold.PLP.part.nonpolar>
-27.9534

> <Gold.PLP.part.repulsive>
0.6492

> <Gold.PLP.ligand.clash>
0.0000

> <Gold.PLP.ligand.torsion>
0.6357

> <Gold.PLP.Chemscore.Hbond>
4.0000

> <Gold.PLP.Chemscore.CHOScore>
0.0000

> <Gold.PLP.Chemscore.Metal>
0.0000

> <Gold.Chemscore.Hbonds>
donor molecule, donor type, donor heavy atom, donor atom, acceptor molecule, acceptor atom, score
      L1  H     4    55       P1  7948  2.00
      L1  H    15    56       P1  8028  2.00

> <Gold.PLP.Chemscore.Internal.Correction>
0.4115

> <Gold.Rescore>
     Score         DG    S(hbond)    S(metal)    S(lipo)     H(rot)  DE(clash)    DE(int)     intcor
     15.97     -18.03       1.92        0.00      88.17       1.63       0.07       2.00       ----

> <Gold.Chemscore.Fitness>
15.9653

> <Gold.Chemscore.DG>
-18.0347

> <Gold.Chemscore.ZeroCoef>
-5.4800

> <Gold.Chemscore.Hbond>
1.9189

> <Gold.Chemscore.Metal>
0.0000

> <Gold.Chemscore.Lipo>
88.1738

> <Gold.Chemscore.Internal_Hbond>
0.0000

> <Gold.Chemscore.DEClash>
0.0726

> <Gold.Chemscore.DEInternal>
1.9968

> <Gold.Chemscore.Rot>
1.6293

> <Gold.Chemscore.Internal.Correction>
   9.000000E+99

> <Gold.Chemscore.Hbonds>
donor molecule, donor type, donor heavy atom, donor atom, acceptor molecule, acceptor atom, score
      L1  H     4    55       P1  7948  0.70
      L1  H    15    56       P1  8028  1.00

> <Gold.Chemscore.Hbond.Weighted>
-6.4093

> <Gold.Chemscore.Metal.Weighted>
-0.0000

> <Gold.Chemscore.Lipo.Weighted>
-10.3163

> <Gold.Chemscore.Internal_Hbond.Weighted>
0.0000

> <Gold.Chemscore.DEClash.Weighted>
0.0726

> <Gold.Chemscore.DEInternal.Weighted>
1.9968

> <Gold.Chemscore.Rot.Weighted>
4.1709

> <Gold.Chemscore.Internal.Correction.Weighted>
   9.000000E+99

> <Gold.Protein.RotatedTorsions>
[ 6907 6896 6895 6894 ] final  129.12 input  -60.11 | X-H torsion
[ 7974 7965 7964 7962 ] final  -16.06 input  175.53 | X-H torsion
[ 8008 7997 7996 7995 ] final  -30.22 input   59.86 | X-H torsion
[ 10167 10162 10161 10158 ] final  -95.50 input  -65.29 | X-H torsion
[ 10718 10713 10712 10709 ] final   90.00 input   66.30 | X-H torsion
[ 10763 10752 10751 10750 ] final -153.14 input  -60.55 | X-H torsion
[ 11005 11000 10999 10996 ] final -104.03 input  -57.11 | X-H torsion

> <Gold.Protein.ActiveResidues>
 VAL166  LYS551  ARG553  GLY616  TRP617  ASP618  TYR619  PRO620  LYS621  CYS622 
 ASP623  PHE694  ASN695  SER759  ASP760  ASP761  ALA762  ILE779  LEU786  VAL792 
 PHE793  MET794  SER795  GLU796  ALA797  LYS798  CYS799  TRP800  GLU811  SER814 

> <Gold.Protein.RotatedAtoms>
  152.3654  133.6350  159.6046 H   0  0  0  0  0  0  0  0  0  0  0  0  # atno 6907 bound_to 6896
  150.7630  133.9356  159.3449 H   0  0  0  0  0  0  0  0  0  0  0  0  # atno 6908 bound_to 6896
  151.7188  135.0899  160.0331 H   0  0  0  0  0  0  0  0  0  0  0  0  # atno 6909 bound_to 6896
  146.2004  140.3582  142.8425 H   0  0  0  0  0  0  0  0  0  0  0  0  # atno 7974 bound_to 7965
  154.4259  140.1797  156.1373 H   0  0  0  0  0  0  0  0  0  0  0  0  # atno 8008 bound_to 7997
  156.0020  140.3359  155.6830 H   0  0  0  0  0  0  0  0  0  0  0  0  # atno 8009 bound_to 7997
  155.6230  140.0662  157.2663 H   0  0  0  0  0  0  0  0  0  0  0  0  # atno 8010 bound_to 7997
  140.3036  143.3147  152.0223 H   0  0  0  0  0  0  0  0  0  0  0  0  # atno 10167 bound_to 10162
  157.6957  131.0354  150.3510 H   0  0  0  0  0  0  0  0  0  0  0  0  # atno 10718 bound_to 10713
  154.7947  135.3220  154.7694 H   0  0  0  0  0  0  0  0  0  0  0  0  # atno 10763 bound_to 10752
  153.8374  135.6874  153.4811 H   0  0  0  0  0  0  0  0  0  0  0  0  # atno 10764 bound_to 10752
  153.1634  135.4652  154.9745 H   0  0  0  0  0  0  0  0  0  0  0  0  # atno 10765 bound_to 10752
  141.1119  133.8689  157.1560 H   0  0  0  0  0  0  0  0  0  0  0  0  # atno 11005 bound_to 11000
  144.8672  140.7222  143.6070 LP  0  0  0  0  0  0  0  0  0  0  0  0  # atno 17320 bound_to 7965
  145.3502  139.1708  143.4439 LP  0  0  0  0  0  0  0  0  0  0  0  0  # atno 17321 bound_to 7965
  139.4909  144.6438  151.6822 LP  0  0  0  0  0  0  0  0  0  0  0  0  # atno 17342 bound_to 10162
  140.5630  144.0237  150.6179 LP  0  0  0  0  0  0  0  0  0  0  0  0  # atno 17343 bound_to 10162
  156.3959  130.3906  149.6995 LP  0  0  0  0  0  0  0  0  0  0  0  0  # atno 17370 bound_to 10713
  156.4329  130.7824  151.2844 LP  0  0  0  0  0  0  0  0  0  0  0  0  # atno 17371 bound_to 10713
  140.0018  135.0025  157.0206 LP  0  0  0  0  0  0  0  0  0  0  0  0  # atno 17394 bound_to 11000
  140.4752  134.1346  155.7208 LP  0  0  0  0  0  0  0  0  0  0  0  0  # atno 17395 bound_to 11000

$$$$
