AV-unprocessed.smi:686|AV-procd|sdf|3341|dock2
  -GOLD-   22720 0313D 1   1.00000     0.00000
 Structure written by MMmdl.
 41 42  0  0  0  0  0  0  0  0  2 V2000
  149.8356  132.2970  154.5011 C   0  0  0  0  0  0  0  0  0  0  0  0
  148.4765  132.9498  154.2013 C   0  0  2  0  0  0  0  0  0  0  0  0
  148.1037  133.0171  152.7181 C   0  0  0  0  0  0  0  0  0  0  0  0
  147.1158  134.1176  152.5867 N   0  3  1  0  0  0  0  0  0  0  0  0
  145.7827  133.7600  152.0252 C   0  0  0  0  0  0  0  0  0  0  0  0
  145.8511  132.7839  150.8311 C   0  0  0  0  0  0  0  0  0  0  0  0
  144.9830  135.0248  151.6748 C   0  0  0  0  0  0  0  0  0  0  0  0
  147.0809  134.8722  153.8653 C   0  0  0  0  0  0  0  0  0  0  0  0
  148.2816  134.3912  154.6873 C   0  0  2  0  0  0  0  0  0  0  0  0
  149.4540  135.2313  154.4116 N   0  0  0  0  0  0  0  0  0  0  0  0
  150.1910  136.1747  155.6552 S   0  0  0  0  0  0  0  0  0  0  0  0
  149.3646  136.0245  156.8626 O   0  0  0  0  0  0  0  0  0  0  0  0
  151.6160  135.8108  155.6782 O   0  0  0  0  0  0  0  0  0  0  0  0
  150.0028  137.9038  155.0218 C   0  0  0  0  0  0  0  0  0  0  0  0
  150.9121  138.8410  155.7641 C   0  0  0  0  0  0  0  0  0  0  0  0
  150.9553  139.1091  157.1605 C   0  0  0  0  0  0  0  0  0  0  0  0
  151.9616  140.0243  157.2769 C   0  0  0  0  0  0  0  0  0  0  0  0
  152.4979  140.2986  156.0612 O   0  0  0  0  0  0  0  0  0  0  0  0
  151.8226  139.5363  155.1015 N   0  0  0  0  0  0  0  0  0  0  0  0
  150.6574  132.8258  154.0176 H   0  0  0  0  0  0  0  0  0  0  0  0
  149.8563  131.2660  154.1478 H   0  0  0  0  0  0  0  0  0  0  0  0
  150.0325  132.2811  155.5731 H   0  0  0  0  0  0  0  0  0  0  0  0
  147.7130  132.3460  154.6947 H   0  0  0  0  0  0  0  0  0  0  0  0
  148.9777  133.2932  152.1268 H   0  0  0  0  0  0  0  0  0  0  0  0
  147.7580  132.0561  152.3384 H   0  0  0  0  0  0  0  0  0  0  0  0
  145.2361  133.2597  152.8263 H   0  0  0  0  0  0  0  0  0  0  0  0
  144.8477  132.4844  150.5271 H   0  0  0  0  0  0  0  0  0  0  0  0
  146.3942  131.8711  151.0730 H   0  0  0  0  0  0  0  0  0  0  0  0
  146.3262  133.2296  149.9576 H   0  0  0  0  0  0  0  0  0  0  0  0
  143.9736  134.7705  151.3499 H   0  0  0  0  0  0  0  0  0  0  0  0
  145.4524  135.5912  150.8699 H   0  0  0  0  0  0  0  0  0  0  0  0
  144.8917  135.6850  152.5380 H   0  0  0  0  0  0  0  0  0  0  0  0
  147.0902  135.9482  153.6865 H   0  0  0  0  0  0  0  0  0  0  0  0
  146.1667  134.6519  154.4161 H   0  0  0  0  0  0  0  0  0  0  0  0
  148.0633  134.4218  155.7556 H   0  0  0  0  0  0  0  0  0  0  0  0
  149.5056  135.6411  153.4792 H   0  0  0  0  0  0  0  0  0  0  0  0
  150.2239  137.9177  153.9553 H   0  0  0  0  0  0  0  0  0  0  0  0
  148.9582  138.1953  155.1372 H   0  0  0  0  0  0  0  0  0  0  0  0
  150.3449  138.6983  157.9506 H   0  0  0  0  0  0  0  0  0  0  0  0
  152.3949  140.5485  158.1159 H   0  0  0  0  0  0  0  0  0  0  0  0
  147.5242  134.7536  151.9167 H   0  0  0  0  0  0  0  0  0  0  0  0
  1  2  1  0  0  0  0
  1 20  1  0  0  0  0
  1 21  1  0  0  0  0
  1 22  1  0  0  0  0
  2  9  1  0  0  0  0
  2  3  1  0  0  0  0
  2 23  1  0  0  0  0
  3  4  1  0  0  0  0
  3 24  1  0  0  0  0
  3 25  1  0  0  0  0
  4  5  1  0  0  0  0
  4  8  1  0  0  0  0
  4 41  1  0  0  0  0
  5  6  1  0  0  0  0
  5  7  1  0  0  0  0
  5 26  1  0  0  0  0
  6 27  1  0  0  0  0
  6 28  1  0  0  0  0
  6 29  1  0  0  0  0
  7 30  1  0  0  0  0
  7 31  1  0  0  0  0
  7 32  1  0  0  0  0
  8  9  1  0  0  0  0
  8 33  1  0  0  0  0
  8 34  1  0  0  0  0
  9 10  1  0  0  0  0
  9 35  1  0  0  0  0
 10 11  1  0  0  0  0
 10 36  1  0  0  0  0
 11 12  2  0  0  0  0
 11 13  2  0  0  0  0
 11 14  1  0  0  0  0
 14 15  1  0  0  0  0
 14 37  1  0  0  0  0
 14 38  1  0  0  0  0
 15 19  2  0  0  0  0
 15 16  1  0  0  0  0
 16 17  2  0  0  0  0
 16 39  1  0  0  0  0
 17 18  1  0  0  0  0
 17 40  1  0  0  0  0
 18 19  1  0  0  0  0
M  CHG  1   4   1
M  END
> <s_m_source_file>
AV-unprocessed.smi

> <i_m_source_file_index>
686

> <i_lp_mmshare_version>
43012

> <i_f3d_flags>
0

> <s_epik_input>
W0NIM11bQ0BASF0xW0NIMl1OKFtDSF0oW0NIM10pW0NIM10pW0NIMl1bQ0BIXTFbTkhdUyg9TykoPU8pW0NIMl1jMltjSF1bY0hdb24y

> <s_epik_cmdline>
J2VwaWtfcHl0aG9uJywgJy1waCcsICc3LjAnLCAnLXRuJywgJzgnLCAnLW1hJywgJzIwMCcsICctbWV0YWxfYmluZGluZycsICctaW1hZScsICc8aW5maWxlLm1hZT4nLCAnLW9tYWUnLCAnPG91dGZpbGUubWFlPic=

> <r_epik_Ionization_Penalty>
0.00200818

> <r_epik_Ionization_Penalty_Charging>
0.000701289

> <r_epik_Ionization_Penalty_Neutral>
0.00130689

> <r_epik_State_Penalty>
0.00131314

> <r_epik_Charging_Adjusted_Penalty>
0.00201443

> <i_epik_Tot_Q>
1

> <i_epik_Tot_abs_Q>
1

> <r_epik_Metal_State_Penalty>
0.310831

> <b_epik_Metal_Only>
0

> <s_lp_Force_Field>
OPLS_2005

> <r_lp_Energy>
24.0056

> <b_lp_Chiralities_Consistent>
1

> <s_lp_Variant>
AV-unprocessed.smi:686-5

> <Gold.Version>
5.8.1

> <Gold.Id.Protein>
6NUR|6NUR_protein|mol2

> <Gold.PLP.Fitness>
41.1283

> <Gold.PLP.PLP>
-25.4118

> <Gold.PLP.part.hbond>
-5.0927

> <Gold.PLP.part.metal>
0.0000

> <Gold.PLP.part.buried>
-0.2418

> <Gold.PLP.part.nonpolar>
-20.1077

> <Gold.PLP.part.repulsive>
0.1266

> <Gold.PLP.ligand.clash>
0.0000

> <Gold.PLP.ligand.torsion>
1.0181

> <Gold.PLP.Chemscore.Hbond>
5.5180

> <Gold.PLP.Chemscore.CHOScore>
0.0000

> <Gold.PLP.Chemscore.Metal>
0.0000

> <Gold.Chemscore.Hbonds>
donor molecule, donor type, donor heavy atom, donor atom, acceptor molecule, acceptor atom, score
      L1  H     4    41       P1  7948  1.60
      L1  H    10    36       P1  7948  0.90
      P1  H  7989  7998       L1    19  0.86
      P1  H  7997  8008       L1    18  1.00
      P1  H 10752 10764       L1    13  1.00

> <Gold.PLP.Chemscore.Internal.Correction>
1.1986

> <Gold.Rescore>
     Score         DG    S(hbond)    S(metal)    S(lipo)     H(rot)  DE(clash)    DE(int)     intcor
     18.00     -19.42       3.49        0.00      55.72       1.66       0.56       0.87       ----

> <Gold.Chemscore.Fitness>
17.9976

> <Gold.Chemscore.DG>
-19.4195

> <Gold.Chemscore.ZeroCoef>
-5.4800

> <Gold.Chemscore.Hbond>
3.4913

> <Gold.Chemscore.Metal>
0.0000

> <Gold.Chemscore.Lipo>
55.7249

> <Gold.Chemscore.Internal_Hbond>
0.0000

> <Gold.Chemscore.DEClash>
0.5554

> <Gold.Chemscore.DEInternal>
0.8666

> <Gold.Chemscore.Rot>
1.6567

> <Gold.Chemscore.Internal.Correction>
   9.000000E+99

> <Gold.Chemscore.Hbonds>
donor molecule, donor type, donor heavy atom, donor atom, acceptor molecule, acceptor atom, score
      L1  H     4    41       P1  7948  0.53
      L1  H    10    36       P1  7948  0.18
      P1  H  7989  7998       L1    19  0.32
      P1  H  7997  8008       L1    18  0.53
      P1  H 10752 10764       L1    13  0.99

> <Gold.Chemscore.Hbond.Weighted>
-11.6610

> <Gold.Chemscore.Metal.Weighted>
-0.0000

> <Gold.Chemscore.Lipo.Weighted>
-6.5198

> <Gold.Chemscore.Internal_Hbond.Weighted>
0.0000

> <Gold.Chemscore.DEClash.Weighted>
0.5554

> <Gold.Chemscore.DEInternal.Weighted>
0.8666

> <Gold.Chemscore.Rot.Weighted>
4.2413

> <Gold.Chemscore.Internal.Correction.Weighted>
   9.000000E+99

> <Gold.Protein.RotatedTorsions>
[ 6907 6896 6895 6894 ] final -144.54 input  -60.11 | X-H torsion
[ 7974 7965 7964 7962 ] final  160.89 input  175.53 | X-H torsion
[ 8008 7997 7996 7995 ] final  -39.77 input   59.86 | X-H torsion
[ 10167 10162 10161 10158 ] final   -1.10 input  -65.29 | X-H torsion
[ 10718 10713 10712 10709 ] final    5.33 input   66.30 | X-H torsion
[ 10763 10752 10751 10750 ] final  -56.28 input  -60.55 | X-H torsion
[ 11005 11000 10999 10996 ] final   18.07 input  -57.11 | X-H torsion

> <Gold.Protein.ActiveResidues>
 VAL166  LYS551  ARG553  GLY616  TRP617  ASP618  TYR619  PRO620  LYS621  CYS622 
 ASP623  PHE694  ASN695  SER759  ASP760  ASP761  ALA762  ILE779  LEU786  VAL792 
 PHE793  MET794  SER795  GLU796  ALA797  LYS798  CYS799  TRP800  GLU811  SER814 

> <Gold.Protein.RotatedAtoms>
  151.1154  133.5142  159.2603 H   0  0  0  0  0  0  0  0  0  0  0  0  # atno 6907 bound_to 6896
  151.1920  135.0406  159.8846 H   0  0  0  0  0  0  0  0  0  0  0  0  # atno 6908 bound_to 6896
  152.5453  134.0993  159.8364 H   0  0  0  0  0  0  0  0  0  0  0  0  # atno 6909 bound_to 6896
  144.7714  139.7820  143.6295 H   0  0  0  0  0  0  0  0  0  0  0  0  # atno 7974 bound_to 7965
  154.4019  140.1543  156.2919 H   0  0  0  0  0  0  0  0  0  0  0  0  # atno 8008 bound_to 7997
  155.8778  140.3445  155.5844 H   0  0  0  0  0  0  0  0  0  0  0  0  # atno 8009 bound_to 7997
  155.7701  140.0829  157.2102 H   0  0  0  0  0  0  0  0  0  0  0  0  # atno 8010 bound_to 7997
  140.6796  143.6816  150.8101 H   0  0  0  0  0  0  0  0  0  0  0  0  # atno 10167 bound_to 10162
  156.9059  130.5738  149.5647 H   0  0  0  0  0  0  0  0  0  0  0  0  # atno 10718 bound_to 10713
  154.2042  135.6406  153.5096 H   0  0  0  0  0  0  0  0  0  0  0  0  # atno 10763 bound_to 10752
  153.0005  135.5458  154.6284 H   0  0  0  0  0  0  0  0  0  0  0  0  # atno 10764 bound_to 10752
  154.5704  135.2916  155.0806 H   0  0  0  0  0  0  0  0  0  0  0  0  # atno 10765 bound_to 10752
  140.4289  134.1441  155.7679 H   0  0  0  0  0  0  0  0  0  0  0  0  # atno 11005 bound_to 11000
  146.1862  139.5079  142.9834 LP  0  0  0  0  0  0  0  0  0  0  0  0  # atno 17320 bound_to 7965
  145.6314  141.0303  143.1861 LP  0  0  0  0  0  0  0  0  0  0  0  0  # atno 17321 bound_to 7965
  140.0514  143.5246  152.2672 LP  0  0  0  0  0  0  0  0  0  0  0  0  # atno 17342 bound_to 10162
  139.6109  144.7608  151.2954 LP  0  0  0  0  0  0  0  0  0  0  0  0  # atno 17343 bound_to 10162
  156.0559  130.5621  150.9091 LP  0  0  0  0  0  0  0  0  0  0  0  0  # atno 17370 bound_to 10713
  157.5998  131.0941  150.8980 LP  0  0  0  0  0  0  0  0  0  0  0  0  # atno 17371 bound_to 10713
  141.1754  133.8525  157.1439 LP  0  0  0  0  0  0  0  0  0  0  0  0  # atno 17394 bound_to 11000
  140.0148  134.9972  157.0471 LP  0  0  0  0  0  0  0  0  0  0  0  0  # atno 17395 bound_to 11000

$$$$
