AV-unprocessed.smi:626|AV-procd|sdf|3109|dock4
  -GOLD-   22720 0 33D 1   1.00000     0.00000
 Structure written by MMmdl.
 34 36  0  0  0  0  0  0  0  0  1 V2000
  153.4361  136.5950  158.1124 C   0  0  0  0  0  0  0  0  0  0  0  0
  153.2683  137.6813  157.1591 N   0  0  0  0  0  0  0  0  0  0  0  0
  152.5175  137.6034  156.0508 C   0  0  0  0  0  0  0  0  0  0  0  0
  151.8919  136.5892  155.7367 O   0  0  0  0  0  0  0  0  0  0  0  0
  152.4717  138.8697  155.1848 C   0  0  0  0  0  0  0  0  0  0  0  0
  151.8695  140.0365  155.9047 C   0  0  0  0  0  0  0  0  0  0  0  0
  150.9410  140.7956  155.3351 N   0  0  0  0  0  0  0  0  0  0  0  0
  150.6651  141.7589  156.3159 O   0  0  0  0  0  0  0  0  0  0  0  0
  151.4412  141.4413  157.3806 C   0  0  0  0  0  0  0  0  0  0  0  0
  151.4328  142.3530  158.5699 C   0  0  2  0  0  0  0  0  0  0  0  0
  150.4998  143.5739  158.4280 C   0  0  0  0  0  0  0  0  0  0  0  0
  151.4213  144.7464  158.8158 C   0  0  1  0  0  0  0  0  0  0  0  0
  151.7767  144.6613  160.3133 C   0  0  0  0  0  0  0  0  0  0  0  0
  152.7654  143.4789  160.3653 C   0  0  0  0  0  0  0  0  0  0  0  0
  152.7965  143.0026  158.9004 C   0  0  2  0  0  0  0  0  0  0  0  0
  152.7329  144.3359  158.1587 C   0  0  0  0  0  0  0  0  0  0  0  0
  152.2480  140.4049  157.1597 N   0  0  0  0  0  0  0  0  0  0  0  0
  154.0763  136.9169  158.9336 H   0  0  0  0  0  0  0  0  0  0  0  0
  153.8998  135.7295  157.6373 H   0  0  0  0  0  0  0  0  0  0  0  0
  152.4748  136.2908  158.5286 H   0  0  0  0  0  0  0  0  0  0  0  0
  153.7503  138.5470  157.3550 H   0  0  0  0  0  0  0  0  0  0  0  0
  153.4856  139.1227  154.8720 H   0  0  0  0  0  0  0  0  0  0  0  0
  151.8998  138.6705  154.2772 H   0  0  0  0  0  0  0  0  0  0  0  0
  151.1104  141.7498  159.4202 H   0  0  0  0  0  0  0  0  0  0  0  0
  150.1611  143.6944  157.3977 H   0  0  0  0  0  0  0  0  0  0  0  0
  149.6156  143.5009  159.0621 H   0  0  0  0  0  0  0  0  0  0  0  0
  151.0391  145.7209  158.5105 H   0  0  0  0  0  0  0  0  0  0  0  0
  152.2587  145.5788  160.6530 H   0  0  0  0  0  0  0  0  0  0  0  0
  150.8962  144.4948  160.9350 H   0  0  0  0  0  0  0  0  0  0  0  0
  153.7525  143.8197  160.6804 H   0  0  0  0  0  0  0  0  0  0  0  0
  152.4487  142.6974  161.0571 H   0  0  0  0  0  0  0  0  0  0  0  0
  153.6590  142.3750  158.6725 H   0  0  0  0  0  0  0  0  0  0  0  0
  152.6589  144.2324  157.0753 H   0  0  0  0  0  0  0  0  0  0  0  0
  153.5638  145.0031  158.3950 H   0  0  0  0  0  0  0  0  0  0  0  0
  1  2  1  0  0  0  0
  1 18  1  0  0  0  0
  1 19  1  0  0  0  0
  1 20  1  0  0  0  0
  2  3  1  0  0  0  0
  2 21  1  0  0  0  0
  3  4  2  0  0  0  0
  3  5  1  0  0  0  0
  5  6  1  0  0  0  0
  5 22  1  0  0  0  0
  5 23  1  0  0  0  0
  6 17  1  0  0  0  0
  6  7  2  0  0  0  0
  7  8  1  0  0  0  0
  8  9  1  0  0  0  0
  9 10  1  0  0  0  0
  9 17  2  0  0  0  0
 10 15  1  0  0  0  0
 10 11  1  0  0  0  0
 10 24  1  0  0  0  0
 11 12  1  0  0  0  0
 11 25  1  0  0  0  0
 11 26  1  0  0  0  0
 12 16  1  0  0  0  0
 12 13  1  0  0  0  0
 12 27  1  0  0  0  0
 13 14  1  0  0  0  0
 13 28  1  0  0  0  0
 13 29  1  0  0  0  0
 14 15  1  0  0  0  0
 14 30  1  0  0  0  0
 14 31  1  0  0  0  0
 15 16  1  0  0  0  0
 15 32  1  0  0  0  0
 16 33  1  0  0  0  0
 16 34  1  0  0  0  0
M  END
> <s_m_source_file>
AV-unprocessed.smi

> <i_m_source_file_index>
626

> <i_lp_mmshare_version>
43012

> <i_f3d_flags>
0

> <s_epik_input>
W0NIM11bTkhdQyg9TylbQ0gyXWMxbm9jKG4xKVtDQEhdKFtDSDJdW0NAQEhdMjMpW0NAQEhdKFtDSDJdMylbQ0gyXVtDSDJdMg==

> <s_epik_cmdline>
J2VwaWtfcHl0aG9uJywgJy1waCcsICc3LjAnLCAnLXRuJywgJzgnLCAnLW1hJywgJzIwMCcsICctbWV0YWxfYmluZGluZycsICctaW1hZScsICc8aW5maWxlLm1hZT4nLCAnLW9tYWUnLCAnPG91dGZpbGUubWFlPic=

> <r_lp_tautomer_probability>
1

> <r_epik_Ionization_Penalty>
1.02916e-07

> <r_epik_Ionization_Penalty_Charging>
0

> <r_epik_Ionization_Penalty_Neutral>
1.02916e-07

> <r_epik_State_Penalty>
-0

> <r_epik_Charging_Adjusted_Penalty>
0

> <i_epik_Tot_Q>
0

> <i_epik_Tot_abs_Q>
0

> <r_epik_Metal_State_Penalty>
-0

> <b_epik_Metal_Only>
0

> <s_lp_Force_Field>
OPLS_2005

> <r_lp_Energy>
49.0538

> <b_lp_Chiralities_Consistent>
1

> <s_lp_Variant>
AV-unprocessed.smi:626-1

> <Gold.Version>
5.8.1

> <Gold.Id.Protein>
6NUR|6NUR_protein|mol2

> <Gold.PLP.Fitness>
42.9269

> <Gold.PLP.PLP>
-36.7252

> <Gold.PLP.part.hbond>
-2.7964

> <Gold.PLP.part.metal>
0.0000

> <Gold.PLP.part.buried>
-3.4947

> <Gold.PLP.part.nonpolar>
-30.4406

> <Gold.PLP.part.repulsive>
0.3220

> <Gold.PLP.ligand.clash>
0.0000

> <Gold.PLP.ligand.torsion>
0.1906

> <Gold.PLP.Chemscore.Hbond>
2.1689

> <Gold.PLP.Chemscore.CHOScore>
0.0000

> <Gold.PLP.Chemscore.Metal>
0.0000

> <Gold.Chemscore.Hbonds>
donor molecule, donor type, donor heavy atom, donor atom, acceptor molecule, acceptor atom, score
      P1  H  7989  7998       L1     7  0.82
      P1  H  7997  8009       L1    17  0.31
      P1  H 10752 10763       L1     4  1.00

> <Gold.PLP.Chemscore.Internal.Correction>
0.0764

> <Gold.Rescore>
     Score         DG    S(hbond)    S(metal)    S(lipo)     H(rot)  DE(clash)    DE(int)     intcor
     15.82     -17.37       1.61        0.00      90.94       1.61       0.16       1.38       ----

> <Gold.Chemscore.Fitness>
15.8242

> <Gold.Chemscore.DG>
-17.3723

> <Gold.Chemscore.ZeroCoef>
-5.4800

> <Gold.Chemscore.Hbond>
1.6103

> <Gold.Chemscore.Metal>
0.0000

> <Gold.Chemscore.Lipo>
90.9443

> <Gold.Chemscore.Internal_Hbond>
0.0000

> <Gold.Chemscore.DEClash>
0.1646

> <Gold.Chemscore.DEInternal>
1.3835

> <Gold.Chemscore.Rot>
1.6119

> <Gold.Chemscore.Internal.Correction>
   9.000000E+99

> <Gold.Chemscore.Hbonds>
donor molecule, donor type, donor heavy atom, donor atom, acceptor molecule, acceptor atom, score
      P1  H  7989  7998       L1     7  0.20
      P1  H  7997  8009       L1    17  0.02
      P1  H 10752 10763       L1     4  0.64

> <Gold.Chemscore.Hbond.Weighted>
-5.3784

> <Gold.Chemscore.Metal.Weighted>
-0.0000

> <Gold.Chemscore.Lipo.Weighted>
-10.6405

> <Gold.Chemscore.Internal_Hbond.Weighted>
0.0000

> <Gold.Chemscore.DEClash.Weighted>
0.1646

> <Gold.Chemscore.DEInternal.Weighted>
1.3835

> <Gold.Chemscore.Rot.Weighted>
4.1266

> <Gold.Chemscore.Internal.Correction.Weighted>
   9.000000E+99

> <Gold.Protein.RotatedTorsions>
[ 6907 6896 6895 6894 ] final  -86.06 input  -60.11 | X-H torsion
[ 7974 7965 7964 7962 ] final  137.67 input  175.53 | X-H torsion
[ 8008 7997 7996 7995 ] final  176.22 input   59.86 | X-H torsion
[ 10167 10162 10161 10158 ] final  103.83 input  -65.29 | X-H torsion
[ 10718 10713 10712 10709 ] final    6.20 input   66.30 | X-H torsion
[ 10763 10752 10751 10750 ] final   66.30 input  -60.55 | X-H torsion
[ 11005 11000 10999 10996 ] final  129.81 input  -57.11 | X-H torsion

> <Gold.Protein.ActiveResidues>
 VAL166  LYS551  ARG553  GLY616  TRP617  ASP618  TYR619  PRO620  LYS621  CYS622 
 ASP623  PHE694  ASN695  SER759  ASP760  ASP761  ALA762  ILE779  LEU786  VAL792 
 PHE793  MET794  SER795  GLU796  ALA797  LYS798  CYS799  TRP800  GLU811  SER814 

> <Gold.Protein.RotatedAtoms>
  150.6868  134.3109  159.4745 H   0  0  0  0  0  0  0  0  0  0  0  0  # atno 6907 bound_to 6896
  152.0995  134.9349  160.0579 H   0  0  0  0  0  0  0  0  0  0  0  0  # atno 6908 bound_to 6896
  152.0634  133.4038  159.4464 H   0  0  0  0  0  0  0  0  0  0  0  0  # atno 6909 bound_to 6896
  144.9446  139.4890  143.5555 H   0  0  0  0  0  0  0  0  0  0  0  0  # atno 7974 bound_to 7965
  156.0788  140.1389  156.9738 H   0  0  0  0  0  0  0  0  0  0  0  0  # atno 8008 bound_to 7997
  154.4573  140.0956  156.6843 H   0  0  0  0  0  0  0  0  0  0  0  0  # atno 8009 bound_to 7997
  155.5109  140.3453  155.4390 H   0  0  0  0  0  0  0  0  0  0  0  0  # atno 8010 bound_to 7997
  139.7229  144.7054  151.0844 H   0  0  0  0  0  0  0  0  0  0  0  0  # atno 10167 bound_to 10162
  156.9187  130.5783  149.5647 H   0  0  0  0  0  0  0  0  0  0  0  0  # atno 10718 bound_to 10713
  153.0134  135.5325  154.6803 H   0  0  0  0  0  0  0  0  0  0  0  0  # atno 10763 bound_to 10752
  154.5964  135.2864  155.0583 H   0  0  0  0  0  0  0  0  0  0  0  0  # atno 10764 bound_to 10752
  154.1657  135.6540  153.5049 H   0  0  0  0  0  0  0  0  0  0  0  0  # atno 10765 bound_to 10752
  139.9636  134.9596  156.9202 H   0  0  0  0  0  0  0  0  0  0  0  0  # atno 11005 bound_to 11000
  146.3298  139.8488  142.8877 LP  0  0  0  0  0  0  0  0  0  0  0  0  # atno 17320 bound_to 7965
  145.2938  141.0175  143.3647 LP  0  0  0  0  0  0  0  0  0  0  0  0  # atno 17321 bound_to 7965
  140.7757  143.5143  150.9614 LP  0  0  0  0  0  0  0  0  0  0  0  0  # atno 17342 bound_to 10162
  139.8830  143.7048  152.3155 LP  0  0  0  0  0  0  0  0  0  0  0  0  # atno 17343 bound_to 10162
  156.0501  130.5572  150.8970 LP  0  0  0  0  0  0  0  0  0  0  0  0  # atno 17370 bound_to 10713
  157.5921  131.0944  150.9101 LP  0  0  0  0  0  0  0  0  0  0  0  0  # atno 17371 bound_to 10713
  140.5445  134.0687  155.7351 LP  0  0  0  0  0  0  0  0  0  0  0  0  # atno 17394 bound_to 11000
  141.1315  133.9294  157.2526 LP  0  0  0  0  0  0  0  0  0  0  0  0  # atno 17395 bound_to 11000

$$$$
