AV-unprocessed.smi:2502|AV-procd|sdf|9846|dock7
  -GOLD-   2272013473D 1   1.00000     0.00000
 Structure written by MMmdl.
 39 41  0  0  0  0  0  0  0  0  1 V2000
  150.8291  140.1517  154.6626 O   0  0  0  0  0  0  0  0  0  0  0  0
  149.6483  140.3041  155.4273 C   0  0  1  0  0  0  0  0  0  0  0  0
  149.7816  141.5731  156.2837 C   0  0  0  0  0  0  0  0  0  0  0  0
  150.9025  141.4299  157.1444 O   0  0  0  0  0  0  0  0  0  0  0  0
  151.0068  142.4274  158.1522 C   0  0  0  0  0  0  0  0  0  0  0  0
  151.6678  143.7086  157.6148 C   0  0  0  0  0  0  0  0  0  0  0  0
  151.9506  144.6902  158.7640 C   0  0  0  0  0  0  0  0  0  0  0  0
  152.7614  144.0654  159.7539 O   0  0  0  0  0  0  0  0  0  0  0  0
  152.1363  142.9348  160.3529 C   0  0  0  0  0  0  0  0  0  0  0  0
  151.8683  141.8596  159.2876 C   0  0  0  0  0  0  0  0  0  0  0  0
  148.4404  140.3793  154.4725 C   0  0  0  0  0  0  0  0  0  0  0  0
  147.2483  140.8993  155.1195 N   0  0  0  0  0  0  0  0  0  0  0  0
  146.7869  140.2971  156.2520 N   0  0  0  0  0  0  0  0  0  0  0  0
  145.7200  140.9226  156.6509 N   0  0  0  0  0  0  0  0  0  0  0  0
  145.4729  141.9571  155.7639 C   0  0  0  0  0  0  0  0  0  0  0  0
  144.4567  142.9374  155.7195 C   0  0  0  0  0  0  0  0  0  0  0  0
  144.4339  143.8960  154.6829 C   0  0  0  0  0  0  0  0  0  0  0  0
  143.1741  145.0782  154.6628 Cl  0  0  0  0  0  0  0  0  0  0  0  0
  145.4302  143.8841  153.6767 C   0  0  0  0  0  0  0  0  0  0  0  0
  145.4158  145.0484  152.4004 Cl  0  0  0  0  0  0  0  0  0  0  0  0
  146.4505  142.9127  153.7090 C   0  0  0  0  0  0  0  0  0  0  0  0
  146.4552  141.9683  154.7499 C   0  0  0  0  0  0  0  0  0  0  0  0
  151.3892  139.5253  155.0951 H   0  0  0  0  0  0  0  0  0  0  0  0
  149.5334  139.4368  156.0790 H   0  0  0  0  0  0  0  0  0  0  0  0
  149.8553  142.4610  155.6550 H   0  0  0  0  0  0  0  0  0  0  0  0
  148.8907  141.6900  156.9027 H   0  0  0  0  0  0  0  0  0  0  0  0
  150.0183  142.6593  158.5529 H   0  0  0  0  0  0  0  0  0  0  0  0
  152.6035  143.4578  157.1138 H   0  0  0  0  0  0  0  0  0  0  0  0
  151.0343  144.1921  156.8717 H   0  0  0  0  0  0  0  0  0  0  0  0
  152.4729  145.5690  158.3856 H   0  0  0  0  0  0  0  0  0  0  0  0
  151.0199  145.0424  159.2116 H   0  0  0  0  0  0  0  0  0  0  0  0
  152.7931  142.5390  161.1277 H   0  0  0  0  0  0  0  0  0  0  0  0
  151.2099  143.2359  160.8442 H   0  0  0  0  0  0  0  0  0  0  0  0
  151.3761  140.9976  159.7389 H   0  0  0  0  0  0  0  0  0  0  0  0
  152.8183  141.5032  158.8872 H   0  0  0  0  0  0  0  0  0  0  0  0
  148.6727  141.0191  153.6199 H   0  0  0  0  0  0  0  0  0  0  0  0
  148.2138  139.3927  154.0655 H   0  0  0  0  0  0  0  0  0  0  0  0
  143.6932  142.9511  156.4835 H   0  0  0  0  0  0  0  0  0  0  0  0
  147.2154  142.8920  152.9467 H   0  0  0  0  0  0  0  0  0  0  0  0
  1  2  1  0  0  0  0
  1 23  1  0  0  0  0
  2  3  1  0  0  0  0
  2 11  1  0  0  0  0
  2 24  1  0  0  0  0
  3  4  1  0  0  0  0
  3 25  1  0  0  0  0
  3 26  1  0  0  0  0
  4  5  1  0  0  0  0
  5 10  1  0  0  0  0
  5  6  1  0  0  0  0
  5 27  1  0  0  0  0
  6  7  1  0  0  0  0
  6 28  1  0  0  0  0
  6 29  1  0  0  0  0
  7  8  1  0  0  0  0
  7 30  1  0  0  0  0
  7 31  1  0  0  0  0
  8  9  1  0  0  0  0
  9 10  1  0  0  0  0
  9 32  1  0  0  0  0
  9 33  1  0  0  0  0
 10 34  1  0  0  0  0
 10 35  1  0  0  0  0
 11 12  1  0  0  0  0
 11 36  1  0  0  0  0
 11 37  1  0  0  0  0
 12 22  1  0  0  0  0
 12 13  1  0  0  0  0
 13 14  2  0  0  0  0
 14 15  1  0  0  0  0
 15 22  2  0  0  0  0
 15 16  1  0  0  0  0
 16 17  2  0  0  0  0
 16 38  1  0  0  0  0
 17 18  1  0  0  0  0
 17 19  1  0  0  0  0
 19 20  1  0  0  0  0
 19 21  2  0  0  0  0
 21 22  1  0  0  0  0
 21 39  1  0  0  0  0
M  END
> <s_m_source_file>
AV-unprocessed.smi

> <i_m_source_file_index>
2502

> <i_lp_mmshare_version>
43012

> <i_f3d_flags>
0

> <s_epik_input>
W2NIXTFjKENsKWMoQ2wpW2NIXWMoYzEyKW4obm4yKVtDSDJdW0NASF0oW09IXSlbQ0gyXU9bQ0hdM1tDSDJdW0NIMl1PW0NIMl1bQ0gyXTM=

> <s_epik_cmdline>
J2VwaWtfcHl0aG9uJywgJy1waCcsICc3LjAnLCAnLXRuJywgJzgnLCAnLW1hJywgJzIwMCcsICctbWV0YWxfYmluZGluZycsICctaW1hZScsICc8aW5maWxlLm1hZT4nLCAnLW9tYWUnLCAnPG91dGZpbGUubWFlPic=

> <r_lp_tautomer_probability>
1

> <r_epik_Ionization_Penalty>
2.65748e-06

> <r_epik_Ionization_Penalty_Charging>
0

> <r_epik_Ionization_Penalty_Neutral>
2.65748e-06

> <r_epik_State_Penalty>
-0

> <r_epik_Charging_Adjusted_Penalty>
0

> <i_epik_Tot_Q>
0

> <i_epik_Tot_abs_Q>
0

> <r_epik_Metal_State_Penalty>
-0

> <b_epik_Metal_Only>
0

> <s_lp_Force_Field>
OPLS_2005

> <r_lp_Energy>
14.648

> <b_lp_Chiralities_Consistent>
1

> <s_lp_Variant>
AV-unprocessed.smi:2502-2

> <Gold.Version>
5.8.1

> <Gold.Id.Protein>
6NUR|6NUR_protein|mol2

> <Gold.PLP.Fitness>
46.2700

> <Gold.PLP.PLP>
-44.0617

> <Gold.PLP.part.hbond>
-0.9740

> <Gold.PLP.part.metal>
0.0000

> <Gold.PLP.part.buried>
-6.9513

> <Gold.PLP.part.nonpolar>
-36.8280

> <Gold.PLP.part.repulsive>
0.0620

> <Gold.PLP.ligand.clash>
0.0000

> <Gold.PLP.ligand.torsion>
0.4046

> <Gold.PLP.Chemscore.Hbond>
1.0000

> <Gold.PLP.Chemscore.CHOScore>
0.0000

> <Gold.PLP.Chemscore.Metal>
0.0000

> <Gold.Chemscore.Hbonds>
donor molecule, donor type, donor heavy atom, donor atom, acceptor molecule, acceptor atom, score
      P1  H  7989  7998       L1     1  1.00

> <Gold.PLP.Chemscore.Internal.Correction>
0.0175

> <Gold.Rescore>
     Score         DG    S(hbond)    S(metal)    S(lipo)     H(rot)  DE(clash)    DE(int)     intcor
     16.24     -16.70       0.92        0.00     117.77       2.21       0.07       0.38       ----

> <Gold.Chemscore.Fitness>
16.2367

> <Gold.Chemscore.DG>
-16.6959

> <Gold.Chemscore.ZeroCoef>
-5.4800

> <Gold.Chemscore.Hbond>
0.9238

> <Gold.Chemscore.Metal>
0.0000

> <Gold.Chemscore.Lipo>
117.7690

> <Gold.Chemscore.Internal_Hbond>
0.0000

> <Gold.Chemscore.DEClash>
0.0745

> <Gold.Chemscore.DEInternal>
0.3847

> <Gold.Chemscore.Rot>
2.2065

> <Gold.Chemscore.Internal.Correction>
   9.000000E+99

> <Gold.Chemscore.Hbonds>
donor molecule, donor type, donor heavy atom, donor atom, acceptor molecule, acceptor atom, score
      P1  H  7989  7998       L1     1  0.73

> <Gold.Chemscore.Hbond.Weighted>
-3.0854

> <Gold.Chemscore.Metal.Weighted>
-0.0000

> <Gold.Chemscore.Lipo.Weighted>
-13.7790

> <Gold.Chemscore.Internal_Hbond.Weighted>
0.0000

> <Gold.Chemscore.DEClash.Weighted>
0.0745

> <Gold.Chemscore.DEInternal.Weighted>
0.3847

> <Gold.Chemscore.Rot.Weighted>
5.6485

> <Gold.Chemscore.Internal.Correction.Weighted>
   9.000000E+99

> <Gold.Protein.RotatedTorsions>
[ 6907 6896 6895 6894 ] final   55.20 input  -60.11 | X-H torsion
[ 7974 7965 7964 7962 ] final  -66.66 input  175.53 | X-H torsion
[ 8008 7997 7996 7995 ] final   53.07 input   59.86 | X-H torsion
[ 10167 10162 10161 10158 ] final   24.86 input  -65.29 | X-H torsion
[ 10718 10713 10712 10709 ] final  -88.80 input   66.30 | X-H torsion
[ 10763 10752 10751 10750 ] final  -66.28 input  -60.55 | X-H torsion
[ 11005 11000 10999 10996 ] final  -86.74 input  -57.11 | X-H torsion

> <Gold.Protein.ActiveResidues>
 VAL166  LYS551  ARG553  GLY616  TRP617  ASP618  TYR619  PRO620  LYS621  CYS622 
 ASP623  PHE694  ASN695  SER759  ASP760  ASP761  ALA762  ILE779  LEU786  VAL792 
 PHE793  MET794  SER795  GLU796  ALA797  LYS798  CYS799  TRP800  GLU811  SER814 

> <Gold.Protein.RotatedAtoms>
  152.3515  134.6999  160.0234 H   0  0  0  0  0  0  0  0  0  0  0  0  # atno 6907 bound_to 6896
  151.7351  133.3314  159.3359 H   0  0  0  0  0  0  0  0  0  0  0  0  # atno 6908 bound_to 6896
  150.7543  134.6262  159.6206 H   0  0  0  0  0  0  0  0  0  0  0  0  # atno 6909 bound_to 6896
  145.7389  140.8962  143.0540 H   0  0  0  0  0  0  0  0  0  0  0  0  # atno 7974 bound_to 7965
  155.4622  140.3462  155.4314 H   0  0  0  0  0  0  0  0  0  0  0  0  # atno 8008 bound_to 7997
  156.1154  140.1472  156.9310 H   0  0  0  0  0  0  0  0  0  0  0  0  # atno 8009 bound_to 7997
  154.4785  140.0877  156.7299 H   0  0  0  0  0  0  0  0  0  0  0  0  # atno 8010 bound_to 7997
  140.5153  144.0092  150.6391 H   0  0  0  0  0  0  0  0  0  0  0  0  # atno 10167 bound_to 10162
  155.9983  130.4849  150.5074 H   0  0  0  0  0  0  0  0  0  0  0  0  # atno 10718 bound_to 10713
  154.3575  135.6123  153.5674 H   0  0  0  0  0  0  0  0  0  0  0  0  # atno 10763 bound_to 10752
  152.9795  135.5807  154.4671 H   0  0  0  0  0  0  0  0  0  0  0  0  # atno 10764 bound_to 10752
  154.4403  135.2850  155.1829 H   0  0  0  0  0  0  0  0  0  0  0  0  # atno 10765 bound_to 10752
  141.1626  133.7471  156.9205 H   0  0  0  0  0  0  0  0  0  0  0  0  # atno 11005 bound_to 11000
  144.6875  139.9434  143.7476 LP  0  0  0  0  0  0  0  0  0  0  0  0  # atno 17320 bound_to 7965
  146.0466  139.3472  143.0665 LP  0  0  0  0  0  0  0  0  0  0  0  0  # atno 17321 bound_to 7965
  140.3426  143.3010  152.0572 LP  0  0  0  0  0  0  0  0  0  0  0  0  # atno 17342 bound_to 10162
  139.4907  144.6431  151.6834 LP  0  0  0  0  0  0  0  0  0  0  0  0  # atno 17343 bound_to 10162
  157.3051  131.0653  151.2041 LP  0  0  0  0  0  0  0  0  0  0  0  0  # atno 17370 bound_to 10713
  157.3006  130.6841  149.6162 LP  0  0  0  0  0  0  0  0  0  0  0  0  # atno 17371 bound_to 10713
  140.1454  134.9265  157.2523 LP  0  0  0  0  0  0  0  0  0  0  0  0  # atno 17394 bound_to 11000
  140.2786  134.3377  155.7350 LP  0  0  0  0  0  0  0  0  0  0  0  0  # atno 17395 bound_to 11000

$$$$
