AV-unprocessed.smi:3354|AV-procd|sdf|12959|dock7
  -GOLD-   2272019393D 1   1.00000     0.00000
 Structure written by MMmdl.
 38 40  0  0  0  0  0  0  0  0  1 V2000
  152.2483  139.5540  156.1438 C   0  0  0  0  0  0  0  0  0  0  0  0
  151.0580  140.0628  155.3603 C   0  0  2  0  0  0  0  0  0  0  0  0
  150.3058  141.2829  155.8400 C   0  0  0  0  0  0  0  0  0  0  0  0
  149.6483  139.9249  155.9064 C   0  0  1  0  0  0  0  0  0  0  0  0
  148.5388  139.6744  155.0367 N   0  0  0  0  0  0  0  0  0  0  0  0
  147.9611  138.3414  155.0033 C   0  0  0  0  0  0  0  0  0  0  0  0
  146.8312  138.4082  153.9616 C   0  0  2  0  0  0  0  0  0  0  0  0
  146.8532  137.2345  153.0930 N   0  0  0  0  0  0  0  0  0  0  0  0
  145.8171  136.4071  152.8984 C   0  0  0  0  0  0  0  0  0  0  0  0
  144.7191  136.5601  153.4332 O   0  0  0  0  0  0  0  0  0  0  0  0
  146.1359  135.4234  152.0396 N   0  0  0  0  0  0  0  0  0  0  0  0
  145.3309  134.3403  151.5939 C   0  0  0  0  0  0  0  0  0  0  0  0
  145.7003  133.4432  150.5624 C   0  0  0  0  0  0  0  0  0  0  0  0
  144.8033  132.4209  150.1973 C   0  0  0  0  0  0  0  0  0  0  0  0
  143.5697  132.3356  150.8712 C   0  0  0  0  0  0  0  0  0  0  0  0
  143.1993  133.1909  151.8473 N   0  0  0  0  0  0  0  0  0  0  0  0
  144.0638  134.1693  152.1910 C   0  0  0  0  0  0  0  0  0  0  0  0
  147.0666  139.7170  153.1908 C   0  0  0  0  0  0  0  0  0  0  0  0
  148.1537  140.4162  153.9890 C   0  0  0  0  0  0  0  0  0  0  0  0
  148.6063  141.5129  153.6642 O   0  0  0  0  0  0  0  0  0  0  0  0
  152.0767  139.6485  157.2165 H   0  0  0  0  0  0  0  0  0  0  0  0
  153.1396  140.1246  155.8825 H   0  0  0  0  0  0  0  0  0  0  0  0
  152.4260  138.5041  155.9113 H   0  0  0  0  0  0  0  0  0  0  0  0
  151.1878  139.9944  154.2820 H   0  0  0  0  0  0  0  0  0  0  0  0
  150.6150  141.7346  156.7805 H   0  0  0  0  0  0  0  0  0  0  0  0
  149.9555  141.9818  155.0826 H   0  0  0  0  0  0  0  0  0  0  0  0
  149.5644  139.4864  156.8991 H   0  0  0  0  0  0  0  0  0  0  0  0
  148.7366  137.6275  154.7198 H   0  0  0  0  0  0  0  0  0  0  0  0
  147.5831  138.0545  155.9855 H   0  0  0  0  0  0  0  0  0  0  0  0
  145.8733  138.4640  154.4825 H   0  0  0  0  0  0  0  0  0  0  0  0
  147.7174  137.0401  152.6087 H   0  0  0  0  0  0  0  0  0  0  0  0
  147.0517  135.4819  151.6186 H   0  0  0  0  0  0  0  0  0  0  0  0
  146.6383  133.5247  150.0360 H   0  0  0  0  0  0  0  0  0  0  0  0
  145.0538  131.7207  149.4142 H   0  0  0  0  0  0  0  0  0  0  0  0
  142.8593  131.5638  150.6143 H   0  0  0  0  0  0  0  0  0  0  0  0
  143.7320  134.8365  152.9730 H   0  0  0  0  0  0  0  0  0  0  0  0
  147.4231  139.5444  152.1744 H   0  0  0  0  0  0  0  0  0  0  0  0
  146.1643  140.3276  153.1416 H   0  0  0  0  0  0  0  0  0  0  0  0
  1  2  1  0  0  0  0
  1 21  1  0  0  0  0
  1 22  1  0  0  0  0
  1 23  1  0  0  0  0
  2  4  1  0  0  0  0
  2  3  1  0  0  0  0
  2 24  1  0  0  0  0
  3  4  1  0  0  0  0
  3 25  1  0  0  0  0
  3 26  1  0  0  0  0
  4  5  1  0  0  0  0
  4 27  1  0  0  0  0
  5 19  1  0  0  0  0
  5  6  1  0  0  0  0
  6  7  1  0  0  0  0
  6 28  1  0  0  0  0
  6 29  1  0  0  0  0
  7  8  1  0  0  0  0
  7 18  1  0  0  0  0
  7 30  1  0  0  0  0
  8  9  1  0  0  0  0
  8 31  1  0  0  0  0
  9 10  2  0  0  0  0
  9 11  1  0  0  0  0
 11 12  1  0  0  0  0
 11 32  1  0  0  0  0
 12 17  1  0  0  0  0
 12 13  2  0  0  0  0
 13 14  1  0  0  0  0
 13 33  1  0  0  0  0
 14 15  2  0  0  0  0
 14 34  1  0  0  0  0
 15 16  1  0  0  0  0
 15 35  1  0  0  0  0
 16 17  2  0  0  0  0
 17 36  1  0  0  0  0
 18 19  1  0  0  0  0
 18 37  1  0  0  0  0
 18 38  1  0  0  0  0
 19 20  2  0  0  0  0
M  END
> <s_m_source_file>
AV-unprocessed.smi

> <i_m_source_file_index>
3354

> <i_lp_mmshare_version>
43012

> <i_f3d_flags>
0

> <s_epik_input>
W0NIM11bQ0BASF0xW0NIMl1bQ0BIXTFOMltDSDJdW0NASF0oW0NIMl1DMj1PKVtOSF1DKD1PKVtOSF1jM1tjSF1bY0hdW2NIXW5bY0hdMw==

> <s_epik_cmdline>
J2VwaWtfcHl0aG9uJywgJy1waCcsICc3LjAnLCAnLXRuJywgJzgnLCAnLW1hJywgJzIwMCcsICctbWV0YWxfYmluZGluZycsICctaW1hZScsICc8aW5maWxlLm1hZT4nLCAnLW9tYWUnLCAnPG91dGZpbGUubWFlPic=

> <r_epik_Ionization_Penalty>
0.00456191

> <r_epik_Ionization_Penalty_Charging>
0

> <r_epik_Ionization_Penalty_Neutral>
0.00456191

> <r_epik_State_Penalty>
0.00327094

> <r_epik_Charging_Adjusted_Penalty>
0.00327094

> <i_epik_Tot_Q>
0

> <i_epik_Tot_abs_Q>
0

> <r_epik_Metal_State_Penalty>
-0

> <b_epik_Metal_Only>
0

> <s_lp_Force_Field>
OPLS_2005

> <r_lp_Energy>
40.1113

> <b_lp_Chiralities_Consistent>
1

> <s_lp_Variant>
AV-unprocessed.smi:3354-5

> <Gold.Version>
5.8.1

> <Gold.Id.Protein>
6NUR|6NUR_protein|mol2

> <Gold.PLP.Fitness>
41.8878

> <Gold.PLP.PLP>
-30.8957

> <Gold.PLP.part.hbond>
-3.0000

> <Gold.PLP.part.metal>
0.0000

> <Gold.PLP.part.buried>
-4.7736

> <Gold.PLP.part.nonpolar>
-24.5163

> <Gold.PLP.part.repulsive>
0.8995

> <Gold.PLP.ligand.clash>
0.0000

> <Gold.PLP.ligand.torsion>
0.2121

> <Gold.PLP.Chemscore.Hbond>
2.6800

> <Gold.PLP.Chemscore.CHOScore>
1.0000

> <Gold.PLP.Chemscore.Metal>
0.0000

> <Gold.Chemscore.Hbonds>
donor molecule, donor type, donor heavy atom, donor atom, acceptor molecule, acceptor atom, score
      L1  H     8    31       P1  7948  1.00
      L1  H    11    32       P1  7948  0.91
      P1  H  8011  8017       L1    20  0.72
      L1  C    15    35       P1 10952  0.85

> <Gold.PLP.Chemscore.Internal.Correction>
0.3763

> <Gold.Rescore>
     Score         DG    S(hbond)    S(metal)    S(lipo)     H(rot)  DE(clash)    DE(int)     intcor
     16.16     -19.28       2.59        0.00      71.13       1.24       0.08       3.04       ----

> <Gold.Chemscore.Fitness>
16.1646

> <Gold.Chemscore.DG>
-19.2841

> <Gold.Chemscore.ZeroCoef>
-5.4800

> <Gold.Chemscore.Hbond>
2.5885

> <Gold.Chemscore.Metal>
0.0000

> <Gold.Chemscore.Lipo>
71.1339

> <Gold.Chemscore.Internal_Hbond>
0.0000

> <Gold.Chemscore.DEClash>
0.0777

> <Gold.Chemscore.DEInternal>
3.0417

> <Gold.Chemscore.Rot>
1.2361

> <Gold.Chemscore.Internal.Correction>
   9.000000E+99

> <Gold.Chemscore.Hbonds>
donor molecule, donor type, donor heavy atom, donor atom, acceptor molecule, acceptor atom, score
      L1  H     8    31       P1  7948  1.00
      L1  H    11    32       P1  7948  0.84
      P1  H  8011  8017       L1    20  0.70

> <Gold.Chemscore.Hbond.Weighted>
-8.6457

> <Gold.Chemscore.Metal.Weighted>
-0.0000

> <Gold.Chemscore.Lipo.Weighted>
-8.3227

> <Gold.Chemscore.Internal_Hbond.Weighted>
0.0000

> <Gold.Chemscore.DEClash.Weighted>
0.0777

> <Gold.Chemscore.DEInternal.Weighted>
3.0417

> <Gold.Chemscore.Rot.Weighted>
3.1643

> <Gold.Chemscore.Internal.Correction.Weighted>
   9.000000E+99

> <Gold.Protein.RotatedTorsions>
[ 6907 6896 6895 6894 ] final    2.05 input  -60.11 | X-H torsion
[ 7974 7965 7964 7962 ] final  142.21 input  175.53 | X-H torsion
[ 8008 7997 7996 7995 ] final   44.71 input   59.86 | X-H torsion
[ 10167 10162 10161 10158 ] final -158.38 input  -65.29 | X-H torsion
[ 10718 10713 10712 10709 ] final  167.39 input   66.30 | X-H torsion
[ 10763 10752 10751 10750 ] final   86.79 input  -60.55 | X-H torsion
[ 11005 11000 10999 10996 ] final  -82.77 input  -57.11 | X-H torsion

> <Gold.Protein.ActiveResidues>
 VAL166  LYS551  ARG553  GLY616  TRP617  ASP618  TYR619  PRO620  LYS621  CYS622 
 ASP623  PHE694  ASN695  SER759  ASP760  ASP761  ALA762  ILE779  LEU786  VAL792 
 PHE793  MET794  SER795  GLU796  ALA797  LYS798  CYS799  TRP800  GLU811  SER814 

> <Gold.Protein.RotatedAtoms>
  151.6025  135.1046  160.0063 H   0  0  0  0  0  0  0  0  0  0  0  0  # atno 6907 bound_to 6896
  152.4250  133.7176  159.6525 H   0  0  0  0  0  0  0  0  0  0  0  0  # atno 6908 bound_to 6896
  150.8139  133.8300  159.3192 H   0  0  0  0  0  0  0  0  0  0  0  0  # atno 6909 bound_to 6896
  144.9028  139.5399  143.5745 H   0  0  0  0  0  0  0  0  0  0  0  0  # atno 7974 bound_to 7965
  155.3238  140.3398  155.4240 H   0  0  0  0  0  0  0  0  0  0  0  0  # atno 8008 bound_to 7997
  156.1896  140.1693  156.8155 H   0  0  0  0  0  0  0  0  0  0  0  0  # atno 8009 bound_to 7997
  154.5426  140.0722  156.8519 H   0  0  0  0  0  0  0  0  0  0  0  0  # atno 8010 bound_to 7997
  139.6697  143.9767  152.2276 H   0  0  0  0  0  0  0  0  0  0  0  0  # atno 10167 bound_to 10162
  157.0522  131.0316  151.2677 H   0  0  0  0  0  0  0  0  0  0  0  0  # atno 10718 bound_to 10713
  153.1605  135.4567  154.9765 H   0  0  0  0  0  0  0  0  0  0  0  0  # atno 10763 bound_to 10752
  154.7894  135.3215  154.7815 H   0  0  0  0  0  0  0  0  0  0  0  0  # atno 10764 bound_to 10752
  153.8305  135.6939  153.4869 H   0  0  0  0  0  0  0  0  0  0  0  0  # atno 10765 bound_to 10752
  141.1661  133.7261  156.8621 H   0  0  0  0  0  0  0  0  0  0  0  0  # atno 11005 bound_to 11000
  146.3117  139.7772  142.9014 LP  0  0  0  0  0  0  0  0  0  0  0  0  # atno 17320 bound_to 7965
  145.3587  141.0321  143.3297 LP  0  0  0  0  0  0  0  0  0  0  0  0  # atno 17321 bound_to 7965
  139.9528  144.6609  150.8155 LP  0  0  0  0  0  0  0  0  0  0  0  0  # atno 17342 bound_to 10162
  140.7613  143.3171  151.2707 LP  0  0  0  0  0  0  0  0  0  0  0  0  # atno 17343 bound_to 10162
  157.5021  130.7886  149.7615 LP  0  0  0  0  0  0  0  0  0  0  0  0  # atno 17370 bound_to 10713
  156.0004  130.3883  150.2628 LP  0  0  0  0  0  0  0  0  0  0  0  0  # atno 17371 bound_to 10713
  140.1841  134.9012  157.2983 LP  0  0  0  0  0  0  0  0  0  0  0  0  # atno 17394 bound_to 11000
  140.2363  134.3849  155.7500 LP  0  0  0  0  0  0  0  0  0  0  0  0  # atno 17395 bound_to 11000

$$$$
