AV-unprocessed.smi:921|AV-procd|sdf|4171|dock4
  -GOLD-   22720 2 83D 1   1.00000     0.00000
 Structure written by MMmdl.
 40 42  0  0  0  0  0  0  0  0  2 V2000
  151.6067  137.5030  156.8933 N   0  0  0  0  0  0  0  0  0  0  0  0
  152.3837  138.2394  156.0951 C   0  0  0  0  0  0  0  0  0  0  0  0
  153.3699  138.8403  156.5181 O   0  0  0  0  0  0  0  0  0  0  0  0
  151.9919  138.3111  154.6157 C   0  0  0  0  0  0  0  0  0  0  0  0
  150.6845  139.0222  154.4358 C   0  0  0  0  0  0  0  0  0  0  0  0
  149.6469  138.5839  153.6674 N   0  3  0  0  0  0  0  0  0  0  0  0
  148.6075  139.5127  153.6988 C   0  0  0  0  0  0  0  0  0  0  0  0
  147.3645  139.5073  153.0735 C   0  0  0  0  0  0  0  0  0  0  0  0
  146.5340  140.6229  153.3063 C   0  0  0  0  0  0  0  0  0  0  0  0
  146.9509  141.6882  154.1299 C   0  0  0  0  0  0  0  0  0  0  0  0
  148.2136  141.6820  154.7572 C   0  0  0  0  0  0  0  0  0  0  0  0
  149.0274  140.5715  154.5294 C   0  0  0  0  0  0  0  0  0  0  0  0
  150.3045  140.2154  154.9834 N   0  0  0  0  0  0  0  0  0  0  0  0
  151.0264  141.1166  155.9018 C   0  0  0  0  0  0  0  0  0  0  0  0
  150.6825  140.9073  157.3964 C   0  0  2  0  0  0  0  0  0  0  0  0
  149.2832  140.9785  157.5911 O   0  0  0  0  0  0  0  0  0  0  0  0
  151.4549  141.8429  158.3209 C   0  0  0  0  0  0  0  0  0  0  0  0
  151.3264  143.2461  158.2022 C   0  0  0  0  0  0  0  0  0  0  0  0
  152.0599  144.1035  159.0444 C   0  0  0  0  0  0  0  0  0  0  0  0
  151.9380  145.4456  158.9147 F   0  0  0  0  0  0  0  0  0  0  0  0
  152.9231  143.5655  160.0171 C   0  0  0  0  0  0  0  0  0  0  0  0
  153.0558  142.1699  160.1429 C   0  0  0  0  0  0  0  0  0  0  0  0
  152.3271  141.3105  159.2975 C   0  0  0  0  0  0  0  0  0  0  0  0
  152.4782  139.9702  159.4226 F   0  0  0  0  0  0  0  0  0  0  0  0
  151.8243  137.4350  157.8775 H   0  0  0  0  0  0  0  0  0  0  0  0
  150.8016  137.0231  156.5177 H   0  0  0  0  0  0  0  0  0  0  0  0
  152.7610  138.8299  154.0419 H   0  0  0  0  0  0  0  0  0  0  0  0
  151.9305  137.2984  154.2206 H   0  0  0  0  0  0  0  0  0  0  0  0
  147.0444  138.6942  152.4386 H   0  0  0  0  0  0  0  0  0  0  0  0
  145.5592  140.6634  152.8421 H   0  0  0  0  0  0  0  0  0  0  0  0
  146.2888  142.5278  154.2841 H   0  0  0  0  0  0  0  0  0  0  0  0
  148.5186  142.5042  155.3866 H   0  0  0  0  0  0  0  0  0  0  0  0
  152.0913  140.9414  155.7451 H   0  0  0  0  0  0  0  0  0  0  0  0
  150.8540  142.1502  155.6011 H   0  0  0  0  0  0  0  0  0  0  0  0
  150.9597  139.8860  157.6596 H   0  0  0  0  0  0  0  0  0  0  0  0
  149.0810  140.6165  158.4406 H   0  0  0  0  0  0  0  0  0  0  0  0
  150.6761  143.6747  157.4538 H   0  0  0  0  0  0  0  0  0  0  0  0
  153.4851  144.2225  160.6643 H   0  0  0  0  0  0  0  0  0  0  0  0
  153.7205  141.7572  160.8873 H   0  0  0  0  0  0  0  0  0  0  0  0
  149.6579  137.7152  153.1488 H   0  0  0  0  0  0  0  0  0  0  0  0
  1  2  1  0  0  0  0
  1 25  1  0  0  0  0
  1 26  1  0  0  0  0
  2  3  2  0  0  0  0
  2  4  1  0  0  0  0
  4  5  1  0  0  0  0
  4 27  1  0  0  0  0
  4 28  1  0  0  0  0
  5 13  1  0  0  0  0
  5  6  2  0  0  0  0
  6  7  1  0  0  0  0
  6 40  1  0  0  0  0
  7 12  2  0  0  0  0
  7  8  1  0  0  0  0
  8  9  2  0  0  0  0
  8 29  1  0  0  0  0
  9 10  1  0  0  0  0
  9 30  1  0  0  0  0
 10 11  2  0  0  0  0
 10 31  1  0  0  0  0
 11 12  1  0  0  0  0
 11 32  1  0  0  0  0
 12 13  1  0  0  0  0
 13 14  1  0  0  0  0
 14 15  1  0  0  0  0
 14 33  1  0  0  0  0
 14 34  1  0  0  0  0
 15 16  1  0  0  0  0
 15 17  1  0  0  0  0
 15 35  1  0  0  0  0
 16 36  1  0  0  0  0
 17 23  1  0  0  0  0
 17 18  2  0  0  0  0
 18 19  1  0  0  0  0
 18 37  1  0  0  0  0
 19 20  1  0  0  0  0
 19 21  2  0  0  0  0
 21 22  1  0  0  0  0
 21 38  1  0  0  0  0
 22 23  2  0  0  0  0
 22 39  1  0  0  0  0
 23 24  1  0  0  0  0
M  CHG  1   6   1
M  END
> <s_m_source_file>
AV-unprocessed.smi

> <i_m_source_file_index>
921

> <i_lp_mmshare_version>
43012

> <i_f3d_flags>
0

> <s_epik_input>
W2NIXTFbY0hdW2NIXVtjSF1jKGMxMiluKGMobjIpW0NIMl1DKD1PKVtOSDJdKVtDSDJdW0NASF0oW09IXSljM1tjSF1jKEYpW2NIXVtjSF1jM0Y=

> <s_epik_cmdline>
J2VwaWtfcHl0aG9uJywgJy1waCcsICc3LjAnLCAnLXRuJywgJzgnLCAnLW1hJywgJzIwMCcsICctbWV0YWxfYmluZGluZycsICctaW1hZScsICc8aW5maWxlLm1hZT4nLCAnLW9tYWUnLCAnPG91dGZpbGUubWFlPic=

> <r_epik_Ionization_Penalty>
1.66646

> <r_epik_Ionization_Penalty_Charging>
1.66645

> <r_epik_Ionization_Penalty_Neutral>
3.86504e-06

> <r_epik_State_Penalty>
1.76975

> <r_epik_Charging_Adjusted_Penalty>
3.43621

> <i_epik_Tot_Q>
1

> <i_epik_Tot_abs_Q>
1

> <r_epik_Metal_State_Penalty>
1.80493

> <b_epik_Metal_Only>
0

> <s_lp_Force_Field>
OPLS_2005

> <r_lp_Energy>
13.8702

> <b_lp_Chiralities_Consistent>
1

> <s_lp_Variant>
AV-unprocessed.smi:921-3

> <Gold.Version>
5.8.1

> <Gold.Id.Protein>
6NUR|6NUR_protein|mol2

> <Gold.PLP.Fitness>
61.9056

> <Gold.PLP.PLP>
-54.0227

> <Gold.PLP.part.hbond>
-3.0000

> <Gold.PLP.part.metal>
0.0000

> <Gold.PLP.part.buried>
1.6862

> <Gold.PLP.part.nonpolar>
-52.5500

> <Gold.PLP.part.repulsive>
0.1536

> <Gold.PLP.ligand.clash>
0.0000

> <Gold.PLP.ligand.torsion>
0.5615

> <Gold.PLP.Chemscore.Hbond>
2.9760

> <Gold.PLP.Chemscore.CHOScore>
0.0000

> <Gold.PLP.Chemscore.Metal>
0.0000

> <Gold.Chemscore.Hbonds>
donor molecule, donor type, donor heavy atom, donor atom, acceptor molecule, acceptor atom, score
      L1  H     6    40       P1  7948  1.92
      P1  H  7997  8008       L1     3  1.00

> <Gold.PLP.Chemscore.Internal.Correction>
0.0780

> <Gold.Rescore>
     Score         DG    S(hbond)    S(metal)    S(lipo)     H(rot)  DE(clash)    DE(int)     intcor
     16.80     -17.91       1.84        0.00     123.12       3.17       0.62       0.49       ----

> <Gold.Chemscore.Fitness>
16.7965

> <Gold.Chemscore.DG>
-17.9078

> <Gold.Chemscore.ZeroCoef>
-5.4800

> <Gold.Chemscore.Hbond>
1.8392

> <Gold.Chemscore.Metal>
0.0000

> <Gold.Chemscore.Lipo>
123.1168

> <Gold.Chemscore.Internal_Hbond>
0.0000

> <Gold.Chemscore.DEClash>
0.6245

> <Gold.Chemscore.DEInternal>
0.4868

> <Gold.Chemscore.Rot>
3.1717

> <Gold.Chemscore.Internal.Correction>
   9.000000E+99

> <Gold.Chemscore.Hbonds>
donor molecule, donor type, donor heavy atom, donor atom, acceptor molecule, acceptor atom, score
      L1  H     6    40       P1  7948  0.67
      P1  H  7997  8008       L1     3  0.94

> <Gold.Chemscore.Hbond.Weighted>
-6.1428

> <Gold.Chemscore.Metal.Weighted>
-0.0000

> <Gold.Chemscore.Lipo.Weighted>
-14.4047

> <Gold.Chemscore.Internal_Hbond.Weighted>
0.0000

> <Gold.Chemscore.DEClash.Weighted>
0.6245

> <Gold.Chemscore.DEInternal.Weighted>
0.4868

> <Gold.Chemscore.Rot.Weighted>
8.1196

> <Gold.Chemscore.Internal.Correction.Weighted>
   9.000000E+99

> <Gold.Protein.RotatedTorsions>
[ 6907 6896 6895 6894 ] final -137.99 input  -60.11 | X-H torsion
[ 7974 7965 7964 7962 ] final  114.74 input  175.53 | X-H torsion
[ 8008 7997 7996 7995 ] final  -52.95 input   59.86 | X-H torsion
[ 10167 10162 10161 10158 ] final   55.18 input  -65.29 | X-H torsion
[ 10718 10713 10712 10709 ] final  -86.36 input   66.30 | X-H torsion
[ 10763 10752 10751 10750 ] final   -9.11 input  -60.55 | X-H torsion
[ 11005 11000 10999 10996 ] final   26.79 input  -57.11 | X-H torsion

> <Gold.Protein.ActiveResidues>
 VAL166  LYS551  ARG553  GLY616  TRP617  ASP618  TYR619  PRO620  LYS621  CYS622 
 ASP623  PHE694  ASN695  SER759  ASP760  ASP761  ALA762  ILE779  LEU786  VAL792 
 PHE793  MET794  SER795  GLU796  ALA797  LYS798  CYS799  TRP800  GLU811  SER814 

> <Gold.Protein.RotatedAtoms>
  151.0294  133.5804  159.2662 H   0  0  0  0  0  0  0  0  0  0  0  0  # atno 6907 bound_to 6896
  151.2892  135.0736  159.9207 H   0  0  0  0  0  0  0  0  0  0  0  0  # atno 6908 bound_to 6896
  152.5341  133.9995  159.7942 H   0  0  0  0  0  0  0  0  0  0  0  0  # atno 6909 bound_to 6896
  145.2007  139.2954  143.4320 H   0  0  0  0  0  0  0  0  0  0  0  0  # atno 7974 bound_to 7965
  154.4120  140.1211  156.5074 H   0  0  0  0  0  0  0  0  0  0  0  0  # atno 8008 bound_to 7997
  155.6833  140.3496  155.4844 H   0  0  0  0  0  0  0  0  0  0  0  0  # atno 8009 bound_to 7997
  155.9532  140.1109  157.0949 H   0  0  0  0  0  0  0  0  0  0  0  0  # atno 8010 bound_to 7997
  140.2222  144.3777  150.6446 H   0  0  0  0  0  0  0  0  0  0  0  0  # atno 10167 bound_to 10162
  155.9990  130.4762  150.4703 H   0  0  0  0  0  0  0  0  0  0  0  0  # atno 10718 bound_to 10713
  153.4500  135.7015  153.6114 H   0  0  0  0  0  0  0  0  0  0  0  0  # atno 10763 bound_to 10752
  153.4453  135.3770  155.2252 H   0  0  0  0  0  0  0  0  0  0  0  0  # atno 10764 bound_to 10752
  154.8728  135.3984  154.3911 H   0  0  0  0  0  0  0  0  0  0  0  0  # atno 10765 bound_to 10752
  140.3332  134.2414  155.7699 H   0  0  0  0  0  0  0  0  0  0  0  0  # atno 11005 bound_to 11000
  146.3418  140.2250  142.8592 LP  0  0  0  0  0  0  0  0  0  0  0  0  # atno 17320 bound_to 7965
  144.9951  140.8582  143.5316 LP  0  0  0  0  0  0  0  0  0  0  0  0  # atno 17321 bound_to 7965
  140.6247  143.2180  151.6622 LP  0  0  0  0  0  0  0  0  0  0  0  0  # atno 17342 bound_to 10162
  139.5140  144.3425  152.0727 LP  0  0  0  0  0  0  0  0  0  0  0  0  # atno 17343 bound_to 10162
  157.2718  131.0589  151.2254 LP  0  0  0  0  0  0  0  0  0  0  0  0  # atno 17370 bound_to 10713
  157.3332  130.6995  149.6337 LP  0  0  0  0  0  0  0  0  0  0  0  0  # atno 17371 bound_to 10713
  141.2058  133.7850  157.0213 LP  0  0  0  0  0  0  0  0  0  0  0  0  # atno 17394 bound_to 11000
  140.0843  134.9630  157.1674 LP  0  0  0  0  0  0  0  0  0  0  0  0  # atno 17395 bound_to 11000

$$$$
