AV-unprocessed.smi:1641|AV-procd|sdf|6558|dock8
  -GOLD-   22720 7243D 1   1.00000     0.00000
 Structure written by MMmdl.
 41 42  0  0  0  0  0  0  0  0  1 V2000
  143.9183  143.6005  162.5536 C   0  0  0  0  0  0  0  0  0  0  0  0
  144.7953  143.1935  161.4192 C   0  0  0  0  0  0  0  0  0  0  0  0
  144.8288  141.9422  160.9454 N   0  0  0  0  0  0  0  0  0  0  0  0
  145.7173  141.8034  159.8880 N   0  0  0  0  0  0  0  0  0  0  0  0
  146.3305  142.9586  159.5958 C   0  0  0  0  0  0  0  0  0  0  0  0
  147.2894  143.1037  158.5588 N   0  0  0  0  0  0  0  0  0  0  0  0
  148.0802  142.1609  158.0173 C   0  0  0  0  0  0  0  0  0  0  0  0
  148.0854  140.9707  158.3324 O   0  0  0  0  0  0  0  0  0  0  0  0
  148.8766  142.6820  157.0721 N   0  0  0  0  0  0  0  0  0  0  0  0
  149.8721  141.9417  156.3024 C   0  0  0  0  0  0  0  0  0  0  0  0
  150.8753  141.2138  157.2195 C   0  0  0  0  0  0  0  0  0  0  0  0
  151.3806  141.9984  158.3456 N   0  0  0  0  0  0  0  0  0  0  0  0
  152.4146  141.2996  159.1023 C   0  0  0  0  0  0  0  0  0  0  0  0
  152.8923  142.1252  160.3101 C   0  0  1  0  0  0  0  0  0  0  0  0
  154.0375  141.4384  161.0610 C   0  0  0  0  0  0  0  0  0  0  0  0
  153.3534  143.3994  159.8622 O   0  0  0  0  0  0  0  0  0  0  0  0
  152.4193  144.1442  159.0784 C   0  0  2  0  0  0  0  0  0  0  0  0
  151.2897  144.7306  159.9427 C   0  0  0  0  0  0  0  0  0  0  0  0
  151.9054  143.2855  157.9057 C   0  0  0  0  0  0  0  0  0  0  0  0
  145.8727  144.3206  160.6039 S   0  0  0  0  0  0  0  0  0  0  0  0
  142.9532  143.0977  162.4857 H   0  0  0  0  0  0  0  0  0  0  0  0
  143.7506  144.6776  162.5343 H   0  0  0  0  0  0  0  0  0  0  0  0
  144.3874  143.3350  163.5009 H   0  0  0  0  0  0  0  0  0  0  0  0
  147.3848  144.0364  158.1852 H   0  0  0  0  0  0  0  0  0  0  0  0
  148.7997  143.6698  156.8792 H   0  0  0  0  0  0  0  0  0  0  0  0
  149.3993  141.2630  155.5921 H   0  0  0  0  0  0  0  0  0  0  0  0
  150.4143  142.6682  155.6970 H   0  0  0  0  0  0  0  0  0  0  0  0
  150.4183  140.2969  157.5945 H   0  0  0  0  0  0  0  0  0  0  0  0
  151.7153  140.8929  156.6017 H   0  0  0  0  0  0  0  0  0  0  0  0
  152.0409  140.3427  159.4639 H   0  0  0  0  0  0  0  0  0  0  0  0
  153.2616  141.0769  158.4514 H   0  0  0  0  0  0  0  0  0  0  0  0
  152.0632  142.2635  161.0049 H   0  0  0  0  0  0  0  0  0  0  0  0
  153.7279  140.4643  161.4404 H   0  0  0  0  0  0  0  0  0  0  0  0
  154.3608  142.0386  161.9119 H   0  0  0  0  0  0  0  0  0  0  0  0
  154.9004  141.2869  160.4118 H   0  0  0  0  0  0  0  0  0  0  0  0
  152.9718  144.9865  158.6611 H   0  0  0  0  0  0  0  0  0  0  0  0
  150.6509  145.3867  159.3514 H   0  0  0  0  0  0  0  0  0  0  0  0
  151.6954  145.3185  160.7661 H   0  0  0  0  0  0  0  0  0  0  0  0
  150.6525  143.9550  160.3677 H   0  0  0  0  0  0  0  0  0  0  0  0
  152.7228  143.1216  157.2015 H   0  0  0  0  0  0  0  0  0  0  0  0
  151.1376  143.8364  157.3612 H   0  0  0  0  0  0  0  0  0  0  0  0
  1  2  1  0  0  0  0
  1 21  1  0  0  0  0
  1 22  1  0  0  0  0
  1 23  1  0  0  0  0
  2 20  1  0  0  0  0
  2  3  2  0  0  0  0
  3  4  1  0  0  0  0
  4  5  2  0  0  0  0
  5  6  1  0  0  0  0
  5 20  1  0  0  0  0
  6  7  1  0  0  0  0
  6 24  1  0  0  0  0
  7  8  2  0  0  0  0
  7  9  1  0  0  0  0
  9 10  1  0  0  0  0
  9 25  1  0  0  0  0
 10 11  1  0  0  0  0
 10 26  1  0  0  0  0
 10 27  1  0  0  0  0
 11 12  1  0  0  0  0
 11 28  1  0  0  0  0
 11 29  1  0  0  0  0
 12 19  1  0  0  0  0
 12 13  1  0  0  0  0
 13 14  1  0  0  0  0
 13 30  1  0  0  0  0
 13 31  1  0  0  0  0
 14 15  1  0  0  0  0
 14 16  1  0  0  0  0
 14 32  1  0  0  0  0
 15 33  1  0  0  0  0
 15 34  1  0  0  0  0
 15 35  1  0  0  0  0
 16 17  1  0  0  0  0
 17 18  1  0  0  0  0
 17 19  1  0  0  0  0
 17 36  1  0  0  0  0
 18 37  1  0  0  0  0
 18 38  1  0  0  0  0
 18 39  1  0  0  0  0
 19 40  1  0  0  0  0
 19 41  1  0  0  0  0
M  END
> <s_m_source_file>
AV-unprocessed.smi

> <i_m_source_file_index>
1641

> <i_lp_mmshare_version>
43012

> <i_f3d_flags>
0

> <s_epik_input>
W0NIM11jMW5uYyhzMSlbTkhdQyg9TylbTkhdW0NIMl1bQ0gyXU4yW0NIMl1bQ0BASF0oW0NIM10pT1tDQEBIXShbQ0gzXSlbQ0gyXTI=

> <s_epik_cmdline>
J2VwaWtfcHl0aG9uJywgJy1waCcsICc3LjAnLCAnLXRuJywgJzgnLCAnLW1hJywgJzIwMCcsICctbWV0YWxfYmluZGluZycsICctaW1hZScsICc8aW5maWxlLm1hZT4nLCAnLW9tYWUnLCAnPG91dGZpbGUubWFlPic=

> <r_lp_tautomer_probability>
1

> <r_epik_Ionization_Penalty>
0.221104

> <r_epik_Ionization_Penalty_Charging>
0

> <r_epik_Ionization_Penalty_Neutral>
0.221104

> <r_epik_State_Penalty>
0.209349

> <r_epik_Charging_Adjusted_Penalty>
0.209349

> <i_epik_Tot_Q>
0

> <i_epik_Tot_abs_Q>
0

> <r_epik_Metal_State_Penalty>
0.560954

> <b_epik_Metal_Only>
0

> <s_lp_Force_Field>
OPLS_2005

> <r_lp_Energy>
25.2137

> <b_lp_Chiralities_Consistent>
1

> <s_lp_Variant>
AV-unprocessed.smi:1641-3

> <Gold.Version>
5.8.1

> <Gold.Id.Protein>
6NUR|6NUR_protein|mol2

> <Gold.PLP.Fitness>
46.6005

> <Gold.PLP.PLP>
-38.7733

> <Gold.PLP.part.hbond>
-3.5770

> <Gold.PLP.part.metal>
0.0000

> <Gold.PLP.part.buried>
-3.5883

> <Gold.PLP.part.nonpolar>
-31.4168

> <Gold.PLP.part.repulsive>
0.1489

> <Gold.PLP.ligand.clash>
0.0000

> <Gold.PLP.ligand.torsion>
0.2274

> <Gold.PLP.Chemscore.Hbond>
2.7565

> <Gold.PLP.Chemscore.CHOScore>
0.0000

> <Gold.PLP.Chemscore.Metal>
0.0000

> <Gold.Chemscore.Hbonds>
donor molecule, donor type, donor heavy atom, donor atom, acceptor molecule, acceptor atom, score
      L1  H     6    24       P1  8029  0.68
      L1  H     9    25       P1  8028  0.85
      P1  H  6934  6946       L1     4  0.85

> <Gold.PLP.Chemscore.Internal.Correction>
0.0124

> <Gold.Rescore>
     Score         DG    S(hbond)    S(metal)    S(lipo)     H(rot)  DE(clash)    DE(int)     intcor
     16.31     -17.75       1.66        0.00      92.39       1.60       0.05       1.39       ----

> <Gold.Chemscore.Fitness>
16.3144

> <Gold.Chemscore.DG>
-17.7541

> <Gold.Chemscore.ZeroCoef>
-5.4800

> <Gold.Chemscore.Hbond>
1.6627

> <Gold.Chemscore.Metal>
0.0000

> <Gold.Chemscore.Lipo>
92.3939

> <Gold.Chemscore.Internal_Hbond>
0.0000

> <Gold.Chemscore.DEClash>
0.0456

> <Gold.Chemscore.DEInternal>
1.3940

> <Gold.Chemscore.Rot>
1.5975

> <Gold.Chemscore.Internal.Correction>
   9.000000E+99

> <Gold.Chemscore.Hbonds>
donor molecule, donor type, donor heavy atom, donor atom, acceptor molecule, acceptor atom, score
      L1  H     6    24       P1  8029  0.23
      L1  H     9    25       P1  8028  0.29
      P1  H  6934  6946       L1     4  0.08

> <Gold.Chemscore.Hbond.Weighted>
-5.5535

> <Gold.Chemscore.Metal.Weighted>
-0.0000

> <Gold.Chemscore.Lipo.Weighted>
-10.8101

> <Gold.Chemscore.Internal_Hbond.Weighted>
0.0000

> <Gold.Chemscore.DEClash.Weighted>
0.0456

> <Gold.Chemscore.DEInternal.Weighted>
1.3940

> <Gold.Chemscore.Rot.Weighted>
4.0896

> <Gold.Chemscore.Internal.Correction.Weighted>
   9.000000E+99

> <Gold.Protein.RotatedTorsions>
[ 6907 6896 6895 6894 ] final -154.59 input  -60.11 | X-H torsion
[ 7974 7965 7964 7962 ] final -138.87 input  175.53 | X-H torsion
[ 8008 7997 7996 7995 ] final  -50.79 input   59.86 | X-H torsion
[ 10167 10162 10161 10158 ] final  165.91 input  -65.29 | X-H torsion
[ 10718 10713 10712 10709 ] final  -84.68 input   66.30 | X-H torsion
[ 10763 10752 10751 10750 ] final  131.98 input  -60.55 | X-H torsion
[ 11005 11000 10999 10996 ] final -165.45 input  -57.11 | X-H torsion

> <Gold.Protein.ActiveResidues>
 VAL166  LYS551  ARG553  GLY616  TRP617  ASP618  TYR619  PRO620  LYS621  CYS622 
 ASP623  PHE694  ASN695  SER759  ASP760  ASP761  ALA762  ILE779  LEU786  VAL792 
 PHE793  MET794  SER795  GLU796  ALA797  LYS798  CYS799  TRP800  GLU811  SER814 

> <Gold.Protein.RotatedAtoms>
  151.2597  133.4308  159.2615 H   0  0  0  0  0  0  0  0  0  0  0  0  # atno 6907 bound_to 6896
  151.0542  134.9693  159.8237 H   0  0  0  0  0  0  0  0  0  0  0  0  # atno 6908 bound_to 6896
  152.5387  134.2550  159.8966 H   0  0  0  0  0  0  0  0  0  0  0  0  # atno 6909 bound_to 6896
  144.8723  140.6385  143.5259 H   0  0  0  0  0  0  0  0  0  0  0  0  # atno 7974 bound_to 7965
  154.4069  140.1263  156.4723 H   0  0  0  0  0  0  0  0  0  0  0  0  # atno 8008 bound_to 7997
  155.7167  140.3493  155.4978 H   0  0  0  0  0  0  0  0  0  0  0  0  # atno 8009 bound_to 7997
  155.9252  140.1059  157.1166 H   0  0  0  0  0  0  0  0  0  0  0  0  # atno 8010 bound_to 7997
  139.4914  144.4082  151.9330 H   0  0  0  0  0  0  0  0  0  0  0  0  # atno 10167 bound_to 10162
  156.0004  130.4706  150.4447 H   0  0  0  0  0  0  0  0  0  0  0  0  # atno 10718 bound_to 10713
  153.7832  135.3165  155.3368 H   0  0  0  0  0  0  0  0  0  0  0  0  # atno 10763 bound_to 10752
  154.8153  135.4640  154.0631 H   0  0  0  0  0  0  0  0  0  0  0  0  # atno 10764 bound_to 10752
  153.1926  135.6910  153.8419 H   0  0  0  0  0  0  0  0  0  0  0  0  # atno 10765 bound_to 10752
  140.5755  134.5194  157.5169 H   0  0  0  0  0  0  0  0  0  0  0  0  # atno 11005 bound_to 11000
  145.4108  139.1580  143.4127 LP  0  0  0  0  0  0  0  0  0  0  0  0  # atno 17320 bound_to 7965
  146.2939  140.4211  142.8729 LP  0  0  0  0  0  0  0  0  0  0  0  0  # atno 17321 bound_to 7965
  140.3523  144.3074  150.5947 LP  0  0  0  0  0  0  0  0  0  0  0  0  # atno 17342 bound_to 10162
  140.5475  143.2212  151.7983 LP  0  0  0  0  0  0  0  0  0  0  0  0  # atno 17343 bound_to 10162
  157.2485  131.0541  151.2393 LP  0  0  0  0  0  0  0  0  0  0  0  0  # atno 17370 bound_to 10713
  157.3551  130.7102  149.6465 LP  0  0  0  0  0  0  0  0  0  0  0  0  # atno 17371 bound_to 10713
  139.9341  134.7907  156.0849 LP  0  0  0  0  0  0  0  0  0  0  0  0  # atno 17394 bound_to 11000
  141.1029  133.6670  156.2796 LP  0  0  0  0  0  0  0  0  0  0  0  0  # atno 17395 bound_to 11000

$$$$
