AV-unprocessed.smi:910|AV-procd|sdf|4126|dock1
  -GOLD-   22720 2 23D 1   1.00000     0.00000
 Structure written by MMmdl.
 46 47  0  0  0  0  0  0  0  0  1 V2000
  147.9483  135.5643  154.9872 C   0  0  0  0  0  0  0  0  0  0  0  0
  149.3469  135.9193  155.4413 C   0  0  0  0  0  0  0  0  0  0  0  0
  149.7933  137.2109  155.4697 N   0  0  0  0  0  0  0  0  0  0  0  0
  151.1107  137.2061  155.9227 C   0  0  0  0  0  0  0  0  0  0  0  0
  151.9742  138.1560  156.1111 N   0  0  0  0  0  0  0  0  0  0  0  0
  151.5599  139.4444  155.8290 C   0  0  0  0  0  0  0  0  0  0  0  0
  151.2054  139.8727  154.7267 O   0  0  0  0  0  0  0  0  0  0  0  0
  151.6653  140.2354  156.9087 N   0  0  0  0  0  0  0  0  0  0  0  0
  151.4013  141.6709  156.9300 C   0  0  0  0  0  0  0  0  0  0  0  0
  150.5007  142.0578  158.1114 C   0  0  0  0  0  0  0  0  0  0  0  0
  151.2360  141.9420  159.3190 O   0  0  0  0  0  0  0  0  0  0  0  0
  152.5155  142.5610  159.2952 C   0  0  2  0  0  0  0  0  0  0  0  0
  153.4708  141.7683  160.2092 C   0  0  0  0  0  0  0  0  0  0  0  0
  153.0242  141.8247  161.6805 C   0  0  0  0  0  0  0  0  0  0  0  0
  152.8619  143.2749  162.1622 C   0  0  0  0  0  0  0  0  0  0  0  0
  151.9068  144.0648  161.2529 C   0  0  0  0  0  0  0  0  0  0  0  0
  152.3666  144.0188  159.7821 C   0  0  2  0  0  0  0  0  0  0  0  0
  151.4521  144.8405  158.8606 C   0  0  0  0  0  0  0  0  0  0  0  0
  151.4276  135.8942  156.1692 O   0  0  0  0  0  0  0  0  0  0  0  0
  150.3363  135.1369  155.8650 C   0  0  0  0  0  0  0  0  0  0  0  0
  150.4176  133.6380  156.0459 C   0  0  0  0  0  0  0  0  0  0  0  0
  147.4143  135.0460  155.7838 H   0  0  0  0  0  0  0  0  0  0  0  0
  147.9891  134.9107  154.1156 H   0  0  0  0  0  0  0  0  0  0  0  0
  147.3849  136.4584  154.7205 H   0  0  0  0  0  0  0  0  0  0  0  0
  149.2332  138.0027  155.1882 H   0  0  0  0  0  0  0  0  0  0  0  0
  151.9811  139.8167  157.7716 H   0  0  0  0  0  0  0  0  0  0  0  0
  152.3314  142.2408  156.9591 H   0  0  0  0  0  0  0  0  0  0  0  0
  150.9091  141.9373  155.9946 H   0  0  0  0  0  0  0  0  0  0  0  0
  150.1470  143.0809  157.9788 H   0  0  0  0  0  0  0  0  0  0  0  0
  149.6235  141.4102  158.1495 H   0  0  0  0  0  0  0  0  0  0  0  0
  152.9121  142.5766  158.2781 H   0  0  0  0  0  0  0  0  0  0  0  0
  153.5383  140.7306  159.8818 H   0  0  0  0  0  0  0  0  0  0  0  0
  154.4770  142.1802  160.1223 H   0  0  0  0  0  0  0  0  0  0  0  0
  152.0781  141.2945  161.7968 H   0  0  0  0  0  0  0  0  0  0  0  0
  153.7475  141.3039  162.3083 H   0  0  0  0  0  0  0  0  0  0  0  0
  152.4924  143.2866  163.1881 H   0  0  0  0  0  0  0  0  0  0  0  0
  153.8364  143.7644  162.1794 H   0  0  0  0  0  0  0  0  0  0  0  0
  150.8984  143.6589  161.3420 H   0  0  0  0  0  0  0  0  0  0  0  0
  151.8541  145.0988  161.5942 H   0  0  0  0  0  0  0  0  0  0  0  0
  153.3539  144.4810  159.7374 H   0  0  0  0  0  0  0  0  0  0  0  0
  150.4504  144.4157  158.8079 H   0  0  0  0  0  0  0  0  0  0  0  0
  151.8483  144.8723  157.8456 H   0  0  0  0  0  0  0  0  0  0  0  0
  151.3604  145.8688  159.2112 H   0  0  0  0  0  0  0  0  0  0  0  0
  149.9130  133.3420  156.9656 H   0  0  0  0  0  0  0  0  0  0  0  0
  151.4575  133.3158  156.1021 H   0  0  0  0  0  0  0  0  0  0  0  0
  149.9423  133.1265  155.2089 H   0  0  0  0  0  0  0  0  0  0  0  0
  1 22  1  0  0  0  0
  1 23  1  0  0  0  0
  1 24  1  0  0  0  0
  1  2  1  0  0  0  0
  2  3  1  0  0  0  0
  2 20  2  0  0  0  0
  3 25  1  0  0  0  0
  3  4  1  0  0  0  0
  4 19  1  0  0  0  0
  4  5  2  0  0  0  0
  5  6  1  0  0  0  0
  6  8  1  0  0  0  0
  6  7  2  0  0  0  0
  8  9  1  0  0  0  0
  8 26  1  0  0  0  0
  9 10  1  0  0  0  0
  9 27  1  0  0  0  0
  9 28  1  0  0  0  0
 10 11  1  0  0  0  0
 10 29  1  0  0  0  0
 10 30  1  0  0  0  0
 11 12  1  0  0  0  0
 12 17  1  0  0  0  0
 12 13  1  0  0  0  0
 12 31  1  0  0  0  0
 13 14  1  0  0  0  0
 13 32  1  0  0  0  0
 13 33  1  0  0  0  0
 14 15  1  0  0  0  0
 14 34  1  0  0  0  0
 14 35  1  0  0  0  0
 15 16  1  0  0  0  0
 15 36  1  0  0  0  0
 15 37  1  0  0  0  0
 16 17  1  0  0  0  0
 16 38  1  0  0  0  0
 16 39  1  0  0  0  0
 17 18  1  0  0  0  0
 17 40  1  0  0  0  0
 18 41  1  0  0  0  0
 18 42  1  0  0  0  0
 18 43  1  0  0  0  0
 19 20  1  0  0  0  0
 20 21  1  0  0  0  0
 21 44  1  0  0  0  0
 21 45  1  0  0  0  0
 21 46  1  0  0  0  0
M  END
> <s_m_source_file>
AV-unprocessed.smi

> <i_m_source_file_index>
910

> <i_lp_mmshare_version>
43012

> <i_f3d_flags>
0

> <s_epik_input>
W0NIM11jMW5jKG9jMVtDSDNdKVtOSF1DKD1PKVtOSF1bQ0gyXVtDSDJdT1tDQEBIXTJbQ0gyXVtDSDJdW0NIMl1bQ0gyXVtDQEhdMltDSDNd

> <s_epik_cmdline>
J2VwaWtfcHl0aG9uJywgJy1waCcsICc3LjAnLCAnLXRuJywgJzgnLCAnLW1hJywgJzIwMCcsICctbWV0YWxfYmluZGluZycsICctaW1hZScsICc8aW5maWxlLm1hZT4nLCAnLW9tYWUnLCAnPG91dGZpbGUubWFlPic=

> <r_lp_tautomer_probability>
0.107061

> <r_epik_Ionization_Penalty>
0.727192

> <r_epik_Ionization_Penalty_Charging>
0.726719

> <r_epik_Ionization_Penalty_Neutral>
0.000473387

> <r_epik_State_Penalty>
2.53712

> <r_epik_Charging_Adjusted_Penalty>
3.26383

> <i_epik_Tot_Q>
0

> <i_epik_Tot_abs_Q>
0

> <r_epik_Metal_State_Penalty>
3.71015

> <b_epik_Metal_Only>
0

> <s_lp_Force_Field>
OPLS_2005

> <r_lp_Energy>
29.7751

> <b_lp_Chiralities_Consistent>
1

> <s_lp_Variant>
AV-unprocessed.smi:910-11

> <Gold.Version>
5.8.1

> <Gold.Id.Protein>
6NUR|6NUR_protein|mol2

> <Gold.PLP.Fitness>
47.9171

> <Gold.PLP.PLP>
-43.9105

> <Gold.PLP.part.hbond>
-2.4434

> <Gold.PLP.part.metal>
0.0000

> <Gold.PLP.part.buried>
-7.4637

> <Gold.PLP.part.nonpolar>
-34.0017

> <Gold.PLP.part.repulsive>
0.2313

> <Gold.PLP.ligand.clash>
0.0000

> <Gold.PLP.ligand.torsion>
1.0915

> <Gold.PLP.Chemscore.Hbond>
2.0000

> <Gold.PLP.Chemscore.CHOScore>
0.0000

> <Gold.PLP.Chemscore.Metal>
0.0000

> <Gold.Chemscore.Hbonds>
donor molecule, donor type, donor heavy atom, donor atom, acceptor molecule, acceptor atom, score
      P1  H  7989  7998       L1     7  1.00
      P1  H 10752 10764       L1    19  0.86

> <Gold.PLP.Chemscore.Internal.Correction>
0.1896

> <Gold.Rescore>
     Score         DG    S(hbond)    S(metal)    S(lipo)     H(rot)  DE(clash)    DE(int)     intcor
     19.01     -20.23       1.95        0.00     106.72       1.66       0.01       1.21       ----

> <Gold.Chemscore.Fitness>
19.0133

> <Gold.Chemscore.DG>
-20.2336

> <Gold.Chemscore.ZeroCoef>
-5.4800

> <Gold.Chemscore.Hbond>
1.9494

> <Gold.Chemscore.Metal>
0.0000

> <Gold.Chemscore.Lipo>
106.7204

> <Gold.Chemscore.Internal_Hbond>
0.0000

> <Gold.Chemscore.DEClash>
0.0089

> <Gold.Chemscore.DEInternal>
1.2115

> <Gold.Chemscore.Rot>
1.6576

> <Gold.Chemscore.Internal.Correction>
   9.000000E+99

> <Gold.Chemscore.Hbonds>
donor molecule, donor type, donor heavy atom, donor atom, acceptor molecule, acceptor atom, score
      P1  H  7989  7998       L1     7  1.00
      P1  H 10752 10764       L1    19  0.46

> <Gold.Chemscore.Hbond.Weighted>
-6.5109

> <Gold.Chemscore.Metal.Weighted>
-0.0000

> <Gold.Chemscore.Lipo.Weighted>
-12.4863

> <Gold.Chemscore.Internal_Hbond.Weighted>
0.0000

> <Gold.Chemscore.DEClash.Weighted>
0.0089

> <Gold.Chemscore.DEInternal.Weighted>
1.2115

> <Gold.Chemscore.Rot.Weighted>
4.2436

> <Gold.Chemscore.Internal.Correction.Weighted>
   9.000000E+99

> <Gold.Protein.RotatedTorsions>
[ 6907 6896 6895 6894 ] final  168.15 input  -60.11 | X-H torsion
[ 7974 7965 7964 7962 ] final  -58.73 input  175.53 | X-H torsion
[ 8008 7997 7996 7995 ] final   29.27 input   59.86 | X-H torsion
[ 10167 10162 10161 10158 ] final -170.96 input  -65.29 | X-H torsion
[ 10718 10713 10712 10709 ] final    7.93 input   66.30 | X-H torsion
[ 10763 10752 10751 10750 ] final  -29.27 input  -60.55 | X-H torsion
[ 11005 11000 10999 10996 ] final  -36.92 input  -57.11 | X-H torsion

> <Gold.Protein.ActiveResidues>
 VAL166  LYS551  ARG553  GLY616  TRP617  ASP618  TYR619  PRO620  LYS621  CYS622 
 ASP623  PHE694  ASN695  SER759  ASP760  ASP761  ALA762  ILE779  LEU786  VAL792 
 PHE793  MET794  SER795  GLU796  ALA797  LYS798  CYS799  TRP800  GLU811  SER814 

> <Gold.Protein.RotatedAtoms>
  151.8521  133.3442  159.3676 H   0  0  0  0  0  0  0  0  0  0  0  0  # atno 6907 bound_to 6896
  150.7203  134.5289  159.5699 H   0  0  0  0  0  0  0  0  0  0  0  0  # atno 6908 bound_to 6896
  152.2784  134.7856  160.0452 H   0  0  0  0  0  0  0  0  0  0  0  0  # atno 6909 bound_to 6896
  145.8359  140.8449  143.0060 H   0  0  0  0  0  0  0  0  0  0  0  0  # atno 7974 bound_to 7965
  155.0718  140.3201  155.4628 H   0  0  0  0  0  0  0  0  0  0  0  0  # atno 8008 bound_to 7997
  156.2788  140.2110  156.5791 H   0  0  0  0  0  0  0  0  0  0  0  0  # atno 8009 bound_to 7997
  154.7048  140.0503  157.0481 H   0  0  0  0  0  0  0  0  0  0  0  0  # atno 8010 bound_to 7997
  139.5830  144.1380  152.1540 H   0  0  0  0  0  0  0  0  0  0  0  0  # atno 10167 bound_to 10162
  156.9441  130.5872  149.5654 H   0  0  0  0  0  0  0  0  0  0  0  0  # atno 10718 bound_to 10713
  153.7619  135.6918  153.4924 H   0  0  0  0  0  0  0  0  0  0  0  0  # atno 10763 bound_to 10752
  153.1932  135.4463  155.0174 H   0  0  0  0  0  0  0  0  0  0  0  0  # atno 10764 bound_to 10752
  154.8150  135.3394  154.7134 H   0  0  0  0  0  0  0  0  0  0  0  0  # atno 10765 bound_to 10752
  140.9912  133.7004  156.1853 H   0  0  0  0  0  0  0  0  0  0  0  0  # atno 11005 bound_to 11000
  144.6736  140.0740  143.7472 LP  0  0  0  0  0  0  0  0  0  0  0  0  # atno 17320 bound_to 7965
  145.9520  139.2740  143.1207 LP  0  0  0  0  0  0  0  0  0  0  0  0  # atno 17321 bound_to 7965
  140.0937  144.5598  150.7036 LP  0  0  0  0  0  0  0  0  0  0  0  0  # atno 17342 bound_to 10162
  140.7106  143.2502  151.4592 LP  0  0  0  0  0  0  0  0  0  0  0  0  # atno 17343 bound_to 10162
  156.0391  130.5476  150.8727 LP  0  0  0  0  0  0  0  0  0  0  0  0  # atno 17370 bound_to 10713
  157.5765  131.0946  150.9337 LP  0  0  0  0  0  0  0  0  0  0  0  0  # atno 17371 bound_to 10713
  140.7037  134.4536  157.5585 LP  0  0  0  0  0  0  0  0  0  0  0  0  # atno 17394 bound_to 11000
  139.8993  134.8594  156.1965 LP  0  0  0  0  0  0  0  0  0  0  0  0  # atno 17395 bound_to 11000

$$$$
