AV-unprocessed.smi:1566|AV-procd|sdf|6304|dock3
  -GOLD-   22720 6503D 1   1.00000     0.00000
 Structure written by MMmdl.
 42 43  0  0  0  0  0  0  0  0  1 V2000
  145.2616  136.7804  151.6811 C   0  0  0  0  0  0  0  0  0  0  0  0
  145.9598  138.1384  151.5302 C   0  0  0  0  0  0  0  0  0  0  0  0
  147.2624  138.1441  152.1857 N   0  0  0  0  0  0  0  0  0  0  0  0
  147.6392  139.0029  153.1436 C   0  0  0  0  0  0  0  0  0  0  0  0
  146.9087  139.8879  153.5890 O   0  0  0  0  0  0  0  0  0  0  0  0
  148.9088  138.7790  153.5233 N   0  0  0  0  0  0  0  0  0  0  0  0
  149.6766  139.4811  154.4904 C   0  0  0  0  0  0  0  0  0  0  0  0
  150.9888  139.1207  154.8789 C   0  0  0  0  0  0  0  0  0  0  0  0
  151.6550  139.9091  155.8366 C   0  0  0  0  0  0  0  0  0  0  0  0
  150.9939  141.0332  156.3721 C   0  0  0  0  0  0  0  0  0  0  0  0
  151.6542  141.8194  157.3266 N   0  0  0  0  0  0  0  0  0  0  0  0
  150.8803  142.9790  157.7498 C   0  0  0  0  0  0  0  0  0  0  0  0
  151.7109  143.8768  158.6884 C   0  0  2  0  0  0  0  0  0  0  0  0
  152.7929  144.6920  157.9581 C   0  0  0  0  0  0  0  0  0  0  0  0
  152.2533  143.1001  159.7606 O   0  0  0  0  0  0  0  0  0  0  0  0
  153.0293  141.9724  159.3530 C   0  0  1  0  0  0  0  0  0  0  0  0
  153.5116  141.2460  160.6127 C   0  0  0  0  0  0  0  0  0  0  0  0
  152.1744  141.0602  158.4553 C   0  0  0  0  0  0  0  0  0  0  0  0
  149.7445  141.3926  155.9934 N   0  0  0  0  0  0  0  0  0  0  0  0
  149.1127  140.6346  155.0730 C   0  0  0  0  0  0  0  0  0  0  0  0
  144.2797  136.7954  151.2078 H   0  0  0  0  0  0  0  0  0  0  0  0
  145.1204  136.5244  152.7316 H   0  0  0  0  0  0  0  0  0  0  0  0
  145.8405  135.9821  151.2157 H   0  0  0  0  0  0  0  0  0  0  0  0
  146.0632  138.3969  150.4752 H   0  0  0  0  0  0  0  0  0  0  0  0
  145.3471  138.9185  151.9824 H   0  0  0  0  0  0  0  0  0  0  0  0
  147.9292  137.4512  151.8786 H   0  0  0  0  0  0  0  0  0  0  0  0
  149.4075  138.0689  153.0076 H   0  0  0  0  0  0  0  0  0  0  0  0
  151.4992  138.2699  154.4550 H   0  0  0  0  0  0  0  0  0  0  0  0
  152.6566  139.6550  156.1515 H   0  0  0  0  0  0  0  0  0  0  0  0
  150.5458  143.5454  156.8797 H   0  0  0  0  0  0  0  0  0  0  0  0
  149.9844  142.6394  158.2719 H   0  0  0  0  0  0  0  0  0  0  0  0
  151.0313  144.5955  159.1464 H   0  0  0  0  0  0  0  0  0  0  0  0
  152.3414  145.3643  157.2281 H   0  0  0  0  0  0  0  0  0  0  0  0
  153.4969  144.0580  157.4199 H   0  0  0  0  0  0  0  0  0  0  0  0
  153.3607  145.3018  158.6610 H   0  0  0  0  0  0  0  0  0  0  0  0
  153.9068  142.3106  158.8013 H   0  0  0  0  0  0  0  0  0  0  0  0
  154.1200  140.3786  160.3560 H   0  0  0  0  0  0  0  0  0  0  0  0
  152.6716  140.8998  161.2156 H   0  0  0  0  0  0  0  0  0  0  0  0
  154.1186  141.9053  161.2337 H   0  0  0  0  0  0  0  0  0  0  0  0
  151.3470  140.6403  159.0294 H   0  0  0  0  0  0  0  0  0  0  0  0
  152.7724  140.2236  158.0917 H   0  0  0  0  0  0  0  0  0  0  0  0
  148.1193  140.9582  154.7980 H   0  0  0  0  0  0  0  0  0  0  0  0
  1  2  1  0  0  0  0
  1 21  1  0  0  0  0
  1 22  1  0  0  0  0
  1 23  1  0  0  0  0
  2  3  1  0  0  0  0
  2 24  1  0  0  0  0
  2 25  1  0  0  0  0
  3  4  1  0  0  0  0
  3 26  1  0  0  0  0
  4  5  2  0  0  0  0
  4  6  1  0  0  0  0
  6  7  1  0  0  0  0
  6 27  1  0  0  0  0
  7 20  1  0  0  0  0
  7  8  2  0  0  0  0
  8  9  1  0  0  0  0
  8 28  1  0  0  0  0
  9 10  2  0  0  0  0
  9 29  1  0  0  0  0
 10 11  1  0  0  0  0
 10 19  1  0  0  0  0
 11 18  1  0  0  0  0
 11 12  1  0  0  0  0
 12 13  1  0  0  0  0
 12 30  1  0  0  0  0
 12 31  1  0  0  0  0
 13 14  1  0  0  0  0
 13 15  1  0  0  0  0
 13 32  1  0  0  0  0
 14 33  1  0  0  0  0
 14 34  1  0  0  0  0
 14 35  1  0  0  0  0
 15 16  1  0  0  0  0
 16 17  1  0  0  0  0
 16 18  1  0  0  0  0
 16 36  1  0  0  0  0
 17 37  1  0  0  0  0
 17 38  1  0  0  0  0
 17 39  1  0  0  0  0
 18 40  1  0  0  0  0
 18 41  1  0  0  0  0
 19 20  2  0  0  0  0
 20 42  1  0  0  0  0
M  END
> <s_m_source_file>
AV-unprocessed.smi

> <i_m_source_file_index>
1566

> <i_lp_mmshare_version>
43012

> <i_f3d_flags>
0

> <s_epik_input>
W0NIM11bQ0gyXVtOSF1DKD1PKVtOSF1jMVtjSF1bY0hdYyhuW2NIXTEpTjJbQ0gyXVtDQEBIXShbQ0gzXSlPW0NAQEhdKFtDSDNdKVtDSDJdMg==

> <s_epik_cmdline>
J2VwaWtfcHl0aG9uJywgJy1waCcsICc3LjAnLCAnLXRuJywgJzgnLCAnLW1hJywgJzIwMCcsICctbWV0YWxfYmluZGluZycsICctaW1hZScsICc8aW5maWxlLm1hZT4nLCAnLW9tYWUnLCAnPG91dGZpbGUubWFlPic=

> <r_lp_tautomer_probability>
1

> <r_epik_Ionization_Penalty>
0.0027066

> <r_epik_Ionization_Penalty_Charging>
0

> <r_epik_Ionization_Penalty_Neutral>
0.0027066

> <r_epik_State_Penalty>
0.00185803

> <r_epik_Charging_Adjusted_Penalty>
0.00185803

> <i_epik_Tot_Q>
0

> <i_epik_Tot_abs_Q>
0

> <r_epik_Metal_State_Penalty>
-0

> <b_epik_Metal_Only>
0

> <s_lp_Force_Field>
OPLS_2005

> <r_lp_Energy>
23.2007

> <b_lp_Chiralities_Consistent>
1

> <s_lp_Variant>
AV-unprocessed.smi:1566-2

> <Gold.Version>
5.8.1

> <Gold.Id.Protein>
6NUR|6NUR_protein|mol2

> <Gold.PLP.Fitness>
44.9676

> <Gold.PLP.PLP>
-40.5790

> <Gold.PLP.part.hbond>
-3.5901

> <Gold.PLP.part.metal>
0.0000

> <Gold.PLP.part.buried>
1.4821

> <Gold.PLP.part.nonpolar>
-39.8333

> <Gold.PLP.part.repulsive>
0.4453

> <Gold.PLP.ligand.clash>
0.0000

> <Gold.PLP.ligand.torsion>
0.0697

> <Gold.PLP.Chemscore.Hbond>
1.4766

> <Gold.PLP.Chemscore.CHOScore>
0.0000

> <Gold.PLP.Chemscore.Metal>
0.0000

> <Gold.Chemscore.Hbonds>
donor molecule, donor type, donor heavy atom, donor atom, acceptor molecule, acceptor atom, score
      L1  H     3    26       P1  7948  1.00
      L1  H     6    27       P1  7948  0.51

> <Gold.PLP.Chemscore.Internal.Correction>
0.0981

> <Gold.Rescore>
     Score         DG    S(hbond)    S(metal)    S(lipo)     H(rot)  DE(clash)    DE(int)     intcor
     17.37     -20.10       1.74        0.00     101.30       1.19       1.23       1.51       ----

> <Gold.Chemscore.Fitness>
17.3672

> <Gold.Chemscore.DG>
-20.0982

> <Gold.Chemscore.ZeroCoef>
-5.4800

> <Gold.Chemscore.Hbond>
1.7382

> <Gold.Chemscore.Metal>
0.0000

> <Gold.Chemscore.Lipo>
101.2998

> <Gold.Chemscore.Internal_Hbond>
0.0000

> <Gold.Chemscore.DEClash>
1.2252

> <Gold.Chemscore.DEInternal>
1.5058

> <Gold.Chemscore.Rot>
1.1873

> <Gold.Chemscore.Internal.Correction>
   9.000000E+99

> <Gold.Chemscore.Hbonds>
donor molecule, donor type, donor heavy atom, donor atom, acceptor molecule, acceptor atom, score
      L1  H     3    26       P1  7948  0.97
      L1  H     6    27       P1  7948  0.48

> <Gold.Chemscore.Hbond.Weighted>
-5.8057

> <Gold.Chemscore.Metal.Weighted>
-0.0000

> <Gold.Chemscore.Lipo.Weighted>
-11.8521

> <Gold.Chemscore.Internal_Hbond.Weighted>
0.0000

> <Gold.Chemscore.DEClash.Weighted>
1.2252

> <Gold.Chemscore.DEInternal.Weighted>
1.5058

> <Gold.Chemscore.Rot.Weighted>
3.0396

> <Gold.Chemscore.Internal.Correction.Weighted>
   9.000000E+99

> <Gold.Protein.RotatedTorsions>
[ 6907 6896 6895 6894 ] final -106.22 input  -60.11 | X-H torsion
[ 7974 7965 7964 7962 ] final -118.00 input  175.53 | X-H torsion
[ 8008 7997 7996 7995 ] final -168.83 input   59.86 | X-H torsion
[ 10167 10162 10161 10158 ] final -100.06 input  -65.29 | X-H torsion
[ 10718 10713 10712 10709 ] final  151.45 input   66.30 | X-H torsion
[ 10763 10752 10751 10750 ] final  -39.64 input  -60.55 | X-H torsion
[ 11005 11000 10999 10996 ] final   -1.37 input  -57.11 | X-H torsion

> <Gold.Protein.ActiveResidues>
 VAL166  LYS551  ARG553  GLY616  TRP617  ASP618  TYR619  PRO620  LYS621  CYS622 
 ASP623  PHE694  ASN695  SER759  ASP760  ASP761  ALA762  ILE779  LEU786  VAL792 
 PHE793  MET794  SER795  GLU796  ALA797  LYS798  CYS799  TRP800  GLU811  SER814 

> <Gold.Protein.RotatedAtoms>
  150.7378  134.0009  159.3637 H   0  0  0  0  0  0  0  0  0  0  0  0  # atno 6907 bound_to 6896
  151.7962  135.0719  160.0403 H   0  0  0  0  0  0  0  0  0  0  0  0  # atno 6908 bound_to 6896
  152.3173  133.5779  159.5757 H   0  0  0  0  0  0  0  0  0  0  0  0  # atno 6909 bound_to 6896
  145.0788  140.8411  143.4051 H   0  0  0  0  0  0  0  0  0  0  0  0  # atno 7974 bound_to 7965
  155.8968  140.1034  157.1379 H   0  0  0  0  0  0  0  0  0  0  0  0  # atno 8008 bound_to 7997
  154.4021  140.1300  156.4449 H   0  0  0  0  0  0  0  0  0  0  0  0  # atno 8009 bound_to 7997
  155.7470  140.3466  155.5134 H   0  0  0  0  0  0  0  0  0  0  0  0  # atno 8010 bound_to 7997
  140.2559  143.3441  152.0671 H   0  0  0  0  0  0  0  0  0  0  0  0  # atno 10167 bound_to 10162
  157.2705  131.0816  151.1603 H   0  0  0  0  0  0  0  0  0  0  0  0  # atno 10718 bound_to 10713
  153.9328  135.6770  153.4745 H   0  0  0  0  0  0  0  0  0  0  0  0  # atno 10763 bound_to 10752
  153.0971  135.4846  154.8795 H   0  0  0  0  0  0  0  0  0  0  0  0  # atno 10764 bound_to 10752
  154.7419  135.3163  154.8671 H   0  0  0  0  0  0  0  0  0  0  0  0  # atno 10765 bound_to 10752
  140.6466  133.9442  155.8356 H   0  0  0  0  0  0  0  0  0  0  0  0  # atno 11005 bound_to 11000
  145.1203  139.2698  143.5592 LP  0  0  0  0  0  0  0  0  0  0  0  0  # atno 17320 bound_to 7965
  146.3530  140.0825  142.8617 LP  0  0  0  0  0  0  0  0  0  0  0  0  # atno 17321 bound_to 7965
  139.5032  144.6750  151.6151 LP  0  0  0  0  0  0  0  0  0  0  0  0  # atno 17342 bound_to 10162
  140.6004  143.9620  150.6382 LP  0  0  0  0  0  0  0  0  0  0  0  0  # atno 17343 bound_to 10162
  157.3076  130.6874  149.6198 LP  0  0  0  0  0  0  0  0  0  0  0  0  # atno 17370 bound_to 10713
  155.9663  130.4373  150.5170 LP  0  0  0  0  0  0  0  0  0  0  0  0  # atno 17371 bound_to 10713
  141.0568  134.0405  157.3712 LP  0  0  0  0  0  0  0  0  0  0  0  0  # atno 17394 bound_to 11000
  139.9061  135.0179  156.7490 LP  0  0  0  0  0  0  0  0  0  0  0  0  # atno 17395 bound_to 11000

$$$$
