AV-unprocessed.smi:928|AV-procd|sdf|4194|dock5
  -GOLD-   22720 2103D 1   1.00000     0.00000
 Structure written by MMmdl.
 43 44  0  0  0  0  0  0  0  0  1 V2000
  150.0473  142.2271  157.3939 C   0  0  0  0  0  0  0  0  0  0  0  0
  150.8086  141.6154  156.2130 C   0  0  0  0  0  0  0  0  0  0  0  0
  149.9365  140.8200  155.2986 C   0  0  0  0  0  0  0  0  0  0  0  0
  150.0568  139.4917  154.9722 C   0  0  0  0  0  0  0  0  0  0  0  0
  149.0761  139.0350  154.0892 N   0  0  0  0  0  0  0  0  0  0  0  0
  148.2189  139.9958  153.7378 C   0  0  0  0  0  0  0  0  0  0  0  0
  147.0469  139.7632  152.8394 C   0  0  0  0  0  0  0  0  0  0  0  0
  146.0962  138.6507  153.3213 C   0  0  0  0  0  0  0  0  0  0  0  0
  146.4673  137.3360  152.8047 N   0  0  0  0  0  0  0  0  0  0  0  0
  145.6618  136.2658  152.7511 C   0  0  0  0  0  0  0  0  0  0  0  0
  144.4992  136.2530  153.1546 O   0  0  0  0  0  0  0  0  0  0  0  0
  146.2758  135.2149  152.1913 N   0  0  0  0  0  0  0  0  0  0  0  0
  145.6709  133.9074  151.9459 C   0  0  1  0  0  0  0  0  0  0  0  0
  144.2874  134.1566  151.3085 C   0  0  0  0  0  0  0  0  0  0  0  0
  143.6194  132.8627  150.8243 C   0  0  0  0  0  0  0  0  0  0  0  0
  144.5292  132.1170  149.8409 C   0  0  0  0  0  0  0  0  0  0  0  0
  145.8788  131.7991  150.4961 C   0  0  0  0  0  0  0  0  0  0  0  0
  146.5822  133.0686  151.0146 C   0  0  2  0  0  0  0  0  0  0  0  0
  147.7280  132.6422  151.7245 O   0  0  0  0  0  0  0  0  0  0  0  0
  148.5713  141.5479  154.4916 S   0  0  0  0  0  0  0  0  0  0  0  0
  150.7183  142.8014  158.0329 H   0  0  0  0  0  0  0  0  0  0  0  0
  149.5839  141.4546  158.0083 H   0  0  0  0  0  0  0  0  0  0  0  0
  149.2603  142.8979  157.0489 H   0  0  0  0  0  0  0  0  0  0  0  0
  151.2958  142.4116  155.6491 H   0  0  0  0  0  0  0  0  0  0  0  0
  151.6102  140.9799  156.5899 H   0  0  0  0  0  0  0  0  0  0  0  0
  150.8067  138.7985  155.3235 H   0  0  0  0  0  0  0  0  0  0  0  0
  146.4981  140.7002  152.7401 H   0  0  0  0  0  0  0  0  0  0  0  0
  147.4180  139.5199  151.8433 H   0  0  0  0  0  0  0  0  0  0  0  0
  146.1216  138.6000  154.4099 H   0  0  0  0  0  0  0  0  0  0  0  0
  145.0670  138.8960  153.0535 H   0  0  0  0  0  0  0  0  0  0  0  0
  147.4059  137.2393  152.4460 H   0  0  0  0  0  0  0  0  0  0  0  0
  147.2328  135.3314  151.8920 H   0  0  0  0  0  0  0  0  0  0  0  0
  145.5156  133.3689  152.8833 H   0  0  0  0  0  0  0  0  0  0  0  0
  143.6352  134.6603  152.0232 H   0  0  0  0  0  0  0  0  0  0  0  0
  144.3906  134.8342  150.4593 H   0  0  0  0  0  0  0  0  0  0  0  0
  143.3935  132.2226  151.6783 H   0  0  0  0  0  0  0  0  0  0  0  0
  142.6661  133.0934  150.3482 H   0  0  0  0  0  0  0  0  0  0  0  0
  144.0482  131.1947  149.5138 H   0  0  0  0  0  0  0  0  0  0  0  0
  144.6847  132.7218  148.9465 H   0  0  0  0  0  0  0  0  0  0  0  0
  145.7148  131.1052  151.3222 H   0  0  0  0  0  0  0  0  0  0  0  0
  146.5211  131.2809  149.7831 H   0  0  0  0  0  0  0  0  0  0  0  0
  146.9003  133.6735  150.1641 H   0  0  0  0  0  0  0  0  0  0  0  0
  148.0949  131.8934  151.2792 H   0  0  0  0  0  0  0  0  0  0  0  0
  1  2  1  0  0  0  0
  1 21  1  0  0  0  0
  1 22  1  0  0  0  0
  1 23  1  0  0  0  0
  2  3  1  0  0  0  0
  2 24  1  0  0  0  0
  2 25  1  0  0  0  0
  3 20  1  0  0  0  0
  3  4  2  0  0  0  0
  4  5  1  0  0  0  0
  4 26  1  0  0  0  0
  5  6  2  0  0  0  0
  6  7  1  0  0  0  0
  6 20  1  0  0  0  0
  7  8  1  0  0  0  0
  7 27  1  0  0  0  0
  7 28  1  0  0  0  0
  8  9  1  0  0  0  0
  8 29  1  0  0  0  0
  8 30  1  0  0  0  0
  9 10  1  0  0  0  0
  9 31  1  0  0  0  0
 10 11  2  0  0  0  0
 10 12  1  0  0  0  0
 12 13  1  0  0  0  0
 12 32  1  0  0  0  0
 13 18  1  0  0  0  0
 13 14  1  0  0  0  0
 13 33  1  0  0  0  0
 14 15  1  0  0  0  0
 14 34  1  0  0  0  0
 14 35  1  0  0  0  0
 15 16  1  0  0  0  0
 15 36  1  0  0  0  0
 15 37  1  0  0  0  0
 16 17  1  0  0  0  0
 16 38  1  0  0  0  0
 16 39  1  0  0  0  0
 17 18  1  0  0  0  0
 17 40  1  0  0  0  0
 17 41  1  0  0  0  0
 18 19  1  0  0  0  0
 18 42  1  0  0  0  0
 19 43  1  0  0  0  0
M  END
> <s_m_source_file>
AV-unprocessed.smi

> <i_m_source_file_index>
928

> <i_lp_mmshare_version>
43012

> <i_f3d_flags>
0

> <s_epik_input>
W0NIM11bQ0gyXWMxW2NIXW5jKHMxKVtDSDJdW0NIMl1bTkhdQyg9TylbTkhdW0NAQEhdMltDSDJdW0NIMl1bQ0gyXVtDSDJdW0NASF0yW09IXQ==

> <s_epik_cmdline>
J2VwaWtfcHl0aG9uJywgJy1waCcsICc3LjAnLCAnLXRuJywgJzgnLCAnLW1hJywgJzIwMCcsICctbWV0YWxfYmluZGluZycsICctaW1hZScsICc8aW5maWxlLm1hZT4nLCAnLW9tYWUnLCAnPG91dGZpbGUubWFlPic=

> <r_epik_Ionization_Penalty>
0.000957396

> <r_epik_Ionization_Penalty_Charging>
0

> <r_epik_Ionization_Penalty_Neutral>
0.000957396

> <r_epik_State_Penalty>
0.000586538

> <r_epik_Charging_Adjusted_Penalty>
0.000586538

> <i_epik_Tot_Q>
0

> <i_epik_Tot_abs_Q>
0

> <r_epik_Metal_State_Penalty>
-0

> <b_epik_Metal_Only>
0

> <s_lp_Force_Field>
OPLS_2005

> <r_lp_Energy>
-1.18646

> <b_lp_Chiralities_Consistent>
1

> <s_lp_Variant>
AV-unprocessed.smi:928-4

> <Gold.Version>
5.8.1

> <Gold.Id.Protein>
6NUR|6NUR_protein|mol2

> <Gold.PLP.Fitness>
46.0603

> <Gold.PLP.PLP>
-37.9888

> <Gold.PLP.part.hbond>
-2.8768

> <Gold.PLP.part.metal>
0.0000

> <Gold.PLP.part.buried>
-3.9216

> <Gold.PLP.part.nonpolar>
-31.3062

> <Gold.PLP.part.repulsive>
0.3087

> <Gold.PLP.ligand.clash>
0.0000

> <Gold.PLP.ligand.torsion>
0.4783

> <Gold.PLP.Chemscore.Hbond>
3.0000

> <Gold.PLP.Chemscore.CHOScore>
0.0000

> <Gold.PLP.Chemscore.Metal>
0.0000

> <Gold.Chemscore.Hbonds>
donor molecule, donor type, donor heavy atom, donor atom, acceptor molecule, acceptor atom, score
      L1  H     9    31       P1  7948  1.00
      L1  H    12    32       P1  7948  1.00
      L1  H    19    43       P1 10747  1.00

> <Gold.PLP.Chemscore.Internal.Correction>
0.0281

> <Gold.Rescore>
     Score         DG    S(hbond)    S(metal)    S(lipo)     H(rot)  DE(clash)    DE(int)     intcor
     20.29     -21.11       2.91        0.00      99.01       2.21       0.47       0.35       ----

> <Gold.Chemscore.Fitness>
20.2932

> <Gold.Chemscore.DG>
-21.1130

> <Gold.Chemscore.ZeroCoef>
-5.4800

> <Gold.Chemscore.Hbond>
2.9050

> <Gold.Chemscore.Metal>
0.0000

> <Gold.Chemscore.Lipo>
99.0060

> <Gold.Chemscore.Internal_Hbond>
0.0000

> <Gold.Chemscore.DEClash>
0.4690

> <Gold.Chemscore.DEInternal>
0.3508

> <Gold.Chemscore.Rot>
2.2084

> <Gold.Chemscore.Internal.Correction>
   9.000000E+99

> <Gold.Chemscore.Hbonds>
donor molecule, donor type, donor heavy atom, donor atom, acceptor molecule, acceptor atom, score
      L1  H     9    31       P1  7948  0.98
      L1  H    12    32       P1  7948  0.98
      L1  H    19    43       P1 10747  1.00

> <Gold.Chemscore.Hbond.Weighted>
-9.7029

> <Gold.Chemscore.Metal.Weighted>
-0.0000

> <Gold.Chemscore.Lipo.Weighted>
-11.5837

> <Gold.Chemscore.Internal_Hbond.Weighted>
0.0000

> <Gold.Chemscore.DEClash.Weighted>
0.4690

> <Gold.Chemscore.DEInternal.Weighted>
0.3508

> <Gold.Chemscore.Rot.Weighted>
5.6535

> <Gold.Chemscore.Internal.Correction.Weighted>
   9.000000E+99

> <Gold.Protein.RotatedTorsions>
[ 6907 6896 6895 6894 ] final  -96.62 input  -60.11 | X-H torsion
[ 7974 7965 7964 7962 ] final -113.97 input  175.53 | X-H torsion
[ 8008 7997 7996 7995 ] final  131.13 input   59.86 | X-H torsion
[ 10167 10162 10161 10158 ] final  -24.56 input  -65.29 | X-H torsion
[ 10718 10713 10712 10709 ] final  -59.69 input   66.30 | X-H torsion
[ 10763 10752 10751 10750 ] final  -11.64 input  -60.55 | X-H torsion
[ 11005 11000 10999 10996 ] final  176.04 input  -57.11 | X-H torsion

> <Gold.Protein.ActiveResidues>
 VAL166  LYS551  ARG553  GLY616  TRP617  ASP618  TYR619  PRO620  LYS621  CYS622 
 ASP623  PHE694  ASN695  SER759  ASP760  ASP761  ALA762  ILE779  LEU786  VAL792 
 PHE793  MET794  SER795  GLU796  ALA797  LYS798  CYS799  TRP800  GLU811  SER814 

> <Gold.Protein.RotatedAtoms>
  150.6993  134.1475  159.4127 H   0  0  0  0  0  0  0  0  0  0  0  0  # atno 6907 bound_to 6896
  151.9458  135.0190  160.0548 H   0  0  0  0  0  0  0  0  0  0  0  0  # atno 6908 bound_to 6896
  152.2054  133.4836  159.5118 H   0  0  0  0  0  0  0  0  0  0  0  0  # atno 6909 bound_to 6896
  145.1257  140.8695  143.3788 H   0  0  0  0  0  0  0  0  0  0  0  0  # atno 7974 bound_to 7965
  156.2965  140.2579  156.2875 H   0  0  0  0  0  0  0  0  0  0  0  0  # atno 8008 bound_to 7997
  154.9542  140.0393  157.2177 H   0  0  0  0  0  0  0  0  0  0  0  0  # atno 8009 bound_to 7997
  154.8007  140.2827  155.5928 H   0  0  0  0  0  0  0  0  0  0  0  0  # atno 8010 bound_to 7997
  140.7288  143.4342  151.0755 H   0  0  0  0  0  0  0  0  0  0  0  0  # atno 10167 bound_to 10162
  156.1043  130.4182  150.0750 H   0  0  0  0  0  0  0  0  0  0  0  0  # atno 10718 bound_to 10713
  153.4867  135.7017  153.5907 H   0  0  0  0  0  0  0  0  0  0  0  0  # atno 10763 bound_to 10752
  153.4097  135.3851  155.2042 H   0  0  0  0  0  0  0  0  0  0  0  0  # atno 10764 bound_to 10752
  154.8719  135.3901  154.4323 H   0  0  0  0  0  0  0  0  0  0  0  0  # atno 10765 bound_to 10752
  140.3688  134.7048  157.4379 H   0  0  0  0  0  0  0  0  0  0  0  0  # atno 11005 bound_to 11000
  145.0691  139.3045  143.5841 LP  0  0  0  0  0  0  0  0  0  0  0  0  # atno 17320 bound_to 7965
  146.3518  140.0160  142.8663 LP  0  0  0  0  0  0  0  0  0  0  0  0  # atno 17321 bound_to 7965
  139.8003  143.8094  152.3162 LP  0  0  0  0  0  0  0  0  0  0  0  0  # atno 17342 bound_to 10162
  139.8108  144.7336  150.9700 LP  0  0  0  0  0  0  0  0  0  0  0  0  # atno 17343 bound_to 10162
  156.8730  130.9530  151.3607 LP  0  0  0  0  0  0  0  0  0  0  0  0  # atno 17370 bound_to 10713
  157.6218  130.8661  149.9122 LP  0  0  0  0  0  0  0  0  0  0  0  0  # atno 17371 bound_to 10713
  140.0568  134.6052  155.8795 LP  0  0  0  0  0  0  0  0  0  0  0  0  # atno 17394 bound_to 11000
  141.1961  133.6590  156.5675 LP  0  0  0  0  0  0  0  0  0  0  0  0  # atno 17395 bound_to 11000

$$$$
