AV-unprocessed.smi:2805|AV-procd|sdf|10814|dock5
  -GOLD-   2272015253D 1   1.00000     0.00000
 Structure written by MMmdl.
 43 44  0  0  0  0  0  0  0  0  1 V2000
  145.1450  132.1438  149.8529 C   0  0  0  0  0  0  0  0  0  0  0  0
  144.7583  133.1687  150.8981 C   0  0  0  0  0  0  0  0  0  0  0  0
  143.4366  133.2456  151.3771 C   0  0  0  0  0  0  0  0  0  0  0  0
  143.1384  134.2179  152.3518 C   0  0  0  0  0  0  0  0  0  0  0  0
  141.7383  134.3561  152.9121 C   0  0  0  0  0  0  0  0  0  0  0  0
  144.0593  135.0734  152.8450 N   0  0  0  0  0  0  0  0  0  0  0  0
  145.3355  135.0080  152.3913 C   0  0  0  0  0  0  0  0  0  0  0  0
  146.3772  135.8604  152.8432 N   0  0  0  0  0  0  0  0  0  0  0  0
  146.3090  136.8442  153.7569 C   0  0  0  0  0  0  0  0  0  0  0  0
  145.2938  137.1846  154.3652 O   0  0  0  0  0  0  0  0  0  0  0  0
  147.5063  137.4208  153.9344 N   0  0  0  0  0  0  0  0  0  0  0  0
  147.7963  138.5076  154.8685 C   0  0  1  0  0  0  0  0  0  0  0  0
  148.5014  137.9872  156.1387 C   0  0  0  0  0  0  0  0  0  0  0  0
  149.9329  137.5016  155.8513 C   0  0  0  0  0  0  0  0  0  0  0  0
  150.7851  138.5977  155.1765 C   0  0  1  0  0  0  0  0  0  0  0  0
  152.2121  138.1103  154.8654 C   0  0  0  0  0  0  0  0  0  0  0  0
  152.2036  137.1706  153.8116 O   0  0  0  0  0  0  0  0  0  0  0  0
  150.0859  139.0997  153.8972 C   0  0  0  0  0  0  0  0  0  0  0  0
  148.6524  139.5857  154.1780 C   0  0  0  0  0  0  0  0  0  0  0  0
  145.7187  134.0618  151.4145 C   0  0  0  0  0  0  0  0  0  0  0  0
  146.8488  138.9660  155.1575 H   0  0  0  0  0  0  0  0  0  0  0  0
  150.8601  139.4424  155.8632 H   0  0  0  0  0  0  0  0  0  0  0  0
  144.2720  131.8057  149.2939 H   0  0  0  0  0  0  0  0  0  0  0  0
  145.6054  131.2779  150.3286 H   0  0  0  0  0  0  0  0  0  0  0  0
  145.8575  132.5671  149.1445 H   0  0  0  0  0  0  0  0  0  0  0  0
  142.6725  132.5769  151.0079 H   0  0  0  0  0  0  0  0  0  0  0  0
  141.0311  133.7295  152.3680 H   0  0  0  0  0  0  0  0  0  0  0  0
  141.3996  135.3902  152.8408 H   0  0  0  0  0  0  0  0  0  0  0  0
  141.7207  134.0596  153.9612 H   0  0  0  0  0  0  0  0  0  0  0  0
  147.2817  135.6976  152.4265 H   0  0  0  0  0  0  0  0  0  0  0  0
  148.2826  137.0771  153.3885 H   0  0  0  0  0  0  0  0  0  0  0  0
  148.5412  138.7889  156.8771 H   0  0  0  0  0  0  0  0  0  0  0  0
  147.9214  137.1863  156.5986 H   0  0  0  0  0  0  0  0  0  0  0  0
  150.3964  137.1879  156.7869 H   0  0  0  0  0  0  0  0  0  0  0  0
  149.8990  136.6155  155.2161 H   0  0  0  0  0  0  0  0  0  0  0  0
  152.8596  138.9462  154.5989 H   0  0  0  0  0  0  0  0  0  0  0  0
  152.6501  137.6312  155.7418 H   0  0  0  0  0  0  0  0  0  0  0  0
  152.1075  137.6355  152.9944 H   0  0  0  0  0  0  0  0  0  0  0  0
  150.6614  139.9137  153.4554 H   0  0  0  0  0  0  0  0  0  0  0  0
  150.0638  138.3031  153.1525 H   0  0  0  0  0  0  0  0  0  0  0  0
  148.1780  139.9067  153.2498 H   0  0  0  0  0  0  0  0  0  0  0  0
  148.6957  140.4693  154.8160 H   0  0  0  0  0  0  0  0  0  0  0  0
  146.7395  134.0193  151.0628 H   0  0  0  0  0  0  0  0  0  0  0  0
  1  2  1  0  0  0  0
  1 23  1  0  0  0  0
  1 24  1  0  0  0  0
  1 25  1  0  0  0  0
  2 20  1  0  0  0  0
  2  3  2  0  0  0  0
  3  4  1  0  0  0  0
  3 26  1  0  0  0  0
  4  5  1  0  0  0  0
  4  6  2  0  0  0  0
  5 27  1  0  0  0  0
  5 28  1  0  0  0  0
  5 29  1  0  0  0  0
  6  7  1  0  0  0  0
  7  8  1  0  0  0  0
  7 20  2  0  0  0  0
  8  9  1  0  0  0  0
  8 30  1  0  0  0  0
  9 10  2  0  0  0  0
  9 11  1  0  0  0  0
 11 12  1  0  0  0  0
 11 31  1  0  0  0  0
 12 21  1  0  0  0  0
 12 19  1  0  0  0  0
 12 13  1  0  0  0  0
 13 14  1  0  0  0  0
 13 32  1  0  0  0  0
 13 33  1  0  0  0  0
 14 15  1  0  0  0  0
 14 34  1  0  0  0  0
 14 35  1  0  0  0  0
 15 22  1  0  0  0  0
 15 16  1  0  0  0  0
 15 18  1  0  0  0  0
 16 17  1  0  0  0  0
 16 36  1  0  0  0  0
 16 37  1  0  0  0  0
 17 38  1  0  0  0  0
 18 19  1  0  0  0  0
 18 39  1  0  0  0  0
 18 40  1  0  0  0  0
 19 41  1  0  0  0  0
 19 42  1  0  0  0  0
 20 43  1  0  0  0  0
M  END
> <s_m_source_file>
AV-unprocessed.smi

> <i_m_source_file_index>
2805

> <i_lp_mmshare_version>
43012

> <i_f3d_flags>
0

> <s_epik_input>
W0NIM11jMVtjSF1jKFtDSDNdKW5jKFtjSF0xKVtOSF1DKD1PKVtOSF1bQ0BIXTJbQ0gyXVtDSDJdW0NASF0oW0NIMl1bT0hdKVtDSDJdW0NIMl0y

> <s_epik_cmdline>
J2VwaWtfcHl0aG9uJywgJy1waCcsICc3LjAnLCAnLXRuJywgJzgnLCAnLW1hJywgJzIwMCcsICctbWV0YWxfYmluZGluZycsICctaW1hZScsICc8aW5maWxlLm1hZT4nLCAnLW9tYWUnLCAnPG91dGZpbGUubWFlPic=

> <r_lp_tautomer_probability>
1

> <r_epik_Ionization_Penalty>
0.000279533

> <r_epik_Ionization_Penalty_Charging>
0

> <r_epik_Ionization_Penalty_Neutral>
0.000279533

> <r_epik_State_Penalty>
-0

> <r_epik_Charging_Adjusted_Penalty>
0

> <i_epik_Tot_Q>
0

> <i_epik_Tot_abs_Q>
0

> <r_epik_Metal_State_Penalty>
-0

> <b_epik_Metal_Only>
0

> <s_lp_Force_Field>
OPLS_2005

> <r_lp_Energy>
9.89075

> <b_lp_Chiralities_Consistent>
1

> <s_lp_Variant>
AV-unprocessed.smi:2805-2

> <Gold.Version>
5.8.1

> <Gold.Id.Protein>
6NUR|6NUR_protein|mol2

> <Gold.PLP.Fitness>
39.5292

> <Gold.PLP.PLP>
-31.0124

> <Gold.PLP.part.hbond>
-4.0000

> <Gold.PLP.part.metal>
0.0000

> <Gold.PLP.part.buried>
-1.9001

> <Gold.PLP.part.nonpolar>
-24.5370

> <Gold.PLP.part.repulsive>
0.1619

> <Gold.PLP.ligand.clash>
0.0000

> <Gold.PLP.ligand.torsion>
0.2577

> <Gold.PLP.Chemscore.Hbond>
3.0078

> <Gold.PLP.Chemscore.CHOScore>
0.0000

> <Gold.PLP.Chemscore.Metal>
0.0000

> <Gold.Chemscore.Hbonds>
donor molecule, donor type, donor heavy atom, donor atom, acceptor molecule, acceptor atom, score
      L1  H     8    30       P1  7948  1.00
      L1  H    11    31       P1  7948  1.00
      P1  H 10752 10765       L1    17  1.00

> <Gold.PLP.Chemscore.Internal.Correction>
0.0088

> <Gold.Rescore>
     Score         DG    S(hbond)    S(metal)    S(lipo)     H(rot)  DE(clash)    DE(int)     intcor
     17.54     -19.14       2.83        0.00      74.39       1.75       0.00       1.60       ----

> <Gold.Chemscore.Fitness>
17.5414

> <Gold.Chemscore.DG>
-19.1371

> <Gold.Chemscore.ZeroCoef>
-5.4800

> <Gold.Chemscore.Hbond>
2.8281

> <Gold.Chemscore.Metal>
0.0000

> <Gold.Chemscore.Lipo>
74.3904

> <Gold.Chemscore.Internal_Hbond>
0.0000

> <Gold.Chemscore.DEClash>
0.0000

> <Gold.Chemscore.DEInternal>
1.5957

> <Gold.Chemscore.Rot>
1.7548

> <Gold.Chemscore.Internal.Correction>
   9.000000E+99

> <Gold.Chemscore.Hbonds>
donor molecule, donor type, donor heavy atom, donor atom, acceptor molecule, acceptor atom, score
      L1  H     8    30       P1  7948  0.98
      L1  H    11    31       P1  7948  0.95
      L1  H    17    38       P1  7949  0.01
      P1  H 10752 10765       L1    17  0.90

> <Gold.Chemscore.Hbond.Weighted>
-9.4458

> <Gold.Chemscore.Metal.Weighted>
-0.0000

> <Gold.Chemscore.Lipo.Weighted>
-8.7037

> <Gold.Chemscore.Internal_Hbond.Weighted>
0.0000

> <Gold.Chemscore.DEClash.Weighted>
0.0000

> <Gold.Chemscore.DEInternal.Weighted>
1.5957

> <Gold.Chemscore.Rot.Weighted>
4.4924

> <Gold.Chemscore.Internal.Correction.Weighted>
   9.000000E+99

> <Gold.Protein.RotatedTorsions>
[ 6907 6896 6895 6894 ] final  139.36 input  -60.11 | X-H torsion
[ 7974 7965 7964 7962 ] final  116.90 input  175.53 | X-H torsion
[ 8008 7997 7996 7995 ] final  -48.97 input   59.86 | X-H torsion
[ 10167 10162 10161 10158 ] final   80.97 input  -65.29 | X-H torsion
[ 10718 10713 10712 10709 ] final -166.58 input   66.30 | X-H torsion
[ 10763 10752 10751 10750 ] final  146.08 input  -60.55 | X-H torsion
[ 11005 11000 10999 10996 ] final   97.77 input  -57.11 | X-H torsion

> <Gold.Protein.ActiveResidues>
 VAL166  LYS551  ARG553  GLY616  TRP617  ASP618  TYR619  PRO620  LYS621  CYS622 
 ASP623  PHE694  ASN695  SER759  ASP760  ASP761  ALA762  ILE779  LEU786  VAL792 
 PHE793  MET794  SER795  GLU796  ALA797  LYS798  CYS799  TRP800  GLU811  SER814 

> <Gold.Protein.RotatedAtoms>
  152.2559  133.5255  159.5352 H   0  0  0  0  0  0  0  0  0  0  0  0  # atno 6907 bound_to 6896
  150.7108  134.0897  159.3936 H   0  0  0  0  0  0  0  0  0  0  0  0  # atno 6908 bound_to 6896
  151.8816  135.0451  160.0540 H   0  0  0  0  0  0  0  0  0  0  0  0  # atno 6909 bound_to 6896
  145.1740  139.3086  143.4453 H   0  0  0  0  0  0  0  0  0  0  0  0  # atno 7974 bound_to 7965
  154.4037  140.1308  156.4426 H   0  0  0  0  0  0  0  0  0  0  0  0  # atno 8008 bound_to 7997
  155.7444  140.3489  155.5100 H   0  0  0  0  0  0  0  0  0  0  0  0  # atno 8009 bound_to 7997
  155.9009  140.1019  157.1341 H   0  0  0  0  0  0  0  0  0  0  0  0  # atno 8010 bound_to 7997
  139.9442  144.6069  150.8223 H   0  0  0  0  0  0  0  0  0  0  0  0  # atno 10167 bound_to 10162
  156.6699  130.9080  151.3042 H   0  0  0  0  0  0  0  0  0  0  0  0  # atno 10718 bound_to 10713
  154.0159  135.2910  155.3387 H   0  0  0  0  0  0  0  0  0  0  0  0  # atno 10763 bound_to 10752
  154.7075  135.5163  153.8620 H   0  0  0  0  0  0  0  0  0  0  0  0  # atno 10764 bound_to 10752
  153.0702  135.6645  154.0386 H   0  0  0  0  0  0  0  0  0  0  0  0  # atno 10765 bound_to 10752
  139.8774  134.9017  156.4356 H   0  0  0  0  0  0  0  0  0  0  0  0  # atno 11005 bound_to 11000
  146.3464  140.1896  142.8589 LP  0  0  0  0  0  0  0  0  0  0  0  0  # atno 17320 bound_to 7965
  145.0204  140.8788  143.5170 LP  0  0  0  0  0  0  0  0  0  0  0  0  # atno 17321 bound_to 7965
  140.7602  143.3146  151.2764 LP  0  0  0  0  0  0  0  0  0  0  0  0  # atno 17342 bound_to 10162
  139.6680  144.0070  152.2735 LP  0  0  0  0  0  0  0  0  0  0  0  0  # atno 17343 bound_to 10162
  157.7081  130.9408  150.0996 LP  0  0  0  0  0  0  0  0  0  0  0  0  # atno 17370 bound_to 10713
  156.1946  130.3656  149.8865 LP  0  0  0  0  0  0  0  0  0  0  0  0  # atno 17371 bound_to 10713
  140.9036  133.7762  155.9708 LP  0  0  0  0  0  0  0  0  0  0  0  0  # atno 17394 bound_to 11000
  140.8624  134.2824  157.5228 LP  0  0  0  0  0  0  0  0  0  0  0  0  # atno 17395 bound_to 11000

$$$$
