AV-unprocessed.smi:2923|AV-procd|sdf|11212|dock4
  -GOLD-   2272016103D 1   1.00000     0.00000
 Structure written by MMmdl.
 46 48  0  0  0  0  0  0  0  0  1 V2000
  145.6061  137.8185  153.0814 C   0  0  0  0  0  0  0  0  0  0  0  0
  146.7688  138.3856  152.4159 N   0  0  0  0  0  0  0  0  0  0  0  0
  146.5472  138.9274  151.0843 C   0  0  0  0  0  0  0  0  0  0  0  0
  147.5058  139.2465  153.2397 C   0  0  0  0  0  0  0  0  0  0  0  0
  148.7213  138.8356  153.8327 C   0  0  0  0  0  0  0  0  0  0  0  0
  149.4204  139.7462  154.6479 C   0  0  0  0  0  0  0  0  0  0  0  0
  148.8857  141.0424  154.8390 C   0  0  0  0  0  0  0  0  0  0  0  0
  149.4856  142.0443  155.6483 N   0  0  0  0  0  0  0  0  0  0  0  0
  150.4363  141.9012  156.5875 C   0  0  0  0  0  0  0  0  0  0  0  0
  150.9617  140.8374  156.9146 O   0  0  0  0  0  0  0  0  0  0  0  0
  150.7712  143.0834  157.1213 N   0  0  0  0  0  0  0  0  0  0  0  0
  151.7970  143.2641  158.1437 C   0  0  2  0  0  0  0  0  0  0  0  0
  151.7886  142.1414  159.1931 C   0  0  1  0  0  0  0  0  0  0  0  0
  152.9672  141.2130  159.3077 C   0  0  0  0  0  0  0  0  0  0  0  0
  153.7986  141.8522  160.4237 C   0  0  0  0  0  0  0  0  0  0  0  0
  153.3800  143.2148  160.4492 O   0  0  0  0  0  0  0  0  0  0  0  0
  151.9707  143.2338  160.2361 C   0  0  1  0  0  0  0  0  0  0  0  0
  151.4340  144.2905  159.2473 C   0  0  0  0  0  0  0  0  0  0  0  0
  152.1912  145.6188  159.2076 C   0  0  0  0  0  0  0  0  0  0  0  0
  149.9491  144.6331  159.4376 C   0  0  0  0  0  0  0  0  0  0  0  0
  147.6574  141.3440  154.2148 C   0  0  0  0  0  0  0  0  0  0  0  0
  146.9827  140.4766  153.4311 N   0  0  0  0  0  0  0  0  0  0  0  0
  145.8702  137.4396  154.0695 H   0  0  0  0  0  0  0  0  0  0  0  0
  145.2076  136.9875  152.4985 H   0  0  0  0  0  0  0  0  0  0  0  0
  144.8182  138.5639  153.1957 H   0  0  0  0  0  0  0  0  0  0  0  0
  147.4764  139.3124  150.6625 H   0  0  0  0  0  0  0  0  0  0  0  0
  145.8161  139.7365  151.1078 H   0  0  0  0  0  0  0  0  0  0  0  0
  146.1730  138.1489  150.4190 H   0  0  0  0  0  0  0  0  0  0  0  0
  149.1115  137.8414  153.6718 H   0  0  0  0  0  0  0  0  0  0  0  0
  150.3388  139.4285  155.1167 H   0  0  0  0  0  0  0  0  0  0  0  0
  149.2095  142.9921  155.4377 H   0  0  0  0  0  0  0  0  0  0  0  0
  150.2955  143.9119  156.7951 H   0  0  0  0  0  0  0  0  0  0  0  0
  152.7980  143.4296  157.7383 H   0  0  0  0  0  0  0  0  0  0  0  0
  150.8147  141.6572  159.2861 H   0  0  0  0  0  0  0  0  0  0  0  0
  152.6756  140.1931  159.5594 H   0  0  0  0  0  0  0  0  0  0  0  0
  153.5295  141.1809  158.3738 H   0  0  0  0  0  0  0  0  0  0  0  0
  153.5666  141.3928  161.3856 H   0  0  0  0  0  0  0  0  0  0  0  0
  154.8718  141.7647  160.2533 H   0  0  0  0  0  0  0  0  0  0  0  0
  151.3883  143.0833  161.1463 H   0  0  0  0  0  0  0  0  0  0  0  0
  152.0843  146.1686  160.1429 H   0  0  0  0  0  0  0  0  0  0  0  0
  151.8306  146.2600  158.4027 H   0  0  0  0  0  0  0  0  0  0  0  0
  153.2582  145.4691  159.0414 H   0  0  0  0  0  0  0  0  0  0  0  0
  149.7817  145.1715  160.3709 H   0  0  0  0  0  0  0  0  0  0  0  0
  149.3278  143.7377  159.4709 H   0  0  0  0  0  0  0  0  0  0  0  0
  149.5724  145.2592  158.6280 H   0  0  0  0  0  0  0  0  0  0  0  0
  147.2020  142.3153  154.3421 H   0  0  0  0  0  0  0  0  0  0  0  0
  1  2  1  0  0  0  0
  1 23  1  0  0  0  0
  1 24  1  0  0  0  0
  1 25  1  0  0  0  0
  2  3  1  0  0  0  0
  2  4  1  0  0  0  0
  3 26  1  0  0  0  0
  3 27  1  0  0  0  0
  3 28  1  0  0  0  0
  4 22  1  0  0  0  0
  4  5  2  0  0  0  0
  5  6  1  0  0  0  0
  5 29  1  0  0  0  0
  6  7  2  0  0  0  0
  6 30  1  0  0  0  0
  7  8  1  0  0  0  0
  7 21  1  0  0  0  0
  8  9  1  0  0  0  0
  8 31  1  0  0  0  0
  9 10  2  0  0  0  0
  9 11  1  0  0  0  0
 11 12  1  0  0  0  0
 11 32  1  0  0  0  0
 12 18  1  0  0  0  0
 12 13  1  0  0  0  0
 12 33  1  0  0  0  0
 13 17  1  0  0  0  0
 13 14  1  0  0  0  0
 13 34  1  0  0  0  0
 14 15  1  0  0  0  0
 14 35  1  0  0  0  0
 14 36  1  0  0  0  0
 15 16  1  0  0  0  0
 15 37  1  0  0  0  0
 15 38  1  0  0  0  0
 16 17  1  0  0  0  0
 17 18  1  0  0  0  0
 17 39  1  0  0  0  0
 18 19  1  0  0  0  0
 18 20  1  0  0  0  0
 19 40  1  0  0  0  0
 19 41  1  0  0  0  0
 19 42  1  0  0  0  0
 20 43  1  0  0  0  0
 20 44  1  0  0  0  0
 20 45  1  0  0  0  0
 21 22  2  0  0  0  0
 21 46  1  0  0  0  0
M  END
> <s_m_source_file>
AV-unprocessed.smi

> <i_m_source_file_index>
2923

> <i_lp_mmshare_version>
43012

> <i_f3d_flags>
0

> <s_epik_input>
W0NIM11OKFtDSDNdKWMxW2NIXVtjSF1jKFtjSF1uMSlbTkhdQyg9TylbTkhdW0NASF0yQyhbQ0gzXSkoW0NIM10pW0NAQEhdKFtDQEhdMjMpT1tDSDJdW0NIMl0z

> <s_epik_cmdline>
J2VwaWtfcHl0aG9uJywgJy1waCcsICc3LjAnLCAnLXRuJywgJzgnLCAnLW1hJywgJzIwMCcsICctbWV0YWxfYmluZGluZycsICctaW1hZScsICc8aW5maWxlLm1hZT4nLCAnLW9tYWUnLCAnPG91dGZpbGUubWFlPic=

> <r_lp_tautomer_probability>
1

> <r_epik_Ionization_Penalty>
0.628785

> <r_epik_Ionization_Penalty_Charging>
0

> <r_epik_Ionization_Penalty_Neutral>
0.628785

> <r_epik_State_Penalty>
0.644286

> <r_epik_Charging_Adjusted_Penalty>
0.644286

> <i_epik_Tot_Q>
0

> <i_epik_Tot_abs_Q>
0

> <r_epik_Metal_State_Penalty>
0.308404

> <b_epik_Metal_Only>
0

> <s_lp_Force_Field>
OPLS_2005

> <r_lp_Energy>
42.6723

> <b_lp_Chiralities_Consistent>
1

> <s_lp_Variant>
AV-unprocessed.smi:2923-11

> <Gold.Version>
5.8.1

> <Gold.Id.Protein>
6NUR|6NUR_protein|mol2

> <Gold.PLP.Fitness>
47.6000

> <Gold.PLP.PLP>
-42.3755

> <Gold.PLP.part.hbond>
-2.0000

> <Gold.PLP.part.metal>
0.0000

> <Gold.PLP.part.buried>
1.0702

> <Gold.PLP.part.nonpolar>
-40.1803

> <Gold.PLP.part.repulsive>
0.6532

> <Gold.PLP.ligand.clash>
0.0000

> <Gold.PLP.ligand.torsion>
0.5803

> <Gold.PLP.Chemscore.Hbond>
2.0000

> <Gold.PLP.Chemscore.CHOScore>
0.0000

> <Gold.PLP.Chemscore.Metal>
0.0000

> <Gold.Chemscore.Hbonds>
donor molecule, donor type, donor heavy atom, donor atom, acceptor molecule, acceptor atom, score
      L1  H     8    31       P1  8028  1.00
      L1  H    11    32       P1  8028  1.00

> <Gold.PLP.Chemscore.Internal.Correction>
0.3851

> <Gold.Rescore>
     Score         DG    S(hbond)    S(metal)    S(lipo)     H(rot)  DE(clash)    DE(int)     intcor
     19.51     -23.55       1.97        0.00     124.37       1.19       0.97       3.07       ----

> <Gold.Chemscore.Fitness>
19.5094

> <Gold.Chemscore.DG>
-23.5511

> <Gold.Chemscore.ZeroCoef>
-5.4800

> <Gold.Chemscore.Hbond>
1.9688

> <Gold.Chemscore.Metal>
0.0000

> <Gold.Chemscore.Lipo>
124.3697

> <Gold.Chemscore.Internal_Hbond>
0.0000

> <Gold.Chemscore.DEClash>
0.9676

> <Gold.Chemscore.DEInternal>
3.0740

> <Gold.Chemscore.Rot>
1.1937

> <Gold.Chemscore.Internal.Correction>
   9.000000E+99

> <Gold.Chemscore.Hbonds>
donor molecule, donor type, donor heavy atom, donor atom, acceptor molecule, acceptor atom, score
      L1  H     8    31       P1  8028  1.00
      L1  H    11    32       P1  8028  0.93

> <Gold.Chemscore.Hbond.Weighted>
-6.5757

> <Gold.Chemscore.Metal.Weighted>
-0.0000

> <Gold.Chemscore.Lipo.Weighted>
-14.5513

> <Gold.Chemscore.Internal_Hbond.Weighted>
0.0000

> <Gold.Chemscore.DEClash.Weighted>
0.9676

> <Gold.Chemscore.DEInternal.Weighted>
3.0740

> <Gold.Chemscore.Rot.Weighted>
3.0559

> <Gold.Chemscore.Internal.Correction.Weighted>
   9.000000E+99

> <Gold.Protein.RotatedTorsions>
[ 6907 6896 6895 6894 ] final   79.24 input  -60.11 | X-H torsion
[ 7974 7965 7964 7962 ] final  -55.43 input  175.53 | X-H torsion
[ 8008 7997 7996 7995 ] final  -58.58 input   59.86 | X-H torsion
[ 10167 10162 10161 10158 ] final -165.71 input  -65.29 | X-H torsion
[ 10718 10713 10712 10709 ] final -168.68 input   66.30 | X-H torsion
[ 10763 10752 10751 10750 ] final  -89.63 input  -60.55 | X-H torsion
[ 11005 11000 10999 10996 ] final -143.15 input  -57.11 | X-H torsion

> <Gold.Protein.ActiveResidues>
 VAL166  LYS551  ARG553  GLY616  TRP617  ASP618  TYR619  PRO620  LYS621  CYS622 
 ASP623  PHE694  ASN695  SER759  ASP760  ASP761  ALA762  ILE779  LEU786  VAL792 
 PHE793  MET794  SER795  GLU796  ALA797  LYS798  CYS799  TRP800  GLU811  SER814 

> <Gold.Protein.RotatedAtoms>
  152.5191  134.3542  159.9261 H   0  0  0  0  0  0  0  0  0  0  0  0  # atno 6907 bound_to 6896
  151.3493  133.3925  159.2686 H   0  0  0  0  0  0  0  0  0  0  0  0  # atno 6908 bound_to 6896
  150.9740  134.9126  159.7863 H   0  0  0  0  0  0  0  0  0  0  0  0  # atno 6909 bound_to 6896
  145.8743  140.8192  142.9872 H   0  0  0  0  0  0  0  0  0  0  0  0  # atno 7974 bound_to 7965
  154.4315  140.1081  156.5980 H   0  0  0  0  0  0  0  0  0  0  0  0  # atno 8008 bound_to 7997
  155.5941  140.3492  155.4556 H   0  0  0  0  0  0  0  0  0  0  0  0  # atno 8009 bound_to 7997
  156.0223  140.1242  157.0333 H   0  0  0  0  0  0  0  0  0  0  0  0  # atno 8010 bound_to 7997
  139.6163  144.0712  152.1891 H   0  0  0  0  0  0  0  0  0  0  0  0  # atno 10167 bound_to 10162
  156.7005  130.9195  151.3079 H   0  0  0  0  0  0  0  0  0  0  0  0  # atno 10718 bound_to 10713
  154.6573  135.5334  153.7974 H   0  0  0  0  0  0  0  0  0  0  0  0  # atno 10763 bound_to 10752
  153.0421  135.6497  154.0926 H   0  0  0  0  0  0  0  0  0  0  0  0  # atno 10764 bound_to 10752
  154.0838  135.2945  155.3265 H   0  0  0  0  0  0  0  0  0  0  0  0  # atno 10765 bound_to 10752
  140.8154  134.2694  157.4923 H   0  0  0  0  0  0  0  0  0  0  0  0  # atno 11005 bound_to 11000
  144.6726  140.1287  143.7445 LP  0  0  0  0  0  0  0  0  0  0  0  0  # atno 17320 bound_to 7965
  145.9099  139.2481  143.1443 LP  0  0  0  0  0  0  0  0  0  0  0  0  # atno 17321 bound_to 7965
  140.0343  144.6056  150.7462 LP  0  0  0  0  0  0  0  0  0  0  0  0  # atno 17342 bound_to 10162
  140.7353  143.2739  151.3801 LP  0  0  0  0  0  0  0  0  0  0  0  0  # atno 17343 bound_to 10162
  157.6975  130.9297  150.0686 LP  0  0  0  0  0  0  0  0  0  0  0  0  # atno 17370 bound_to 10713
  156.1732  130.3647  149.9136 LP  0  0  0  0  0  0  0  0  0  0  0  0  # atno 17371 bound_to 10713
  139.8711  134.9506  156.4060 LP  0  0  0  0  0  0  0  0  0  0  0  0  # atno 17394 bound_to 11000
  140.9154  133.7682  155.9842 LP  0  0  0  0  0  0  0  0  0  0  0  0  # atno 17395 bound_to 11000

$$$$
