AV-unprocessed.smi:569|AV-procd|sdf|2959|dock3
  -GOLD-   2262023463D 1   1.00000     0.00000
 Structure written by MMmdl.
 37 38  0  0  0  0  0  0  0  0  1 V2000
  146.1940  142.5508  158.5861 C   0  0  0  0  0  0  0  0  0  0  0  0
  146.3120  142.2298  157.1357 C   0  0  0  0  0  0  0  0  0  0  0  0
  147.4815  142.1023  156.5043 N   0  0  0  0  0  0  0  0  0  0  0  0
  147.3317  141.7966  155.1470 C   0  0  0  0  0  0  0  0  0  0  0  0
  148.5452  141.6048  154.2825 C   0  0  0  0  0  0  0  0  0  0  0  0
  149.7859  141.3593  155.1443 C   0  0  0  0  0  0  0  0  0  0  0  0
  150.4636  140.3463  154.9728 O   0  0  0  0  0  0  0  0  0  0  0  0
  150.0745  142.2963  156.0617 N   0  0  0  0  0  0  0  0  0  0  0  0
  151.1843  142.2447  157.0072 C   0  0  2  0  0  0  0  0  0  0  0  0
  150.9182  141.1449  158.0505 C   0  0  0  0  0  0  0  0  0  0  0  0
  152.0335  141.0902  159.1065 C   0  0  0  0  0  0  0  0  0  0  0  0
  152.2258  142.4530  159.7988 C   0  0  1  0  0  0  0  0  0  0  0  0
  153.3437  142.3956  160.8495 C   0  0  0  0  0  0  0  0  0  0  0  0
  152.4907  143.5537  158.7531 C   0  0  0  0  0  0  0  0  0  0  0  0
  151.3780  143.6110  157.6937 C   0  0  0  0  0  0  0  0  0  0  0  0
  146.0183  141.7039  154.7570 C   0  0  0  0  0  0  0  0  0  0  0  0
  144.9239  141.9860  156.0827 S   0  0  0  0  0  0  0  0  0  0  0  0
  146.9380  141.9956  159.1578 H   0  0  0  0  0  0  0  0  0  0  0  0
  145.2028  142.2841  158.9530 H   0  0  0  0  0  0  0  0  0  0  0  0
  146.3517  143.6176  158.7451 H   0  0  0  0  0  0  0  0  0  0  0  0
  148.4006  140.7606  153.6072 H   0  0  0  0  0  0  0  0  0  0  0  0
  148.7195  142.4773  153.6516 H   0  0  0  0  0  0  0  0  0  0  0  0
  149.4609  143.0960  156.1249 H   0  0  0  0  0  0  0  0  0  0  0  0
  152.0995  141.9864  156.4707 H   0  0  0  0  0  0  0  0  0  0  0  0
  149.9621  141.3253  158.5441 H   0  0  0  0  0  0  0  0  0  0  0  0
  150.8328  140.1756  157.5575 H   0  0  0  0  0  0  0  0  0  0  0  0
  151.7965  140.3255  159.8469 H   0  0  0  0  0  0  0  0  0  0  0  0
  152.9664  140.7816  158.6324 H   0  0  0  0  0  0  0  0  0  0  0  0
  151.2989  142.6995  160.3191 H   0  0  0  0  0  0  0  0  0  0  0  0
  154.3028  142.1460  160.3947 H   0  0  0  0  0  0  0  0  0  0  0  0
  153.1298  141.6437  161.6099 H   0  0  0  0  0  0  0  0  0  0  0  0
  153.4553  143.3540  161.3572 H   0  0  0  0  0  0  0  0  0  0  0  0
  152.5746  144.5231  159.2453 H   0  0  0  0  0  0  0  0  0  0  0  0
  153.4481  143.3734  158.2623 H   0  0  0  0  0  0  0  0  0  0  0  0
  151.6195  144.3739  156.9527 H   0  0  0  0  0  0  0  0  0  0  0  0
  150.4451  143.9236  158.1653 H   0  0  0  0  0  0  0  0  0  0  0  0
  145.6307  141.4813  153.7737 H   0  0  0  0  0  0  0  0  0  0  0  0
  1  2  1  0  0  0  0
  1 18  1  0  0  0  0
  1 19  1  0  0  0  0
  1 20  1  0  0  0  0
  2 17  1  0  0  0  0
  2  3  2  0  0  0  0
  3  4  1  0  0  0  0
  4  5  1  0  0  0  0
  4 16  2  0  0  0  0
  5  6  1  0  0  0  0
  5 21  1  0  0  0  0
  5 22  1  0  0  0  0
  6  7  2  0  0  0  0
  6  8  1  0  0  0  0
  8  9  1  0  0  0  0
  8 23  1  0  0  0  0
  9 15  1  0  0  0  0
  9 10  1  0  0  0  0
  9 24  1  0  0  0  0
 10 11  1  0  0  0  0
 10 25  1  0  0  0  0
 10 26  1  0  0  0  0
 11 12  1  0  0  0  0
 11 27  1  0  0  0  0
 11 28  1  0  0  0  0
 12 13  1  0  0  0  0
 12 14  1  0  0  0  0
 12 29  1  0  0  0  0
 13 30  1  0  0  0  0
 13 31  1  0  0  0  0
 13 32  1  0  0  0  0
 14 15  1  0  0  0  0
 14 33  1  0  0  0  0
 14 34  1  0  0  0  0
 15 35  1  0  0  0  0
 15 36  1  0  0  0  0
 16 17  1  0  0  0  0
 16 37  1  0  0  0  0
M  END
> <s_m_source_file>
AV-unprocessed.smi

> <i_m_source_file_index>
569

> <i_lp_mmshare_version>
43012

> <i_f3d_flags>
0

> <s_epik_input>
W0NIM11jMW5jKFtjSF1zMSlbQ0gyXUMoPU8pW05IXVtDQEBIXTJbQ0gyXVtDSDJdW0NAQEhdKFtDSDNdKVtDSDJdW0NIMl0y

> <s_epik_cmdline>
J2VwaWtfcHl0aG9uJywgJy1waCcsICc3LjAnLCAnLXRuJywgJzgnLCAnLW1hJywgJzIwMCcsICctbWV0YWxfYmluZGluZycsICctaW1hZScsICc8aW5maWxlLm1hZT4nLCAnLW9tYWUnLCAnPG91dGZpbGUubWFlPic=

> <r_lp_tautomer_probability>
1

> <r_epik_Ionization_Penalty>
6.63234e-05

> <r_epik_Ionization_Penalty_Charging>
0

> <r_epik_Ionization_Penalty_Neutral>
6.63234e-05

> <r_epik_State_Penalty>
-0

> <r_epik_Charging_Adjusted_Penalty>
0

> <i_epik_Tot_Q>
0

> <i_epik_Tot_abs_Q>
0

> <r_epik_Metal_State_Penalty>
-0

> <b_epik_Metal_Only>
0

> <s_lp_Force_Field>
OPLS_2005

> <r_lp_Energy>
6.98926

> <b_lp_Chiralities_Consistent>
1

> <s_lp_Variant>
AV-unprocessed.smi:569-1

> <Gold.Version>
5.8.1

> <Gold.Id.Protein>
6NUR|6NUR_protein|mol2

> <Gold.PLP.Fitness>
44.0662

> <Gold.PLP.PLP>
-35.7957

> <Gold.PLP.part.hbond>
-2.0000

> <Gold.PLP.part.metal>
0.0000

> <Gold.PLP.part.buried>
-4.7644

> <Gold.PLP.part.nonpolar>
-30.4964

> <Gold.PLP.part.repulsive>
0.7767

> <Gold.PLP.ligand.clash>
0.0000

> <Gold.PLP.ligand.torsion>
0.3649

> <Gold.PLP.Chemscore.Hbond>
2.0000

> <Gold.PLP.Chemscore.CHOScore>
0.9973

> <Gold.PLP.Chemscore.Metal>
0.0000

> <Gold.Chemscore.Hbonds>
donor molecule, donor type, donor heavy atom, donor atom, acceptor molecule, acceptor atom, score
      L1  H     8    23       P1  8028  1.00
      P1  H  7989  7998       L1     7  1.00
      L1  C    16    37       P1 10175  1.00

> <Gold.PLP.Chemscore.Internal.Correction>
0.0083

> <Gold.Rescore>
     Score         DG    S(hbond)    S(metal)    S(lipo)     H(rot)  DE(clash)    DE(int)     intcor
     17.67     -18.14       1.69        0.00      87.46       1.26       0.02       0.45       ----

> <Gold.Chemscore.Fitness>
17.6665

> <Gold.Chemscore.DG>
-18.1362

> <Gold.Chemscore.ZeroCoef>
-5.4800

> <Gold.Chemscore.Hbond>
1.6927

> <Gold.Chemscore.Metal>
0.0000

> <Gold.Chemscore.Lipo>
87.4637

> <Gold.Chemscore.Internal_Hbond>
0.0000

> <Gold.Chemscore.DEClash>
0.0229

> <Gold.Chemscore.DEInternal>
0.4468

> <Gold.Chemscore.Rot>
1.2620

> <Gold.Chemscore.Internal.Correction>
   9.000000E+99

> <Gold.Chemscore.Hbonds>
donor molecule, donor type, donor heavy atom, donor atom, acceptor molecule, acceptor atom, score
      L1  H     8    23       P1  8028  0.98
      P1  H  7989  7998       L1     7  0.33

> <Gold.Chemscore.Hbond.Weighted>
-5.6536

> <Gold.Chemscore.Metal.Weighted>
-0.0000

> <Gold.Chemscore.Lipo.Weighted>
-10.2333

> <Gold.Chemscore.Internal_Hbond.Weighted>
0.0000

> <Gold.Chemscore.DEClash.Weighted>
0.0229

> <Gold.Chemscore.DEInternal.Weighted>
0.4468

> <Gold.Chemscore.Rot.Weighted>
3.2306

> <Gold.Chemscore.Internal.Correction.Weighted>
   9.000000E+99

> <Gold.Protein.RotatedTorsions>
[ 6907 6896 6895 6894 ] final  160.40 input  -60.11 | X-H torsion
[ 7974 7965 7964 7962 ] final  -33.56 input  175.53 | X-H torsion
[ 8008 7997 7996 7995 ] final   94.67 input   59.86 | X-H torsion
[ 10167 10162 10161 10158 ] final -141.63 input  -65.29 | X-H torsion
[ 10718 10713 10712 10709 ] final  -27.00 input   66.30 | X-H torsion
[ 10763 10752 10751 10750 ] final  140.56 input  -60.55 | X-H torsion
[ 11005 11000 10999 10996 ] final -155.09 input  -57.11 | X-H torsion

> <Gold.Protein.ActiveResidues>
 VAL166  LYS551  ARG553  GLY616  TRP617  ASP618  TYR619  PRO620  LYS621  CYS622 
 ASP623  PHE694  ASN695  SER759  ASP760  ASP761  ALA762  ILE779  LEU786  VAL792 
 PHE793  MET794  SER795  GLU796  ALA797  LYS798  CYS799  TRP800  GLU811  SER814 

> <Gold.Protein.RotatedAtoms>
  151.9712  133.3726  159.4071 H   0  0  0  0  0  0  0  0  0  0  0  0  # atno 6907 bound_to 6896
  150.6948  134.4138  159.5183 H   0  0  0  0  0  0  0  0  0  0  0  0  # atno 6908 bound_to 6896
  152.1842  134.8727  160.0574 H   0  0  0  0  0  0  0  0  0  0  0  0  # atno 6909 bound_to 6896
  146.0900  140.5931  142.8868 H   0  0  0  0  0  0  0  0  0  0  0  0  # atno 7974 bound_to 7965
  156.0605  140.3296  155.7456 H   0  0  0  0  0  0  0  0  0  0  0  0  # atno 8008 bound_to 7997
  155.5462  140.0606  157.2877 H   0  0  0  0  0  0  0  0  0  0  0  0  # atno 8009 bound_to 7997
  154.4479  140.1902  156.0628 H   0  0  0  0  0  0  0  0  0  0  0  0  # atno 8010 bound_to 7997
  139.8166  143.7630  152.2665 H   0  0  0  0  0  0  0  0  0  0  0  0  # atno 10167 bound_to 10162
  156.4439  130.4470  149.7034 H   0  0  0  0  0  0  0  0  0  0  0  0  # atno 10718 bound_to 10713
  153.9247  135.2997  155.3447 H   0  0  0  0  0  0  0  0  0  0  0  0  # atno 10763 bound_to 10752
  154.7558  135.4958  153.9374 H   0  0  0  0  0  0  0  0  0  0  0  0  # atno 10764 bound_to 10752
  153.1123  135.6762  153.9582 H   0  0  0  0  0  0  0  0  0  0  0  0  # atno 10765 bound_to 10752
  140.6902  134.4049  157.5220 H   0  0  0  0  0  0  0  0  0  0  0  0  # atno 11005 bound_to 11000
  144.7353  140.4792  143.6908 LP  0  0  0  0  0  0  0  0  0  0  0  0  # atno 17320 bound_to 7965
  145.6056  139.1508  143.3104 LP  0  0  0  0  0  0  0  0  0  0  0  0  # atno 17321 bound_to 7965
  139.7795  144.7449  151.0108 LP  0  0  0  0  0  0  0  0  0  0  0  0  # atno 17342 bound_to 10162
  140.7815  143.4557  151.0349 LP  0  0  0  0  0  0  0  0  0  0  0  0  # atno 17343 bound_to 10162
  156.3888  130.7617  151.2616 LP  0  0  0  0  0  0  0  0  0  0  0  0  # atno 17370 bound_to 10713
  157.7505  131.0274  150.4003 LP  0  0  0  0  0  0  0  0  0  0  0  0  # atno 17371 bound_to 10713
  139.8925  134.8752  156.2265 LP  0  0  0  0  0  0  0  0  0  0  0  0  # atno 17394 bound_to 11000
  141.0247  133.7021  156.1328 LP  0  0  0  0  0  0  0  0  0  0  0  0  # atno 17395 bound_to 11000

$$$$
