AV-unprocessed.smi:710|AV-procd|sdf|3462|dock8
  -GOLD-   22720 0453D 1   1.00000     0.00000
 Structure written by MMmdl.
 40 41  0  0  0  0  0  0  0  0  1 V2000
  150.0017  144.8669  159.6516 C   0  0  0  0  0  0  0  0  0  0  0  0
  151.1292  143.9548  160.0426 C   0  0  0  0  0  0  0  0  0  0  0  0
  151.5084  143.8958  161.3084 N   0  0  0  0  0  0  0  0  0  0  0  0
  152.5141  142.9981  161.3248 N   0  0  0  0  0  0  0  0  0  0  0  0
  153.1655  142.6826  162.5811 C   0  0  0  0  0  0  0  0  0  0  0  0
  152.7757  142.4943  160.0655 C   0  0  0  0  0  0  0  0  0  0  0  0
  153.8432  141.4759  159.8221 C   0  0  0  0  0  0  0  0  0  0  0  0
  151.8940  143.0921  159.2039 C   0  0  0  0  0  0  0  0  0  0  0  0
  151.7415  142.8947  157.7157 C   0  0  0  0  0  0  0  0  0  0  0  0
  150.6009  141.9161  157.4317 C   0  0  0  0  0  0  0  0  0  0  0  0
  149.5912  141.9200  158.1350 O   0  0  0  0  0  0  0  0  0  0  0  0
  150.7754  141.0851  156.3948 N   0  0  0  0  0  0  0  0  0  0  0  0
  149.8304  140.0584  155.9765 C   0  0  0  0  0  0  0  0  0  0  0  0
  148.9981  140.5185  154.7604 C   0  0  1  0  0  0  0  0  0  0  0  0
  149.9019  140.9017  153.7383 O   0  0  0  0  0  0  0  0  0  0  0  0
  148.1219  139.3866  154.1991 C   0  0  0  0  0  0  0  0  0  0  0  0
  147.1293  140.0060  153.2092 C   0  0  0  0  0  0  0  0  0  0  0  0
  146.7262  141.6689  153.8027 S   0  0  0  0  0  0  0  0  0  0  0  0
  148.0361  141.6838  155.0557 C   0  0  0  0  0  0  0  0  0  0  0  0
  149.2980  144.3568  158.9936 H   0  0  0  0  0  0  0  0  0  0  0  0
  150.3766  145.7427  159.1216 H   0  0  0  0  0  0  0  0  0  0  0  0
  149.4441  145.2174  160.5211 H   0  0  0  0  0  0  0  0  0  0  0  0
  153.1717  141.6025  162.7305 H   0  0  0  0  0  0  0  0  0  0  0  0
  152.6401  143.1493  163.4157 H   0  0  0  0  0  0  0  0  0  0  0  0
  154.1930  143.0466  162.5617 H   0  0  0  0  0  0  0  0  0  0  0  0
  154.0261  141.3401  158.7566 H   0  0  0  0  0  0  0  0  0  0  0  0
  153.5544  140.5099  160.2366 H   0  0  0  0  0  0  0  0  0  0  0  0
  154.7836  141.7764  160.2842 H   0  0  0  0  0  0  0  0  0  0  0  0
  151.5341  143.8393  157.2115 H   0  0  0  0  0  0  0  0  0  0  0  0
  152.6570  142.5104  157.2650 H   0  0  0  0  0  0  0  0  0  0  0  0
  151.6406  141.1457  155.8781 H   0  0  0  0  0  0  0  0  0  0  0  0
  150.3585  139.1291  155.7545 H   0  0  0  0  0  0  0  0  0  0  0  0
  149.1679  139.8502  156.8185 H   0  0  0  0  0  0  0  0  0  0  0  0
  149.4861  140.7574  152.9019 H   0  0  0  0  0  0  0  0  0  0  0  0
  148.7116  138.5928  153.7382 H   0  0  0  0  0  0  0  0  0  0  0  0
  147.5595  138.9281  155.0137 H   0  0  0  0  0  0  0  0  0  0  0  0
  147.5886  140.0988  152.2246 H   0  0  0  0  0  0  0  0  0  0  0  0
  146.2293  139.4009  153.0988 H   0  0  0  0  0  0  0  0  0  0  0  0
  147.5592  141.5357  156.0252 H   0  0  0  0  0  0  0  0  0  0  0  0
  148.5386  142.6515  155.0842 H   0  0  0  0  0  0  0  0  0  0  0  0
  1  2  1  0  0  0  0
  1 20  1  0  0  0  0
  1 21  1  0  0  0  0
  1 22  1  0  0  0  0
  2  8  1  0  0  0  0
  2  3  2  0  0  0  0
  3  4  1  0  0  0  0
  4  5  1  0  0  0  0
  4  6  1  0  0  0  0
  5 23  1  0  0  0  0
  5 24  1  0  0  0  0
  5 25  1  0  0  0  0
  6  7  1  0  0  0  0
  6  8  2  0  0  0  0
  7 26  1  0  0  0  0
  7 27  1  0  0  0  0
  7 28  1  0  0  0  0
  8  9  1  0  0  0  0
  9 10  1  0  0  0  0
  9 29  1  0  0  0  0
  9 30  1  0  0  0  0
 10 11  2  0  0  0  0
 10 12  1  0  0  0  0
 12 13  1  0  0  0  0
 12 31  1  0  0  0  0
 13 14  1  0  0  0  0
 13 32  1  0  0  0  0
 13 33  1  0  0  0  0
 14 19  1  0  0  0  0
 14 15  1  0  0  0  0
 14 16  1  0  0  0  0
 15 34  1  0  0  0  0
 16 17  1  0  0  0  0
 16 35  1  0  0  0  0
 16 36  1  0  0  0  0
 17 18  1  0  0  0  0
 17 37  1  0  0  0  0
 17 38  1  0  0  0  0
 18 19  1  0  0  0  0
 19 39  1  0  0  0  0
 19 40  1  0  0  0  0
M  END
> <s_m_source_file>
AV-unprocessed.smi

> <i_m_source_file_index>
710

> <i_lp_mmshare_version>
43012

> <i_f3d_flags>
0

> <s_epik_input>
W0NIM11jMW5uKFtDSDNdKWMoW0NIM10pYzFbQ0gyXUMoPU8pW05IXVtDSDJdW0NAQF0yKFtPSF0pW0NIMl1bQ0gyXVNbQ0gyXTI=

> <s_epik_cmdline>
J2VwaWtfcHl0aG9uJywgJy1waCcsICc3LjAnLCAnLXRuJywgJzgnLCAnLW1hJywgJzIwMCcsICctbWV0YWxfYmluZGluZycsICctaW1hZScsICc8aW5maWxlLm1hZT4nLCAnLW9tYWUnLCAnPG91dGZpbGUubWFlPic=

> <r_lp_tautomer_probability>
1

> <r_epik_Ionization_Penalty>
0.00343686

> <r_epik_Ionization_Penalty_Charging>
0

> <r_epik_Ionization_Penalty_Neutral>
0.00343686

> <r_epik_State_Penalty>
0.00243544

> <r_epik_Charging_Adjusted_Penalty>
0.00243544

> <i_epik_Tot_Q>
0

> <i_epik_Tot_abs_Q>
0

> <r_epik_Metal_State_Penalty>
-0

> <b_epik_Metal_Only>
0

> <s_lp_Force_Field>
OPLS_2005

> <r_lp_Energy>
10.7161

> <b_lp_Chiralities_Consistent>
1

> <s_lp_Variant>
AV-unprocessed.smi:710-1

> <Gold.Version>
5.8.1

> <Gold.Id.Protein>
6NUR|6NUR_protein|mol2

> <Gold.PLP.Fitness>
45.9121

> <Gold.PLP.PLP>
-43.0732

> <Gold.PLP.part.hbond>
-2.5032

> <Gold.PLP.part.metal>
0.0000

> <Gold.PLP.part.buried>
-5.4812

> <Gold.PLP.part.nonpolar>
-35.1804

> <Gold.PLP.part.repulsive>
0.3463

> <Gold.PLP.ligand.clash>
0.0000

> <Gold.PLP.ligand.torsion>
0.8068

> <Gold.PLP.Chemscore.Hbond>
1.4800

> <Gold.PLP.Chemscore.CHOScore>
0.0000

> <Gold.PLP.Chemscore.Metal>
0.0000

> <Gold.Chemscore.Hbonds>
donor molecule, donor type, donor heavy atom, donor atom, acceptor molecule, acceptor atom, score
      L1  H    15    34       P1  7957  0.96
      P1  H  7989  7998       L1    15  0.42

> <Gold.PLP.Chemscore.Internal.Correction>
0.0125

> <Gold.Rescore>
     Score         DG    S(hbond)    S(metal)    S(lipo)     H(rot)  DE(clash)    DE(int)     intcor
     16.99     -17.81       1.54        0.00     106.86       2.07       0.18       0.64       ----

> <Gold.Chemscore.Fitness>
16.9923

> <Gold.Chemscore.DG>
-17.8117

> <Gold.Chemscore.ZeroCoef>
-5.4800

> <Gold.Chemscore.Hbond>
1.5392

> <Gold.Chemscore.Metal>
0.0000

> <Gold.Chemscore.Lipo>
106.8613

> <Gold.Chemscore.Internal_Hbond>
0.0000

> <Gold.Chemscore.DEClash>
0.1768

> <Gold.Chemscore.DEInternal>
0.6426

> <Gold.Chemscore.Rot>
2.0750

> <Gold.Chemscore.Internal.Correction>
   9.000000E+99

> <Gold.Chemscore.Hbonds>
donor molecule, donor type, donor heavy atom, donor atom, acceptor molecule, acceptor atom, score
      L1  H    15    34       P1  7957  0.92
      P1  H  7989  7998       L1    15  0.24

> <Gold.Chemscore.Hbond.Weighted>
-5.1409

> <Gold.Chemscore.Metal.Weighted>
-0.0000

> <Gold.Chemscore.Lipo.Weighted>
-12.5028

> <Gold.Chemscore.Internal_Hbond.Weighted>
0.0000

> <Gold.Chemscore.DEClash.Weighted>
0.1768

> <Gold.Chemscore.DEInternal.Weighted>
0.6426

> <Gold.Chemscore.Rot.Weighted>
5.3120

> <Gold.Chemscore.Internal.Correction.Weighted>
   9.000000E+99

> <Gold.Protein.RotatedTorsions>
[ 6907 6896 6895 6894 ] final -104.17 input  -60.11 | X-H torsion
[ 7974 7965 7964 7962 ] final  148.58 input  175.53 | X-H torsion
[ 8008 7997 7996 7995 ] final  106.21 input   59.86 | X-H torsion
[ 10167 10162 10161 10158 ] final  -84.61 input  -65.29 | X-H torsion
[ 10718 10713 10712 10709 ] final  -14.12 input   66.30 | X-H torsion
[ 10763 10752 10751 10750 ] final  -55.29 input  -60.55 | X-H torsion
[ 11005 11000 10999 10996 ] final  -51.88 input  -57.11 | X-H torsion

> <Gold.Protein.ActiveResidues>
 VAL166  LYS551  ARG553  GLY616  TRP617  ASP618  TYR619  PRO620  LYS621  CYS622 
 ASP623  PHE694  ASN695  SER759  ASP760  ASP761  ALA762  ILE779  LEU786  VAL792 
 PHE793  MET794  SER795  GLU796  ALA797  LYS798  CYS799  TRP800  GLU811  SER814 

> <Gold.Protein.RotatedAtoms>
  150.7274  134.0318  159.3735 H   0  0  0  0  0  0  0  0  0  0  0  0  # atno 6907 bound_to 6896
  151.8288  135.0626  160.0443 H   0  0  0  0  0  0  0  0  0  0  0  0  # atno 6908 bound_to 6896
  152.2949  133.5561  159.5617 H   0  0  0  0  0  0  0  0  0  0  0  0  # atno 6909 bound_to 6896
  144.8503  139.6172  143.5977 H   0  0  0  0  0  0  0  0  0  0  0  0  # atno 7974 bound_to 7965
  156.1724  140.3117  155.8997 H   0  0  0  0  0  0  0  0  0  0  0  0  # atno 8008 bound_to 7997
  155.3559  140.0473  157.3063 H   0  0  0  0  0  0  0  0  0  0  0  0  # atno 8009 bound_to 7997
  154.5254  140.2212  155.8909 H   0  0  0  0  0  0  0  0  0  0  0  0  # atno 8010 bound_to 7997
  140.4116  143.2620  151.9010 H   0  0  0  0  0  0  0  0  0  0  0  0  # atno 10167 bound_to 10162
  156.6205  130.4874  149.6166 H   0  0  0  0  0  0  0  0  0  0  0  0  # atno 10718 bound_to 10713
  154.1884  135.6431  153.5053 H   0  0  0  0  0  0  0  0  0  0  0  0  # atno 10763 bound_to 10752
  153.0041  135.5423  154.6441 H   0  0  0  0  0  0  0  0  0  0  0  0  # atno 10764 bound_to 10752
  154.5823  135.2926  155.0692 H   0  0  0  0  0  0  0  0  0  0  0  0  # atno 10765 bound_to 10752
  141.0894  133.6635  156.3941 H   0  0  0  0  0  0  0  0  0  0  0  0  # atno 11005 bound_to 11000
  146.2779  139.6800  142.9250 LP  0  0  0  0  0  0  0  0  0  0  0  0  # atno 17320 bound_to 7965
  145.4514  141.0428  143.2802 LP  0  0  0  0  0  0  0  0  0  0  0  0  # atno 17321 bound_to 7965
  139.4782  144.5531  151.8355 LP  0  0  0  0  0  0  0  0  0  0  0  0  # atno 17342 bound_to 10162
  140.4632  144.1692  150.5908 LP  0  0  0  0  0  0  0  0  0  0  0  0  # atno 17343 bound_to 10162
  156.2316  130.6798  151.1469 LP  0  0  0  0  0  0  0  0  0  0  0  0  # atno 17370 bound_to 10713
  157.7229  131.0670  150.6059 LP  0  0  0  0  0  0  0  0  0  0  0  0  # atno 17371 bound_to 10713
  140.5286  134.6234  157.5342 LP  0  0  0  0  0  0  0  0  0  0  0  0  # atno 17394 bound_to 11000
  139.9718  134.7281  156.0027 LP  0  0  0  0  0  0  0  0  0  0  0  0  # atno 17395 bound_to 11000

$$$$
