AV-unprocessed.smi:2481|AV-procd|sdf|9773|dock2
  -GOLD-   2272013413D 1   1.00000     0.00000
 Structure written by MMmdl.
 37 38  0  0  0  0  0  0  0  0  1 V2000
  142.1565  135.0060  153.2554 C   0  0  0  0  0  0  0  0  0  0  0  0
  141.2262  136.0295  153.6912 N   0  0  0  0  0  0  0  0  0  0  0  0
  139.9508  135.7168  154.0202 N   0  0  0  0  0  0  0  0  0  0  0  0
  139.4354  136.9000  154.3543 C   0  0  0  0  0  0  0  0  0  0  0  0
  140.2820  137.9683  154.2670 N   0  0  0  0  0  0  0  0  0  0  0  0
  141.3798  137.3477  153.8466 C   0  0  0  0  0  0  0  0  0  0  0  0
  142.6324  137.9575  153.5689 N   0  0  0  0  0  0  0  0  0  0  0  0
  143.8550  137.5245  153.9203 C   0  0  0  0  0  0  0  0  0  0  0  0
  144.0879  136.5047  154.5696 O   0  0  0  0  0  0  0  0  0  0  0  0
  144.8084  138.3546  153.4740 N   0  0  0  0  0  0  0  0  0  0  0  0
  146.2480  138.1854  153.6778 C   0  0  2  0  0  0  0  0  0  0  0  0
  146.5986  138.2411  155.1805 C   0  0  0  0  0  0  0  0  0  0  0  0
  146.4146  139.6510  155.7665 C   0  0  0  0  0  0  0  0  0  0  0  0
  147.2179  140.6910  154.9722 C   0  0  0  0  0  0  0  0  0  0  0  0
  146.8649  140.6509  153.4766 C   0  0  0  0  0  0  0  0  0  0  0  0
  147.0586  139.2407  152.8783 C   0  0  2  0  0  0  0  0  0  0  0  0
  146.7580  139.2367  151.3642 C   0  0  0  0  0  0  0  0  0  0  0  0
  146.9366  137.9468  150.8179 O   0  0  0  0  0  0  0  0  0  0  0  0
  143.0802  135.0785  153.8304 H   0  0  0  0  0  0  0  0  0  0  0  0
  142.3817  135.1442  152.1976 H   0  0  0  0  0  0  0  0  0  0  0  0
  141.7290  134.0127  153.4004 H   0  0  0  0  0  0  0  0  0  0  0  0
  138.4081  136.9973  154.6733 H   0  0  0  0  0  0  0  0  0  0  0  0
  142.5914  138.8165  153.0406 H   0  0  0  0  0  0  0  0  0  0  0  0
  144.5210  139.1700  152.9531 H   0  0  0  0  0  0  0  0  0  0  0  0
  146.5292  137.1976  153.3078 H   0  0  0  0  0  0  0  0  0  0  0  0
  145.9976  137.5235  155.7400 H   0  0  0  0  0  0  0  0  0  0  0  0
  147.6360  137.9326  155.3159 H   0  0  0  0  0  0  0  0  0  0  0  0
  145.3577  139.9196  155.7593 H   0  0  0  0  0  0  0  0  0  0  0  0
  146.7266  139.6611  156.8113 H   0  0  0  0  0  0  0  0  0  0  0  0
  147.0304  141.6881  155.3713 H   0  0  0  0  0  0  0  0  0  0  0  0
  148.2846  140.5029  155.1001 H   0  0  0  0  0  0  0  0  0  0  0  0
  145.8335  140.9771  153.3366 H   0  0  0  0  0  0  0  0  0  0  0  0
  147.4869  141.3697  152.9420 H   0  0  0  0  0  0  0  0  0  0  0  0
  148.1152  138.9923  152.9938 H   0  0  0  0  0  0  0  0  0  0  0  0
  145.7447  139.5808  151.1563 H   0  0  0  0  0  0  0  0  0  0  0  0
  147.4341  139.9164  150.8448 H   0  0  0  0  0  0  0  0  0  0  0  0
  147.2611  137.3744  151.4963 H   0  0  0  0  0  0  0  0  0  0  0  0
  1  2  1  0  0  0  0
  1 19  1  0  0  0  0
  1 20  1  0  0  0  0
  1 21  1  0  0  0  0
  2  6  1  0  0  0  0
  2  3  1  0  0  0  0
  3  4  2  0  0  0  0
  4  5  1  0  0  0  0
  4 22  1  0  0  0  0
  5  6  2  0  0  0  0
  6  7  1  0  0  0  0
  7  8  1  0  0  0  0
  7 23  1  0  0  0  0
  8  9  2  0  0  0  0
  8 10  1  0  0  0  0
 10 11  1  0  0  0  0
 10 24  1  0  0  0  0
 11 16  1  0  0  0  0
 11 12  1  0  0  0  0
 11 25  1  0  0  0  0
 12 13  1  0  0  0  0
 12 26  1  0  0  0  0
 12 27  1  0  0  0  0
 13 14  1  0  0  0  0
 13 28  1  0  0  0  0
 13 29  1  0  0  0  0
 14 15  1  0  0  0  0
 14 30  1  0  0  0  0
 14 31  1  0  0  0  0
 15 16  1  0  0  0  0
 15 32  1  0  0  0  0
 15 33  1  0  0  0  0
 16 17  1  0  0  0  0
 16 34  1  0  0  0  0
 17 18  1  0  0  0  0
 17 35  1  0  0  0  0
 17 36  1  0  0  0  0
 18 37  1  0  0  0  0
M  END
> <s_m_source_file>
AV-unprocessed.smi

> <i_m_source_file_index>
2481

> <i_lp_mmshare_version>
43012

> <i_f3d_flags>
0

> <s_epik_input>
W0NIM11uMW5bY0hdbmMxW05IXUMoPU8pW05IXVtDQEBIXTJbQ0gyXVtDSDJdW0NIMl1bQ0gyXVtDQEhdMltDSDJdW09IXQ==

> <s_epik_cmdline>
J2VwaWtfcHl0aG9uJywgJy1waCcsICc3LjAnLCAnLXRuJywgJzgnLCAnLW1hJywgJzIwMCcsICctbWV0YWxfYmluZGluZycsICctaW1hZScsICc8aW5maWxlLm1hZT4nLCAnLW9tYWUnLCAnPG91dGZpbGUubWFlPic=

> <r_lp_tautomer_probability>
1

> <r_epik_Ionization_Penalty>
2.32704e-05

> <r_epik_Ionization_Penalty_Charging>
0

> <r_epik_Ionization_Penalty_Neutral>
2.32704e-05

> <r_epik_State_Penalty>
-0

> <r_epik_Charging_Adjusted_Penalty>
0

> <i_epik_Tot_Q>
0

> <i_epik_Tot_abs_Q>
0

> <r_epik_Metal_State_Penalty>
-0

> <b_epik_Metal_Only>
0

> <s_lp_Force_Field>
OPLS_2005

> <r_lp_Energy>
12.0515

> <b_lp_Chiralities_Consistent>
1

> <s_lp_Variant>
AV-unprocessed.smi:2481-3

> <Gold.Version>
5.8.1

> <Gold.Id.Protein>
6NUR|6NUR_protein|mol2

> <Gold.PLP.Fitness>
40.8231

> <Gold.PLP.PLP>
-27.7769

> <Gold.PLP.part.hbond>
-5.5764

> <Gold.PLP.part.metal>
0.0000

> <Gold.PLP.part.buried>
-3.1804

> <Gold.PLP.part.nonpolar>
-19.4090

> <Gold.PLP.part.repulsive>
0.2322

> <Gold.PLP.ligand.clash>
0.0000

> <Gold.PLP.ligand.torsion>
0.3977

> <Gold.PLP.Chemscore.Hbond>
4.6073

> <Gold.PLP.Chemscore.CHOScore>
0.0000

> <Gold.PLP.Chemscore.Metal>
0.0000

> <Gold.Chemscore.Hbonds>
donor molecule, donor type, donor heavy atom, donor atom, acceptor molecule, acceptor atom, score
      L1  H     7    23       P1 10175  0.91
      L1  H    10    24       P1 10175  1.00
      L1  H    18    37       P1  7948  0.70
      P1  H  7954  7966       L1    18  0.90
      P1  H 11000 11005       L1     3  0.70

> <Gold.PLP.Chemscore.Internal.Correction>
0.0198

> <Gold.Rescore>
     Score         DG    S(hbond)    S(metal)    S(lipo)     H(rot)  DE(clash)    DE(int)     intcor
     15.54     -17.73       3.82        0.00      39.02       1.99       1.09       1.10       ----

> <Gold.Chemscore.Fitness>
15.5433

> <Gold.Chemscore.DG>
-17.7273

> <Gold.Chemscore.ZeroCoef>
-5.4800

> <Gold.Chemscore.Hbond>
3.8236

> <Gold.Chemscore.Metal>
0.0000

> <Gold.Chemscore.Lipo>
39.0163

> <Gold.Chemscore.Internal_Hbond>
0.0000

> <Gold.Chemscore.DEClash>
1.0889

> <Gold.Chemscore.DEInternal>
1.0951

> <Gold.Chemscore.Rot>
1.9877

> <Gold.Chemscore.Internal.Correction>
   9.000000E+99

> <Gold.Chemscore.Hbonds>
donor molecule, donor type, donor heavy atom, donor atom, acceptor molecule, acceptor atom, score
      L1  H     7    23       P1 10175  0.87
      L1  H    10    24       P1 10175  0.99
      L1  H    18    37       P1  7948  0.66
      P1  H  7954  7966       L1    18  0.14
      P1  H 11000 11005       L1     3  0.21

> <Gold.Chemscore.Hbond.Weighted>
-12.7709

> <Gold.Chemscore.Metal.Weighted>
-0.0000

> <Gold.Chemscore.Lipo.Weighted>
-4.5649

> <Gold.Chemscore.Internal_Hbond.Weighted>
0.0000

> <Gold.Chemscore.DEClash.Weighted>
1.0889

> <Gold.Chemscore.DEInternal.Weighted>
1.0951

> <Gold.Chemscore.Rot.Weighted>
5.0885

> <Gold.Chemscore.Internal.Correction.Weighted>
   9.000000E+99

> <Gold.Protein.RotatedTorsions>
[ 6907 6896 6895 6894 ] final  116.95 input  -60.11 | X-H torsion
[ 7974 7965 7964 7962 ] final -133.62 input  175.53 | X-H torsion
[ 8008 7997 7996 7995 ] final  -85.34 input   59.86 | X-H torsion
[ 10167 10162 10161 10158 ] final -103.30 input  -65.29 | X-H torsion
[ 10718 10713 10712 10709 ] final    4.87 input   66.30 | X-H torsion
[ 10763 10752 10751 10750 ] final  -12.21 input  -60.55 | X-H torsion
[ 11005 11000 10999 10996 ] final   53.17 input  -57.11 | X-H torsion

> <Gold.Protein.ActiveResidues>
 VAL166  LYS551  ARG553  GLY616  TRP617  ASP618  TYR619  PRO620  LYS621  CYS622 
 ASP623  PHE694  ASN695  SER759  ASP760  ASP761  ALA762  ILE779  LEU786  VAL792 
 PHE793  MET794  SER795  GLU796  ALA797  LYS798  CYS799  TRP800  GLU811  SER814 

> <Gold.Protein.RotatedAtoms>
  152.4644  133.7891  159.6892 H   0  0  0  0  0  0  0  0  0  0  0  0  # atno 6907 bound_to 6896
  150.8602  133.7645  159.3001 H   0  0  0  0  0  0  0  0  0  0  0  0  # atno 6908 bound_to 6896
  151.5213  135.1070  159.9931 H   0  0  0  0  0  0  0  0  0  0  0  0  # atno 6909 bound_to 6896
  144.9177  140.6975  143.4985 H   0  0  0  0  0  0  0  0  0  0  0  0  # atno 7974 bound_to 7965
  154.6397  140.0593  156.9831 H   0  0  0  0  0  0  0  0  0  0  0  0  # atno 8008 bound_to 7997
  155.1536  140.3276  155.4407 H   0  0  0  0  0  0  0  0  0  0  0  0  # atno 8009 bound_to 7997
  156.2525  140.1943  156.6646 H   0  0  0  0  0  0  0  0  0  0  0  0  # atno 8010 bound_to 7997
  140.2215  143.3673  152.0966 H   0  0  0  0  0  0  0  0  0  0  0  0  # atno 10167 bound_to 10162
  156.8990  130.5714  149.5648 H   0  0  0  0  0  0  0  0  0  0  0  0  # atno 10718 bound_to 10713
  153.4952  135.7017  153.5862 H   0  0  0  0  0  0  0  0  0  0  0  0  # atno 10763 bound_to 10752
  153.4018  135.3870  155.1992 H   0  0  0  0  0  0  0  0  0  0  0  0  # atno 10764 bound_to 10752
  154.8714  135.3883  154.4416 H   0  0  0  0  0  0  0  0  0  0  0  0  # atno 10765 bound_to 10752
  140.0789  134.5366  155.8967 H   0  0  0  0  0  0  0  0  0  0  0  0  # atno 11005 bound_to 11000
  145.3348  139.1749  143.4517 LP  0  0  0  0  0  0  0  0  0  0  0  0  # atno 17320 bound_to 7965
  146.3189  140.3382  142.8646 LP  0  0  0  0  0  0  0  0  0  0  0  0  # atno 17321 bound_to 7965
  139.5142  144.6945  151.5669 LP  0  0  0  0  0  0  0  0  0  0  0  0  # atno 17342 bound_to 10162
  140.6252  143.9183  150.6558 LP  0  0  0  0  0  0  0  0  0  0  0  0  # atno 17343 bound_to 10162
  156.0591  130.5647  150.9155 LP  0  0  0  0  0  0  0  0  0  0  0  0  # atno 17370 bound_to 10713
  157.6038  131.0940  150.8915 LP  0  0  0  0  0  0  0  0  0  0  0  0  # atno 17371 bound_to 10713
  141.2039  133.6635  156.6092 LP  0  0  0  0  0  0  0  0  0  0  0  0  # atno 17394 bound_to 11000
  140.3517  134.7763  157.4471 LP  0  0  0  0  0  0  0  0  0  0  0  0  # atno 17395 bound_to 11000

$$$$
