AV-unprocessed.smi:1381|AV-procd|sdf|5615|dock8
  -GOLD-   22720 5223D 1   1.00000     0.00000
 Structure written by MMmdl.
 42 43  0  0  0  0  0  0  0  0  3 V2000
  147.3595  136.0560  163.3944 C   0  0  0  0  0  0  0  0  0  0  0  0
  147.7962  135.9640  161.9724 C   0  0  0  0  0  0  0  0  0  0  0  0
  148.1133  134.9083  161.1656 C   0  0  0  0  0  0  0  0  0  0  0  0
  148.4484  135.5313  159.9322 C   0  0  0  0  0  0  0  0  0  0  0  0
  148.8225  134.9028  158.8069 N   0  5  0  0  0  0  0  0  0  0  0  0
  148.3300  135.2979  157.6111 C   0  0  0  0  0  0  0  0  0  0  0  0
  147.1761  135.6664  157.3797 O   0  0  0  0  0  0  0  0  0  0  0  0
  149.2333  135.2730  156.6206 N   0  0  0  0  0  0  0  0  0  0  0  0
  148.9897  135.6652  155.2374 C   0  0  0  0  0  0  0  0  0  0  0  0
  148.5584  137.1406  155.1433 C   0  0  0  0  0  0  0  0  0  0  0  0
  149.2409  137.8579  154.0346 N   0  3  1  0  0  0  0  0  0  0  0  0
  148.7078  139.2205  153.7929 C   0  0  0  0  0  0  0  0  0  0  0  0
  149.2245  140.2179  154.8492 C   0  0  2  0  0  0  0  0  0  0  0  0
  148.7500  141.6487  154.5724 C   0  0  0  0  0  0  0  0  0  0  0  0
  150.6481  140.2118  154.8281 O   0  0  0  0  0  0  0  0  0  0  0  0
  151.2018  138.9425  155.1593 C   0  0  2  0  0  0  0  0  0  0  0  0
  152.7280  139.0808  155.1691 C   0  0  0  0  0  0  0  0  0  0  0  0
  150.7225  137.8924  154.1330 C   0  0  0  0  0  0  0  0  0  0  0  0
  148.3291  136.8474  159.9815 N   0  0  0  0  0  0  0  0  0  0  0  0
  147.9165  137.1337  161.2884 O   0  0  0  0  0  0  0  0  0  0  0  0
  146.2974  135.8288  163.4859 H   0  0  0  0  0  0  0  0  0  0  0  0
  147.5274  137.0570  163.7925 H   0  0  0  0  0  0  0  0  0  0  0  0
  147.9117  135.3501  164.0149 H   0  0  0  0  0  0  0  0  0  0  0  0
  148.1096  133.8586  161.4174 H   0  0  0  0  0  0  0  0  0  0  0  0
  150.1647  134.9598  156.8523 H   0  0  0  0  0  0  0  0  0  0  0  0
  149.9134  135.4936  154.6867 H   0  0  0  0  0  0  0  0  0  0  0  0
  148.2359  135.0142  154.7913 H   0  0  0  0  0  0  0  0  0  0  0  0
  147.4824  137.1711  154.9674 H   0  0  0  0  0  0  0  0  0  0  0  0
  148.7224  137.6479  156.0938 H   0  0  0  0  0  0  0  0  0  0  0  0
  149.0293  139.5413  152.8009 H   0  0  0  0  0  0  0  0  0  0  0  0
  147.6174  139.2061  153.7691 H   0  0  0  0  0  0  0  0  0  0  0  0
  148.8764  139.9275  155.8420 H   0  0  0  0  0  0  0  0  0  0  0  0
  147.6612  141.7096  154.5813 H   0  0  0  0  0  0  0  0  0  0  0  0
  149.0978  142.0005  153.6006 H   0  0  0  0  0  0  0  0  0  0  0  0
  149.1266  142.3371  155.3294 H   0  0  0  0  0  0  0  0  0  0  0  0
  150.8809  138.6641  156.1637 H   0  0  0  0  0  0  0  0  0  0  0  0
  153.2058  138.1365  155.4316 H   0  0  0  0  0  0  0  0  0  0  0  0
  153.0466  139.8272  155.8972 H   0  0  0  0  0  0  0  0  0  0  0  0
  153.1042  139.3868  154.1925 H   0  0  0  0  0  0  0  0  0  0  0  0
  151.1226  136.9082  154.3731 H   0  0  0  0  0  0  0  0  0  0  0  0
  151.1164  138.1453  153.1476 H   0  0  0  0  0  0  0  0  0  0  0  0
  149.0176  137.3252  153.2057 H   0  0  0  0  0  0  0  0  0  0  0  0
  1  2  1  0  0  0  0
  1 21  1  0  0  0  0
  1 22  1  0  0  0  0
  1 23  1  0  0  0  0
  2 20  1  0  0  0  0
  2  3  2  0  0  0  0
  3  4  1  0  0  0  0
  3 24  1  0  0  0  0
  4  5  1  0  0  0  0
  4 19  2  0  0  0  0
  5  6  1  0  0  0  0
  6  7  2  0  0  0  0
  6  8  1  0  0  0  0
  8  9  1  0  0  0  0
  8 25  1  0  0  0  0
  9 10  1  0  0  0  0
  9 26  1  0  0  0  0
  9 27  1  0  0  0  0
 10 11  1  0  0  0  0
 10 28  1  0  0  0  0
 10 29  1  0  0  0  0
 11 18  1  0  0  0  0
 11 12  1  0  0  0  0
 11 42  1  0  0  0  0
 12 13  1  0  0  0  0
 12 30  1  0  0  0  0
 12 31  1  0  0  0  0
 13 14  1  0  0  0  0
 13 15  1  0  0  0  0
 13 32  1  0  0  0  0
 14 33  1  0  0  0  0
 14 34  1  0  0  0  0
 14 35  1  0  0  0  0
 15 16  1  0  0  0  0
 16 17  1  0  0  0  0
 16 18  1  0  0  0  0
 16 36  1  0  0  0  0
 17 37  1  0  0  0  0
 17 38  1  0  0  0  0
 17 39  1  0  0  0  0
 18 40  1  0  0  0  0
 18 41  1  0  0  0  0
 19 20  1  0  0  0  0
M  CHG  1   5  -1
M  CHG  1  11   1
M  END
> <s_m_source_file>
AV-unprocessed.smi

> <i_m_source_file_index>
1381

> <i_lp_mmshare_version>
43012

> <i_f3d_flags>
0

> <s_epik_input>
W0NIM11jMVtjSF1jKG5vMSlbTkhdQyg9TylbTkhdW0NIMl1bQ0gyXU4yW0NIMl1bQ0BASF0oW0NIM10pT1tDQEBIXShbQ0gzXSlbQ0gyXTI=

> <s_epik_cmdline>
J2VwaWtfcHl0aG9uJywgJy1waCcsICc3LjAnLCAnLXRuJywgJzgnLCAnLW1hJywgJzIwMCcsICctbWV0YWxfYmluZGluZycsICctaW1hZScsICc8aW5maWxlLm1hZT4nLCAnLW9tYWUnLCAnPG91dGZpbGUubWFlPic=

> <r_epik_Ionization_Penalty>
6.73511

> <r_epik_Ionization_Penalty_Charging>
6.73502

> <r_epik_Ionization_Penalty_Neutral>
9.26583e-05

> <r_epik_State_Penalty>
6.93549

> <r_epik_Charging_Adjusted_Penalty>
13.6705

> <i_epik_Tot_Q>
0

> <i_epik_Tot_abs_Q>
2

> <r_epik_Metal_State_Penalty>
2.87211

> <b_epik_Metal_Only>
1

> <s_lp_Force_Field>
OPLS_2005

> <r_lp_Energy>
4.17006

> <b_lp_Chiralities_Consistent>
1

> <s_lp_Variant>
AV-unprocessed.smi:1381-14

> <Gold.Version>
5.8.1

> <Gold.Id.Protein>
6NUR|6NUR_protein|mol2

> <Gold.PLP.Fitness>
48.7575

> <Gold.PLP.PLP>
-30.6328

> <Gold.PLP.part.hbond>
-5.7848

> <Gold.PLP.part.metal>
0.0000

> <Gold.PLP.part.buried>
-0.6447

> <Gold.PLP.part.nonpolar>
-24.8720

> <Gold.PLP.part.repulsive>
0.1336

> <Gold.PLP.ligand.clash>
0.0000

> <Gold.PLP.ligand.torsion>
0.9592

> <Gold.PLP.Chemscore.Hbond>
6.6448

> <Gold.PLP.Chemscore.CHOScore>
0.0000

> <Gold.PLP.Chemscore.Metal>
0.0000

> <Gold.Chemscore.Hbonds>
donor molecule, donor type, donor heavy atom, donor atom, acceptor molecule, acceptor atom, score
      L1  H    11    42       P1  7948  2.00
      P1  H  6896  6908       L1     5  1.50
      P1  H  6931  6943       L1    20  1.00
      P1  H  6934  6947       L1    20  0.62
      P1  H  7989  7998       L1    15  1.00

> <Gold.PLP.Chemscore.Internal.Correction>
0.1088

> <Gold.Rescore>
     Score         DG    S(hbond)    S(metal)    S(lipo)     H(rot)  DE(clash)    DE(int)     intcor
     17.13     -20.69       2.96        0.00      80.03       1.58       1.36       2.20       ----

> <Gold.Chemscore.Fitness>
17.1260

> <Gold.Chemscore.DG>
-20.6859

> <Gold.Chemscore.ZeroCoef>
-5.4800

> <Gold.Chemscore.Hbond>
2.9597

> <Gold.Chemscore.Metal>
0.0000

> <Gold.Chemscore.Lipo>
80.0280

> <Gold.Chemscore.Internal_Hbond>
0.0000

> <Gold.Chemscore.DEClash>
1.3642

> <Gold.Chemscore.DEInternal>
2.1957

> <Gold.Chemscore.Rot>
1.5792

> <Gold.Chemscore.Internal.Correction>
   9.000000E+99

> <Gold.Chemscore.Hbonds>
donor molecule, donor type, donor heavy atom, donor atom, acceptor molecule, acceptor atom, score
      L1  H    11    42       P1  7948  1.00
      P1  H  6896  6908       L1     5  0.09
      P1  H  6931  6943       L1    20  0.50
      P1  H  6934  6947       L1    20  0.12
      P1  H  7989  7998       L1    15  0.60

> <Gold.Chemscore.Hbond.Weighted>
-9.8854

> <Gold.Chemscore.Metal.Weighted>
-0.0000

> <Gold.Chemscore.Lipo.Weighted>
-9.3633

> <Gold.Chemscore.Internal_Hbond.Weighted>
0.0000

> <Gold.Chemscore.DEClash.Weighted>
1.3642

> <Gold.Chemscore.DEInternal.Weighted>
2.1957

> <Gold.Chemscore.Rot.Weighted>
4.0428

> <Gold.Chemscore.Internal.Correction.Weighted>
   9.000000E+99

> <Gold.Protein.RotatedTorsions>
[ 6907 6896 6895 6894 ] final  158.17 input  -60.11 | X-H torsion
[ 7974 7965 7964 7962 ] final   53.57 input  175.53 | X-H torsion
[ 8008 7997 7996 7995 ] final  106.25 input   59.86 | X-H torsion
[ 10167 10162 10161 10158 ] final  -17.72 input  -65.29 | X-H torsion
[ 10718 10713 10712 10709 ] final   11.63 input   66.30 | X-H torsion
[ 10763 10752 10751 10750 ] final   44.02 input  -60.55 | X-H torsion
[ 11005 11000 10999 10996 ] final -119.05 input  -57.11 | X-H torsion

> <Gold.Protein.ActiveResidues>
 VAL166  LYS551  ARG553  GLY616  TRP617  ASP618  TYR619  PRO620  LYS621  CYS622 
 ASP623  PHE694  ASN695  SER759  ASP760  ASP761  ALA762  ILE779  LEU786  VAL792 
 PHE793  MET794  SER795  GLU796  ALA797  LYS798  CYS799  TRP800  GLU811  SER814 

> <Gold.Protein.RotatedAtoms>
  152.0044  133.3837  159.4194 H   0  0  0  0  0  0  0  0  0  0  0  0  # atno 6907 bound_to 6896
  150.6906  134.3799  159.5038 H   0  0  0  0  0  0  0  0  0  0  0  0  # atno 6908 bound_to 6896
  152.1551  134.8957  160.0596 H   0  0  0  0  0  0  0  0  0  0  0  0  # atno 6909 bound_to 6896
  145.9698  139.4138  143.0197 H   0  0  0  0  0  0  0  0  0  0  0  0  # atno 7974 bound_to 7965
  156.1727  140.3116  155.9003 H   0  0  0  0  0  0  0  0  0  0  0  0  # atno 8008 bound_to 7997
  155.3553  140.0473  157.3063 H   0  0  0  0  0  0  0  0  0  0  0  0  # atno 8009 bound_to 7997
  154.5257  140.2213  155.8904 H   0  0  0  0  0  0  0  0  0  0  0  0  # atno 8010 bound_to 7997
  140.7250  143.4988  150.9896 H   0  0  0  0  0  0  0  0  0  0  0  0  # atno 10167 bound_to 10162
  156.9984  130.6070  149.5693 H   0  0  0  0  0  0  0  0  0  0  0  0  # atno 10718 bound_to 10713
  152.9849  135.6083  154.3207 H   0  0  0  0  0  0  0  0  0  0  0  0  # atno 10763 bound_to 10752
  154.2916  135.2774  155.2654 H   0  0  0  0  0  0  0  0  0  0  0  0  # atno 10764 bound_to 10752
  154.4946  135.5883  153.6541 H   0  0  0  0  0  0  0  0  0  0  0  0  # atno 10765 bound_to 10752
  141.0243  134.0077  157.3237 H   0  0  0  0  0  0  0  0  0  0  0  0  # atno 11005 bound_to 11000
  145.7922  140.9809  143.1043 LP  0  0  0  0  0  0  0  0  0  0  0  0  # atno 17320 bound_to 7965
  144.6834  139.9697  143.7482 LP  0  0  0  0  0  0  0  0  0  0  0  0  # atno 17321 bound_to 7965
  139.8696  143.7209  152.3167 LP  0  0  0  0  0  0  0  0  0  0  0  0  # atno 17342 bound_to 10162
  139.7454  144.7548  151.0588 LP  0  0  0  0  0  0  0  0  0  0  0  0  # atno 17343 bound_to 10162
  156.0180  130.5275  150.8193 LP  0  0  0  0  0  0  0  0  0  0  0  0  # atno 17370 bound_to 10713
  157.5408  131.0940  150.9830 LP  0  0  0  0  0  0  0  0  0  0  0  0  # atno 17371 bound_to 10713
  139.9166  135.0197  156.7903 LP  0  0  0  0  0  0  0  0  0  0  0  0  # atno 17394 bound_to 11000
  140.6519  133.9724  155.7759 LP  0  0  0  0  0  0  0  0  0  0  0  0  # atno 17395 bound_to 11000

$$$$
