AV-unprocessed.smi:2114|AV-procd|sdf|8617|dock4
  -GOLD-   2272011363D 1   1.00000     0.00000
 Structure written by MMmdl.
 47 48  0  0  0  0  0  0  0  0  1 V2000
  152.8197  132.3347  165.2652 C   0  0  0  0  0  0  0  0  0  0  0  0
  153.7867  132.7291  164.3078 O   0  0  0  0  0  0  0  0  0  0  0  0
  153.8658  134.1381  164.1630 C   0  0  0  0  0  0  0  0  0  0  0  0
  154.8491  134.4809  163.0332 C   0  0  2  0  0  0  0  0  0  0  0  0
  156.3086  134.3597  163.5010 C   0  0  0  0  0  0  0  0  0  0  0  0
  154.5846  135.8345  162.5536 N   0  0  0  0  0  0  0  0  0  0  0  0
  154.2037  136.1596  161.3074 C   0  0  0  0  0  0  0  0  0  0  0  0
  154.0212  135.3328  160.4136 O   0  0  0  0  0  0  0  0  0  0  0  0
  153.9416  137.6187  161.0714 C   0  0  0  0  0  0  0  0  0  0  0  0
  153.2281  138.0729  159.9407 C   0  0  0  0  0  0  0  0  0  0  0  0
  152.9977  139.4531  159.7842 C   0  0  0  0  0  0  0  0  0  0  0  0
  153.4809  140.3503  160.7658 C   0  0  0  0  0  0  0  0  0  0  0  0
  153.2684  141.7386  160.6237 N   0  0  0  0  0  0  0  0  0  0  0  0
  152.7176  142.2208  159.3589 C   0  0  0  0  0  0  0  0  0  0  0  0
  152.8275  143.7543  159.2742 C   0  0  1  0  0  0  0  0  0  0  0  0
  152.1554  144.3106  158.0150 C   0  0  0  0  0  0  0  0  0  0  0  0
  152.1928  144.3306  160.4122 O   0  0  0  0  0  0  0  0  0  0  0  0
  152.8092  143.9390  161.6358 C   0  0  1  0  0  0  0  0  0  0  0  0
  152.1157  144.6822  162.7825 C   0  0  0  0  0  0  0  0  0  0  0  0
  152.7036  142.4102  161.7910 C   0  0  0  0  0  0  0  0  0  0  0  0
  154.1473  139.9099  161.8612 N   0  0  0  0  0  0  0  0  0  0  0  0
  154.3665  138.5859  162.0069 C   0  0  0  0  0  0  0  0  0  0  0  0
  152.8103  131.2480  165.3499 H   0  0  0  0  0  0  0  0  0  0  0  0
  151.8202  132.6580  164.9709 H   0  0  0  0  0  0  0  0  0  0  0  0
  153.0462  132.7473  166.2491 H   0  0  0  0  0  0  0  0  0  0  0  0
  152.8799  134.5556  163.9505 H   0  0  0  0  0  0  0  0  0  0  0  0
  154.2107  134.5767  165.1008 H   0  0  0  0  0  0  0  0  0  0  0  0
  154.6882  133.7716  162.2192 H   0  0  0  0  0  0  0  0  0  0  0  0
  156.5218  133.3526  163.8599 H   0  0  0  0  0  0  0  0  0  0  0  0
  156.5242  135.0549  164.3129 H   0  0  0  0  0  0  0  0  0  0  0  0
  157.0047  134.5704  162.6884 H   0  0  0  0  0  0  0  0  0  0  0  0
  154.6804  136.5798  163.2278 H   0  0  0  0  0  0  0  0  0  0  0  0
  152.8532  137.3825  159.1990 H   0  0  0  0  0  0  0  0  0  0  0  0
  152.4434  139.8036  158.9264 H   0  0  0  0  0  0  0  0  0  0  0  0
  153.2543  141.7730  158.5212 H   0  0  0  0  0  0  0  0  0  0  0  0
  151.6737  141.9129  159.2805 H   0  0  0  0  0  0  0  0  0  0  0  0
  153.8789  144.0472  159.2638 H   0  0  0  0  0  0  0  0  0  0  0  0
  152.6136  143.9039  157.1131 H   0  0  0  0  0  0  0  0  0  0  0  0
  152.2458  145.3962  157.9733 H   0  0  0  0  0  0  0  0  0  0  0  0
  151.0937  144.0632  157.9922 H   0  0  0  0  0  0  0  0  0  0  0  0
  153.8599  144.2339  161.6175 H   0  0  0  0  0  0  0  0  0  0  0  0
  152.5588  144.4217  163.7439 H   0  0  0  0  0  0  0  0  0  0  0  0
  151.0537  144.4386  162.8259 H   0  0  0  0  0  0  0  0  0  0  0  0
  152.2052  145.7616  162.6572 H   0  0  0  0  0  0  0  0  0  0  0  0
  151.6586  142.1140  161.8919 H   0  0  0  0  0  0  0  0  0  0  0  0
  153.2067  142.1110  162.7095 H   0  0  0  0  0  0  0  0  0  0  0  0
  154.9036  138.2974  162.8988 H   0  0  0  0  0  0  0  0  0  0  0  0
  1  2  1  0  0  0  0
  1 23  1  0  0  0  0
  1 24  1  0  0  0  0
  1 25  1  0  0  0  0
  2  3  1  0  0  0  0
  3  4  1  0  0  0  0
  3 26  1  0  0  0  0
  3 27  1  0  0  0  0
  4  5  1  0  0  0  0
  4  6  1  0  0  0  0
  4 28  1  0  0  0  0
  5 29  1  0  0  0  0
  5 30  1  0  0  0  0
  5 31  1  0  0  0  0
  6  7  1  0  0  0  0
  6 32  1  0  0  0  0
  7  8  2  0  0  0  0
  7  9  1  0  0  0  0
  9 22  1  0  0  0  0
  9 10  2  0  0  0  0
 10 11  1  0  0  0  0
 10 33  1  0  0  0  0
 11 12  2  0  0  0  0
 11 34  1  0  0  0  0
 12 13  1  0  0  0  0
 12 21  1  0  0  0  0
 13 20  1  0  0  0  0
 13 14  1  0  0  0  0
 14 15  1  0  0  0  0
 14 35  1  0  0  0  0
 14 36  1  0  0  0  0
 15 16  1  0  0  0  0
 15 17  1  0  0  0  0
 15 37  1  0  0  0  0
 16 38  1  0  0  0  0
 16 39  1  0  0  0  0
 16 40  1  0  0  0  0
 17 18  1  0  0  0  0
 18 19  1  0  0  0  0
 18 20  1  0  0  0  0
 18 41  1  0  0  0  0
 19 42  1  0  0  0  0
 19 43  1  0  0  0  0
 19 44  1  0  0  0  0
 20 45  1  0  0  0  0
 20 46  1  0  0  0  0
 21 22  2  0  0  0  0
 22 47  1  0  0  0  0
M  END
> <s_m_source_file>
AV-unprocessed.smi

> <i_m_source_file_index>
2114

> <i_lp_mmshare_version>
43012

> <i_f3d_flags>
0

> <s_epik_input>
W0NIM11PW0NIMl1bQ0BIXShbQ0gzXSlbTkhdQyg9TyljMVtjSF1bY0hdYyhuW2NIXTEpTjJbQ0gyXVtDQEBIXShbQ0gzXSlPW0NAQEhdKFtDSDNdKVtDSDJdMg==

> <s_epik_cmdline>
J2VwaWtfcHl0aG9uJywgJy1waCcsICc3LjAnLCAnLXRuJywgJzgnLCAnLW1hJywgJzIwMCcsICctbWV0YWxfYmluZGluZycsICctaW1hZScsICc8aW5maWxlLm1hZT4nLCAnLW9tYWUnLCAnPG91dGZpbGUubWFlPic=

> <r_lp_tautomer_probability>
1

> <r_epik_Ionization_Penalty>
1.92915e-05

> <r_epik_Ionization_Penalty_Charging>
0

> <r_epik_Ionization_Penalty_Neutral>
1.92915e-05

> <r_epik_State_Penalty>
-0

> <r_epik_Charging_Adjusted_Penalty>
0

> <i_epik_Tot_Q>
0

> <i_epik_Tot_abs_Q>
0

> <r_epik_Metal_State_Penalty>
-0

> <b_epik_Metal_Only>
0

> <s_lp_Force_Field>
OPLS_2005

> <r_lp_Energy>
18.4653

> <b_lp_Chiralities_Consistent>
1

> <s_lp_Variant>
AV-unprocessed.smi:2114-1

> <Gold.Version>
5.8.1

> <Gold.Id.Protein>
6NUR|6NUR_protein|mol2

> <Gold.PLP.Fitness>
37.1859

> <Gold.PLP.PLP>
-34.7028

> <Gold.PLP.part.hbond>
-1.0000

> <Gold.PLP.part.metal>
0.0000

> <Gold.PLP.part.buried>
-0.0034

> <Gold.PLP.part.nonpolar>
-33.7779

> <Gold.PLP.part.repulsive>
0.1161

> <Gold.PLP.ligand.clash>
0.0000

> <Gold.PLP.ligand.torsion>
0.4276

> <Gold.PLP.Chemscore.Hbond>
1.0000

> <Gold.PLP.Chemscore.CHOScore>
0.0000

> <Gold.PLP.Chemscore.Metal>
0.0000

> <Gold.Chemscore.Hbonds>
donor molecule, donor type, donor heavy atom, donor atom, acceptor molecule, acceptor atom, score
      P1  H  6896  6909       L1     8  1.00

> <Gold.PLP.Chemscore.Internal.Correction>
0.3382

> <Gold.Rescore>
     Score         DG    S(hbond)    S(metal)    S(lipo)     H(rot)  DE(clash)    DE(int)     intcor
     16.48     -19.06       0.99        0.00     121.18       1.52       2.06       0.51       ----

> <Gold.Chemscore.Fitness>
16.4828

> <Gold.Chemscore.DG>
-19.0563

> <Gold.Chemscore.ZeroCoef>
-5.4800

> <Gold.Chemscore.Hbond>
0.9867

> <Gold.Chemscore.Metal>
0.0000

> <Gold.Chemscore.Lipo>
121.1848

> <Gold.Chemscore.Internal_Hbond>
0.0000

> <Gold.Chemscore.DEClash>
2.0625

> <Gold.Chemscore.DEInternal>
0.5111

> <Gold.Chemscore.Rot>
1.5226

> <Gold.Chemscore.Internal.Correction>
   9.000000E+99

> <Gold.Chemscore.Hbonds>
donor molecule, donor type, donor heavy atom, donor atom, acceptor molecule, acceptor atom, score
      P1  H  6896  6909       L1     8  0.95

> <Gold.Chemscore.Hbond.Weighted>
-3.2957

> <Gold.Chemscore.Metal.Weighted>
-0.0000

> <Gold.Chemscore.Lipo.Weighted>
-14.1786

> <Gold.Chemscore.Internal_Hbond.Weighted>
0.0000

> <Gold.Chemscore.DEClash.Weighted>
2.0625

> <Gold.Chemscore.DEInternal.Weighted>
0.5111

> <Gold.Chemscore.Rot.Weighted>
3.8980

> <Gold.Chemscore.Internal.Correction.Weighted>
   9.000000E+99

> <Gold.Protein.RotatedTorsions>
[ 6907 6896 6895 6894 ] final  168.85 input  -60.11 | X-H torsion
[ 7974 7965 7964 7962 ] final  115.52 input  175.53 | X-H torsion
[ 8008 7997 7996 7995 ] final   84.48 input   59.86 | X-H torsion
[ 10167 10162 10161 10158 ] final  171.73 input  -65.29 | X-H torsion
[ 10718 10713 10712 10709 ] final   31.43 input   66.30 | X-H torsion
[ 10763 10752 10751 10750 ] final   71.02 input  -60.55 | X-H torsion
[ 11005 11000 10999 10996 ] final  148.26 input  -57.11 | X-H torsion

> <Gold.Protein.ActiveResidues>
 VAL166  LYS551  ARG553  GLY616  TRP617  ASP618  TYR619  PRO620  LYS621  CYS622 
 ASP623  PHE694  ASN695  SER759  ASP760  ASP761  ALA762  ILE779  LEU786  VAL792 
 PHE793  MET794  SER795  GLU796  ALA797  LYS798  CYS799  TRP800  GLU811  SER814 

> <Gold.Protein.RotatedAtoms>
  151.8412  133.3424  159.3643 H   0  0  0  0  0  0  0  0  0  0  0  0  # atno 6907 bound_to 6896
  150.7234  134.5389  159.5747 H   0  0  0  0  0  0  0  0  0  0  0  0  # atno 6908 bound_to 6896
  152.2863  134.7772  160.0438 H   0  0  0  0  0  0  0  0  0  0  0  0  # atno 6909 bound_to 6896
  145.1910  139.3000  143.4368 H   0  0  0  0  0  0  0  0  0  0  0  0  # atno 7974 bound_to 7965
  155.9375  140.3410  155.6300 H   0  0  0  0  0  0  0  0  0  0  0  0  # atno 8008 bound_to 7997
  155.7080  140.0768  157.2401 H   0  0  0  0  0  0  0  0  0  0  0  0  # atno 8009 bound_to 7997
  154.4096  140.1628  156.2252 H   0  0  0  0  0  0  0  0  0  0  0  0  # atno 8010 bound_to 7997
  139.5055  144.3453  151.9977 H   0  0  0  0  0  0  0  0  0  0  0  0  # atno 10167 bound_to 10162
  157.2724  130.7214  149.6511 H   0  0  0  0  0  0  0  0  0  0  0  0  # atno 10718 bound_to 10713
  153.0375  135.5152  154.7530 H   0  0  0  0  0  0  0  0  0  0  0  0  # atno 10763 bound_to 10752
  154.6494  135.2923  155.0007 H   0  0  0  0  0  0  0  0  0  0  0  0  # atno 10764 bound_to 10752
  154.0897  135.6652  153.4903 H   0  0  0  0  0  0  0  0  0  0  0  0  # atno 10765 bound_to 10752
  140.0945  134.9021  157.1702 H   0  0  0  0  0  0  0  0  0  0  0  0  # atno 11005 bound_to 11000
  146.3436  140.2122  142.8590 LP  0  0  0  0  0  0  0  0  0  0  0  0  # atno 17320 bound_to 7965
  145.0041  140.8658  143.5264 LP  0  0  0  0  0  0  0  0  0  0  0  0  # atno 17321 bound_to 7965
  140.2890  144.3775  150.6094 LP  0  0  0  0  0  0  0  0  0  0  0  0  # atno 17342 bound_to 10162
  140.5961  143.2167  151.7162 LP  0  0  0  0  0  0  0  0  0  0  0  0  # atno 17343 bound_to 10162
  155.9663  130.4363  150.5129 LP  0  0  0  0  0  0  0  0  0  0  0  0  # atno 17370 bound_to 10713
  157.3057  131.0654  151.2037 LP  0  0  0  0  0  0  0  0  0  0  0  0  # atno 17371 bound_to 10713
  140.3306  134.2814  155.7229 LP  0  0  0  0  0  0  0  0  0  0  0  0  # atno 17394 bound_to 11000
  141.2088  133.7768  157.0038 LP  0  0  0  0  0  0  0  0  0  0  0  0  # atno 17395 bound_to 11000

$$$$
