AV-unprocessed.smi:1292|AV-procd|sdf|5395|dock9
  -GOLD-   22720 4553D 1   1.00000     0.00000
 Structure written by MMmdl.
 40 41  0  0  0  0  0  0  0  0  1 V2000
  153.3453  141.9347  160.7400 C   0  0  0  0  0  0  0  0  0  0  0  0
  152.9228  142.1959  159.2876 C   0  0  2  0  0  0  0  0  0  0  0  0
  151.9089  143.3453  159.1954 C   0  0  0  0  0  0  0  0  0  0  0  0
  151.5201  143.5747  157.7318 C   0  0  0  0  0  0  0  0  0  0  0  0
  150.9761  142.2882  157.0905 C   0  0  0  0  0  0  0  0  0  0  0  0
  151.9319  141.1742  157.2368 N   0  0  0  0  0  0  0  0  0  0  0  0
  151.7194  139.8000  156.2004 S   0  0  0  0  0  0  0  0  0  0  0  0
  150.8635  140.2018  155.0739 O   0  0  0  0  0  0  0  0  0  0  0  0
  153.0286  139.1665  155.9787 O   0  0  0  0  0  0  0  0  0  0  0  0
  150.8025  138.7852  157.2529 N   0  0  0  0  0  0  0  0  0  0  0  0
  150.2847  137.5104  156.7556 C   0  0  0  0  0  0  0  0  0  0  0  0
  151.3386  136.4069  156.9121 C   0  0  0  0  0  0  0  0  0  0  0  0
  150.8721  135.0864  156.3289 C   0  0  0  0  0  0  0  0  0  0  0  0
  150.4207  135.0094  154.9939 C   0  0  0  0  0  0  0  0  0  0  0  0
  149.9844  133.7631  154.5041 C   0  0  0  0  0  0  0  0  0  0  0  0
  150.0145  132.6481  155.3638 C   0  0  0  0  0  0  0  0  0  0  0  0
  150.4809  132.8301  156.6810 C   0  0  0  0  0  0  0  0  0  0  0  0
  150.9011  134.0207  157.1608 N   0  0  0  0  0  0  0  0  0  0  0  0
  152.3523  140.9237  158.6313 C   0  0  0  0  0  0  0  0  0  0  0  0
  152.4940  141.6373  161.3532 H   0  0  0  0  0  0  0  0  0  0  0  0
  153.7831  142.8270  161.1880 H   0  0  0  0  0  0  0  0  0  0  0  0
  154.0893  141.1397  160.7956 H   0  0  0  0  0  0  0  0  0  0  0  0
  153.8169  142.4867  158.7337 H   0  0  0  0  0  0  0  0  0  0  0  0
  151.0197  143.1108  159.7825 H   0  0  0  0  0  0  0  0  0  0  0  0
  152.3312  144.2590  159.6147 H   0  0  0  0  0  0  0  0  0  0  0  0
  150.7739  144.3666  157.6650 H   0  0  0  0  0  0  0  0  0  0  0  0
  152.3895  143.9221  157.1718 H   0  0  0  0  0  0  0  0  0  0  0  0
  150.0271  142.0043  157.5469 H   0  0  0  0  0  0  0  0  0  0  0  0
  150.7781  142.4689  156.0340 H   0  0  0  0  0  0  0  0  0  0  0  0
  151.1904  138.7381  158.1945 H   0  0  0  0  0  0  0  0  0  0  0  0
  149.3761  137.2566  157.3027 H   0  0  0  0  0  0  0  0  0  0  0  0
  150.0122  137.6159  155.7051 H   0  0  0  0  0  0  0  0  0  0  0  0
  152.2668  136.7049  156.4223 H   0  0  0  0  0  0  0  0  0  0  0  0
  151.5797  136.2646  157.9668 H   0  0  0  0  0  0  0  0  0  0  0  0
  150.4049  135.8840  154.3604 H   0  0  0  0  0  0  0  0  0  0  0  0
  149.6314  133.6648  153.4882 H   0  0  0  0  0  0  0  0  0  0  0  0
  149.6870  131.6772  155.0225 H   0  0  0  0  0  0  0  0  0  0  0  0
  150.5171  131.9972  157.3675 H   0  0  0  0  0  0  0  0  0  0  0  0
  153.1048  140.1360  158.6544 H   0  0  0  0  0  0  0  0  0  0  0  0
  151.4954  140.5528  159.1956 H   0  0  0  0  0  0  0  0  0  0  0  0
  1  2  1  0  0  0  0
  1 20  1  0  0  0  0
  1 21  1  0  0  0  0
  1 22  1  0  0  0  0
  2 19  1  0  0  0  0
  2  3  1  0  0  0  0
  2 23  1  0  0  0  0
  3  4  1  0  0  0  0
  3 24  1  0  0  0  0
  3 25  1  0  0  0  0
  4  5  1  0  0  0  0
  4 26  1  0  0  0  0
  4 27  1  0  0  0  0
  5  6  1  0  0  0  0
  5 28  1  0  0  0  0
  5 29  1  0  0  0  0
  6  7  1  0  0  0  0
  6 19  1  0  0  0  0
  7  8  2  0  0  0  0
  7  9  2  0  0  0  0
  7 10  1  0  0  0  0
 10 11  1  0  0  0  0
 10 30  1  0  0  0  0
 11 12  1  0  0  0  0
 11 31  1  0  0  0  0
 11 32  1  0  0  0  0
 12 13  1  0  0  0  0
 12 33  1  0  0  0  0
 12 34  1  0  0  0  0
 13 18  1  0  0  0  0
 13 14  2  0  0  0  0
 14 15  1  0  0  0  0
 14 35  1  0  0  0  0
 15 16  2  0  0  0  0
 15 36  1  0  0  0  0
 16 17  1  0  0  0  0
 16 37  1  0  0  0  0
 17 18  2  0  0  0  0
 17 38  1  0  0  0  0
 19 39  1  0  0  0  0
 19 40  1  0  0  0  0
M  END
> <s_m_source_file>
AV-unprocessed.smi

> <i_m_source_file_index>
1292

> <i_lp_mmshare_version>
43012

> <i_f3d_flags>
0

> <s_epik_input>
W0NIM11bQ0BASF0xW0NIMl1bQ0gyXVtDSDJdTihbQ0gyXTEpUyg9TykoPU8pW05IXVtDSDJdW0NIMl1jMltjSF1bY0hdW2NIXVtjSF1uMg==

> <s_epik_cmdline>
J2VwaWtfcHl0aG9uJywgJy1waCcsICc3LjAnLCAnLXRuJywgJzgnLCAnLW1hJywgJzIwMCcsICctbWV0YWxfYmluZGluZycsICctaW1hZScsICc8aW5maWxlLm1hZT4nLCAnLW9tYWUnLCAnPG91dGZpbGUubWFlPic=

> <r_epik_Ionization_Penalty>
0.0252758

> <r_epik_Ionization_Penalty_Charging>
0

> <r_epik_Ionization_Penalty_Neutral>
0.0252758

> <r_epik_State_Penalty>
0.0138562

> <r_epik_Charging_Adjusted_Penalty>
0.0138562

> <i_epik_Tot_Q>
0

> <i_epik_Tot_abs_Q>
0

> <r_epik_Metal_State_Penalty>
0.204365

> <b_epik_Metal_Only>
0

> <s_lp_Force_Field>
OPLS_2005

> <r_lp_Energy>
7.0541

> <b_lp_Chiralities_Consistent>
1

> <s_lp_Variant>
AV-unprocessed.smi:1292-1

> <Gold.Version>
5.8.1

> <Gold.Id.Protein>
6NUR|6NUR_protein|mol2

> <Gold.PLP.Fitness>
41.8117

> <Gold.PLP.PLP>
-35.0291

> <Gold.PLP.part.hbond>
-3.0000

> <Gold.PLP.part.metal>
0.0000

> <Gold.PLP.part.buried>
-4.1352

> <Gold.PLP.part.nonpolar>
-28.5401

> <Gold.PLP.part.repulsive>
0.0464

> <Gold.PLP.ligand.clash>
0.0000

> <Gold.PLP.ligand.torsion>
0.9812

> <Gold.PLP.Chemscore.Hbond>
2.6344

> <Gold.PLP.Chemscore.CHOScore>
0.0000

> <Gold.PLP.Chemscore.Metal>
0.0000

> <Gold.Chemscore.Hbonds>
donor molecule, donor type, donor heavy atom, donor atom, acceptor molecule, acceptor atom, score
      P1  H  6896  6908       L1    18  0.48
      P1  H  7989  7998       L1     8  1.00
      P1  H  7997  8010       L1     9  1.00

> <Gold.PLP.Chemscore.Internal.Correction>
0.8418

> <Gold.Rescore>
     Score         DG    S(hbond)    S(metal)    S(lipo)     H(rot)  DE(clash)    DE(int)     intcor
     19.03     -20.04       2.51        0.00      88.78       1.64       0.02       1.00       ----

> <Gold.Chemscore.Fitness>
19.0281

> <Gold.Chemscore.DG>
-20.0439

> <Gold.Chemscore.ZeroCoef>
-5.4800

> <Gold.Chemscore.Hbond>
2.5069

> <Gold.Chemscore.Metal>
0.0000

> <Gold.Chemscore.Lipo>
88.7843

> <Gold.Chemscore.Internal_Hbond>
0.0000

> <Gold.Chemscore.DEClash>
0.0203

> <Gold.Chemscore.DEInternal>
0.9954

> <Gold.Chemscore.Rot>
1.6394

> <Gold.Chemscore.Internal.Correction>
   9.000000E+99

> <Gold.Chemscore.Hbonds>
donor molecule, donor type, donor heavy atom, donor atom, acceptor molecule, acceptor atom, score
      P1  H  6896  6908       L1    18  0.18
      P1  H  7989  7998       L1     8  0.97
      P1  H  7997  8010       L1     9  0.90

> <Gold.Chemscore.Hbond.Weighted>
-8.3729

> <Gold.Chemscore.Metal.Weighted>
-0.0000

> <Gold.Chemscore.Lipo.Weighted>
-10.3878

> <Gold.Chemscore.Internal_Hbond.Weighted>
0.0000

> <Gold.Chemscore.DEClash.Weighted>
0.0203

> <Gold.Chemscore.DEInternal.Weighted>
0.9954

> <Gold.Chemscore.Rot.Weighted>
4.1968

> <Gold.Chemscore.Internal.Correction.Weighted>
   9.000000E+99

> <Gold.Protein.RotatedTorsions>
[ 6907 6896 6895 6894 ] final  113.65 input  -60.11 | X-H torsion
[ 7974 7965 7964 7962 ] final -148.30 input  175.53 | X-H torsion
[ 8008 7997 7996 7995 ] final   72.85 input   59.86 | X-H torsion
[ 10167 10162 10161 10158 ] final  -36.02 input  -65.29 | X-H torsion
[ 10718 10713 10712 10709 ] final   30.33 input   66.30 | X-H torsion
[ 10763 10752 10751 10750 ] final  -13.59 input  -60.55 | X-H torsion
[ 11005 11000 10999 10996 ] final -113.84 input  -57.11 | X-H torsion

> <Gold.Protein.ActiveResidues>
 VAL166  LYS551  ARG553  GLY616  TRP617  ASP618  TYR619  PRO620  LYS621  CYS622 
 ASP623  PHE694  ASN695  SER759  ASP760  ASP761  ALA762  ILE779  LEU786  VAL792 
 PHE793  MET794  SER795  GLU796  ALA797  LYS798  CYS799  TRP800  GLU811  SER814 

> <Gold.Protein.RotatedAtoms>
  152.4849  133.8346  159.7120 H   0  0  0  0  0  0  0  0  0  0  0  0  # atno 6907 bound_to 6896
  150.8927  133.7213  159.2907 H   0  0  0  0  0  0  0  0  0  0  0  0  # atno 6908 bound_to 6896
  151.4680  135.1047  159.9796 H   0  0  0  0  0  0  0  0  0  0  0  0  # atno 6909 bound_to 6896
  144.8038  140.5214  143.5689 H   0  0  0  0  0  0  0  0  0  0  0  0  # atno 7974 bound_to 7965
  155.7749  140.3483  155.5266 H   0  0  0  0  0  0  0  0  0  0  0  0  # atno 8008 bound_to 7997
  155.8786  140.0998  157.1522 H   0  0  0  0  0  0  0  0  0  0  0  0  # atno 8009 bound_to 7997
  154.4023  140.1327  156.4155 H   0  0  0  0  0  0  0  0  0  0  0  0  # atno 8010 bound_to 7997
  140.7152  143.3437  151.2302 H   0  0  0  0  0  0  0  0  0  0  0  0  # atno 10167 bound_to 10162
  157.2581  130.7148  149.6440 H   0  0  0  0  0  0  0  0  0  0  0  0  # atno 10718 bound_to 10713
  153.5155  135.7016  153.5758 H   0  0  0  0  0  0  0  0  0  0  0  0  # atno 10763 bound_to 10752
  153.3830  135.3915  155.1870 H   0  0  0  0  0  0  0  0  0  0  0  0  # atno 10764 bound_to 10752
  154.8699  135.3839  154.4639 H   0  0  0  0  0  0  0  0  0  0  0  0  # atno 10765 bound_to 10752
  141.0589  133.9567  157.2703 H   0  0  0  0  0  0  0  0  0  0  0  0  # atno 11005 bound_to 11000
  145.5488  139.1476  143.3406 LP  0  0  0  0  0  0  0  0  0  0  0  0  # atno 17320 bound_to 7965
  146.2325  140.5627  142.8969 LP  0  0  0  0  0  0  0  0  0  0  0  0  # atno 17321 bound_to 7965
  139.6951  143.9627  152.2878 LP  0  0  0  0  0  0  0  0  0  0  0  0  # atno 17342 bound_to 10162
  139.9301  144.6746  150.8372 LP  0  0  0  0  0  0  0  0  0  0  0  0  # atno 17343 bound_to 10162
  155.9664  130.4406  150.5306 LP  0  0  0  0  0  0  0  0  0  0  0  0  # atno 17370 bound_to 10713
  157.3205  131.0681  151.1935 LP  0  0  0  0  0  0  0  0  0  0  0  0  # atno 17371 bound_to 10713
  139.9415  135.0190  156.8722 LP  0  0  0  0  0  0  0  0  0  0  0  0  # atno 17394 bound_to 11000
  140.5908  134.0264  155.7499 LP  0  0  0  0  0  0  0  0  0  0  0  0  # atno 17395 bound_to 11000

$$$$
