AV-unprocessed.smi:1033|AV-procd|sdf|4503|dock6
  -GOLD-   22720 2503D 1   1.00000     0.00000
 Structure written by MMmdl.
 57 59  0  0  0  0  0  0  0  0  3 V2000
  151.9250  144.8125  160.4835 C   0  0  0  0  0  0  0  0  0  0  0  0
  151.8444  143.6454  159.5139 C   0  0  0  0  0  0  0  0  0  0  0  0
  150.9976  143.7610  158.3882 C   0  0  0  0  0  0  0  0  0  0  0  0
  150.9459  142.6775  157.5194 C   0  0  0  0  0  0  0  0  0  0  0  0
  150.2211  142.4812  156.3417 N   0  3  0  0  0  0  0  0  0  0  0  0
  150.5019  141.2483  155.8354 C   0  0  0  0  0  0  0  0  0  0  0  0
  151.3945  140.6552  156.6738 N   0  0  0  0  0  0  0  0  0  0  0  0
  152.0211  139.3291  156.6002 C   0  0  0  0  0  0  0  0  0  0  0  0
  151.1672  138.2254  157.2541 C   0  0  1  0  0  0  0  0  0  0  0  0
  151.1885  138.3977  158.6575 O   0  0  0  0  0  0  0  0  0  0  0  0
  149.7043  138.2881  156.7733 C   0  0  0  0  0  0  0  0  0  0  0  0
  149.5145  138.2397  155.3180 N   0  0  0  0  0  0  0  0  0  0  0  0
  150.6109  137.5582  154.6306 C   0  0  0  0  0  0  0  0  0  0  0  0
  150.6192  136.0328  154.8591 C   0  0  0  0  0  0  0  0  0  0  0  0
  149.3268  135.4367  154.4333 N   0  3  0  0  0  0  0  0  0  0  0  0
  149.3131  133.9579  154.5726 C   0  0  0  0  0  0  0  0  0  0  0  0
  148.0750  133.3093  153.9226 C   0  0  2  0  0  0  0  0  0  0  0  0
  148.2702  131.8065  153.6851 C   0  0  0  0  0  0  0  0  0  0  0  0
  147.8282  133.9235  152.6737 O   0  0  0  0  0  0  0  0  0  0  0  0
  148.1881  136.1117  155.1125 C   0  0  0  0  0  0  0  0  0  0  0  0
  148.2521  137.6355  154.8815 C   0  0  0  0  0  0  0  0  0  0  0  0
  151.7004  141.5088  157.7382 C   0  0  0  0  0  0  0  0  0  0  0  0
  152.5388  141.3771  158.8423 C   0  0  0  0  0  0  0  0  0  0  0  0
  152.6042  142.4679  159.7384 C   0  0  0  0  0  0  0  0  0  0  0  0
  153.5095  142.3537  160.9532 C   0  0  0  0  0  0  0  0  0  0  0  0
  151.2945  145.6423  160.1630 H   0  0  0  0  0  0  0  0  0  0  0  0
  152.9486  145.1810  160.5551 H   0  0  0  0  0  0  0  0  0  0  0  0
  151.5954  144.5079  161.4771 H   0  0  0  0  0  0  0  0  0  0  0  0
  150.4153  144.6536  158.2113 H   0  0  0  0  0  0  0  0  0  0  0  0
  150.0888  140.8172  154.9347 H   0  0  0  0  0  0  0  0  0  0  0  0
  152.1879  139.1049  155.5456 H   0  0  0  0  0  0  0  0  0  0  0  0
  153.0067  139.3884  157.0636 H   0  0  0  0  0  0  0  0  0  0  0  0
  151.6123  137.2595  157.0207 H   0  0  0  0  0  0  0  0  0  0  0  0
  151.6935  137.6946  159.0374 H   0  0  0  0  0  0  0  0  0  0  0  0
  149.1654  137.4582  157.2330 H   0  0  0  0  0  0  0  0  0  0  0  0
  149.2412  139.1884  157.1754 H   0  0  0  0  0  0  0  0  0  0  0  0
  150.5350  137.7538  153.5600 H   0  0  0  0  0  0  0  0  0  0  0  0
  151.5656  137.9847  154.9413 H   0  0  0  0  0  0  0  0  0  0  0  0
  151.4319  135.5896  154.2825 H   0  0  0  0  0  0  0  0  0  0  0  0
  150.8124  135.7960  155.9064 H   0  0  0  0  0  0  0  0  0  0  0  0
  150.2077  133.5374  154.1102 H   0  0  0  0  0  0  0  0  0  0  0  0
  149.3695  133.6988  155.6310 H   0  0  0  0  0  0  0  0  0  0  0  0
  147.1944  133.4436  154.5498 H   0  0  0  0  0  0  0  0  0  0  0  0
  148.4459  131.2817  154.6246 H   0  0  0  0  0  0  0  0  0  0  0  0
  149.1219  131.6123  153.0321 H   0  0  0  0  0  0  0  0  0  0  0  0
  147.3875  131.3635  153.2222 H   0  0  0  0  0  0  0  0  0  0  0  0
  148.3835  134.6848  152.5935 H   0  0  0  0  0  0  0  0  0  0  0  0
  147.2428  135.7395  154.7198 H   0  0  0  0  0  0  0  0  0  0  0  0
  148.1940  135.8790  156.1779 H   0  0  0  0  0  0  0  0  0  0  0  0
  147.4039  138.1197  155.3626 H   0  0  0  0  0  0  0  0  0  0  0  0
  148.1227  137.8284  153.8156 H   0  0  0  0  0  0  0  0  0  0  0  0
  153.1170  140.4810  159.0117 H   0  0  0  0  0  0  0  0  0  0  0  0
  154.0094  141.3851  160.9885 H   0  0  0  0  0  0  0  0  0  0  0  0
  152.9336  142.4644  161.8724 H   0  0  0  0  0  0  0  0  0  0  0  0
  154.2791  143.1254  160.9309 H   0  0  0  0  0  0  0  0  0  0  0  0
  149.2394  135.6320  153.4459 H   0  0  0  0  0  0  0  0  0  0  0  0
  149.5809  143.1369  155.9128 H   0  0  0  0  0  0  0  0  0  0  0  0
  1  2  1  0  0  0  0
  1 26  1  0  0  0  0
  1 27  1  0  0  0  0
  1 28  1  0  0  0  0
  2 24  1  0  0  0  0
  2  3  2  0  0  0  0
  3  4  1  0  0  0  0
  3 29  1  0  0  0  0
  4 22  2  0  0  0  0
  4  5  1  0  0  0  0
  5  6  2  0  0  0  0
  5 57  1  0  0  0  0
  6  7  1  0  0  0  0
  6 30  1  0  0  0  0
  7  8  1  0  0  0  0
  7 22  1  0  0  0  0
  8  9  1  0  0  0  0
  8 31  1  0  0  0  0
  8 32  1  0  0  0  0
  9 10  1  0  0  0  0
  9 11  1  0  0  0  0
  9 33  1  0  0  0  0
 10 34  1  0  0  0  0
 11 12  1  0  0  0  0
 11 35  1  0  0  0  0
 11 36  1  0  0  0  0
 12 21  1  0  0  0  0
 12 13  1  0  0  0  0
 13 14  1  0  0  0  0
 13 37  1  0  0  0  0
 13 38  1  0  0  0  0
 14 15  1  0  0  0  0
 14 39  1  0  0  0  0
 14 40  1  0  0  0  0
 15 16  1  0  0  0  0
 15 20  1  0  0  0  0
 15 56  1  0  0  0  0
 16 17  1  0  0  0  0
 16 41  1  0  0  0  0
 16 42  1  0  0  0  0
 17 18  1  0  0  0  0
 17 19  1  0  0  0  0
 17 43  1  0  0  0  0
 18 44  1  0  0  0  0
 18 45  1  0  0  0  0
 18 46  1  0  0  0  0
 19 47  1  0  0  0  0
 20 21  1  0  0  0  0
 20 48  1  0  0  0  0
 20 49  1  0  0  0  0
 21 50  1  0  0  0  0
 21 51  1  0  0  0  0
 22 23  1  0  0  0  0
 23 24  2  0  0  0  0
 23 52  1  0  0  0  0
 24 25  1  0  0  0  0
 25 53  1  0  0  0  0
 25 54  1  0  0  0  0
 25 55  1  0  0  0  0
M  CHG  1   5   1
M  CHG  1  15   1
M  END
> <s_m_source_file>
AV-unprocessed.smi

> <i_m_source_file_index>
1033

> <i_lp_mmshare_version>
43012

> <i_f3d_flags>
0

> <s_epik_input>
W0NIM11jKFtjSF0xKWMoW0NIM10pW2NIXWMoYzEyKW4oW2NIXW4yKVtDSDJdW0NASF0oW09IXSlbQ0gyXU4zW0NIMl1bQ0gyXU4oW0NIMl1bQ0gyXTMpW0NIMl1bQ0BIXShbQ0gzXSlbT0hd

> <s_epik_cmdline>
J2VwaWtfcHl0aG9uJywgJy1waCcsICc3LjAnLCAnLXRuJywgJzgnLCAnLW1hJywgJzIwMCcsICctbWV0YWxfYmluZGluZycsICctaW1hZScsICc8aW5maWxlLm1hZT4nLCAnLW9tYWUnLCAnPG91dGZpbGUubWFlPic=

> <r_epik_Ionization_Penalty>
1.28617

> <r_epik_Ionization_Penalty_Charging>
1.23646

> <r_epik_Ionization_Penalty_Neutral>
0.0497112

> <r_epik_State_Penalty>
1.79157

> <r_epik_Charging_Adjusted_Penalty>
3.02803

> <i_epik_Tot_Q>
2

> <i_epik_Tot_abs_Q>
2

> <r_epik_Metal_State_Penalty>
5.81739

> <b_epik_Metal_Only>
0

> <s_lp_Force_Field>
OPLS_2005

> <r_lp_Energy>
41.025

> <b_lp_Chiralities_Consistent>
1

> <s_lp_Variant>
AV-unprocessed.smi:1033-14

> <Gold.Version>
5.8.1

> <Gold.Id.Protein>
6NUR|6NUR_protein|mol2

> <Gold.PLP.Fitness>
59.3071

> <Gold.PLP.PLP>
-46.1322

> <Gold.PLP.part.hbond>
-3.0000

> <Gold.PLP.part.metal>
0.0000

> <Gold.PLP.part.buried>
-5.3881

> <Gold.PLP.part.nonpolar>
-38.8213

> <Gold.PLP.part.repulsive>
0.2069

> <Gold.PLP.ligand.clash>
0.0000

> <Gold.PLP.ligand.torsion>
1.0215

> <Gold.PLP.Chemscore.Hbond>
5.0000

> <Gold.PLP.Chemscore.CHOScore>
0.0000

> <Gold.PLP.Chemscore.Metal>
0.0000

> <Gold.Chemscore.Hbonds>
donor molecule, donor type, donor heavy atom, donor atom, acceptor molecule, acceptor atom, score
      L1  H     5    57       P1  8028  2.00
      L1  H    15    56       P1  7948  2.00
      L1  H    19    47       P1  7948  1.00

> <Gold.PLP.Chemscore.Internal.Correction>
0.2180

> <Gold.Rescore>
     Score         DG    S(hbond)    S(metal)    S(lipo)     H(rot)  DE(clash)    DE(int)     intcor
     20.54     -21.57       2.93        0.00     122.58       3.15       0.07       0.95       ----

> <Gold.Chemscore.Fitness>
20.5432

> <Gold.Chemscore.DG>
-21.5652

> <Gold.Chemscore.ZeroCoef>
-5.4800

> <Gold.Chemscore.Hbond>
2.9350

> <Gold.Chemscore.Metal>
0.0000

> <Gold.Chemscore.Lipo>
122.5810

> <Gold.Chemscore.Internal_Hbond>
0.0000

> <Gold.Chemscore.DEClash>
0.0686

> <Gold.Chemscore.DEInternal>
0.9534

> <Gold.Chemscore.Rot>
3.1483

> <Gold.Chemscore.Internal.Correction>
   9.000000E+99

> <Gold.Chemscore.Hbonds>
donor molecule, donor type, donor heavy atom, donor atom, acceptor molecule, acceptor atom, score
      L1  H     5    57       P1  8028  0.98
      L1  H    15    56       P1  7948  0.50
      L1  H    19    47       P1  7948  0.25

> <Gold.Chemscore.Hbond.Weighted>
-9.8029

> <Gold.Chemscore.Metal.Weighted>
-0.0000

> <Gold.Chemscore.Lipo.Weighted>
-14.3420

> <Gold.Chemscore.Internal_Hbond.Weighted>
0.0000

> <Gold.Chemscore.DEClash.Weighted>
0.0686

> <Gold.Chemscore.DEInternal.Weighted>
0.9534

> <Gold.Chemscore.Rot.Weighted>
8.0597

> <Gold.Chemscore.Internal.Correction.Weighted>
   9.000000E+99

> <Gold.Protein.RotatedTorsions>
[ 6907 6896 6895 6894 ] final  172.03 input  -60.11 | X-H torsion
[ 7974 7965 7964 7962 ] final   21.51 input  175.53 | X-H torsion
[ 8008 7997 7996 7995 ] final  133.81 input   59.86 | X-H torsion
[ 10167 10162 10161 10158 ] final  137.78 input  -65.29 | X-H torsion
[ 10718 10713 10712 10709 ] final  -34.40 input   66.30 | X-H torsion
[ 10763 10752 10751 10750 ] final -137.38 input  -60.55 | X-H torsion
[ 11005 11000 10999 10996 ] final  -49.92 input  -57.11 | X-H torsion

> <Gold.Protein.ActiveResidues>
 VAL166  LYS551  ARG553  GLY616  TRP617  ASP618  TYR619  PRO620  LYS621  CYS622 
 ASP623  PHE694  ASN695  SER759  ASP760  ASP761  ALA762  ILE779  LEU786  VAL792 
 PHE793  MET794  SER795  GLU796  ALA797  LYS798  CYS799  TRP800  GLU811  SER814 

> <Gold.Protein.RotatedAtoms>
  151.7909  133.3359  159.3498 H   0  0  0  0  0  0  0  0  0  0  0  0  # atno 6907 bound_to 6896
  150.7392  134.5844  159.5964 H   0  0  0  0  0  0  0  0  0  0  0  0  # atno 6908 bound_to 6896
  152.3211  134.7380  160.0365 H   0  0  0  0  0  0  0  0  0  0  0  0  # atno 6909 bound_to 6896
  146.2068  139.8017  142.8719 H   0  0  0  0  0  0  0  0  0  0  0  0  # atno 7974 bound_to 7965
  156.2995  140.2512  156.3313 H   0  0  0  0  0  0  0  0  0  0  0  0  # atno 8008 bound_to 7997
  154.9142  140.0402  157.1982 H   0  0  0  0  0  0  0  0  0  0  0  0  # atno 8009 bound_to 7997
  154.8375  140.2885  155.5685 H   0  0  0  0  0  0  0  0  0  0  0  0  # atno 8010 bound_to 7997
  139.5133  144.6390  151.5619 H   0  0  0  0  0  0  0  0  0  0  0  0  # atno 10167 bound_to 10162
  156.3510  130.4308  149.7704 H   0  0  0  0  0  0  0  0  0  0  0  0  # atno 10718 bound_to 10713
  154.8663  135.3644  154.5213 H   0  0  0  0  0  0  0  0  0  0  0  0  # atno 10763 bound_to 10752
  153.5843  135.7017  153.5455 H   0  0  0  0  0  0  0  0  0  0  0  0  # atno 10764 bound_to 10752
  153.3429  135.4093  155.1548 H   0  0  0  0  0  0  0  0  0  0  0  0  # atno 10765 bound_to 10752
  141.0786  133.6659  156.3655 H   0  0  0  0  0  0  0  0  0  0  0  0  # atno 11005 bound_to 11000
  145.3289  141.0262  143.3458 LP  0  0  0  0  0  0  0  0  0  0  0  0  # atno 17320 bound_to 7965
  144.8813  139.4900  143.6721 LP  0  0  0  0  0  0  0  0  0  0  0  0  # atno 17321 bound_to 7965
  140.6150  143.9365  150.6482 LP  0  0  0  0  0  0  0  0  0  0  0  0  # atno 17342 bound_to 10162
  140.2620  143.3517  152.1314 LP  0  0  0  0  0  0  0  0  0  0  0  0  # atno 17343 bound_to 10162
  156.4905  130.8082  151.3092 LP  0  0  0  0  0  0  0  0  0  0  0  0  # atno 17370 bound_to 10713
  157.7461  130.9977  150.2825 LP  0  0  0  0  0  0  0  0  0  0  0  0  # atno 17371 bound_to 10713
  140.5518  134.6020  157.5409 LP  0  0  0  0  0  0  0  0  0  0  0  0  # atno 17394 bound_to 11000
  139.9599  134.7470  156.0259 LP  0  0  0  0  0  0  0  0  0  0  0  0  # atno 17395 bound_to 11000

$$$$
