AV-unprocessed.smi:39|AV-procd|sdf|356|dock4
  -GOLD-   2262016193D 1   1.00000     0.00000
 Structure written by MMmdl.
 32 33  0  0  0  0  0  0  0  0  3 V2000
  153.3204  142.0383  161.2754 C   0  0  0  0  0  0  0  0  0  0  0  0
  152.5697  142.0082  159.9541 C   0  0  0  0  0  0  0  0  0  0  0  0
  152.2062  140.8477  159.3502 C   0  0  0  0  0  0  0  0  0  0  0  0
  151.5138  140.7865  158.1457 N   0  0  0  0  0  0  0  0  0  0  0  0
  151.1410  139.4737  157.4822 C   0  0  2  0  0  0  0  0  0  0  0  0
  150.0727  138.7164  158.2890 C   0  0  0  0  0  0  0  0  0  0  0  0
  150.5701  137.2888  158.2017 C   0  0  2  0  0  0  0  0  0  0  0  0
  150.0242  136.4301  159.2565 N   0  0  0  0  0  0  0  0  0  0  0  0
  149.1242  136.9178  159.9529 N   0  3  0  0  0  0  0  0  0  0  0  0
  148.2171  137.3372  160.4973 N   0  5  0  0  0  0  0  0  0  0  0  0
  152.0943  137.4778  158.2402 C   0  0  2  0  0  0  0  0  0  0  0  0
  152.6955  137.7371  159.6409 C   0  0  0  0  0  0  0  0  0  0  0  0
  153.2779  136.5515  160.1378 O   0  0  0  0  0  0  0  0  0  0  0  0
  152.2616  138.6333  157.4179 O   0  0  0  0  0  0  0  0  0  0  0  0
  151.2119  141.9871  157.4689 C   0  0  0  0  0  0  0  0  0  0  0  0
  150.6513  142.0121  156.3739 O   0  0  0  0  0  0  0  0  0  0  0  0
  151.5798  143.1785  158.0906 N   0  0  0  0  0  0  0  0  0  0  0  0
  152.2421  143.2854  159.3152 C   0  0  0  0  0  0  0  0  0  0  0  0
  152.5081  144.3978  159.7673 O   0  0  0  0  0  0  0  0  0  0  0  0
  150.8270  139.7381  156.4706 H   0  0  0  0  0  0  0  0  0  0  0  0
  150.2947  136.9000  157.2188 H   0  0  0  0  0  0  0  0  0  0  0  0
  152.5861  136.6184  157.7823 H   0  0  0  0  0  0  0  0  0  0  0  0
  151.3546  144.0385  157.6117 H   0  0  0  0  0  0  0  0  0  0  0  0
  153.5046  141.0349  161.6606 H   0  0  0  0  0  0  0  0  0  0  0  0
  152.7481  142.5834  162.0268 H   0  0  0  0  0  0  0  0  0  0  0  0
  154.2851  142.5321  161.1538 H   0  0  0  0  0  0  0  0  0  0  0  0
  152.4814  139.9314  159.8494 H   0  0  0  0  0  0  0  0  0  0  0  0
  150.0670  139.0646  159.3235 H   0  0  0  0  0  0  0  0  0  0  0  0
  149.0800  138.8565  157.8601 H   0  0  0  0  0  0  0  0  0  0  0  0
  153.4261  138.5450  159.6365 H   0  0  0  0  0  0  0  0  0  0  0  0
  151.9176  138.0194  160.3494 H   0  0  0  0  0  0  0  0  0  0  0  0
  154.2174  136.6259  160.0677 H   0  0  0  0  0  0  0  0  0  0  0  0
  1  2  1  0  0  0  0
  1 24  1  0  0  0  0
  1 25  1  0  0  0  0
  1 26  1  0  0  0  0
  2 18  1  0  0  0  0
  2  3  2  0  0  0  0
  3  4  1  0  0  0  0
  3 27  1  0  0  0  0
  4  5  1  0  0  0  0
  4 15  1  0  0  0  0
  5 20  1  0  0  0  0
  5 14  1  0  0  0  0
  5  6  1  0  0  0  0
  6  7  1  0  0  0  0
  6 28  1  0  0  0  0
  6 29  1  0  0  0  0
  7 21  1  0  0  0  0
  7  8  1  0  0  0  0
  7 11  1  0  0  0  0
  8  9  2  0  0  0  0
  9 10  2  0  0  0  0
 11 22  1  0  0  0  0
 11 12  1  0  0  0  0
 11 14  1  0  0  0  0
 12 13  1  0  0  0  0
 12 30  1  0  0  0  0
 12 31  1  0  0  0  0
 13 32  1  0  0  0  0
 15 16  2  0  0  0  0
 15 17  1  0  0  0  0
 17 23  1  0  0  0  0
 17 18  1  0  0  0  0
 18 19  2  0  0  0  0
M  CHG  1   9   1
M  CHG  1  10  -1
M  END
> <s_m_source_file>
AV-unprocessed.smi

> <i_m_source_file_index>
39

> <i_lp_mmshare_version>
43012

> <i_f3d_flags>
0

> <s_epik_input>
Tz1jMVtuSF1jKD1PKW4oW2NIXWMxW0NIM10pW0NASF0yW0NIMl1bQ0BIXShOPVtOK109W04tXSlbQ0BIXShPMilbQ0gyXVtPSF0=

> <s_epik_cmdline>
J2VwaWtfcHl0aG9uJywgJy1waCcsICc3LjAnLCAnLXRuJywgJzgnLCAnLW1hJywgJzIwMCcsICctbWV0YWxfYmluZGluZycsICctaW1hZScsICc8aW5maWxlLm1hZT4nLCAnLW9tYWUnLCAnPG91dGZpbGUubWFlPic=

> <r_lp_tautomer_probability>
0.999537

> <r_epik_Ionization_Penalty>
0.00127512

> <r_epik_Ionization_Penalty_Charging>
0.00127507

> <r_epik_Ionization_Penalty_Neutral>
5.43433e-08

> <r_epik_State_Penalty>
0.000844892

> <r_epik_Charging_Adjusted_Penalty>
0.00211996

> <i_epik_Tot_Q>
0

> <i_epik_Tot_abs_Q>
2

> <r_epik_Metal_State_Penalty>
0.680636

> <b_epik_Metal_Only>
0

> <s_epik_Chemistry_Notes>
This compound contains an acetal/aminal-like group ( X-CH(R)-Y where X, Y are N, S, or O) that may be acid/base labile, releasing an aldehyde.

> <s_lp_Force_Field>
OPLS_2005

> <r_lp_Energy>
27.6629

> <b_lp_Chiralities_Consistent>
1

> <s_lp_Variant>
AV-unprocessed.smi:39-6

> <Gold.Version>
5.8.1

> <Gold.Id.Protein>
6NUR|6NUR_protein|mol2

> <Gold.PLP.Fitness>
39.6632

> <Gold.PLP.PLP>
-31.0941

> <Gold.PLP.part.hbond>
-4.8363

> <Gold.PLP.part.metal>
0.0000

> <Gold.PLP.part.buried>
-5.8745

> <Gold.PLP.part.nonpolar>
-20.7703

> <Gold.PLP.part.repulsive>
0.1448

> <Gold.PLP.ligand.clash>
0.0000

> <Gold.PLP.ligand.torsion>
0.7126

> <Gold.PLP.Chemscore.Hbond>
3.3200

> <Gold.PLP.Chemscore.CHOScore>
0.0000

> <Gold.PLP.Chemscore.Metal>
0.0000

> <Gold.Chemscore.Hbonds>
donor molecule, donor type, donor heavy atom, donor atom, acceptor molecule, acceptor atom, score
      P1  H  6896  6907       L1     8  0.96
      P1  H  6896  6908       L1    13  1.00
      P1  H  6931  6943       L1    10  0.69
      P1  H  6934  6947       L1    10  0.62

> <Gold.PLP.Chemscore.Internal.Correction>
0.0344

> <Gold.Rescore>
     Score         DG    S(hbond)    S(metal)    S(lipo)     H(rot)  DE(clash)    DE(int)     intcor
     11.96     -12.86       2.81        0.00      43.01       2.75       0.01       0.89       ----

> <Gold.Chemscore.Fitness>
11.9601

> <Gold.Chemscore.DG>
-12.8605

> <Gold.Chemscore.ZeroCoef>
-5.4800

> <Gold.Chemscore.Hbond>
2.8126

> <Gold.Chemscore.Metal>
0.0000

> <Gold.Chemscore.Lipo>
43.0124

> <Gold.Chemscore.Internal_Hbond>
0.0000

> <Gold.Chemscore.DEClash>
0.0115

> <Gold.Chemscore.DEInternal>
0.8889

> <Gold.Chemscore.Rot>
2.7524

> <Gold.Chemscore.Internal.Correction>
   9.000000E+99

> <Gold.Chemscore.Hbonds>
donor molecule, donor type, donor heavy atom, donor atom, acceptor molecule, acceptor atom, score
      P1  H  6896  6907       L1     8  0.90
      P1  H  6896  6908       L1    13  0.88
      P1  H  6931  6943       L1    10  0.20
      P1  H  6934  6947       L1    10  0.59

> <Gold.Chemscore.Hbond.Weighted>
-9.3942

> <Gold.Chemscore.Metal.Weighted>
-0.0000

> <Gold.Chemscore.Lipo.Weighted>
-5.0325

> <Gold.Chemscore.Internal_Hbond.Weighted>
0.0000

> <Gold.Chemscore.DEClash.Weighted>
0.0115

> <Gold.Chemscore.DEInternal.Weighted>
0.8889

> <Gold.Chemscore.Rot.Weighted>
7.0461

> <Gold.Chemscore.Internal.Correction.Weighted>
   9.000000E+99

> <Gold.Protein.RotatedTorsions>
[ 6907 6896 6895 6894 ] final  -63.17 input  -60.11 | X-H torsion
[ 7974 7965 7964 7962 ] final -127.43 input  175.53 | X-H torsion
[ 8008 7997 7996 7995 ] final  166.09 input   59.86 | X-H torsion
[ 10167 10162 10161 10158 ] final -160.17 input  -65.29 | X-H torsion
[ 10718 10713 10712 10709 ] final   24.15 input   66.30 | X-H torsion
[ 10763 10752 10751 10750 ] final  -74.54 input  -60.55 | X-H torsion
[ 11005 11000 10999 10996 ] final -112.48 input  -57.11 | X-H torsion

> <Gold.Protein.ActiveResidues>
 VAL166  LYS551  ARG553  GLY616  TRP617  ASP618  TYR619  PRO620  LYS621  CYS622 
 ASP623  PHE694  ASN695  SER759  ASP760  ASP761  ALA762  ILE779  LEU786  VAL792 
 PHE793  MET794  SER795  GLU796  ALA797  LYS798  CYS799  TRP800  GLU811  SER814 

> <Gold.Protein.RotatedAtoms>
  150.7667  134.6472  159.6268 H   0  0  0  0  0  0  0  0  0  0  0  0  # atno 6907 bound_to 6896
  152.3701  134.6743  160.0188 H   0  0  0  0  0  0  0  0  0  0  0  0  # atno 6908 bound_to 6896
  151.7105  133.3276  159.3326 H   0  0  0  0  0  0  0  0  0  0  0  0  # atno 6909 bound_to 6896
  144.9771  140.7604  143.4635 H   0  0  0  0  0  0  0  0  0  0  0  0  # atno 7974 bound_to 7965
  156.1747  140.1653  156.8383 H   0  0  0  0  0  0  0  0  0  0  0  0  # atno 8008 bound_to 7997
  154.5294  140.0760  156.8352 H   0  0  0  0  0  0  0  0  0  0  0  0  # atno 8009 bound_to 7997
  155.3438  140.3386  155.4241 H   0  0  0  0  0  0  0  0  0  0  0  0  # atno 8010 bound_to 7997
  139.6560  143.9998  152.2194 H   0  0  0  0  0  0  0  0  0  0  0  0  # atno 10167 bound_to 10162
  157.1759  130.6780  149.6095 H   0  0  0  0  0  0  0  0  0  0  0  0  # atno 10718 bound_to 10713
  154.4745  135.5861  153.6345 H   0  0  0  0  0  0  0  0  0  0  0  0  # atno 10763 bound_to 10752
  152.9839  135.6075  154.3325 H   0  0  0  0  0  0  0  0  0  0  0  0  # atno 10764 bound_to 10752
  154.3210  135.2843  155.2499 H   0  0  0  0  0  0  0  0  0  0  0  0  # atno 10765 bound_to 10752
  141.0672  133.9439  157.2555 H   0  0  0  0  0  0  0  0  0  0  0  0  # atno 11005 bound_to 11000
  145.2474  139.2046  143.4960 LP  0  0  0  0  0  0  0  0  0  0  0  0  # atno 17320 bound_to 7965
  146.3398  140.2381  142.8595 LP  0  0  0  0  0  0  0  0  0  0  0  0  # atno 17321 bound_to 7965
  139.9725  144.6484  150.7976 LP  0  0  0  0  0  0  0  0  0  0  0  0  # atno 17342 bound_to 10162
  140.7559  143.3055  151.2972 LP  0  0  0  0  0  0  0  0  0  0  0  0  # atno 17343 bound_to 10162
  155.9731  130.4663  150.6285 LP  0  0  0  0  0  0  0  0  0  0  0  0  # atno 17370 bound_to 10713
  157.3999  131.0808  151.1318 LP  0  0  0  0  0  0  0  0  0  0  0  0  # atno 17371 bound_to 10713
  139.9488  135.0179  156.8933 LP  0  0  0  0  0  0  0  0  0  0  0  0  # atno 17394 bound_to 11000
  140.5748  134.0409  155.7443 LP  0  0  0  0  0  0  0  0  0  0  0  0  # atno 17395 bound_to 11000

$$$$
