AV-unprocessed.smi:1727|AV-procd|sdf|6965|dock6
  -GOLD-   22720 8183D 1   1.00000     0.00000
 Structure written by MMmdl.
 49 51  0  0  0  0  0  0  0  0  1 V2000
  151.3652  140.8907  158.7038 C   0  0  0  0  0  0  0  0  0  0  0  0
  152.2328  140.1148  157.7100 C   0  0  0  0  0  0  0  0  0  0  0  0
  153.1690  139.4512  158.1558 O   0  0  0  0  0  0  0  0  0  0  0  0
  151.9451  140.1792  156.3876 N   0  0  0  0  0  0  0  0  0  0  0  0
  152.6834  139.4127  155.3771 C   0  0  0  0  0  0  0  0  0  0  0  0
  151.7702  138.3003  154.8313 C   0  0  0  0  0  0  0  0  0  0  0  0
  150.4538  138.8795  154.2706 C   0  0  0  0  0  0  0  0  0  0  0  0
  149.5440  137.7899  153.9316 N   0  0  0  0  0  0  0  0  0  0  0  0
  148.7755  137.1242  154.8050 C   0  0  0  0  0  0  0  0  0  0  0  0
  148.7493  137.3638  156.0124 O   0  0  0  0  0  0  0  0  0  0  0  0
  148.0679  136.1608  154.1924 N   0  0  0  0  0  0  0  0  0  0  0  0
  147.1860  135.2158  154.7872 C   0  0  0  0  0  0  0  0  0  0  0  0
  147.1415  135.0341  156.1910 C   0  0  0  0  0  0  0  0  0  0  0  0
  146.2047  134.1431  156.7420 C   0  0  0  0  0  0  0  0  0  0  0  0
  145.3310  133.4747  155.8687 C   0  0  0  0  0  0  0  0  0  0  0  0
  145.3516  133.6464  154.5318 N   0  0  0  0  0  0  0  0  0  0  0  0
  146.2593  134.4915  153.9833 C   0  0  0  0  0  0  0  0  0  0  0  0
  146.2454  134.6168  152.5748 N   0  0  0  0  0  0  0  0  0  0  0  0
  145.1084  135.2309  151.8966 C   0  0  0  0  0  0  0  0  0  0  0  0
  145.2619  134.8364  150.4305 C   0  0  0  0  0  0  0  0  0  0  0  0
  145.8429  133.4298  150.5314 C   0  0  0  0  0  0  0  0  0  0  0  0
  146.7302  133.4928  151.7787 C   0  0  0  0  0  0  0  0  0  0  0  0
  149.7909  139.8489  155.2763 C   0  0  0  0  0  0  0  0  0  0  0  0
  150.8000  140.8861  155.8003 C   0  0  0  0  0  0  0  0  0  0  0  0
  150.3251  140.5692  158.6428 H   0  0  0  0  0  0  0  0  0  0  0  0
  151.4184  141.9621  158.5091 H   0  0  0  0  0  0  0  0  0  0  0  0
  151.7063  140.7211  159.7256 H   0  0  0  0  0  0  0  0  0  0  0  0
  152.9880  140.0789  154.5686 H   0  0  0  0  0  0  0  0  0  0  0  0
  153.6052  138.9780  155.7660 H   0  0  0  0  0  0  0  0  0  0  0  0
  152.2920  137.7376  154.0566 H   0  0  0  0  0  0  0  0  0  0  0  0
  151.5526  137.5933  155.6336 H   0  0  0  0  0  0  0  0  0  0  0  0
  150.6990  139.4372  153.3648 H   0  0  0  0  0  0  0  0  0  0  0  0
  149.5010  137.5204  152.9598 H   0  0  0  0  0  0  0  0  0  0  0  0
  148.2667  136.0125  153.2137 H   0  0  0  0  0  0  0  0  0  0  0  0
  147.7948  135.5817  156.8534 H   0  0  0  0  0  0  0  0  0  0  0  0
  146.1491  133.9867  157.8091 H   0  0  0  0  0  0  0  0  0  0  0  0
  144.5916  132.7879  156.2531 H   0  0  0  0  0  0  0  0  0  0  0  0
  144.1672  134.8354  152.2809 H   0  0  0  0  0  0  0  0  0  0  0  0
  145.1055  136.3135  152.0265 H   0  0  0  0  0  0  0  0  0  0  0  0
  144.3222  134.8738  149.8789 H   0  0  0  0  0  0  0  0  0  0  0  0
  145.9737  135.4996  149.9371 H   0  0  0  0  0  0  0  0  0  0  0  0
  145.0370  132.7120  150.6905 H   0  0  0  0  0  0  0  0  0  0  0  0
  146.3894  133.1287  149.6376 H   0  0  0  0  0  0  0  0  0  0  0  0
  147.7630  133.6876  151.4887 H   0  0  0  0  0  0  0  0  0  0  0  0
  146.7054  132.5538  152.3333 H   0  0  0  0  0  0  0  0  0  0  0  0
  148.9471  140.3577  154.8088 H   0  0  0  0  0  0  0  0  0  0  0  0
  149.3847  139.2879  156.1194 H   0  0  0  0  0  0  0  0  0  0  0  0
  150.3053  141.5676  156.4904 H   0  0  0  0  0  0  0  0  0  0  0  0
  151.1497  141.5113  154.9775 H   0  0  0  0  0  0  0  0  0  0  0  0
  1  2  1  0  0  0  0
  1 25  1  0  0  0  0
  1 26  1  0  0  0  0
  1 27  1  0  0  0  0
  2  3  2  0  0  0  0
  2  4  1  0  0  0  0
  4 24  1  0  0  0  0
  4  5  1  0  0  0  0
  5  6  1  0  0  0  0
  5 28  1  0  0  0  0
  5 29  1  0  0  0  0
  6  7  1  0  0  0  0
  6 30  1  0  0  0  0
  6 31  1  0  0  0  0
  7  8  1  0  0  0  0
  7 23  1  0  0  0  0
  7 32  1  0  0  0  0
  8  9  1  0  0  0  0
  8 33  1  0  0  0  0
  9 10  2  0  0  0  0
  9 11  1  0  0  0  0
 11 12  1  0  0  0  0
 11 34  1  0  0  0  0
 12 17  1  0  0  0  0
 12 13  2  0  0  0  0
 13 14  1  0  0  0  0
 13 35  1  0  0  0  0
 14 15  2  0  0  0  0
 14 36  1  0  0  0  0
 15 16  1  0  0  0  0
 15 37  1  0  0  0  0
 16 17  2  0  0  0  0
 17 18  1  0  0  0  0
 18 22  1  0  0  0  0
 18 19  1  0  0  0  0
 19 20  1  0  0  0  0
 19 38  1  0  0  0  0
 19 39  1  0  0  0  0
 20 21  1  0  0  0  0
 20 40  1  0  0  0  0
 20 41  1  0  0  0  0
 21 22  1  0  0  0  0
 21 42  1  0  0  0  0
 21 43  1  0  0  0  0
 22 44  1  0  0  0  0
 22 45  1  0  0  0  0
 23 24  1  0  0  0  0
 23 46  1  0  0  0  0
 23 47  1  0  0  0  0
 24 48  1  0  0  0  0
 24 49  1  0  0  0  0
M  END
> <s_m_source_file>
AV-unprocessed.smi

> <i_m_source_file_index>
1727

> <i_lp_mmshare_version>
43012

> <i_f3d_flags>
0

> <s_epik_input>
W0NIM11DKD1PKU4xW0NIMl1bQ0gyXVtDSF0oW0NIMl1bQ0gyXTEpW05IXUMoPU8pW05IXWMyW2NIXVtjSF1bY0hdbmMyTjNbQ0gyXVtDSDJdW0NIMl1bQ0gyXTM=

> <s_epik_cmdline>
J2VwaWtfcHl0aG9uJywgJy1waCcsICc3LjAnLCAnLXRuJywgJzgnLCAnLW1hJywgJzIwMCcsICctbWV0YWxfYmluZGluZycsICctaW1hZScsICc8aW5maWxlLm1hZT4nLCAnLW9tYWUnLCAnPG91dGZpbGUubWFlPic=

> <r_lp_tautomer_probability>
1

> <r_epik_Ionization_Penalty>
0.102256

> <r_epik_Ionization_Penalty_Charging>
0

> <r_epik_Ionization_Penalty_Neutral>
0.102256

> <r_epik_State_Penalty>
0.0916633

> <r_epik_Charging_Adjusted_Penalty>
0.0916633

> <i_epik_Tot_Q>
0

> <i_epik_Tot_abs_Q>
0

> <r_epik_Metal_State_Penalty>
0.0781079

> <b_epik_Metal_Only>
0

> <s_lp_Force_Field>
OPLS_2005

> <r_lp_Energy>
49.5361

> <b_lp_Chiralities_Consistent>
1

> <s_lp_Variant>
AV-unprocessed.smi:1727-1

> <Gold.Version>
5.8.1

> <Gold.Id.Protein>
6NUR|6NUR_protein|mol2

> <Gold.PLP.Fitness>
41.4777

> <Gold.PLP.PLP>
-31.0801

> <Gold.PLP.part.hbond>
-3.0000

> <Gold.PLP.part.metal>
0.0000

> <Gold.PLP.part.buried>
-1.6651

> <Gold.PLP.part.nonpolar>
-27.3980

> <Gold.PLP.part.repulsive>
0.2423

> <Gold.PLP.ligand.clash>
0.0000

> <Gold.PLP.ligand.torsion>
0.4791

> <Gold.PLP.Chemscore.Hbond>
2.8160

> <Gold.PLP.Chemscore.CHOScore>
0.8550

> <Gold.PLP.Chemscore.Metal>
0.0000

> <Gold.Chemscore.Hbonds>
donor molecule, donor type, donor heavy atom, donor atom, acceptor molecule, acceptor atom, score
      L1  H     8    33       P1  7948  0.90
      L1  H    11    34       P1  7948  0.99
      P1  H  7997  8009       L1     3  1.00
      L1  C    15    37       P1 10957  0.74

> <Gold.PLP.Chemscore.Internal.Correction>
0.3427

> <Gold.Rescore>
     Score         DG    S(hbond)    S(metal)    S(lipo)     H(rot)  DE(clash)    DE(int)     intcor
     16.26     -19.42       2.75        0.00      67.23       1.21       0.03       3.13       ----

> <Gold.Chemscore.Fitness>
16.2597

> <Gold.Chemscore.DG>
-19.4169

> <Gold.Chemscore.ZeroCoef>
-5.4800

> <Gold.Chemscore.Hbond>
2.7464

> <Gold.Chemscore.Metal>
0.0000

> <Gold.Chemscore.Lipo>
67.2303

> <Gold.Chemscore.Internal_Hbond>
0.0000

> <Gold.Chemscore.DEClash>
0.0251

> <Gold.Chemscore.DEInternal>
3.1322

> <Gold.Chemscore.Rot>
1.2117

> <Gold.Chemscore.Internal.Correction>
   9.000000E+99

> <Gold.Chemscore.Hbonds>
donor molecule, donor type, donor heavy atom, donor atom, acceptor molecule, acceptor atom, score
      L1  H     8    33       P1  7948  0.72
      L1  H    11    34       P1  7948  0.92
      P1  H  7997  8009       L1     3  0.40

> <Gold.Chemscore.Hbond.Weighted>
-9.1729

> <Gold.Chemscore.Metal.Weighted>
-0.0000

> <Gold.Chemscore.Lipo.Weighted>
-7.8659

> <Gold.Chemscore.Internal_Hbond.Weighted>
0.0000

> <Gold.Chemscore.DEClash.Weighted>
0.0251

> <Gold.Chemscore.DEInternal.Weighted>
3.1322

> <Gold.Chemscore.Rot.Weighted>
3.1019

> <Gold.Chemscore.Internal.Correction.Weighted>
   9.000000E+99

> <Gold.Protein.RotatedTorsions>
[ 6907 6896 6895 6894 ] final   85.76 input  -60.11 | X-H torsion
[ 7974 7965 7964 7962 ] final  -14.67 input  175.53 | X-H torsion
[ 8008 7997 7996 7995 ] final  148.59 input   59.86 | X-H torsion
[ 10167 10162 10161 10158 ] final  109.37 input  -65.29 | X-H torsion
[ 10718 10713 10712 10709 ] final   85.25 input   66.30 | X-H torsion
[ 10763 10752 10751 10750 ] final   29.23 input  -60.55 | X-H torsion
[ 11005 11000 10999 10996 ] final   19.10 input  -57.11 | X-H torsion

> <Gold.Protein.ActiveResidues>
 VAL166  LYS551  ARG553  GLY616  TRP617  ASP618  TYR619  PRO620  LYS621  CYS622 
 ASP623  PHE694  ASN695  SER759  ASP760  ASP761  ALA762  ILE779  LEU786  VAL792 
 PHE793  MET794  SER795  GLU796  ALA797  LYS798  CYS799  TRP800  GLU811  SER814 

> <Gold.Protein.RotatedAtoms>
  152.5381  134.2536  159.8907 H   0  0  0  0  0  0  0  0  0  0  0  0  # atno 6907 bound_to 6896
  151.2498  133.4349  159.2618 H   0  0  0  0  0  0  0  0  0  0  0  0  # atno 6908 bound_to 6896
  151.0550  134.9712  159.8287 H   0  0  0  0  0  0  0  0  0  0  0  0  # atno 6909 bound_to 6896
  146.2064  140.3383  142.8405 H   0  0  0  0  0  0  0  0  0  0  0  0  # atno 7974 bound_to 7965
  156.2786  140.2125  156.5722 H   0  0  0  0  0  0  0  0  0  0  0  0  # atno 8008 bound_to 7997
  154.7126  140.0510  157.0588 H   0  0  0  0  0  0  0  0  0  0  0  0  # atno 8009 bound_to 7997
  155.0584  140.3164  155.4671 H   0  0  0  0  0  0  0  0  0  0  0  0  # atno 8010 bound_to 7997
  139.6772  144.7121  151.1581 H   0  0  0  0  0  0  0  0  0  0  0  0  # atno 10167 bound_to 10162
  157.6911  131.0167  150.2794 H   0  0  0  0  0  0  0  0  0  0  0  0  # atno 10718 bound_to 10713
  153.0443  135.6494  154.0859 H   0  0  0  0  0  0  0  0  0  0  0  0  # atno 10763 bound_to 10752
  154.0560  135.2892  155.3334 H   0  0  0  0  0  0  0  0  0  0  0  0  # atno 10764 bound_to 10752
  154.6689  135.5364  153.8178 H   0  0  0  0  0  0  0  0  0  0  0  0  # atno 10765 bound_to 10752
  140.4174  134.1554  155.7670 H   0  0  0  0  0  0  0  0  0  0  0  0  # atno 11005 bound_to 11000
  144.8804  140.7392  143.5990 LP  0  0  0  0  0  0  0  0  0  0  0  0  # atno 17320 bound_to 7965
  145.3303  139.1761  143.4540 LP  0  0  0  0  0  0  0  0  0  0  0  0  # atno 17321 bound_to 7965
  140.7639  143.5754  150.8951 LP  0  0  0  0  0  0  0  0  0  0  0  0  # atno 17342 bound_to 10162
  139.9424  143.6367  152.3050 LP  0  0  0  0  0  0  0  0  0  0  0  0  # atno 17343 bound_to 10162
  156.3343  130.3805  149.7463 LP  0  0  0  0  0  0  0  0  0  0  0  0  # atno 17370 bound_to 10713
  156.4993  130.8121  151.3126 LP  0  0  0  0  0  0  0  0  0  0  0  0  # atno 17371 bound_to 10713
  141.1797  133.8439  157.1299 LP  0  0  0  0  0  0  0  0  0  0  0  0  # atno 17394 bound_to 11000
  140.0224  134.9939  157.0619 LP  0  0  0  0  0  0  0  0  0  0  0  0  # atno 17395 bound_to 11000

$$$$
