AV-unprocessed.smi:939|AV-procd|sdf|4218|dock8
  -GOLD-   22720 2123D 1   1.00000     0.00000
 Structure written by MMmdl.
 36 37  0  0  0  0  0  0  0  0  1 V2000
  153.9417  141.1928  160.7234 C   0  0  0  0  0  0  0  0  0  0  0  0
  153.3443  142.4960  160.1816 C   0  0  0  0  0  0  0  0  0  0  0  0
  152.4881  142.2685  158.9710 C   0  0  0  0  0  0  0  0  0  0  0  0
  152.2869  140.9642  158.5115 N   0  0  0  0  0  0  0  0  0  0  0  0
  151.5075  140.9107  157.4289 C   0  0  0  0  0  0  0  0  0  0  0  0
  151.0789  139.6324  156.7807 C   0  0  0  0  0  0  0  0  0  0  0  0
  151.3725  139.5798  155.2685 C   0  0  0  0  0  0  0  0  0  0  0  0
  150.2972  138.9359  154.5219 N   0  0  0  0  0  0  0  0  0  0  0  0
  149.0930  139.4777  154.2761 C   0  0  0  0  0  0  0  0  0  0  0  0
  148.7181  140.5428  154.7627 O   0  0  0  0  0  0  0  0  0  0  0  0
  148.3311  138.7838  153.4122 N   0  0  0  0  0  0  0  0  0  0  0  0
  147.0119  139.1037  152.9560 C   0  0  0  0  0  0  0  0  0  0  0  0
  146.1711  137.9884  152.3753 C   0  0  0  0  0  0  0  0  0  0  0  0
  146.7580  139.0346  151.4663 C   0  0  0  0  0  0  0  0  0  0  0  0
  150.9589  142.4931  156.8969 S   0  0  0  0  0  0  0  0  0  0  0  0
  151.8494  143.2201  158.2105 C   0  0  0  0  0  0  0  0  0  0  0  0
  151.8542  144.7001  158.4034 C   0  0  0  0  0  0  0  0  0  0  0  0
  154.5624  141.3843  161.5988 H   0  0  0  0  0  0  0  0  0  0  0  0
  154.5647  140.7051  159.9729 H   0  0  0  0  0  0  0  0  0  0  0  0
  153.1592  140.4924  161.0165 H   0  0  0  0  0  0  0  0  0  0  0  0
  152.7581  142.9747  160.9670 H   0  0  0  0  0  0  0  0  0  0  0  0
  154.1506  143.1921  159.9504 H   0  0  0  0  0  0  0  0  0  0  0  0
  151.5753  138.8020  157.2833 H   0  0  0  0  0  0  0  0  0  0  0  0
  150.0100  139.4994  156.9533 H   0  0  0  0  0  0  0  0  0  0  0  0
  151.4710  140.5954  154.8846 H   0  0  0  0  0  0  0  0  0  0  0  0
  152.3259  139.0845  155.0793 H   0  0  0  0  0  0  0  0  0  0  0  0
  150.5161  138.0552  154.0796 H   0  0  0  0  0  0  0  0  0  0  0  0
  148.7398  137.9460  153.0236 H   0  0  0  0  0  0  0  0  0  0  0  0
  146.4779  139.8994  153.4731 H   0  0  0  0  0  0  0  0  0  0  0  0
  146.6048  136.9907  152.3418 H   0  0  0  0  0  0  0  0  0  0  0  0
  145.0994  138.0231  152.5605 H   0  0  0  0  0  0  0  0  0  0  0  0
  146.0769  139.7678  151.0388 H   0  0  0  0  0  0  0  0  0  0  0  0
  147.5821  138.7336  150.8218 H   0  0  0  0  0  0  0  0  0  0  0  0
  152.8735  145.0868  158.3976 H   0  0  0  0  0  0  0  0  0  0  0  0
  151.3965  144.9672  159.3561 H   0  0  0  0  0  0  0  0  0  0  0  0
  151.3000  145.2047  157.6118 H   0  0  0  0  0  0  0  0  0  0  0  0
  1  2  1  0  0  0  0
  1 18  1  0  0  0  0
  1 19  1  0  0  0  0
  1 20  1  0  0  0  0
  2  3  1  0  0  0  0
  2 21  1  0  0  0  0
  2 22  1  0  0  0  0
  3 16  2  0  0  0  0
  3  4  1  0  0  0  0
  4  5  2  0  0  0  0
  5  6  1  0  0  0  0
  5 15  1  0  0  0  0
  6  7  1  0  0  0  0
  6 23  1  0  0  0  0
  6 24  1  0  0  0  0
  7  8  1  0  0  0  0
  7 25  1  0  0  0  0
  7 26  1  0  0  0  0
  8  9  1  0  0  0  0
  8 27  1  0  0  0  0
  9 10  2  0  0  0  0
  9 11  1  0  0  0  0
 11 12  1  0  0  0  0
 11 28  1  0  0  0  0
 12 14  1  0  0  0  0
 12 13  1  0  0  0  0
 12 29  1  0  0  0  0
 13 14  1  0  0  0  0
 13 30  1  0  0  0  0
 13 31  1  0  0  0  0
 14 32  1  0  0  0  0
 14 33  1  0  0  0  0
 15 16  1  0  0  0  0
 16 17  1  0  0  0  0
 17 34  1  0  0  0  0
 17 35  1  0  0  0  0
 17 36  1  0  0  0  0
M  END
> <s_m_source_file>
AV-unprocessed.smi

> <i_m_source_file_index>
939

> <i_lp_mmshare_version>
43012

> <i_f3d_flags>
0

> <s_epik_input>
W0NIM11bQ0gyXWMxbmMoc2MxW0NIM10pW0NIMl1bQ0gyXVtOSF1DKD1PKVtOSF1bQ0hdMltDSDJdW0NIMl0y

> <s_epik_cmdline>
J2VwaWtfcHl0aG9uJywgJy1waCcsICc3LjAnLCAnLXRuJywgJzgnLCAnLW1hJywgJzIwMCcsICctbWV0YWxfYmluZGluZycsICctaW1hZScsICc8aW5maWxlLm1hZT4nLCAnLW9tYWUnLCAnPG91dGZpbGUubWFlPic=

> <r_epik_Ionization_Penalty>
0.00437198

> <r_epik_Ionization_Penalty_Charging>
0

> <r_epik_Ionization_Penalty_Neutral>
0.00437198

> <r_epik_State_Penalty>
0.00310304

> <r_epik_Charging_Adjusted_Penalty>
0.00310304

> <i_epik_Tot_Q>
0

> <i_epik_Tot_abs_Q>
0

> <r_epik_Metal_State_Penalty>
-0

> <b_epik_Metal_Only>
0

> <s_lp_Force_Field>
OPLS_2005

> <r_lp_Energy>
13.9428

> <b_lp_Chiralities_Consistent>
1

> <s_lp_Variant>
AV-unprocessed.smi:939-1

> <Gold.Version>
5.8.1

> <Gold.Id.Protein>
6NUR|6NUR_protein|mol2

> <Gold.PLP.Fitness>
42.5673

> <Gold.PLP.PLP>
-40.7196

> <Gold.PLP.part.hbond>
-2.0000

> <Gold.PLP.part.metal>
0.0000

> <Gold.PLP.part.buried>
-0.4205

> <Gold.PLP.part.nonpolar>
-37.7711

> <Gold.PLP.part.repulsive>
0.2311

> <Gold.PLP.ligand.clash>
0.0000

> <Gold.PLP.ligand.torsion>
0.5936

> <Gold.PLP.Chemscore.Hbond>
0.9913

> <Gold.PLP.Chemscore.CHOScore>
0.0000

> <Gold.PLP.Chemscore.Metal>
0.0000

> <Gold.Chemscore.Hbonds>
donor molecule, donor type, donor heavy atom, donor atom, acceptor molecule, acceptor atom, score
      L1  H    11    28       P1  7948  0.93

> <Gold.PLP.Chemscore.Internal.Correction>
0.0612

> <Gold.Rescore>
     Score         DG    S(hbond)    S(metal)    S(lipo)     H(rot)  DE(clash)    DE(int)     intcor
     16.54     -17.25       0.99        0.00     109.24       1.69       0.07       0.64       ----

> <Gold.Chemscore.Fitness>
16.5373

> <Gold.Chemscore.DG>
-17.2477

> <Gold.Chemscore.ZeroCoef>
-5.4800

> <Gold.Chemscore.Hbond>
0.9944

> <Gold.Chemscore.Metal>
0.0000

> <Gold.Chemscore.Lipo>
109.2425

> <Gold.Chemscore.Internal_Hbond>
0.0000

> <Gold.Chemscore.DEClash>
0.0748

> <Gold.Chemscore.DEInternal>
0.6356

> <Gold.Chemscore.Rot>
1.6934

> <Gold.Chemscore.Internal.Correction>
   9.000000E+99

> <Gold.Chemscore.Hbonds>
donor molecule, donor type, donor heavy atom, donor atom, acceptor molecule, acceptor atom, score
      L1  H    11    28       P1  7948  0.88

> <Gold.Chemscore.Hbond.Weighted>
-3.3214

> <Gold.Chemscore.Metal.Weighted>
-0.0000

> <Gold.Chemscore.Lipo.Weighted>
-12.7814

> <Gold.Chemscore.Internal_Hbond.Weighted>
0.0000

> <Gold.Chemscore.DEClash.Weighted>
0.0748

> <Gold.Chemscore.DEInternal.Weighted>
0.6356

> <Gold.Chemscore.Rot.Weighted>
4.3351

> <Gold.Chemscore.Internal.Correction.Weighted>
   9.000000E+99

> <Gold.Protein.RotatedTorsions>
[ 6907 6896 6895 6894 ] final  108.37 input  -60.11 | X-H torsion
[ 7974 7965 7964 7962 ] final -164.31 input  175.53 | X-H torsion
[ 8008 7997 7996 7995 ] final -167.40 input   59.86 | X-H torsion
[ 10167 10162 10161 10158 ] final  -65.68 input  -65.29 | X-H torsion
[ 10718 10713 10712 10709 ] final  -36.38 input   66.30 | X-H torsion
[ 10763 10752 10751 10750 ] final -175.67 input  -60.55 | X-H torsion
[ 11005 11000 10999 10996 ] final   71.10 input  -57.11 | X-H torsion

> <Gold.Protein.ActiveResidues>
 VAL166  LYS551  ARG553  GLY616  TRP617  ASP618  TYR619  PRO620  LYS621  CYS622 
 ASP623  PHE694  ASN695  SER759  ASP760  ASP761  ALA762  ILE779  LEU786  VAL792 
 PHE793  MET794  SER795  GLU796  ALA797  LYS798  CYS799  TRP800  GLU811  SER814 

> <Gold.Protein.RotatedAtoms>
  152.5115  133.9098  159.7481 H   0  0  0  0  0  0  0  0  0  0  0  0  # atno 6907 bound_to 6896
  150.9494  133.6558  159.2782 H   0  0  0  0  0  0  0  0  0  0  0  0  # atno 6908 bound_to 6896
  151.3841  135.0950  159.9558 H   0  0  0  0  0  0  0  0  0  0  0  0  # atno 6909 bound_to 6896
  144.7300  140.2979  143.6209 H   0  0  0  0  0  0  0  0  0  0  0  0  # atno 7974 bound_to 7965
  155.8771  140.1003  157.1511 H   0  0  0  0  0  0  0  0  0  0  0  0  # atno 8008 bound_to 7997
  154.4002  140.1336  156.4214 H   0  0  0  0  0  0  0  0  0  0  0  0  # atno 8009 bound_to 7997
  155.7685  140.3461  155.5237 H   0  0  0  0  0  0  0  0  0  0  0  0  # atno 8010 bound_to 7997
  140.5712  143.2318  151.6534 H   0  0  0  0  0  0  0  0  0  0  0  0  # atno 10167 bound_to 10162
  156.3275  130.4274  149.7903 H   0  0  0  0  0  0  0  0  0  0  0  0  # atno 10718 bound_to 10713
  154.5815  135.2836  155.0727 H   0  0  0  0  0  0  0  0  0  0  0  0  # atno 10763 bound_to 10752
  154.2062  135.6416  153.5105 H   0  0  0  0  0  0  0  0  0  0  0  0  # atno 10764 bound_to 10752
  153.0090  135.5480  154.6471 H   0  0  0  0  0  0  0  0  0  0  0  0  # atno 10765 bound_to 10752
  139.9561  134.7141  156.0749 H   0  0  0  0  0  0  0  0  0  0  0  0  # atno 11005 bound_to 11000
  145.7789  139.1884  143.2169 LP  0  0  0  0  0  0  0  0  0  0  0  0  # atno 17320 bound_to 7965
  146.0850  140.7721  142.9623 LP  0  0  0  0  0  0  0  0  0  0  0  0  # atno 17321 bound_to 7965
  139.5118  144.3495  152.0665 LP  0  0  0  0  0  0  0  0  0  0  0  0  # atno 17342 bound_to 10162
  140.2633  144.4044  150.6177 LP  0  0  0  0  0  0  0  0  0  0  0  0  # atno 17343 bound_to 10162
  156.5187  130.8205  151.3196 LP  0  0  0  0  0  0  0  0  0  0  0  0  # atno 17370 bound_to 10713
  157.7424  130.9890  150.2514 LP  0  0  0  0  0  0  0  0  0  0  0  0  # atno 17371 bound_to 10713
  141.1233  133.6606  156.3271 LP  0  0  0  0  0  0  0  0  0  0  0  0  # atno 17394 bound_to 11000
  140.5605  134.5939  157.5432 LP  0  0  0  0  0  0  0  0  0  0  0  0  # atno 17395 bound_to 11000

$$$$
