AV-unprocessed.smi:1311|AV-procd|sdf|5446|dock9
  -GOLD-   22720 5 13D 1   1.00000     0.00000
 Structure written by MMmdl.
 46 47  0  0  0  0  0  0  0  0  2 V2000
  146.8453  139.8528  153.4295 C   0  0  0  0  0  0  0  0  0  0  0  0
  146.7380  138.6401  152.4907 C   0  0  0  0  0  0  0  0  0  0  0  0
  146.1822  137.3503  153.1544 C   0  0  2  0  0  0  0  0  0  0  0  0
  146.9076  136.9999  154.4813 C   0  0  0  0  0  0  0  0  0  0  0  0
  148.1941  136.3448  154.2579 N   0  0  0  0  0  0  0  0  0  0  0  0
  148.9752  135.8014  155.2047 C   0  0  0  0  0  0  0  0  0  0  0  0
  148.6862  135.7857  156.4006 O   0  0  0  0  0  0  0  0  0  0  0  0
  150.2891  135.1815  154.7296 C   0  0  0  0  0  0  0  0  0  0  0  0
  150.1431  133.6844  154.6526 C   0  0  0  0  0  0  0  0  0  0  0  0
  150.8094  132.6982  155.4353 C   0  0  0  0  0  0  0  0  0  0  0  0
  151.8185  132.9016  156.5290 C   0  0  0  0  0  0  0  0  0  0  0  0
  150.4423  131.4720  155.1022 N   0  0  0  0  0  0  0  0  0  0  0  0
  149.5079  131.6185  154.0725 O   0  0  0  0  0  0  0  0  0  0  0  0
  149.3467  132.9430  153.8238 C   0  0  0  0  0  0  0  0  0  0  0  0
  148.3821  133.3118  152.7480 C   0  0  0  0  0  0  0  0  0  0  0  0
  146.1915  136.2064  152.1940 N   0  3  0  0  0  0  0  0  0  0  0  0
  145.7159  134.9099  152.7247 C   0  0  0  0  0  0  0  0  0  0  0  0
  145.3620  134.0841  151.4935 C   0  0  0  0  0  0  0  0  0  0  0  0
  144.7675  135.1196  150.5467 C   0  0  0  0  0  0  0  0  0  0  0  0
  145.4577  136.4379  150.9230 C   0  0  0  0  0  0  0  0  0  0  0  0
  147.2322  140.7189  152.8922 H   0  0  0  0  0  0  0  0  0  0  0  0
  147.5206  139.6572  154.2622 H   0  0  0  0  0  0  0  0  0  0  0  0
  145.8778  140.1336  153.8430 H   0  0  0  0  0  0  0  0  0  0  0  0
  146.1186  138.9123  151.6362 H   0  0  0  0  0  0  0  0  0  0  0  0
  147.7209  138.4472  152.0618 H   0  0  0  0  0  0  0  0  0  0  0  0
  145.1375  137.5411  153.4059 H   0  0  0  0  0  0  0  0  0  0  0  0
  147.1331  137.9048  155.0447 H   0  0  0  0  0  0  0  0  0  0  0  0
  146.2612  136.4017  155.1252 H   0  0  0  0  0  0  0  0  0  0  0  0
  148.5252  136.3103  153.3043 H   0  0  0  0  0  0  0  0  0  0  0  0
  150.5446  135.6057  153.7581 H   0  0  0  0  0  0  0  0  0  0  0  0
  151.0967  135.4685  155.4045 H   0  0  0  0  0  0  0  0  0  0  0  0
  151.3638  133.3909  157.3905 H   0  0  0  0  0  0  0  0  0  0  0  0
  152.6416  133.5294  156.1879 H   0  0  0  0  0  0  0  0  0  0  0  0
  152.2435  131.9569  156.8699 H   0  0  0  0  0  0  0  0  0  0  0  0
  148.8645  133.9322  151.9930 H   0  0  0  0  0  0  0  0  0  0  0  0
  147.5424  133.8713  153.1598 H   0  0  0  0  0  0  0  0  0  0  0  0
  147.9864  132.4251  152.2524 H   0  0  0  0  0  0  0  0  0  0  0  0
  146.4697  134.4183  153.3402 H   0  0  0  0  0  0  0  0  0  0  0  0
  144.8225  135.0646  153.3323 H   0  0  0  0  0  0  0  0  0  0  0  0
  146.2673  133.6589  151.0581 H   0  0  0  0  0  0  0  0  0  0  0  0
  144.6761  133.2654  151.7134 H   0  0  0  0  0  0  0  0  0  0  0  0
  144.9093  134.8554  149.4984 H   0  0  0  0  0  0  0  0  0  0  0  0
  143.6947  135.2044  150.7242 H   0  0  0  0  0  0  0  0  0  0  0  0
  144.7085  137.2241  151.0246 H   0  0  0  0  0  0  0  0  0  0  0  0
  146.1645  136.7495  150.1532 H   0  0  0  0  0  0  0  0  0  0  0  0
  147.1552  136.0541  151.9319 H   0  0  0  0  0  0  0  0  0  0  0  0
  1  2  1  0  0  0  0
  1 21  1  0  0  0  0
  1 22  1  0  0  0  0
  1 23  1  0  0  0  0
  2  3  1  0  0  0  0
  2 24  1  0  0  0  0
  2 25  1  0  0  0  0
  3  4  1  0  0  0  0
  3 16  1  0  0  0  0
  3 26  1  0  0  0  0
  4  5  1  0  0  0  0
  4 27  1  0  0  0  0
  4 28  1  0  0  0  0
  5  6  1  0  0  0  0
  5 29  1  0  0  0  0
  6  7  2  0  0  0  0
  6  8  1  0  0  0  0
  8  9  1  0  0  0  0
  8 30  1  0  0  0  0
  8 31  1  0  0  0  0
  9 14  2  0  0  0  0
  9 10  1  0  0  0  0
 10 11  1  0  0  0  0
 10 12  2  0  0  0  0
 11 32  1  0  0  0  0
 11 33  1  0  0  0  0
 11 34  1  0  0  0  0
 12 13  1  0  0  0  0
 13 14  1  0  0  0  0
 14 15  1  0  0  0  0
 15 35  1  0  0  0  0
 15 36  1  0  0  0  0
 15 37  1  0  0  0  0
 16 20  1  0  0  0  0
 16 17  1  0  0  0  0
 16 46  1  0  0  0  0
 17 18  1  0  0  0  0
 17 38  1  0  0  0  0
 17 39  1  0  0  0  0
 18 19  1  0  0  0  0
 18 40  1  0  0  0  0
 18 41  1  0  0  0  0
 19 20  1  0  0  0  0
 19 42  1  0  0  0  0
 19 43  1  0  0  0  0
 20 44  1  0  0  0  0
 20 45  1  0  0  0  0
M  CHG  1  16   1
M  END
> <s_m_source_file>
AV-unprocessed.smi

> <i_m_source_file_index>
1311

> <i_lp_mmshare_version>
43012

> <i_f3d_flags>
0

> <s_epik_input>
W0NIMl0xW0NIMl1bQ0gyXVtDSDJdTjFbQ0BIXShbQ0gyXVtDSDNdKVtDSDJdW05IXUMoPU8pW0NIMl1jMmMoW0NIM10pbm9jMltDSDNd

> <s_epik_cmdline>
J2VwaWtfcHl0aG9uJywgJy1waCcsICc3LjAnLCAnLXRuJywgJzgnLCAnLW1hJywgJzIwMCcsICctbWV0YWxfYmluZGluZycsICctaW1hZScsICc8aW5maWxlLm1hZT4nLCAnLW9tYWUnLCAnPG91dGZpbGUubWFlPic=

> <r_epik_Ionization_Penalty>
0.00366311

> <r_epik_Ionization_Penalty_Charging>
0.00366302

> <r_epik_Ionization_Penalty_Neutral>
9.25085e-08

> <r_epik_State_Penalty>
0.00260703

> <r_epik_Charging_Adjusted_Penalty>
0.00627005

> <i_epik_Tot_Q>
1

> <i_epik_Tot_abs_Q>
1

> <r_epik_Metal_State_Penalty>
-0

> <b_epik_Metal_Only>
0

> <s_lp_Force_Field>
OPLS_2005

> <r_lp_Energy>
28.3188

> <b_lp_Chiralities_Consistent>
1

> <s_lp_Variant>
AV-unprocessed.smi:1311-1

> <Gold.Version>
5.8.1

> <Gold.Id.Protein>
6NUR|6NUR_protein|mol2

> <Gold.PLP.Fitness>
39.3093

> <Gold.PLP.PLP>
-31.2566

> <Gold.PLP.part.hbond>
-2.0000

> <Gold.PLP.part.metal>
0.0000

> <Gold.PLP.part.buried>
-0.8858

> <Gold.PLP.part.nonpolar>
-28.4973

> <Gold.PLP.part.repulsive>
0.0996

> <Gold.PLP.ligand.clash>
0.0000

> <Gold.PLP.ligand.torsion>
0.5102

> <Gold.PLP.Chemscore.Hbond>
3.0000

> <Gold.PLP.Chemscore.CHOScore>
0.0000

> <Gold.PLP.Chemscore.Metal>
0.0000

> <Gold.Chemscore.Hbonds>
donor molecule, donor type, donor heavy atom, donor atom, acceptor molecule, acceptor atom, score
      L1  H     5    29       P1  7948  0.93
      L1  H    16    46       P1  7948  2.00

> <Gold.PLP.Chemscore.Internal.Correction>
0.0732

> <Gold.Rescore>
     Score         DG    S(hbond)    S(metal)    S(lipo)     H(rot)  DE(clash)    DE(int)     intcor
     15.84     -16.30       1.99        0.00      75.03       1.80       0.02       0.44       ----

> <Gold.Chemscore.Fitness>
15.8438

> <Gold.Chemscore.DG>
-16.2993

> <Gold.Chemscore.ZeroCoef>
-5.4800

> <Gold.Chemscore.Hbond>
1.9908

> <Gold.Chemscore.Metal>
0.0000

> <Gold.Chemscore.Lipo>
75.0336

> <Gold.Chemscore.Internal_Hbond>
0.0000

> <Gold.Chemscore.DEClash>
0.0182

> <Gold.Chemscore.DEInternal>
0.4372

> <Gold.Chemscore.Rot>
1.8004

> <Gold.Chemscore.Internal.Correction>
   9.000000E+99

> <Gold.Chemscore.Hbonds>
donor molecule, donor type, donor heavy atom, donor atom, acceptor molecule, acceptor atom, score
      L1  H     5    29       P1  7948  0.89
      L1  H    16    46       P1  7948  1.00

> <Gold.Chemscore.Hbond.Weighted>
-6.6493

> <Gold.Chemscore.Metal.Weighted>
-0.0000

> <Gold.Chemscore.Lipo.Weighted>
-8.7789

> <Gold.Chemscore.Internal_Hbond.Weighted>
0.0000

> <Gold.Chemscore.DEClash.Weighted>
0.0182

> <Gold.Chemscore.DEInternal.Weighted>
0.4372

> <Gold.Chemscore.Rot.Weighted>
4.6090

> <Gold.Chemscore.Internal.Correction.Weighted>
   9.000000E+99

> <Gold.Protein.RotatedTorsions>
[ 6907 6896 6895 6894 ] final  128.94 input  -60.11 | X-H torsion
[ 7974 7965 7964 7962 ] final  170.26 input  175.53 | X-H torsion
[ 8008 7997 7996 7995 ] final   89.44 input   59.86 | X-H torsion
[ 10167 10162 10161 10158 ] final  126.49 input  -65.29 | X-H torsion
[ 10718 10713 10712 10709 ] final -177.54 input   66.30 | X-H torsion
[ 10763 10752 10751 10750 ] final  108.37 input  -60.55 | X-H torsion
[ 11005 11000 10999 10996 ] final  160.15 input  -57.11 | X-H torsion

> <Gold.Protein.ActiveResidues>
 VAL166  LYS551  ARG553  GLY616  TRP617  ASP618  TYR619  PRO620  LYS621  CYS622 
 ASP623  PHE694  ASN695  SER759  ASP760  ASP761  ALA762  ILE779  LEU786  VAL792 
 PHE793  MET794  SER795  GLU796  ALA797  LYS798  CYS799  TRP800  GLU811  SER814 

> <Gold.Protein.RotatedAtoms>
  152.3671  133.6371  159.6058 H   0  0  0  0  0  0  0  0  0  0  0  0  # atno 6907 bound_to 6896
  150.7642  133.9330  159.3441 H   0  0  0  0  0  0  0  0  0  0  0  0  # atno 6908 bound_to 6896
  151.7159  135.0905  160.0327 H   0  0  0  0  0  0  0  0  0  0  0  0  # atno 6909 bound_to 6896
  144.7329  139.9175  143.6418 H   0  0  0  0  0  0  0  0  0  0  0  0  # atno 7974 bound_to 7965
  156.0000  140.3360  155.6836 H   0  0  0  0  0  0  0  0  0  0  0  0  # atno 8008 bound_to 7997
  155.6304  140.0684  157.2668 H   0  0  0  0  0  0  0  0  0  0  0  0  # atno 8009 bound_to 7997
  154.4246  140.1760  156.1453 H   0  0  0  0  0  0  0  0  0  0  0  0  # atno 8010 bound_to 7997
  139.5628  144.6893  151.3994 H   0  0  0  0  0  0  0  0  0  0  0  0  # atno 10167 bound_to 10162
  156.8310  130.9653  151.3106 H   0  0  0  0  0  0  0  0  0  0  0  0  # atno 10718 bound_to 10713
  153.4197  135.3814  155.2103 H   0  0  0  0  0  0  0  0  0  0  0  0  # atno 10763 bound_to 10752
  154.8744  135.3814  154.4399 H   0  0  0  0  0  0  0  0  0  0  0  0  # atno 10764 bound_to 10752
  153.4917  135.7088  153.5943 H   0  0  0  0  0  0  0  0  0  0  0  0  # atno 10765 bound_to 10752
  140.2031  134.8323  157.3039 H   0  0  0  0  0  0  0  0  0  0  0  0  # atno 11005 bound_to 11000
  146.0954  139.3946  143.0380 LP  0  0  0  0  0  0  0  0  0  0  0  0  # atno 17320 bound_to 7965
  145.7653  140.9919  143.1178 LP  0  0  0  0  0  0  0  0  0  0  0  0  # atno 17321 bound_to 7965
  140.6909  143.7863  150.7254 LP  0  0  0  0  0  0  0  0  0  0  0  0  # atno 17342 bound_to 10162
  140.1345  143.4496  152.2233 LP  0  0  0  0  0  0  0  0  0  0  0  0  # atno 17343 bound_to 10162
  157.6407  130.8803  149.9442 LP  0  0  0  0  0  0  0  0  0  0  0  0  # atno 17370 bound_to 10713
  156.0934  130.3661  150.0352 LP  0  0  0  0  0  0  0  0  0  0  0  0  # atno 17371 bound_to 10713
  140.2032  134.4229  155.7651 LP  0  0  0  0  0  0  0  0  0  0  0  0  # atno 17394 bound_to 11000
  141.2227  133.7082  156.8218 LP  0  0  0  0  0  0  0  0  0  0  0  0  # atno 17395 bound_to 11000

$$$$
