AV-unprocessed.smi:970|AV-procd|sdf|4293|dock7
  -GOLD-   22720 2203D 1   1.00000     0.00000
 Structure written by MMmdl.
 31 31  0  0  0  0  0  0  0  0  1 V2000
  152.2018  137.3233  156.0741 C   0  0  0  0  0  0  0  0  0  0  0  0
  151.4577  138.5173  156.4435 N   0  0  0  0  0  0  0  0  0  0  0  0
  151.7419  139.7500  155.9999 C   0  0  0  0  0  0  0  0  0  0  0  0
  152.6651  139.9878  155.2187 O   0  0  0  0  0  0  0  0  0  0  0  0
  150.8323  140.8821  156.5057 C   0  0  2  0  0  0  0  0  0  0  0  0
  150.1738  141.5457  155.2850 C   0  0  0  0  0  0  0  0  0  0  0  0
  151.6246  141.8963  157.1981 N   0  0  0  0  0  0  0  0  0  0  0  0
  151.2377  142.5689  158.2945 C   0  0  0  0  0  0  0  0  0  0  0  0
  150.1255  142.4362  158.8067 O   0  0  0  0  0  0  0  0  0  0  0  0
  152.2762  143.5226  158.9039 C   0  0  1  0  0  0  0  0  0  0  0  0
  151.7641  144.9737  159.0111 C   0  0  0  0  0  0  0  0  0  0  0  0
  152.7371  142.9993  160.1845 N   0  0  0  0  0  0  0  0  0  0  0  0
  153.3874  141.8672  160.4629 C   0  0  0  0  0  0  0  0  0  0  0  0
  153.6042  141.6735  161.7561 N   0  0  0  0  0  0  0  0  0  0  0  0
  153.0067  142.7949  162.2572 C   0  0  0  0  0  0  0  0  0  0  0  0
  152.4629  143.6174  161.3605 N   0  0  0  0  0  0  0  0  0  0  0  0
  151.7831  136.4529  156.5796 H   0  0  0  0  0  0  0  0  0  0  0  0
  153.2498  137.4136  156.3628 H   0  0  0  0  0  0  0  0  0  0  0  0
  152.1499  137.1510  154.9983 H   0  0  0  0  0  0  0  0  0  0  0  0
  150.6830  138.4021  157.0808 H   0  0  0  0  0  0  0  0  0  0  0  0
  150.0616  140.4854  157.1696 H   0  0  0  0  0  0  0  0  0  0  0  0
  149.5656  140.8330  154.7266 H   0  0  0  0  0  0  0  0  0  0  0  0
  150.9135  141.9614  154.5988 H   0  0  0  0  0  0  0  0  0  0  0  0
  149.5171  142.3598  155.5927 H   0  0  0  0  0  0  0  0  0  0  0  0
  152.5555  142.0622  156.8446 H   0  0  0  0  0  0  0  0  0  0  0  0
  153.1388  143.5351  158.2355 H   0  0  0  0  0  0  0  0  0  0  0  0
  151.4777  145.3618  158.0330 H   0  0  0  0  0  0  0  0  0  0  0  0
  152.5392  145.6302  159.4075 H   0  0  0  0  0  0  0  0  0  0  0  0
  150.8955  145.0565  159.6655 H   0  0  0  0  0  0  0  0  0  0  0  0
  153.7031  141.1664  159.7039 H   0  0  0  0  0  0  0  0  0  0  0  0
  152.9659  143.0084  163.3152 H   0  0  0  0  0  0  0  0  0  0  0  0
  1  2  1  0  0  0  0
  1 17  1  0  0  0  0
  1 18  1  0  0  0  0
  1 19  1  0  0  0  0
  2  3  1  0  0  0  0
  2 20  1  0  0  0  0
  3  4  2  0  0  0  0
  3  5  1  0  0  0  0
  5  6  1  0  0  0  0
  5  7  1  0  0  0  0
  5 21  1  0  0  0  0
  6 22  1  0  0  0  0
  6 23  1  0  0  0  0
  6 24  1  0  0  0  0
  7  8  1  0  0  0  0
  7 25  1  0  0  0  0
  8  9  2  0  0  0  0
  8 10  1  0  0  0  0
 10 11  1  0  0  0  0
 10 12  1  0  0  0  0
 10 26  1  0  0  0  0
 11 27  1  0  0  0  0
 11 28  1  0  0  0  0
 11 29  1  0  0  0  0
 12 16  1  0  0  0  0
 12 13  1  0  0  0  0
 13 14  2  0  0  0  0
 13 30  1  0  0  0  0
 14 15  1  0  0  0  0
 15 16  2  0  0  0  0
 15 31  1  0  0  0  0
M  END
> <s_m_source_file>
AV-unprocessed.smi

> <i_m_source_file_index>
970

> <i_lp_mmshare_version>
43012

> <i_f3d_flags>
0

> <s_epik_input>
W0NIM11bTkhdQyg9TylbQ0BIXShbQ0gzXSlbTkhdQyg9TylbQ0BIXShbQ0gzXSluMVtjSF1uW2NIXW4x

> <s_epik_cmdline>
J2VwaWtfcHl0aG9uJywgJy1waCcsICc3LjAnLCAnLXRuJywgJzgnLCAnLW1hJywgJzIwMCcsICctbWV0YWxfYmluZGluZycsICctaW1hZScsICc8aW5maWxlLm1hZT4nLCAnLW9tYWUnLCAnPG91dGZpbGUubWFlPic=

> <r_lp_tautomer_probability>
1

> <r_epik_Ionization_Penalty>
1.07271e-05

> <r_epik_Ionization_Penalty_Charging>
0

> <r_epik_Ionization_Penalty_Neutral>
1.07271e-05

> <r_epik_State_Penalty>
-0

> <r_epik_Charging_Adjusted_Penalty>
0

> <i_epik_Tot_Q>
0

> <i_epik_Tot_abs_Q>
0

> <r_epik_Metal_State_Penalty>
-0

> <b_epik_Metal_Only>
0

> <s_lp_Force_Field>
OPLS_2005

> <r_lp_Energy>
8.21169

> <b_lp_Chiralities_Consistent>
1

> <s_lp_Variant>
AV-unprocessed.smi:970-3

> <Gold.Version>
5.8.1

> <Gold.Id.Protein>
6NUR|6NUR_protein|mol2

> <Gold.PLP.Fitness>
38.2923

> <Gold.PLP.PLP>
-35.1481

> <Gold.PLP.part.hbond>
-2.6922

> <Gold.PLP.part.metal>
0.0000

> <Gold.PLP.part.buried>
-3.2220

> <Gold.PLP.part.nonpolar>
-28.2926

> <Gold.PLP.part.repulsive>
0.3270

> <Gold.PLP.ligand.clash>
0.0000

> <Gold.PLP.ligand.torsion>
0.5360

> <Gold.PLP.Chemscore.Hbond>
1.3664

> <Gold.PLP.Chemscore.CHOScore>
0.0000

> <Gold.PLP.Chemscore.Metal>
0.0000

> <Gold.Chemscore.Hbonds>
donor molecule, donor type, donor heavy atom, donor atom, acceptor molecule, acceptor atom, score
      P1  H  7989  7998       L1     4  0.35
      P1  H  7997  8008       L1     4  1.00

> <Gold.PLP.Chemscore.Internal.Correction>
0.1169

> <Gold.Rescore>
     Score         DG    S(hbond)    S(metal)    S(lipo)     H(rot)  DE(clash)    DE(int)     intcor
      7.42      -7.75       1.17        0.00      42.66       2.59       0.03       0.31       ----

> <Gold.Chemscore.Fitness>
7.4153

> <Gold.Chemscore.DG>
-7.7505

> <Gold.Chemscore.ZeroCoef>
-5.4800

> <Gold.Chemscore.Hbond>
1.1669

> <Gold.Chemscore.Metal>
0.0000

> <Gold.Chemscore.Lipo>
42.6590

> <Gold.Chemscore.Internal_Hbond>
0.0000

> <Gold.Chemscore.DEClash>
0.0291

> <Gold.Chemscore.DEInternal>
0.3061

> <Gold.Chemscore.Rot>
2.5852

> <Gold.Chemscore.Internal.Correction>
   9.000000E+99

> <Gold.Chemscore.Hbonds>
donor molecule, donor type, donor heavy atom, donor atom, acceptor molecule, acceptor atom, score
      P1  H  7989  7998       L1     4  0.16
      P1  H  7997  8008       L1     4  0.94

> <Gold.Chemscore.Hbond.Weighted>
-3.8976

> <Gold.Chemscore.Metal.Weighted>
-0.0000

> <Gold.Chemscore.Lipo.Weighted>
-4.9911

> <Gold.Chemscore.Internal_Hbond.Weighted>
0.0000

> <Gold.Chemscore.DEClash.Weighted>
0.0291

> <Gold.Chemscore.DEInternal.Weighted>
0.3061

> <Gold.Chemscore.Rot.Weighted>
6.6182

> <Gold.Chemscore.Internal.Correction.Weighted>
   9.000000E+99

> <Gold.Protein.RotatedTorsions>
[ 6907 6896 6895 6894 ] final -131.74 input  -60.11 | X-H torsion
[ 7974 7965 7964 7962 ] final  -69.28 input  175.53 | X-H torsion
[ 8008 7997 7996 7995 ] final  -20.94 input   59.86 | X-H torsion
[ 10167 10162 10161 10158 ] final -109.41 input  -65.29 | X-H torsion
[ 10718 10713 10712 10709 ] final   28.63 input   66.30 | X-H torsion
[ 10763 10752 10751 10750 ] final   65.45 input  -60.55 | X-H torsion
[ 11005 11000 10999 10996 ] final   -8.69 input  -57.11 | X-H torsion

> <Gold.Protein.ActiveResidues>
 VAL166  LYS551  ARG553  GLY616  TRP617  ASP618  TYR619  PRO620  LYS621  CYS622 
 ASP623  PHE694  ASN695  SER759  ASP760  ASP761  ALA762  ILE779  LEU786  VAL792 
 PHE793  MET794  SER795  GLU796  ALA797  LYS798  CYS799  TRP800  GLU811  SER814 

> <Gold.Protein.RotatedAtoms>
  150.9544  133.6513  159.2765 H   0  0  0  0  0  0  0  0  0  0  0  0  # atno 6907 bound_to 6896
  151.3858  135.0946  159.9520 H   0  0  0  0  0  0  0  0  0  0  0  0  # atno 6908 bound_to 6896
  152.5123  133.9069  159.7523 H   0  0  0  0  0  0  0  0  0  0  0  0  # atno 6909 bound_to 6896
  145.7058  140.9098  143.0707 H   0  0  0  0  0  0  0  0  0  0  0  0  # atno 7974 bound_to 7965
  154.4737  140.2048  155.9930 H   0  0  0  0  0  0  0  0  0  0  0  0  # atno 8008 bound_to 7997
  156.1054  140.3237  155.7969 H   0  0  0  0  0  0  0  0  0  0  0  0  # atno 8009 bound_to 7997
  155.4726  140.0532  157.2968 H   0  0  0  0  0  0  0  0  0  0  0  0  # atno 8010 bound_to 7997
  140.1557  143.4162  152.1463 H   0  0  0  0  0  0  0  0  0  0  0  0  # atno 10167 bound_to 10162
  157.2360  130.7046  149.6335 H   0  0  0  0  0  0  0  0  0  0  0  0  # atno 10718 bound_to 10713
  153.0097  135.5356  154.6669 H   0  0  0  0  0  0  0  0  0  0  0  0  # atno 10763 bound_to 10752
  154.5863  135.2854  155.0683 H   0  0  0  0  0  0  0  0  0  0  0  0  # atno 10764 bound_to 10752
  154.1793  135.6519  153.5082 H   0  0  0  0  0  0  0  0  0  0  0  0  # atno 10765 bound_to 10752
  140.7262  133.8787  155.8858 H   0  0  0  0  0  0  0  0  0  0  0  0  # atno 11005 bound_to 11000
  144.6955  139.9009  143.7458 LP  0  0  0  0  0  0  0  0  0  0  0  0  # atno 17320 bound_to 7965
  146.0757  139.3745  143.0495 LP  0  0  0  0  0  0  0  0  0  0  0  0  # atno 17321 bound_to 7965
  139.5405  144.7251  151.4750 LP  0  0  0  0  0  0  0  0  0  0  0  0  # atno 17342 bound_to 10162
  140.6675  143.8366  150.6959 LP  0  0  0  0  0  0  0  0  0  0  0  0  # atno 17343 bound_to 10162
  155.9672  130.4473  150.5577 LP  0  0  0  0  0  0  0  0  0  0  0  0  # atno 17370 bound_to 10713
  157.3429  131.0720  151.1774 LP  0  0  0  0  0  0  0  0  0  0  0  0  # atno 17371 bound_to 10713
  140.9961  134.1213  157.4362 LP  0  0  0  0  0  0  0  0  0  0  0  0  # atno 17394 bound_to 11000
  139.8837  135.0055  156.6316 LP  0  0  0  0  0  0  0  0  0  0  0  0  # atno 17395 bound_to 11000

$$$$
