AV-unprocessed.smi:978|AV-procd|sdf|4309|dock9
  -GOLD-   22720 2213D 1   1.00000     0.00000
 Structure written by MMmdl.
 39 40  0  0  0  0  0  0  0  0  2 V2000
  147.3352  141.3568  153.9774 C   0  0  0  0  0  0  0  0  0  0  0  0
  148.6336  140.6461  154.2410 C   0  0  0  0  0  0  0  0  0  0  0  0
  149.6596  141.3367  154.7162 N   0  0  0  0  0  0  0  0  0  0  0  0
  150.7418  140.4470  154.7980 O   0  0  0  0  0  0  0  0  0  0  0  0
  150.3390  139.2236  154.3657 C   0  0  0  0  0  0  0  0  0  0  0  0
  151.3596  138.1362  154.3617 C   0  0  0  0  0  0  0  0  0  0  0  0
  149.0185  139.2890  154.0314 C   0  0  0  0  0  0  0  0  0  0  0  0
  148.2636  138.2068  153.5138 N   0  0  0  0  0  0  0  0  0  0  0  0
  146.9707  137.9417  153.7547 C   0  0  0  0  0  0  0  0  0  0  0  0
  146.2424  138.6012  154.4954 O   0  0  0  0  0  0  0  0  0  0  0  0
  146.5654  136.8434  153.1013 N   0  0  0  0  0  0  0  0  0  0  0  0
  145.2246  136.2637  153.1764 C   0  0  2  0  0  0  0  0  0  0  0  0
  145.2419  134.9744  154.0168 C   0  0  0  0  0  0  0  0  0  0  0  0
  145.9358  133.8131  153.2812 C   0  0  0  0  0  0  0  0  0  0  0  0
  145.3168  133.5745  151.9536 N   0  3  2  0  0  0  0  0  0  0  0  0
  145.8793  132.3871  151.2751 C   0  0  0  0  0  0  0  0  0  0  0  0
  145.3546  134.7849  151.0962 C   0  0  0  0  0  0  0  0  0  0  0  0
  144.6441  135.9676  151.7781 C   0  0  0  0  0  0  0  0  0  0  0  0
  146.8324  140.9471  153.1015 H   0  0  0  0  0  0  0  0  0  0  0  0
  147.4922  142.4200  153.7932 H   0  0  0  0  0  0  0  0  0  0  0  0
  146.6594  141.2662  154.8279 H   0  0  0  0  0  0  0  0  0  0  0  0
  150.9808  137.2429  153.8653 H   0  0  0  0  0  0  0  0  0  0  0  0
  151.6357  137.8645  155.3806 H   0  0  0  0  0  0  0  0  0  0  0  0
  152.2620  138.4550  153.8398 H   0  0  0  0  0  0  0  0  0  0  0  0
  148.7816  137.5166  152.9901 H   0  0  0  0  0  0  0  0  0  0  0  0
  147.2398  136.3620  152.5246 H   0  0  0  0  0  0  0  0  0  0  0  0
  144.5777  136.9851  153.6795 H   0  0  0  0  0  0  0  0  0  0  0  0
  145.7266  135.1540  154.9773 H   0  0  0  0  0  0  0  0  0  0  0  0
  144.2154  134.6853  154.2466 H   0  0  0  0  0  0  0  0  0  0  0  0
  146.9992  134.0238  153.1568 H   0  0  0  0  0  0  0  0  0  0  0  0
  145.8627  132.9077  153.8852 H   0  0  0  0  0  0  0  0  0  0  0  0
  146.9358  132.5315  151.0453 H   0  0  0  0  0  0  0  0  0  0  0  0
  145.3494  132.1895  150.3428 H   0  0  0  0  0  0  0  0  0  0  0  0
  145.7838  131.5020  151.9049 H   0  0  0  0  0  0  0  0  0  0  0  0
  146.3903  135.0440  150.8711 H   0  0  0  0  0  0  0  0  0  0  0  0
  144.8684  134.5722  150.1434 H   0  0  0  0  0  0  0  0  0  0  0  0
  143.5833  135.7334  151.8772 H   0  0  0  0  0  0  0  0  0  0  0  0
  144.6958  136.8521  151.1424 H   0  0  0  0  0  0  0  0  0  0  0  0
  144.3417  133.3716  152.1226 H   0  0  0  0  0  0  0  0  0  0  0  0
  1  2  1  0  0  0  0
  1 19  1  0  0  0  0
  1 20  1  0  0  0  0
  1 21  1  0  0  0  0
  2  7  1  0  0  0  0
  2  3  2  0  0  0  0
  3  4  1  0  0  0  0
  4  5  1  0  0  0  0
  5  6  1  0  0  0  0
  5  7  2  0  0  0  0
  6 22  1  0  0  0  0
  6 23  1  0  0  0  0
  6 24  1  0  0  0  0
  7  8  1  0  0  0  0
  8  9  1  0  0  0  0
  8 25  1  0  0  0  0
  9 10  2  0  0  0  0
  9 11  1  0  0  0  0
 11 12  1  0  0  0  0
 11 26  1  0  0  0  0
 12 18  1  0  0  0  0
 12 13  1  0  0  0  0
 12 27  1  0  0  0  0
 13 14  1  0  0  0  0
 13 28  1  0  0  0  0
 13 29  1  0  0  0  0
 14 15  1  0  0  0  0
 14 30  1  0  0  0  0
 14 31  1  0  0  0  0
 15 16  1  0  0  0  0
 15 17  1  0  0  0  0
 15 39  1  0  0  0  0
 16 32  1  0  0  0  0
 16 33  1  0  0  0  0
 16 34  1  0  0  0  0
 17 18  1  0  0  0  0
 17 35  1  0  0  0  0
 17 36  1  0  0  0  0
 18 37  1  0  0  0  0
 18 38  1  0  0  0  0
M  CHG  1  15   1
M  END
> <s_m_source_file>
AV-unprocessed.smi

> <i_m_source_file_index>
978

> <i_lp_mmshare_version>
43012

> <i_f3d_flags>
0

> <s_epik_input>
W0NIM11jMW5vYyhbQ0gzXSljMVtOSF1DKD1PKVtOSF1bQ0hdMltDSDJdW0NIMl1OKFtDSDNdKVtDSDJdW0NIMl0y

> <s_epik_cmdline>
J2VwaWtfcHl0aG9uJywgJy1waCcsICc3LjAnLCAnLXRuJywgJzgnLCAnLW1hJywgJzIwMCcsICctbWV0YWxfYmluZGluZycsICctaW1hZScsICc8aW5maWxlLm1hZT4nLCAnLW9tYWUnLCAnPG91dGZpbGUubWFlPic=

> <r_epik_Ionization_Penalty>
0.00369783

> <r_epik_Ionization_Penalty_Charging>
0.00366825

> <r_epik_Ionization_Penalty_Neutral>
2.95799e-05

> <r_epik_State_Penalty>
0.00261101

> <r_epik_Charging_Adjusted_Penalty>
0.00627926

> <i_epik_Tot_Q>
1

> <i_epik_Tot_abs_Q>
1

> <r_epik_Metal_State_Penalty>
-0

> <b_epik_Metal_Only>
0

> <s_lp_Force_Field>
OPLS_2005

> <r_lp_Energy>
17.545

> <b_lp_Chiralities_Consistent>
1

> <s_lp_Variant>
AV-unprocessed.smi:978-2

> <Gold.Version>
5.8.1

> <Gold.Id.Protein>
6NUR|6NUR_protein|mol2

> <Gold.PLP.Fitness>
36.6171

> <Gold.PLP.PLP>
-28.3111

> <Gold.PLP.part.hbond>
-4.2617

> <Gold.PLP.part.metal>
0.0000

> <Gold.PLP.part.buried>
-3.1317

> <Gold.PLP.part.nonpolar>
-21.5610

> <Gold.PLP.part.repulsive>
0.3561

> <Gold.PLP.ligand.clash>
0.0000

> <Gold.PLP.ligand.torsion>
0.4065

> <Gold.PLP.Chemscore.Hbond>
2.9500

> <Gold.PLP.Chemscore.CHOScore>
0.0000

> <Gold.PLP.Chemscore.Metal>
0.0000

> <Gold.Chemscore.Hbonds>
donor molecule, donor type, donor heavy atom, donor atom, acceptor molecule, acceptor atom, score
      L1  H     8    25       P1  7948  1.00
      L1  H    11    26       P1  7948  1.00
      P1  H  7989  7998       L1     4  0.95

> <Gold.PLP.Chemscore.Internal.Correction>
0.2691

> <Gold.Rescore>
     Score         DG    S(hbond)    S(metal)    S(lipo)     H(rot)  DE(clash)    DE(int)     intcor
     15.51     -17.30       2.01        0.00      65.40       1.00       0.31       1.47       ----

> <Gold.Chemscore.Fitness>
15.5125

> <Gold.Chemscore.DG>
-17.2956

> <Gold.Chemscore.ZeroCoef>
-5.4800

> <Gold.Chemscore.Hbond>
2.0132

> <Gold.Chemscore.Metal>
0.0000

> <Gold.Chemscore.Lipo>
65.3975

> <Gold.Chemscore.Internal_Hbond>
0.0000

> <Gold.Chemscore.DEClash>
0.3143

> <Gold.Chemscore.DEInternal>
1.4688

> <Gold.Chemscore.Rot>
1.0000

> <Gold.Chemscore.Internal.Correction>
   9.000000E+99

> <Gold.Chemscore.Hbonds>
donor molecule, donor type, donor heavy atom, donor atom, acceptor molecule, acceptor atom, score
      L1  H     8    25       P1  7948  0.98
      L1  H    11    26       P1  7948  0.94
      P1  H  7989  7998       L1     4  0.07

> <Gold.Chemscore.Hbond.Weighted>
-6.7241

> <Gold.Chemscore.Metal.Weighted>
-0.0000

> <Gold.Chemscore.Lipo.Weighted>
-7.6515

> <Gold.Chemscore.Internal_Hbond.Weighted>
0.0000

> <Gold.Chemscore.DEClash.Weighted>
0.3143

> <Gold.Chemscore.DEInternal.Weighted>
1.4688

> <Gold.Chemscore.Rot.Weighted>
2.5600

> <Gold.Chemscore.Internal.Correction.Weighted>
   9.000000E+99

> <Gold.Protein.RotatedTorsions>
[ 6907 6896 6895 6894 ] final  -30.50 input  -60.11 | X-H torsion
[ 7974 7965 7964 7962 ] final  -11.30 input  175.53 | X-H torsion
[ 8008 7997 7996 7995 ] final  -73.18 input   59.86 | X-H torsion
[ 10167 10162 10161 10158 ] final  -85.09 input  -65.29 | X-H torsion
[ 10718 10713 10712 10709 ] final -148.45 input   66.30 | X-H torsion
[ 10763 10752 10751 10750 ] final   15.61 input  -60.55 | X-H torsion
[ 11005 11000 10999 10996 ] final   31.55 input  -57.11 | X-H torsion

> <Gold.Protein.ActiveResidues>
 VAL166  LYS551  ARG553  GLY616  TRP617  ASP618  TYR619  PRO620  LYS621  CYS622 
 ASP623  PHE694  ASN695  SER759  ASP760  ASP761  ALA762  ILE779  LEU786  VAL792 
 PHE793  MET794  SER795  GLU796  ALA797  LYS798  CYS799  TRP800  GLU811  SER814 

> <Gold.Protein.RotatedAtoms>
  151.1048  134.9993  159.8465 H   0  0  0  0  0  0  0  0  0  0  0  0  # atno 6907 bound_to 6896
  152.5439  134.1907  159.8683 H   0  0  0  0  0  0  0  0  0  0  0  0  # atno 6908 bound_to 6896
  151.1952  133.4599  159.2628 H   0  0  0  0  0  0  0  0  0  0  0  0  # atno 6909 bound_to 6896
  146.2192  140.2891  142.8367 H   0  0  0  0  0  0  0  0  0  0  0  0  # atno 7974 bound_to 7965
  154.5226  140.0784  156.8200 H   0  0  0  0  0  0  0  0  0  0  0  0  # atno 8008 bound_to 7997
  155.3543  140.3414  155.4221 H   0  0  0  0  0  0  0  0  0  0  0  0  # atno 8009 bound_to 7997
  156.1698  140.1616  156.8455 H   0  0  0  0  0  0  0  0  0  0  0  0  # atno 8010 bound_to 7997
  140.4070  143.2638  151.9067 H   0  0  0  0  0  0  0  0  0  0  0  0  # atno 10167 bound_to 10162
  156.4204  130.8026  151.2249 H   0  0  0  0  0  0  0  0  0  0  0  0  # atno 10718 bound_to 10713
  153.1508  135.6778  153.8884 H   0  0  0  0  0  0  0  0  0  0  0  0  # atno 10763 bound_to 10752
  153.8311  135.3117  155.3420 H   0  0  0  0  0  0  0  0  0  0  0  0  # atno 10764 bound_to 10752
  154.7861  135.4861  154.0035 H   0  0  0  0  0  0  0  0  0  0  0  0  # atno 10765 bound_to 10752
  140.2827  134.2955  155.7796 H   0  0  0  0  0  0  0  0  0  0  0  0  # atno 11005 bound_to 11000
  144.9140  140.7791  143.5790 LP  0  0  0  0  0  0  0  0  0  0  0  0  # atno 17320 bound_to 7965
  145.2823  139.1913  143.4784 LP  0  0  0  0  0  0  0  0  0  0  0  0  # atno 17321 bound_to 7965
  139.4783  144.5575  151.8290 LP  0  0  0  0  0  0  0  0  0  0  0  0  # atno 17342 bound_to 10162
  140.4678  144.1630  150.5914 LP  0  0  0  0  0  0  0  0  0  0  0  0  # atno 17343 bound_to 10162
  157.7508  131.0230  150.3814 LP  0  0  0  0  0  0  0  0  0  0  0  0  # atno 17370 bound_to 10713
  156.4131  130.3938  149.6878 LP  0  0  0  0  0  0  0  0  0  0  0  0  # atno 17371 bound_to 10713
  141.2160  133.7535  156.9504 LP  0  0  0  0  0  0  0  0  0  0  0  0  # atno 17394 bound_to 11000
  140.1269  134.9381  157.2282 LP  0  0  0  0  0  0  0  0  0  0  0  0  # atno 17395 bound_to 11000

$$$$
