AV-unprocessed.smi:2068|AV-procd|sdf|8430|dock5
  -GOLD-   2272011123D 1   1.00000     0.00000
 Structure written by MMmdl.
 32 33  0  0  0  0  0  0  0  0  2 V2000
  148.0366  138.7022  152.7506 N   0  0  0  0  0  0  0  0  0  0  0  0
  148.3746  139.0815  153.9869 C   0  0  0  0  0  0  0  0  0  0  0  0
  148.2824  140.2486  154.3627 O   0  0  0  0  0  0  0  0  0  0  0  0
  148.9087  138.0028  154.9338 C   0  0  0  0  0  0  0  0  0  0  0  0
  150.3722  138.2055  155.2038 C   0  0  0  0  0  0  0  0  0  0  0  0
  151.4200  137.5346  154.6275 C   0  0  0  0  0  0  0  0  0  0  0  0
  152.9535  138.1004  155.2254 S   0  0  0  0  0  0  0  0  0  0  0  0
  152.1114  139.2545  156.2607 C   0  0  0  0  0  0  0  0  0  0  0  0
  152.7086  140.1199  157.0943 N   0  5  0  0  0  0  0  0  0  0  0  0
  152.0316  140.5812  158.1735 C   0  0  0  0  0  0  0  0  0  0  0  0
  151.6639  139.9656  159.1753 O   0  0  0  0  0  0  0  0  0  0  0  0
  151.7294  142.0827  158.0699 C   0  0  0  0  0  0  0  0  0  0  0  0
  152.8003  142.9632  158.7508 C   0  0  1  0  0  0  0  0  0  0  0  0
  152.6312  144.4416  158.4952 C   0  0  0  0  0  0  0  0  0  0  0  0
  152.6172  145.1587  159.6164 C   0  0  0  0  0  0  0  0  0  0  0  0
  152.7725  144.3074  160.8458 C   0  0  0  0  0  0  0  0  0  0  0  0
  152.7831  142.8628  160.2976 C   0  0  0  0  0  0  0  0  0  0  0  0
  150.7831  139.1640  156.1348 N   0  0  0  0  0  0  0  0  0  0  0  0
  147.6595  139.3771  152.1015 H   0  0  0  0  0  0  0  0  0  0  0  0
  148.1396  137.7347  152.4776 H   0  0  0  0  0  0  0  0  0  0  0  0
  148.3333  138.0299  155.8602 H   0  0  0  0  0  0  0  0  0  0  0  0
  148.7368  137.0195  154.4942 H   0  0  0  0  0  0  0  0  0  0  0  0
  151.3838  136.7500  153.8868 H   0  0  0  0  0  0  0  0  0  0  0  0
  151.6090  142.3840  157.0270 H   0  0  0  0  0  0  0  0  0  0  0  0
  150.7632  142.2600  158.5436 H   0  0  0  0  0  0  0  0  0  0  0  0
  153.7888  142.6838  158.3828 H   0  0  0  0  0  0  0  0  0  0  0  0
  152.5471  144.8497  157.4982 H   0  0  0  0  0  0  0  0  0  0  0  0
  152.5189  146.2330  159.6673 H   0  0  0  0  0  0  0  0  0  0  0  0
  153.7066  144.5545  161.3513 H   0  0  0  0  0  0  0  0  0  0  0  0
  151.9457  144.4734  161.5369 H   0  0  0  0  0  0  0  0  0  0  0  0
  151.8908  142.3374  160.6408 H   0  0  0  0  0  0  0  0  0  0  0  0
  153.6431  142.3035  160.6674 H   0  0  0  0  0  0  0  0  0  0  0  0
  1  2  1  0  0  0  0
  1 19  1  0  0  0  0
  1 20  1  0  0  0  0
  2  3  2  0  0  0  0
  2  4  1  0  0  0  0
  4  5  1  0  0  0  0
  4 21  1  0  0  0  0
  4 22  1  0  0  0  0
  5 18  1  0  0  0  0
  5  6  2  0  0  0  0
  6  7  1  0  0  0  0
  6 23  1  0  0  0  0
  7  8  1  0  0  0  0
  8  9  1  0  0  0  0
  8 18  2  0  0  0  0
  9 10  1  0  0  0  0
 10 11  2  0  0  0  0
 10 12  1  0  0  0  0
 12 13  1  0  0  0  0
 12 24  1  0  0  0  0
 12 25  1  0  0  0  0
 13 17  1  0  0  0  0
 13 14  1  0  0  0  0
 13 26  1  0  0  0  0
 14 15  2  0  0  0  0
 14 27  1  0  0  0  0
 15 16  1  0  0  0  0
 15 28  1  0  0  0  0
 16 17  1  0  0  0  0
 16 29  1  0  0  0  0
 16 30  1  0  0  0  0
 17 31  1  0  0  0  0
 17 32  1  0  0  0  0
M  CHG  1   9  -1
M  END
> <s_m_source_file>
AV-unprocessed.smi

> <i_m_source_file_index>
2068

> <i_lp_mmshare_version>
43012

> <i_f3d_flags>
0

> <s_epik_input>
W05IMl1DKD1PKVtDSDJdYzFbY0hdc2MobjEpW05IXUMoPU8pW0NIMl1bQ0BASF0yW0NIXT1bQ0hdW0NIMl1bQ0gyXTI=

> <s_epik_cmdline>
J2VwaWtfcHl0aG9uJywgJy1waCcsICc3LjAnLCAnLXRuJywgJzgnLCAnLW1hJywgJzIwMCcsICctbWV0YWxfYmluZGluZycsICctaW1hZScsICc8aW5maWxlLm1hZT4nLCAnLW9tYWUnLCAnPG91dGZpbGUubWFlPic=

> <r_lp_tautomer_probability>
1

> <r_epik_Ionization_Penalty>
4.99584

> <r_epik_Ionization_Penalty_Charging>
4.63763

> <r_epik_Ionization_Penalty_Neutral>
0.358213

> <r_epik_State_Penalty>
4.63739

> <r_epik_Charging_Adjusted_Penalty>
9.27502

> <i_epik_Tot_Q>
-1

> <i_epik_Tot_abs_Q>
1

> <r_epik_Metal_State_Penalty>
0.891949

> <b_epik_Metal_Only>
1

> <s_lp_Force_Field>
OPLS_2005

> <r_lp_Energy>
14.2455

> <b_lp_Chiralities_Consistent>
1

> <s_lp_Variant>
AV-unprocessed.smi:2068-4

> <Gold.Version>
5.8.1

> <Gold.Id.Protein>
6NUR|6NUR_protein|mol2

> <Gold.PLP.Fitness>
49.7500

> <Gold.PLP.PLP>
-40.7595

> <Gold.PLP.part.hbond>
-3.0000

> <Gold.PLP.part.metal>
0.0000

> <Gold.PLP.part.buried>
-3.1664

> <Gold.PLP.part.nonpolar>
-35.1297

> <Gold.PLP.part.repulsive>
0.1873

> <Gold.PLP.ligand.clash>
0.0000

> <Gold.PLP.ligand.torsion>
1.5296

> <Gold.PLP.Chemscore.Hbond>
2.9520

> <Gold.PLP.Chemscore.CHOScore>
1.0000

> <Gold.PLP.Chemscore.Metal>
0.0000

> <Gold.Chemscore.Hbonds>
donor molecule, donor type, donor heavy atom, donor atom, acceptor molecule, acceptor atom, score
      L1  H     1    20       P1  7948  1.00
      P1  H  7997  8009       L1     9  2.00
      L1  C     6    23       P1  7949  1.00

> <Gold.PLP.Chemscore.Internal.Correction>
0.1936

> <Gold.Rescore>
     Score         DG    S(hbond)    S(metal)    S(lipo)     H(rot)  DE(clash)    DE(int)     intcor
     15.30     -16.99       1.76        0.00      95.50       2.17       0.07       1.61       ----

> <Gold.Chemscore.Fitness>
15.3029

> <Gold.Chemscore.DG>
-16.9870

> <Gold.Chemscore.ZeroCoef>
-5.4800

> <Gold.Chemscore.Hbond>
1.7594

> <Gold.Chemscore.Metal>
0.0000

> <Gold.Chemscore.Lipo>
95.4973

> <Gold.Chemscore.Internal_Hbond>
0.0000

> <Gold.Chemscore.DEClash>
0.0732

> <Gold.Chemscore.DEInternal>
1.6108

> <Gold.Chemscore.Rot>
2.1650

> <Gold.Chemscore.Internal.Correction>
   9.000000E+99

> <Gold.Chemscore.Hbonds>
donor molecule, donor type, donor heavy atom, donor atom, acceptor molecule, acceptor atom, score
      L1  H     1    19       P1  7957  0.02
      L1  H     1    20       P1  7948  0.99
      P1  H  7997  8009       L1     9  0.38

> <Gold.Chemscore.Hbond.Weighted>
-5.8763

> <Gold.Chemscore.Metal.Weighted>
-0.0000

> <Gold.Chemscore.Lipo.Weighted>
-11.1732

> <Gold.Chemscore.Internal_Hbond.Weighted>
0.0000

> <Gold.Chemscore.DEClash.Weighted>
0.0732

> <Gold.Chemscore.DEInternal.Weighted>
1.6108

> <Gold.Chemscore.Rot.Weighted>
5.5425

> <Gold.Chemscore.Internal.Correction.Weighted>
   9.000000E+99

> <Gold.Protein.RotatedTorsions>
[ 6907 6896 6895 6894 ] final -140.15 input  -60.11 | X-H torsion
[ 7974 7965 7964 7962 ] final  117.14 input  175.53 | X-H torsion
[ 8008 7997 7996 7995 ] final -172.56 input   59.86 | X-H torsion
[ 10167 10162 10161 10158 ] final  134.37 input  -65.29 | X-H torsion
[ 10718 10713 10712 10709 ] final  -40.49 input   66.30 | X-H torsion
[ 10763 10752 10751 10750 ] final -136.31 input  -60.55 | X-H torsion
[ 11005 11000 10999 10996 ] final  169.22 input  -57.11 | X-H torsion

> <Gold.Protein.ActiveResidues>
 VAL166  LYS551  ARG553  GLY616  TRP617  ASP618  TYR619  PRO620  LYS621  CYS622 
 ASP623  PHE694  ASN695  SER759  ASP760  ASP761  ALA762  ILE779  LEU786  VAL792 
 PHE793  MET794  SER795  GLU796  ALA797  LYS798  CYS799  TRP800  GLU811  SER814 

> <Gold.Protein.RotatedAtoms>
  151.0569  133.5577  159.2637 H   0  0  0  0  0  0  0  0  0  0  0  0  # atno 6907 bound_to 6896
  151.2566  135.0639  159.9092 H   0  0  0  0  0  0  0  0  0  0  0  0  # atno 6908 bound_to 6896
  152.5391  134.0321  159.8083 H   0  0  0  0  0  0  0  0  0  0  0  0  # atno 6909 bound_to 6896
  145.1710  139.3102  143.4468 H   0  0  0  0  0  0  0  0  0  0  0  0  # atno 7974 bound_to 7965
  155.9461  140.1117  157.1015 H   0  0  0  0  0  0  0  0  0  0  0  0  # atno 8008 bound_to 7997
  154.4099  140.1209  156.5057 H   0  0  0  0  0  0  0  0  0  0  0  0  # atno 8009 bound_to 7997
  155.6901  140.3472  155.4892 H   0  0  0  0  0  0  0  0  0  0  0  0  # atno 8010 bound_to 7997
  139.5259  144.6571  151.5129 H   0  0  0  0  0  0  0  0  0  0  0  0  # atno 10167 bound_to 10162
  156.2808  130.4217  149.8339 H   0  0  0  0  0  0  0  0  0  0  0  0  # atno 10718 bound_to 10713
  154.8686  135.3676  154.5041 H   0  0  0  0  0  0  0  0  0  0  0  0  # atno 10763 bound_to 10752
  153.5680  135.7021  153.5522 H   0  0  0  0  0  0  0  0  0  0  0  0  # atno 10764 bound_to 10752
  153.3568  135.4057  155.1651 H   0  0  0  0  0  0  0  0  0  0  0  0  # atno 10765 bound_to 10752
  140.2954  134.7639  157.3873 H   0  0  0  0  0  0  0  0  0  0  0  0  # atno 11005 bound_to 11000
  146.3468  140.1855  142.8589 LP  0  0  0  0  0  0  0  0  0  0  0  0  # atno 17320 bound_to 7965
  145.0233  140.8811  143.5153 LP  0  0  0  0  0  0  0  0  0  0  0  0  # atno 17321 bound_to 7965
  140.6401  143.8905  150.6684 LP  0  0  0  0  0  0  0  0  0  0  0  0  # atno 17342 bound_to 10162
  140.2237  143.3789  152.1622 LP  0  0  0  0  0  0  0  0  0  0  0  0  # atno 17343 bound_to 10162
  156.5787  130.8456  151.3377 LP  0  0  0  0  0  0  0  0  0  0  0  0  # atno 17370 bound_to 10713
  157.7313  130.9699  150.1876 LP  0  0  0  0  0  0  0  0  0  0  0  0  # atno 17371 bound_to 10713
  140.1157  134.5286  155.8227 LP  0  0  0  0  0  0  0  0  0  0  0  0  # atno 17394 bound_to 11000
  141.2138  133.6739  156.6772 LP  0  0  0  0  0  0  0  0  0  0  0  0  # atno 17395 bound_to 11000

$$$$
