AV-unprocessed.smi:2822|AV-procd|sdf|10869|dock6
  -GOLD-   2272015313D 1   1.00000     0.00000
 Structure written by MMmdl.
 40 42  0  0  0  0  0  0  0  0  2 V2000
  151.1781  145.1350  160.0501 Cl  0  0  0  0  0  0  0  0  0  0  0  0
  152.1423  143.7050  159.9239 C   0  0  0  0  0  0  0  0  0  0  0  0
  153.2309  143.5160  160.7999 C   0  0  0  0  0  0  0  0  0  0  0  0
  154.0291  142.4281  160.7700 N   0  0  0  0  0  0  0  0  0  0  0  0
  153.7637  141.4791  159.8484 C   0  0  0  0  0  0  0  0  0  0  0  0
  152.7021  141.5685  158.9258 C   0  0  0  0  0  0  0  0  0  0  0  0
  151.8648  142.7084  158.9602 C   0  0  0  0  0  0  0  0  0  0  0  0
  150.7844  142.8780  158.0814 N   0  0  0  0  0  0  0  0  0  0  0  0
  150.8078  142.3091  156.7431 C   0  0  0  0  0  0  0  0  0  0  0  0
  150.3429  140.8393  156.7495 C   0  0  1  0  0  0  0  0  0  0  0  0
  148.9489  140.6469  157.3754 C   0  0  0  0  0  0  0  0  0  0  0  0
  147.8816  141.1706  156.4907 N   0  3  2  0  0  0  0  0  0  0  0  0
  146.5331  141.0262  157.0963 C   0  0  0  0  0  0  0  0  0  0  0  0
  145.4513  141.6519  156.2022 C   0  0  0  0  0  0  0  0  0  0  0  0
  145.4890  141.0436  154.7951 C   0  0  0  0  0  0  0  0  0  0  0  0
  146.8965  141.1849  154.2010 C   0  0  0  0  0  0  0  0  0  0  0  0
  147.9645  140.5728  155.1304 C   0  0  1  0  0  0  0  0  0  0  0  0
  149.3787  140.7707  154.5525 C   0  0  0  0  0  0  0  0  0  0  0  0
  150.3592  140.2549  155.4466 O   0  0  0  0  0  0  0  0  0  0  0  0
  153.4668  144.2590  161.5474 H   0  0  0  0  0  0  0  0  0  0  0  0
  154.4185  140.6202  159.8447 H   0  0  0  0  0  0  0  0  0  0  0  0
  152.5534  140.7707  158.2138 H   0  0  0  0  0  0  0  0  0  0  0  0
  149.9071  143.2247  158.4446 H   0  0  0  0  0  0  0  0  0  0  0  0
  150.1387  142.8959  156.1125 H   0  0  0  0  0  0  0  0  0  0  0  0
  151.8047  142.4039  156.3137 H   0  0  0  0  0  0  0  0  0  0  0  0
  151.0542  140.2746  157.3539 H   0  0  0  0  0  0  0  0  0  0  0  0
  148.7741  139.5843  157.5527 H   0  0  0  0  0  0  0  0  0  0  0  0
  148.9024  141.1400  158.3472 H   0  0  0  0  0  0  0  0  0  0  0  0
  146.3171  139.9691  157.2596 H   0  0  0  0  0  0  0  0  0  0  0  0
  146.5196  141.5071  158.0750 H   0  0  0  0  0  0  0  0  0  0  0  0
  144.4673  141.5006  156.6469 H   0  0  0  0  0  0  0  0  0  0  0  0
  145.6017  142.7305  156.1415 H   0  0  0  0  0  0  0  0  0  0  0  0
  145.2106  139.9899  154.8396 H   0  0  0  0  0  0  0  0  0  0  0  0
  144.7572  141.5342  154.1525 H   0  0  0  0  0  0  0  0  0  0  0  0
  146.9317  140.7046  153.2222 H   0  0  0  0  0  0  0  0  0  0  0  0
  147.1124  142.2413  154.0336 H   0  0  0  0  0  0  0  0  0  0  0  0
  147.7765  139.5012  155.2208 H   0  0  0  0  0  0  0  0  0  0  0  0
  149.4699  140.2399  153.6045 H   0  0  0  0  0  0  0  0  0  0  0  0
  149.5730  141.8208  154.3332 H   0  0  0  0  0  0  0  0  0  0  0  0
  148.0493  142.1610  156.3842 H   0  0  0  0  0  0  0  0  0  0  0  0
  1  2  1  0  0  0  0
  2  7  1  0  0  0  0
  2  3  2  0  0  0  0
  3  4  1  0  0  0  0
  3 20  1  0  0  0  0
  4  5  2  0  0  0  0
  5  6  1  0  0  0  0
  5 21  1  0  0  0  0
  6  7  2  0  0  0  0
  6 22  1  0  0  0  0
  7  8  1  0  0  0  0
  8  9  1  0  0  0  0
  8 23  1  0  0  0  0
  9 10  1  0  0  0  0
  9 24  1  0  0  0  0
  9 25  1  0  0  0  0
 10 19  1  0  0  0  0
 10 11  1  0  0  0  0
 10 26  1  0  0  0  0
 11 12  1  0  0  0  0
 11 27  1  0  0  0  0
 11 28  1  0  0  0  0
 12 17  1  0  0  0  0
 12 13  1  0  0  0  0
 12 40  1  0  0  0  0
 13 14  1  0  0  0  0
 13 29  1  0  0  0  0
 13 30  1  0  0  0  0
 14 15  1  0  0  0  0
 14 31  1  0  0  0  0
 14 32  1  0  0  0  0
 15 16  1  0  0  0  0
 15 33  1  0  0  0  0
 15 34  1  0  0  0  0
 16 17  1  0  0  0  0
 16 35  1  0  0  0  0
 16 36  1  0  0  0  0
 17 18  1  0  0  0  0
 17 37  1  0  0  0  0
 18 19  1  0  0  0  0
 18 38  1  0  0  0  0
 18 39  1  0  0  0  0
M  CHG  1  12   1
M  END
> <s_m_source_file>
AV-unprocessed.smi

> <i_m_source_file_index>
2822

> <i_lp_mmshare_version>
43012

> <i_f3d_flags>
0

> <s_epik_input>
Q2xjMVtjSF1uW2NIXVtjSF1jMVtOSF1bQ0gyXVtDQEhdKFtDSDJdMilPW0NIMl1bQ0BASF0oTjIzKVtDSDJdW0NIMl1bQ0gyXVtDSDJdMw==

> <s_epik_cmdline>
J2VwaWtfcHl0aG9uJywgJy1waCcsICc3LjAnLCAnLXRuJywgJzgnLCAnLW1hJywgJzIwMCcsICctbWV0YWxfYmluZGluZycsICctaW1hZScsICc8aW5maWxlLm1hZT4nLCAnLW9tYWUnLCAnPG91dGZpbGUubWFlPic=

> <r_lp_tautomer_probability>
0.999999

> <r_epik_Ionization_Penalty>
0.88937

> <r_epik_Ionization_Penalty_Charging>
0.0803403

> <r_epik_Ionization_Penalty_Neutral>
0.80903

> <r_epik_State_Penalty>
0.931884

> <r_epik_Charging_Adjusted_Penalty>
1.01222

> <i_epik_Tot_Q>
1

> <i_epik_Tot_abs_Q>
1

> <r_epik_Metal_State_Penalty>
0.0782275

> <b_epik_Metal_Only>
0

> <s_lp_Force_Field>
OPLS_2005

> <r_lp_Energy>
31.9591

> <b_lp_Chiralities_Consistent>
1

> <s_lp_Variant>
AV-unprocessed.smi:2822-10

> <Gold.Version>
5.8.1

> <Gold.Id.Protein>
6NUR|6NUR_protein|mol2

> <Gold.PLP.Fitness>
45.2471

> <Gold.PLP.PLP>
-39.9718

> <Gold.PLP.part.hbond>
-1.0000

> <Gold.PLP.part.metal>
0.0000

> <Gold.PLP.part.buried>
-6.0782

> <Gold.PLP.part.nonpolar>
-33.1169

> <Gold.PLP.part.repulsive>
0.1256

> <Gold.PLP.ligand.clash>
0.0000

> <Gold.PLP.ligand.torsion>
0.3652

> <Gold.PLP.Chemscore.Hbond>
2.0000

> <Gold.PLP.Chemscore.CHOScore>
0.0000

> <Gold.PLP.Chemscore.Metal>
0.0000

> <Gold.PLP.Chemscore.Internal.Correction>
0.0057

> <Gold.Rescore>
     Score         DG    S(hbond)    S(metal)    S(lipo)     H(rot)  DE(clash)    DE(int)     intcor
     16.72     -17.05       0.60        0.00     107.27       1.17       0.05       0.27       ----

> <Gold.Chemscore.Fitness>
16.7224

> <Gold.Chemscore.DG>
-17.0487

> <Gold.Chemscore.ZeroCoef>
-5.4800

> <Gold.Chemscore.Hbond>
0.6023

> <Gold.Chemscore.Metal>
0.0000

> <Gold.Chemscore.Lipo>
107.2673

> <Gold.Chemscore.Internal_Hbond>
0.0000

> <Gold.Chemscore.DEClash>
0.0532

> <Gold.Chemscore.DEInternal>
0.2731

> <Gold.Chemscore.Rot>
1.1693

> <Gold.Chemscore.Internal.Correction>
   9.000000E+99

> <Gold.Chemscore.Hbond.Weighted>
-2.0118

> <Gold.Chemscore.Metal.Weighted>
-0.0000

> <Gold.Chemscore.Lipo.Weighted>
-12.5503

> <Gold.Chemscore.Internal_Hbond.Weighted>
0.0000

> <Gold.Chemscore.DEClash.Weighted>
0.0532

> <Gold.Chemscore.DEInternal.Weighted>
0.2731

> <Gold.Chemscore.Rot.Weighted>
2.9934

> <Gold.Chemscore.Internal.Correction.Weighted>
   9.000000E+99

> <Gold.Protein.RotatedTorsions>
[ 6907 6896 6895 6894 ] final  -16.56 input  -60.11 | X-H torsion
[ 7974 7965 7964 7962 ] final  142.97 input  175.53 | X-H torsion
[ 8008 7997 7996 7995 ] final   85.76 input   59.86 | X-H torsion
[ 10167 10162 10161 10158 ] final   63.11 input  -65.29 | X-H torsion
[ 10718 10713 10712 10709 ] final -161.53 input   66.30 | X-H torsion
[ 10763 10752 10751 10750 ] final  -14.01 input  -60.55 | X-H torsion
[ 11005 11000 10999 10996 ] final  125.54 input  -57.11 | X-H torsion

> <Gold.Protein.ActiveResidues>
 VAL166  LYS551  ARG553  GLY616  TRP617  ASP618  TYR619  PRO620  LYS621  CYS622 
 ASP623  PHE694  ASN695  SER759  ASP760  ASP761  ALA762  ILE779  LEU786  VAL792 
 PHE793  MET794  SER795  GLU796  ALA797  LYS798  CYS799  TRP800  GLU811  SER814 

> <Gold.Protein.RotatedAtoms>
  151.3068  135.0783  159.9257 H   0  0  0  0  0  0  0  0  0  0  0  0  # atno 6907 bound_to 6896
  152.5286  133.9777  159.7802 H   0  0  0  0  0  0  0  0  0  0  0  0  # atno 6908 bound_to 6896
  151.0073  133.5947  159.2717 H   0  0  0  0  0  0  0  0  0  0  0  0  # atno 6909 bound_to 6896
  144.8961  139.5488  143.5775 H   0  0  0  0  0  0  0  0  0  0  0  0  # atno 7974 bound_to 7965
  155.9542  140.3398  155.6434 H   0  0  0  0  0  0  0  0  0  0  0  0  # atno 8008 bound_to 7997
  155.6881  140.0745  157.2477 H   0  0  0  0  0  0  0  0  0  0  0  0  # atno 8009 bound_to 7997
  154.4128  140.1662  156.2044 H   0  0  0  0  0  0  0  0  0  0  0  0  # atno 8010 bound_to 7997
  140.1366  144.4593  150.6834 H   0  0  0  0  0  0  0  0  0  0  0  0  # atno 10167 bound_to 10162
  156.5975  130.8796  151.2905 H   0  0  0  0  0  0  0  0  0  0  0  0  # atno 10718 bound_to 10713
  153.5218  135.7015  153.5727 H   0  0  0  0  0  0  0  0  0  0  0  0  # atno 10763 bound_to 10752
  153.3773  135.3929  155.1831 H   0  0  0  0  0  0  0  0  0  0  0  0  # atno 10764 bound_to 10752
  154.8694  135.3826  154.4708 H   0  0  0  0  0  0  0  0  0  0  0  0  # atno 10765 bound_to 10752
  139.9412  134.9635  156.8574 H   0  0  0  0  0  0  0  0  0  0  0  0  # atno 11005 bound_to 11000
  146.3082  139.7653  142.9040 LP  0  0  0  0  0  0  0  0  0  0  0  0  # atno 17320 bound_to 7965
  145.3697  141.0340  143.3238 LP  0  0  0  0  0  0  0  0  0  0  0  0  # atno 17321 bound_to 7965
  140.6785  143.2316  151.5445 LP  0  0  0  0  0  0  0  0  0  0  0  0  # atno 17342 bound_to 10162
  139.5493  144.2439  152.1500 LP  0  0  0  0  0  0  0  0  0  0  0  0  # atno 17343 bound_to 10162
  157.7288  130.9662  150.1758 LP  0  0  0  0  0  0  0  0  0  0  0  0  # atno 17370 bound_to 10713
  156.2497  130.3699  149.8246 LP  0  0  0  0  0  0  0  0  0  0  0  0  # atno 17371 bound_to 10713
  140.5948  134.0227  155.7514 LP  0  0  0  0  0  0  0  0  0  0  0  0  # atno 17394 bound_to 11000
  141.1046  133.9713  157.3018 LP  0  0  0  0  0  0  0  0  0  0  0  0  # atno 17395 bound_to 11000

$$$$
