AV-unprocessed.smi:2888|AV-procd|sdf|11106|dock6
  -GOLD-   2272015573D 1   1.00000     0.00000
 Structure written by MMmdl.
 34 36  0  0  0  0  0  0  0  0  2 V2000
  152.7490  140.2400  159.2231 C   0  0  0  0  0  0  0  0  0  0  0  0
  152.0939  141.4742  158.6399 C   0  0  0  0  0  0  0  0  0  0  0  0
  152.5120  142.7694  158.9911 C   0  0  0  0  0  0  0  0  0  0  0  0
  151.8280  143.8407  158.3843 C   0  0  0  0  0  0  0  0  0  0  0  0
  152.1747  145.2850  158.6766 C   0  0  0  0  0  0  0  0  0  0  0  0
  150.8206  143.5962  157.5091 N   0  3  0  0  0  0  0  0  0  0  0  0
  150.4731  142.3323  157.2216 C   0  0  0  0  0  0  0  0  0  0  0  0
  149.4364  142.1436  156.3255 N   0  0  0  0  0  0  0  0  0  0  0  0
  148.9421  140.8356  155.9111 C   0  0  2  0  0  0  0  0  0  0  0  0
  149.2174  140.5235  154.4379 C   0  0  0  0  0  0  0  0  0  0  0  0
  147.8157  140.1608  153.9266 C   0  0  2  0  0  0  0  0  0  0  0  0
  146.9383  141.4081  153.7605 C   0  0  0  0  0  0  0  0  0  0  0  0
  146.6413  141.7739  155.2137 C   0  0  0  0  0  0  0  0  0  0  0  0
  147.4096  140.6839  155.9810 C   0  0  1  0  0  0  0  0  0  0  0  0
  147.2405  139.5930  155.0919 O   0  0  0  0  0  0  0  0  0  0  0  0
  151.0870  141.2719  157.7667 N   0  0  0  0  0  0  0  0  0  0  0  0
  153.6058  140.5044  159.8434 H   0  0  0  0  0  0  0  0  0  0  0  0
  153.0970  139.5812  158.4269 H   0  0  0  0  0  0  0  0  0  0  0  0
  152.0382  139.6893  159.8399 H   0  0  0  0  0  0  0  0  0  0  0  0
  153.3174  142.9347  159.6923 H   0  0  0  0  0  0  0  0  0  0  0  0
  153.0801  145.3572  159.2799 H   0  0  0  0  0  0  0  0  0  0  0  0
  151.3622  145.7662  159.2214 H   0  0  0  0  0  0  0  0  0  0  0  0
  152.3402  145.8339  157.7492 H   0  0  0  0  0  0  0  0  0  0  0  0
  148.8902  142.9544  156.0736 H   0  0  0  0  0  0  0  0  0  0  0  0
  149.4120  140.0665  156.5260 H   0  0  0  0  0  0  0  0  0  0  0  0
  149.6501  141.3573  153.8829 H   0  0  0  0  0  0  0  0  0  0  0  0
  149.8957  139.6738  154.3521 H   0  0  0  0  0  0  0  0  0  0  0  0
  147.8173  139.5026  153.0572 H   0  0  0  0  0  0  0  0  0  0  0  0
  147.4472  142.2047  153.2171 H   0  0  0  0  0  0  0  0  0  0  0  0
  146.0159  141.1680  153.2304 H   0  0  0  0  0  0  0  0  0  0  0  0
  146.9563  142.7851  155.4721 H   0  0  0  0  0  0  0  0  0  0  0  0
  145.5715  141.6965  155.4108 H   0  0  0  0  0  0  0  0  0  0  0  0
  147.0275  140.5003  156.9857 H   0  0  0  0  0  0  0  0  0  0  0  0
  150.3331  144.3820  157.0781 H   0  0  0  0  0  0  0  0  0  0  0  0
  1  2  1  0  0  0  0
  1 17  1  0  0  0  0
  1 18  1  0  0  0  0
  1 19  1  0  0  0  0
  2 16  1  0  0  0  0
  2  3  2  0  0  0  0
  3  4  1  0  0  0  0
  3 20  1  0  0  0  0
  4  5  1  0  0  0  0
  4  6  2  0  0  0  0
  5 21  1  0  0  0  0
  5 22  1  0  0  0  0
  5 23  1  0  0  0  0
  6  7  1  0  0  0  0
  6 34  1  0  0  0  0
  7  8  1  0  0  0  0
  7 16  2  0  0  0  0
  8  9  1  0  0  0  0
  8 24  1  0  0  0  0
  9 14  1  0  0  0  0
  9 10  1  0  0  0  0
  9 25  1  0  0  0  0
 10 11  1  0  0  0  0
 10 26  1  0  0  0  0
 10 27  1  0  0  0  0
 11 15  1  0  0  0  0
 11 12  1  0  0  0  0
 11 28  1  0  0  0  0
 12 13  1  0  0  0  0
 12 29  1  0  0  0  0
 12 30  1  0  0  0  0
 13 14  1  0  0  0  0
 13 31  1  0  0  0  0
 13 32  1  0  0  0  0
 14 15  1  0  0  0  0
 14 33  1  0  0  0  0
M  CHG  1   6   1
M  END
> <s_m_source_file>
AV-unprocessed.smi

> <i_m_source_file_index>
2888

> <i_lp_mmshare_version>
43012

> <i_f3d_flags>
0

> <s_epik_input>
W0NIM11jMVtjSF1jKFtDSDNdKW5jKG4xKVtOSF1bQ0BIXShbQ0gyXVtDQEBIXTIzKVtDQEBIXShPMylbQ0gyXVtDSDJdMg==

> <s_epik_cmdline>
J2VwaWtfcHl0aG9uJywgJy1waCcsICc3LjAnLCAnLXRuJywgJzgnLCAnLW1hJywgJzIwMCcsICctbWV0YWxfYmluZGluZycsICctaW1hZScsICc8aW5maWxlLm1hZT4nLCAnLW9tYWUnLCAnPG91dGZpbGUubWFlPic=

> <r_lp_tautomer_probability>
0.505494

> <r_epik_Ionization_Penalty>
2.49163

> <r_epik_Ionization_Penalty_Charging>
2.49163

> <r_epik_Ionization_Penalty_Neutral>
3.7631e-06

> <r_epik_State_Penalty>
2.656

> <r_epik_Charging_Adjusted_Penalty>
5.14762

> <i_epik_Tot_Q>
1

> <i_epik_Tot_abs_Q>
1

> <r_epik_Metal_State_Penalty>
2.66479

> <b_epik_Metal_Only>
0

> <s_lp_Force_Field>
OPLS_2005

> <r_lp_Energy>
36.4538

> <b_lp_Chiralities_Consistent>
1

> <s_lp_Variant>
AV-unprocessed.smi:2888-7

> <Gold.Version>
5.8.1

> <Gold.Id.Protein>
6NUR|6NUR_protein|mol2

> <Gold.PLP.Fitness>
42.4658

> <Gold.PLP.PLP>
-31.7265

> <Gold.PLP.part.hbond>
-2.0000

> <Gold.PLP.part.metal>
0.0000

> <Gold.PLP.part.buried>
-3.6872

> <Gold.PLP.part.nonpolar>
-25.7963

> <Gold.PLP.part.repulsive>
0.1470

> <Gold.PLP.ligand.clash>
0.0000

> <Gold.PLP.ligand.torsion>
0.0827

> <Gold.PLP.Chemscore.Hbond>
3.6320

> <Gold.PLP.Chemscore.CHOScore>
0.0000

> <Gold.PLP.Chemscore.Metal>
0.0000

> <Gold.Chemscore.Hbonds>
donor molecule, donor type, donor heavy atom, donor atom, acceptor molecule, acceptor atom, score
      L1  H     6    34       P1  8028  1.63
      L1  H     8    24       P1  8028  1.92

> <Gold.PLP.Chemscore.Internal.Correction>
0.0087

> <Gold.Rescore>
     Score         DG    S(hbond)    S(metal)    S(lipo)     H(rot)  DE(clash)    DE(int)     intcor
     18.66     -18.72       1.62        0.00      88.91       1.00       0.05       0.01       ----

> <Gold.Chemscore.Fitness>
18.6575

> <Gold.Chemscore.DG>
-18.7198

> <Gold.Chemscore.ZeroCoef>
-5.4800

> <Gold.Chemscore.Hbond>
1.6160

> <Gold.Chemscore.Metal>
0.0000

> <Gold.Chemscore.Lipo>
88.9082

> <Gold.Chemscore.Internal_Hbond>
0.0000

> <Gold.Chemscore.DEClash>
0.0547

> <Gold.Chemscore.DEInternal>
0.0075

> <Gold.Chemscore.Rot>
1.0000

> <Gold.Chemscore.Internal.Correction>
   9.000000E+99

> <Gold.Chemscore.Hbonds>
donor molecule, donor type, donor heavy atom, donor atom, acceptor molecule, acceptor atom, score
      L1  H     6    34       P1  8028  0.62
      L1  H     8    24       P1  8028  0.92

> <Gold.Chemscore.Hbond.Weighted>
-5.3975

> <Gold.Chemscore.Metal.Weighted>
-0.0000

> <Gold.Chemscore.Lipo.Weighted>
-10.4023

> <Gold.Chemscore.Internal_Hbond.Weighted>
0.0000

> <Gold.Chemscore.DEClash.Weighted>
0.0547

> <Gold.Chemscore.DEInternal.Weighted>
0.0075

> <Gold.Chemscore.Rot.Weighted>
2.5600

> <Gold.Chemscore.Internal.Correction.Weighted>
   9.000000E+99

> <Gold.Protein.RotatedTorsions>
[ 6907 6896 6895 6894 ] final -176.01 input  -60.11 | X-H torsion
[ 7974 7965 7964 7962 ] final   33.61 input  175.53 | X-H torsion
[ 8008 7997 7996 7995 ] final -126.93 input   59.86 | X-H torsion
[ 10167 10162 10161 10158 ] final -117.27 input  -65.29 | X-H torsion
[ 10718 10713 10712 10709 ] final   43.17 input   66.30 | X-H torsion
[ 10763 10752 10751 10750 ] final    5.01 input  -60.55 | X-H torsion
[ 11005 11000 10999 10996 ] final  -56.05 input  -57.11 | X-H torsion

> <Gold.Protein.ActiveResidues>
 VAL166  LYS551  ARG553  GLY616  TRP617  ASP618  TYR619  PRO620  LYS621  CYS622 
 ASP623  PHE694  ASN695  SER759  ASP760  ASP761  ALA762  ILE779  LEU786  VAL792 
 PHE793  MET794  SER795  GLU796  ALA797  LYS798  CYS799  TRP800  GLU811  SER814 

> <Gold.Protein.RotatedAtoms>
  151.5978  133.3359  159.3040 H   0  0  0  0  0  0  0  0  0  0  0  0  # atno 6907 bound_to 6896
  150.8224  134.7442  159.6795 H   0  0  0  0  0  0  0  0  0  0  0  0  # atno 6908 bound_to 6896
  152.4317  134.5771  159.9989 H   0  0  0  0  0  0  0  0  0  0  0  0  # atno 6909 bound_to 6896
  146.1409  139.6374  142.9164 H   0  0  0  0  0  0  0  0  0  0  0  0  # atno 7974 bound_to 7965
  155.2379  140.0427  157.2971 H   0  0  0  0  0  0  0  0  0  0  0  0  # atno 8008 bound_to 7997
  154.5847  140.2410  155.7974 H   0  0  0  0  0  0  0  0  0  0  0  0  # atno 8009 bound_to 7997
  156.2218  140.2967  155.9978 H   0  0  0  0  0  0  0  0  0  0  0  0  # atno 8010 bound_to 7997
  140.0702  143.4885  152.1984 H   0  0  0  0  0  0  0  0  0  0  0  0  # atno 10167 bound_to 10162
  157.4130  130.7925  149.7447 H   0  0  0  0  0  0  0  0  0  0  0  0  # atno 10718 bound_to 10713
  153.2645  135.6926  153.7544 H   0  0  0  0  0  0  0  0  0  0  0  0  # atno 10763 bound_to 10752
  153.6590  135.3363  155.3123 H   0  0  0  0  0  0  0  0  0  0  0  0  # atno 10764 bound_to 10752
  154.8442  135.4472  154.1647 H   0  0  0  0  0  0  0  0  0  0  0  0  # atno 10765 bound_to 10752
  141.1102  133.6611  156.4561 H   0  0  0  0  0  0  0  0  0  0  0  0  # atno 11005 bound_to 11000
  145.5049  141.0437  143.2520 LP  0  0  0  0  0  0  0  0  0  0  0  0  # atno 17320 bound_to 7965
  144.7791  139.6565  143.7162 LP  0  0  0  0  0  0  0  0  0  0  0  0  # atno 17321 bound_to 7965
  139.5841  144.7523  151.3566 LP  0  0  0  0  0  0  0  0  0  0  0  0  # atno 17342 bound_to 10162
  140.7129  143.7342  150.7601 LP  0  0  0  0  0  0  0  0  0  0  0  0  # atno 17343 bound_to 10162
  155.9856  130.3981  150.3252 LP  0  0  0  0  0  0  0  0  0  0  0  0  # atno 17370 bound_to 10713
  157.1392  131.0292  151.2935 LP  0  0  0  0  0  0  0  0  0  0  0  0  # atno 17371 bound_to 10713
  140.4795  134.6678  157.5165 LP  0  0  0  0  0  0  0  0  0  0  0  0  # atno 17394 bound_to 11000
  139.9992  134.6863  155.9558 LP  0  0  0  0  0  0  0  0  0  0  0  0  # atno 17395 bound_to 11000

$$$$
