AV-unprocessed.smi:1100|AV-procd|sdf|4759|dock6
  -GOLD-   22720 3293D 1   1.00000     0.00000
 Structure written by MMmdl.
 43 44  0  0  0  0  0  0  0  0  1 V2000
  146.9654  141.3218  153.5328 C   0  0  0  0  0  0  0  0  0  0  0  0
  147.7020  139.9711  153.7225 C   0  0  2  0  0  0  0  0  0  0  0  0
  146.6555  138.8746  154.0778 C   0  0  0  0  0  0  0  0  0  0  0  0
  146.7686  137.6720  153.2566 N   0  0  0  0  0  0  0  0  0  0  0  0
  145.7527  136.8559  152.9411 C   0  0  0  0  0  0  0  0  0  0  0  0
  144.5954  137.0493  153.3116 O   0  0  0  0  0  0  0  0  0  0  0  0
  146.1790  135.8315  152.1799 N   0  0  0  0  0  0  0  0  0  0  0  0
  145.4523  134.7472  151.6685 C   0  0  0  0  0  0  0  0  0  0  0  0
  144.0789  134.4121  152.0174 C   0  0  0  0  0  0  0  0  0  0  0  0
  143.4680  133.3432  151.4686 C   0  0  0  0  0  0  0  0  0  0  0  0
  144.1503  132.4760  150.5051 C   0  0  0  0  0  0  0  0  0  0  0  0
  143.5991  131.5028  149.9902 O   0  0  0  0  0  0  0  0  0  0  0  0
  145.4394  132.8163  150.2169 N   0  0  0  0  0  0  0  0  0  0  0  0
  146.2118  132.0093  149.2691 C   0  0  0  0  0  0  0  0  0  0  0  0
  146.0711  133.9342  150.7931 C   0  0  0  0  0  0  0  0  0  0  0  0
  148.8141  140.0555  154.6980 N   0  0  0  0  0  0  0  0  0  0  0  0
  149.8637  139.0601  154.4484 C   0  0  0  0  0  0  0  0  0  0  0  0
  151.0362  139.1655  155.4389 C   0  0  0  0  0  0  0  0  0  0  0  0
  151.5854  140.4751  155.3956 O   0  0  0  0  0  0  0  0  0  0  0  0
  150.6191  141.4683  155.7088 C   0  0  0  0  0  0  0  0  0  0  0  0
  149.4458  141.3802  154.7178 C   0  0  0  0  0  0  0  0  0  0  0  0
  146.1184  141.2426  152.8524 H   0  0  0  0  0  0  0  0  0  0  0  0
  147.6072  142.0847  153.0947 H   0  0  0  0  0  0  0  0  0  0  0  0
  146.5880  141.7018  154.4826 H   0  0  0  0  0  0  0  0  0  0  0  0
  148.1303  139.7061  152.7548 H   0  0  0  0  0  0  0  0  0  0  0  0
  146.7363  138.5511  155.1145 H   0  0  0  0  0  0  0  0  0  0  0  0
  145.6475  139.2726  153.9578 H   0  0  0  0  0  0  0  0  0  0  0  0
  147.6891  137.4443  152.9100 H   0  0  0  0  0  0  0  0  0  0  0  0
  147.1587  135.8346  151.9368 H   0  0  0  0  0  0  0  0  0  0  0  0
  143.5156  134.9938  152.7285 H   0  0  0  0  0  0  0  0  0  0  0  0
  142.4503  133.1147  151.7495 H   0  0  0  0  0  0  0  0  0  0  0  0
  147.2442  132.3463  149.1718 H   0  0  0  0  0  0  0  0  0  0  0  0
  145.7591  132.0512  148.2776 H   0  0  0  0  0  0  0  0  0  0  0  0
  146.2416  130.9655  149.5856 H   0  0  0  0  0  0  0  0  0  0  0  0
  147.0909  134.0928  150.4726 H   0  0  0  0  0  0  0  0  0  0  0  0
  149.4689  138.0504  154.5379 H   0  0  0  0  0  0  0  0  0  0  0  0
  150.2395  139.1660  153.4295 H   0  0  0  0  0  0  0  0  0  0  0  0
  150.7072  138.9336  156.4529 H   0  0  0  0  0  0  0  0  0  0  0  0
  151.8134  138.4455  155.1828 H   0  0  0  0  0  0  0  0  0  0  0  0
  150.2699  141.3381  156.7345 H   0  0  0  0  0  0  0  0  0  0  0  0
  151.0885  142.4506  155.6530 H   0  0  0  0  0  0  0  0  0  0  0  0
  149.7973  141.6375  153.7173 H   0  0  0  0  0  0  0  0  0  0  0  0
  148.7270  142.1445  155.0075 H   0  0  0  0  0  0  0  0  0  0  0  0
  1  2  1  0  0  0  0
  1 22  1  0  0  0  0
  1 23  1  0  0  0  0
  1 24  1  0  0  0  0
  2  3  1  0  0  0  0
  2 16  1  0  0  0  0
  2 25  1  0  0  0  0
  3  4  1  0  0  0  0
  3 26  1  0  0  0  0
  3 27  1  0  0  0  0
  4  5  1  0  0  0  0
  4 28  1  0  0  0  0
  5  6  2  0  0  0  0
  5  7  1  0  0  0  0
  7  8  1  0  0  0  0
  7 29  1  0  0  0  0
  8 15  2  0  0  0  0
  8  9  1  0  0  0  0
  9 10  2  0  0  0  0
  9 30  1  0  0  0  0
 10 11  1  0  0  0  0
 10 31  1  0  0  0  0
 11 12  2  0  0  0  0
 11 13  1  0  0  0  0
 13 14  1  0  0  0  0
 13 15  1  0  0  0  0
 14 32  1  0  0  0  0
 14 33  1  0  0  0  0
 14 34  1  0  0  0  0
 15 35  1  0  0  0  0
 16 21  1  0  0  0  0
 16 17  1  0  0  0  0
 17 18  1  0  0  0  0
 17 36  1  0  0  0  0
 17 37  1  0  0  0  0
 18 19  1  0  0  0  0
 18 38  1  0  0  0  0
 18 39  1  0  0  0  0
 19 20  1  0  0  0  0
 20 21  1  0  0  0  0
 20 40  1  0  0  0  0
 20 41  1  0  0  0  0
 21 42  1  0  0  0  0
 21 43  1  0  0  0  0
M  END
> <s_m_source_file>
AV-unprocessed.smi

> <i_m_source_file_index>
1100

> <i_lp_mmshare_version>
43012

> <i_f3d_flags>
0

> <s_epik_input>
W0NIMl0xW0NIMl1PW0NIMl1bQ0gyXU4xW0NASF0oW0NIM10pW0NIMl1bTkhdQyg9TylbTkhdYzJbY0hdW2NIXWMoPU8pbihbQ0gzXSlbY0hdMg==

> <s_epik_cmdline>
J2VwaWtfcHl0aG9uJywgJy1waCcsICc3LjAnLCAnLXRuJywgJzgnLCAnLW1hJywgJzIwMCcsICctbWV0YWxfYmluZGluZycsICctaW1hZScsICc8aW5maWxlLm1hZT4nLCAnLW9tYWUnLCAnPG91dGZpbGUubWFlPic=

> <r_lp_tautomer_probability>
1

> <r_epik_Ionization_Penalty>
0.266016

> <r_epik_Ionization_Penalty_Charging>
5.79683e-06

> <r_epik_Ionization_Penalty_Neutral>
0.26601

> <r_epik_State_Penalty>
0.257924

> <r_epik_Charging_Adjusted_Penalty>
0.25793

> <i_epik_Tot_Q>
0

> <i_epik_Tot_abs_Q>
0

> <r_epik_Metal_State_Penalty>
0.260326

> <b_epik_Metal_Only>
0

> <s_lp_Force_Field>
OPLS_2005

> <r_lp_Energy>
41.8129

> <b_lp_Chiralities_Consistent>
1

> <s_lp_Variant>
AV-unprocessed.smi:1100-1

> <Gold.Version>
5.8.1

> <Gold.Id.Protein>
6NUR|6NUR_protein|mol2

> <Gold.PLP.Fitness>
45.7072

> <Gold.PLP.PLP>
-37.9394

> <Gold.PLP.part.hbond>
-4.0000

> <Gold.PLP.part.metal>
0.0000

> <Gold.PLP.part.buried>
-3.2395

> <Gold.PLP.part.nonpolar>
-29.5564

> <Gold.PLP.part.repulsive>
1.0132

> <Gold.PLP.ligand.clash>
0.0193

> <Gold.PLP.ligand.torsion>
1.4474

> <Gold.PLP.Chemscore.Hbond>
3.5488

> <Gold.PLP.Chemscore.CHOScore>
0.0000

> <Gold.PLP.Chemscore.Metal>
0.0000

> <Gold.Chemscore.Hbonds>
donor molecule, donor type, donor heavy atom, donor atom, acceptor molecule, acceptor atom, score
      L1  H     4    28       P1  7948  0.99
      L1  H     7    29       P1  7948  1.00
      P1  H  7989  7998       L1    19  0.61
      P1  H 10785 10796       L1    12  0.90

> <Gold.PLP.Chemscore.Internal.Correction>
0.0355

> <Gold.Rescore>
     Score         DG    S(hbond)    S(metal)    S(lipo)     H(rot)  DE(clash)    DE(int)     intcor
     17.91     -20.86       2.85        0.00      82.63       1.49       0.44       2.50       ----

> <Gold.Chemscore.Fitness>
17.9142

> <Gold.Chemscore.DG>
-20.8579

> <Gold.Chemscore.ZeroCoef>
-5.4800

> <Gold.Chemscore.Hbond>
2.8545

> <Gold.Chemscore.Metal>
0.0000

> <Gold.Chemscore.Lipo>
82.6333

> <Gold.Chemscore.Internal_Hbond>
0.0000

> <Gold.Chemscore.DEClash>
0.4438

> <Gold.Chemscore.DEInternal>
2.4999

> <Gold.Chemscore.Rot>
1.4938

> <Gold.Chemscore.Internal.Correction>
   9.000000E+99

> <Gold.Chemscore.Hbonds>
donor molecule, donor type, donor heavy atom, donor atom, acceptor molecule, acceptor atom, score
      L1  H     4    28       P1  7948  0.88
      L1  H     7    29       P1  7948  1.00
      P1  H  7989  7998       L1    19  0.03
      P1  H 10785 10796       L1    12  0.88

> <Gold.Chemscore.Hbond.Weighted>
-9.5340

> <Gold.Chemscore.Metal.Weighted>
-0.0000

> <Gold.Chemscore.Lipo.Weighted>
-9.6681

> <Gold.Chemscore.Internal_Hbond.Weighted>
0.0000

> <Gold.Chemscore.DEClash.Weighted>
0.4438

> <Gold.Chemscore.DEInternal.Weighted>
2.4999

> <Gold.Chemscore.Rot.Weighted>
3.8242

> <Gold.Chemscore.Internal.Correction.Weighted>
   9.000000E+99

> <Gold.Protein.RotatedTorsions>
[ 6907 6896 6895 6894 ] final   26.69 input  -60.11 | X-H torsion
[ 7974 7965 7964 7962 ] final    8.64 input  175.53 | X-H torsion
[ 8008 7997 7996 7995 ] final  -43.83 input   59.86 | X-H torsion
[ 10167 10162 10161 10158 ] final    5.26 input  -65.29 | X-H torsion
[ 10718 10713 10712 10709 ] final  171.73 input   66.30 | X-H torsion
[ 10763 10752 10751 10750 ] final -173.17 input  -60.55 | X-H torsion
[ 11005 11000 10999 10996 ] final -138.46 input  -57.11 | X-H torsion

> <Gold.Protein.ActiveResidues>
 VAL166  LYS551  ARG553  GLY616  TRP617  ASP618  TYR619  PRO620  LYS621  CYS622 
 ASP623  PHE694  ASN695  SER759  ASP760  ASP761  ALA762  ILE779  LEU786  VAL792 
 PHE793  MET794  SER795  GLU796  ALA797  LYS798  CYS799  TRP800  GLU811  SER814 

> <Gold.Protein.RotatedAtoms>
  151.9912  134.9978  160.0561 H   0  0  0  0  0  0  0  0  0  0  0  0  # atno 6907 bound_to 6896
  152.1607  133.4575  159.4867 H   0  0  0  0  0  0  0  0  0  0  0  0  # atno 6908 bound_to 6896
  150.6887  134.1993  159.4359 H   0  0  0  0  0  0  0  0  0  0  0  0  # atno 6909 bound_to 6896
  146.2414  139.9903  142.8426 H   0  0  0  0  0  0  0  0  0  0  0  0  # atno 7974 bound_to 7965
  154.3997  140.1437  156.3584 H   0  0  0  0  0  0  0  0  0  0  0  0  # atno 8008 bound_to 7997
  155.8204  140.3469  155.5490 H   0  0  0  0  0  0  0  0  0  0  0  0  # atno 8009 bound_to 7997
  155.8294  140.0910  157.1792 H   0  0  0  0  0  0  0  0  0  0  0  0  # atno 8010 bound_to 7997
  140.6491  143.7588  150.7546 H   0  0  0  0  0  0  0  0  0  0  0  0  # atno 10167 bound_to 10162
  156.9892  131.0142  151.2861 H   0  0  0  0  0  0  0  0  0  0  0  0  # atno 10718 bound_to 10713
  154.6109  135.2864  155.0433 H   0  0  0  0  0  0  0  0  0  0  0  0  # atno 10763 bound_to 10752
  154.1664  135.6480  153.5002 H   0  0  0  0  0  0  0  0  0  0  0  0  # atno 10764 bound_to 10752
  153.0194  135.5390  154.6862 H   0  0  0  0  0  0  0  0  0  0  0  0  # atno 10765 bound_to 10752
  140.8613  134.2165  157.4705 H   0  0  0  0  0  0  0  0  0  0  0  0  # atno 11005 bound_to 11000
  145.1510  140.9623  143.4433 LP  0  0  0  0  0  0  0  0  0  0  0  0  # atno 17320 bound_to 7965
  145.0205  139.3428  143.6074 LP  0  0  0  0  0  0  0  0  0  0  0  0  # atno 17321 bound_to 7965
  140.1235  143.4590  152.2298 LP  0  0  0  0  0  0  0  0  0  0  0  0  # atno 17342 bound_to 10162
  139.5704  144.7460  151.3905 LP  0  0  0  0  0  0  0  0  0  0  0  0  # atno 17343 bound_to 10162
  157.5471  130.8157  149.8099 LP  0  0  0  0  0  0  0  0  0  0  0  0  # atno 17370 bound_to 10713
  156.0214  130.3794  150.1952 LP  0  0  0  0  0  0  0  0  0  0  0  0  # atno 17371 bound_to 10713
  139.8707  134.9731  156.4797 LP  0  0  0  0  0  0  0  0  0  0  0  0  # atno 17394 bound_to 11000
  140.8679  133.8010  155.9333 LP  0  0  0  0  0  0  0  0  0  0  0  0  # atno 17395 bound_to 11000

$$$$
