AV-unprocessed.smi:794|AV-procd|sdf|3763|dock3
  -GOLD-   22720 1193D 1   1.00000     0.00000
 Structure written by MMmdl.
 41 43  0  0  0  0  0  0  0  0  1 V2000
  148.0385  141.1827  156.4041 C   0  0  0  0  0  0  0  0  0  0  0  0
  147.5650  140.6602  155.0824 C   0  0  0  0  0  0  0  0  0  0  0  0
  147.6603  139.2927  154.8084 N   0  0  0  0  0  0  0  0  0  0  0  0
  147.1955  138.9868  153.5928 C   0  0  0  0  0  0  0  0  0  0  0  0
  147.1633  137.6742  153.0538 N   0  0  0  0  0  0  0  0  0  0  0  0
  146.1522  136.7888  153.0812 C   0  0  0  0  0  0  0  0  0  0  0  0
  145.0589  136.9711  153.6175 O   0  0  0  0  0  0  0  0  0  0  0  0
  146.4830  135.6588  152.4412 N   0  0  0  0  0  0  0  0  0  0  0  0
  145.6111  134.4981  152.2831 C   0  0  1  0  0  0  0  0  0  0  0  0
  144.2134  134.9337  151.7910 C   0  0  2  0  0  0  0  0  0  0  0  0
  143.2255  133.7771  152.0259 C   0  0  0  0  0  0  0  0  0  0  0  0
  143.6448  132.7587  150.9489 C   0  0  0  0  0  0  0  0  0  0  0  0
  144.8296  133.4600  150.2497 C   0  0  1  0  0  0  0  0  0  0  0  0
  144.3609  134.9093  150.2720 C   0  0  0  0  0  0  0  0  0  0  0  0
  146.0817  133.5404  151.1588 C   0  0  2  0  0  0  0  0  0  0  0  0
  146.6407  132.1979  151.6688 C   0  0  0  0  0  0  0  0  0  0  0  0
  147.9065  132.3871  152.2650 O   0  0  0  0  0  0  0  0  0  0  0  0
  146.6057  140.3738  152.6943 S   0  0  0  0  0  0  0  0  0  0  0  0
  147.0146  141.3902  154.0540 C   0  0  0  0  0  0  0  0  0  0  0  0
  146.7624  142.8606  154.0117 C   0  0  0  0  0  0  0  0  0  0  0  0
  148.6244  142.0936  156.2812 H   0  0  0  0  0  0  0  0  0  0  0  0
  148.6667  140.4578  156.9229 H   0  0  0  0  0  0  0  0  0  0  0  0
  147.1967  141.4165  157.0560 H   0  0  0  0  0  0  0  0  0  0  0  0
  148.0041  137.3806  152.5791 H   0  0  0  0  0  0  0  0  0  0  0  0
  147.4037  135.5935  152.0321 H   0  0  0  0  0  0  0  0  0  0  0  0
  145.5252  133.9843  153.2428 H   0  0  0  0  0  0  0  0  0  0  0  0
  143.8706  135.8818  152.2073 H   0  0  0  0  0  0  0  0  0  0  0  0
  143.2909  133.3690  153.0351 H   0  0  0  0  0  0  0  0  0  0  0  0
  142.1976  134.1043  151.8647 H   0  0  0  0  0  0  0  0  0  0  0  0
  143.8995  131.7842  151.3631 H   0  0  0  0  0  0  0  0  0  0  0  0
  142.8280  132.6027  150.2430 H   0  0  0  0  0  0  0  0  0  0  0  0
  145.0404  133.0690  149.2538 H   0  0  0  0  0  0  0  0  0  0  0  0
  143.4197  135.0694  149.7429 H   0  0  0  0  0  0  0  0  0  0  0  0
  145.1048  135.6131  149.8949 H   0  0  0  0  0  0  0  0  0  0  0  0
  146.8726  134.0259  150.5829 H   0  0  0  0  0  0  0  0  0  0  0  0
  145.9706  131.7782  152.4193 H   0  0  0  0  0  0  0  0  0  0  0  0
  146.7172  131.4575  150.8736 H   0  0  0  0  0  0  0  0  0  0  0  0
  148.5537  131.9350  151.7454 H   0  0  0  0  0  0  0  0  0  0  0  0
  146.3183  143.2055  154.9455 H   0  0  0  0  0  0  0  0  0  0  0  0
  146.0803  143.1207  153.2018 H   0  0  0  0  0  0  0  0  0  0  0  0
  147.6929  143.4071  153.8573 H   0  0  0  0  0  0  0  0  0  0  0  0
  1  2  1  0  0  0  0
  1 21  1  0  0  0  0
  1 22  1  0  0  0  0
  1 23  1  0  0  0  0
  2 19  2  0  0  0  0
  2  3  1  0  0  0  0
  3  4  2  0  0  0  0
  4  5  1  0  0  0  0
  4 18  1  0  0  0  0
  5  6  1  0  0  0  0
  5 24  1  0  0  0  0
  6  7  2  0  0  0  0
  6  8  1  0  0  0  0
  8  9  1  0  0  0  0
  8 25  1  0  0  0  0
  9 15  1  0  0  0  0
  9 10  1  0  0  0  0
  9 26  1  0  0  0  0
 10 14  1  0  0  0  0
 10 11  1  0  0  0  0
 10 27  1  0  0  0  0
 11 12  1  0  0  0  0
 11 28  1  0  0  0  0
 11 29  1  0  0  0  0
 12 13  1  0  0  0  0
 12 30  1  0  0  0  0
 12 31  1  0  0  0  0
 13 14  1  0  0  0  0
 13 15  1  0  0  0  0
 13 32  1  0  0  0  0
 14 33  1  0  0  0  0
 14 34  1  0  0  0  0
 15 16  1  0  0  0  0
 15 35  1  0  0  0  0
 16 17  1  0  0  0  0
 16 36  1  0  0  0  0
 16 37  1  0  0  0  0
 17 38  1  0  0  0  0
 18 19  1  0  0  0  0
 19 20  1  0  0  0  0
 20 39  1  0  0  0  0
 20 40  1  0  0  0  0
 20 41  1  0  0  0  0
M  END
> <s_m_source_file>
AV-unprocessed.smi

> <i_m_source_file_index>
794

> <i_lp_mmshare_version>
43012

> <i_f3d_flags>
0

> <s_epik_input>
W0NIM11jMW5jKHNjMVtDSDNdKVtOSF1DKD1PKVtOSF1bQ0BIXShbQ0BASF0yMylbQ0BIXShbQ0gyXVtPSF0pW0NAQEhdKFtDSDJdMylbQ0gyXVtDSDJdMg==

> <s_epik_cmdline>
J2VwaWtfcHl0aG9uJywgJy1waCcsICc3LjAnLCAnLXRuJywgJzgnLCAnLW1hJywgJzIwMCcsICctbWV0YWxfYmluZGluZycsICctaW1hZScsICc8aW5maWxlLm1hZT4nLCAnLW9tYWUnLCAnPG91dGZpbGUubWFlPic=

> <r_lp_tautomer_probability>
0.999

> <r_epik_Ionization_Penalty>
0.000713029

> <r_epik_Ionization_Penalty_Charging>
0

> <r_epik_Ionization_Penalty_Neutral>
0.000713029

> <r_epik_State_Penalty>
0.000177984

> <r_epik_Charging_Adjusted_Penalty>
0.000177984

> <i_epik_Tot_Q>
0

> <i_epik_Tot_abs_Q>
0

> <r_epik_Metal_State_Penalty>
-0

> <b_epik_Metal_Only>
0

> <s_lp_Force_Field>
OPLS_2005

> <r_lp_Energy>
46.861

> <b_lp_Chiralities_Consistent>
1

> <s_lp_Variant>
AV-unprocessed.smi:794-8

> <Gold.Version>
5.8.1

> <Gold.Id.Protein>
6NUR|6NUR_protein|mol2

> <Gold.PLP.Fitness>
37.2716

> <Gold.PLP.PLP>
-30.2423

> <Gold.PLP.part.hbond>
-3.0000

> <Gold.PLP.part.metal>
0.0000

> <Gold.PLP.part.buried>
0.6623

> <Gold.PLP.part.nonpolar>
-27.2465

> <Gold.PLP.part.repulsive>
0.2717

> <Gold.PLP.ligand.clash>
0.0000

> <Gold.PLP.ligand.torsion>
0.9946

> <Gold.PLP.Chemscore.Hbond>
3.0000

> <Gold.PLP.Chemscore.CHOScore>
0.0000

> <Gold.PLP.Chemscore.Metal>
0.0000

> <Gold.Chemscore.Hbonds>
donor molecule, donor type, donor heavy atom, donor atom, acceptor molecule, acceptor atom, score
      L1  H     5    24       P1  7948  1.00
      L1  H     8    25       P1  7948  1.00
      L1  H    17    38       P1 10747  1.00

> <Gold.PLP.Chemscore.Internal.Correction>
0.0184

> <Gold.Rescore>
     Score         DG    S(hbond)    S(metal)    S(lipo)     H(rot)  DE(clash)    DE(int)     intcor
     16.76     -19.55       2.84        0.00      78.19       1.78       0.61       2.19       ----

> <Gold.Chemscore.Fitness>
16.7583

> <Gold.Chemscore.DG>
-19.5533

> <Gold.Chemscore.ZeroCoef>
-5.4800

> <Gold.Chemscore.Hbond>
2.8386

> <Gold.Chemscore.Metal>
0.0000

> <Gold.Chemscore.Lipo>
78.1932

> <Gold.Chemscore.Internal_Hbond>
0.0000

> <Gold.Chemscore.DEClash>
0.6055

> <Gold.Chemscore.DEInternal>
2.1895

> <Gold.Chemscore.Rot>
1.7798

> <Gold.Chemscore.Internal.Correction>
   9.000000E+99

> <Gold.Chemscore.Hbonds>
donor molecule, donor type, donor heavy atom, donor atom, acceptor molecule, acceptor atom, score
      L1  H     5    24       P1  7948  0.97
      L1  H     8    25       P1  7948  0.95
      L1  H    17    38       P1 10747  0.95

> <Gold.Chemscore.Hbond.Weighted>
-9.4810

> <Gold.Chemscore.Metal.Weighted>
-0.0000

> <Gold.Chemscore.Lipo.Weighted>
-9.1486

> <Gold.Chemscore.Internal_Hbond.Weighted>
0.0000

> <Gold.Chemscore.DEClash.Weighted>
0.6055

> <Gold.Chemscore.DEInternal.Weighted>
2.1895

> <Gold.Chemscore.Rot.Weighted>
4.5562

> <Gold.Chemscore.Internal.Correction.Weighted>
   9.000000E+99

> <Gold.Protein.RotatedTorsions>
[ 6907 6896 6895 6894 ] final -145.44 input  -60.11 | X-H torsion
[ 7974 7965 7964 7962 ] final  155.30 input  175.53 | X-H torsion
[ 8008 7997 7996 7995 ] final   51.21 input   59.86 | X-H torsion
[ 10167 10162 10161 10158 ] final -120.26 input  -65.29 | X-H torsion
[ 10718 10713 10712 10709 ] final  -60.66 input   66.30 | X-H torsion
[ 10763 10752 10751 10750 ] final  -99.25 input  -60.55 | X-H torsion
[ 11005 11000 10999 10996 ] final  -92.06 input  -57.11 | X-H torsion

> <Gold.Protein.ActiveResidues>
 VAL166  LYS551  ARG553  GLY616  TRP617  ASP618  TYR619  PRO620  LYS621  CYS622 
 ASP623  PHE694  ASN695  SER759  ASP760  ASP761  ALA762  ILE779  LEU786  VAL792 
 PHE793  MET794  SER795  GLU796  ALA797  LYS798  CYS799  TRP800  GLU811  SER814 

> <Gold.Protein.RotatedAtoms>
  151.1278  133.5058  159.2599 H   0  0  0  0  0  0  0  0  0  0  0  0  # atno 6907 bound_to 6896
  151.1790  135.0352  159.8794 H   0  0  0  0  0  0  0  0  0  0  0  0  # atno 6908 bound_to 6896
  152.5458  134.1132  159.8421 H   0  0  0  0  0  0  0  0  0  0  0  0  # atno 6909 bound_to 6896
  144.8033  139.7050  143.6172 H   0  0  0  0  0  0  0  0  0  0  0  0  # atno 7974 bound_to 7965
  155.4315  140.3451  155.4280 H   0  0  0  0  0  0  0  0  0  0  0  0  # atno 8008 bound_to 7997
  156.1333  140.1520  156.9063 H   0  0  0  0  0  0  0  0  0  0  0  0  # atno 8009 bound_to 7997
  154.4912  140.0840  156.7578 H   0  0  0  0  0  0  0  0  0  0  0  0  # atno 8010 bound_to 7997
  140.0377  143.5184  152.2145 H   0  0  0  0  0  0  0  0  0  0  0  0  # atno 10167 bound_to 10162
  156.0975  130.4191  150.0885 H   0  0  0  0  0  0  0  0  0  0  0  0  # atno 10718 bound_to 10713
  154.7483  135.4979  153.9243 H   0  0  0  0  0  0  0  0  0  0  0  0  # atno 10763 bound_to 10752
  153.1115  135.6710  153.9500 H   0  0  0  0  0  0  0  0  0  0  0  0  # atno 10764 bound_to 10752
  153.9258  135.3083  155.3426 H   0  0  0  0  0  0  0  0  0  0  0  0  # atno 10765 bound_to 10752
  141.1531  133.7796  156.9966 H   0  0  0  0  0  0  0  0  0  0  0  0  # atno 11005 bound_to 11000
  146.2320  139.5831  142.9549 LP  0  0  0  0  0  0  0  0  0  0  0  0  # atno 17320 bound_to 7965
  145.5498  141.0414  143.2284 LP  0  0  0  0  0  0  0  0  0  0  0  0  # atno 17321 bound_to 7965
  139.6034  144.7589  151.3119 LP  0  0  0  0  0  0  0  0  0  0  0  0  # atno 17342 bound_to 10162
  140.7274  143.6964  150.7880 LP  0  0  0  0  0  0  0  0  0  0  0  0  # atno 17343 bound_to 10162
  156.8881  130.9579  151.3592 LP  0  0  0  0  0  0  0  0  0  0  0  0  # atno 17370 bound_to 10713
  157.6139  130.8603  149.8996 LP  0  0  0  0  0  0  0  0  0  0  0  0  # atno 17371 bound_to 10713
  140.0967  134.9560  157.1861 LP  0  0  0  0  0  0  0  0  0  0  0  0  # atno 17394 bound_to 11000
  140.3373  134.2743  155.7218 LP  0  0  0  0  0  0  0  0  0  0  0  0  # atno 17395 bound_to 11000

$$$$
