AV-unprocessed.smi:2055|AV-procd|sdf|8334|dock2
  -GOLD-   2272011 03D 1   1.00000     0.00000
 Structure written by MMmdl.
 43 44  0  0  0  0  0  0  0  0  1 V2000
  145.7238  136.3279  153.7849 C   0  0  0  0  0  0  0  0  0  0  0  0
  145.8299  137.2131  152.5316 C   0  0  2  0  0  0  0  0  0  0  0  0
  145.9454  136.3593  151.2557 C   0  0  0  0  0  0  0  0  0  0  0  0
  146.2407  137.1777  150.1435 O   0  0  0  0  0  0  0  0  0  0  0  0
  147.0058  138.0712  152.6486 N   0  0  0  0  0  0  0  0  0  0  0  0
  147.1235  139.1114  153.4851 C   0  0  0  0  0  0  0  0  0  0  0  0
  146.2379  139.4854  154.2539 O   0  0  0  0  0  0  0  0  0  0  0  0
  148.3347  139.6791  153.4023 N   0  0  0  0  0  0  0  0  0  0  0  0
  148.7942  140.7905  154.2301 C   0  0  0  0  0  0  0  0  0  0  0  0
  150.0448  140.5136  155.0583 C   0  0  0  0  0  0  0  0  0  0  0  0
  150.8507  139.4049  154.7357 C   0  0  0  0  0  0  0  0  0  0  0  0
  151.9985  139.1590  155.5106 C   0  0  0  0  0  0  0  0  0  0  0  0
  152.3695  139.9349  156.5497 N   0  0  0  0  0  0  0  0  0  0  0  0
  151.6069  141.0059  156.8758 C   0  0  0  0  0  0  0  0  0  0  0  0
  152.0565  141.7938  157.9585 N   0  0  0  0  0  0  0  0  0  0  0  0
  151.5518  143.1575  158.0939 C   0  0  0  0  0  0  0  0  0  0  0  0
  152.4077  143.9501  159.0960 C   0  0  0  0  0  0  0  0  0  0  0  0
  152.4646  143.2525  160.3355 O   0  0  0  0  0  0  0  0  0  0  0  0
  153.0798  141.9764  160.1939 C   0  0  0  0  0  0  0  0  0  0  0  0
  152.2571  141.1029  159.2312 C   0  0  0  0  0  0  0  0  0  0  0  0
  150.4277  141.3216  156.1541 C   0  0  0  0  0  0  0  0  0  0  0  0
  144.8499  135.6780  153.7339 H   0  0  0  0  0  0  0  0  0  0  0  0
  145.6282  136.9305  154.6891 H   0  0  0  0  0  0  0  0  0  0  0  0
  146.6039  135.6941  153.8994 H   0  0  0  0  0  0  0  0  0  0  0  0
  144.9245  137.8210  152.4719 H   0  0  0  0  0  0  0  0  0  0  0  0
  146.6963  135.5749  151.3601 H   0  0  0  0  0  0  0  0  0  0  0  0
  144.9966  135.8648  151.0450 H   0  0  0  0  0  0  0  0  0  0  0  0
  145.4393  137.5795  149.8440 H   0  0  0  0  0  0  0  0  0  0  0  0
  147.7909  137.8476  152.0547 H   0  0  0  0  0  0  0  0  0  0  0  0
  148.9962  139.2997  152.7409 H   0  0  0  0  0  0  0  0  0  0  0  0
  149.0025  141.6347  153.5727 H   0  0  0  0  0  0  0  0  0  0  0  0
  147.9878  141.1092  154.8932 H   0  0  0  0  0  0  0  0  0  0  0  0
  150.5972  138.7551  153.9109 H   0  0  0  0  0  0  0  0  0  0  0  0
  152.6378  138.3174  155.2889 H   0  0  0  0  0  0  0  0  0  0  0  0
  151.5727  143.6672  157.1297 H   0  0  0  0  0  0  0  0  0  0  0  0
  150.5145  143.1264  158.4298 H   0  0  0  0  0  0  0  0  0  0  0  0
  153.4155  144.1076  158.7079 H   0  0  0  0  0  0  0  0  0  0  0  0
  151.9735  144.9360  159.2619 H   0  0  0  0  0  0  0  0  0  0  0  0
  154.1037  142.0918  159.8343 H   0  0  0  0  0  0  0  0  0  0  0  0
  153.1391  141.5006  161.1729 H   0  0  0  0  0  0  0  0  0  0  0  0
  151.2821  140.8821  159.6674 H   0  0  0  0  0  0  0  0  0  0  0  0
  152.7686  140.1501  159.0956 H   0  0  0  0  0  0  0  0  0  0  0  0
  149.8182  142.1666  156.4330 H   0  0  0  0  0  0  0  0  0  0  0  0
  1  2  1  0  0  0  0
  1 22  1  0  0  0  0
  1 23  1  0  0  0  0
  1 24  1  0  0  0  0
  2  3  1  0  0  0  0
  2  5  1  0  0  0  0
  2 25  1  0  0  0  0
  3  4  1  0  0  0  0
  3 26  1  0  0  0  0
  3 27  1  0  0  0  0
  4 28  1  0  0  0  0
  5  6  1  0  0  0  0
  5 29  1  0  0  0  0
  6  7  2  0  0  0  0
  6  8  1  0  0  0  0
  8  9  1  0  0  0  0
  8 30  1  0  0  0  0
  9 10  1  0  0  0  0
  9 31  1  0  0  0  0
  9 32  1  0  0  0  0
 10 21  1  0  0  0  0
 10 11  2  0  0  0  0
 11 12  1  0  0  0  0
 11 33  1  0  0  0  0
 12 13  2  0  0  0  0
 12 34  1  0  0  0  0
 13 14  1  0  0  0  0
 14 15  1  0  0  0  0
 14 21  2  0  0  0  0
 15 20  1  0  0  0  0
 15 16  1  0  0  0  0
 16 17  1  0  0  0  0
 16 35  1  0  0  0  0
 16 36  1  0  0  0  0
 17 18  1  0  0  0  0
 17 37  1  0  0  0  0
 17 38  1  0  0  0  0
 18 19  1  0  0  0  0
 19 20  1  0  0  0  0
 19 39  1  0  0  0  0
 19 40  1  0  0  0  0
 20 41  1  0  0  0  0
 20 42  1  0  0  0  0
 21 43  1  0  0  0  0
M  END
> <s_m_source_file>
AV-unprocessed.smi

> <i_m_source_file_index>
2055

> <i_lp_mmshare_version>
43012

> <i_f3d_flags>
0

> <s_epik_input>
W09IXVtDSDJdW0NAQEhdKFtDSDNdKVtOSF1DKD1PKVtOSF1bQ0gyXWMxW2NIXVtjSF1uYyhbY0hdMSlOMltDSDJdW0NIMl1PW0NIMl1bQ0gyXTI=

> <s_epik_cmdline>
J2VwaWtfcHl0aG9uJywgJy1waCcsICc3LjAnLCAnLXRuJywgJzgnLCAnLW1hJywgJzIwMCcsICctbWV0YWxfYmluZGluZycsICctaW1hZScsICc8aW5maWxlLm1hZT4nLCAnLW9tYWUnLCAnPG91dGZpbGUubWFlPic=

> <r_lp_tautomer_probability>
1

> <r_epik_Ionization_Penalty>
0.0122173

> <r_epik_Ionization_Penalty_Charging>
0

> <r_epik_Ionization_Penalty_Neutral>
0.0122173

> <r_epik_State_Penalty>
0.00940497

> <r_epik_Charging_Adjusted_Penalty>
0.00940497

> <i_epik_Tot_Q>
0

> <i_epik_Tot_abs_Q>
0

> <r_epik_Metal_State_Penalty>
0.00921475

> <b_epik_Metal_Only>
0

> <s_lp_Force_Field>
OPLS_2005

> <r_lp_Energy>
13.2065

> <b_lp_Chiralities_Consistent>
1

> <s_lp_Variant>
AV-unprocessed.smi:2055-1

> <Gold.Version>
5.8.1

> <Gold.Id.Protein>
6NUR|6NUR_protein|mol2

> <Gold.PLP.Fitness>
51.5840

> <Gold.PLP.PLP>
-40.6785

> <Gold.PLP.part.hbond>
-5.0000

> <Gold.PLP.part.metal>
0.0000

> <Gold.PLP.part.buried>
-1.4251

> <Gold.PLP.part.nonpolar>
-33.6983

> <Gold.PLP.part.repulsive>
0.2978

> <Gold.PLP.ligand.clash>
0.0000

> <Gold.PLP.ligand.torsion>
0.6735

> <Gold.PLP.Chemscore.Hbond>
3.9139

> <Gold.PLP.Chemscore.CHOScore>
0.0000

> <Gold.PLP.Chemscore.Metal>
0.0000

> <Gold.Chemscore.Hbonds>
donor molecule, donor type, donor heavy atom, donor atom, acceptor molecule, acceptor atom, score
      L1  H     4    28       P1 10171  1.00
      L1  H     5    29       P1  7948  0.70
      L1  H     8    30       P1  7957  0.59
      P1  H  7954  7966       L1     4  0.66
      P1  H  7997  8009       L1    13  1.00

> <Gold.PLP.Chemscore.Internal.Correction>
0.5109

> <Gold.Rescore>
     Score         DG    S(hbond)    S(metal)    S(lipo)     H(rot)  DE(clash)    DE(int)     intcor
     20.80     -21.86       3.68        0.00      94.01       2.70       0.35       0.70       ----

> <Gold.Chemscore.Fitness>
20.8045

> <Gold.Chemscore.DG>
-21.8612

> <Gold.Chemscore.ZeroCoef>
-5.4800

> <Gold.Chemscore.Hbond>
3.6831

> <Gold.Chemscore.Metal>
0.0000

> <Gold.Chemscore.Lipo>
94.0142

> <Gold.Chemscore.Internal_Hbond>
0.0000

> <Gold.Chemscore.DEClash>
0.3536

> <Gold.Chemscore.DEInternal>
0.7030

> <Gold.Chemscore.Rot>
2.7031

> <Gold.Chemscore.Internal.Correction>
   9.000000E+99

> <Gold.Chemscore.Hbonds>
donor molecule, donor type, donor heavy atom, donor atom, acceptor molecule, acceptor atom, score
      L1  H     4    28       P1 10171  1.00
      L1  H     5    29       P1  7948  0.68
      L1  H     8    30       P1  7957  0.58
      P1  H  7954  7966       L1     4  0.61
      P1  H  7997  8009       L1    13  0.53

> <Gold.Chemscore.Hbond.Weighted>
-12.3014

> <Gold.Chemscore.Metal.Weighted>
-0.0000

> <Gold.Chemscore.Lipo.Weighted>
-10.9997

> <Gold.Chemscore.Internal_Hbond.Weighted>
0.0000

> <Gold.Chemscore.DEClash.Weighted>
0.3536

> <Gold.Chemscore.DEInternal.Weighted>
0.7030

> <Gold.Chemscore.Rot.Weighted>
6.9199

> <Gold.Chemscore.Internal.Correction.Weighted>
   9.000000E+99

> <Gold.Protein.RotatedTorsions>
[ 6907 6896 6895 6894 ] final -107.63 input  -60.11 | X-H torsion
[ 7974 7965 7964 7962 ] final   21.34 input  175.53 | X-H torsion
[ 8008 7997 7996 7995 ] final -165.09 input   59.86 | X-H torsion
[ 10167 10162 10161 10158 ] final -113.25 input  -65.29 | X-H torsion
[ 10718 10713 10712 10709 ] final -128.08 input   66.30 | X-H torsion
[ 10763 10752 10751 10750 ] final  152.30 input  -60.55 | X-H torsion
[ 11005 11000 10999 10996 ] final  -50.67 input  -57.11 | X-H torsion

> <Gold.Protein.ActiveResidues>
 VAL166  LYS551  ARG553  GLY616  TRP617  ASP618  TYR619  PRO620  LYS621  CYS622 
 ASP623  PHE694  ASN695  SER759  ASP760  ASP761  ALA762  ILE779  LEU786  VAL792 
 PHE793  MET794  SER795  GLU796  ALA797  LYS798  CYS799  TRP800  GLU811  SER814 

> <Gold.Protein.RotatedAtoms>
  150.7455  133.9798  159.3572 H   0  0  0  0  0  0  0  0  0  0  0  0  # atno 6907 bound_to 6896
  151.7738  135.0777  160.0373 H   0  0  0  0  0  0  0  0  0  0  0  0  # atno 6908 bound_to 6896
  152.3321  133.5933  159.5853 H   0  0  0  0  0  0  0  0  0  0  0  0  # atno 6909 bound_to 6896
  146.2075  139.8040  142.8715 H   0  0  0  0  0  0  0  0  0  0  0  0  # atno 7974 bound_to 7965
  155.8448  140.0954  157.1712 H   0  0  0  0  0  0  0  0  0  0  0  0  # atno 8008 bound_to 7997
  154.3983  140.1394  156.3834 H   0  0  0  0  0  0  0  0  0  0  0  0  # atno 8009 bound_to 7997
  155.8025  140.3452  155.5413 H   0  0  0  0  0  0  0  0  0  0  0  0  # atno 8010 bound_to 7997
  140.1139  143.4503  152.1734 H   0  0  0  0  0  0  0  0  0  0  0  0  # atno 10167 bound_to 10162
  156.1917  130.6799  151.0432 H   0  0  0  0  0  0  0  0  0  0  0  0  # atno 10718 bound_to 10713
  154.1177  135.2835  155.3216 H   0  0  0  0  0  0  0  0  0  0  0  0  # atno 10763 bound_to 10752
  154.6445  135.5391  153.7831 H   0  0  0  0  0  0  0  0  0  0  0  0  # atno 10764 bound_to 10752
  153.0323  135.6494  154.1333 H   0  0  0  0  0  0  0  0  0  0  0  0  # atno 10765 bound_to 10752
  141.0829  133.6649  156.3766 H   0  0  0  0  0  0  0  0  0  0  0  0  # atno 11005 bound_to 11000
  145.3266  141.0256  143.3470 LP  0  0  0  0  0  0  0  0  0  0  0  0  # atno 17320 bound_to 7965
  144.8829  139.4880  143.6714 LP  0  0  0  0  0  0  0  0  0  0  0  0  # atno 17321 bound_to 7965
  139.5604  144.7402  151.4171 LP  0  0  0  0  0  0  0  0  0  0  0  0  # atno 17342 bound_to 10162
  140.6910  143.7862  150.7255 LP  0  0  0  0  0  0  0  0  0  0  0  0  # atno 17343 bound_to 10162
  157.6933  131.0802  150.7044 LP  0  0  0  0  0  0  0  0  0  0  0  0  # atno 17370 bound_to 10713
  156.7100  130.4649  149.5550 LP  0  0  0  0  0  0  0  0  0  0  0  0  # atno 17371 bound_to 10713
  140.5428  134.6103  157.5385 LP  0  0  0  0  0  0  0  0  0  0  0  0  # atno 17394 bound_to 11000
  139.9644  134.7397  156.0168 LP  0  0  0  0  0  0  0  0  0  0  0  0  # atno 17395 bound_to 11000

$$$$
