AV-unprocessed.smi:292|AV-procd|sdf|2249|dock9
  -GOLD-   2262022133D 1   1.00000     0.00000
 Structure written by MMmdl.
 33 34  0  0  0  0  0  0  0  0  1 V2000
  146.3366  143.3754  153.6936 N   0  0  0  0  0  0  0  0  0  0  0  0
  146.8580  142.3435  153.7440 C   0  0  0  0  0  0  0  0  0  0  0  0
  147.5126  141.0478  153.8071 C   0  0  0  0  0  0  0  0  0  0  0  0
  146.9678  139.9447  153.2165 N   0  0  0  0  0  0  0  0  0  0  0  0
  147.8956  139.0551  153.5465 C   0  0  0  0  0  0  0  0  0  0  0  0
  148.9026  139.5613  154.2664 N   0  0  0  0  0  0  0  0  0  0  0  0
  150.0779  138.9146  154.8296 C   0  0  0  0  0  0  0  0  0  0  0  0
  150.9275  139.8484  155.7042 C   0  0  0  0  0  0  0  0  0  0  0  0
  152.0480  140.1800  155.3190 O   0  0  0  0  0  0  0  0  0  0  0  0
  150.4076  140.2524  156.8759 N   0  0  0  0  0  0  0  0  0  0  0  0
  151.0394  141.1522  157.8387 C   0  0  2  0  0  0  0  0  0  0  0  0
  151.0273  142.6103  157.3108 C   0  0  0  0  0  0  0  0  0  0  0  0
  152.1455  143.5338  157.8377 C   0  0  0  0  0  0  0  0  0  0  0  0
  152.2596  143.6306  159.3724 C   0  0  0  0  0  0  0  0  0  0  0  0
  152.4034  142.2964  160.1423 C   0  0  0  0  0  0  0  0  0  0  0  0
  152.9891  141.2100  159.3579 N   0  0  0  0  0  0  0  0  0  0  0  0
  152.4116  140.6201  158.2969 C   0  0  0  0  0  0  0  0  0  0  0  0
  152.9626  139.6982  157.6959 O   0  0  0  0  0  0  0  0  0  0  0  0
  148.6692  140.8848  154.4460 N   0  0  0  0  0  0  0  0  0  0  0  0
  147.8368  138.0136  153.2664 H   0  0  0  0  0  0  0  0  0  0  0  0
  149.7556  138.0624  155.4289 H   0  0  0  0  0  0  0  0  0  0  0  0
  150.6870  138.5215  154.0143 H   0  0  0  0  0  0  0  0  0  0  0  0
  149.4778  139.9354  157.1106 H   0  0  0  0  0  0  0  0  0  0  0  0
  150.4142  141.1242  158.7323 H   0  0  0  0  0  0  0  0  0  0  0  0
  151.1016  142.5997  156.2225 H   0  0  0  0  0  0  0  0  0  0  0  0
  150.0573  143.0571  157.5323 H   0  0  0  0  0  0  0  0  0  0  0  0
  153.1032  143.2140  157.4247 H   0  0  0  0  0  0  0  0  0  0  0  0
  151.9873  144.5353  157.4368 H   0  0  0  0  0  0  0  0  0  0  0  0
  153.1268  144.2523  159.5977 H   0  0  0  0  0  0  0  0  0  0  0  0
  151.4014  144.1746  159.7685 H   0  0  0  0  0  0  0  0  0  0  0  0
  153.0195  142.4528  161.0281 H   0  0  0  0  0  0  0  0  0  0  0  0
  151.4321  141.9783  160.5228 H   0  0  0  0  0  0  0  0  0  0  0  0
  153.8932  140.8696  159.6522 H   0  0  0  0  0  0  0  0  0  0  0  0
  1  2  3  0  0  0  0
  2  3  1  0  0  0  0
  3 19  2  0  0  0  0
  3  4  1  0  0  0  0
  4  5  2  0  0  0  0
  5  6  1  0  0  0  0
  5 20  1  0  0  0  0
  6  7  1  0  0  0  0
  6 19  1  0  0  0  0
  7  8  1  0  0  0  0
  7 21  1  0  0  0  0
  7 22  1  0  0  0  0
  8  9  2  0  0  0  0
  8 10  1  0  0  0  0
 10 11  1  0  0  0  0
 10 23  1  0  0  0  0
 11 17  1  0  0  0  0
 11 12  1  0  0  0  0
 11 24  1  0  0  0  0
 12 13  1  0  0  0  0
 12 25  1  0  0  0  0
 12 26  1  0  0  0  0
 13 14  1  0  0  0  0
 13 27  1  0  0  0  0
 13 28  1  0  0  0  0
 14 15  1  0  0  0  0
 14 29  1  0  0  0  0
 14 30  1  0  0  0  0
 15 16  1  0  0  0  0
 15 31  1  0  0  0  0
 15 32  1  0  0  0  0
 16 17  1  0  0  0  0
 16 33  1  0  0  0  0
 17 18  2  0  0  0  0
M  END
> <s_m_source_file>
AV-unprocessed.smi

> <i_m_source_file_index>
292

> <i_lp_mmshare_version>
43012

> <i_f3d_flags>
0

> <s_epik_input>
TiNDYzFuW2NIXW4objEpW0NIMl1DKD1PKVtOSF1bQ0BASF0yW0NIMl1bQ0gyXVtDSDJdW0NIMl1bTkhdQzI9Tw==

> <s_epik_cmdline>
J2VwaWtfcHl0aG9uJywgJy1waCcsICc3LjAnLCAnLXRuJywgJzgnLCAnLW1hJywgJzIwMCcsICctbWV0YWxfYmluZGluZycsICctaW1hZScsICc8aW5maWxlLm1hZT4nLCAnLW9tYWUnLCAnPG91dGZpbGUubWFlPic=

> <r_lp_tautomer_probability>
1

> <r_epik_Ionization_Penalty>
1.99744e-07

> <r_epik_Ionization_Penalty_Charging>
0

> <r_epik_Ionization_Penalty_Neutral>
1.99744e-07

> <r_epik_State_Penalty>
-0

> <r_epik_Charging_Adjusted_Penalty>
0

> <i_epik_Tot_Q>
0

> <i_epik_Tot_abs_Q>
0

> <r_epik_Metal_State_Penalty>
-0

> <b_epik_Metal_Only>
0

> <s_lp_Force_Field>
OPLS_2005

> <r_lp_Energy>
19.194

> <b_lp_Chiralities_Consistent>
1

> <s_lp_Variant>
AV-unprocessed.smi:292-1

> <Gold.Version>
5.8.1

> <Gold.Id.Protein>
6NUR|6NUR_protein|mol2

> <Gold.PLP.Fitness>
42.3599

> <Gold.PLP.PLP>
-34.3926

> <Gold.PLP.part.hbond>
-2.4079

> <Gold.PLP.part.metal>
0.0000

> <Gold.PLP.part.buried>
-4.8727

> <Gold.PLP.part.nonpolar>
-27.6545

> <Gold.PLP.part.repulsive>
0.6817

> <Gold.PLP.ligand.clash>
0.0000

> <Gold.PLP.ligand.torsion>
0.1711

> <Gold.PLP.Chemscore.Hbond>
1.7520

> <Gold.PLP.Chemscore.CHOScore>
1.0000

> <Gold.PLP.Chemscore.Metal>
0.0000

> <Gold.Chemscore.Hbonds>
donor molecule, donor type, donor heavy atom, donor atom, acceptor molecule, acceptor atom, score
      P1  H  7989  7998       L1     9  0.75
      P1  H  7997  8010       L1    18  1.00
      L1  C     5    20       P1  7948  1.00

> <Gold.PLP.Chemscore.Internal.Correction>
0.0535

> <Gold.Rescore>
     Score         DG    S(hbond)    S(metal)    S(lipo)     H(rot)  DE(clash)    DE(int)     intcor
      8.63     -12.54       1.94        0.00      51.84       2.14       0.00       3.91       ----

> <Gold.Chemscore.Fitness>
8.6279

> <Gold.Chemscore.DG>
-12.5419

> <Gold.Chemscore.ZeroCoef>
-5.4800

> <Gold.Chemscore.Hbond>
1.9420

> <Gold.Chemscore.Metal>
0.0000

> <Gold.Chemscore.Lipo>
51.8405

> <Gold.Chemscore.Internal_Hbond>
0.0000

> <Gold.Chemscore.DEClash>
0.0000

> <Gold.Chemscore.DEInternal>
3.9140

> <Gold.Chemscore.Rot>
2.1444

> <Gold.Chemscore.Internal.Correction>
   9.000000E+99

> <Gold.Chemscore.Hbonds>
donor molecule, donor type, donor heavy atom, donor atom, acceptor molecule, acceptor atom, score
      P1  H  7989  7998       L1     9  0.25
      P1  H  7997  8010       L1    18  0.95

> <Gold.Chemscore.Hbond.Weighted>
-6.4862

> <Gold.Chemscore.Metal.Weighted>
-0.0000

> <Gold.Chemscore.Lipo.Weighted>
-6.0653

> <Gold.Chemscore.Internal_Hbond.Weighted>
0.0000

> <Gold.Chemscore.DEClash.Weighted>
0.0000

> <Gold.Chemscore.DEInternal.Weighted>
3.9140

> <Gold.Chemscore.Rot.Weighted>
5.4896

> <Gold.Chemscore.Internal.Correction.Weighted>
   9.000000E+99

> <Gold.Protein.RotatedTorsions>
[ 6907 6896 6895 6894 ] final   97.87 input  -60.11 | X-H torsion
[ 7974 7965 7964 7962 ] final  -61.81 input  175.53 | X-H torsion
[ 8008 7997 7996 7995 ] final   57.20 input   59.86 | X-H torsion
[ 10167 10162 10161 10158 ] final  -19.75 input  -65.29 | X-H torsion
[ 10718 10713 10712 10709 ] final  -96.99 input   66.30 | X-H torsion
[ 10763 10752 10751 10750 ] final  -47.65 input  -60.55 | X-H torsion
[ 11005 11000 10999 10996 ] final  115.26 input  -57.11 | X-H torsion

> <Gold.Protein.ActiveResidues>
 VAL166  LYS551  ARG553  GLY616  TRP617  ASP618  TYR619  PRO620  LYS621  CYS622 
 ASP623  PHE694  ASN695  SER759  ASP760  ASP761  ALA762  ILE779  LEU786  VAL792 
 PHE793  MET794  SER795  GLU796  ALA797  LYS798  CYS799  TRP800  GLU811  SER814 

> <Gold.Protein.RotatedAtoms>
  152.5417  134.0667  159.8175 H   0  0  0  0  0  0  0  0  0  0  0  0  # atno 6907 bound_to 6896
  151.0787  133.5400  159.2629 H   0  0  0  0  0  0  0  0  0  0  0  0  # atno 6908 bound_to 6896
  151.2235  135.0536  159.9013 H   0  0  0  0  0  0  0  0  0  0  0  0  # atno 6909 bound_to 6896
  145.7989  140.8666  143.0241 H   0  0  0  0  0  0  0  0  0  0  0  0  # atno 7974 bound_to 7965
  155.5299  140.3482  155.4424 H   0  0  0  0  0  0  0  0  0  0  0  0  # atno 8008 bound_to 7997
  156.0725  140.1366  156.9838 H   0  0  0  0  0  0  0  0  0  0  0  0  # atno 8009 bound_to 7997
  154.4536  140.0962  156.6666 H   0  0  0  0  0  0  0  0  0  0  0  0  # atno 8010 bound_to 7997
  140.7271  143.4789  151.0145 H   0  0  0  0  0  0  0  0  0  0  0  0  # atno 10167 bound_to 10162
  156.0074  130.5175  150.6308 H   0  0  0  0  0  0  0  0  0  0  0  0  # atno 10718 bound_to 10713
  154.0649  135.6613  153.4816 H   0  0  0  0  0  0  0  0  0  0  0  0  # atno 10763 bound_to 10752
  153.0412  135.5143  154.7623 H   0  0  0  0  0  0  0  0  0  0  0  0  # atno 10764 bound_to 10752
  154.6671  135.3023  154.9758 H   0  0  0  0  0  0  0  0  0  0  0  0  # atno 10765 bound_to 10752
  139.9004  134.9581  156.7018 H   0  0  0  0  0  0  0  0  0  0  0  0  # atno 11005 bound_to 11000
  144.6771  140.0231  143.7483 LP  0  0  0  0  0  0  0  0  0  0  0  0  # atno 17320 bound_to 7965
  145.9898  139.3006  143.0991 LP  0  0  0  0  0  0  0  0  0  0  0  0  # atno 17321 bound_to 7965
  139.8486  143.7469  152.3178 LP  0  0  0  0  0  0  0  0  0  0  0  0  # atno 17342 bound_to 10162
  139.7643  144.7497  151.0318 LP  0  0  0  0  0  0  0  0  0  0  0  0  # atno 17343 bound_to 10162
  157.4106  131.0823  151.1224 LP  0  0  0  0  0  0  0  0  0  0  0  0  # atno 17370 bound_to 10713
  157.1857  130.6329  149.5687 LP  0  0  0  0  0  0  0  0  0  0  0  0  # atno 17371 bound_to 10713
  140.7144  133.9195  155.8105 LP  0  0  0  0  0  0  0  0  0  0  0  0  # atno 17394 bound_to 11000
  141.0275  134.0802  157.4051 LP  0  0  0  0  0  0  0  0  0  0  0  0  # atno 17395 bound_to 11000

$$$$
