AV-unprocessed.smi:40|AV-procd|sdf|367|dock9
  -GOLD-   2262016203D 1   1.00000     0.00000
 Structure written by MMmdl.
 47 48  0  0  0  0  0  0  0  0  1 V2000
  151.4063  145.0568  159.4878 C   0  0  0  0  0  0  0  0  0  0  0  0
  152.4615  143.9560  159.3358 C   0  0  0  0  0  0  0  0  0  0  0  0
  152.3473  143.2129  157.9971 C   0  0  0  0  0  0  0  0  0  0  0  0
  151.0597  142.3855  157.8893 C   0  0  0  0  0  0  0  0  0  0  0  0
  150.9548  141.6463  156.5471 C   0  0  0  0  0  0  0  0  0  0  0  0
  149.7512  140.8945  156.4875 O   0  0  0  0  0  0  0  0  0  0  0  0
  149.3240  140.3521  155.3272 C   0  0  0  0  0  0  0  0  0  0  0  0
  149.9755  140.3577  154.2830 O   0  0  0  0  0  0  0  0  0  0  0  0
  148.0164  139.7331  155.4729 N   0  0  0  0  0  0  0  0  0  0  0  0
  147.2618  139.0914  154.5468 C   0  0  0  0  0  0  0  0  0  0  0  0
  147.4858  139.1927  153.2465 N   0  0  0  0  0  0  0  0  0  0  0  0
  146.7539  138.5439  152.2894 C   0  0  0  0  0  0  0  0  0  0  0  0
  146.9853  138.7289  151.0961 O   0  0  0  0  0  0  0  0  0  0  0  0
  145.7265  137.6725  152.7262 N   0  0  0  0  0  0  0  0  0  0  0  0
  144.8805  136.9708  151.6748 C   0  0  2  0  0  0  0  0  0  0  0  0
  143.9295  136.1615  152.3095 O   0  0  0  0  0  0  0  0  0  0  0  0
  144.2417  134.7757  152.1753 C   0  0  2  0  0  0  0  0  0  0  0  0
  145.0669  134.2696  153.3696 C   0  0  0  0  0  0  0  0  0  0  0  0
  144.9991  134.6986  150.8517 C   0  0  1  0  0  0  0  0  0  0  0  0
  144.0596  134.5104  149.8068 O   0  0  0  0  0  0  0  0  0  0  0  0
  145.7287  136.0397  150.7755 C   0  0  1  0  0  0  0  0  0  0  0  0
  145.8412  136.4937  149.4389 O   0  0  0  0  0  0  0  0  0  0  0  0
  145.4619  137.5719  154.0872 C   0  0  0  0  0  0  0  0  0  0  0  0
  146.1940  138.2326  155.0101 C   0  0  0  0  0  0  0  0  0  0  0  0
  145.9286  138.0982  156.3213 F   0  0  0  0  0  0  0  0  0  0  0  0
  144.3769  137.7760  151.1372 H   0  0  0  0  0  0  0  0  0  0  0  0
  143.3146  134.2016  152.1398 H   0  0  0  0  0  0  0  0  0  0  0  0
  145.6954  133.8594  150.8238 H   0  0  0  0  0  0  0  0  0  0  0  0
  146.7244  135.9276  151.2073 H   0  0  0  0  0  0  0  0  0  0  0  0
  151.5176  145.5732  160.4414 H   0  0  0  0  0  0  0  0  0  0  0  0
  150.3979  144.6438  159.4479 H   0  0  0  0  0  0  0  0  0  0  0  0
  151.4968  145.7997  158.6947 H   0  0  0  0  0  0  0  0  0  0  0  0
  153.4548  144.3973  159.4258 H   0  0  0  0  0  0  0  0  0  0  0  0
  152.3630  143.2471  160.1589 H   0  0  0  0  0  0  0  0  0  0  0  0
  152.3856  143.9312  157.1773 H   0  0  0  0  0  0  0  0  0  0  0  0
  153.2094  142.5560  157.8734 H   0  0  0  0  0  0  0  0  0  0  0  0
  151.0243  141.6595  158.7025 H   0  0  0  0  0  0  0  0  0  0  0  0
  150.1954  143.0381  158.0186 H   0  0  0  0  0  0  0  0  0  0  0  0
  151.0287  142.3422  155.7101 H   0  0  0  0  0  0  0  0  0  0  0  0
  151.7887  140.9512  156.4477 H   0  0  0  0  0  0  0  0  0  0  0  0
  147.6248  139.8150  156.4001 H   0  0  0  0  0  0  0  0  0  0  0  0
  145.2848  133.2066  153.2658 H   0  0  0  0  0  0  0  0  0  0  0  0
  144.5214  134.4027  154.3040 H   0  0  0  0  0  0  0  0  0  0  0  0
  146.0192  134.7926  153.4578 H   0  0  0  0  0  0  0  0  0  0  0  0
  144.5096  134.6085  148.9813 H   0  0  0  0  0  0  0  0  0  0  0  0
  145.1292  137.0910  149.2670 H   0  0  0  0  0  0  0  0  0  0  0  0
  144.6559  136.9562  154.4547 H   0  0  0  0  0  0  0  0  0  0  0  0
  1  2  1  0  0  0  0
  1 30  1  0  0  0  0
  1 31  1  0  0  0  0
  1 32  1  0  0  0  0
  2  3  1  0  0  0  0
  2 33  1  0  0  0  0
  2 34  1  0  0  0  0
  3  4  1  0  0  0  0
  3 35  1  0  0  0  0
  3 36  1  0  0  0  0
  4  5  1  0  0  0  0
  4 37  1  0  0  0  0
  4 38  1  0  0  0  0
  5  6  1  0  0  0  0
  5 39  1  0  0  0  0
  5 40  1  0  0  0  0
  6  7  1  0  0  0  0
  7  8  2  0  0  0  0
  7  9  1  0  0  0  0
  9 10  1  0  0  0  0
  9 41  1  0  0  0  0
 10 24  1  0  0  0  0
 10 11  2  0  0  0  0
 11 12  1  0  0  0  0
 12 13  2  0  0  0  0
 12 14  1  0  0  0  0
 14 15  1  0  0  0  0
 14 23  1  0  0  0  0
 15 26  1  0  0  0  0
 15 21  1  0  0  0  0
 15 16  1  0  0  0  0
 16 17  1  0  0  0  0
 17 27  1  0  0  0  0
 17 18  1  0  0  0  0
 17 19  1  0  0  0  0
 18 42  1  0  0  0  0
 18 43  1  0  0  0  0
 18 44  1  0  0  0  0
 19 28  1  0  0  0  0
 19 20  1  0  0  0  0
 19 21  1  0  0  0  0
 20 45  1  0  0  0  0
 21 29  1  0  0  0  0
 21 22  1  0  0  0  0
 22 46  1  0  0  0  0
 23 24  2  0  0  0  0
 23 47  1  0  0  0  0
 24 25  1  0  0  0  0
M  END
> <s_m_source_file>
AV-unprocessed.smi

> <i_m_source_file_index>
40

> <i_lp_mmshare_version>
43012

> <i_f3d_flags>
0

> <s_epik_input>
W0NIM11bQ0gyXVtDSDJdW0NIMl1bQ0gyXU9DKD1PKVtOSF1jMW5jKD1PKW4oW2NIXWMxRilbQ0BASF0yT1tDQEhdKFtDSDNdKVtDQEBIXShbT0hdKVtDQEhdMltPSF0=

> <s_epik_cmdline>
J2VwaWtfcHl0aG9uJywgJy1waCcsICc3LjAnLCAnLXRuJywgJzgnLCAnLW1hJywgJzIwMCcsICctbWV0YWxfYmluZGluZycsICctaW1hZScsICc8aW5maWxlLm1hZT4nLCAnLW9tYWUnLCAnPG91dGZpbGUubWFlPic=

> <r_lp_tautomer_probability>
1

> <r_epik_Ionization_Penalty>
2.29506e-06

> <r_epik_Ionization_Penalty_Charging>
8.26867e-09

> <r_epik_Ionization_Penalty_Neutral>
2.2868e-06

> <r_epik_State_Penalty>
-0

> <r_epik_Charging_Adjusted_Penalty>
8.26867e-09

> <i_epik_Tot_Q>
0

> <i_epik_Tot_abs_Q>
0

> <r_epik_Metal_State_Penalty>
-0

> <b_epik_Metal_Only>
0

> <s_epik_Chemistry_Notes>
This compound has an ester and may undergo hydrolysis at high or low pH. This compound contains an acetal/aminal-like group ( X-CH(R)-Y where X, Y are N, S, or O) that may be acid/base labile, releasing an aldehyde.

> <s_lp_Force_Field>
OPLS_2005

> <r_lp_Energy>
38.6642

> <b_lp_Chiralities_Consistent>
1

> <s_lp_Variant>
AV-unprocessed.smi:40-1

> <Gold.Version>
5.8.1

> <Gold.Id.Protein>
6NUR|6NUR_protein|mol2

> <Gold.PLP.Fitness>
47.7588

> <Gold.PLP.PLP>
-37.5684

> <Gold.PLP.part.hbond>
-5.8437

> <Gold.PLP.part.metal>
0.0000

> <Gold.PLP.part.buried>
-3.6847

> <Gold.PLP.part.nonpolar>
-30.7644

> <Gold.PLP.part.repulsive>
1.8590

> <Gold.PLP.ligand.clash>
0.0000

> <Gold.PLP.ligand.torsion>
0.1666

> <Gold.PLP.Chemscore.Hbond>
3.4750

> <Gold.PLP.Chemscore.CHOScore>
0.0000

> <Gold.PLP.Chemscore.Metal>
0.0000

> <Gold.Chemscore.Hbonds>
donor molecule, donor type, donor heavy atom, donor atom, acceptor molecule, acceptor atom, score
      L1  H    20    45       P1  7921  0.78
      L1  H    22    46       P1 10171  1.00
      P1  H  7954  7966       L1    13  0.96
      P1  H  7989  7998       L1     8  0.86

> <Gold.PLP.Chemscore.Internal.Correction>
0.0987

> <Gold.Rescore>
     Score         DG    S(hbond)    S(metal)    S(lipo)     H(rot)  DE(clash)    DE(int)     intcor
     11.61     -16.62       3.69        0.00      70.80       3.70       2.69       2.32       ----

> <Gold.Chemscore.Fitness>
11.6083

> <Gold.Chemscore.DG>
-16.6203

> <Gold.Chemscore.ZeroCoef>
-5.4800

> <Gold.Chemscore.Hbond>
3.6880

> <Gold.Chemscore.Metal>
0.0000

> <Gold.Chemscore.Lipo>
70.7985

> <Gold.Chemscore.Internal_Hbond>
0.0000

> <Gold.Chemscore.DEClash>
2.6881

> <Gold.Chemscore.DEInternal>
2.3239

> <Gold.Chemscore.Rot>
3.6957

> <Gold.Chemscore.Internal.Correction>
   9.000000E+99

> <Gold.Chemscore.Hbonds>
donor molecule, donor type, donor heavy atom, donor atom, acceptor molecule, acceptor atom, score
      L1  H    20    45       P1  7921  0.76
      L1  H    22    46       P1 10171  0.94
      P1  H  7954  7966       L1    13  0.92
      P1  H  7989  7998       L1     8  0.86

> <Gold.Chemscore.Hbond.Weighted>
-12.3179

> <Gold.Chemscore.Metal.Weighted>
-0.0000

> <Gold.Chemscore.Lipo.Weighted>
-8.2834

> <Gold.Chemscore.Internal_Hbond.Weighted>
0.0000

> <Gold.Chemscore.DEClash.Weighted>
2.6881

> <Gold.Chemscore.DEInternal.Weighted>
2.3239

> <Gold.Chemscore.Rot.Weighted>
9.4610

> <Gold.Chemscore.Internal.Correction.Weighted>
   9.000000E+99

> <Gold.Protein.RotatedTorsions>
[ 6907 6896 6895 6894 ] final  -25.32 input  -60.11 | X-H torsion
[ 7974 7965 7964 7962 ] final -123.64 input  175.53 | X-H torsion
[ 8008 7997 7996 7995 ] final  -92.16 input   59.86 | X-H torsion
[ 10167 10162 10161 10158 ] final  136.56 input  -65.29 | X-H torsion
[ 10718 10713 10712 10709 ] final  137.38 input   66.30 | X-H torsion
[ 10763 10752 10751 10750 ] final   56.43 input  -60.55 | X-H torsion
[ 11005 11000 10999 10996 ] final  145.25 input  -57.11 | X-H torsion

> <Gold.Protein.ActiveResidues>
 VAL166  LYS551  ARG553  GLY616  TRP617  ASP618  TYR619  PRO620  LYS621  CYS622 
 ASP623  PHE694  ASN695  SER759  ASP760  ASP761  ALA762  ILE779  LEU786  VAL792 
 PHE793  MET794  SER795  GLU796  ALA797  LYS798  CYS799  TRP800  GLU811  SER814 

> <Gold.Protein.RotatedAtoms>
  151.1769  135.0343  159.8775 H   0  0  0  0  0  0  0  0  0  0  0  0  # atno 6907 bound_to 6896
  152.5446  134.1107  159.8367 H   0  0  0  0  0  0  0  0  0  0  0  0  # atno 6908 bound_to 6896
  151.1219  133.5051  159.2634 H   0  0  0  0  0  0  0  0  0  0  0  0  # atno 6909 bound_to 6896
  145.0165  140.7951  143.4407 H   0  0  0  0  0  0  0  0  0  0  0  0  # atno 7974 bound_to 7965
  154.7197  140.0512  157.0628 H   0  0  0  0  0  0  0  0  0  0  0  0  # atno 8008 bound_to 7997
  155.0444  140.3172  155.4694 H   0  0  0  0  0  0  0  0  0  0  0  0  # atno 8009 bound_to 7997
  156.2813  140.2127  156.5568 H   0  0  0  0  0  0  0  0  0  0  0  0  # atno 8010 bound_to 7997
  139.5175  144.6458  151.5443 H   0  0  0  0  0  0  0  0  0  0  0  0  # atno 10167 bound_to 10162
  157.4367  131.1054  151.0190 H   0  0  0  0  0  0  0  0  0  0  0  0  # atno 10718 bound_to 10713
  152.9832  135.5676  154.5227 H   0  0  0  0  0  0  0  0  0  0  0  0  # atno 10763 bound_to 10752
  154.4712  135.2785  155.1643 H   0  0  0  0  0  0  0  0  0  0  0  0  # atno 10764 bound_to 10752
  154.3190  135.6273  153.5552 H   0  0  0  0  0  0  0  0  0  0  0  0  # atno 10765 bound_to 10752
  140.0697  134.9159  157.1324 H   0  0  0  0  0  0  0  0  0  0  0  0  # atno 11005 bound_to 11000
  145.1952  139.2280  143.5221 LP  0  0  0  0  0  0  0  0  0  0  0  0  # atno 17320 bound_to 7965
  146.3479  140.1758  142.8589 LP  0  0  0  0  0  0  0  0  0  0  0  0  # atno 17321 bound_to 7965
  140.6242  143.9200  150.6551 LP  0  0  0  0  0  0  0  0  0  0  0  0  # atno 17342 bound_to 10162
  140.2483  143.3612  152.1427 LP  0  0  0  0  0  0  0  0  0  0  0  0  # atno 17343 bound_to 10162
  157.1067  130.6004  149.5472 LP  0  0  0  0  0  0  0  0  0  0  0  0  # atno 17370 bound_to 10713
  155.9933  130.4994  150.7375 LP  0  0  0  0  0  0  0  0  0  0  0  0  # atno 17371 bound_to 10713
  140.3646  134.2457  155.7183 LP  0  0  0  0  0  0  0  0  0  0  0  0  # atno 17394 bound_to 11000
  141.2007  133.7981  157.0478 LP  0  0  0  0  0  0  0  0  0  0  0  0  # atno 17395 bound_to 11000

$$$$
