AV-unprocessed.smi:3056|AV-procd|sdf|11660|dock10
  -GOLD-   2272017 63D 1   1.00000     0.00000
 Structure written by MMmdl.
 47 48  0  0  0  0  0  0  0  0  1 V2000
  150.5174  145.5249  160.1727 C   0  0  0  0  0  0  0  0  0  0  0  0
  151.5370  144.4847  159.8093 C   0  0  0  0  0  0  0  0  0  0  0  0
  152.2856  144.3813  158.6036 C   0  0  0  0  0  0  0  0  0  0  0  0
  153.1195  143.3551  158.6033 N   0  0  0  0  0  0  0  0  0  0  0  0
  152.9249  142.7544  159.7998 N   0  0  0  0  0  0  0  0  0  0  0  0
  153.7213  141.5968  160.1979 C   0  0  1  0  0  0  0  0  0  0  0  0
  154.3278  141.7591  161.6091 C   0  0  0  0  0  0  0  0  0  0  0  0
  152.9329  140.2779  159.9830 C   0  0  1  0  0  0  0  0  0  0  0  0
  152.1570  140.2529  158.6531 C   0  0  0  0  0  0  0  0  0  0  0  0
  153.8378  139.1283  160.0531 N   0  0  0  0  0  0  0  0  0  0  0  0
  153.1719  137.8357  160.2954 C   0  0  0  0  0  0  0  0  0  0  0  0
  154.1239  136.6587  160.5926 C   0  0  0  0  0  0  0  0  0  0  0  0
  154.0932  135.6663  159.8625 O   0  0  0  0  0  0  0  0  0  0  0  0
  154.9656  136.7426  161.6504 N   0  0  0  0  0  0  0  0  0  0  0  0
  154.9302  137.8405  162.6190 C   0  0  0  0  0  0  0  0  0  0  0  0
  154.4796  137.2613  163.9725 C   0  0  0  0  0  0  0  0  0  0  0  0
  155.3646  136.2151  164.3714 O   0  0  0  0  0  0  0  0  0  0  0  0
  155.4571  135.1511  163.4235 C   0  0  2  0  0  0  0  0  0  0  0  0
  156.4218  134.0970  163.9770 C   0  0  0  0  0  0  0  0  0  0  0  0
  155.9314  135.7258  162.0742 C   0  0  0  0  0  0  0  0  0  0  0  0
  151.9817  143.4263  160.5496 C   0  0  0  0  0  0  0  0  0  0  0  0
  149.8756  145.7722  159.3272 H   0  0  0  0  0  0  0  0  0  0  0  0
  150.9906  146.4508  160.4999 H   0  0  0  0  0  0  0  0  0  0  0  0
  149.8678  145.1915  160.9822 H   0  0  0  0  0  0  0  0  0  0  0  0
  152.2540  145.0237  157.7361 H   0  0  0  0  0  0  0  0  0  0  0  0
  154.5665  141.5739  159.5084 H   0  0  0  0  0  0  0  0  0  0  0  0
  155.0456  140.9692  161.8273 H   0  0  0  0  0  0  0  0  0  0  0  0
  153.5655  141.7371  162.3882 H   0  0  0  0  0  0  0  0  0  0  0  0
  154.8602  142.7067  161.6953 H   0  0  0  0  0  0  0  0  0  0  0  0
  152.1979  140.2224  160.7866 H   0  0  0  0  0  0  0  0  0  0  0  0
  151.5287  141.1380  158.5531 H   0  0  0  0  0  0  0  0  0  0  0  0
  151.5003  139.3859  158.5870 H   0  0  0  0  0  0  0  0  0  0  0  0
  152.8265  140.2219  157.7934 H   0  0  0  0  0  0  0  0  0  0  0  0
  154.5458  139.3048  160.7530 H   0  0  0  0  0  0  0  0  0  0  0  0
  152.4608  137.9584  161.1116 H   0  0  0  0  0  0  0  0  0  0  0  0
  152.5931  137.5798  159.4078 H   0  0  0  0  0  0  0  0  0  0  0  0
  155.9232  138.2835  162.7080 H   0  0  0  0  0  0  0  0  0  0  0  0
  154.2626  138.6505  162.3230 H   0  0  0  0  0  0  0  0  0  0  0  0
  154.4840  138.0383  164.7368 H   0  0  0  0  0  0  0  0  0  0  0  0
  153.4593  136.8797  163.9097 H   0  0  0  0  0  0  0  0  0  0  0  0
  154.4728  134.6944  163.3029 H   0  0  0  0  0  0  0  0  0  0  0  0
  156.5228  133.2581  163.2881 H   0  0  0  0  0  0  0  0  0  0  0  0
  156.0648  133.7035  164.9289 H   0  0  0  0  0  0  0  0  0  0  0  0
  157.4143  134.5174  164.1409 H   0  0  0  0  0  0  0  0  0  0  0  0
  156.0760  134.9283  161.3475 H   0  0  0  0  0  0  0  0  0  0  0  0
  156.9116  136.1909  162.1898 H   0  0  0  0  0  0  0  0  0  0  0  0
  151.7135  143.1030  161.5446 H   0  0  0  0  0  0  0  0  0  0  0  0
  1  2  1  0  0  0  0
  1 22  1  0  0  0  0
  1 23  1  0  0  0  0
  1 24  1  0  0  0  0
  2 21  2  0  0  0  0
  2  3  1  0  0  0  0
  3  4  2  0  0  0  0
  3 25  1  0  0  0  0
  4  5  1  0  0  0  0
  5  6  1  0  0  0  0
  5 21  1  0  0  0  0
  6  7  1  0  0  0  0
  6  8  1  0  0  0  0
  6 26  1  0  0  0  0
  7 27  1  0  0  0  0
  7 28  1  0  0  0  0
  7 29  1  0  0  0  0
  8  9  1  0  0  0  0
  8 10  1  0  0  0  0
  8 30  1  0  0  0  0
  9 31  1  0  0  0  0
  9 32  1  0  0  0  0
  9 33  1  0  0  0  0
 10 11  1  0  0  0  0
 10 34  1  0  0  0  0
 11 12  1  0  0  0  0
 11 35  1  0  0  0  0
 11 36  1  0  0  0  0
 12 13  2  0  0  0  0
 12 14  1  0  0  0  0
 14 20  1  0  0  0  0
 14 15  1  0  0  0  0
 15 16  1  0  0  0  0
 15 37  1  0  0  0  0
 15 38  1  0  0  0  0
 16 17  1  0  0  0  0
 16 39  1  0  0  0  0
 16 40  1  0  0  0  0
 17 18  1  0  0  0  0
 18 19  1  0  0  0  0
 18 20  1  0  0  0  0
 18 41  1  0  0  0  0
 19 42  1  0  0  0  0
 19 43  1  0  0  0  0
 19 44  1  0  0  0  0
 20 45  1  0  0  0  0
 20 46  1  0  0  0  0
 21 47  1  0  0  0  0
M  END
> <s_m_source_file>
AV-unprocessed.smi

> <i_m_source_file_index>
3056

> <i_lp_mmshare_version>
43012

> <i_f3d_flags>
0

> <s_epik_input>
W0NIM11jMVtjSF1ubihbY0hdMSlbQ0BIXShbQ0gzXSlbQ0BIXShbQ0gzXSlbTkhdW0NIMl1DKD1PKU4yW0NIMl1bQ0gyXU9bQ0BASF0oW0NIM10pW0NIMl0y

> <s_epik_cmdline>
J2VwaWtfcHl0aG9uJywgJy1waCcsICc3LjAnLCAnLXRuJywgJzgnLCAnLW1hJywgJzIwMCcsICctbWV0YWxfYmluZGluZycsICctaW1hZScsICc8aW5maWxlLm1hZT4nLCAnLW9tYWUnLCAnPG91dGZpbGUubWFlPic=

> <r_lp_tautomer_probability>
1

> <r_epik_Ionization_Penalty>
0.667689

> <r_epik_Ionization_Penalty_Charging>
0

> <r_epik_Ionization_Penalty_Neutral>
0.667689

> <r_epik_State_Penalty>
0.684601

> <r_epik_Charging_Adjusted_Penalty>
0.684601

> <i_epik_Tot_Q>
0

> <i_epik_Tot_abs_Q>
0

> <r_epik_Metal_State_Penalty>
0.681448

> <b_epik_Metal_Only>
0

> <s_lp_Force_Field>
OPLS_2005

> <r_lp_Energy>
31.287

> <b_lp_Chiralities_Consistent>
1

> <s_lp_Variant>
AV-unprocessed.smi:3056-16

> <Gold.Version>
5.8.1

> <Gold.Id.Protein>
6NUR|6NUR_protein|mol2

> <Gold.PLP.Fitness>
46.9921

> <Gold.PLP.PLP>
-45.3070

> <Gold.PLP.part.hbond>
-1.0000

> <Gold.PLP.part.metal>
0.0000

> <Gold.PLP.part.buried>
-2.6862

> <Gold.PLP.part.nonpolar>
-40.6276

> <Gold.PLP.part.repulsive>
0.0857

> <Gold.PLP.ligand.clash>
0.0000

> <Gold.PLP.ligand.torsion>
0.7601

> <Gold.PLP.Chemscore.Hbond>
1.0000

> <Gold.PLP.Chemscore.CHOScore>
0.0000

> <Gold.PLP.Chemscore.Metal>
0.0000

> <Gold.Chemscore.Hbonds>
donor molecule, donor type, donor heavy atom, donor atom, acceptor molecule, acceptor atom, score
      P1  H  6896  6908       L1    13  1.00

> <Gold.PLP.Chemscore.Internal.Correction>
0.2052

> <Gold.Rescore>
     Score         DG    S(hbond)    S(metal)    S(lipo)     H(rot)  DE(clash)    DE(int)     intcor
     16.26     -18.41       0.74        0.00     126.07       1.68       1.20       0.95       ----

> <Gold.Chemscore.Fitness>
16.2587

> <Gold.Chemscore.DG>
-18.4139

> <Gold.Chemscore.ZeroCoef>
-5.4800

> <Gold.Chemscore.Hbond>
0.7432

> <Gold.Chemscore.Metal>
0.0000

> <Gold.Chemscore.Lipo>
126.0730

> <Gold.Chemscore.Internal_Hbond>
0.0000

> <Gold.Chemscore.DEClash>
1.2022

> <Gold.Chemscore.DEInternal>
0.9530

> <Gold.Chemscore.Rot>
1.6793

> <Gold.Chemscore.Internal.Correction>
   9.000000E+99

> <Gold.Chemscore.Hbonds>
donor molecule, donor type, donor heavy atom, donor atom, acceptor molecule, acceptor atom, score
      P1  H  6896  6908       L1    13  0.92

> <Gold.Chemscore.Hbond.Weighted>
-2.4824

> <Gold.Chemscore.Metal.Weighted>
-0.0000

> <Gold.Chemscore.Lipo.Weighted>
-14.7505

> <Gold.Chemscore.Internal_Hbond.Weighted>
0.0000

> <Gold.Chemscore.DEClash.Weighted>
1.2022

> <Gold.Chemscore.DEInternal.Weighted>
0.9530

> <Gold.Chemscore.Rot.Weighted>
4.2990

> <Gold.Chemscore.Internal.Correction.Weighted>
   9.000000E+99

> <Gold.Protein.RotatedTorsions>
[ 6907 6896 6895 6894 ] final  -54.27 input  -60.11 | X-H torsion
[ 7974 7965 7964 7962 ] final   64.38 input  175.53 | X-H torsion
[ 8008 7997 7996 7995 ] final  -84.62 input   59.86 | X-H torsion
[ 10167 10162 10161 10158 ] final   80.02 input  -65.29 | X-H torsion
[ 10718 10713 10712 10709 ] final  113.77 input   66.30 | X-H torsion
[ 10763 10752 10751 10750 ] final   -1.95 input  -60.55 | X-H torsion
[ 11005 11000 10999 10996 ] final   72.14 input  -57.11 | X-H torsion

> <Gold.Protein.ActiveResidues>
 VAL166  LYS551  ARG553  GLY616  TRP617  ASP618  TYR619  PRO620  LYS621  CYS622 
 ASP623  PHE694  ASN695  SER759  ASP760  ASP761  ALA762  ILE779  LEU786  VAL792 
 PHE793  MET794  SER795  GLU796  ALA797  LYS798  CYS799  TRP800  GLU811  SER814 

> <Gold.Protein.RotatedAtoms>
  150.8353  134.7623  159.6887 H   0  0  0  0  0  0  0  0  0  0  0  0  # atno 6907 bound_to 6896
  152.4451  134.5509  159.9876 H   0  0  0  0  0  0  0  0  0  0  0  0  # atno 6908 bound_to 6896
  151.5660  133.3359  159.3016 H   0  0  0  0  0  0  0  0  0  0  0  0  # atno 6909 bound_to 6896
  145.8509  139.3253  143.0876 H   0  0  0  0  0  0  0  0  0  0  0  0  # atno 7974 bound_to 7965
  154.6318  140.0602  156.9741 H   0  0  0  0  0  0  0  0  0  0  0  0  # atno 8008 bound_to 7997
  155.1654  140.3286  155.4384 H   0  0  0  0  0  0  0  0  0  0  0  0  # atno 8009 bound_to 7997
  156.2486  140.1923  156.6759 H   0  0  0  0  0  0  0  0  0  0  0  0  # atno 8010 bound_to 7997
  139.9542  144.6005  150.8132 H   0  0  0  0  0  0  0  0  0  0  0  0  # atno 10167 bound_to 10162
  157.6319  131.0988  150.7089 H   0  0  0  0  0  0  0  0  0  0  0  0  # atno 10718 bound_to 10713
  153.3516  135.6986  153.6784 H   0  0  0  0  0  0  0  0  0  0  0  0  # atno 10763 bound_to 10752
  153.5508  135.3554  155.2759 H   0  0  0  0  0  0  0  0  0  0  0  0  # atno 10764 bound_to 10752
  154.8654  135.4226  154.2753 H   0  0  0  0  0  0  0  0  0  0  0  0  # atno 10765 bound_to 10752
  139.9506  134.7233  156.0872 H   0  0  0  0  0  0  0  0  0  0  0  0  # atno 11005 bound_to 11000
  145.9359  140.9015  143.0332 LP  0  0  0  0  0  0  0  0  0  0  0  0  # atno 17320 bound_to 7965
  144.6729  140.1482  143.7432 LP  0  0  0  0  0  0  0  0  0  0  0  0  # atno 17321 bound_to 7965
  140.7573  143.3084  151.2905 LP  0  0  0  0  0  0  0  0  0  0  0  0  # atno 17342 bound_to 10162
  139.6604  144.0199  152.2688 LP  0  0  0  0  0  0  0  0  0  0  0  0  # atno 17343 bound_to 10162
  156.7427  130.4744  149.5474 LP  0  0  0  0  0  0  0  0  0  0  0  0  # atno 17370 bound_to 10713
  156.1529  130.6322  151.0619 LP  0  0  0  0  0  0  0  0  0  0  0  0  # atno 17371 bound_to 10713
  141.1168  133.6625  156.3114 LP  0  0  0  0  0  0  0  0  0  0  0  0  # atno 17394 bound_to 11000
  140.5728  134.5823  157.5461 LP  0  0  0  0  0  0  0  0  0  0  0  0  # atno 17395 bound_to 11000

$$$$
