AV-unprocessed.smi:471|AV-procd|sdf|2659|dock8
  -GOLD-   2262023 73D 1   1.00000     0.00000
 Structure written by MMmdl.
 16 16  0  0  0  0  0  0  0  0  3 V2000
  152.8515  137.5227  154.0563 O   0  0  0  0  0  0  0  0  0  0  0  0
  152.3030  138.4760  154.6515 C   0  0  0  0  0  0  0  0  0  0  0  0
  152.8107  139.6039  154.8390 O   0  5  0  0  0  0  0  0  0  0  0  0
  150.8883  138.2447  155.1931 C   0  0  0  0  0  0  0  0  0  0  0  0
  149.9820  139.3648  154.8840 N   0  0  0  0  0  0  0  0  0  0  0  0
  148.9161  139.1079  154.0014 C   0  0  0  0  0  0  0  0  0  0  0  0
  148.0147  140.0534  153.6756 C   0  0  0  0  0  0  0  0  0  0  0  0
  148.1574  141.3754  154.2711 C   0  0  0  0  0  0  0  0  0  0  0  0
  147.3472  142.2542  153.9816 O   0  0  0  0  0  0  0  0  0  0  0  0
  149.1951  141.5726  155.1354 N   0  5  0  0  0  0  0  0  0  0  0  0
  150.1033  140.5997  155.4607 C   0  0  0  0  0  0  0  0  0  0  0  0
  151.0210  140.8067  156.2550 O   0  0  0  0  0  0  0  0  0  0  0  0
  150.4807  137.3364  154.7468 H   0  0  0  0  0  0  0  0  0  0  0  0
  150.9599  138.0313  156.2602 H   0  0  0  0  0  0  0  0  0  0  0  0
  148.8784  138.1011  153.6118 H   0  0  0  0  0  0  0  0  0  0  0  0
  147.2043  139.8369  152.9954 H   0  0  0  0  0  0  0  0  0  0  0  0
  1  2  2  0  0  0  0
  2  3  1  0  0  0  0
  2  4  1  0  0  0  0
  4  5  1  0  0  0  0
  4 13  1  0  0  0  0
  4 14  1  0  0  0  0
  5 11  1  0  0  0  0
  5  6  1  0  0  0  0
  6  7  2  0  0  0  0
  6 15  1  0  0  0  0
  7  8  1  0  0  0  0
  7 16  1  0  0  0  0
  8  9  2  0  0  0  0
  8 10  1  0  0  0  0
 10 11  1  0  0  0  0
 11 12  2  0  0  0  0
M  CHG  1   3  -1
M  CHG  1  10  -1
M  END
> <s_m_source_file>
AV-unprocessed.smi

> <i_m_source_file_index>
471

> <i_lp_mmshare_version>
43012

> <i_f3d_flags>
0

> <s_epik_input>
Tz1DKFtPSF0pW0NIMl1uMVtjSF1bY0hdYyg9TylbbkhdYzE9Tw==

> <s_epik_cmdline>
J2VwaWtfcHl0aG9uJywgJy1waCcsICc3LjAnLCAnLXRuJywgJzgnLCAnLW1hJywgJzIwMCcsICctbWV0YWxfYmluZGluZycsICctaW1hZScsICc8aW5maWxlLm1hZT4nLCAnLW9tYWUnLCAnPG91dGZpbGUubWFlPic=

> <r_lp_tautomer_probability>
1

> <r_epik_Ionization_Penalty>
3.94908

> <r_epik_Ionization_Penalty_Charging>
0.000183212

> <r_epik_Ionization_Penalty_Neutral>
3.94889

> <r_epik_State_Penalty>
3.94814

> <r_epik_Charging_Adjusted_Penalty>
3.94832

> <i_epik_Tot_Q>
-2

> <i_epik_Tot_abs_Q>
2

> <r_epik_Metal_State_Penalty>
0.342776

> <b_epik_Metal_Only>
1

> <s_lp_Force_Field>
OPLS_2005

> <r_lp_Energy>
13.443

> <b_lp_Chiralities_Consistent>
1

> <s_lp_Variant>
AV-unprocessed.smi:471-2

> <Gold.Version>
5.8.1

> <Gold.Id.Protein>
6NUR|6NUR_protein|mol2

> <Gold.PLP.Fitness>
32.8172

> <Gold.PLP.PLP>
-20.3209

> <Gold.PLP.part.hbond>
-3.0000

> <Gold.PLP.part.metal>
0.0000

> <Gold.PLP.part.buried>
-2.1505

> <Gold.PLP.part.nonpolar>
-15.9263

> <Gold.PLP.part.repulsive>
0.4255

> <Gold.PLP.ligand.clash>
0.0000

> <Gold.PLP.ligand.torsion>
0.2358

> <Gold.PLP.Chemscore.Hbond>
3.3243

> <Gold.PLP.Chemscore.CHOScore>
0.9968

> <Gold.PLP.Chemscore.Metal>
0.0000

> <Gold.Chemscore.Hbonds>
donor molecule, donor type, donor heavy atom, donor atom, acceptor molecule, acceptor atom, score
      P1  H  7989  7998       L1     3  0.35
      P1  H  7997  8010       L1     3  1.98
      P1  H 10752 10765       L1     1  1.02
      L1  C     6    15       P1  7948  0.97

> <Gold.PLP.Chemscore.Internal.Correction>
0.0048

> <Gold.Rescore>
     Score         DG    S(hbond)    S(metal)    S(lipo)     H(rot)  DE(clash)    DE(int)     intcor
      7.43      -9.12       1.71        0.00      18.10       1.64       0.05       1.63       ----

> <Gold.Chemscore.Fitness>
7.4302

> <Gold.Chemscore.DG>
-9.1174

> <Gold.Chemscore.ZeroCoef>
-5.4800

> <Gold.Chemscore.Hbond>
1.7125

> <Gold.Chemscore.Metal>
0.0000

> <Gold.Chemscore.Lipo>
18.0951

> <Gold.Chemscore.Internal_Hbond>
0.0000

> <Gold.Chemscore.DEClash>
0.0544

> <Gold.Chemscore.DEInternal>
1.6328

> <Gold.Chemscore.Rot>
1.6404

> <Gold.Chemscore.Internal.Correction>
   9.000000E+99

> <Gold.Chemscore.Hbonds>
donor molecule, donor type, donor heavy atom, donor atom, acceptor molecule, acceptor atom, score
      P1  H  7989  7998       L1     3  0.14
      P1  H  7997  8010       L1     3  0.92
      P1  H 10752 10765       L1     1  0.52

> <Gold.Chemscore.Hbond.Weighted>
-5.7196

> <Gold.Chemscore.Metal.Weighted>
-0.0000

> <Gold.Chemscore.Lipo.Weighted>
-2.1171

> <Gold.Chemscore.Internal_Hbond.Weighted>
0.0000

> <Gold.Chemscore.DEClash.Weighted>
0.0544

> <Gold.Chemscore.DEInternal.Weighted>
1.6328

> <Gold.Chemscore.Rot.Weighted>
4.1994

> <Gold.Chemscore.Internal.Correction.Weighted>
   9.000000E+99

> <Gold.Protein.RotatedTorsions>
[ 6907 6896 6895 6894 ] final   99.32 input  -60.11 | X-H torsion
[ 7974 7965 7964 7962 ] final   -1.53 input  175.53 | X-H torsion
[ 8008 7997 7996 7995 ] final  105.75 input   59.86 | X-H torsion
[ 10167 10162 10161 10158 ] final  -22.71 input  -65.29 | X-H torsion
[ 10718 10713 10712 10709 ] final   82.40 input   66.30 | X-H torsion
[ 10763 10752 10751 10750 ] final  143.96 input  -60.55 | X-H torsion
[ 11005 11000 10999 10996 ] final   -4.29 input  -57.11 | X-H torsion

> <Gold.Protein.ActiveResidues>
 VAL166  LYS551  ARG553  GLY616  TRP617  ASP618  TYR619  PRO620  LYS621  CYS622 
 ASP623  PHE694  ASN695  SER759  ASP760  ASP761  ALA762  ILE779  LEU786  VAL792 
 PHE793  MET794  SER795  GLU796  ALA797  LYS798  CYS799  TRP800  GLU811  SER814 

> <Gold.Protein.RotatedAtoms>
  152.5394  134.0447  159.8082 H   0  0  0  0  0  0  0  0  0  0  0  0  # atno 6907 bound_to 6896
  151.0597  133.5546  159.2642 H   0  0  0  0  0  0  0  0  0  0  0  0  # atno 6908 bound_to 6896
  151.2450  135.0610  159.9093 H   0  0  0  0  0  0  0  0  0  0  0  0  # atno 6909 bound_to 6896
  146.2416  140.1434  142.8335 H   0  0  0  0  0  0  0  0  0  0  0  0  # atno 7974 bound_to 7965
  156.1686  140.3125  155.8932 H   0  0  0  0  0  0  0  0  0  0  0  0  # atno 8008 bound_to 7997
  155.3635  140.0478  157.3063 H   0  0  0  0  0  0  0  0  0  0  0  0  # atno 8009 bound_to 7997
  154.5217  140.2200  155.8974 H   0  0  0  0  0  0  0  0  0  0  0  0  # atno 8010 bound_to 7997
  140.7286  143.4509  151.0517 H   0  0  0  0  0  0  0  0  0  0  0  0  # atno 10167 bound_to 10162
  157.6856  131.0046  150.2369 H   0  0  0  0  0  0  0  0  0  0  0  0  # atno 10718 bound_to 10713
  153.9810  135.2941  155.3420 H   0  0  0  0  0  0  0  0  0  0  0  0  # atno 10763 bound_to 10752
  154.7269  135.5085  153.8903 H   0  0  0  0  0  0  0  0  0  0  0  0  # atno 10764 bound_to 10752
  153.0854  135.6692  154.0073 H   0  0  0  0  0  0  0  0  0  0  0  0  # atno 10765 bound_to 10752
  140.6787  133.9173  155.8541 H   0  0  0  0  0  0  0  0  0  0  0  0  # atno 11005 bound_to 11000
  145.0228  140.8807  143.5156 LP  0  0  0  0  0  0  0  0  0  0  0  0  # atno 17320 bound_to 7965
  145.1485  139.2529  143.5453 LP  0  0  0  0  0  0  0  0  0  0  0  0  # atno 17321 bound_to 7965
  139.8186  143.7852  152.3175 LP  0  0  0  0  0  0  0  0  0  0  0  0  # atno 17342 bound_to 10162
  139.7926  144.7404  150.9934 LP  0  0  0  0  0  0  0  0  0  0  0  0  # atno 17343 bound_to 10162
  156.2991  130.3756  149.7768 LP  0  0  0  0  0  0  0  0  0  0  0  0  # atno 17370 bound_to 10713
  156.5403  130.8297  151.3267 LP  0  0  0  0  0  0  0  0  0  0  0  0  # atno 17371 bound_to 10713
  141.0335  134.0723  157.3987 LP  0  0  0  0  0  0  0  0  0  0  0  0  # atno 17394 bound_to 11000
  139.8958  135.0143  156.7022 LP  0  0  0  0  0  0  0  0  0  0  0  0  # atno 17395 bound_to 11000

$$$$
