AV-unprocessed.smi:2124|AV-procd|sdf|8661|dock7
  -GOLD-   2272011413D 1   1.00000     0.00000
 Structure written by MMmdl.
 47 49  0  0  0  0  0  0  0  0  1 V2000
  149.2545  134.0004  155.2727 C   0  0  0  0  0  0  0  0  0  0  0  0
  150.1386  135.1564  155.6871 C   0  0  0  0  0  0  0  0  0  0  0  0
  150.5135  135.9749  154.6344 N   0  0  0  0  0  0  0  0  0  0  0  0
  151.3203  137.0631  154.9164 C   0  0  0  0  0  0  0  0  0  0  0  0
  151.6860  137.9081  153.7085 C   0  0  0  0  0  0  0  0  0  0  0  0
  151.7348  137.3207  156.1830 C   0  0  0  0  0  0  0  0  0  0  0  0
  152.6310  138.5078  156.5353 C   0  0  0  0  0  0  0  0  0  0  0  0
  152.0919  139.8938  156.1713 C   0  0  0  0  0  0  0  0  0  0  0  0
  152.1227  140.2943  155.0073 O   0  0  0  0  0  0  0  0  0  0  0  0
  151.5950  140.6162  157.1872 N   0  0  0  0  0  0  0  0  0  0  0  0
  151.0353  141.9623  157.0765 C   0  0  1  0  0  0  0  0  0  0  0  0
  149.6159  141.8663  156.4867 C   0  0  0  0  0  0  0  0  0  0  0  0
  151.0630  142.6525  158.4631 C   0  0  1  0  0  0  0  0  0  0  0  0
  152.4441  142.5919  159.1654 C   0  0  0  0  0  0  0  0  0  0  0  0
  152.7389  144.0643  159.5005 C   0  0  2  0  0  0  0  0  0  0  0  0
  151.7775  144.5485  160.6009 C   0  0  0  0  0  0  0  0  0  0  0  0
  150.4352  144.6543  159.8537 C   0  0  0  0  0  0  0  0  0  0  0  0
  150.7979  144.1795  158.4331 C   0  0  1  0  0  0  0  0  0  0  0  0
  152.1949  144.7699  158.2662 C   0  0  0  0  0  0  0  0  0  0  0  0
  151.3067  136.4049  157.2664 C   0  0  0  0  0  0  0  0  0  0  0  0
  151.6598  136.5771  158.4324 O   0  0  0  0  0  0  0  0  0  0  0  0
  150.4826  135.3192  156.9283 N   0  0  0  0  0  0  0  0  0  0  0  0
  150.2293  135.8187  153.6780 H   0  0  0  0  0  0  0  0  0  0  0  0
  149.0275  133.3578  156.1246 H   0  0  0  0  0  0  0  0  0  0  0  0
  149.7499  133.3952  154.5128 H   0  0  0  0  0  0  0  0  0  0  0  0
  148.3140  134.3703  154.8635 H   0  0  0  0  0  0  0  0  0  0  0  0
  152.7687  137.9598  153.5923 H   0  0  0  0  0  0  0  0  0  0  0  0
  151.3024  138.9220  153.8229 H   0  0  0  0  0  0  0  0  0  0  0  0
  151.2700  137.4958  152.7884 H   0  0  0  0  0  0  0  0  0  0  0  0
  153.6165  138.3900  156.0834 H   0  0  0  0  0  0  0  0  0  0  0  0
  152.8150  138.4925  157.6097 H   0  0  0  0  0  0  0  0  0  0  0  0
  151.6129  140.2071  158.1101 H   0  0  0  0  0  0  0  0  0  0  0  0
  151.6532  142.5450  156.3915 H   0  0  0  0  0  0  0  0  0  0  0  0
  149.1865  142.8495  156.3002 H   0  0  0  0  0  0  0  0  0  0  0  0
  148.9433  141.3302  157.1569 H   0  0  0  0  0  0  0  0  0  0  0  0
  149.6213  141.3383  155.5323 H   0  0  0  0  0  0  0  0  0  0  0  0
  150.3162  142.1665  159.0934 H   0  0  0  0  0  0  0  0  0  0  0  0
  152.4307  141.9584  160.0530 H   0  0  0  0  0  0  0  0  0  0  0  0
  153.2176  142.2072  158.4991 H   0  0  0  0  0  0  0  0  0  0  0  0
  153.7890  144.2605  159.7189 H   0  0  0  0  0  0  0  0  0  0  0  0
  151.7326  143.8572  161.4431 H   0  0  0  0  0  0  0  0  0  0  0  0
  152.0811  145.5240  160.9830 H   0  0  0  0  0  0  0  0  0  0  0  0
  149.6524  144.0485  160.3115 H   0  0  0  0  0  0  0  0  0  0  0  0
  150.0879  145.6881  159.8377 H   0  0  0  0  0  0  0  0  0  0  0  0
  150.0764  144.5046  157.6849 H   0  0  0  0  0  0  0  0  0  0  0  0
  152.2180  145.8581  158.3454 H   0  0  0  0  0  0  0  0  0  0  0  0
  152.6905  144.4696  157.3417 H   0  0  0  0  0  0  0  0  0  0  0  0
  1 24  1  0  0  0  0
  1 25  1  0  0  0  0
  1 26  1  0  0  0  0
  1  2  1  0  0  0  0
  2  3  1  0  0  0  0
  2 22  2  0  0  0  0
  3  4  1  0  0  0  0
  3 23  1  0  0  0  0
  4  6  2  0  0  0  0
  4  5  1  0  0  0  0
  5 27  1  0  0  0  0
  5 28  1  0  0  0  0
  5 29  1  0  0  0  0
  6 20  1  0  0  0  0
  6  7  1  0  0  0  0
  7  8  1  0  0  0  0
  7 30  1  0  0  0  0
  7 31  1  0  0  0  0
  8  9  2  0  0  0  0
  8 10  1  0  0  0  0
 10 11  1  0  0  0  0
 10 32  1  0  0  0  0
 11 12  1  0  0  0  0
 11 13  1  0  0  0  0
 11 33  1  0  0  0  0
 12 34  1  0  0  0  0
 12 35  1  0  0  0  0
 12 36  1  0  0  0  0
 13 18  1  0  0  0  0
 13 14  1  0  0  0  0
 13 37  1  0  0  0  0
 14 15  1  0  0  0  0
 14 38  1  0  0  0  0
 14 39  1  0  0  0  0
 15 19  1  0  0  0  0
 15 16  1  0  0  0  0
 15 40  1  0  0  0  0
 16 17  1  0  0  0  0
 16 41  1  0  0  0  0
 16 42  1  0  0  0  0
 17 18  1  0  0  0  0
 17 43  1  0  0  0  0
 17 44  1  0  0  0  0
 18 19  1  0  0  0  0
 18 45  1  0  0  0  0
 19 46  1  0  0  0  0
 19 47  1  0  0  0  0
 20 21  2  0  0  0  0
 20 22  1  0  0  0  0
M  END
> <s_m_source_file>
AV-unprocessed.smi

> <i_m_source_file_index>
2124

> <i_lp_mmshare_version>
43012

> <i_f3d_flags>
0

> <s_epik_input>
W0NIM11jMW5jKFtDSDNdKWMoYyg9TylbbkhdMSlbQ0gyXUMoPU8pW05IXVtDQEhdKFtDSDNdKVtDQEhdKFtDSDJdW0NASF0yMylbQ0BIXShbQ0gyXTMpW0NIMl1bQ0gyXTI=

> <s_epik_cmdline>
J2VwaWtfcHl0aG9uJywgJy1waCcsICc3LjAnLCAnLXRuJywgJzgnLCAnLW1hJywgJzIwMCcsICctbWV0YWxfYmluZGluZycsICctaW1hZScsICc8aW5maWxlLm1hZT4nLCAnLW9tYWUnLCAnPG91dGZpbGUubWFlPic=

> <r_lp_tautomer_probability>
0.156392

> <r_epik_Ionization_Penalty>
0.0139374

> <r_epik_Ionization_Penalty_Charging>
0.0138122

> <r_epik_Ionization_Penalty_Neutral>
0.000125146

> <r_epik_State_Penalty>
1.15342

> <r_epik_Charging_Adjusted_Penalty>
1.16723

> <i_epik_Tot_Q>
0

> <i_epik_Tot_abs_Q>
0

> <r_epik_Metal_State_Penalty>
1.3173

> <b_epik_Metal_Only>
0

> <s_lp_Force_Field>
OPLS_2005

> <r_lp_Energy>
56.04

> <b_lp_Chiralities_Consistent>
1

> <s_lp_Variant>
AV-unprocessed.smi:2124-12

> <Gold.Version>
5.8.1

> <Gold.Id.Protein>
6NUR|6NUR_protein|mol2

> <Gold.PLP.Fitness>
45.9161

> <Gold.PLP.PLP>
-39.2978

> <Gold.PLP.part.hbond>
-3.0000

> <Gold.PLP.part.metal>
0.0000

> <Gold.PLP.part.buried>
-2.8031

> <Gold.PLP.part.nonpolar>
-34.3915

> <Gold.PLP.part.repulsive>
0.1684

> <Gold.PLP.ligand.clash>
0.0000

> <Gold.PLP.ligand.torsion>
0.6037

> <Gold.PLP.Chemscore.Hbond>
2.6000

> <Gold.PLP.Chemscore.CHOScore>
0.0000

> <Gold.PLP.Chemscore.Metal>
0.0000

> <Gold.Chemscore.Hbonds>
donor molecule, donor type, donor heavy atom, donor atom, acceptor molecule, acceptor atom, score
      L1  H     3    23       P1  7948  0.20
      P1  H  6896  6909       L1    21  0.49
      P1  H  7989  7998       L1     9  0.67

> <Gold.PLP.Chemscore.Internal.Correction>
0.0257

> <Gold.Rescore>
     Score         DG    S(hbond)    S(metal)    S(lipo)     H(rot)  DE(clash)    DE(int)     intcor
     21.07     -23.52       2.41        0.00     121.46       1.65       0.40       2.04       ----

> <Gold.Chemscore.Fitness>
21.0702

> <Gold.Chemscore.DG>
-23.5155

> <Gold.Chemscore.ZeroCoef>
-5.4800

> <Gold.Chemscore.Hbond>
2.4122

> <Gold.Chemscore.Metal>
0.0000

> <Gold.Chemscore.Lipo>
121.4633

> <Gold.Chemscore.Internal_Hbond>
0.0000

> <Gold.Chemscore.DEClash>
0.4020

> <Gold.Chemscore.DEInternal>
2.0433

> <Gold.Chemscore.Rot>
1.6534

> <Gold.Chemscore.Internal.Correction>
   9.000000E+99

> <Gold.Chemscore.Hbonds>
donor molecule, donor type, donor heavy atom, donor atom, acceptor molecule, acceptor atom, score
      P1  H  6896  6909       L1    21  0.45
      P1  H  7989  7998       L1     9  0.68

> <Gold.Chemscore.Hbond.Weighted>
-8.0569

> <Gold.Chemscore.Metal.Weighted>
-0.0000

> <Gold.Chemscore.Lipo.Weighted>
-14.2112

> <Gold.Chemscore.Internal_Hbond.Weighted>
0.0000

> <Gold.Chemscore.DEClash.Weighted>
0.4020

> <Gold.Chemscore.DEInternal.Weighted>
2.0433

> <Gold.Chemscore.Rot.Weighted>
4.2326

> <Gold.Chemscore.Internal.Correction.Weighted>
   9.000000E+99

> <Gold.Protein.RotatedTorsions>
[ 6907 6896 6895 6894 ] final   95.19 input  -60.11 | X-H torsion
[ 7974 7965 7964 7962 ] final   75.70 input  175.53 | X-H torsion
[ 8008 7997 7996 7995 ] final  -80.55 input   59.86 | X-H torsion
[ 10167 10162 10161 10158 ] final   58.56 input  -65.29 | X-H torsion
[ 10718 10713 10712 10709 ] final   37.30 input   66.30 | X-H torsion
[ 10763 10752 10751 10750 ] final   44.61 input  -60.55 | X-H torsion
[ 11005 11000 10999 10996 ] final  -66.50 input  -57.11 | X-H torsion

> <Gold.Protein.ActiveResidues>
 VAL166  LYS551  ARG553  GLY616  TRP617  ASP618  TYR619  PRO620  LYS621  CYS622 
 ASP623  PHE694  ASN695  SER759  ASP760  ASP761  ALA762  ILE779  LEU786  VAL792 
 PHE793  MET794  SER795  GLU796  ALA797  LYS798  CYS799  TRP800  GLU811  SER814 

> <Gold.Protein.RotatedAtoms>
  152.5445  134.1077  159.8344 H   0  0  0  0  0  0  0  0  0  0  0  0  # atno 6907 bound_to 6896
  151.1147  133.5140  159.2611 H   0  0  0  0  0  0  0  0  0  0  0  0  # atno 6908 bound_to 6896
  151.1845  135.0385  159.8861 H   0  0  0  0  0  0  0  0  0  0  0  0  # atno 6909 bound_to 6896
  145.7122  139.2619  143.1644 H   0  0  0  0  0  0  0  0  0  0  0  0  # atno 7974 bound_to 7965
  154.5895  140.0661  156.9218 H   0  0  0  0  0  0  0  0  0  0  0  0  # atno 8008 bound_to 7997
  155.2321  140.3338  155.4284 H   0  0  0  0  0  0  0  0  0  0  0  0  # atno 8009 bound_to 7997
  156.2246  140.1813  156.7379 H   0  0  0  0  0  0  0  0  0  0  0  0  # atno 8010 bound_to 7997
  140.1859  144.4135  150.6593 H   0  0  0  0  0  0  0  0  0  0  0  0  # atno 10167 bound_to 10162
  157.3453  130.7569  149.6940 H   0  0  0  0  0  0  0  0  0  0  0  0  # atno 10718 bound_to 10713
  152.9838  135.6065  154.3302 H   0  0  0  0  0  0  0  0  0  0  0  0  # atno 10763 bound_to 10752
  154.3006  135.2773  155.2614 H   0  0  0  0  0  0  0  0  0  0  0  0  # atno 10764 bound_to 10752
  154.4868  135.5902  153.6486 H   0  0  0  0  0  0  0  0  0  0  0  0  # atno 10765 bound_to 10752
  141.1484  133.6700  156.6149 H   0  0  0  0  0  0  0  0  0  0  0  0  # atno 11005 bound_to 11000
  146.0702  140.7877  142.9692 LP  0  0  0  0  0  0  0  0  0  0  0  0  # atno 17320 bound_to 7965
  144.6939  140.3330  143.7212 LP  0  0  0  0  0  0  0  0  0  0  0  0  # atno 17321 bound_to 7965
  140.6489  143.2220  151.6123 LP  0  0  0  0  0  0  0  0  0  0  0  0  # atno 17342 bound_to 10162
  139.5276  144.3011  152.1072 LP  0  0  0  0  0  0  0  0  0  0  0  0  # atno 17343 bound_to 10162
  155.9713  130.4156  150.4190 LP  0  0  0  0  0  0  0  0  0  0  0  0  # atno 17370 bound_to 10713
  157.2244  131.0490  151.2528 LP  0  0  0  0  0  0  0  0  0  0  0  0  # atno 17371 bound_to 10713
  140.3585  134.7708  157.4517 LP  0  0  0  0  0  0  0  0  0  0  0  0  # atno 17394 bound_to 11000
  140.0804  134.5739  155.8547 LP  0  0  0  0  0  0  0  0  0  0  0  0  # atno 17395 bound_to 11000

$$$$
