AV-unprocessed.smi:2478|AV-procd|sdf|9763|dock2
  -GOLD-   2272013403D 1   1.00000     0.00000
 Structure written by MMmdl.
 42 43  0  0  0  0  0  0  0  0  1 V2000
  147.4729  137.3384  162.9209 C   0  0  0  0  0  0  0  0  0  0  0  0
  146.9477  136.1575  162.0881 C   0  0  2  0  0  0  0  0  0  0  0  0
  146.9628  134.8577  162.9183 C   0  0  0  0  0  0  0  0  0  0  0  0
  146.4502  133.6572  162.1088 C   0  0  0  0  0  0  0  0  0  0  0  0
  147.2581  133.4804  160.8162 C   0  0  0  0  0  0  0  0  0  0  0  0
  147.2392  134.7647  159.9748 C   0  0  0  0  0  0  0  0  0  0  0  0
  147.7496  135.9800  160.7784 C   0  0  1  0  0  0  0  0  0  0  0  0
  147.5870  137.1602  160.0011 O   0  0  0  0  0  0  0  0  0  0  0  0
  148.1457  137.0849  158.6976 C   0  0  0  0  0  0  0  0  0  0  0  0
  147.5855  138.2323  157.8595 C   0  0  0  0  0  0  0  0  0  0  0  0
  146.6126  138.8633  158.2729 O   0  0  0  0  0  0  0  0  0  0  0  0
  148.2208  138.4747  156.6980 N   0  0  0  0  0  0  0  0  0  0  0  0
  147.9158  139.4485  155.7075 C   0  0  0  0  0  0  0  0  0  0  0  0
  146.6501  139.8510  155.4307 N   0  0  0  0  0  0  0  0  0  0  0  0
  146.4432  140.7715  154.4678 C   0  0  0  0  0  0  0  0  0  0  0  0
  147.4846  141.3440  153.7181 C   0  0  0  0  0  0  0  0  0  0  0  0
  148.8012  140.9375  153.9944 C   0  0  0  0  0  0  0  0  0  0  0  0
  149.0313  139.9805  155.0122 C   0  0  0  0  0  0  0  0  0  0  0  0
  150.2953  139.5269  155.3234 O   0  0  0  0  0  0  0  0  0  0  0  0
  150.9616  138.7523  154.4265 C   0  0  0  0  0  0  0  0  0  0  0  0
  152.1796  138.4246  154.9212 F   0  0  0  0  0  0  0  0  0  0  0  0
  150.2854  137.5989  154.2030 F   0  0  0  0  0  0  0  0  0  0  0  0
  148.5136  137.1881  163.2097 H   0  0  0  0  0  0  0  0  0  0  0  0
  146.8898  137.4649  163.8333 H   0  0  0  0  0  0  0  0  0  0  0  0
  147.4143  138.2746  162.3651 H   0  0  0  0  0  0  0  0  0  0  0  0
  145.9112  136.3729  161.8240 H   0  0  0  0  0  0  0  0  0  0  0  0
  147.9769  134.6533  163.2649 H   0  0  0  0  0  0  0  0  0  0  0  0
  146.3514  134.9799  163.8130 H   0  0  0  0  0  0  0  0  0  0  0  0
  146.5086  132.7497  162.7102 H   0  0  0  0  0  0  0  0  0  0  0  0
  145.3963  133.8010  161.8664 H   0  0  0  0  0  0  0  0  0  0  0  0
  148.2882  133.2166  161.0601 H   0  0  0  0  0  0  0  0  0  0  0  0
  146.8544  132.6504  160.2356 H   0  0  0  0  0  0  0  0  0  0  0  0
  147.8420  134.6144  159.0795 H   0  0  0  0  0  0  0  0  0  0  0  0
  146.2220  134.9568  159.6309 H   0  0  0  0  0  0  0  0  0  0  0  0
  148.8014  135.8364  161.0344 H   0  0  0  0  0  0  0  0  0  0  0  0
  149.2343  137.1468  158.7526 H   0  0  0  0  0  0  0  0  0  0  0  0
  147.8900  136.1438  158.2109 H   0  0  0  0  0  0  0  0  0  0  0  0
  149.0168  137.8880  156.4946 H   0  0  0  0  0  0  0  0  0  0  0  0
  145.4171  141.0556  154.2870 H   0  0  0  0  0  0  0  0  0  0  0  0
  147.2787  142.0733  152.9487 H   0  0  0  0  0  0  0  0  0  0  0  0
  149.6163  141.3564  153.4235 H   0  0  0  0  0  0  0  0  0  0  0  0
  151.1151  139.2715  153.4801 H   0  0  0  0  0  0  0  0  0  0  0  0
  1  2  1  0  0  0  0
  1 23  1  0  0  0  0
  1 24  1  0  0  0  0
  1 25  1  0  0  0  0
  2  7  1  0  0  0  0
  2  3  1  0  0  0  0
  2 26  1  0  0  0  0
  3  4  1  0  0  0  0
  3 27  1  0  0  0  0
  3 28  1  0  0  0  0
  4  5  1  0  0  0  0
  4 29  1  0  0  0  0
  4 30  1  0  0  0  0
  5  6  1  0  0  0  0
  5 31  1  0  0  0  0
  5 32  1  0  0  0  0
  6  7  1  0  0  0  0
  6 33  1  0  0  0  0
  6 34  1  0  0  0  0
  7  8  1  0  0  0  0
  7 35  1  0  0  0  0
  8  9  1  0  0  0  0
  9 10  1  0  0  0  0
  9 36  1  0  0  0  0
  9 37  1  0  0  0  0
 10 11  2  0  0  0  0
 10 12  1  0  0  0  0
 12 13  1  0  0  0  0
 12 38  1  0  0  0  0
 13 18  1  0  0  0  0
 13 14  2  0  0  0  0
 14 15  1  0  0  0  0
 15 16  2  0  0  0  0
 15 39  1  0  0  0  0
 16 17  1  0  0  0  0
 16 40  1  0  0  0  0
 17 18  2  0  0  0  0
 17 41  1  0  0  0  0
 18 19  1  0  0  0  0
 19 20  1  0  0  0  0
 20 21  1  0  0  0  0
 20 22  1  0  0  0  0
 20 42  1  0  0  0  0
M  END
> <s_m_source_file>
AV-unprocessed.smi

> <i_m_source_file_index>
2478

> <i_lp_mmshare_version>
43012

> <i_f3d_flags>
0

> <s_epik_input>
W0NIM11bQ0BASF0xW0NIMl1bQ0gyXVtDSDJdW0NIMl1bQ0BIXTFPW0NIMl1DKD1PKVtOSF1jMm5bY0hdW2NIXVtjSF1jMk9bQ0hdKEYpRg==

> <s_epik_cmdline>
J2VwaWtfcHl0aG9uJywgJy1waCcsICc3LjAnLCAnLXRuJywgJzgnLCAnLW1hJywgJzIwMCcsICctbWV0YWxfYmluZGluZycsICctaW1hZScsICc8aW5maWxlLm1hZT4nLCAnLW9tYWUnLCAnPG91dGZpbGUubWFlPic=

> <r_lp_tautomer_probability>
1

> <r_epik_Ionization_Penalty>
6.06012e-05

> <r_epik_Ionization_Penalty_Charging>
0

> <r_epik_Ionization_Penalty_Neutral>
6.06012e-05

> <r_epik_State_Penalty>
-0

> <r_epik_Charging_Adjusted_Penalty>
0

> <i_epik_Tot_Q>
0

> <i_epik_Tot_abs_Q>
0

> <r_epik_Metal_State_Penalty>
-0

> <b_epik_Metal_Only>
0

> <s_lp_Force_Field>
OPLS_2005

> <r_lp_Energy>
14.0723

> <b_lp_Chiralities_Consistent>
1

> <s_lp_Variant>
AV-unprocessed.smi:2478-1

> <Gold.Version>
5.8.1

> <Gold.Id.Protein>
6NUR|6NUR_protein|mol2

> <Gold.PLP.Fitness>
45.8507

> <Gold.PLP.PLP>
-41.1530

> <Gold.PLP.part.hbond>
-2.5548

> <Gold.PLP.part.metal>
0.0000

> <Gold.PLP.part.buried>
-0.5101

> <Gold.PLP.part.nonpolar>
-37.9830

> <Gold.PLP.part.repulsive>
0.0824

> <Gold.PLP.ligand.clash>
0.0000

> <Gold.PLP.ligand.torsion>
0.5471

> <Gold.PLP.Chemscore.Hbond>
0.8640

> <Gold.PLP.Chemscore.CHOScore>
0.9862

> <Gold.PLP.Chemscore.Metal>
0.0000

> <Gold.Chemscore.Hbonds>
donor molecule, donor type, donor heavy atom, donor atom, acceptor molecule, acceptor atom, score
      P1  H  6934  6947       L1     8  0.73
      L1  C    15    39       P1 10175  0.92

> <Gold.PLP.Chemscore.Internal.Correction>
0.2413

> <Gold.Rescore>
     Score         DG    S(hbond)    S(metal)    S(lipo)     H(rot)  DE(clash)    DE(int)     intcor
     12.03     -13.83       0.87        0.00      86.90       1.85       0.09       1.71       ----

> <Gold.Chemscore.Fitness>
12.0310

> <Gold.Chemscore.DG>
-13.8270

> <Gold.Chemscore.ZeroCoef>
-5.4800

> <Gold.Chemscore.Hbond>
0.8716

> <Gold.Chemscore.Metal>
0.0000

> <Gold.Chemscore.Lipo>
86.8971

> <Gold.Chemscore.Internal_Hbond>
0.0000

> <Gold.Chemscore.DEClash>
0.0850

> <Gold.Chemscore.DEInternal>
1.7110

> <Gold.Chemscore.Rot>
1.8481

> <Gold.Chemscore.Internal.Correction>
   9.000000E+99

> <Gold.Chemscore.Hbonds>
donor molecule, donor type, donor heavy atom, donor atom, acceptor molecule, acceptor atom, score
      P1  H  6934  6947       L1     8  0.68

> <Gold.Chemscore.Hbond.Weighted>
-2.9112

> <Gold.Chemscore.Metal.Weighted>
-0.0000

> <Gold.Chemscore.Lipo.Weighted>
-10.1670

> <Gold.Chemscore.Internal_Hbond.Weighted>
0.0000

> <Gold.Chemscore.DEClash.Weighted>
0.0850

> <Gold.Chemscore.DEInternal.Weighted>
1.7110

> <Gold.Chemscore.Rot.Weighted>
4.7311

> <Gold.Chemscore.Internal.Correction.Weighted>
   9.000000E+99

> <Gold.Protein.RotatedTorsions>
[ 6907 6896 6895 6894 ] final   -0.79 input  -60.11 | X-H torsion
[ 7974 7965 7964 7962 ] final    9.54 input  175.53 | X-H torsion
[ 8008 7997 7996 7995 ] final -139.33 input   59.86 | X-H torsion
[ 10167 10162 10161 10158 ] final -163.30 input  -65.29 | X-H torsion
[ 10718 10713 10712 10709 ] final  178.73 input   66.30 | X-H torsion
[ 10763 10752 10751 10750 ] final  118.15 input  -60.55 | X-H torsion
[ 11005 11000 10999 10996 ] final  -40.66 input  -57.11 | X-H torsion

> <Gold.Protein.ActiveResidues>
 VAL166  LYS551  ARG553  GLY616  TRP617  ASP618  TYR619  PRO620  LYS621  CYS622 
 ASP623  PHE694  ASN695  SER759  ASP760  ASP761  ALA762  ILE779  LEU786  VAL792 
 PHE793  MET794  SER795  GLU796  ALA797  LYS798  CYS799  TRP800  GLU811  SER814 

> <Gold.Protein.RotatedAtoms>
  151.5566  135.1066  159.9962 H   0  0  0  0  0  0  0  0  0  0  0  0  # atno 6907 bound_to 6896
  152.4466  133.7544  159.6723 H   0  0  0  0  0  0  0  0  0  0  0  0  # atno 6908 bound_to 6896
  150.8383  133.7909  159.3094 H   0  0  0  0  0  0  0  0  0  0  0  0  # atno 6909 bound_to 6896
  146.2402  139.9768  142.8440 H   0  0  0  0  0  0  0  0  0  0  0  0  # atno 7974 bound_to 7965
  155.4432  140.0533  157.3008 H   0  0  0  0  0  0  0  0  0  0  0  0  # atno 8008 bound_to 7997
  154.4809  140.2081  155.9723 H   0  0  0  0  0  0  0  0  0  0  0  0  # atno 8009 bound_to 7997
  156.1204  140.3189  155.8205 H   0  0  0  0  0  0  0  0  0  0  0  0  # atno 8010 bound_to 7997
  139.6330  144.0403  152.2032 H   0  0  0  0  0  0  0  0  0  0  0  0  # atno 10167 bound_to 10162
  156.8862  130.9832  151.3055 H   0  0  0  0  0  0  0  0  0  0  0  0  # atno 10718 bound_to 10713
  153.5632  135.3516  155.2808 H   0  0  0  0  0  0  0  0  0  0  0  0  # atno 10763 bound_to 10752
  154.8692  135.4141  154.2807 H   0  0  0  0  0  0  0  0  0  0  0  0  # atno 10764 bound_to 10752
  153.3557  135.7057  153.6821 H   0  0  0  0  0  0  0  0  0  0  0  0  # atno 10765 bound_to 10752
  141.0190  133.6871  156.2351 H   0  0  0  0  0  0  0  0  0  0  0  0  # atno 11005 bound_to 11000
  145.1629  140.9682  143.4366 LP  0  0  0  0  0  0  0  0  0  0  0  0  # atno 17320 bound_to 7965
  145.0099  139.3519  143.6125 LP  0  0  0  0  0  0  0  0  0  0  0  0  # atno 17321 bound_to 7965
  140.0073  144.6250  150.7678 LP  0  0  0  0  0  0  0  0  0  0  0  0  # atno 17342 bound_to 10162
  140.7450  143.2869  151.3439 LP  0  0  0  0  0  0  0  0  0  0  0  0  # atno 17343 bound_to 10162
  157.6111  130.8583  149.8953 LP  0  0  0  0  0  0  0  0  0  0  0  0  # atno 17370 bound_to 10713
  156.0652  130.3693  150.0894 LP  0  0  0  0  0  0  0  0  0  0  0  0  # atno 17371 bound_to 10713
  140.6605  134.4973  157.5583 LP  0  0  0  0  0  0  0  0  0  0  0  0  # atno 17394 bound_to 11000
  139.9134  134.8296  156.1447 LP  0  0  0  0  0  0  0  0  0  0  0  0  # atno 17395 bound_to 11000

$$$$
