AV-unprocessed.smi:1145|AV-procd|sdf|4884|dock10
  -GOLD-   22720 3453D 1   1.00000     0.00000
 Structure written by MMmdl.
 36 37  0  0  0  0  0  0  0  0  1 V2000
  144.2353  135.1738  152.9164 C   0  0  0  0  0  0  0  0  0  0  0  0
  144.8687  136.2211  151.9906 C   0  0  2  0  0  0  0  0  0  0  0  0
  145.3922  135.5775  150.6887 C   0  0  0  0  0  0  0  0  0  0  0  0
  145.3044  134.1273  150.7070 N   0  0  0  0  0  0  0  0  0  0  0  0
  144.1871  133.3354  150.5450 C   0  0  0  0  0  0  0  0  0  0  0  0
  144.5970  132.0351  150.6183 C   0  0  0  0  0  0  0  0  0  0  0  0
  146.0003  132.1345  150.8321 C   0  0  0  0  0  0  0  0  0  0  0  0
  146.4201  133.3878  150.8900 N   0  0  0  0  0  0  0  0  0  0  0  0
  145.9509  136.8966  152.7051 N   0  0  0  0  0  0  0  0  0  0  0  0
  145.8034  137.7199  153.7557 C   0  0  0  0  0  0  0  0  0  0  0  0
  144.7159  137.9577  154.2828 O   0  0  0  0  0  0  0  0  0  0  0  0
  147.0783  138.4004  154.2705 C   0  0  1  0  0  0  0  0  0  0  0  0
  148.1043  137.3516  154.7294 C   0  0  0  0  0  0  0  0  0  0  0  0
  149.3612  138.0221  155.3062 C   0  0  0  0  0  0  0  0  0  0  0  0
  149.8872  139.1801  154.4446 C   0  0  0  0  0  0  0  0  0  0  0  0
  151.0342  139.5873  154.6149 O   0  0  0  0  0  0  0  0  0  0  0  0
  149.0661  139.7494  153.5444 N   0  0  0  0  0  0  0  0  0  0  0  0
  147.7181  139.3016  153.1929 C   0  0  0  0  0  0  0  0  0  0  0  0
  143.4092  134.6623  152.4216 H   0  0  0  0  0  0  0  0  0  0  0  0
  143.8397  135.6367  153.8210 H   0  0  0  0  0  0  0  0  0  0  0  0
  144.9614  134.4177  153.2176 H   0  0  0  0  0  0  0  0  0  0  0  0
  144.0869  136.9385  151.7343 H   0  0  0  0  0  0  0  0  0  0  0  0
  144.8459  135.9598  149.8246 H   0  0  0  0  0  0  0  0  0  0  0  0
  146.4388  135.8434  150.5356 H   0  0  0  0  0  0  0  0  0  0  0  0
  143.2063  133.7587  150.3855 H   0  0  0  0  0  0  0  0  0  0  0  0
  143.9877  131.1480  150.5294 H   0  0  0  0  0  0  0  0  0  0  0  0
  146.7214  131.3386  150.9467 H   0  0  0  0  0  0  0  0  0  0  0  0
  146.8830  136.7657  152.3398 H   0  0  0  0  0  0  0  0  0  0  0  0
  146.8193  139.0226  155.1297 H   0  0  0  0  0  0  0  0  0  0  0  0
  147.6650  136.6964  155.4833 H   0  0  0  0  0  0  0  0  0  0  0  0
  148.3879  136.7097  153.8934 H   0  0  0  0  0  0  0  0  0  0  0  0
  149.1371  138.4233  156.2952 H   0  0  0  0  0  0  0  0  0  0  0  0
  150.1499  137.2813  155.4419 H   0  0  0  0  0  0  0  0  0  0  0  0
  149.4310  140.5289  153.0159 H   0  0  0  0  0  0  0  0  0  0  0  0
  147.7904  138.7759  152.2394 H   0  0  0  0  0  0  0  0  0  0  0  0
  147.0947  140.1793  153.0190 H   0  0  0  0  0  0  0  0  0  0  0  0
  1  2  1  0  0  0  0
  1 19  1  0  0  0  0
  1 20  1  0  0  0  0
  1 21  1  0  0  0  0
  2  3  1  0  0  0  0
  2  9  1  0  0  0  0
  2 22  1  0  0  0  0
  3  4  1  0  0  0  0
  3 23  1  0  0  0  0
  3 24  1  0  0  0  0
  4  8  1  0  0  0  0
  4  5  1  0  0  0  0
  5  6  2  0  0  0  0
  5 25  1  0  0  0  0
  6  7  1  0  0  0  0
  6 26  1  0  0  0  0
  7  8  2  0  0  0  0
  7 27  1  0  0  0  0
  9 10  1  0  0  0  0
  9 28  1  0  0  0  0
 10 11  2  0  0  0  0
 10 12  1  0  0  0  0
 12 18  1  0  0  0  0
 12 13  1  0  0  0  0
 12 29  1  0  0  0  0
 13 14  1  0  0  0  0
 13 30  1  0  0  0  0
 13 31  1  0  0  0  0
 14 15  1  0  0  0  0
 14 32  1  0  0  0  0
 14 33  1  0  0  0  0
 15 16  2  0  0  0  0
 15 17  1  0  0  0  0
 17 18  1  0  0  0  0
 17 34  1  0  0  0  0
 18 35  1  0  0  0  0
 18 36  1  0  0  0  0
M  END
> <s_m_source_file>
AV-unprocessed.smi

> <i_m_source_file_index>
1145

> <i_lp_mmshare_version>
43012

> <i_f3d_flags>
0

> <s_epik_input>
bjFbY0hdW2NIXVtjSF1uMVtDSDJdW0NAQEhdKFtDSDNdKVtOSF1DKD1PKVtDQEBIXTJbQ0gyXVtDSDJdQyg9TylbTkhdW0NIMl0y

> <s_epik_cmdline>
J2VwaWtfcHl0aG9uJywgJy1waCcsICc3LjAnLCAnLXRuJywgJzgnLCAnLW1hJywgJzIwMCcsICctbWV0YWxfYmluZGluZycsICctaW1hZScsICc8aW5maWxlLm1hZT4nLCAnLW9tYWUnLCAnPG91dGZpbGUubWFlPic=

> <r_lp_tautomer_probability>
1

> <r_epik_Ionization_Penalty>
0.000314064

> <r_epik_Ionization_Penalty_Charging>
0

> <r_epik_Ionization_Penalty_Neutral>
0.000314064

> <r_epik_State_Penalty>
-0

> <r_epik_Charging_Adjusted_Penalty>
0

> <i_epik_Tot_Q>
0

> <i_epik_Tot_abs_Q>
0

> <r_epik_Metal_State_Penalty>
-0

> <b_epik_Metal_Only>
0

> <s_lp_Force_Field>
OPLS_2005

> <r_lp_Energy>
12.228

> <b_lp_Chiralities_Consistent>
1

> <s_lp_Variant>
AV-unprocessed.smi:1145-3

> <Gold.Version>
5.8.1

> <Gold.Id.Protein>
6NUR|6NUR_protein|mol2

> <Gold.PLP.Fitness>
35.8550

> <Gold.PLP.PLP>
-26.3987

> <Gold.PLP.part.hbond>
-2.0369

> <Gold.PLP.part.metal>
0.0000

> <Gold.PLP.part.buried>
-3.8279

> <Gold.PLP.part.nonpolar>
-21.1022

> <Gold.PLP.part.repulsive>
0.5678

> <Gold.PLP.ligand.clash>
0.0000

> <Gold.PLP.ligand.torsion>
1.0190

> <Gold.PLP.Chemscore.Hbond>
1.8250

> <Gold.PLP.Chemscore.CHOScore>
2.0000

> <Gold.PLP.Chemscore.Metal>
0.0000

> <Gold.Chemscore.Hbonds>
donor molecule, donor type, donor heavy atom, donor atom, acceptor molecule, acceptor atom, score
      L1  H     9    28       P1  7948  0.63
      L1  H    17    34       P1  7957  0.21
      P1  H  7989  7998       L1    16  1.00
      L1  C     5    25       P1 10186  1.00
      L1  C     7    27       P1 10747  1.00

> <Gold.PLP.Chemscore.Internal.Correction>
0.0193

> <Gold.Rescore>
     Score         DG    S(hbond)    S(metal)    S(lipo)     H(rot)  DE(clash)    DE(int)     intcor
     13.00     -14.72       2.17        0.00      56.29       1.80       0.49       1.23       ----

> <Gold.Chemscore.Fitness>
13.0029

> <Gold.Chemscore.DG>
-14.7218

> <Gold.Chemscore.ZeroCoef>
-5.4800

> <Gold.Chemscore.Hbond>
2.1736

> <Gold.Chemscore.Metal>
0.0000

> <Gold.Chemscore.Lipo>
56.2870

> <Gold.Chemscore.Internal_Hbond>
0.0000

> <Gold.Chemscore.DEClash>
0.4935

> <Gold.Chemscore.DEInternal>
1.2254

> <Gold.Chemscore.Rot>
1.7982

> <Gold.Chemscore.Internal.Correction>
   9.000000E+99

> <Gold.Chemscore.Hbonds>
donor molecule, donor type, donor heavy atom, donor atom, acceptor molecule, acceptor atom, score
      L1  H     9    28       P1  7948  0.63
      L1  H    17    34       P1  7957  0.22
      P1  H  7989  7998       L1    16  0.94

> <Gold.Chemscore.Hbond.Weighted>
-7.2597

> <Gold.Chemscore.Metal.Weighted>
-0.0000

> <Gold.Chemscore.Lipo.Weighted>
-6.5856

> <Gold.Chemscore.Internal_Hbond.Weighted>
0.0000

> <Gold.Chemscore.DEClash.Weighted>
0.4935

> <Gold.Chemscore.DEInternal.Weighted>
1.2254

> <Gold.Chemscore.Rot.Weighted>
4.6035

> <Gold.Chemscore.Internal.Correction.Weighted>
   9.000000E+99

> <Gold.Protein.RotatedTorsions>
[ 6907 6896 6895 6894 ] final  -57.24 input  -60.11 | X-H torsion
[ 7974 7965 7964 7962 ] final -105.66 input  175.53 | X-H torsion
[ 8008 7997 7996 7995 ] final  -39.93 input   59.86 | X-H torsion
[ 10167 10162 10161 10158 ] final  -88.10 input  -65.29 | X-H torsion
[ 10718 10713 10712 10709 ] final  133.93 input   66.30 | X-H torsion
[ 10763 10752 10751 10750 ] final  -20.81 input  -60.55 | X-H torsion
[ 11005 11000 10999 10996 ] final  177.92 input  -57.11 | X-H torsion

> <Gold.Protein.ActiveResidues>
 VAL166  LYS551  ARG553  GLY616  TRP617  ASP618  TYR619  PRO620  LYS621  CYS622 
 ASP623  PHE694  ASN695  SER759  ASP760  ASP761  ALA762  ILE779  LEU786  VAL792 
 PHE793  MET794  SER795  GLU796  ALA797  LYS798  CYS799  TRP800  GLU811  SER814 

> <Gold.Protein.RotatedAtoms>
  150.8102  134.7252  159.6680 H   0  0  0  0  0  0  0  0  0  0  0  0  # atno 6907 bound_to 6896
  152.4222  134.5932  159.9989 H   0  0  0  0  0  0  0  0  0  0  0  0  # atno 6908 bound_to 6896
  151.6144  133.3307  159.3110 H   0  0  0  0  0  0  0  0  0  0  0  0  # atno 6909 bound_to 6896
  145.2276  140.9158  143.3223 H   0  0  0  0  0  0  0  0  0  0  0  0  # atno 7974 bound_to 7965
  154.4017  140.1539  156.2944 H   0  0  0  0  0  0  0  0  0  0  0  0  # atno 8008 bound_to 7997
  155.8757  140.3446  155.5830 H   0  0  0  0  0  0  0  0  0  0  0  0  # atno 8009 bound_to 7997
  155.7724  140.0832  157.2091 H   0  0  0  0  0  0  0  0  0  0  0  0  # atno 8010 bound_to 7997
  140.3780  143.2762  151.9419 H   0  0  0  0  0  0  0  0  0  0  0  0  # atno 10167 bound_to 10162
  157.4723  131.1081  150.9787 H   0  0  0  0  0  0  0  0  0  0  0  0  # atno 10718 bound_to 10713
  153.6262  135.6991  153.5292 H   0  0  0  0  0  0  0  0  0  0  0  0  # atno 10763 bound_to 10752
  153.2897  135.4161  155.1154 H   0  0  0  0  0  0  0  0  0  0  0  0  # atno 10764 bound_to 10752
  154.8532  135.3622  154.5804 H   0  0  0  0  0  0  0  0  0  0  0  0  # atno 10765 bound_to 10752
  140.3894  134.6876  157.4498 H   0  0  0  0  0  0  0  0  0  0  0  0  # atno 11005 bound_to 11000
  144.9707  139.3883  143.6310 LP  0  0  0  0  0  0  0  0  0  0  0  0  # atno 17320 bound_to 7965
  146.3361  139.8803  142.8825 LP  0  0  0  0  0  0  0  0  0  0  0  0  # atno 17321 bound_to 7965
  139.4798  144.5845  151.7876 LP  0  0  0  0  0  0  0  0  0  0  0  0  # atno 17342 bound_to 10162
  140.4966  144.1231  150.5961 LP  0  0  0  0  0  0  0  0  0  0  0  0  # atno 17343 bound_to 10162
  157.0548  130.5801  149.5376 LP  0  0  0  0  0  0  0  0  0  0  0  0  # atno 17370 bound_to 10713
  156.0079  130.5168  150.7893 LP  0  0  0  0  0  0  0  0  0  0  0  0  # atno 17371 bound_to 10713
  140.0418  134.6256  155.8971 LP  0  0  0  0  0  0  0  0  0  0  0  0  # atno 17394 bound_to 11000
  141.1896  133.6566  156.5375 LP  0  0  0  0  0  0  0  0  0  0  0  0  # atno 17395 bound_to 11000

$$$$
