AV-unprocessed.smi:1425|AV-procd|sdf|5804|dock8
  -GOLD-   22720 5453D 1   1.00000     0.00000
 Structure written by MMmdl.
 36 37  0  0  0  0  0  0  0  0  1 V2000
  147.6744  132.9946  152.5502 C   0  0  0  0  0  0  0  0  0  0  0  0
  146.4045  133.0263  151.7152 C   0  0  0  0  0  0  0  0  0  0  0  0
  145.8304  131.8109  151.2856 C   0  0  0  0  0  0  0  0  0  0  0  0
  144.6569  131.8418  150.5132 C   0  0  0  0  0  0  0  0  0  0  0  0
  144.1035  133.0953  150.2009 C   0  0  0  0  0  0  0  0  0  0  0  0
  144.6453  134.2617  150.6073 N   0  0  0  0  0  0  0  0  0  0  0  0
  145.7784  134.2494  151.3538 C   0  0  0  0  0  0  0  0  0  0  0  0
  146.4103  135.4394  151.8128 N   0  0  0  0  0  0  0  0  0  0  0  0
  145.8413  136.5914  152.2096 C   0  0  0  0  0  0  0  0  0  0  0  0
  144.6303  136.8040  152.2754 O   0  0  0  0  0  0  0  0  0  0  0  0
  146.7717  137.5001  152.5373 N   0  0  0  0  0  0  0  0  0  0  0  0
  146.5063  138.8585  153.0018 C   0  0  0  0  0  0  0  0  0  0  0  0
  147.8039  139.6044  153.3664 C   0  0  1  0  0  0  0  0  0  0  0  0
  147.5381  141.0573  153.8064 C   0  0  0  0  0  0  0  0  0  0  0  0
  148.8297  141.6368  154.3916 C   0  0  0  0  0  0  0  0  0  0  0  0
  149.6633  140.2358  155.2254 S   0  0  0  0  0  0  0  0  0  0  0  0
  151.0386  140.1261  154.7158 O   0  0  0  0  0  0  0  0  0  0  0  0
  149.3934  140.2941  156.6700 O   0  0  0  0  0  0  0  0  0  0  0  0
  148.6230  138.9243  154.4777 C   0  0  0  0  0  0  0  0  0  0  0  0
  148.0051  131.9717  152.7318 H   0  0  0  0  0  0  0  0  0  0  0  0
  147.5074  133.4692  153.5177 H   0  0  0  0  0  0  0  0  0  0  0  0
  148.4807  133.5215  152.0392 H   0  0  0  0  0  0  0  0  0  0  0  0
  146.2823  130.8640  151.5427 H   0  0  0  0  0  0  0  0  0  0  0  0
  144.1937  130.9291  150.1690 H   0  0  0  0  0  0  0  0  0  0  0  0
  143.2029  133.1642  149.6090 H   0  0  0  0  0  0  0  0  0  0  0  0
  147.4188  135.4125  151.8267 H   0  0  0  0  0  0  0  0  0  0  0  0
  147.7418  137.2338  152.4537 H   0  0  0  0  0  0  0  0  0  0  0  0
  145.9969  139.3865  152.1952 H   0  0  0  0  0  0  0  0  0  0  0  0
  145.8141  138.8576  153.8457 H   0  0  0  0  0  0  0  0  0  0  0  0
  148.4346  139.6506  152.4774 H   0  0  0  0  0  0  0  0  0  0  0  0
  147.1668  141.6679  152.9829 H   0  0  0  0  0  0  0  0  0  0  0  0
  146.7683  141.0629  154.5791 H   0  0  0  0  0  0  0  0  0  0  0  0
  149.4865  141.9973  153.5995 H   0  0  0  0  0  0  0  0  0  0  0  0
  148.6544  142.4482  155.0979 H   0  0  0  0  0  0  0  0  0  0  0  0
  147.9722  138.5322  155.2600 H   0  0  0  0  0  0  0  0  0  0  0  0
  149.2495  138.1112  154.1107 H   0  0  0  0  0  0  0  0  0  0  0  0
  1  2  1  0  0  0  0
  1 20  1  0  0  0  0
  1 21  1  0  0  0  0
  1 22  1  0  0  0  0
  2  7  1  0  0  0  0
  2  3  2  0  0  0  0
  3  4  1  0  0  0  0
  3 23  1  0  0  0  0
  4  5  2  0  0  0  0
  4 24  1  0  0  0  0
  5  6  1  0  0  0  0
  5 25  1  0  0  0  0
  6  7  2  0  0  0  0
  7  8  1  0  0  0  0
  8  9  1  0  0  0  0
  8 26  1  0  0  0  0
  9 10  2  0  0  0  0
  9 11  1  0  0  0  0
 11 12  1  0  0  0  0
 11 27  1  0  0  0  0
 12 13  1  0  0  0  0
 12 28  1  0  0  0  0
 12 29  1  0  0  0  0
 13 19  1  0  0  0  0
 13 14  1  0  0  0  0
 13 30  1  0  0  0  0
 14 15  1  0  0  0  0
 14 31  1  0  0  0  0
 14 32  1  0  0  0  0
 15 16  1  0  0  0  0
 15 33  1  0  0  0  0
 15 34  1  0  0  0  0
 16 17  2  0  0  0  0
 16 18  2  0  0  0  0
 16 19  1  0  0  0  0
 19 35  1  0  0  0  0
 19 36  1  0  0  0  0
M  END
> <s_m_source_file>
AV-unprocessed.smi

> <i_m_source_file_index>
1425

> <i_lp_mmshare_version>
43012

> <i_f3d_flags>
0

> <s_epik_input>
W0NIM11jMVtjSF1bY0hdW2NIXW5jMVtOSF1DKD1PKVtOSF1bQ0gyXVtDQEBIXShbQ0gyXTIpW0NIMl1bQ0gyXVMyKD1PKT1P

> <s_epik_cmdline>
J2VwaWtfcHl0aG9uJywgJy1waCcsICc3LjAnLCAnLXRuJywgJzgnLCAnLW1hJywgJzIwMCcsICctbWV0YWxfYmluZGluZycsICctaW1hZScsICc8aW5maWxlLm1hZT4nLCAnLW9tYWUnLCAnPG91dGZpbGUubWFlPic=

> <r_lp_tautomer_probability>
1

> <r_epik_Ionization_Penalty>
5.46275e-05

> <r_epik_Ionization_Penalty_Charging>
0

> <r_epik_Ionization_Penalty_Neutral>
5.46275e-05

> <r_epik_State_Penalty>
-0

> <r_epik_Charging_Adjusted_Penalty>
0

> <i_epik_Tot_Q>
0

> <i_epik_Tot_abs_Q>
0

> <r_epik_Metal_State_Penalty>
-0

> <b_epik_Metal_Only>
0

> <s_lp_Force_Field>
OPLS_2005

> <r_lp_Energy>
7.35863

> <b_lp_Chiralities_Consistent>
1

> <s_lp_Variant>
AV-unprocessed.smi:1425-2

> <Gold.Version>
5.8.1

> <Gold.Id.Protein>
6NUR|6NUR_protein|mol2

> <Gold.PLP.Fitness>
44.6165

> <Gold.PLP.PLP>
-33.1307

> <Gold.PLP.part.hbond>
-3.0000

> <Gold.PLP.part.metal>
0.0000

> <Gold.PLP.part.buried>
-3.1261

> <Gold.PLP.part.nonpolar>
-28.0861

> <Gold.PLP.part.repulsive>
0.5835

> <Gold.PLP.ligand.clash>
0.0000

> <Gold.PLP.ligand.torsion>
0.2583

> <Gold.PLP.Chemscore.Hbond>
3.0000

> <Gold.PLP.Chemscore.CHOScore>
1.0000

> <Gold.PLP.Chemscore.Metal>
0.0000

> <Gold.Chemscore.Hbonds>
donor molecule, donor type, donor heavy atom, donor atom, acceptor molecule, acceptor atom, score
      L1  H     8    26       P1  7948  1.00
      L1  H    11    27       P1  7948  1.00
      P1  H  7989  7998       L1    17  1.00
      L1  C     5    25       P1 10186  1.00

> <Gold.PLP.Chemscore.Internal.Correction>
0.0023

> <Gold.Rescore>
     Score         DG    S(hbond)    S(metal)    S(lipo)     H(rot)  DE(clash)    DE(int)     intcor
     19.24     -20.77       2.93        0.00      75.43       1.29       0.38       1.15       ----

> <Gold.Chemscore.Fitness>
19.2358

> <Gold.Chemscore.DG>
-20.7705

> <Gold.Chemscore.ZeroCoef>
-5.4800

> <Gold.Chemscore.Hbond>
2.9273

> <Gold.Chemscore.Metal>
0.0000

> <Gold.Chemscore.Lipo>
75.4333

> <Gold.Chemscore.Internal_Hbond>
0.0000

> <Gold.Chemscore.DEClash>
0.3817

> <Gold.Chemscore.DEInternal>
1.1529

> <Gold.Chemscore.Rot>
1.2939

> <Gold.Chemscore.Internal.Correction>
   9.000000E+99

> <Gold.Chemscore.Hbonds>
donor molecule, donor type, donor heavy atom, donor atom, acceptor molecule, acceptor atom, score
      L1  H     8    26       P1  7948  0.94
      L1  H    11    27       P1  7948  0.95
      P1  H  7989  7998       L1    17  0.94

> <Gold.Chemscore.Hbond.Weighted>
-9.7771

> <Gold.Chemscore.Metal.Weighted>
-0.0000

> <Gold.Chemscore.Lipo.Weighted>
-8.8257

> <Gold.Chemscore.Internal_Hbond.Weighted>
0.0000

> <Gold.Chemscore.DEClash.Weighted>
0.3817

> <Gold.Chemscore.DEInternal.Weighted>
1.1529

> <Gold.Chemscore.Rot.Weighted>
3.3123

> <Gold.Chemscore.Internal.Correction.Weighted>
   9.000000E+99

> <Gold.Protein.RotatedTorsions>
[ 6907 6896 6895 6894 ] final -107.40 input  -60.11 | X-H torsion
[ 7974 7965 7964 7962 ] final  -15.94 input  175.53 | X-H torsion
[ 8008 7997 7996 7995 ] final  156.45 input   59.86 | X-H torsion
[ 10167 10162 10161 10158 ] final  -23.67 input  -65.29 | X-H torsion
[ 10718 10713 10712 10709 ] final -107.50 input   66.30 | X-H torsion
[ 10763 10752 10751 10750 ] final  170.32 input  -60.55 | X-H torsion
[ 11005 11000 10999 10996 ] final  132.10 input  -57.11 | X-H torsion

> <Gold.Protein.ActiveResidues>
 VAL166  LYS551  ARG553  GLY616  TRP617  ASP618  TYR619  PRO620  LYS621  CYS622 
 ASP623  PHE694  ASN695  SER759  ASP760  ASP761  ALA762  ILE779  LEU786  VAL792 
 PHE793  MET794  SER795  GLU796  ALA797  LYS798  CYS799  TRP800  GLU811  SER814 

> <Gold.Protein.RotatedAtoms>
  150.7442  133.9832  159.3582 H   0  0  0  0  0  0  0  0  0  0  0  0  # atno 6907 bound_to 6896
  151.7775  135.0768  160.0378 H   0  0  0  0  0  0  0  0  0  0  0  0  # atno 6908 bound_to 6896
  152.3297  133.5907  159.5837 H   0  0  0  0  0  0  0  0  0  0  0  0  # atno 6909 bound_to 6896
  146.2010  140.3565  142.8423 H   0  0  0  0  0  0  0  0  0  0  0  0  # atno 7974 bound_to 7965
  156.2421  140.1912  156.6957 H   0  0  0  0  0  0  0  0  0  0  0  0  # atno 8008 bound_to 7997
  154.6219  140.0607  156.9651 H   0  0  0  0  0  0  0  0  0  0  0  0  # atno 8009 bound_to 7997
  155.1849  140.3279  155.4371 H   0  0  0  0  0  0  0  0  0  0  0  0  # atno 8010 bound_to 7997
  140.7288  143.4422  151.0640 H   0  0  0  0  0  0  0  0  0  0  0  0  # atno 10167 bound_to 10162
  156.0440  130.5666  150.7831 H   0  0  0  0  0  0  0  0  0  0  0  0  # atno 10718 bound_to 10713
  154.3960  135.2754  155.2126 H   0  0  0  0  0  0  0  0  0  0  0  0  # atno 10763 bound_to 10752
  154.4172  135.6008  153.5991 H   0  0  0  0  0  0  0  0  0  0  0  0  # atno 10764 bound_to 10752
  152.9831  135.5964  154.4221 H   0  0  0  0  0  0  0  0  0  0  0  0  # atno 10765 bound_to 10752
  139.9770  134.9560  156.9534 H   0  0  0  0  0  0  0  0  0  0  0  0  # atno 11005 bound_to 11000
  144.8683  140.7236  143.6063 LP  0  0  0  0  0  0  0  0  0  0  0  0  # atno 17320 bound_to 7965
  145.3485  139.1712  143.4447 LP  0  0  0  0  0  0  0  0  0  0  0  0  # atno 17321 bound_to 7965
  139.8090  143.7977  152.3170 LP  0  0  0  0  0  0  0  0  0  0  0  0  # atno 17342 bound_to 10162
  139.8020  144.7370  150.9812 LP  0  0  0  0  0  0  0  0  0  0  0  0  # atno 17343 bound_to 10162
  157.5293  131.0936  150.9977 LP  0  0  0  0  0  0  0  0  0  0  0  0  # atno 17370 bound_to 10713
  157.0287  130.5703  149.5340 LP  0  0  0  0  0  0  0  0  0  0  0  0  # atno 17371 bound_to 10713
  140.5174  134.0941  155.7284 LP  0  0  0  0  0  0  0  0  0  0  0  0  # atno 17394 bound_to 11000
  141.1446  133.9078  157.2246 LP  0  0  0  0  0  0  0  0  0  0  0  0  # atno 17395 bound_to 11000

$$$$
