AV-unprocessed.smi:318|AV-procd|sdf|2330|dock6
  -GOLD-   2262022233D 1   1.00000     0.00000
 Structure written by MMmdl.
 38 39  0  0  0  0  0  0  0  0  1 V2000
  152.5467  140.1542  157.3424 O   0  0  0  0  0  0  0  0  0  0  0  0
  151.5965  140.7406  156.8219 C   0  0  0  0  0  0  0  0  0  0  0  0
  150.6737  140.0253  155.8239 C   0  0  0  0  0  0  0  0  0  0  0  0
  149.3854  140.7089  155.6152 N   0  0  0  0  0  0  0  0  0  0  0  0
  149.0946  141.1290  154.3048 C   0  0  0  0  0  0  0  0  0  0  0  0
  147.9518  141.7597  154.0034 C   0  0  0  0  0  0  0  0  0  0  0  0
  147.0071  142.0043  155.0658 C   0  0  0  0  0  0  0  0  0  0  0  0
  147.2610  141.6171  156.3373 C   0  0  0  0  0  0  0  0  0  0  0  0
  146.2709  141.8662  157.4728 C   0  0  0  0  0  0  0  0  0  0  0  0
  145.8603  140.7120  157.9999 F   0  0  0  0  0  0  0  0  0  0  0  0
  146.8396  142.5870  158.4401 F   0  0  0  0  0  0  0  0  0  0  0  0
  145.1915  142.5278  157.0524 F   0  0  0  0  0  0  0  0  0  0  0  0
  148.5261  140.9252  156.6591 C   0  0  0  0  0  0  0  0  0  0  0  0
  148.8046  140.5580  157.8019 O   0  0  0  0  0  0  0  0  0  0  0  0
  151.2862  142.0183  157.0888 N   0  0  0  0  0  0  0  0  0  0  0  0
  152.0143  142.8933  158.0030 C   0  0  0  0  0  0  0  0  0  0  0  0
  151.9920  142.3252  159.4380 C   0  0  0  0  0  0  0  0  0  0  0  0
  152.6815  143.2749  160.4309 C   0  0  0  0  0  0  0  0  0  0  0  0
  152.0583  144.6786  160.3850 C   0  0  0  0  0  0  0  0  0  0  0  0
  152.0873  145.2507  158.9592 C   0  0  0  0  0  0  0  0  0  0  0  0
  151.3964  144.3041  157.9645 C   0  0  0  0  0  0  0  0  0  0  0  0
  151.2092  139.9261  154.8785 H   0  0  0  0  0  0  0  0  0  0  0  0
  150.5064  139.0012  156.1629 H   0  0  0  0  0  0  0  0  0  0  0  0
  149.8570  140.9137  153.5702 H   0  0  0  0  0  0  0  0  0  0  0  0
  147.7446  142.0798  152.9928 H   0  0  0  0  0  0  0  0  0  0  0  0
  146.0837  142.5087  154.8240 H   0  0  0  0  0  0  0  0  0  0  0  0
  150.4861  142.4177  156.6199 H   0  0  0  0  0  0  0  0  0  0  0  0
  153.0511  142.9687  157.6690 H   0  0  0  0  0  0  0  0  0  0  0  0
  150.9609  142.1599  159.7540 H   0  0  0  0  0  0  0  0  0  0  0  0
  152.4830  141.3517  159.4672 H   0  0  0  0  0  0  0  0  0  0  0  0
  152.6123  142.8707  161.4411 H   0  0  0  0  0  0  0  0  0  0  0  0
  153.7446  143.3389  160.1961 H   0  0  0  0  0  0  0  0  0  0  0  0
  151.0281  144.6334  160.7405 H   0  0  0  0  0  0  0  0  0  0  0  0
  152.5910  145.3448  161.0641 H   0  0  0  0  0  0  0  0  0  0  0  0
  151.6022  146.2270  158.9406 H   0  0  0  0  0  0  0  0  0  0  0  0
  153.1211  145.4126  158.6513 H   0  0  0  0  0  0  0  0  0  0  0  0
  151.4681  144.7159  156.9569 H   0  0  0  0  0  0  0  0  0  0  0  0
  150.3328  144.2486  158.2009 H   0  0  0  0  0  0  0  0  0  0  0  0
  1  2  2  0  0  0  0
  2  3  1  0  0  0  0
  2 15  1  0  0  0  0
  3  4  1  0  0  0  0
  3 22  1  0  0  0  0
  3 23  1  0  0  0  0
  4 13  1  0  0  0  0
  4  5  1  0  0  0  0
  5  6  2  0  0  0  0
  5 24  1  0  0  0  0
  6  7  1  0  0  0  0
  6 25  1  0  0  0  0
  7  8  2  0  0  0  0
  7 26  1  0  0  0  0
  8  9  1  0  0  0  0
  8 13  1  0  0  0  0
  9 10  1  0  0  0  0
  9 11  1  0  0  0  0
  9 12  1  0  0  0  0
 13 14  2  0  0  0  0
 15 16  1  0  0  0  0
 15 27  1  0  0  0  0
 16 21  1  0  0  0  0
 16 17  1  0  0  0  0
 16 28  1  0  0  0  0
 17 18  1  0  0  0  0
 17 29  1  0  0  0  0
 17 30  1  0  0  0  0
 18 19  1  0  0  0  0
 18 31  1  0  0  0  0
 18 32  1  0  0  0  0
 19 20  1  0  0  0  0
 19 33  1  0  0  0  0
 19 34  1  0  0  0  0
 20 21  1  0  0  0  0
 20 35  1  0  0  0  0
 20 36  1  0  0  0  0
 21 37  1  0  0  0  0
 21 38  1  0  0  0  0
M  END
> <s_m_source_file>
AV-unprocessed.smi

> <i_m_source_file_index>
318

> <i_lp_mmshare_version>
43012

> <i_f3d_flags>
0

> <s_epik_input>
W0NIMl0xW0NIMl1bQ0gyXVtDSDJdW0NIMl1bQ0hdMVtOSF1DKD1PKVtDSDJdbjJbY0hdW2NIXVtjSF1jKEMoRikoRilGKWMyPU8=

> <s_epik_cmdline>
J2VwaWtfcHl0aG9uJywgJy1waCcsICc3LjAnLCAnLXRuJywgJzgnLCAnLW1hJywgJzIwMCcsICctbWV0YWxfYmluZGluZycsICctaW1hZScsICc8aW5maWxlLm1hZT4nLCAnLW9tYWUnLCAnPG91dGZpbGUubWFlPic=

> <r_lp_tautomer_probability>
1

> <r_epik_Ionization_Penalty>
2.11101e-08

> <r_epik_Ionization_Penalty_Charging>
2.0632e-09

> <r_epik_Ionization_Penalty_Neutral>
1.90469e-08

> <r_epik_State_Penalty>
-0

> <r_epik_Charging_Adjusted_Penalty>
2.0632e-09

> <i_epik_Tot_Q>
0

> <i_epik_Tot_abs_Q>
0

> <r_epik_Metal_State_Penalty>
-0

> <b_epik_Metal_Only>
0

> <s_lp_Force_Field>
OPLS_2005

> <r_lp_Energy>
18.6605

> <b_lp_Chiralities_Consistent>
1

> <s_lp_Variant>
AV-unprocessed.smi:318-1

> <Gold.Version>
5.8.1

> <Gold.Id.Protein>
6NUR|6NUR_protein|mol2

> <Gold.PLP.Fitness>
46.6579

> <Gold.PLP.PLP>
-41.4282

> <Gold.PLP.part.hbond>
-1.0000

> <Gold.PLP.part.metal>
0.0000

> <Gold.PLP.part.buried>
-5.2151

> <Gold.PLP.part.nonpolar>
-35.4800

> <Gold.PLP.part.repulsive>
0.0845

> <Gold.PLP.ligand.clash>
0.3139

> <Gold.PLP.ligand.torsion>
0.2483

> <Gold.PLP.Chemscore.Hbond>
1.0000

> <Gold.PLP.Chemscore.CHOScore>
0.9075

> <Gold.PLP.Chemscore.Metal>
0.0000

> <Gold.Chemscore.Hbonds>
donor molecule, donor type, donor heavy atom, donor atom, acceptor molecule, acceptor atom, score
      P1  H  7997  8009       L1     1  1.00
      L1  C     5    24       P1  7957  0.90

> <Gold.PLP.Chemscore.Internal.Correction>
0.3178

> <Gold.Rescore>
     Score         DG    S(hbond)    S(metal)    S(lipo)     H(rot)  DE(clash)    DE(int)     intcor
     13.35     -16.46       0.99        0.00      99.15       1.54       0.29       2.81       ----

> <Gold.Chemscore.Fitness>
13.3503

> <Gold.Chemscore.DG>
-16.4562

> <Gold.Chemscore.ZeroCoef>
-5.4800

> <Gold.Chemscore.Hbond>
0.9923

> <Gold.Chemscore.Metal>
0.0000

> <Gold.Chemscore.Lipo>
99.1459

> <Gold.Chemscore.Internal_Hbond>
0.0000

> <Gold.Chemscore.DEClash>
0.2946

> <Gold.Chemscore.DEInternal>
2.8114

> <Gold.Chemscore.Rot>
1.5383

> <Gold.Chemscore.Internal.Correction>
   9.000000E+99

> <Gold.Chemscore.Hbonds>
donor molecule, donor type, donor heavy atom, donor atom, acceptor molecule, acceptor atom, score
      P1  H  7997  8009       L1     1  0.96

> <Gold.Chemscore.Hbond.Weighted>
-3.3142

> <Gold.Chemscore.Metal.Weighted>
-0.0000

> <Gold.Chemscore.Lipo.Weighted>
-11.6001

> <Gold.Chemscore.Internal_Hbond.Weighted>
0.0000

> <Gold.Chemscore.DEClash.Weighted>
0.2946

> <Gold.Chemscore.DEInternal.Weighted>
2.8114

> <Gold.Chemscore.Rot.Weighted>
3.9380

> <Gold.Chemscore.Internal.Correction.Weighted>
   9.000000E+99

> <Gold.Protein.RotatedTorsions>
[ 6907 6896 6895 6894 ] final   32.36 input  -60.11 | X-H torsion
[ 7974 7965 7964 7962 ] final  -80.86 input  175.53 | X-H torsion
[ 8008 7997 7996 7995 ] final  176.44 input   59.86 | X-H torsion
[ 10167 10162 10161 10158 ] final  144.84 input  -65.29 | X-H torsion
[ 10718 10713 10712 10709 ] final  168.82 input   66.30 | X-H torsion
[ 10763 10752 10751 10750 ] final  164.41 input  -60.55 | X-H torsion
[ 11005 11000 10999 10996 ] final  -26.37 input  -57.11 | X-H torsion

> <Gold.Protein.ActiveResidues>
 VAL166  LYS551  ARG553  GLY616  TRP617  ASP618  TYR619  PRO620  LYS621  CYS622 
 ASP623  PHE694  ASN695  SER759  ASP760  ASP761  ALA762  ILE779  LEU786  VAL792 
 PHE793  MET794  SER795  GLU796  ALA797  LYS798  CYS799  TRP800  GLU811  SER814 

> <Gold.Protein.RotatedAtoms>
  152.0734  134.9518  160.0574 H   0  0  0  0  0  0  0  0  0  0  0  0  # atno 6907 bound_to 6896
  152.0835  133.4160  159.4520 H   0  0  0  0  0  0  0  0  0  0  0  0  # atno 6908 bound_to 6896
  150.6836  134.2874  159.4696 H   0  0  0  0  0  0  0  0  0  0  0  0  # atno 6909 bound_to 6896
  145.5543  140.9492  143.1482 H   0  0  0  0  0  0  0  0  0  0  0  0  # atno 7974 bound_to 7965
  156.0765  140.1383  156.9765 H   0  0  0  0  0  0  0  0  0  0  0  0  # atno 8008 bound_to 7997
  154.4560  140.0961  156.6809 H   0  0  0  0  0  0  0  0  0  0  0  0  # atno 8009 bound_to 7997
  155.5145  140.3454  155.4397 H   0  0  0  0  0  0  0  0  0  0  0  0  # atno 8010 bound_to 7997
  139.4938  144.5944  151.6614 H   0  0  0  0  0  0  0  0  0  0  0  0  # atno 10167 bound_to 10162
  157.0316  131.0261  151.2742 H   0  0  0  0  0  0  0  0  0  0  0  0  # atno 10718 bound_to 10713
  154.3084  135.2758  155.2577 H   0  0  0  0  0  0  0  0  0  0  0  0  # atno 10763 bound_to 10752
  154.4983  135.5815  153.6515 H   0  0  0  0  0  0  0  0  0  0  0  0  # atno 10764 bound_to 10752
  152.9891  135.6151  154.3260 H   0  0  0  0  0  0  0  0  0  0  0  0  # atno 10765 bound_to 10752
  140.9023  133.7516  156.0560 H   0  0  0  0  0  0  0  0  0  0  0  0  # atno 11005 bound_to 11000
  144.7514  139.7185  143.7272 LP  0  0  0  0  0  0  0  0  0  0  0  0  # atno 17320 bound_to 7965
  146.1895  139.5127  142.9814 LP  0  0  0  0  0  0  0  0  0  0  0  0  # atno 17321 bound_to 7965
  140.5578  144.0318  150.6156 LP  0  0  0  0  0  0  0  0  0  0  0  0  # atno 17342 bound_to 10162
  140.3394  143.3029  152.0604 LP  0  0  0  0  0  0  0  0  0  0  0  0  # atno 17343 bound_to 10162
  157.5173  130.7976  149.7770 LP  0  0  0  0  0  0  0  0  0  0  0  0  # atno 17370 bound_to 10713
  156.0067  130.3852  150.2405 LP  0  0  0  0  0  0  0  0  0  0  0  0  # atno 17371 bound_to 10713
  140.8215  134.3284  157.5380 LP  0  0  0  0  0  0  0  0  0  0  0  0  # atno 17394 bound_to 11000
  139.8744  134.9312  156.3521 LP  0  0  0  0  0  0  0  0  0  0  0  0  # atno 17395 bound_to 11000

$$$$
