AV-unprocessed.smi:1655|AV-procd|sdf|6644|dock2
  -GOLD-   22720 7343D 1   1.00000     0.00000
 Structure written by MMmdl.
 34 35  0  0  0  0  0  0  0  0  1 V2000
  144.0138  143.1151  163.1499 C   0  0  0  0  0  0  0  0  0  0  0  0
  144.8580  143.4521  161.9688 C   0  0  0  0  0  0  0  0  0  0  0  0
  146.1758  143.7873  161.8321 C   0  0  0  0  0  0  0  0  0  0  0  0
  146.3132  143.9807  160.4315 C   0  0  0  0  0  0  0  0  0  0  0  0
  147.5603  144.3511  159.8666 N   0  0  0  0  0  0  0  0  0  0  0  0
  148.7363  144.4981  160.5006 C   0  0  0  0  0  0  0  0  0  0  0  0
  148.9177  144.3320  161.7072 O   0  0  0  0  0  0  0  0  0  0  0  0
  149.7084  144.8519  159.6473 N   0  0  0  0  0  0  0  0  0  0  0  0
  151.1007  145.0874  160.0129 C   0  0  0  0  0  0  0  0  0  0  0  0
  152.0494  144.8266  158.8309 C   0  0  0  0  0  0  0  0  0  0  0  0
  152.7916  143.4876  158.9525 C   0  0  2  0  0  0  0  0  0  0  0  0
  151.8819  142.2963  159.2445 C   0  0  0  0  0  0  0  0  0  0  0  0
  152.8115  141.2977  159.9166 C   0  0  0  0  0  0  0  0  0  0  0  0
  154.0308  142.1329  160.3199 C   0  0  0  0  0  0  0  0  0  0  0  0
  153.6592  143.4825  160.0747 O   0  0  0  0  0  0  0  0  0  0  0  0
  145.1819  143.7794  159.7730 N   0  0  0  0  0  0  0  0  0  0  0  0
  144.2439  143.4391  160.7547 O   0  0  0  0  0  0  0  0  0  0  0  0
  144.5526  143.2990  164.0796 H   0  0  0  0  0  0  0  0  0  0  0  0
  143.7227  142.0649  163.1296 H   0  0  0  0  0  0  0  0  0  0  0  0
  143.1059  143.7181  163.1608 H   0  0  0  0  0  0  0  0  0  0  0  0
  146.9180  143.8798  162.6110 H   0  0  0  0  0  0  0  0  0  0  0  0
  147.5581  144.5171  158.8712 H   0  0  0  0  0  0  0  0  0  0  0  0
  149.4689  144.9673  158.6734 H   0  0  0  0  0  0  0  0  0  0  0  0
  151.1915  146.1232  160.3405 H   0  0  0  0  0  0  0  0  0  0  0  0
  151.3740  144.4672  160.8686 H   0  0  0  0  0  0  0  0  0  0  0  0
  151.4909  144.8502  157.8940 H   0  0  0  0  0  0  0  0  0  0  0  0
  152.7804  145.6341  158.7739 H   0  0  0  0  0  0  0  0  0  0  0  0
  153.3753  143.2936  158.0506 H   0  0  0  0  0  0  0  0  0  0  0  0
  151.0947  142.5855  159.9422 H   0  0  0  0  0  0  0  0  0  0  0  0
  151.4070  141.8984  158.3474 H   0  0  0  0  0  0  0  0  0  0  0  0
  152.3316  140.8373  160.7807 H   0  0  0  0  0  0  0  0  0  0  0  0
  153.1037  140.5018  159.2309 H   0  0  0  0  0  0  0  0  0  0  0  0
  154.3118  141.9878  161.3631 H   0  0  0  0  0  0  0  0  0  0  0  0
  154.8904  141.8793  159.6979 H   0  0  0  0  0  0  0  0  0  0  0  0
  1  2  1  0  0  0  0
  1 18  1  0  0  0  0
  1 19  1  0  0  0  0
  1 20  1  0  0  0  0
  2 17  1  0  0  0  0
  2  3  2  0  0  0  0
  3  4  1  0  0  0  0
  3 21  1  0  0  0  0
  4  5  1  0  0  0  0
  4 16  2  0  0  0  0
  5  6  1  0  0  0  0
  5 22  1  0  0  0  0
  6  7  2  0  0  0  0
  6  8  1  0  0  0  0
  8  9  1  0  0  0  0
  8 23  1  0  0  0  0
  9 10  1  0  0  0  0
  9 24  1  0  0  0  0
  9 25  1  0  0  0  0
 10 11  1  0  0  0  0
 10 26  1  0  0  0  0
 10 27  1  0  0  0  0
 11 15  1  0  0  0  0
 11 12  1  0  0  0  0
 11 28  1  0  0  0  0
 12 13  1  0  0  0  0
 12 29  1  0  0  0  0
 12 30  1  0  0  0  0
 13 14  1  0  0  0  0
 13 31  1  0  0  0  0
 13 32  1  0  0  0  0
 14 15  1  0  0  0  0
 14 33  1  0  0  0  0
 14 34  1  0  0  0  0
 16 17  1  0  0  0  0
M  END
> <s_m_source_file>
AV-unprocessed.smi

> <i_m_source_file_index>
1655

> <i_lp_mmshare_version>
43012

> <i_f3d_flags>
0

> <s_epik_input>
W0NIM11jMVtjSF1jKG5vMSlbTkhdQyg9TylbTkhdW0NIMl1bQ0gyXVtDQEBIXTJbQ0gyXVtDSDJdW0NIMl1PMg==

> <s_epik_cmdline>
J2VwaWtfcHl0aG9uJywgJy1waCcsICc3LjAnLCAnLXRuJywgJzgnLCAnLW1hJywgJzIwMCcsICctbWV0YWxfYmluZGluZycsICctaW1hZScsICc8aW5maWxlLm1hZT4nLCAnLW9tYWUnLCAnPG91dGZpbGUubWFlPic=

> <r_lp_tautomer_probability>
1

> <r_epik_Ionization_Penalty>
2.23964e-05

> <r_epik_Ionization_Penalty_Charging>
0

> <r_epik_Ionization_Penalty_Neutral>
2.23964e-05

> <r_epik_State_Penalty>
-0

> <r_epik_Charging_Adjusted_Penalty>
0

> <i_epik_Tot_Q>
0

> <i_epik_Tot_abs_Q>
0

> <r_epik_Metal_State_Penalty>
-0

> <b_epik_Metal_Only>
0

> <s_lp_Force_Field>
OPLS_2005

> <r_lp_Energy>
15.5425

> <b_lp_Chiralities_Consistent>
1

> <s_lp_Variant>
AV-unprocessed.smi:1655-1

> <Gold.Version>
5.8.1

> <Gold.Id.Protein>
6NUR|6NUR_protein|mol2

> <Gold.PLP.Fitness>
45.7076

> <Gold.PLP.PLP>
-38.8616

> <Gold.PLP.part.hbond>
-3.0000

> <Gold.PLP.part.metal>
0.0000

> <Gold.PLP.part.buried>
-7.6288

> <Gold.PLP.part.nonpolar>
-30.2385

> <Gold.PLP.part.repulsive>
0.6976

> <Gold.PLP.ligand.clash>
0.0000

> <Gold.PLP.ligand.torsion>
0.5229

> <Gold.PLP.Chemscore.Hbond>
2.6257

> <Gold.PLP.Chemscore.CHOScore>
0.0000

> <Gold.PLP.Chemscore.Metal>
0.0000

> <Gold.Chemscore.Hbonds>
donor molecule, donor type, donor heavy atom, donor atom, acceptor molecule, acceptor atom, score
      L1  H     5    22       P1  8029  0.63
      L1  H     8    23       P1  8029  0.25
      P1  H  6933  6944       L1     7  0.27

> <Gold.PLP.Chemscore.Internal.Correction>
0.0147

> <Gold.Rescore>
     Score         DG    S(hbond)    S(metal)    S(lipo)     H(rot)  DE(clash)    DE(int)     intcor
     18.81     -20.63       2.85        0.00      82.08       1.55       0.03       1.80       ----

> <Gold.Chemscore.Fitness>
18.8083

> <Gold.Chemscore.DG>
-20.6332

> <Gold.Chemscore.ZeroCoef>
-5.4800

> <Gold.Chemscore.Hbond>
2.8500

> <Gold.Chemscore.Metal>
0.0000

> <Gold.Chemscore.Lipo>
82.0761

> <Gold.Chemscore.Internal_Hbond>
0.0000

> <Gold.Chemscore.DEClash>
0.0284

> <Gold.Chemscore.DEInternal>
1.7965

> <Gold.Chemscore.Rot>
1.5503

> <Gold.Chemscore.Internal.Correction>
   9.000000E+99

> <Gold.Chemscore.Hbonds>
donor molecule, donor type, donor heavy atom, donor atom, acceptor molecule, acceptor atom, score
      L1  H     5    22       P1  8029  0.60
      L1  H     8    23       P1  8029  0.20
      P1  H  6933  6944       L1     7  0.01

> <Gold.Chemscore.Hbond.Weighted>
-9.5190

> <Gold.Chemscore.Metal.Weighted>
-0.0000

> <Gold.Chemscore.Lipo.Weighted>
-9.6029

> <Gold.Chemscore.Internal_Hbond.Weighted>
0.0000

> <Gold.Chemscore.DEClash.Weighted>
0.0284

> <Gold.Chemscore.DEInternal.Weighted>
1.7965

> <Gold.Chemscore.Rot.Weighted>
3.9687

> <Gold.Chemscore.Internal.Correction.Weighted>
   9.000000E+99

> <Gold.Protein.RotatedTorsions>
[ 6907 6896 6895 6894 ] final -139.92 input  -60.11 | X-H torsion
[ 7974 7965 7964 7962 ] final -168.49 input  175.53 | X-H torsion
[ 8008 7997 7996 7995 ] final  113.42 input   59.86 | X-H torsion
[ 10167 10162 10161 10158 ] final -121.99 input  -65.29 | X-H torsion
[ 10718 10713 10712 10709 ] final -105.48 input   66.30 | X-H torsion
[ 10763 10752 10751 10750 ] final -175.83 input  -60.55 | X-H torsion
[ 11005 11000 10999 10996 ] final   14.12 input  -57.11 | X-H torsion

> <Gold.Protein.ActiveResidues>
 VAL166  LYS551  ARG553  GLY616  TRP617  ASP618  TYR619  PRO620  LYS621  CYS622 
 ASP623  PHE694  ASN695  SER759  ASP760  ASP761  ALA762  ILE779  LEU786  VAL792 
 PHE793  MET794  SER795  GLU796  ALA797  LYS798  CYS799  TRP800  GLU811  SER814 

> <Gold.Protein.RotatedAtoms>
  151.0540  133.5600  159.2639 H   0  0  0  0  0  0  0  0  0  0  0  0  # atno 6907 bound_to 6896
  151.2600  135.0650  159.9104 H   0  0  0  0  0  0  0  0  0  0  0  0  # atno 6908 bound_to 6896
  152.5386  134.0287  159.8069 H   0  0  0  0  0  0  0  0  0  0  0  0  # atno 6909 bound_to 6896
  144.7202  140.2363  143.6297 H   0  0  0  0  0  0  0  0  0  0  0  0  # atno 7974 bound_to 7965
  156.2257  140.2980  156.0061 H   0  0  0  0  0  0  0  0  0  0  0  0  # atno 8008 bound_to 7997
  155.2363  140.0421  157.2986 H   0  0  0  0  0  0  0  0  0  0  0  0  # atno 8009 bound_to 7997
  154.5911  140.2402  155.7927 H   0  0  0  0  0  0  0  0  0  0  0  0  # atno 8010 bound_to 7997
  140.0190  143.5363  152.2229 H   0  0  0  0  0  0  0  0  0  0  0  0  # atno 10167 bound_to 10162
  156.0348  130.5566  150.7546 H   0  0  0  0  0  0  0  0  0  0  0  0  # atno 10718 bound_to 10713
  154.5797  135.2835  155.0745 H   0  0  0  0  0  0  0  0  0  0  0  0  # atno 10763 bound_to 10752
  154.2087  135.6412  153.5112 H   0  0  0  0  0  0  0  0  0  0  0  0  # atno 10764 bound_to 10752
  153.0084  135.5486  154.6446 H   0  0  0  0  0  0  0  0  0  0  0  0  # atno 10765 bound_to 10752
  140.4731  134.1011  155.7736 H   0  0  0  0  0  0  0  0  0  0  0  0  # atno 11005 bound_to 11000
  145.8363  139.2109  143.1854 LP  0  0  0  0  0  0  0  0  0  0  0  0  # atno 17320 bound_to 7965
  146.0387  140.8187  142.9840 LP  0  0  0  0  0  0  0  0  0  0  0  0  # atno 17321 bound_to 7965
  139.6152  144.7618  151.2861 LP  0  0  0  0  0  0  0  0  0  0  0  0  # atno 17342 bound_to 10162
  140.7350  143.6749  150.8050 LP  0  0  0  0  0  0  0  0  0  0  0  0  # atno 17343 bound_to 10162
  157.5081  131.0923  151.0232 LP  0  0  0  0  0  0  0  0  0  0  0  0  # atno 17370 bound_to 10713
  157.0595  130.5819  149.5383 LP  0  0  0  0  0  0  0  0  0  0  0  0  # atno 17371 bound_to 10713
  141.1567  133.8868  157.1957 LP  0  0  0  0  0  0  0  0  0  0  0  0  # atno 17394 bound_to 11000
  139.9873  135.0077  156.9892 LP  0  0  0  0  0  0  0  0  0  0  0  0  # atno 17395 bound_to 11000

$$$$
