AV-unprocessed.smi:540|AV-procd|sdf|2869|dock1
  -GOLD-   2262023363D 1   1.00000     0.00000
 Structure written by MMmdl.
 49 51  0  0  0  0  0  0  0  0  1 V2000
  147.3560  140.3070  154.2935 C   0  0  0  0  0  0  0  0  0  0  0  0
  148.7792  140.8157  154.5331 C   0  0  0  0  0  0  0  0  0  0  0  0
  149.6827  139.7324  154.3944 O   0  0  0  0  0  0  0  0  0  0  0  0
  150.2100  139.2976  155.6358 C   0  0  0  0  0  0  0  0  0  0  0  0
  151.4970  140.0788  155.9254 C   0  0  0  0  0  0  0  0  0  0  0  0
  152.0616  139.7168  157.2228 N   0  0  0  0  0  0  0  0  0  0  0  0
  152.1581  140.4790  158.3479 C   0  0  0  0  0  0  0  0  0  0  0  0
  151.7184  141.8039  158.3958 N   0  0  0  0  0  0  0  0  0  0  0  0
  150.6122  142.3852  157.6354 C   0  0  0  0  0  0  0  0  0  0  0  0
  149.6192  143.1200  158.5540 C   0  0  0  0  0  0  0  0  0  0  0  0
  150.3296  144.2290  159.3496 C   0  0  0  0  0  0  0  0  0  0  0  0
  149.3823  144.9109  160.3464 C   0  0  0  0  0  0  0  0  0  0  0  0
  151.5715  143.6452  160.0467 C   0  0  0  0  0  0  0  0  0  0  0  0
  152.4602  142.8801  159.0494 C   0  0  0  0  0  0  0  0  0  0  0  0
  152.6562  139.8399  159.4100 N   0  0  0  0  0  0  0  0  0  0  0  0
  152.9232  138.5717  158.9190 C   0  0  0  0  0  0  0  0  0  0  0  0
  152.5611  138.4722  157.6143 C   0  0  0  0  0  0  0  0  0  0  0  0
  152.6887  137.2172  156.8587 C   0  0  0  0  0  0  0  0  0  0  0  0
  152.3422  137.0888  155.6867 O   0  0  0  0  0  0  0  0  0  0  0  0
  153.2203  136.2073  157.5892 N   0  0  0  0  0  0  0  0  0  0  0  0
  153.6130  136.2447  158.8986 C   0  0  0  0  0  0  0  0  0  0  0  0
  154.0756  135.2360  159.4313 O   0  0  0  0  0  0  0  0  0  0  0  0
  153.4663  137.4293  159.5735 N   0  0  0  0  0  0  0  0  0  0  0  0
  153.8597  137.5243  160.9807 C   0  0  0  0  0  0  0  0  0  0  0  0
  153.3331  135.3236  157.1143 H   0  0  0  0  0  0  0  0  0  0  0  0
  146.6315  141.1158  154.3910 H   0  0  0  0  0  0  0  0  0  0  0  0
  147.0911  139.5317  155.0128 H   0  0  0  0  0  0  0  0  0  0  0  0
  147.2549  139.8859  153.2929 H   0  0  0  0  0  0  0  0  0  0  0  0
  149.0181  141.6001  153.8133 H   0  0  0  0  0  0  0  0  0  0  0  0
  148.8591  141.2467  155.5324 H   0  0  0  0  0  0  0  0  0  0  0  0
  149.4801  139.4715  156.4277 H   0  0  0  0  0  0  0  0  0  0  0  0
  150.4159  138.2265  155.6062 H   0  0  0  0  0  0  0  0  0  0  0  0
  152.2290  139.9112  155.1384 H   0  0  0  0  0  0  0  0  0  0  0  0
  151.3033  141.1462  155.8921 H   0  0  0  0  0  0  0  0  0  0  0  0
  151.0208  143.0850  156.9050 H   0  0  0  0  0  0  0  0  0  0  0  0
  150.1072  141.6185  157.0493 H   0  0  0  0  0  0  0  0  0  0  0  0
  148.8125  143.5461  157.9569 H   0  0  0  0  0  0  0  0  0  0  0  0
  149.1541  142.4119  159.2403 H   0  0  0  0  0  0  0  0  0  0  0  0
  150.6691  144.9857  158.6407 H   0  0  0  0  0  0  0  0  0  0  0  0
  149.0064  144.2018  161.0848 H   0  0  0  0  0  0  0  0  0  0  0  0
  148.5234  145.3466  159.8352 H   0  0  0  0  0  0  0  0  0  0  0  0
  149.8891  145.7138  160.8823 H   0  0  0  0  0  0  0  0  0  0  0  0
  152.1470  144.4438  160.5156 H   0  0  0  0  0  0  0  0  0  0  0  0
  151.2652  142.9726  160.8491 H   0  0  0  0  0  0  0  0  0  0  0  0
  153.3206  142.4648  159.5752 H   0  0  0  0  0  0  0  0  0  0  0  0
  152.8573  143.5591  158.2937 H   0  0  0  0  0  0  0  0  0  0  0  0
  154.8841  137.1760  161.1222 H   0  0  0  0  0  0  0  0  0  0  0  0
  153.2030  136.9117  161.5994 H   0  0  0  0  0  0  0  0  0  0  0  0
  153.8135  138.5450  161.3603 H   0  0  0  0  0  0  0  0  0  0  0  0
  1  2  1  0  0  0  0
  1 26  1  0  0  0  0
  1 27  1  0  0  0  0
  1 28  1  0  0  0  0
  2  3  1  0  0  0  0
  2 29  1  0  0  0  0
  2 30  1  0  0  0  0
  3  4  1  0  0  0  0
  4  5  1  0  0  0  0
  4 31  1  0  0  0  0
  4 32  1  0  0  0  0
  5  6  1  0  0  0  0
  5 33  1  0  0  0  0
  5 34  1  0  0  0  0
  6 17  1  0  0  0  0
  6  7  1  0  0  0  0
  7  8  1  0  0  0  0
  7 15  2  0  0  0  0
  8 14  1  0  0  0  0
  8  9  1  0  0  0  0
  9 10  1  0  0  0  0
  9 35  1  0  0  0  0
  9 36  1  0  0  0  0
 10 11  1  0  0  0  0
 10 37  1  0  0  0  0
 10 38  1  0  0  0  0
 11 12  1  0  0  0  0
 11 13  1  0  0  0  0
 11 39  1  0  0  0  0
 12 40  1  0  0  0  0
 12 41  1  0  0  0  0
 12 42  1  0  0  0  0
 13 14  1  0  0  0  0
 13 43  1  0  0  0  0
 13 44  1  0  0  0  0
 14 45  1  0  0  0  0
 14 46  1  0  0  0  0
 15 16  1  0  0  0  0
 16 23  1  0  0  0  0
 16 17  2  0  0  0  0
 17 18  1  0  0  0  0
 18 19  2  0  0  0  0
 18 20  1  0  0  0  0
 20 25  1  0  0  0  0
 20 21  1  0  0  0  0
 21 22  2  0  0  0  0
 21 23  1  0  0  0  0
 23 24  1  0  0  0  0
 24 47  1  0  0  0  0
 24 48  1  0  0  0  0
 24 49  1  0  0  0  0
M  END
> <s_m_source_file>
AV-unprocessed.smi

> <i_m_source_file_index>
540

> <i_lp_mmshare_version>
43012

> <i_f3d_flags>
0

> <s_epik_input>
W0NIM11uMWMoPU8pW25IXWMoPU8pYyhjMTIpbihbQ0gyXVtDSDJdT1tDSDJdW0NIM10pYyhuMilOM1tDSDJdW0NIMl1bQ0hdKFtDSDNdKVtDSDJdW0NIMl0z

> <s_epik_cmdline>
J2VwaWtfcHl0aG9uJywgJy1waCcsICc3LjAnLCAnLXRuJywgJzgnLCAnLW1hJywgJzIwMCcsICctbWV0YWxfYmluZGluZycsICctaW1hZScsICc8aW5maWxlLm1hZT4nLCAnLW9tYWUnLCAnPG91dGZpbGUubWFlPic=

> <r_lp_tautomer_probability>
1

> <r_epik_Ionization_Penalty>
0.000763957

> <r_epik_Ionization_Penalty_Charging>
0.000121351

> <r_epik_Ionization_Penalty_Neutral>
0.000642606

> <r_epik_State_Penalty>
-0

> <r_epik_Charging_Adjusted_Penalty>
0.000121351

> <i_epik_Tot_Q>
0

> <i_epik_Tot_abs_Q>
0

> <r_epik_Metal_State_Penalty>
0.0930422

> <b_epik_Metal_Only>
0

> <s_lp_Force_Field>
OPLS_2005

> <r_lp_Energy>
38.5385

> <b_lp_Chiralities_Consistent>
1

> <s_lp_Variant>
AV-unprocessed.smi:540-1

> <Gold.Version>
5.8.1

> <Gold.Id.Protein>
6NUR|6NUR_protein|mol2

> <Gold.PLP.Fitness>
45.6597

> <Gold.PLP.PLP>
-39.6306

> <Gold.PLP.part.hbond>
-3.0000

> <Gold.PLP.part.metal>
0.0000

> <Gold.PLP.part.buried>
-4.5552

> <Gold.PLP.part.nonpolar>
-32.7886

> <Gold.PLP.part.repulsive>
0.3090

> <Gold.PLP.ligand.clash>
0.0000

> <Gold.PLP.ligand.torsion>
1.1323

> <Gold.PLP.Chemscore.Hbond>
2.5692

> <Gold.PLP.Chemscore.CHOScore>
0.0000

> <Gold.PLP.Chemscore.Metal>
0.0000

> <Gold.Chemscore.Hbonds>
donor molecule, donor type, donor heavy atom, donor atom, acceptor molecule, acceptor atom, score
      P1  H  6896  6908       L1    22  1.00
      P1  H  7989  7998       L1     3  0.03
      P1  H 10752 10765       L1    19  0.82

> <Gold.PLP.Chemscore.Internal.Correction>
0.5860

> <Gold.Rescore>
     Score         DG    S(hbond)    S(metal)    S(lipo)     H(rot)  DE(clash)    DE(int)     intcor
     16.93     -19.53       2.07        0.00      95.42       1.58       0.26       2.34       ----

> <Gold.Chemscore.Fitness>
16.9317

> <Gold.Chemscore.DG>
-19.5266

> <Gold.Chemscore.ZeroCoef>
-5.4800

> <Gold.Chemscore.Hbond>
2.0743

> <Gold.Chemscore.Metal>
0.0000

> <Gold.Chemscore.Lipo>
95.4238

> <Gold.Chemscore.Internal_Hbond>
0.0000

> <Gold.Chemscore.DEClash>
0.2557

> <Gold.Chemscore.DEInternal>
2.3392

> <Gold.Chemscore.Rot>
1.5806

> <Gold.Chemscore.Internal.Correction>
   9.000000E+99

> <Gold.Chemscore.Hbonds>
donor molecule, donor type, donor heavy atom, donor atom, acceptor molecule, acceptor atom, score
      P1  H  6896  6908       L1    22  0.26
      P1  H  7989  7998       L1     3  0.01
      P1  H 10752 10765       L1    19  0.53

> <Gold.Chemscore.Hbond.Weighted>
-6.9283

> <Gold.Chemscore.Metal.Weighted>
-0.0000

> <Gold.Chemscore.Lipo.Weighted>
-11.1646

> <Gold.Chemscore.Internal_Hbond.Weighted>
0.0000

> <Gold.Chemscore.DEClash.Weighted>
0.2557

> <Gold.Chemscore.DEInternal.Weighted>
2.3392

> <Gold.Chemscore.Rot.Weighted>
4.0463

> <Gold.Chemscore.Internal.Correction.Weighted>
   9.000000E+99

> <Gold.Protein.RotatedTorsions>
[ 6907 6896 6895 6894 ] final  -44.22 input  -60.11 | X-H torsion
[ 7974 7965 7964 7962 ] final   -1.43 input  175.53 | X-H torsion
[ 8008 7997 7996 7995 ] final  -34.17 input   59.86 | X-H torsion
[ 10167 10162 10161 10158 ] final   66.00 input  -65.29 | X-H torsion
[ 10718 10713 10712 10709 ] final  -11.24 input   66.30 | X-H torsion
[ 10763 10752 10751 10750 ] final -152.42 input  -60.55 | X-H torsion
[ 11005 11000 10999 10996 ] final  -97.46 input  -57.11 | X-H torsion

> <Gold.Protein.ActiveResidues>
 VAL166  LYS551  ARG553  GLY616  TRP617  ASP618  TYR619  PRO620  LYS621  CYS622 
 ASP623  PHE694  ASN695  SER759  ASP760  ASP761  ALA762  ILE779  LEU786  VAL792 
 PHE793  MET794  SER795  GLU796  ALA797  LYS798  CYS799  TRP800  GLU811  SER814 

> <Gold.Protein.RotatedAtoms>
  150.9353  134.8765  159.7577 H   0  0  0  0  0  0  0  0  0  0  0  0  # atno 6907 bound_to 6896
  152.5056  134.4020  159.9429 H   0  0  0  0  0  0  0  0  0  0  0  0  # atno 6908 bound_to 6896
  151.4044  133.3707  159.2771 H   0  0  0  0  0  0  0  0  0  0  0  0  # atno 6909 bound_to 6896
  146.2417  140.1419  142.8335 H   0  0  0  0  0  0  0  0  0  0  0  0  # atno 7974 bound_to 7965
  154.4128  140.1691  156.2007 H   0  0  0  0  0  0  0  0  0  0  0  0  # atno 8008 bound_to 7997
  155.9526  140.3399  155.6398 H   0  0  0  0  0  0  0  0  0  0  0  0  # atno 8009 bound_to 7997
  155.6850  140.0727  157.2461 H   0  0  0  0  0  0  0  0  0  0  0  0  # atno 8010 bound_to 7997
  140.1052  144.4868  150.7012 H   0  0  0  0  0  0  0  0  0  0  0  0  # atno 10167 bound_to 10162
  156.6619  130.4984  149.6028 H   0  0  0  0  0  0  0  0  0  0  0  0  # atno 10718 bound_to 10713
  154.7995  135.3236  154.7586 H   0  0  0  0  0  0  0  0  0  0  0  0  # atno 10763 bound_to 10752
  153.8257  135.6884  153.4825 H   0  0  0  0  0  0  0  0  0  0  0  0  # atno 10764 bound_to 10752
  153.1703  135.4625  154.9837 H   0  0  0  0  0  0  0  0  0  0  0  0  # atno 10765 bound_to 10752
  141.1378  133.8173  157.0709 H   0  0  0  0  0  0  0  0  0  0  0  0  # atno 11005 bound_to 11000
  145.0239  140.8816  143.5150 LP  0  0  0  0  0  0  0  0  0  0  0  0  # atno 17320 bound_to 7965
  145.1472  139.2536  143.5459 LP  0  0  0  0  0  0  0  0  0  0  0  0  # atno 17321 bound_to 7965
  140.6956  143.2402  151.5010 LP  0  0  0  0  0  0  0  0  0  0  0  0  # atno 17342 bound_to 10162
  139.5649  144.2066  152.1749 LP  0  0  0  0  0  0  0  0  0  0  0  0  # atno 17343 bound_to 10162
  156.2004  130.6616  151.1161 LP  0  0  0  0  0  0  0  0  0  0  0  0  # atno 17370 bound_to 10713
  157.7107  131.0735  150.6512 LP  0  0  0  0  0  0  0  0  0  0  0  0  # atno 17371 bound_to 10713
  140.0512  134.9804  157.1139 LP  0  0  0  0  0  0  0  0  0  0  0  0  # atno 17394 bound_to 11000
  140.3988  134.2105  155.7164 LP  0  0  0  0  0  0  0  0  0  0  0  0  # atno 17395 bound_to 11000

$$$$
