AV-unprocessed.smi:1475|AV-procd|sdf|5977|dock10
  -GOLD-   22720 6 73D 1   1.00000     0.00000
 Structure written by MMmdl.
 50 51  0  0  0  0  0  0  0  0  2 V2000
  140.7934  129.0324  158.0173 C   0  0  0  0  0  0  0  0  0  0  0  0
  141.1812  130.3911  158.5212 C   0  0  0  0  0  0  0  0  0  0  0  0
  140.9782  130.9410  159.8175 C   0  0  0  0  0  0  0  0  0  0  0  0
  141.5173  132.1944  159.7416 C   0  0  0  0  0  0  0  0  0  0  0  0
  141.6161  133.2639  160.7797 C   0  0  0  0  0  0  0  0  0  0  0  0
  142.0018  132.3449  158.4538 N   0  0  0  0  0  0  0  0  0  0  0  0
  142.6785  133.4838  157.8542 C   0  0  0  0  0  0  0  0  0  0  0  0
  144.1521  133.1694  157.5940 C   0  0  0  0  0  0  0  0  0  0  0  0
  145.0055  133.4781  158.4254 O   0  0  0  0  0  0  0  0  0  0  0  0
  144.4375  132.5498  156.4382 N   0  0  0  0  0  0  0  0  0  0  0  0
  145.7688  132.1248  156.0232 C   0  0  0  0  0  0  0  0  0  0  0  0
  146.2351  132.8652  154.7534 C   0  0  0  0  0  0  0  0  0  0  0  0
  145.7560  132.2181  153.5063 N   0  3  1  0  0  0  0  0  0  0  0  0
  146.0568  133.0382  152.3035 C   0  0  0  0  0  0  0  0  0  0  0  0
  145.4290  132.4390  151.0299 C   0  0  2  0  0  0  0  0  0  0  0  0
  143.9015  132.6210  150.9940 C   0  0  0  0  0  0  0  0  0  0  0  0
  145.8639  130.9727  150.8511 C   0  0  0  0  0  0  0  0  0  0  0  0
  145.6002  130.1415  152.1195 C   0  0  1  0  0  0  0  0  0  0  0  0
  146.0977  128.6982  151.9555 C   0  0  0  0  0  0  0  0  0  0  0  0
  146.2397  130.8205  153.3462 C   0  0  0  0  0  0  0  0  0  0  0  0
  141.7950  131.2364  157.7093 N   0  0  0  0  0  0  0  0  0  0  0  0
  140.2643  128.4647  158.7830 H   0  0  0  0  0  0  0  0  0  0  0  0
  141.6718  128.4565  157.7253 H   0  0  0  0  0  0  0  0  0  0  0  0
  140.1388  129.1073  157.1487 H   0  0  0  0  0  0  0  0  0  0  0  0
  140.5083  130.4832  160.6754 H   0  0  0  0  0  0  0  0  0  0  0  0
  141.2108  132.9211  161.7318 H   0  0  0  0  0  0  0  0  0  0  0  0
  141.0579  134.1506  160.4788 H   0  0  0  0  0  0  0  0  0  0  0  0
  142.6536  133.5539  160.9447 H   0  0  0  0  0  0  0  0  0  0  0  0
  142.1784  133.7535  156.9224 H   0  0  0  0  0  0  0  0  0  0  0  0
  142.5924  134.3445  158.5183 H   0  0  0  0  0  0  0  0  0  0  0  0
  143.6703  132.3271  155.8197 H   0  0  0  0  0  0  0  0  0  0  0  0
  146.4565  132.2753  156.8556 H   0  0  0  0  0  0  0  0  0  0  0  0
  145.7372  131.0509  155.8367 H   0  0  0  0  0  0  0  0  0  0  0  0
  145.8492  133.8846  154.8000 H   0  0  0  0  0  0  0  0  0  0  0  0
  147.3223  132.9505  154.7203 H   0  0  0  0  0  0  0  0  0  0  0  0
  145.6911  134.0565  152.4427 H   0  0  0  0  0  0  0  0  0  0  0  0
  147.1392  133.1100  152.1852 H   0  0  0  0  0  0  0  0  0  0  0  0
  145.8218  132.9977  150.1793 H   0  0  0  0  0  0  0  0  0  0  0  0
  143.4113  132.1262  151.8322 H   0  0  0  0  0  0  0  0  0  0  0  0
  143.4798  132.2135  150.0746 H   0  0  0  0  0  0  0  0  0  0  0  0
  143.6341  133.6774  151.0347 H   0  0  0  0  0  0  0  0  0  0  0  0
  145.3551  130.5310  149.9935 H   0  0  0  0  0  0  0  0  0  0  0  0
  146.9295  130.9445  150.6187 H   0  0  0  0  0  0  0  0  0  0  0  0
  144.5227  130.0936  152.2827 H   0  0  0  0  0  0  0  0  0  0  0  0
  147.1755  128.6654  151.7924 H   0  0  0  0  0  0  0  0  0  0  0  0
  145.6178  128.2119  151.1055 H   0  0  0  0  0  0  0  0  0  0  0  0
  145.8773  128.1028  152.8421 H   0  0  0  0  0  0  0  0  0  0  0  0
  147.3274  130.8208  153.2567 H   0  0  0  0  0  0  0  0  0  0  0  0
  146.0005  130.2350  154.2329 H   0  0  0  0  0  0  0  0  0  0  0  0
  144.7492  132.1768  153.5744 H   0  0  0  0  0  0  0  0  0  0  0  0
  1  2  1  0  0  0  0
  1 22  1  0  0  0  0
  1 23  1  0  0  0  0
  1 24  1  0  0  0  0
  2 21  2  0  0  0  0
  2  3  1  0  0  0  0
  3  4  2  0  0  0  0
  3 25  1  0  0  0  0
  4  5  1  0  0  0  0
  4  6  1  0  0  0  0
  5 26  1  0  0  0  0
  5 27  1  0  0  0  0
  5 28  1  0  0  0  0
  6  7  1  0  0  0  0
  6 21  1  0  0  0  0
  7  8  1  0  0  0  0
  7 29  1  0  0  0  0
  7 30  1  0  0  0  0
  8  9  2  0  0  0  0
  8 10  1  0  0  0  0
 10 11  1  0  0  0  0
 10 31  1  0  0  0  0
 11 12  1  0  0  0  0
 11 32  1  0  0  0  0
 11 33  1  0  0  0  0
 12 13  1  0  0  0  0
 12 34  1  0  0  0  0
 12 35  1  0  0  0  0
 13 20  1  0  0  0  0
 13 14  1  0  0  0  0
 13 50  1  0  0  0  0
 14 15  1  0  0  0  0
 14 36  1  0  0  0  0
 14 37  1  0  0  0  0
 15 16  1  0  0  0  0
 15 17  1  0  0  0  0
 15 38  1  0  0  0  0
 16 39  1  0  0  0  0
 16 40  1  0  0  0  0
 16 41  1  0  0  0  0
 17 18  1  0  0  0  0
 17 42  1  0  0  0  0
 17 43  1  0  0  0  0
 18 19  1  0  0  0  0
 18 20  1  0  0  0  0
 18 44  1  0  0  0  0
 19 45  1  0  0  0  0
 19 46  1  0  0  0  0
 19 47  1  0  0  0  0
 20 48  1  0  0  0  0
 20 49  1  0  0  0  0
M  CHG  1  13   1
M  END
> <s_m_source_file>
AV-unprocessed.smi

> <i_m_source_file_index>
1475

> <i_lp_mmshare_version>
43012

> <i_f3d_flags>
0

> <s_epik_input>
W0NIM11jMVtjSF1jKFtDSDNdKW4objEpW0NIMl1DKD1PKVtOSF1bQ0gyXVtDSDJdTjJbQ0gyXVtDQEBIXShbQ0gzXSlbQ0gyXVtDQEBIXShbQ0gzXSlbQ0gyXTI=

> <s_epik_cmdline>
J2VwaWtfcHl0aG9uJywgJy1waCcsICc3LjAnLCAnLXRuJywgJzgnLCAnLW1hJywgJzIwMCcsICctbWV0YWxfYmluZGluZycsICctaW1hZScsICc8aW5maWxlLm1hZT4nLCAnLW9tYWUnLCAnPG91dGZpbGUubWFlPic=

> <r_lp_tautomer_probability>
1

> <r_epik_Ionization_Penalty>
0.00206431

> <r_epik_Ionization_Penalty_Charging>
0.00187095

> <r_epik_Ionization_Penalty_Neutral>
0.000193364

> <r_epik_State_Penalty>
-0

> <r_epik_Charging_Adjusted_Penalty>
0.00187095

> <i_epik_Tot_Q>
1

> <i_epik_Tot_abs_Q>
1

> <r_epik_Metal_State_Penalty>
-0

> <b_epik_Metal_Only>
0

> <s_lp_Force_Field>
OPLS_2005

> <r_lp_Energy>
16.4698

> <b_lp_Chiralities_Consistent>
1

> <s_lp_Variant>
AV-unprocessed.smi:1475-2

> <Gold.Version>
5.8.1

> <Gold.Id.Protein>
6NUR|6NUR_protein|mol2

> <Gold.PLP.Fitness>
39.8304

> <Gold.PLP.PLP>
-36.1790

> <Gold.PLP.part.hbond>
-1.2954

> <Gold.PLP.part.metal>
0.0000

> <Gold.PLP.part.buried>
-7.0060

> <Gold.PLP.part.nonpolar>
-28.8164

> <Gold.PLP.part.repulsive>
0.2385

> <Gold.PLP.ligand.clash>
0.0000

> <Gold.PLP.ligand.torsion>
0.6061

> <Gold.PLP.Chemscore.Hbond>
1.6094

> <Gold.PLP.Chemscore.CHOScore>
0.0000

> <Gold.PLP.Chemscore.Metal>
0.0000

> <Gold.Chemscore.Hbonds>
donor molecule, donor type, donor heavy atom, donor atom, acceptor molecule, acceptor atom, score
      L1  H    10    31       P1 10957  0.94
      L1  H    13    50       P1 10957  0.05

> <Gold.PLP.Chemscore.Internal.Correction>
0.0355

> <Gold.Rescore>
     Score         DG    S(hbond)    S(metal)    S(lipo)     H(rot)  DE(clash)    DE(int)     intcor
     15.41     -16.08       0.95        0.00      99.51       1.64       0.06       0.61       ----

> <Gold.Chemscore.Fitness>
15.4149

> <Gold.Chemscore.DG>
-16.0845

> <Gold.Chemscore.ZeroCoef>
-5.4800

> <Gold.Chemscore.Hbond>
0.9461

> <Gold.Chemscore.Metal>
0.0000

> <Gold.Chemscore.Lipo>
99.5102

> <Gold.Chemscore.Internal_Hbond>
0.0000

> <Gold.Chemscore.DEClash>
0.0571

> <Gold.Chemscore.DEInternal>
0.6125

> <Gold.Chemscore.Rot>
1.6399

> <Gold.Chemscore.Internal.Correction>
   9.000000E+99

> <Gold.Chemscore.Hbonds>
donor molecule, donor type, donor heavy atom, donor atom, acceptor molecule, acceptor atom, score
      L1  H    10    31       P1 10957  0.90
      L1  H    13    50       P1 10957  0.01

> <Gold.Chemscore.Hbond.Weighted>
-3.1599

> <Gold.Chemscore.Metal.Weighted>
-0.0000

> <Gold.Chemscore.Lipo.Weighted>
-11.6427

> <Gold.Chemscore.Internal_Hbond.Weighted>
0.0000

> <Gold.Chemscore.DEClash.Weighted>
0.0571

> <Gold.Chemscore.DEInternal.Weighted>
0.6125

> <Gold.Chemscore.Rot.Weighted>
4.1982

> <Gold.Chemscore.Internal.Correction.Weighted>
   9.000000E+99

> <Gold.Protein.RotatedTorsions>
[ 6907 6896 6895 6894 ] final -116.15 input  -60.11 | X-H torsion
[ 7974 7965 7964 7962 ] final  -77.66 input  175.53 | X-H torsion
[ 8008 7997 7996 7995 ] final   43.42 input   59.86 | X-H torsion
[ 10167 10162 10161 10158 ] final   39.21 input  -65.29 | X-H torsion
[ 10718 10713 10712 10709 ] final -149.56 input   66.30 | X-H torsion
[ 10763 10752 10751 10750 ] final   29.49 input  -60.55 | X-H torsion
[ 11005 11000 10999 10996 ] final   94.63 input  -57.11 | X-H torsion

> <Gold.Protein.ActiveResidues>
 VAL166  LYS551  ARG553  GLY616  TRP617  ASP618  TYR619  PRO620  LYS621  CYS622 
 ASP623  PHE694  ASN695  SER759  ASP760  ASP761  ALA762  ILE779  LEU786  VAL792 
 PHE793  MET794  SER795  GLU796  ALA797  LYS798  CYS799  TRP800  GLU811  SER814 

> <Gold.Protein.RotatedAtoms>
  150.8033  133.8557  159.3217 H   0  0  0  0  0  0  0  0  0  0  0  0  # atno 6907 bound_to 6896
  151.6363  135.1016  160.0141 H   0  0  0  0  0  0  0  0  0  0  0  0  # atno 6908 bound_to 6896
  152.4122  133.6942  159.6443 H   0  0  0  0  0  0  0  0  0  0  0  0  # atno 6909 bound_to 6896
  145.5967  140.9417  143.1263 H   0  0  0  0  0  0  0  0  0  0  0  0  # atno 7974 bound_to 7965
  155.3024  140.3386  155.4247 H   0  0  0  0  0  0  0  0  0  0  0  0  # atno 8008 bound_to 7997
  156.1995  140.1727  156.7968 H   0  0  0  0  0  0  0  0  0  0  0  0  # atno 8009 bound_to 7997
  154.5541  140.0700  156.8698 H   0  0  0  0  0  0  0  0  0  0  0  0  # atno 8010 bound_to 7997
  140.3862  144.1914  150.6130 H   0  0  0  0  0  0  0  0  0  0  0  0  # atno 10167 bound_to 10162
  156.4348  130.8093  151.2321 H   0  0  0  0  0  0  0  0  0  0  0  0  # atno 10718 bound_to 10713
  153.0427  135.6487  154.0899 H   0  0  0  0  0  0  0  0  0  0  0  0  # atno 10763 bound_to 10752
  154.0602  135.2888  155.3327 H   0  0  0  0  0  0  0  0  0  0  0  0  # atno 10764 bound_to 10752
  154.6662  135.5373  153.8146 H   0  0  0  0  0  0  0  0  0  0  0  0  # atno 10765 bound_to 10752
  139.8796  134.8856  156.3893 H   0  0  0  0  0  0  0  0  0  0  0  0  # atno 11005 bound_to 11000
  144.7327  139.7676  143.7341 LP  0  0  0  0  0  0  0  0  0  0  0  0  # atno 17320 bound_to 7965
  146.1606  139.4719  142.9990 LP  0  0  0  0  0  0  0  0  0  0  0  0  # atno 17321 bound_to 7965
  140.4887  143.2354  151.8850 LP  0  0  0  0  0  0  0  0  0  0  0  0  # atno 17342 bound_to 10162
  139.4792  144.5190  151.8828 LP  0  0  0  0  0  0  0  0  0  0  0  0  # atno 17343 bound_to 10162
  157.7507  131.0187  150.3636 LP  0  0  0  0  0  0  0  0  0  0  0  0  # atno 17370 bound_to 10713
  156.3981  130.3910  149.6980 LP  0  0  0  0  0  0  0  0  0  0  0  0  # atno 17371 bound_to 10713
  140.9344  133.7557  156.0066 LP  0  0  0  0  0  0  0  0  0  0  0  0  # atno 17394 bound_to 11000
  140.8293  134.3197  157.5354 LP  0  0  0  0  0  0  0  0  0  0  0  0  # atno 17395 bound_to 11000

$$$$
