AV-unprocessed.smi:2177|AV-procd|sdf|8850|dock2
  -GOLD-   2272012 43D 1   1.00000     0.00000
 Structure written by MMmdl.
 42 43  0  0  0  0  0  0  0  0  1 V2000
  153.7108  138.9713  154.2991 C   0  0  0  0  0  0  0  0  0  0  0  0
  152.3648  138.3413  154.5155 C   0  0  0  0  0  0  0  0  0  0  0  0
  152.1796  137.0731  154.1886 N   0  0  0  0  0  0  0  0  0  0  0  0
  150.8889  136.8252  154.4883 N   0  0  0  0  0  0  0  0  0  0  0  0
  150.3452  135.5037  154.2418 C   0  0  0  0  0  0  0  0  0  0  0  0
  150.2600  137.9366  155.0152 C   0  0  0  0  0  0  0  0  0  0  0  0
  148.8221  137.9187  155.4246 C   0  0  0  0  0  0  0  0  0  0  0  0
  151.1874  138.9445  155.0464 C   0  0  0  0  0  0  0  0  0  0  0  0
  151.0234  140.3699  155.5129 C   0  0  0  0  0  0  0  0  0  0  0  0
  151.7816  140.5654  156.8254 C   0  0  0  0  0  0  0  0  0  0  0  0
  152.5584  139.6990  157.2260 O   0  0  0  0  0  0  0  0  0  0  0  0
  151.5549  141.7183  157.4724 N   0  0  0  0  0  0  0  0  0  0  0  0
  152.2463  142.1753  158.6726 C   0  0  2  0  0  0  0  0  0  0  0  0
  151.9938  141.1901  159.8261 C   0  0  0  0  0  0  0  0  0  0  0  0
  151.7646  143.6008  159.0013 C   0  0  1  0  0  0  0  0  0  0  0  0
  150.2502  143.7517  159.1492 C   0  0  0  0  0  0  0  0  0  0  0  0
  150.0976  144.9606  160.0599 C   0  0  0  0  0  0  0  0  0  0  0  0
  151.4933  145.1590  160.6576 C   0  0  0  0  0  0  0  0  0  0  0  0
  152.2241  144.0002  160.2839 O   0  0  0  0  0  0  0  0  0  0  0  0
  153.6186  139.9039  153.7421 H   0  0  0  0  0  0  0  0  0  0  0  0
  154.3791  138.3173  153.7380 H   0  0  0  0  0  0  0  0  0  0  0  0
  154.1907  139.1995  155.2507 H   0  0  0  0  0  0  0  0  0  0  0  0
  150.2653  134.9612  155.1838 H   0  0  0  0  0  0  0  0  0  0  0  0
  150.9903  134.9441  153.5630 H   0  0  0  0  0  0  0  0  0  0  0  0
  149.3555  135.5880  153.7924 H   0  0  0  0  0  0  0  0  0  0  0  0
  148.5667  138.8009  156.0110 H   0  0  0  0  0  0  0  0  0  0  0  0
  148.5993  137.0413  156.0319 H   0  0  0  0  0  0  0  0  0  0  0  0
  148.1733  137.8997  154.5489 H   0  0  0  0  0  0  0  0  0  0  0  0
  151.3943  141.0813  154.7742 H   0  0  0  0  0  0  0  0  0  0  0  0
  149.9729  140.6186  155.6680 H   0  0  0  0  0  0  0  0  0  0  0  0
  150.8977  142.3640  157.0595 H   0  0  0  0  0  0  0  0  0  0  0  0
  153.3188  142.2135  158.4726 H   0  0  0  0  0  0  0  0  0  0  0  0
  152.5272  141.4904  160.7280 H   0  0  0  0  0  0  0  0  0  0  0  0
  152.3339  140.1864  159.5690 H   0  0  0  0  0  0  0  0  0  0  0  0
  150.9328  141.1290  160.0714 H   0  0  0  0  0  0  0  0  0  0  0  0
  152.1379  144.3101  158.2596 H   0  0  0  0  0  0  0  0  0  0  0  0
  149.7443  143.8781  158.1916 H   0  0  0  0  0  0  0  0  0  0  0  0
  149.8289  142.8724  159.6385 H   0  0  0  0  0  0  0  0  0  0  0  0
  149.7900  145.8458  159.5023 H   0  0  0  0  0  0  0  0  0  0  0  0
  149.3508  144.7737  160.8321 H   0  0  0  0  0  0  0  0  0  0  0  0
  151.9737  146.0389  160.2275 H   0  0  0  0  0  0  0  0  0  0  0  0
  151.4731  145.2771  161.7411 H   0  0  0  0  0  0  0  0  0  0  0  0
  1  2  1  0  0  0  0
  1 20  1  0  0  0  0
  1 21  1  0  0  0  0
  1 22  1  0  0  0  0
  2  8  1  0  0  0  0
  2  3  2  0  0  0  0
  3  4  1  0  0  0  0
  4  5  1  0  0  0  0
  4  6  1  0  0  0  0
  5 23  1  0  0  0  0
  5 24  1  0  0  0  0
  5 25  1  0  0  0  0
  6  7  1  0  0  0  0
  6  8  2  0  0  0  0
  7 26  1  0  0  0  0
  7 27  1  0  0  0  0
  7 28  1  0  0  0  0
  8  9  1  0  0  0  0
  9 10  1  0  0  0  0
  9 29  1  0  0  0  0
  9 30  1  0  0  0  0
 10 11  2  0  0  0  0
 10 12  1  0  0  0  0
 12 13  1  0  0  0  0
 12 31  1  0  0  0  0
 13 14  1  0  0  0  0
 13 15  1  0  0  0  0
 13 32  1  0  0  0  0
 14 33  1  0  0  0  0
 14 34  1  0  0  0  0
 14 35  1  0  0  0  0
 15 19  1  0  0  0  0
 15 16  1  0  0  0  0
 15 36  1  0  0  0  0
 16 17  1  0  0  0  0
 16 37  1  0  0  0  0
 16 38  1  0  0  0  0
 17 18  1  0  0  0  0
 17 39  1  0  0  0  0
 17 40  1  0  0  0  0
 18 19  1  0  0  0  0
 18 41  1  0  0  0  0
 18 42  1  0  0  0  0
M  END
> <s_m_source_file>
AV-unprocessed.smi

> <i_m_source_file_index>
2177

> <i_lp_mmshare_version>
43012

> <i_f3d_flags>
0

> <s_epik_input>
W0NIM11jMW5uKFtDSDNdKWMoW0NIM10pYzFbQ0gyXUMoPU8pW05IXVtDQEhdKFtDSDNdKVtDQEBIXTJbQ0gyXVtDSDJdW0NIMl1PMg==

> <s_epik_cmdline>
J2VwaWtfcHl0aG9uJywgJy1waCcsICc3LjAnLCAnLXRuJywgJzgnLCAnLW1hJywgJzIwMCcsICctbWV0YWxfYmluZGluZycsICctaW1hZScsICc8aW5maWxlLm1hZT4nLCAnLW9tYWUnLCAnPG91dGZpbGUubWFlPic=

> <r_lp_tautomer_probability>
1

> <r_epik_Ionization_Penalty>
0.00310467

> <r_epik_Ionization_Penalty_Charging>
0

> <r_epik_Ionization_Penalty_Neutral>
0.00310467

> <r_epik_State_Penalty>
0.00218493

> <r_epik_Charging_Adjusted_Penalty>
0.00218493

> <i_epik_Tot_Q>
0

> <i_epik_Tot_abs_Q>
0

> <r_epik_Metal_State_Penalty>
-0

> <b_epik_Metal_Only>
0

> <s_lp_Force_Field>
OPLS_2005

> <r_lp_Energy>
12.0116

> <b_lp_Chiralities_Consistent>
1

> <s_lp_Variant>
AV-unprocessed.smi:2177-3

> <Gold.Version>
5.8.1

> <Gold.Id.Protein>
6NUR|6NUR_protein|mol2

> <Gold.PLP.Fitness>
41.8801

> <Gold.PLP.PLP>
-36.4791

> <Gold.PLP.part.hbond>
-2.0000

> <Gold.PLP.part.metal>
0.0000

> <Gold.PLP.part.buried>
-4.2670

> <Gold.PLP.part.nonpolar>
-29.7552

> <Gold.PLP.part.repulsive>
0.2414

> <Gold.PLP.ligand.clash>
0.0000

> <Gold.PLP.ligand.torsion>
0.3174

> <Gold.PLP.Chemscore.Hbond>
2.0000

> <Gold.PLP.Chemscore.CHOScore>
0.0000

> <Gold.PLP.Chemscore.Metal>
0.0000

> <Gold.Chemscore.Hbonds>
donor molecule, donor type, donor heavy atom, donor atom, acceptor molecule, acceptor atom, score
      P1  H  7997  8009       L1    11  1.00
      P1  H 10752 10765       L1     3  0.94

> <Gold.PLP.Chemscore.Internal.Correction>
0.0358

> <Gold.Rescore>
     Score         DG    S(hbond)    S(metal)    S(lipo)     H(rot)  DE(clash)    DE(int)     intcor
     17.29     -20.07       1.90        0.00     102.35       1.46       0.54       2.24       ----

> <Gold.Chemscore.Fitness>
17.2941

> <Gold.Chemscore.DG>
-20.0722

> <Gold.Chemscore.ZeroCoef>
-5.4800

> <Gold.Chemscore.Hbond>
1.9045

> <Gold.Chemscore.Metal>
0.0000

> <Gold.Chemscore.Lipo>
102.3541

> <Gold.Chemscore.Internal_Hbond>
0.0000

> <Gold.Chemscore.DEClash>
0.5370

> <Gold.Chemscore.DEInternal>
2.2411

> <Gold.Chemscore.Rot>
1.4627

> <Gold.Chemscore.Internal.Correction>
   9.000000E+99

> <Gold.Chemscore.Hbonds>
donor molecule, donor type, donor heavy atom, donor atom, acceptor molecule, acceptor atom, score
      P1  H  7997  8009       L1    11  0.86
      P1  H 10752 10765       L1     3  0.58

> <Gold.Chemscore.Hbond.Weighted>
-6.3612

> <Gold.Chemscore.Metal.Weighted>
-0.0000

> <Gold.Chemscore.Lipo.Weighted>
-11.9754

> <Gold.Chemscore.Internal_Hbond.Weighted>
0.0000

> <Gold.Chemscore.DEClash.Weighted>
0.5370

> <Gold.Chemscore.DEInternal.Weighted>
2.2411

> <Gold.Chemscore.Rot.Weighted>
3.7445

> <Gold.Chemscore.Internal.Correction.Weighted>
   9.000000E+99

> <Gold.Protein.RotatedTorsions>
[ 6907 6896 6895 6894 ] final  -29.09 input  -60.11 | X-H torsion
[ 7974 7965 7964 7962 ] final  139.95 input  175.53 | X-H torsion
[ 8008 7997 7996 7995 ] final  163.24 input   59.86 | X-H torsion
[ 10167 10162 10161 10158 ] final -141.45 input  -65.29 | X-H torsion
[ 10718 10713 10712 10709 ] final  -71.10 input   66.30 | X-H torsion
[ 10763 10752 10751 10750 ] final  159.48 input  -60.55 | X-H torsion
[ 11005 11000 10999 10996 ] final  -87.49 input  -57.11 | X-H torsion

> <Gold.Protein.ActiveResidues>
 VAL166  LYS551  ARG553  GLY616  TRP617  ASP618  TYR619  PRO620  LYS621  CYS622 
 ASP623  PHE694  ASN695  SER759  ASP760  ASP761  ALA762  ILE779  LEU786  VAL792 
 PHE793  MET794  SER795  GLU796  ALA797  LYS798  CYS799  TRP800  GLU811  SER814 

> <Gold.Protein.RotatedAtoms>
  151.1240  135.0094  159.8551 H   0  0  0  0  0  0  0  0  0  0  0  0  # atno 6907 bound_to 6896
  152.5449  134.1689  159.8599 H   0  0  0  0  0  0  0  0  0  0  0  0  # atno 6908 bound_to 6896
  151.1750  133.4715  159.2627 H   0  0  0  0  0  0  0  0  0  0  0  0  # atno 6909 bound_to 6896
  144.9231  139.5142  143.5653 H   0  0  0  0  0  0  0  0  0  0  0  0  # atno 7974 bound_to 7965
  156.1972  140.1729  156.7974 H   0  0  0  0  0  0  0  0  0  0  0  0  # atno 8008 bound_to 7997
  154.5544  140.0711  156.8751 H   0  0  0  0  0  0  0  0  0  0  0  0  # atno 8009 bound_to 7997
  155.2966  140.3359  155.4252 H   0  0  0  0  0  0  0  0  0  0  0  0  # atno 8010 bound_to 7997
  139.8183  143.7609  152.2665 H   0  0  0  0  0  0  0  0  0  0  0  0  # atno 10167 bound_to 10162
  156.0378  130.4344  150.2394 H   0  0  0  0  0  0  0  0  0  0  0  0  # atno 10718 bound_to 10713
  154.2324  135.2778  155.2885 H   0  0  0  0  0  0  0  0  0  0  0  0  # atno 10763 bound_to 10752
  154.5613  135.5646  153.7013 H   0  0  0  0  0  0  0  0  0  0  0  0  # atno 10764 bound_to 10752
  153.0017  135.6298  154.2466 H   0  0  0  0  0  0  0  0  0  0  0  0  # atno 10765 bound_to 10752
  141.1616  133.7514  156.9314 H   0  0  0  0  0  0  0  0  0  0  0  0  # atno 11005 bound_to 11000
  146.3214  139.8126  142.8943 LP  0  0  0  0  0  0  0  0  0  0  0  0  # atno 17320 bound_to 7965
  145.3263  141.0256  143.3472 LP  0  0  0  0  0  0  0  0  0  0  0  0  # atno 17321 bound_to 7965
  139.7779  144.7454  151.0130 LP  0  0  0  0  0  0  0  0  0  0  0  0  # atno 17342 bound_to 10162
  140.7814  143.4574  151.0326 LP  0  0  0  0  0  0  0  0  0  0  0  0  # atno 17343 bound_to 10162
  157.0492  131.0058  151.3259 LP  0  0  0  0  0  0  0  0  0  0  0  0  # atno 17370 bound_to 10713
  157.5153  130.7964  149.7749 LP  0  0  0  0  0  0  0  0  0  0  0  0  # atno 17371 bound_to 10713
  140.1383  134.9310  157.2432 LP  0  0  0  0  0  0  0  0  0  0  0  0  # atno 17394 bound_to 11000
  140.2867  134.3287  155.7327 LP  0  0  0  0  0  0  0  0  0  0  0  0  # atno 17395 bound_to 11000

$$$$
