AV-unprocessed.smi:690|AV-procd|sdf|3362|dock6
  -GOLD-   22720 0343D 1   1.00000     0.00000
 Structure written by MMmdl.
 46 48  0  0  0  0  0  0  0  0  1 V2000
  145.6749  131.3801  156.6721 C   0  0  0  0  0  0  0  0  0  0  0  0
  145.8547  132.7757  156.0713 C   0  0  0  0  0  0  0  0  0  0  0  0
  147.0763  132.8094  155.3534 O   0  0  0  0  0  0  0  0  0  0  0  0
  148.1346  133.3988  156.0921 C   0  0  2  0  0  0  0  0  0  0  0  0
  148.0583  134.9236  156.2184 C   0  0  0  0  0  0  0  0  0  0  0  0
  149.5828  134.8998  156.0711 C   0  0  2  0  0  0  0  0  0  0  0  0
  150.1026  136.0193  155.2950 N   0  0  0  0  0  0  0  0  0  0  0  0
  151.3146  136.5646  155.4663 C   0  0  0  0  0  0  0  0  0  0  0  0
  152.1145  136.1739  156.3173 O   0  0  0  0  0  0  0  0  0  0  0  0
  151.6581  137.7449  154.5469 C   0  0  0  0  0  0  0  0  0  0  0  0
  150.7163  138.8693  154.6740 N   0  0  0  0  0  0  0  0  0  0  0  0
  149.5486  138.8226  153.8862 C   0  0  0  0  0  0  0  0  0  0  0  0
  148.6239  139.7946  153.9296 C   0  0  0  0  0  0  0  0  0  0  0  0
  148.8498  140.9128  154.8146 C   0  0  0  0  0  0  0  0  0  0  0  0
  149.9622  140.9663  155.5740 C   0  0  0  0  0  0  0  0  0  0  0  0
  150.9751  139.9054  155.5307 C   0  0  0  0  0  0  0  0  0  0  0  0
  151.9939  139.9460  156.2212 O   0  0  0  0  0  0  0  0  0  0  0  0
  149.4350  133.5826  155.2701 C   0  0  0  0  0  0  0  0  0  0  0  0
  149.2994  133.6429  153.7427 C   0  0  0  0  0  0  0  0  0  0  0  0
  149.4848  132.2133  153.2304 C   0  0  0  0  0  0  0  0  0  0  0  0
  150.3197  131.5000  154.2992 C   0  0  0  0  0  0  0  0  0  0  0  0
  150.5110  132.5145  155.4323 C   0  0  0  0  0  0  0  0  0  0  0  0
  144.7462  131.3166  157.2392 H   0  0  0  0  0  0  0  0  0  0  0  0
  146.4964  131.1365  157.3462 H   0  0  0  0  0  0  0  0  0  0  0  0
  145.6439  130.6193  155.8920 H   0  0  0  0  0  0  0  0  0  0  0  0
  145.0190  133.0068  155.4096 H   0  0  0  0  0  0  0  0  0  0  0  0
  145.8648  133.5235  156.8654 H   0  0  0  0  0  0  0  0  0  0  0  0
  148.3164  132.9058  157.0502 H   0  0  0  0  0  0  0  0  0  0  0  0
  147.5411  135.4003  155.3834 H   0  0  0  0  0  0  0  0  0  0  0  0
  147.6972  135.2855  157.1812 H   0  0  0  0  0  0  0  0  0  0  0  0
  150.0891  134.7463  157.0274 H   0  0  0  0  0  0  0  0  0  0  0  0
  149.5020  136.4004  154.5784 H   0  0  0  0  0  0  0  0  0  0  0  0
  152.6754  138.0852  154.7507 H   0  0  0  0  0  0  0  0  0  0  0  0
  151.6811  137.3771  153.5203 H   0  0  0  0  0  0  0  0  0  0  0  0
  149.4521  137.9501  153.2564 H   0  0  0  0  0  0  0  0  0  0  0  0
  147.7328  139.7400  153.3218 H   0  0  0  0  0  0  0  0  0  0  0  0
  148.1224  141.7094  154.8692 H   0  0  0  0  0  0  0  0  0  0  0  0
  150.1137  141.8100  156.2313 H   0  0  0  0  0  0  0  0  0  0  0  0
  148.3490  134.0650  153.4149 H   0  0  0  0  0  0  0  0  0  0  0  0
  150.0843  134.2671  153.3139 H   0  0  0  0  0  0  0  0  0  0  0  0
  148.5152  131.7234  153.1335 H   0  0  0  0  0  0  0  0  0  0  0  0
  149.9623  132.1927  152.2504 H   0  0  0  0  0  0  0  0  0  0  0  0
  149.7856  130.6204  154.6606 H   0  0  0  0  0  0  0  0  0  0  0  0
  151.2792  131.1621  153.9066 H   0  0  0  0  0  0  0  0  0  0  0  0
  151.4985  132.9702  155.3470 H   0  0  0  0  0  0  0  0  0  0  0  0
  150.4738  132.0293  156.4082 H   0  0  0  0  0  0  0  0  0  0  0  0
  1  2  1  0  0  0  0
  1 23  1  0  0  0  0
  1 24  1  0  0  0  0
  1 25  1  0  0  0  0
  2  3  1  0  0  0  0
  2 26  1  0  0  0  0
  2 27  1  0  0  0  0
  3  4  1  0  0  0  0
  4 18  1  0  0  0  0
  4  5  1  0  0  0  0
  4 28  1  0  0  0  0
  5  6  1  0  0  0  0
  5 29  1  0  0  0  0
  5 30  1  0  0  0  0
  6  7  1  0  0  0  0
  6 18  1  0  0  0  0
  6 31  1  0  0  0  0
  7  8  1  0  0  0  0
  7 32  1  0  0  0  0
  8  9  2  0  0  0  0
  8 10  1  0  0  0  0
 10 11  1  0  0  0  0
 10 33  1  0  0  0  0
 10 34  1  0  0  0  0
 11 16  1  0  0  0  0
 11 12  1  0  0  0  0
 12 13  2  0  0  0  0
 12 35  1  0  0  0  0
 13 14  1  0  0  0  0
 13 36  1  0  0  0  0
 14 15  2  0  0  0  0
 14 37  1  0  0  0  0
 15 16  1  0  0  0  0
 15 38  1  0  0  0  0
 16 17  2  0  0  0  0
 18 22  1  0  0  0  0
 18 19  1  0  0  0  0
 19 20  1  0  0  0  0
 19 39  1  0  0  0  0
 19 40  1  0  0  0  0
 20 21  1  0  0  0  0
 20 41  1  0  0  0  0
 20 42  1  0  0  0  0
 21 22  1  0  0  0  0
 21 43  1  0  0  0  0
 21 44  1  0  0  0  0
 22 45  1  0  0  0  0
 22 46  1  0  0  0  0
M  END
> <s_m_source_file>
AV-unprocessed.smi

> <i_m_source_file_index>
690

> <i_lp_mmshare_version>
43012

> <i_f3d_flags>
0

> <s_epik_input>
W0NIMl0xW0NIMl1bQ0gyXVtDSDJdQzEyW0NASF0oT1tDSDJdW0NIM10pW0NIMl1bQ0BIXTJbTkhdQyg9TylbQ0gyXW4zW2NIXVtjSF1bY0hdW2NIXWMzPU8=

> <s_epik_cmdline>
J2VwaWtfcHl0aG9uJywgJy1waCcsICc3LjAnLCAnLXRuJywgJzgnLCAnLW1hJywgJzIwMCcsICctbWV0YWxfYmluZGluZycsICctaW1hZScsICc8aW5maWxlLm1hZT4nLCAnLW9tYWUnLCAnPG91dGZpbGUubWFlPic=

> <r_lp_tautomer_probability>
1

> <r_epik_Ionization_Penalty>
4.11691e-07

> <r_epik_Ionization_Penalty_Charging>
3.92797e-07

> <r_epik_Ionization_Penalty_Neutral>
1.88943e-08

> <r_epik_State_Penalty>
-0

> <r_epik_Charging_Adjusted_Penalty>
3.92797e-07

> <i_epik_Tot_Q>
0

> <i_epik_Tot_abs_Q>
0

> <r_epik_Metal_State_Penalty>
-0

> <b_epik_Metal_Only>
0

> <s_lp_Force_Field>
OPLS_2005

> <r_lp_Energy>
45.5322

> <b_lp_Chiralities_Consistent>
1

> <s_lp_Variant>
AV-unprocessed.smi:690-3

> <Gold.Version>
5.8.1

> <Gold.Id.Protein>
6NUR|6NUR_protein|mol2

> <Gold.PLP.Fitness>
41.6945

> <Gold.PLP.PLP>
-34.1640

> <Gold.PLP.part.hbond>
-2.0000

> <Gold.PLP.part.metal>
0.0000

> <Gold.PLP.part.buried>
0.8702

> <Gold.PLP.part.nonpolar>
-32.1988

> <Gold.PLP.part.repulsive>
0.0748

> <Gold.PLP.ligand.clash>
0.0000

> <Gold.PLP.ligand.torsion>
0.9243

> <Gold.PLP.Chemscore.Hbond>
2.0000

> <Gold.PLP.Chemscore.CHOScore>
1.0000

> <Gold.PLP.Chemscore.Metal>
0.0000

> <Gold.Chemscore.Hbonds>
donor molecule, donor type, donor heavy atom, donor atom, acceptor molecule, acceptor atom, score
      P1  H  7997  8010       L1    17  0.16
      P1  H 10752 10763       L1     9  0.98
      L1  C    12    35       P1  7948  1.00

> <Gold.PLP.Chemscore.Internal.Correction>
0.3791

> <Gold.Rescore>
     Score         DG    S(hbond)    S(metal)    S(lipo)     H(rot)  DE(clash)    DE(int)     intcor
     13.79     -14.78       1.76        0.00      66.12       1.69       0.07       0.93       ----

> <Gold.Chemscore.Fitness>
13.7881

> <Gold.Chemscore.DG>
-14.7830

> <Gold.Chemscore.ZeroCoef>
-5.4800

> <Gold.Chemscore.Hbond>
1.7645

> <Gold.Chemscore.Metal>
0.0000

> <Gold.Chemscore.Lipo>
66.1194

> <Gold.Chemscore.Internal_Hbond>
0.0000

> <Gold.Chemscore.DEClash>
0.0661

> <Gold.Chemscore.DEInternal>
0.9287

> <Gold.Chemscore.Rot>
1.6900

> <Gold.Chemscore.Internal.Correction>
   9.000000E+99

> <Gold.Chemscore.Hbonds>
donor molecule, donor type, donor heavy atom, donor atom, acceptor molecule, acceptor atom, score
      P1  H  7997  8010       L1    17  0.17
      P1  H 10752 10763       L1     9  0.37

> <Gold.Chemscore.Hbond.Weighted>
-5.8934

> <Gold.Chemscore.Metal.Weighted>
-0.0000

> <Gold.Chemscore.Lipo.Weighted>
-7.7360

> <Gold.Chemscore.Internal_Hbond.Weighted>
0.0000

> <Gold.Chemscore.DEClash.Weighted>
0.0661

> <Gold.Chemscore.DEInternal.Weighted>
0.9287

> <Gold.Chemscore.Rot.Weighted>
4.3265

> <Gold.Chemscore.Internal.Correction.Weighted>
   9.000000E+99

> <Gold.Protein.RotatedTorsions>
[ 6907 6896 6895 6894 ] final  -69.02 input  -60.11 | X-H torsion
[ 7974 7965 7964 7962 ] final   39.30 input  175.53 | X-H torsion
[ 8008 7997 7996 7995 ] final   68.85 input   59.86 | X-H torsion
[ 10167 10162 10161 10158 ] final   31.58 input  -65.29 | X-H torsion
[ 10718 10713 10712 10709 ] final  -23.80 input   66.30 | X-H torsion
[ 10763 10752 10751 10750 ] final  114.18 input  -60.55 | X-H torsion
[ 11005 11000 10999 10996 ] final  169.13 input  -57.11 | X-H torsion

> <Gold.Protein.ActiveResidues>
 VAL166  LYS551  ARG553  GLY616  TRP617  ASP618  TYR619  PRO620  LYS621  CYS622 
 ASP623  PHE694  ASN695  SER759  ASP760  ASP761  ALA762  ILE779  LEU786  VAL792 
 PHE793  MET794  SER795  GLU796  ALA797  LYS798  CYS799  TRP800  GLU811  SER814 

> <Gold.Protein.RotatedAtoms>
  150.7326  134.5656  159.5863 H   0  0  0  0  0  0  0  0  0  0  0  0  # atno 6907 bound_to 6896
  152.3108  134.7497  160.0346 H   0  0  0  0  0  0  0  0  0  0  0  0  # atno 6908 bound_to 6896
  151.8046  133.3338  159.3573 H   0  0  0  0  0  0  0  0  0  0  0  0  # atno 6909 bound_to 6896
  146.0995  139.5669  142.9423 H   0  0  0  0  0  0  0  0  0  0  0  0  # atno 7974 bound_to 7965
  155.7147  140.3494  155.4989 H   0  0  0  0  0  0  0  0  0  0  0  0  # atno 8008 bound_to 7997
  155.9324  140.1086  157.1143 H   0  0  0  0  0  0  0  0  0  0  0  0  # atno 8009 bound_to 7997
  154.4087  140.1228  156.4806 H   0  0  0  0  0  0  0  0  0  0  0  0  # atno 8010 bound_to 7997
  140.4576  144.0955  150.6205 H   0  0  0  0  0  0  0  0  0  0  0  0  # atno 10167 bound_to 10162
  156.4862  130.4556  149.6782 H   0  0  0  0  0  0  0  0  0  0  0  0  # atno 10718 bound_to 10713
  153.5035  135.3633  155.2552 H   0  0  0  0  0  0  0  0  0  0  0  0  # atno 10763 bound_to 10752
  154.8746  135.4005  154.3451 H   0  0  0  0  0  0  0  0  0  0  0  0  # atno 10764 bound_to 10752
  153.4091  135.7077  153.6438 H   0  0  0  0  0  0  0  0  0  0  0  0  # atno 10765 bound_to 10752
  140.2945  134.7646  157.3866 H   0  0  0  0  0  0  0  0  0  0  0  0  # atno 11005 bound_to 11000
  145.5882  141.0373  143.2085 LP  0  0  0  0  0  0  0  0  0  0  0  0  # atno 17320 bound_to 7965
  144.7422  139.7419  143.7306 LP  0  0  0  0  0  0  0  0  0  0  0  0  # atno 17321 bound_to 7965
  140.4132  143.2646  151.9806 LP  0  0  0  0  0  0  0  0  0  0  0  0  # atno 17342 bound_to 10162
  139.4803  144.5896  151.7794 LP  0  0  0  0  0  0  0  0  0  0  0  0  # atno 17343 bound_to 10162
  156.3472  130.7413  151.2367 LP  0  0  0  0  0  0  0  0  0  0  0  0  # atno 17370 bound_to 10713
  157.7478  131.0387  150.4516 LP  0  0  0  0  0  0  0  0  0  0  0  0  # atno 17371 bound_to 10713
  140.1165  134.5276  155.8220 LP  0  0  0  0  0  0  0  0  0  0  0  0  # atno 17394 bound_to 11000
  141.2140  133.6742  156.6786 LP  0  0  0  0  0  0  0  0  0  0  0  0  # atno 17395 bound_to 11000

$$$$
