AV-unprocessed.smi:2442|AV-procd|sdf|9627|dock8
  -GOLD-   2272013263D 1   1.00000     0.00000
 Structure written by MMmdl.
 47 48  0  0  0  0  0  0  0  0  2 V2000
  151.3635  137.6323  154.6829 C   0  0  0  0  0  0  0  0  0  0  0  0
  149.9505  137.7554  154.7171 O   0  0  0  0  0  0  0  0  0  0  0  0
  149.4562  138.9895  154.2086 C   0  0  2  0  0  0  0  0  0  0  0  0
  149.9696  140.1559  155.0797 C   0  0  0  0  0  0  0  0  0  0  0  0
  149.3461  141.4957  154.6616 C   0  0  0  0  0  0  0  0  0  0  0  0
  147.8137  141.4258  154.7023 C   0  0  0  0  0  0  0  0  0  0  0  0
  147.2929  140.2811  153.8211 C   0  0  0  0  0  0  0  0  0  0  0  0
  147.9110  138.9268  154.2202 C   0  0  1  0  0  0  0  0  0  0  0  0
  147.4432  137.9039  153.2874 N   0  0  0  0  0  0  0  0  0  0  0  0
  146.1607  137.6097  153.0330 C   0  0  0  0  0  0  0  0  0  0  0  0
  145.2003  138.1862  153.5443 O   0  0  0  0  0  0  0  0  0  0  0  0
  146.0474  136.6024  152.1563 N   0  0  0  0  0  0  0  0  0  0  0  0
  144.7819  136.0556  151.6813 C   0  0  0  0  0  0  0  0  0  0  0  0
  144.9902  135.0568  150.5295 C   0  0  0  0  0  0  0  0  0  0  0  0
  145.4335  133.6904  151.0283 C   0  0  0  0  0  0  0  0  0  0  0  0
  146.4881  133.6076  151.9652 C   0  0  0  0  0  0  0  0  0  0  0  0
  146.9079  132.3450  152.4286 C   0  0  0  0  0  0  0  0  0  0  0  0
  146.3014  131.2283  151.9745 N   0  3  0  0  0  0  0  0  0  0  0  0
  145.2912  131.2576  151.0791 C   0  0  0  0  0  0  0  0  0  0  0  0
  144.8237  132.4912  150.5747 C   0  0  0  0  0  0  0  0  0  0  0  0
  143.6856  132.4997  149.5691 C   0  0  0  0  0  0  0  0  0  0  0  0
  151.6508  136.6551  155.0703 H   0  0  0  0  0  0  0  0  0  0  0  0
  151.8541  138.3884  155.2955 H   0  0  0  0  0  0  0  0  0  0  0  0
  151.7402  137.7097  153.6622 H   0  0  0  0  0  0  0  0  0  0  0  0
  149.7887  139.1320  153.1782 H   0  0  0  0  0  0  0  0  0  0  0  0
  149.7344  139.9592  156.1266 H   0  0  0  0  0  0  0  0  0  0  0  0
  151.0546  140.2335  155.0174 H   0  0  0  0  0  0  0  0  0  0  0  0
  149.6995  142.2909  155.3185 H   0  0  0  0  0  0  0  0  0  0  0  0
  149.6755  141.7556  153.6546 H   0  0  0  0  0  0  0  0  0  0  0  0
  147.4802  141.2785  155.7302 H   0  0  0  0  0  0  0  0  0  0  0  0
  147.3884  142.3733  154.3706 H   0  0  0  0  0  0  0  0  0  0  0  0
  146.2055  140.2305  153.8931 H   0  0  0  0  0  0  0  0  0  0  0  0
  147.5227  140.5000  152.7771 H   0  0  0  0  0  0  0  0  0  0  0  0
  147.5761  138.6939  155.2331 H   0  0  0  0  0  0  0  0  0  0  0  0
  148.1546  137.3680  152.8127 H   0  0  0  0  0  0  0  0  0  0  0  0
  146.8929  136.1900  151.7896 H   0  0  0  0  0  0  0  0  0  0  0  0
  144.2535  135.5850  152.5116 H   0  0  0  0  0  0  0  0  0  0  0  0
  144.1558  136.8836  151.3476 H   0  0  0  0  0  0  0  0  0  0  0  0
  144.0601  134.9447  149.9704 H   0  0  0  0  0  0  0  0  0  0  0  0
  145.7169  135.4386  149.8123 H   0  0  0  0  0  0  0  0  0  0  0  0
  146.9732  134.5029  152.3262 H   0  0  0  0  0  0  0  0  0  0  0  0
  147.7043  132.1962  153.1430 H   0  0  0  0  0  0  0  0  0  0  0  0
  144.8898  130.2959  150.7945 H   0  0  0  0  0  0  0  0  0  0  0  0
  143.4348  131.4876  149.2498 H   0  0  0  0  0  0  0  0  0  0  0  0
  143.9538  133.0707  148.6803 H   0  0  0  0  0  0  0  0  0  0  0  0
  142.7924  132.9437  150.0093 H   0  0  0  0  0  0  0  0  0  0  0  0
  146.6196  130.3233  152.3225 H   0  0  0  0  0  0  0  0  0  0  0  0
  1  2  1  0  0  0  0
  1 22  1  0  0  0  0
  1 23  1  0  0  0  0
  1 24  1  0  0  0  0
  2  3  1  0  0  0  0
  3  8  1  0  0  0  0
  3  4  1  0  0  0  0
  3 25  1  0  0  0  0
  4  5  1  0  0  0  0
  4 26  1  0  0  0  0
  4 27  1  0  0  0  0
  5  6  1  0  0  0  0
  5 28  1  0  0  0  0
  5 29  1  0  0  0  0
  6  7  1  0  0  0  0
  6 30  1  0  0  0  0
  6 31  1  0  0  0  0
  7  8  1  0  0  0  0
  7 32  1  0  0  0  0
  7 33  1  0  0  0  0
  8  9  1  0  0  0  0
  8 34  1  0  0  0  0
  9 10  1  0  0  0  0
  9 35  1  0  0  0  0
 10 11  2  0  0  0  0
 10 12  1  0  0  0  0
 12 13  1  0  0  0  0
 12 36  1  0  0  0  0
 13 14  1  0  0  0  0
 13 37  1  0  0  0  0
 13 38  1  0  0  0  0
 14 15  1  0  0  0  0
 14 39  1  0  0  0  0
 14 40  1  0  0  0  0
 15 20  1  0  0  0  0
 15 16  2  0  0  0  0
 16 17  1  0  0  0  0
 16 41  1  0  0  0  0
 17 18  2  0  0  0  0
 17 42  1  0  0  0  0
 18 19  1  0  0  0  0
 18 47  1  0  0  0  0
 19 20  2  0  0  0  0
 19 43  1  0  0  0  0
 20 21  1  0  0  0  0
 21 44  1  0  0  0  0
 21 45  1  0  0  0  0
 21 46  1  0  0  0  0
M  CHG  1  18   1
M  END
> <s_m_source_file>
AV-unprocessed.smi

> <i_m_source_file_index>
2442

> <i_lp_mmshare_version>
43012

> <i_f3d_flags>
0

> <s_epik_input>
W0NIM11PW0NAQEhdMVtDSDJdW0NIMl1bQ0gyXVtDSDJdW0NASF0xW05IXUMoPU8pW05IXVtDSDJdW0NIMl1jMltjSF1bY0hdbltjSF1jMltDSDNd

> <s_epik_cmdline>
J2VwaWtfcHl0aG9uJywgJy1waCcsICc3LjAnLCAnLXRuJywgJzgnLCAnLW1hJywgJzIwMCcsICctbWV0YWxfYmluZGluZycsICctaW1hZScsICc8aW5maWxlLm1hZT4nLCAnLW9tYWUnLCAnPG91dGZpbGUubWFlPic=

> <r_epik_Ionization_Penalty>
1.07145

> <r_epik_Ionization_Penalty_Charging>
1.0714

> <r_epik_Ionization_Penalty_Neutral>
4.9109e-05

> <r_epik_State_Penalty>
1.12601

> <r_epik_Charging_Adjusted_Penalty>
2.19741

> <i_epik_Tot_Q>
1

> <i_epik_Tot_abs_Q>
1

> <r_epik_Metal_State_Penalty>
1.2173

> <b_epik_Metal_Only>
0

> <s_lp_Force_Field>
OPLS_2005

> <r_lp_Energy>
14.7728

> <b_lp_Chiralities_Consistent>
1

> <s_lp_Variant>
AV-unprocessed.smi:2442-5

> <Gold.Version>
5.8.1

> <Gold.Id.Protein>
6NUR|6NUR_protein|mol2

> <Gold.PLP.Fitness>
45.3711

> <Gold.PLP.PLP>
-40.0994

> <Gold.PLP.part.hbond>
-3.0000

> <Gold.PLP.part.metal>
0.0000

> <Gold.PLP.part.buried>
-3.6558

> <Gold.PLP.part.nonpolar>
-34.9273

> <Gold.PLP.part.repulsive>
0.9934

> <Gold.PLP.ligand.clash>
0.0000

> <Gold.PLP.ligand.torsion>
0.2678

> <Gold.PLP.Chemscore.Hbond>
1.9280

> <Gold.PLP.Chemscore.CHOScore>
0.0000

> <Gold.PLP.Chemscore.Metal>
0.0000

> <Gold.Chemscore.Hbonds>
donor molecule, donor type, donor heavy atom, donor atom, acceptor molecule, acceptor atom, score
      L1  H     9    35       P1  7948  1.00
      L1  H    12    36       P1  7948  0.90

> <Gold.PLP.Chemscore.Internal.Correction>
0.0233

> <Gold.Rescore>
     Score         DG    S(hbond)    S(metal)    S(lipo)     H(rot)  DE(clash)    DE(int)     intcor
     19.26     -19.84       1.91        0.00     106.03       1.72       0.26       0.32       ----

> <Gold.Chemscore.Fitness>
19.2605

> <Gold.Chemscore.DG>
-19.8444

> <Gold.Chemscore.ZeroCoef>
-5.4800

> <Gold.Chemscore.Hbond>
1.9082

> <Gold.Chemscore.Metal>
0.0000

> <Gold.Chemscore.Lipo>
106.0296

> <Gold.Chemscore.Internal_Hbond>
0.0000

> <Gold.Chemscore.DEClash>
0.2629

> <Gold.Chemscore.DEInternal>
0.3211

> <Gold.Chemscore.Rot>
1.7244

> <Gold.Chemscore.Internal.Correction>
   9.000000E+99

> <Gold.Chemscore.Hbonds>
donor molecule, donor type, donor heavy atom, donor atom, acceptor molecule, acceptor atom, score
      L1  H     9    35       P1  7948  1.00
      L1  H    12    36       P1  7948  0.83

> <Gold.Chemscore.Hbond.Weighted>
-6.3734

> <Gold.Chemscore.Metal.Weighted>
-0.0000

> <Gold.Chemscore.Lipo.Weighted>
-12.4055

> <Gold.Chemscore.Internal_Hbond.Weighted>
0.0000

> <Gold.Chemscore.DEClash.Weighted>
0.2629

> <Gold.Chemscore.DEInternal.Weighted>
0.3211

> <Gold.Chemscore.Rot.Weighted>
4.4145

> <Gold.Chemscore.Internal.Correction.Weighted>
   9.000000E+99

> <Gold.Protein.RotatedTorsions>
[ 6907 6896 6895 6894 ] final  -27.51 input  -60.11 | X-H torsion
[ 7974 7965 7964 7962 ] final  -30.02 input  175.53 | X-H torsion
[ 8008 7997 7996 7995 ] final   81.72 input   59.86 | X-H torsion
[ 10167 10162 10161 10158 ] final -145.81 input  -65.29 | X-H torsion
[ 10718 10713 10712 10709 ] final   -5.05 input   66.30 | X-H torsion
[ 10763 10752 10751 10750 ] final  129.69 input  -60.55 | X-H torsion
[ 11005 11000 10999 10996 ] final  -65.92 input  -57.11 | X-H torsion

> <Gold.Protein.ActiveResidues>
 VAL166  LYS551  ARG553  GLY616  TRP617  ASP618  TYR619  PRO620  LYS621  CYS622 
 ASP623  PHE694  ASN695  SER759  ASP760  ASP761  ALA762  ILE779  LEU786  VAL792 
 PHE793  MET794  SER795  GLU796  ALA797  LYS798  CYS799  TRP800  GLU811  SER814 

> <Gold.Protein.RotatedAtoms>
  151.1459  135.0203  159.8646 H   0  0  0  0  0  0  0  0  0  0  0  0  # atno 6907 bound_to 6896
  152.5453  134.1444  159.8502 H   0  0  0  0  0  0  0  0  0  0  0  0  # atno 6908 bound_to 6896
  151.1525  133.4852  159.2628 H   0  0  0  0  0  0  0  0  0  0  0  0  # atno 6909 bound_to 6896
  146.1174  140.5487  142.8751 H   0  0  0  0  0  0  0  0  0  0  0  0  # atno 7974 bound_to 7965
  155.9010  140.3433  155.6026 H   0  0  0  0  0  0  0  0  0  0  0  0  # atno 8008 bound_to 7997
  155.7500  140.0818  157.2224 H   0  0  0  0  0  0  0  0  0  0  0  0  # atno 8009 bound_to 7997
  154.4044  140.1555  156.2700 H   0  0  0  0  0  0  0  0  0  0  0  0  # atno 8010 bound_to 7997
  139.7771  143.8154  152.2633 H   0  0  0  0  0  0  0  0  0  0  0  0  # atno 10167 bound_to 10162
  156.7522  130.5243  149.5801 H   0  0  0  0  0  0  0  0  0  0  0  0  # atno 10718 bound_to 10713
  153.7458  135.3217  155.3312 H   0  0  0  0  0  0  0  0  0  0  0  0  # atno 10763 bound_to 10752
  154.8279  135.4555  154.0980 H   0  0  0  0  0  0  0  0  0  0  0  0  # atno 10764 bound_to 10752
  153.2169  135.6943  153.8129 H   0  0  0  0  0  0  0  0  0  0  0  0  # atno 10765 bound_to 10752
  141.1468  133.6690  156.6060 H   0  0  0  0  0  0  0  0  0  0  0  0  # atno 11005 bound_to 11000
  144.7565  140.5320  143.6765 LP  0  0  0  0  0  0  0  0  0  0  0  0  # atno 17320 bound_to 7965
  145.5538  139.1477  143.3379 LP  0  0  0  0  0  0  0  0  0  0  0  0  # atno 17321 bound_to 7965
  139.8206  144.7297  150.9578 LP  0  0  0  0  0  0  0  0  0  0  0  0  # atno 17342 bound_to 10162
  140.7817  143.4163  151.0912 LP  0  0  0  0  0  0  0  0  0  0  0  0  # atno 17343 bound_to 10162
  156.1393  130.6233  151.0445 LP  0  0  0  0  0  0  0  0  0  0  0  0  # atno 17370 bound_to 10713
  157.6772  131.0847  150.7464 LP  0  0  0  0  0  0  0  0  0  0  0  0  # atno 17371 bound_to 10713
  140.3651  134.7654  157.4561 LP  0  0  0  0  0  0  0  0  0  0  0  0  # atno 17394 bound_to 11000
  140.0754  134.5804  155.8597 LP  0  0  0  0  0  0  0  0  0  0  0  0  # atno 17395 bound_to 11000

$$$$
