AV-unprocessed.smi:415|AV-procd|sdf|2520|dock3
  -GOLD-   2262022473D 1   1.00000     0.00000
 Structure written by MMmdl.
 53 54  0  0  0  0  0  0  0  0  1 V2000
  147.5773  136.4079  162.6822 C   0  0  0  0  0  0  0  0  0  0  0  0
  147.8108  136.8908  161.3713 O   0  0  0  0  0  0  0  0  0  0  0  0
  147.3865  135.9802  160.3708 C   0  0  0  0  0  0  0  0  0  0  0  0
  147.2961  136.6946  159.0121 C   0  0  0  0  0  0  0  0  0  0  0  0
  148.4790  136.5095  158.1923 N   0  0  0  0  0  0  0  0  0  0  0  0
  148.4485  135.8856  156.9484 C   0  0  0  0  0  0  0  0  0  0  0  0
  147.2434  135.4350  156.4400 N   0  0  0  0  0  0  0  0  0  0  0  0
  149.5718  135.7180  156.2161 C   0  0  0  0  0  0  0  0  0  0  0  0
  150.8708  136.1812  156.6829 C   0  0  0  0  0  0  0  0  0  0  0  0
  151.9104  136.0073  156.0468 O   0  0  0  0  0  0  0  0  0  0  0  0
  150.8742  136.8402  157.9335 N   0  0  0  0  0  0  0  0  0  0  0  0
  152.1642  137.3239  158.4810 C   0  0  0  0  0  0  0  0  0  0  0  0
  152.5271  138.7686  158.0925 C   0  0  0  0  0  0  0  0  0  0  0  0
  153.0283  138.9857  156.9901 O   0  0  0  0  0  0  0  0  0  0  0  0
  152.2669  139.7435  158.9798 N   0  0  0  0  0  0  0  0  0  0  0  0
  152.4692  141.1742  158.7722 C   0  0  2  0  0  0  0  0  0  0  0  0
  153.4816  141.7067  159.8043 C   0  0  0  0  0  0  0  0  0  0  0  0
  153.6889  143.2160  159.6493 C   0  0  0  0  0  0  0  0  0  0  0  0
  152.3546  143.9598  159.7715 C   0  0  0  0  0  0  0  0  0  0  0  0
  151.3215  143.4622  158.7404 C   0  0  2  0  0  0  0  0  0  0  0  0
  150.0164  144.2646  158.8942 C   0  0  0  0  0  0  0  0  0  0  0  0
  151.1123  141.9252  158.8541 C   0  0  1  0  0  0  0  0  0  0  0  0
  150.1176  141.3940  157.7974 C   0  0  0  0  0  0  0  0  0  0  0  0
  149.7003  137.0217  158.7008 C   0  0  0  0  0  0  0  0  0  0  0  0
  149.7551  137.6001  159.7893 O   0  0  0  0  0  0  0  0  0  0  0  0
  147.9224  137.1424  163.4097 H   0  0  0  0  0  0  0  0  0  0  0  0
  148.1165  135.4769  162.8620 H   0  0  0  0  0  0  0  0  0  0  0  0
  146.5140  136.2363  162.8549 H   0  0  0  0  0  0  0  0  0  0  0  0
  148.1050  135.1627  160.3010 H   0  0  0  0  0  0  0  0  0  0  0  0
  146.4229  135.5424  160.6357 H   0  0  0  0  0  0  0  0  0  0  0  0
  146.4147  136.3967  158.4421 H   0  0  0  0  0  0  0  0  0  0  0  0
  147.1873  137.7704  159.1479 H   0  0  0  0  0  0  0  0  0  0  0  0
  146.3765  135.5449  156.9465 H   0  0  0  0  0  0  0  0  0  0  0  0
  147.1844  134.9583  155.5518 H   0  0  0  0  0  0  0  0  0  0  0  0
  149.5155  135.2251  155.2558 H   0  0  0  0  0  0  0  0  0  0  0  0
  152.1839  137.2536  159.5693 H   0  0  0  0  0  0  0  0  0  0  0  0
  152.9809  136.6724  158.1660 H   0  0  0  0  0  0  0  0  0  0  0  0
  151.8592  139.4716  159.8624 H   0  0  0  0  0  0  0  0  0  0  0  0
  152.8796  141.3284  157.7722 H   0  0  0  0  0  0  0  0  0  0  0  0
  153.1319  141.4889  160.8146 H   0  0  0  0  0  0  0  0  0  0  0  0
  154.4392  141.1970  159.6927 H   0  0  0  0  0  0  0  0  0  0  0  0
  154.3866  143.5755  160.4060 H   0  0  0  0  0  0  0  0  0  0  0  0
  154.1434  143.4287  158.6810 H   0  0  0  0  0  0  0  0  0  0  0  0
  151.9601  143.8336  160.7807 H   0  0  0  0  0  0  0  0  0  0  0  0
  152.5272  145.0287  159.6408 H   0  0  0  0  0  0  0  0  0  0  0  0
  151.7204  143.6753  157.7474 H   0  0  0  0  0  0  0  0  0  0  0  0
  149.5142  144.0296  159.8330 H   0  0  0  0  0  0  0  0  0  0  0  0
  149.3191  144.0691  158.0804 H   0  0  0  0  0  0  0  0  0  0  0  0
  150.2135  145.3370  158.8850 H   0  0  0  0  0  0  0  0  0  0  0  0
  150.6809  141.7226  159.8362 H   0  0  0  0  0  0  0  0  0  0  0  0
  150.4666  141.6050  156.7862 H   0  0  0  0  0  0  0  0  0  0  0  0
  149.1298  141.8384  157.9104 H   0  0  0  0  0  0  0  0  0  0  0  0
  149.9727  140.3166  157.8768 H   0  0  0  0  0  0  0  0  0  0  0  0
  1  2  1  0  0  0  0
  1 26  1  0  0  0  0
  1 27  1  0  0  0  0
  1 28  1  0  0  0  0
  2  3  1  0  0  0  0
  3  4  1  0  0  0  0
  3 29  1  0  0  0  0
  3 30  1  0  0  0  0
  4  5  1  0  0  0  0
  4 31  1  0  0  0  0
  4 32  1  0  0  0  0
  5 24  1  0  0  0  0
  5  6  1  0  0  0  0
  6  7  1  0  0  0  0
  6  8  2  0  0  0  0
  7 33  1  0  0  0  0
  7 34  1  0  0  0  0
  8  9  1  0  0  0  0
  8 35  1  0  0  0  0
  9 10  2  0  0  0  0
  9 11  1  0  0  0  0
 11 12  1  0  0  0  0
 11 24  1  0  0  0  0
 12 13  1  0  0  0  0
 12 36  1  0  0  0  0
 12 37  1  0  0  0  0
 13 14  2  0  0  0  0
 13 15  1  0  0  0  0
 15 16  1  0  0  0  0
 15 38  1  0  0  0  0
 16 22  1  0  0  0  0
 16 17  1  0  0  0  0
 16 39  1  0  0  0  0
 17 18  1  0  0  0  0
 17 40  1  0  0  0  0
 17 41  1  0  0  0  0
 18 19  1  0  0  0  0
 18 42  1  0  0  0  0
 18 43  1  0  0  0  0
 19 20  1  0  0  0  0
 19 44  1  0  0  0  0
 19 45  1  0  0  0  0
 20 21  1  0  0  0  0
 20 22  1  0  0  0  0
 20 46  1  0  0  0  0
 21 47  1  0  0  0  0
 21 48  1  0  0  0  0
 21 49  1  0  0  0  0
 22 23  1  0  0  0  0
 22 50  1  0  0  0  0
 23 51  1  0  0  0  0
 23 52  1  0  0  0  0
 23 53  1  0  0  0  0
 24 25  2  0  0  0  0
M  END
> <s_m_source_file>
AV-unprocessed.smi

> <i_m_source_file_index>
415

> <i_lp_mmshare_version>
43012

> <i_f3d_flags>
0

> <s_epik_input>
W0NIM11PW0NIMl1bQ0gyXW4xYyhbTkgyXSlbY0hdYyg9TyluKGMxPU8pW0NIMl1DKD1PKVtOSF1bQ0BASF0yW0NIMl1bQ0gyXVtDSDJdW0NAQEhdKFtDSDNdKVtDQEhdMltDSDNd

> <s_epik_cmdline>
J2VwaWtfcHl0aG9uJywgJy1waCcsICc3LjAnLCAnLXRuJywgJzgnLCAnLW1hJywgJzIwMCcsICctbWV0YWxfYmluZGluZycsICctaW1hZScsICc8aW5maWxlLm1hZT4nLCAnLW9tYWUnLCAnPG91dGZpbGUubWFlPic=

> <r_lp_tautomer_probability>
1

> <r_epik_Ionization_Penalty>
8.6647e-06

> <r_epik_Ionization_Penalty_Charging>
1.81162e-08

> <r_epik_Ionization_Penalty_Neutral>
8.64658e-06

> <r_epik_State_Penalty>
-0

> <r_epik_Charging_Adjusted_Penalty>
1.81162e-08

> <i_epik_Tot_Q>
0

> <i_epik_Tot_abs_Q>
0

> <r_epik_Metal_State_Penalty>
-0

> <b_epik_Metal_Only>
0

> <s_lp_Force_Field>
OPLS_2005

> <r_lp_Energy>
21.9512

> <b_lp_Chiralities_Consistent>
1

> <s_lp_Variant>
AV-unprocessed.smi:415-3

> <Gold.Version>
5.8.1

> <Gold.Id.Protein>
6NUR|6NUR_protein|mol2

> <Gold.PLP.Fitness>
44.5740

> <Gold.PLP.PLP>
-35.6477

> <Gold.PLP.part.hbond>
-5.1586

> <Gold.PLP.part.metal>
0.0000

> <Gold.PLP.part.buried>
-4.7995

> <Gold.PLP.part.nonpolar>
-25.5804

> <Gold.PLP.part.repulsive>
0.1400

> <Gold.PLP.ligand.clash>
0.0000

> <Gold.PLP.ligand.torsion>
0.9989

> <Gold.PLP.Chemscore.Hbond>
3.6188

> <Gold.PLP.Chemscore.CHOScore>
0.0000

> <Gold.PLP.Chemscore.Metal>
0.0000

> <Gold.Chemscore.Hbonds>
donor molecule, donor type, donor heavy atom, donor atom, acceptor molecule, acceptor atom, score
      P1  H  6931  6943       L1     2  0.75
      P1  H  6934  6947       L1     2  0.34
      P1  H  7997  8008       L1    14  0.96
      P1  H 10752 10763       L1    10  1.00

> <Gold.PLP.Chemscore.Internal.Correction>
0.0677

> <Gold.Rescore>
     Score         DG    S(hbond)    S(metal)    S(lipo)     H(rot)  DE(clash)    DE(int)     intcor
     17.84     -20.47       2.70        0.00     100.57       2.26       0.14       2.49       ----

> <Gold.Chemscore.Fitness>
17.8366

> <Gold.Chemscore.DG>
-20.4701

> <Gold.Chemscore.ZeroCoef>
-5.4800

> <Gold.Chemscore.Hbond>
2.7007

> <Gold.Chemscore.Metal>
0.0000

> <Gold.Chemscore.Lipo>
100.5733

> <Gold.Chemscore.Internal_Hbond>
0.0000

> <Gold.Chemscore.DEClash>
0.1424

> <Gold.Chemscore.DEInternal>
2.4911

> <Gold.Chemscore.Rot>
2.2645

> <Gold.Chemscore.Internal.Correction>
   9.000000E+99

> <Gold.Chemscore.Hbonds>
donor molecule, donor type, donor heavy atom, donor atom, acceptor molecule, acceptor atom, score
      P1  H  6931  6943       L1     2  0.09
      P1  H  6934  6947       L1     2  0.29
      P1  H  7997  8008       L1    14  0.87
      P1  H 10752 10763       L1    10  1.00

> <Gold.Chemscore.Hbond.Weighted>
-9.0202

> <Gold.Chemscore.Metal.Weighted>
-0.0000

> <Gold.Chemscore.Lipo.Weighted>
-11.7671

> <Gold.Chemscore.Internal_Hbond.Weighted>
0.0000

> <Gold.Chemscore.DEClash.Weighted>
0.1424

> <Gold.Chemscore.DEInternal.Weighted>
2.4911

> <Gold.Chemscore.Rot.Weighted>
5.7972

> <Gold.Chemscore.Internal.Correction.Weighted>
   9.000000E+99

> <Gold.Protein.RotatedTorsions>
[ 6907 6896 6895 6894 ] final -156.87 input  -60.11 | X-H torsion
[ 7974 7965 7964 7962 ] final  116.38 input  175.53 | X-H torsion
[ 8008 7997 7996 7995 ] final  -83.58 input   59.86 | X-H torsion
[ 10167 10162 10161 10158 ] final -128.73 input  -65.29 | X-H torsion
[ 10718 10713 10712 10709 ] final   37.67 input   66.30 | X-H torsion
[ 10763 10752 10751 10750 ] final   81.99 input  -60.55 | X-H torsion
[ 11005 11000 10999 10996 ] final -169.92 input  -57.11 | X-H torsion

> <Gold.Protein.ActiveResidues>
 VAL166  LYS551  ARG553  GLY616  TRP617  ASP618  TYR619  PRO620  LYS621  CYS622 
 ASP623  PHE694  ASN695  SER759  ASP760  ASP761  ALA762  ILE779  LEU786  VAL792 
 PHE793  MET794  SER795  GLU796  ALA797  LYS798  CYS799  TRP800  GLU811  SER814 

> <Gold.Protein.RotatedAtoms>
  151.2942  133.4151  159.2634 H   0  0  0  0  0  0  0  0  0  0  0  0  # atno 6907 bound_to 6896
  151.0251  134.9498  159.8091 H   0  0  0  0  0  0  0  0  0  0  0  0  # atno 6908 bound_to 6896
  152.5333  134.2904  159.9093 H   0  0  0  0  0  0  0  0  0  0  0  0  # atno 6909 bound_to 6896
  145.1803  139.3053  143.4421 H   0  0  0  0  0  0  0  0  0  0  0  0  # atno 7974 bound_to 7965
  154.6207  140.0617  156.9611 H   0  0  0  0  0  0  0  0  0  0  0  0  # atno 8008 bound_to 7997
  155.1823  140.3300  155.4354 H   0  0  0  0  0  0  0  0  0  0  0  0  # atno 8009 bound_to 7997
  156.2429  140.1895  156.6919 H   0  0  0  0  0  0  0  0  0  0  0  0  # atno 8010 bound_to 7997
  139.9472  143.6096  152.2486 H   0  0  0  0  0  0  0  0  0  0  0  0  # atno 10167 bound_to 10162
  157.3497  130.7592  149.6970 H   0  0  0  0  0  0  0  0  0  0  0  0  # atno 10718 bound_to 10713
  153.1164  135.4745  154.9122 H   0  0  0  0  0  0  0  0  0  0  0  0  # atno 10763 bound_to 10752
  154.7532  135.3111  154.8521 H   0  0  0  0  0  0  0  0  0  0  0  0  # atno 10764 bound_to 10752
  153.9096  135.6866  153.4805 H   0  0  0  0  0  0  0  0  0  0  0  0  # atno 10765 bound_to 10752
  140.5253  134.5669  157.5060 H   0  0  0  0  0  0  0  0  0  0  0  0  # atno 11005 bound_to 11000
  146.3454  140.1980  142.8589 LP  0  0  0  0  0  0  0  0  0  0  0  0  # atno 17320 bound_to 7965
  145.0143  140.8740  143.5205 LP  0  0  0  0  0  0  0  0  0  0  0  0  # atno 17321 bound_to 7965
  139.6657  144.7662  151.1878 LP  0  0  0  0  0  0  0  0  0  0  0  0  # atno 17342 bound_to 10162
  140.7593  143.5941  150.8766 LP  0  0  0  0  0  0  0  0  0  0  0  0  # atno 17343 bound_to 10162
  155.9719  130.4144  150.4130 LP  0  0  0  0  0  0  0  0  0  0  0  0  # atno 17370 bound_to 10713
  157.2191  131.0478  151.2556 LP  0  0  0  0  0  0  0  0  0  0  0  0  # atno 17371 bound_to 10713
  139.9583  134.7496  156.0292 LP  0  0  0  0  0  0  0  0  0  0  0  0  # atno 17394 bound_to 11000
  141.1311  133.6586  156.3468 LP  0  0  0  0  0  0  0  0  0  0  0  0  # atno 17395 bound_to 11000

$$$$
