AV-unprocessed.smi:1545|AV-procd|sdf|6215|dock5
  -GOLD-   22720 6383D 1   1.00000     0.00000
 Structure written by MMmdl.
 42 44  0  0  0  0  0  0  0  0  2 V2000
  148.4683  140.7445  153.1382 O   0  0  0  0  0  0  0  0  0  0  0  0
  147.1925  140.1965  153.3894 C   0  0  0  0  0  0  0  0  0  0  0  0
  146.8615  139.1316  152.3359 C   0  0  0  0  0  0  0  0  0  0  0  0
  145.5232  138.5933  152.5175 N   0  0  0  0  0  0  0  0  0  0  0  0
  145.3083  137.2254  152.3191 C   0  0  0  0  0  0  0  0  0  0  0  0
  146.2731  136.2826  152.1478 N   0  3  0  0  0  0  0  0  0  0  0  0
  145.6505  135.0441  151.9676 C   0  0  0  0  0  0  0  0  0  0  0  0
  146.1897  133.7796  151.7525 C   0  0  0  0  0  0  0  0  0  0  0  0
  145.2740  132.7174  151.6028 C   0  0  0  0  0  0  0  0  0  0  0  0
  143.8817  132.9313  151.6691 C   0  0  0  0  0  0  0  0  0  0  0  0
  143.3434  134.2163  151.8884 C   0  0  0  0  0  0  0  0  0  0  0  0
  144.2534  135.2623  152.0362 C   0  0  0  0  0  0  0  0  0  0  0  0
  144.0864  136.6346  152.2581 N   0  0  0  0  0  0  0  0  0  0  0  0
  142.7320  137.1978  152.3650 C   0  0  0  0  0  0  0  0  0  0  0  0
  142.0386  136.8151  153.6875 C   0  0  1  0  0  0  0  0  0  0  0  0
  142.8345  137.2873  154.7544 O   0  0  0  0  0  0  0  0  0  0  0  0
  140.6091  137.3338  153.7561 C   0  0  0  0  0  0  0  0  0  0  0  0
  139.5366  136.4593  154.0396 C   0  0  0  0  0  0  0  0  0  0  0  0
  138.2214  136.9549  154.1270 C   0  0  0  0  0  0  0  0  0  0  0  0
  137.9712  138.3275  153.9373 C   0  0  0  0  0  0  0  0  0  0  0  0
  139.0367  139.2045  153.6594 C   0  0  0  0  0  0  0  0  0  0  0  0
  138.7987  140.5259  153.4850 F   0  0  0  0  0  0  0  0  0  0  0  0
  140.3514  138.7087  153.5665 C   0  0  0  0  0  0  0  0  0  0  0  0
  148.9095  140.2007  152.5034 H   0  0  0  0  0  0  0  0  0  0  0  0
  147.2247  139.7361  154.3770 H   0  0  0  0  0  0  0  0  0  0  0  0
  146.4365  140.9821  153.4259 H   0  0  0  0  0  0  0  0  0  0  0  0
  146.9839  139.5304  151.3278 H   0  0  0  0  0  0  0  0  0  0  0  0
  147.5644  138.3041  152.4387 H   0  0  0  0  0  0  0  0  0  0  0  0
  144.7384  139.2280  152.5619 H   0  0  0  0  0  0  0  0  0  0  0  0
  147.2556  133.6116  151.7002 H   0  0  0  0  0  0  0  0  0  0  0  0
  145.6473  131.7179  151.4332 H   0  0  0  0  0  0  0  0  0  0  0  0
  143.2120  132.0920  151.5493 H   0  0  0  0  0  0  0  0  0  0  0  0
  142.2754  134.3695  151.9367 H   0  0  0  0  0  0  0  0  0  0  0  0
  142.8062  138.2811  152.2614 H   0  0  0  0  0  0  0  0  0  0  0  0
  142.1522  136.8477  151.5100 H   0  0  0  0  0  0  0  0  0  0  0  0
  142.0174  135.7285  153.7794 H   0  0  0  0  0  0  0  0  0  0  0  0
  143.6759  136.8585  154.7142 H   0  0  0  0  0  0  0  0  0  0  0  0
  139.7194  135.4065  154.1980 H   0  0  0  0  0  0  0  0  0  0  0  0
  137.4046  136.2835  154.3468 H   0  0  0  0  0  0  0  0  0  0  0  0
  136.9631  138.7080  154.0102 H   0  0  0  0  0  0  0  0  0  0  0  0
  141.1639  139.3901  153.3607 H   0  0  0  0  0  0  0  0  0  0  0  0
  147.2670  136.4711  152.1502 H   0  0  0  0  0  0  0  0  0  0  0  0
  1  2  1  0  0  0  0
  1 24  1  0  0  0  0
  2  3  1  0  0  0  0
  2 25  1  0  0  0  0
  2 26  1  0  0  0  0
  3  4  1  0  0  0  0
  3 27  1  0  0  0  0
  3 28  1  0  0  0  0
  4  5  1  0  0  0  0
  4 29  1  0  0  0  0
  5 13  1  0  0  0  0
  5  6  2  0  0  0  0
  6  7  1  0  0  0  0
  6 42  1  0  0  0  0
  7 12  2  0  0  0  0
  7  8  1  0  0  0  0
  8  9  2  0  0  0  0
  8 30  1  0  0  0  0
  9 10  1  0  0  0  0
  9 31  1  0  0  0  0
 10 11  2  0  0  0  0
 10 32  1  0  0  0  0
 11 12  1  0  0  0  0
 11 33  1  0  0  0  0
 12 13  1  0  0  0  0
 13 14  1  0  0  0  0
 14 15  1  0  0  0  0
 14 34  1  0  0  0  0
 14 35  1  0  0  0  0
 15 16  1  0  0  0  0
 15 17  1  0  0  0  0
 15 36  1  0  0  0  0
 16 37  1  0  0  0  0
 17 23  1  0  0  0  0
 17 18  2  0  0  0  0
 18 19  1  0  0  0  0
 18 38  1  0  0  0  0
 19 20  2  0  0  0  0
 19 39  1  0  0  0  0
 20 21  1  0  0  0  0
 20 40  1  0  0  0  0
 21 22  1  0  0  0  0
 21 23  2  0  0  0  0
 23 41  1  0  0  0  0
M  CHG  1   6   1
M  END
> <s_m_source_file>
AV-unprocessed.smi

> <i_m_source_file_index>
1545

> <i_lp_mmshare_version>
43012

> <i_f3d_flags>
0

> <s_epik_input>
W09IXVtDSDJdW0NIMl1bTkhdYyhuMSluKGMoYzEyKVtjSF1bY0hdW2NIXVtjSF0yKVtDSDJdW0NASF0oW09IXSljM1tjSF1bY0hdW2NIXWMoRilbY0hdMw==

> <s_epik_cmdline>
J2VwaWtfcHl0aG9uJywgJy1waCcsICc3LjAnLCAnLXRuJywgJzgnLCAnLW1hJywgJzIwMCcsICctbWV0YWxfYmluZGluZycsICctaW1hZScsICc8aW5maWxlLm1hZT4nLCAnLW9tYWUnLCAnPG91dGZpbGUubWFlPic=

> <r_epik_Ionization_Penalty>
0.0688114

> <r_epik_Ionization_Penalty_Charging>
0.0688055

> <r_epik_Ionization_Penalty_Neutral>
5.85933e-06

> <r_epik_State_Penalty>
0.0602293

> <r_epik_Charging_Adjusted_Penalty>
0.129035

> <i_epik_Tot_Q>
1

> <i_epik_Tot_abs_Q>
1

> <r_epik_Metal_State_Penalty>
2.77411

> <b_epik_Metal_Only>
0

> <s_lp_Force_Field>
OPLS_2005

> <r_lp_Energy>
23.1511

> <b_lp_Chiralities_Consistent>
1

> <s_lp_Variant>
AV-unprocessed.smi:1545-2

> <Gold.Version>
5.8.1

> <Gold.Id.Protein>
6NUR|6NUR_protein|mol2

> <Gold.PLP.Fitness>
57.1099

> <Gold.PLP.PLP>
-42.5828

> <Gold.PLP.part.hbond>
-3.2987

> <Gold.PLP.part.metal>
0.0000

> <Gold.PLP.part.buried>
-3.9229

> <Gold.PLP.part.nonpolar>
-35.7923

> <Gold.PLP.part.repulsive>
0.0441

> <Gold.PLP.ligand.clash>
0.0000

> <Gold.PLP.ligand.torsion>
0.3717

> <Gold.PLP.Chemscore.Hbond>
5.0773

> <Gold.PLP.Chemscore.CHOScore>
0.0000

> <Gold.PLP.Chemscore.Metal>
0.0000

> <Gold.Chemscore.Hbonds>
donor molecule, donor type, donor heavy atom, donor atom, acceptor molecule, acceptor atom, score
      L1  H     1    24       P1  7957  0.97
      L1  H     4    29       P1 10175  2.00
      L1  H     6    42       P1  7948  2.00
      P1  H  8011  8017       L1     1  0.10

> <Gold.PLP.Chemscore.Internal.Correction>
0.0385

> <Gold.Rescore>
     Score         DG    S(hbond)    S(metal)    S(lipo)     H(rot)  DE(clash)    DE(int)     intcor
     17.90     -19.19       2.95        0.00     101.87       3.15       0.86       0.42       ----

> <Gold.Chemscore.Fitness>
17.9037

> <Gold.Chemscore.DG>
-19.1865

> <Gold.Chemscore.ZeroCoef>
-5.4800

> <Gold.Chemscore.Hbond>
2.9501

> <Gold.Chemscore.Metal>
0.0000

> <Gold.Chemscore.Lipo>
101.8679

> <Gold.Chemscore.Internal_Hbond>
0.0000

> <Gold.Chemscore.DEClash>
0.8627

> <Gold.Chemscore.DEInternal>
0.4201

> <Gold.Chemscore.Rot>
3.1505

> <Gold.Chemscore.Internal.Correction>
   9.000000E+99

> <Gold.Chemscore.Hbonds>
donor molecule, donor type, donor heavy atom, donor atom, acceptor molecule, acceptor atom, score
      L1  H     1    24       P1  7957  0.86
      L1  H     4    29       P1 10175  0.99
      L1  H     6    42       P1  7948  0.99

> <Gold.Chemscore.Hbond.Weighted>
-9.8532

> <Gold.Chemscore.Metal.Weighted>
-0.0000

> <Gold.Chemscore.Lipo.Weighted>
-11.9185

> <Gold.Chemscore.Internal_Hbond.Weighted>
0.0000

> <Gold.Chemscore.DEClash.Weighted>
0.8627

> <Gold.Chemscore.DEInternal.Weighted>
0.4201

> <Gold.Chemscore.Rot.Weighted>
8.0652

> <Gold.Chemscore.Internal.Correction.Weighted>
   9.000000E+99

> <Gold.Protein.RotatedTorsions>
[ 6907 6896 6895 6894 ] final  155.70 input  -60.11 | X-H torsion
[ 7974 7965 7964 7962 ] final -168.93 input  175.53 | X-H torsion
[ 8008 7997 7996 7995 ] final   64.34 input   59.86 | X-H torsion
[ 10167 10162 10161 10158 ] final   45.38 input  -65.29 | X-H torsion
[ 10718 10713 10712 10709 ] final  -88.06 input   66.30 | X-H torsion
[ 10763 10752 10751 10750 ] final  -93.40 input  -60.55 | X-H torsion
[ 11005 11000 10999 10996 ] final  119.27 input  -57.11 | X-H torsion

> <Gold.Protein.ActiveResidues>
 VAL166  LYS551  ARG553  GLY616  TRP617  ASP618  TYR619  PRO620  LYS621  CYS622 
 ASP623  PHE694  ASN695  SER759  ASP760  ASP761  ALA762  ILE779  LEU786  VAL792 
 PHE793  MET794  SER795  GLU796  ALA797  LYS798  CYS799  TRP800  GLU811  SER814 

> <Gold.Protein.RotatedAtoms>
  152.0404  133.3975  159.4334 H   0  0  0  0  0  0  0  0  0  0  0  0  # atno 6907 bound_to 6896
  150.6876  134.3421  159.4882 H   0  0  0  0  0  0  0  0  0  0  0  0  # atno 6908 bound_to 6896
  152.1219  134.9199  160.0613 H   0  0  0  0  0  0  0  0  0  0  0  0  # atno 6909 bound_to 6896
  144.7194  140.2297  143.6305 H   0  0  0  0  0  0  0  0  0  0  0  0  # atno 7974 bound_to 7965
  155.6445  140.3497  155.4726 H   0  0  0  0  0  0  0  0  0  0  0  0  # atno 8008 bound_to 7997
  155.9899  140.1191  157.0672 H   0  0  0  0  0  0  0  0  0  0  0  0  # atno 8009 bound_to 7997
  154.4216  140.1121  156.5537 H   0  0  0  0  0  0  0  0  0  0  0  0  # atno 8010 bound_to 7997
  140.3247  144.2662  150.6177 H   0  0  0  0  0  0  0  0  0  0  0  0  # atno 10167 bound_to 10162
  155.9984  130.4822  150.4961 H   0  0  0  0  0  0  0  0  0  0  0  0  # atno 10718 bound_to 10713
  154.6955  135.5196  153.8452 H   0  0  0  0  0  0  0  0  0  0  0  0  # atno 10763 bound_to 10752
  153.0664  135.6586  154.0355 H   0  0  0  0  0  0  0  0  0  0  0  0  # atno 10764 bound_to 10752
  154.0222  135.2992  155.3359 H   0  0  0  0  0  0  0  0  0  0  0  0  # atno 10765 bound_to 10752
  139.9140  134.9627  156.7629 H   0  0  0  0  0  0  0  0  0  0  0  0  # atno 11005 bound_to 11000
  145.8422  139.2135  143.1821 LP  0  0  0  0  0  0  0  0  0  0  0  0  # atno 17320 bound_to 7965
  146.0336  140.8234  142.9864 LP  0  0  0  0  0  0  0  0  0  0  0  0  # atno 17321 bound_to 7965
  140.5451  143.2216  151.8020 LP  0  0  0  0  0  0  0  0  0  0  0  0  # atno 17342 bound_to 10162
  139.4867  144.4549  151.9610 LP  0  0  0  0  0  0  0  0  0  0  0  0  # atno 17343 bound_to 10162
  157.2951  131.0634  151.2107 LP  0  0  0  0  0  0  0  0  0  0  0  0  # atno 17370 bound_to 10713
  157.3106  130.6888  149.6214 LP  0  0  0  0  0  0  0  0  0  0  0  0  # atno 17371 bound_to 10713
  140.6682  133.9583  155.7842 LP  0  0  0  0  0  0  0  0  0  0  0  0  # atno 17394 bound_to 11000
  141.0596  134.0366  157.3677 LP  0  0  0  0  0  0  0  0  0  0  0  0  # atno 17395 bound_to 11000

$$$$
