AV-unprocessed.smi:2276|AV-procd|sdf|9175|dock8
  -GOLD-   2272012393D 1   1.00000     0.00000
 Structure written by MMmdl.
 53 54  0  0  0  0  0  0  0  0  2 V2000
  151.8831  145.7761  160.6433 C   0  0  0  0  0  0  0  0  0  0  0  0
  151.9295  144.4347  159.9420 C   0  0  0  0  0  0  0  0  0  0  0  0
  152.7825  143.4105  160.3957 C   0  0  0  0  0  0  0  0  0  0  0  0
  152.7800  142.1860  159.6994 C   0  0  0  0  0  0  0  0  0  0  0  0
  153.6691  141.0398  160.1341 C   0  0  0  0  0  0  0  0  0  0  0  0
  152.0016  141.9534  158.6209 N   0  0  0  0  0  0  0  0  0  0  0  0
  151.1758  142.9323  158.1753 C   0  0  0  0  0  0  0  0  0  0  0  0
  150.3182  142.7888  157.0525 N   0  0  0  0  0  0  0  0  0  0  0  0
  150.2275  141.7495  156.2041 C   0  0  0  0  0  0  0  0  0  0  0  0
  150.8941  140.7162  156.2677 O   0  0  0  0  0  0  0  0  0  0  0  0
  149.3112  141.9777  155.2518 N   0  0  0  0  0  0  0  0  0  0  0  0
  148.9708  141.0529  154.1740 C   0  0  0  0  0  0  0  0  0  0  0  0
  147.4709  140.6800  154.1453 C   0  0  1  0  0  0  0  0  0  0  0  0
  146.6143  141.9552  154.0693 C   0  0  0  0  0  0  0  0  0  0  0  0
  147.1357  139.7107  152.9872 C   0  0  0  0  0  0  0  0  0  0  0  0
  145.9298  138.8870  153.2558 N   0  3  0  0  0  0  0  0  0  0  0  0
  145.8040  138.4638  154.6734 C   0  0  0  0  0  0  0  0  0  0  0  0
  144.4901  137.6845  154.8917 C   0  0  0  0  0  0  0  0  0  0  0  0
  144.3830  136.5210  154.0098 N   0  0  0  0  0  0  0  0  0  0  0  0
  145.2886  135.4380  154.3773 C   0  0  0  0  0  0  0  0  0  0  0  0
  144.5224  136.9382  152.6136 C   0  0  0  0  0  0  0  0  0  0  0  0
  145.8375  137.7063  152.3639 C   0  0  0  0  0  0  0  0  0  0  0  0
  151.1173  144.1901  158.8162 C   0  0  0  0  0  0  0  0  0  0  0  0
  152.4073  145.7416  161.5989 H   0  0  0  0  0  0  0  0  0  0  0  0
  150.8505  146.0700  160.8330 H   0  0  0  0  0  0  0  0  0  0  0  0
  152.3508  146.5413  160.0235 H   0  0  0  0  0  0  0  0  0  0  0  0
  153.4205  143.5591  161.2547 H   0  0  0  0  0  0  0  0  0  0  0  0
  154.2849  141.3187  160.9894 H   0  0  0  0  0  0  0  0  0  0  0  0
  154.3316  140.7434  159.3203 H   0  0  0  0  0  0  0  0  0  0  0  0
  153.0641  140.1778  160.4166 H   0  0  0  0  0  0  0  0  0  0  0  0
  149.7041  143.5697  156.8753 H   0  0  0  0  0  0  0  0  0  0  0  0
  148.8040  142.8502  155.2797 H   0  0  0  0  0  0  0  0  0  0  0  0
  149.2704  141.4930  153.2212 H   0  0  0  0  0  0  0  0  0  0  0  0
  149.5758  140.1542  154.2989 H   0  0  0  0  0  0  0  0  0  0  0  0
  147.2404  140.1961  155.0937 H   0  0  0  0  0  0  0  0  0  0  0  0
  146.7844  142.4933  153.1361 H   0  0  0  0  0  0  0  0  0  0  0  0
  146.8483  142.6339  154.8902 H   0  0  0  0  0  0  0  0  0  0  0  0
  145.5502  141.7275  154.1330 H   0  0  0  0  0  0  0  0  0  0  0  0
  146.9832  140.3016  152.0828 H   0  0  0  0  0  0  0  0  0  0  0  0
  147.9699  139.0424  152.7711 H   0  0  0  0  0  0  0  0  0  0  0  0
  146.6671  137.8639  154.9645 H   0  0  0  0  0  0  0  0  0  0  0  0
  145.8030  139.3359  155.3261 H   0  0  0  0  0  0  0  0  0  0  0  0
  144.4047  137.3655  155.9312 H   0  0  0  0  0  0  0  0  0  0  0  0
  143.6414  138.3429  154.7011 H   0  0  0  0  0  0  0  0  0  0  0  0
  145.1207  134.5728  153.7351 H   0  0  0  0  0  0  0  0  0  0  0  0
  145.1048  135.1254  155.4056 H   0  0  0  0  0  0  0  0  0  0  0  0
  146.3372  135.7208  154.2939 H   0  0  0  0  0  0  0  0  0  0  0  0
  144.4614  136.0652  151.9624 H   0  0  0  0  0  0  0  0  0  0  0  0
  143.6748  137.5748  152.3557 H   0  0  0  0  0  0  0  0  0  0  0  0
  145.8608  138.0356  151.3245 H   0  0  0  0  0  0  0  0  0  0  0  0
  146.7057  137.0612  152.5050 H   0  0  0  0  0  0  0  0  0  0  0  0
  150.4558  144.9628  158.4515 H   0  0  0  0  0  0  0  0  0  0  0  0
  145.1286  139.4644  153.0439 H   0  0  0  0  0  0  0  0  0  0  0  0
  1  2  1  0  0  0  0
  1 24  1  0  0  0  0
  1 25  1  0  0  0  0
  1 26  1  0  0  0  0
  2 23  1  0  0  0  0
  2  3  2  0  0  0  0
  3  4  1  0  0  0  0
  3 27  1  0  0  0  0
  4  5  1  0  0  0  0
  4  6  2  0  0  0  0
  5 28  1  0  0  0  0
  5 29  1  0  0  0  0
  5 30  1  0  0  0  0
  6  7  1  0  0  0  0
  7  8  1  0  0  0  0
  7 23  2  0  0  0  0
  8  9  1  0  0  0  0
  8 31  1  0  0  0  0
  9 10  2  0  0  0  0
  9 11  1  0  0  0  0
 11 12  1  0  0  0  0
 11 32  1  0  0  0  0
 12 13  1  0  0  0  0
 12 33  1  0  0  0  0
 12 34  1  0  0  0  0
 13 14  1  0  0  0  0
 13 15  1  0  0  0  0
 13 35  1  0  0  0  0
 14 36  1  0  0  0  0
 14 37  1  0  0  0  0
 14 38  1  0  0  0  0
 15 16  1  0  0  0  0
 15 39  1  0  0  0  0
 15 40  1  0  0  0  0
 16 22  1  0  0  0  0
 16 17  1  0  0  0  0
 16 53  1  0  0  0  0
 17 18  1  0  0  0  0
 17 41  1  0  0  0  0
 17 42  1  0  0  0  0
 18 19  1  0  0  0  0
 18 43  1  0  0  0  0
 18 44  1  0  0  0  0
 19 20  1  0  0  0  0
 19 21  1  0  0  0  0
 20 45  1  0  0  0  0
 20 46  1  0  0  0  0
 20 47  1  0  0  0  0
 21 22  1  0  0  0  0
 21 48  1  0  0  0  0
 21 49  1  0  0  0  0
 22 50  1  0  0  0  0
 22 51  1  0  0  0  0
 23 52  1  0  0  0  0
M  CHG  1  16   1
M  END
> <s_m_source_file>
AV-unprocessed.smi

> <i_m_source_file_index>
2276

> <i_lp_mmshare_version>
43012

> <i_f3d_flags>
0

> <s_epik_input>
W0NIM11jMVtjSF1jKFtDSDNdKW5jKFtjSF0xKVtOSF1DKD1PKVtOSF1bQ0gyXVtDQEhdKFtDSDNdKVtDSDJdTjJbQ0gyXVtDSDJdTihbQ0gzXSlbQ0gyXVtDSDJdMg==

> <s_epik_cmdline>
J2VwaWtfcHl0aG9uJywgJy1waCcsICc3LjAnLCAnLXRuJywgJzgnLCAnLW1hJywgJzIwMCcsICctbWV0YWxfYmluZGluZycsICctaW1hZScsICc8aW5maWxlLm1hZT4nLCAnLW9tYWUnLCAnPG91dGZpbGUubWFlPic=

> <r_epik_Ionization_Penalty>
0.0485334

> <r_epik_Ionization_Penalty_Charging>
0.0462531

> <r_epik_Ionization_Penalty_Neutral>
0.00228028

> <r_epik_State_Penalty>
0.692588

> <r_epik_Charging_Adjusted_Penalty>
0.738841

> <i_epik_Tot_Q>
1

> <i_epik_Tot_abs_Q>
1

> <r_epik_Metal_State_Penalty>
0.692605

> <b_epik_Metal_Only>
0

> <s_lp_Force_Field>
OPLS_2005

> <r_lp_Energy>
21.6891

> <b_lp_Chiralities_Consistent>
1

> <s_lp_Variant>
AV-unprocessed.smi:2276-4

> <Gold.Version>
5.8.1

> <Gold.Id.Protein>
6NUR|6NUR_protein|mol2

> <Gold.PLP.Fitness>
56.7304

> <Gold.PLP.PLP>
-45.5453

> <Gold.PLP.part.hbond>
-3.0000

> <Gold.PLP.part.metal>
0.0000

> <Gold.PLP.part.buried>
-3.8965

> <Gold.PLP.part.nonpolar>
-39.3771

> <Gold.PLP.part.repulsive>
0.3171

> <Gold.PLP.ligand.clash>
0.0000

> <Gold.PLP.ligand.torsion>
0.4533

> <Gold.PLP.Chemscore.Hbond>
4.0000

> <Gold.PLP.Chemscore.CHOScore>
0.0000

> <Gold.PLP.Chemscore.Metal>
0.0000

> <Gold.Chemscore.Hbonds>
donor molecule, donor type, donor heavy atom, donor atom, acceptor molecule, acceptor atom, score
      L1  H     8    31       P1  8028  1.00
      L1  H    11    32       P1  8028  0.94
      L1  H    16    53       P1 10175  2.00

> <Gold.PLP.Chemscore.Internal.Correction>
0.0917

> <Gold.Rescore>
     Score         DG    S(hbond)    S(metal)    S(lipo)     H(rot)  DE(clash)    DE(int)     intcor
     22.40     -24.17       2.93        0.00     111.83       1.63       0.07       1.70       ----

> <Gold.Chemscore.Fitness>
22.3970

> <Gold.Chemscore.DG>
-24.1680

> <Gold.Chemscore.ZeroCoef>
-5.4800

> <Gold.Chemscore.Hbond>
2.9257

> <Gold.Chemscore.Metal>
0.0000

> <Gold.Chemscore.Lipo>
111.8307

> <Gold.Chemscore.Internal_Hbond>
0.0000

> <Gold.Chemscore.DEClash>
0.0720

> <Gold.Chemscore.DEInternal>
1.6990

> <Gold.Chemscore.Rot>
1.6282

> <Gold.Chemscore.Internal.Correction>
   9.000000E+99

> <Gold.Chemscore.Hbonds>
donor molecule, donor type, donor heavy atom, donor atom, acceptor molecule, acceptor atom, score
      L1  H     8    31       P1  8028  0.93
      L1  H    11    32       P1  8028  0.91
      L1  H    16    53       P1 10175  1.00

> <Gold.Chemscore.Hbond.Weighted>
-9.7720

> <Gold.Chemscore.Metal.Weighted>
-0.0000

> <Gold.Chemscore.Lipo.Weighted>
-13.0842

> <Gold.Chemscore.Internal_Hbond.Weighted>
0.0000

> <Gold.Chemscore.DEClash.Weighted>
0.0720

> <Gold.Chemscore.DEInternal.Weighted>
1.6990

> <Gold.Chemscore.Rot.Weighted>
4.1682

> <Gold.Chemscore.Internal.Correction.Weighted>
   9.000000E+99

> <Gold.Protein.RotatedTorsions>
[ 6907 6896 6895 6894 ] final   -3.86 input  -60.11 | X-H torsion
[ 7974 7965 7964 7962 ] final  -75.05 input  175.53 | X-H torsion
[ 8008 7997 7996 7995 ] final  123.37 input   59.86 | X-H torsion
[ 10167 10162 10161 10158 ] final  -94.98 input  -65.29 | X-H torsion
[ 10718 10713 10712 10709 ] final -178.06 input   66.30 | X-H torsion
[ 10763 10752 10751 10750 ] final  139.39 input  -60.55 | X-H torsion
[ 11005 11000 10999 10996 ] final -136.17 input  -57.11 | X-H torsion

> <Gold.Protein.ActiveResidues>
 VAL166  LYS551  ARG553  GLY616  TRP617  ASP618  TYR619  PRO620  LYS621  CYS622 
 ASP623  PHE694  ASN695  SER759  ASP760  ASP761  ALA762  ILE779  LEU786  VAL792 
 PHE793  MET794  SER795  GLU796  ALA797  LYS798  CYS799  TRP800  GLU811  SER814 

> <Gold.Protein.RotatedAtoms>
  151.5069  135.1064  159.9843 H   0  0  0  0  0  0  0  0  0  0  0  0  # atno 6907 bound_to 6896
  152.4678  133.7958  159.6937 H   0  0  0  0  0  0  0  0  0  0  0  0  # atno 6908 bound_to 6896
  150.8671  133.7496  159.2999 H   0  0  0  0  0  0  0  0  0  0  0  0  # atno 6909 bound_to 6896
  145.6311  140.9337  143.1086 H   0  0  0  0  0  0  0  0  0  0  0  0  # atno 7974 bound_to 7965
  156.2763  140.2764  156.1617 H   0  0  0  0  0  0  0  0  0  0  0  0  # atno 8008 bound_to 7997
  155.0747  140.0387  157.2637 H   0  0  0  0  0  0  0  0  0  0  0  0  # atno 8009 bound_to 7997
  154.7012  140.2649  155.6723 H   0  0  0  0  0  0  0  0  0  0  0  0  # atno 8010 bound_to 7997
  140.3088  143.3117  152.0170 H   0  0  0  0  0  0  0  0  0  0  0  0  # atno 10167 bound_to 10162
  156.8387  130.9678  151.3101 H   0  0  0  0  0  0  0  0  0  0  0  0  # atno 10718 bound_to 10713
  153.9053  135.3017  155.3448 H   0  0  0  0  0  0  0  0  0  0  0  0  # atno 10763 bound_to 10752
  154.7650  135.4915  153.9540 H   0  0  0  0  0  0  0  0  0  0  0  0  # atno 10764 bound_to 10752
  153.1222  135.6785  153.9417 H   0  0  0  0  0  0  0  0  0  0  0  0  # atno 10765 bound_to 10752
  140.8830  134.1907  157.4578 H   0  0  0  0  0  0  0  0  0  0  0  0  # atno 11005 bound_to 11000
  144.7193  139.8085  143.7387 LP  0  0  0  0  0  0  0  0  0  0  0  0  # atno 17320 bound_to 7965
  146.1356  139.4400  143.0141 LP  0  0  0  0  0  0  0  0  0  0  0  0  # atno 17321 bound_to 7965
  139.4898  144.6400  151.6896 LP  0  0  0  0  0  0  0  0  0  0  0  0  # atno 17342 bound_to 10162
  140.5586  144.0306  150.6159 LP  0  0  0  0  0  0  0  0  0  0  0  0  # atno 17343 bound_to 10162
  157.6367  130.8773  149.9373 LP  0  0  0  0  0  0  0  0  0  0  0  0  # atno 17370 bound_to 10713
  156.0893  130.3665  150.0426 LP  0  0  0  0  0  0  0  0  0  0  0  0  # atno 17371 bound_to 10713
  139.8721  134.9826  156.5162 LP  0  0  0  0  0  0  0  0  0  0  0  0  # atno 17394 bound_to 11000
  140.8438  133.8184  155.9101 LP  0  0  0  0  0  0  0  0  0  0  0  0  # atno 17395 bound_to 11000

$$$$
