AV-unprocessed.smi:1060|AV-procd|sdf|4658|dock1
  -GOLD-   22720 3163D 1   1.00000     0.00000
 Structure written by MMmdl.
 36 37  0  0  0  0  0  0  0  0  2 V2000
  154.4460  138.9798  161.7643 O   0  0  0  0  0  0  0  0  0  0  0  0
  155.2537  139.9082  161.7438 C   0  0  0  0  0  0  0  0  0  0  0  0
  156.5721  139.7830  162.5099 C   0  0  0  0  0  0  0  0  0  0  0  0
  156.7193  140.8879  163.3890 O   0  0  0  0  0  0  0  0  0  0  0  0
  155.9473  140.7580  164.5702 C   0  0  0  0  0  0  0  0  0  0  0  0
  155.9977  142.0830  165.3405 C   0  0  2  0  0  0  0  0  0  0  0  0
  155.2789  142.0431  166.6859 C   0  0  0  0  0  0  0  0  0  0  0  0
  154.9849  143.5083  166.9560 C   0  0  0  0  0  0  0  0  0  0  0  0
  155.0170  144.1524  165.5660 C   0  0  0  0  0  0  0  0  0  0  0  0
  155.2723  143.0908  164.6540 O   0  0  0  0  0  0  0  0  0  0  0  0
  155.0909  141.0753  161.0900 N   0  0  0  0  0  0  0  0  0  0  0  0
  154.0190  141.5368  160.3044 C   0  0  0  0  0  0  0  0  0  0  0  0
  153.3734  142.7251  160.4711 C   0  0  0  0  0  0  0  0  0  0  0  0
  152.2699  143.1415  159.6147 C   0  0  0  0  0  0  0  0  0  0  0  0
  151.4710  144.4153  159.8270 C   0  0  0  0  0  0  0  0  0  0  0  0
  151.8579  145.0116  160.9537 F   0  0  0  0  0  0  0  0  0  0  0  0
  151.6566  145.2697  158.8204 F   0  0  0  0  0  0  0  0  0  0  0  0
  150.1673  144.1537  159.9210 F   0  0  0  0  0  0  0  0  0  0  0  0
  151.9646  142.1962  158.6552 C   0  0  0  0  0  0  0  0  0  0  0  0
  152.5625  141.0103  158.4098 N   0  5  0  0  0  0  0  0  0  0  0  0
  153.5955  140.6323  159.2144 C   0  0  0  0  0  0  0  0  0  0  0  0
  154.1788  139.5601  159.0502 O   0  0  0  0  0  0  0  0  0  0  0  0
  156.5801  138.8493  163.0749 H   0  0  0  0  0  0  0  0  0  0  0  0
  157.3964  139.7526  161.7956 H   0  0  0  0  0  0  0  0  0  0  0  0
  154.9165  140.4865  164.3371 H   0  0  0  0  0  0  0  0  0  0  0  0
  156.3683  139.9602  165.1838 H   0  0  0  0  0  0  0  0  0  0  0  0
  157.0305  142.4066  165.4838 H   0  0  0  0  0  0  0  0  0  0  0  0
  154.3421  141.4912  166.5960 H   0  0  0  0  0  0  0  0  0  0  0  0
  155.8737  141.5760  167.4714 H   0  0  0  0  0  0  0  0  0  0  0  0
  154.0235  143.6415  167.4531 H   0  0  0  0  0  0  0  0  0  0  0  0
  155.7557  143.9462  167.5910 H   0  0  0  0  0  0  0  0  0  0  0  0
  154.0790  144.6489  165.3174 H   0  0  0  0  0  0  0  0  0  0  0  0
  155.8187  144.8888  165.5019 H   0  0  0  0  0  0  0  0  0  0  0  0
  155.8554  141.7311  161.1625 H   0  0  0  0  0  0  0  0  0  0  0  0
  153.6598  143.4139  161.2467 H   0  0  0  0  0  0  0  0  0  0  0  0
  151.1078  142.4266  157.9865 H   0  0  0  0  0  0  0  0  0  0  0  0
  1  2  2  0  0  0  0
  2  3  1  0  0  0  0
  2 11  1  0  0  0  0
  3  4  1  0  0  0  0
  3 23  1  0  0  0  0
  3 24  1  0  0  0  0
  4  5  1  0  0  0  0
  5  6  1  0  0  0  0
  5 25  1  0  0  0  0
  5 26  1  0  0  0  0
  6 10  1  0  0  0  0
  6  7  1  0  0  0  0
  6 27  1  0  0  0  0
  7  8  1  0  0  0  0
  7 28  1  0  0  0  0
  7 29  1  0  0  0  0
  8  9  1  0  0  0  0
  8 30  1  0  0  0  0
  8 31  1  0  0  0  0
  9 10  1  0  0  0  0
  9 32  1  0  0  0  0
  9 33  1  0  0  0  0
 11 12  1  0  0  0  0
 11 34  1  0  0  0  0
 12 21  1  0  0  0  0
 12 13  2  0  0  0  0
 13 14  1  0  0  0  0
 13 35  1  0  0  0  0
 14 15  1  0  0  0  0
 14 19  2  0  0  0  0
 15 16  1  0  0  0  0
 15 17  1  0  0  0  0
 15 18  1  0  0  0  0
 19 20  1  0  0  0  0
 19 36  1  0  0  0  0
 20 21  1  0  0  0  0
 21 22  2  0  0  0  0
M  CHG  1  20  -1
M  END
> <s_m_source_file>
AV-unprocessed.smi

> <i_m_source_file_index>
1060

> <i_lp_mmshare_version>
43012

> <i_f3d_flags>
0

> <s_epik_input>
Tz1jMVtuSF1bY0hdYyhDKEYpKEYpRilbY0hdYzFbTkhdQyg9TylbQ0gyXU9bQ0gyXVtDQEBIXTJbQ0gyXVtDSDJdW0NIMl1PMg==

> <s_epik_cmdline>
J2VwaWtfcHl0aG9uJywgJy1waCcsICc3LjAnLCAnLXRuJywgJzgnLCAnLW1hJywgJzIwMCcsICctbWV0YWxfYmluZGluZycsICctaW1hZScsICc8aW5maWxlLm1hZT4nLCAnLW9tYWUnLCAnPG91dGZpbGUubWFlPic=

> <r_epik_Ionization_Penalty>
2.50578

> <r_epik_Ionization_Penalty_Charging>
0.0523173

> <r_epik_Ionization_Penalty_Neutral>
2.45346

> <r_epik_State_Penalty>
2.61512

> <r_epik_Charging_Adjusted_Penalty>
2.66744

> <i_epik_Tot_Q>
-1

> <i_epik_Tot_abs_Q>
1

> <r_epik_Metal_State_Penalty>
0.513209

> <b_epik_Metal_Only>
0

> <s_lp_Force_Field>
OPLS_2005

> <r_lp_Energy>
34.3401

> <b_lp_Chiralities_Consistent>
1

> <s_lp_Variant>
AV-unprocessed.smi:1060-3

> <Gold.Version>
5.8.1

> <Gold.Id.Protein>
6NUR|6NUR_protein|mol2

> <Gold.PLP.Fitness>
48.2429

> <Gold.PLP.PLP>
-47.6086

> <Gold.PLP.part.hbond>
-4.0000

> <Gold.PLP.part.metal>
0.0000

> <Gold.PLP.part.buried>
-5.6229

> <Gold.PLP.part.nonpolar>
-37.7359

> <Gold.PLP.part.repulsive>
0.0204

> <Gold.PLP.ligand.clash>
0.0000

> <Gold.PLP.ligand.torsion>
0.8305

> <Gold.PLP.Chemscore.Hbond>
0.7000

> <Gold.PLP.Chemscore.CHOScore>
0.0000

> <Gold.PLP.Chemscore.Metal>
0.0000

> <Gold.Chemscore.Hbonds>
donor molecule, donor type, donor heavy atom, donor atom, acceptor molecule, acceptor atom, score
      P1  H  7997  8010       L1    22  0.80

> <Gold.PLP.Chemscore.Internal.Correction>
0.1952

> <Gold.Rescore>
     Score         DG    S(hbond)    S(metal)    S(lipo)     H(rot)  DE(clash)    DE(int)     intcor
     10.46     -14.68       0.91        0.00      94.66       1.92       0.94       3.28       ----

> <Gold.Chemscore.Fitness>
10.4562

> <Gold.Chemscore.DG>
-14.6753

> <Gold.Chemscore.ZeroCoef>
-5.4800

> <Gold.Chemscore.Hbond>
0.9078

> <Gold.Chemscore.Metal>
0.0000

> <Gold.Chemscore.Lipo>
94.6648

> <Gold.Chemscore.Internal_Hbond>
0.0000

> <Gold.Chemscore.DEClash>
0.9389

> <Gold.Chemscore.DEInternal>
3.2802

> <Gold.Chemscore.Rot>
1.9190

> <Gold.Chemscore.Internal.Correction>
   9.000000E+99

> <Gold.Chemscore.Hbonds>
donor molecule, donor type, donor heavy atom, donor atom, acceptor molecule, acceptor atom, score
      P1  H  7997  8010       L1    22  0.12

> <Gold.Chemscore.Hbond.Weighted>
-3.0321

> <Gold.Chemscore.Metal.Weighted>
-0.0000

> <Gold.Chemscore.Lipo.Weighted>
-11.0758

> <Gold.Chemscore.Internal_Hbond.Weighted>
0.0000

> <Gold.Chemscore.DEClash.Weighted>
0.9389

> <Gold.Chemscore.DEInternal.Weighted>
3.2802

> <Gold.Chemscore.Rot.Weighted>
4.9126

> <Gold.Chemscore.Internal.Correction.Weighted>
   9.000000E+99

> <Gold.Protein.RotatedTorsions>
[ 6907 6896 6895 6894 ] final -103.57 input  -60.11 | X-H torsion
[ 7974 7965 7964 7962 ] final    1.55 input  175.53 | X-H torsion
[ 8008 7997 7996 7995 ] final   10.91 input   59.86 | X-H torsion
[ 10167 10162 10161 10158 ] final  -95.86 input  -65.29 | X-H torsion
[ 10718 10713 10712 10709 ] final  -16.15 input   66.30 | X-H torsion
[ 10763 10752 10751 10750 ] final   46.51 input  -60.55 | X-H torsion
[ 11005 11000 10999 10996 ] final -162.09 input  -57.11 | X-H torsion

> <Gold.Protein.ActiveResidues>
 VAL166  LYS551  ARG553  GLY616  TRP617  ASP618  TYR619  PRO620  LYS621  CYS622 
 ASP623  PHE694  ASN695  SER759  ASP760  ASP761  ALA762  ILE779  LEU786  VAL792 
 PHE793  MET794  SER795  GLU796  ALA797  LYS798  CYS799  TRP800  GLU811  SER814 

> <Gold.Protein.RotatedAtoms>
  150.7246  134.0409  159.3765 H   0  0  0  0  0  0  0  0  0  0  0  0  # atno 6907 bound_to 6896
  151.8382  135.0597  160.0454 H   0  0  0  0  0  0  0  0  0  0  0  0  # atno 6908 bound_to 6896
  152.2882  133.5500  159.5577 H   0  0  0  0  0  0  0  0  0  0  0  0  # atno 6909 bound_to 6896
  146.2441  140.0969  142.8349 H   0  0  0  0  0  0  0  0  0  0  0  0  # atno 7974 bound_to 7965
  154.7997  140.2850  155.5930 H   0  0  0  0  0  0  0  0  0  0  0  0  # atno 8008 bound_to 7997
  156.2975  140.2589  156.2792 H   0  0  0  0  0  0  0  0  0  0  0  0  # atno 8009 bound_to 7997
  154.9572  140.0378  157.2162 H   0  0  0  0  0  0  0  0  0  0  0  0  # atno 8010 bound_to 7997
  140.2998  143.3169  152.0260 H   0  0  0  0  0  0  0  0  0  0  0  0  # atno 10167 bound_to 10162
  156.5916  130.4800  149.6277 H   0  0  0  0  0  0  0  0  0  0  0  0  # atno 10718 bound_to 10713
  152.9810  135.6006  154.3611 H   0  0  0  0  0  0  0  0  0  0  0  0  # atno 10763 bound_to 10752
  154.3293  135.2769  155.2482 H   0  0  0  0  0  0  0  0  0  0  0  0  # atno 10764 bound_to 10752
  154.4613  135.5965  153.6313 H   0  0  0  0  0  0  0  0  0  0  0  0  # atno 10765 bound_to 10752
  140.6131  134.4828  157.5217 H   0  0  0  0  0  0  0  0  0  0  0  0  # atno 11005 bound_to 11000
  145.0602  140.9082  143.4943 LP  0  0  0  0  0  0  0  0  0  0  0  0  # atno 17320 bound_to 7965
  145.1083  139.2774  143.5650 LP  0  0  0  0  0  0  0  0  0  0  0  0  # atno 17321 bound_to 7965
  139.4918  144.6464  151.6769 LP  0  0  0  0  0  0  0  0  0  0  0  0  # atno 17342 bound_to 10162
  140.5661  144.0188  150.6193 LP  0  0  0  0  0  0  0  0  0  0  0  0  # atno 17343 bound_to 10162
  156.2545  130.6926  151.1675 LP  0  0  0  0  0  0  0  0  0  0  0  0  # atno 17370 bound_to 10713
  157.7302  131.0618  150.5737 LP  0  0  0  0  0  0  0  0  0  0  0  0  # atno 17371 bound_to 10713
  139.9184  134.8199  156.1291 LP  0  0  0  0  0  0  0  0  0  0  0  0  # atno 17394 bound_to 11000
  141.0794  133.6761  156.2304 LP  0  0  0  0  0  0  0  0  0  0  0  0  # atno 17395 bound_to 11000

$$$$
