AV-unprocessed.smi:3039|AV-procd|sdf|11594|dock10
  -GOLD-   2272016573D 1   1.00000     0.00000
 Structure written by MMmdl.
 38 39  0  0  0  0  0  0  0  0  1 V2000
  151.1146  140.8500  156.9206 O   0  0  0  0  0  0  0  0  0  0  0  0
  150.5729  141.9138  156.6210 C   0  0  0  0  0  0  0  0  0  0  0  0
  149.9206  142.0789  155.2483 C   0  0  0  0  0  0  0  0  0  0  0  0
  149.7400  140.7341  154.5978 C   0  0  0  0  0  0  0  0  0  0  0  0
  148.5283  140.0953  154.2127 C   0  0  0  0  0  0  0  0  0  0  0  0
  148.9469  138.9091  153.6828 C   0  0  0  0  0  0  0  0  0  0  0  0
  150.3000  138.8193  153.7288 O   0  0  0  0  0  0  0  0  0  0  0  0
  150.7979  139.9897  154.3127 N   0  0  0  0  0  0  0  0  0  0  0  0
  150.5156  142.9750  157.4420 N   0  0  0  0  0  0  0  0  0  0  0  0
  151.0587  143.0362  158.7995 C   0  0  1  0  0  0  0  0  0  0  0  0
  152.4941  142.4576  158.7999 C   0  0  0  0  0  0  0  0  0  0  0  0
  152.8959  141.8263  160.1457 C   0  0  0  0  0  0  0  0  0  0  0  0
  153.2227  142.8248  161.2638 C   0  0  0  0  0  0  0  0  0  0  0  0
  152.0984  143.8248  161.5719 C   0  0  0  0  0  0  0  0  0  0  0  0
  151.9200  144.8678  160.4570 C   0  0  0  0  0  0  0  0  0  0  0  0
  150.9216  144.4928  159.3368 C   0  0  2  0  0  0  0  0  0  0  0  0
  149.4747  144.8118  159.7898 C   0  0  0  0  0  0  0  0  0  0  0  0
  148.5075  144.1793  158.9774 O   0  0  0  0  0  0  0  0  0  0  0  0
  148.9562  142.5742  155.3660 H   0  0  0  0  0  0  0  0  0  0  0  0
  150.5319  142.7371  154.6290 H   0  0  0  0  0  0  0  0  0  0  0  0
  147.5137  140.4507  154.3148 H   0  0  0  0  0  0  0  0  0  0  0  0
  148.4291  138.0649  153.2518 H   0  0  0  0  0  0  0  0  0  0  0  0
  150.0492  143.8050  157.1051 H   0  0  0  0  0  0  0  0  0  0  0  0
  150.4455  142.3930  159.4332 H   0  0  0  0  0  0  0  0  0  0  0  0
  152.5564  141.6616  158.0562 H   0  0  0  0  0  0  0  0  0  0  0  0
  153.2206  143.2062  158.4819 H   0  0  0  0  0  0  0  0  0  0  0  0
  152.1125  141.1449  160.4796 H   0  0  0  0  0  0  0  0  0  0  0  0
  153.7755  141.2020  159.9857 H   0  0  0  0  0  0  0  0  0  0  0  0
  153.4488  142.2620  162.1701 H   0  0  0  0  0  0  0  0  0  0  0  0
  154.1379  143.3645  161.0174 H   0  0  0  0  0  0  0  0  0  0  0  0
  151.1617  143.3101  161.7879 H   0  0  0  0  0  0  0  0  0  0  0  0
  152.3674  144.3510  162.4885 H   0  0  0  0  0  0  0  0  0  0  0  0
  151.6092  145.8112  160.9073 H   0  0  0  0  0  0  0  0  0  0  0  0
  152.8919  145.0914  160.0153 H   0  0  0  0  0  0  0  0  0  0  0  0
  151.1551  145.1760  158.5179 H   0  0  0  0  0  0  0  0  0  0  0  0
  149.3193  144.5191  160.8285 H   0  0  0  0  0  0  0  0  0  0  0  0
  149.2809  145.8833  159.7333 H   0  0  0  0  0  0  0  0  0  0  0  0
  148.2663  144.7717  158.2815 H   0  0  0  0  0  0  0  0  0  0  0  0
  1  2  2  0  0  0  0
  2  3  1  0  0  0  0
  2  9  1  0  0  0  0
  3  4  1  0  0  0  0
  3 19  1  0  0  0  0
  3 20  1  0  0  0  0
  4  8  2  0  0  0  0
  4  5  1  0  0  0  0
  5  6  2  0  0  0  0
  5 21  1  0  0  0  0
  6  7  1  0  0  0  0
  6 22  1  0  0  0  0
  7  8  1  0  0  0  0
  9 10  1  0  0  0  0
  9 23  1  0  0  0  0
 10 16  1  0  0  0  0
 10 11  1  0  0  0  0
 10 24  1  0  0  0  0
 11 12  1  0  0  0  0
 11 25  1  0  0  0  0
 11 26  1  0  0  0  0
 12 13  1  0  0  0  0
 12 27  1  0  0  0  0
 12 28  1  0  0  0  0
 13 14  1  0  0  0  0
 13 29  1  0  0  0  0
 13 30  1  0  0  0  0
 14 15  1  0  0  0  0
 14 31  1  0  0  0  0
 14 32  1  0  0  0  0
 15 16  1  0  0  0  0
 15 33  1  0  0  0  0
 15 34  1  0  0  0  0
 16 17  1  0  0  0  0
 16 35  1  0  0  0  0
 17 18  1  0  0  0  0
 17 36  1  0  0  0  0
 17 37  1  0  0  0  0
 18 38  1  0  0  0  0
M  END
> <s_m_source_file>
AV-unprocessed.smi

> <i_m_source_file_index>
3039

> <i_lp_mmshare_version>
43012

> <i_f3d_flags>
0

> <s_epik_input>
bjFvW2NIXVtjSF1jMVtDSDJdQyg9TylbTkhdW0NAQEhdMltDSDJdW0NIMl1bQ0gyXVtDSDJdW0NIMl1bQ0BIXTJbQ0gyXVtPSF0=

> <s_epik_cmdline>
J2VwaWtfcHl0aG9uJywgJy1waCcsICc3LjAnLCAnLXRuJywgJzgnLCAnLW1hJywgJzIwMCcsICctbWV0YWxfYmluZGluZycsICctaW1hZScsICc8aW5maWxlLm1hZT4nLCAnLW9tYWUnLCAnPG91dGZpbGUubWFlPic=

> <r_lp_tautomer_probability>
1

> <r_epik_Ionization_Penalty>
3.05817e-07

> <r_epik_Ionization_Penalty_Charging>
0

> <r_epik_Ionization_Penalty_Neutral>
3.05817e-07

> <r_epik_State_Penalty>
-0

> <r_epik_Charging_Adjusted_Penalty>
0

> <i_epik_Tot_Q>
0

> <i_epik_Tot_abs_Q>
0

> <r_epik_Metal_State_Penalty>
-0

> <b_epik_Metal_Only>
0

> <s_lp_Force_Field>
OPLS_2005

> <r_lp_Energy>
18.8226

> <b_lp_Chiralities_Consistent>
1

> <s_lp_Variant>
AV-unprocessed.smi:3039-4

> <Gold.Version>
5.8.1

> <Gold.Id.Protein>
6NUR|6NUR_protein|mol2

> <Gold.PLP.Fitness>
48.3616

> <Gold.PLP.PLP>
-37.4816

> <Gold.PLP.part.hbond>
-3.0000

> <Gold.PLP.part.metal>
0.0000

> <Gold.PLP.part.buried>
-1.8557

> <Gold.PLP.part.nonpolar>
-32.3737

> <Gold.PLP.part.repulsive>
0.8764

> <Gold.PLP.ligand.clash>
0.0000

> <Gold.PLP.ligand.torsion>
0.4804

> <Gold.PLP.Chemscore.Hbond>
2.9425

> <Gold.PLP.Chemscore.CHOScore>
0.9882

> <Gold.PLP.Chemscore.Metal>
0.0000

> <Gold.Chemscore.Hbonds>
donor molecule, donor type, donor heavy atom, donor atom, acceptor molecule, acceptor atom, score
      L1  H     9    23       P1  8028  0.94
      L1  H    18    38       P1  8029  1.00
      P1  H  7989  7998       L1     8  0.83
      L1  C     6    22       P1  7948  1.00

> <Gold.PLP.Chemscore.Internal.Correction>
0.0488

> <Gold.Rescore>
     Score         DG    S(hbond)    S(metal)    S(lipo)     H(rot)  DE(clash)    DE(int)     intcor
     15.97     -20.79       2.66        0.00     104.44       2.26       0.42       4.39       ----

> <Gold.Chemscore.Fitness>
15.9717

> <Gold.Chemscore.DG>
-20.7859

> <Gold.Chemscore.ZeroCoef>
-5.4800

> <Gold.Chemscore.Hbond>
2.6573

> <Gold.Chemscore.Metal>
0.0000

> <Gold.Chemscore.Lipo>
104.4448

> <Gold.Chemscore.Internal_Hbond>
0.0000

> <Gold.Chemscore.DEClash>
0.4212

> <Gold.Chemscore.DEInternal>
4.3930

> <Gold.Chemscore.Rot>
2.2616

> <Gold.Chemscore.Internal.Correction>
   9.000000E+99

> <Gold.Chemscore.Hbonds>
donor molecule, donor type, donor heavy atom, donor atom, acceptor molecule, acceptor atom, score
      L1  H     9    23       P1  8028  0.81
      L1  H    18    38       P1  8029  0.80
      P1  H  7989  7998       L1     8  0.34

> <Gold.Chemscore.Hbond.Weighted>
-8.8755

> <Gold.Chemscore.Metal.Weighted>
-0.0000

> <Gold.Chemscore.Lipo.Weighted>
-12.2200

> <Gold.Chemscore.Internal_Hbond.Weighted>
0.0000

> <Gold.Chemscore.DEClash.Weighted>
0.4212

> <Gold.Chemscore.DEInternal.Weighted>
4.3930

> <Gold.Chemscore.Rot.Weighted>
5.7896

> <Gold.Chemscore.Internal.Correction.Weighted>
   9.000000E+99

> <Gold.Protein.RotatedTorsions>
[ 6907 6896 6895 6894 ] final  157.26 input  -60.11 | X-H torsion
[ 7974 7965 7964 7962 ] final  -59.24 input  175.53 | X-H torsion
[ 8008 7997 7996 7995 ] final   43.97 input   59.86 | X-H torsion
[ 10167 10162 10161 10158 ] final   69.06 input  -65.29 | X-H torsion
[ 10718 10713 10712 10709 ] final -141.55 input   66.30 | X-H torsion
[ 10763 10752 10751 10750 ] final  -97.57 input  -60.55 | X-H torsion
[ 11005 11000 10999 10996 ] final  106.50 input  -57.11 | X-H torsion

> <Gold.Protein.ActiveResidues>
 VAL166  LYS551  ARG553  GLY616  TRP617  ASP618  TYR619  PRO620  LYS621  CYS622 
 ASP623  PHE694  ASN695  SER759  ASP760  ASP761  ALA762  ILE779  LEU786  VAL792 
 PHE793  MET794  SER795  GLU796  ALA797  LYS798  CYS799  TRP800  GLU811  SER814 

> <Gold.Protein.RotatedAtoms>
  152.0177  133.3886  159.4245 H   0  0  0  0  0  0  0  0  0  0  0  0  # atno 6907 bound_to 6896
  150.6893  134.3661  159.4981 H   0  0  0  0  0  0  0  0  0  0  0  0  # atno 6908 bound_to 6896
  152.1430  134.9047  160.0603 H   0  0  0  0  0  0  0  0  0  0  0  0  # atno 6909 bound_to 6896
  145.8298  140.8487  143.0089 H   0  0  0  0  0  0  0  0  0  0  0  0  # atno 7974 bound_to 7965
  155.3115  140.3391  155.4244 H   0  0  0  0  0  0  0  0  0  0  0  0  # atno 8008 bound_to 7997
  156.1953  140.1712  156.8048 H   0  0  0  0  0  0  0  0  0  0  0  0  # atno 8009 bound_to 7997
  154.5491  140.0709  156.8622 H   0  0  0  0  0  0  0  0  0  0  0  0  # atno 8010 bound_to 7997
  140.0719  144.5145  150.7221 H   0  0  0  0  0  0  0  0  0  0  0  0  # atno 10167 bound_to 10162
  156.3354  130.7608  151.1735 H   0  0  0  0  0  0  0  0  0  0  0  0  # atno 10718 bound_to 10713
  154.7339  135.5042  153.9009 H   0  0  0  0  0  0  0  0  0  0  0  0  # atno 10763 bound_to 10752
  153.0976  135.6676  153.9742 H   0  0  0  0  0  0  0  0  0  0  0  0  # atno 10764 bound_to 10752
  153.9536  135.3055  155.3416 H   0  0  0  0  0  0  0  0  0  0  0  0  # atno 10765 bound_to 10752
  139.8815  134.9371  156.5677 H   0  0  0  0  0  0  0  0  0  0  0  0  # atno 11005 bound_to 11000
  144.6740  140.0656  143.7474 LP  0  0  0  0  0  0  0  0  0  0  0  0  # atno 17320 bound_to 7965
  145.9583  139.2782  143.1171 LP  0  0  0  0  0  0  0  0  0  0  0  0  # atno 17321 bound_to 7965
  140.7121  143.2514  151.4548 LP  0  0  0  0  0  0  0  0  0  0  0  0  # atno 17342 bound_to 10162
  139.5831  144.1665  152.1994 LP  0  0  0  0  0  0  0  0  0  0  0  0  # atno 17343 bound_to 10162
  157.7438  131.0469  150.4919 LP  0  0  0  0  0  0  0  0  0  0  0  0  # atno 17370 bound_to 10713
  156.5091  130.4135  149.6311 LP  0  0  0  0  0  0  0  0  0  0  0  0  # atno 17371 bound_to 10713
  140.8122  133.8420  155.8820 LP  0  0  0  0  0  0  0  0  0  0  0  0  # atno 17394 bound_to 11000
  140.9496  134.1796  157.4738 LP  0  0  0  0  0  0  0  0  0  0  0  0  # atno 17395 bound_to 11000

$$$$
