AV-unprocessed.smi:2310|AV-procd|sdf|9259|dock2
  -GOLD-   2272012483D 1   1.00000     0.00000
 Structure written by MMmdl.
 45 46  0  0  0  0  0  0  0  0  3 V2000
  152.3016  144.9415  159.0691 C   0  0  0  0  0  0  0  0  0  0  0  0
  150.9326  144.2915  158.7863 C   0  0  0  0  0  0  0  0  0  0  0  0
  150.9784  142.7866  158.4368 C   0  0  2  0  0  0  0  0  0  0  0  0
  152.3927  142.2175  158.6497 C   0  0  0  0  0  0  0  0  0  0  0  0
  152.8110  142.1489  160.0614 C   0  0  0  0  0  0  0  0  0  0  0  0
  153.1391  142.0999  161.1715 N   0  0  0  0  0  0  0  0  0  0  0  0
  150.5958  142.5964  157.0321 N   0  5  0  0  0  0  0  0  0  0  0  0
  150.1115  141.4411  156.5028 C   0  0  0  0  0  0  0  0  0  0  0  0
  150.4667  140.2848  156.7588 O   0  0  0  0  0  0  0  0  0  0  0  0
  149.1508  141.6669  155.5903 N   0  0  0  0  0  0  0  0  0  0  0  0
  148.3962  140.7210  154.8449 C   0  0  0  0  0  0  0  0  0  0  0  0
  148.7092  139.3397  154.8254 C   0  0  0  0  0  0  0  0  0  0  0  0
  147.9008  138.4527  154.0874 C   0  0  0  0  0  0  0  0  0  0  0  0
  146.7808  138.9550  153.3864 C   0  0  0  0  0  0  0  0  0  0  0  0
  145.9117  138.1571  152.6291 N   0  0  0  0  0  0  0  0  0  0  0  0
  145.1359  137.2028  153.4032 C   0  0  0  0  0  0  0  0  0  0  0  0
  144.6064  136.1847  152.3905 C   0  0  0  0  0  0  0  0  0  0  0  0
  145.5458  136.3030  151.1843 C   0  0  0  0  0  0  0  0  0  0  0  0
  146.5504  137.3920  151.5709 C   0  0  0  0  0  0  0  0  0  0  0  0
  146.5067  140.2760  153.4451 N   0  3  0  0  0  0  0  0  0  0  0  0
  147.2528  141.1644  154.1392 C   0  0  0  0  0  0  0  0  0  0  0  0
  146.8171  142.6178  154.1129 C   0  0  0  0  0  0  0  0  0  0  0  0
  152.1792  146.0068  159.2650 H   0  0  0  0  0  0  0  0  0  0  0  0
  152.9842  144.8465  158.2228 H   0  0  0  0  0  0  0  0  0  0  0  0
  152.7895  144.5115  159.9455 H   0  0  0  0  0  0  0  0  0  0  0  0
  150.2715  144.4535  159.6389 H   0  0  0  0  0  0  0  0  0  0  0  0
  150.4764  144.8277  157.9536 H   0  0  0  0  0  0  0  0  0  0  0  0
  150.3130  142.2640  159.1258 H   0  0  0  0  0  0  0  0  0  0  0  0
  152.4744  141.2166  158.2244 H   0  0  0  0  0  0  0  0  0  0  0  0
  153.1259  142.8397  158.1362 H   0  0  0  0  0  0  0  0  0  0  0  0
  149.0005  142.6359  155.3503 H   0  0  0  0  0  0  0  0  0  0  0  0
  149.5491  138.9464  155.3781 H   0  0  0  0  0  0  0  0  0  0  0  0
  148.1399  137.3996  154.0706 H   0  0  0  0  0  0  0  0  0  0  0  0
  145.7645  136.7042  154.1421 H   0  0  0  0  0  0  0  0  0  0  0  0
  144.3227  137.6987  153.9343 H   0  0  0  0  0  0  0  0  0  0  0  0
  144.5892  135.1769  152.8064 H   0  0  0  0  0  0  0  0  0  0  0  0
  143.5880  136.4389  152.0941 H   0  0  0  0  0  0  0  0  0  0  0  0
  146.0457  135.3616  150.9542 H   0  0  0  0  0  0  0  0  0  0  0  0
  144.9798  136.6024  150.3014 H   0  0  0  0  0  0  0  0  0  0  0  0
  146.7942  138.0300  150.7207 H   0  0  0  0  0  0  0  0  0  0  0  0
  147.4765  136.9386  151.9264 H   0  0  0  0  0  0  0  0  0  0  0  0
  146.5925  142.9642  155.1224 H   0  0  0  0  0  0  0  0  0  0  0  0
  145.9255  142.7559  153.5002 H   0  0  0  0  0  0  0  0  0  0  0  0
  147.6104  143.2434  153.7026 H   0  0  0  0  0  0  0  0  0  0  0  0
  145.6919  140.6232  152.9392 H   0  0  0  0  0  0  0  0  0  0  0  0
  1  2  1  0  0  0  0
  1 23  1  0  0  0  0
  1 24  1  0  0  0  0
  1 25  1  0  0  0  0
  2  3  1  0  0  0  0
  2 26  1  0  0  0  0
  2 27  1  0  0  0  0
  3  4  1  0  0  0  0
  3  7  1  0  0  0  0
  3 28  1  0  0  0  0
  4  5  1  0  0  0  0
  4 29  1  0  0  0  0
  4 30  1  0  0  0  0
  5  6  3  0  0  0  0
  7  8  1  0  0  0  0
  8  9  2  0  0  0  0
  8 10  1  0  0  0  0
 10 11  1  0  0  0  0
 10 31  1  0  0  0  0
 11 21  1  0  0  0  0
 11 12  2  0  0  0  0
 12 13  1  0  0  0  0
 12 32  1  0  0  0  0
 13 14  2  0  0  0  0
 13 33  1  0  0  0  0
 14 15  1  0  0  0  0
 14 20  1  0  0  0  0
 15 19  1  0  0  0  0
 15 16  1  0  0  0  0
 16 17  1  0  0  0  0
 16 34  1  0  0  0  0
 16 35  1  0  0  0  0
 17 18  1  0  0  0  0
 17 36  1  0  0  0  0
 17 37  1  0  0  0  0
 18 19  1  0  0  0  0
 18 38  1  0  0  0  0
 18 39  1  0  0  0  0
 19 40  1  0  0  0  0
 19 41  1  0  0  0  0
 20 21  2  0  0  0  0
 20 45  1  0  0  0  0
 21 22  1  0  0  0  0
 22 42  1  0  0  0  0
 22 43  1  0  0  0  0
 22 44  1  0  0  0  0
M  CHG  1   7  -1
M  CHG  1  20   1
M  END
> <s_m_source_file>
AV-unprocessed.smi

> <i_m_source_file_index>
2310

> <i_lp_mmshare_version>
43012

> <i_f3d_flags>
0

> <s_epik_input>
TiNDW0NIMl1bQ0BASF0oW0NIMl1bQ0gzXSlbTkhdQyg9TylbTkhdYzFbY0hdW2NIXWMobmMxW0NIM10pTjJbQ0gyXVtDSDJdW0NIMl1bQ0gyXTI=

> <s_epik_cmdline>
J2VwaWtfcHl0aG9uJywgJy1waCcsICc3LjAnLCAnLXRuJywgJzgnLCAnLW1hJywgJzIwMCcsICctbWV0YWxfYmluZGluZycsICctaW1hZScsICc8aW5maWxlLm1hZT4nLCAnLW9tYWUnLCAnPG91dGZpbGUubWFlPic=

> <r_lp_tautomer_probability>
0.999994

> <r_epik_Ionization_Penalty>
7.34515

> <r_epik_Ionization_Penalty_Charging>
7.34514

> <r_epik_Ionization_Penalty_Neutral>
2.56118e-06

> <r_epik_State_Penalty>
6.99243

> <r_epik_Charging_Adjusted_Penalty>
14.3376

> <i_epik_Tot_Q>
0

> <i_epik_Tot_abs_Q>
2

> <r_epik_Metal_State_Penalty>
3.10684

> <b_epik_Metal_Only>
1

> <s_lp_Force_Field>
OPLS_2005

> <r_lp_Energy>
38.8935

> <b_lp_Chiralities_Consistent>
1

> <s_lp_Variant>
AV-unprocessed.smi:2310-5

> <Gold.Version>
5.8.1

> <Gold.Id.Protein>
6NUR|6NUR_protein|mol2

> <Gold.PLP.Fitness>
43.4857

> <Gold.PLP.PLP>
-37.2478

> <Gold.PLP.part.hbond>
-2.0000

> <Gold.PLP.part.metal>
0.0000

> <Gold.PLP.part.buried>
-3.5592

> <Gold.PLP.part.nonpolar>
-35.8707

> <Gold.PLP.part.repulsive>
1.6613

> <Gold.PLP.ligand.clash>
0.0000

> <Gold.PLP.ligand.torsion>
1.4334

> <Gold.PLP.Chemscore.Hbond>
2.9840

> <Gold.PLP.Chemscore.CHOScore>
0.0000

> <Gold.PLP.Chemscore.Metal>
0.0000

> <Gold.Chemscore.Hbonds>
donor molecule, donor type, donor heavy atom, donor atom, acceptor molecule, acceptor atom, score
      L1  H    10    31       P1  8028  0.81
      L1  H    20    45       P1 10175  1.85

> <Gold.PLP.Chemscore.Internal.Correction>
0.1528

> <Gold.Rescore>
     Score         DG    S(hbond)    S(metal)    S(lipo)     H(rot)  DE(clash)    DE(int)     intcor
     12.77     -17.73       1.84        0.00      88.42       1.65       2.00       2.96       ----

> <Gold.Chemscore.Fitness>
12.7706

> <Gold.Chemscore.DG>
-17.7342

> <Gold.Chemscore.ZeroCoef>
-5.4800

> <Gold.Chemscore.Hbond>
1.8374

> <Gold.Chemscore.Metal>
0.0000

> <Gold.Chemscore.Lipo>
88.4177

> <Gold.Chemscore.Internal_Hbond>
0.0000

> <Gold.Chemscore.DEClash>
1.9987

> <Gold.Chemscore.DEInternal>
2.9650

> <Gold.Chemscore.Rot>
1.6514

> <Gold.Chemscore.Internal.Correction>
   9.000000E+99

> <Gold.Chemscore.Hbonds>
donor molecule, donor type, donor heavy atom, donor atom, acceptor molecule, acceptor atom, score
      L1  H    10    31       P1  8028  0.80
      L1  H    20    45       P1 10175  0.59

> <Gold.Chemscore.Hbond.Weighted>
-6.1369

> <Gold.Chemscore.Metal.Weighted>
-0.0000

> <Gold.Chemscore.Lipo.Weighted>
-10.3449

> <Gold.Chemscore.Internal_Hbond.Weighted>
0.0000

> <Gold.Chemscore.DEClash.Weighted>
1.9987

> <Gold.Chemscore.DEInternal.Weighted>
2.9650

> <Gold.Chemscore.Rot.Weighted>
4.2276

> <Gold.Chemscore.Internal.Correction.Weighted>
   9.000000E+99

> <Gold.Protein.RotatedTorsions>
[ 6907 6896 6895 6894 ] final   96.63 input  -60.11 | X-H torsion
[ 7974 7965 7964 7962 ] final   94.68 input  175.53 | X-H torsion
[ 8008 7997 7996 7995 ] final  144.42 input   59.86 | X-H torsion
[ 10167 10162 10161 10158 ] final   58.41 input  -65.29 | X-H torsion
[ 10718 10713 10712 10709 ] final -149.74 input   66.30 | X-H torsion
[ 10763 10752 10751 10750 ] final  -14.94 input  -60.55 | X-H torsion
[ 11005 11000 10999 10996 ] final -126.31 input  -57.11 | X-H torsion

> <Gold.Protein.ActiveResidues>
 VAL166  LYS551  ARG553  GLY616  TRP617  ASP618  TYR619  PRO620  LYS621  CYS622 
 ASP623  PHE694  ASN695  SER759  ASP760  ASP761  ALA762  ILE779  LEU786  VAL792 
 PHE793  MET794  SER795  GLU796  ALA797  LYS798  CYS799  TRP800  GLU811  SER814 

> <Gold.Protein.RotatedAtoms>
  152.5433  134.0857  159.8254 H   0  0  0  0  0  0  0  0  0  0  0  0  # atno 6907 bound_to 6896
  151.0953  133.5277  159.2620 H   0  0  0  0  0  0  0  0  0  0  0  0  # atno 6908 bound_to 6896
  151.2053  135.0468  159.8943 H   0  0  0  0  0  0  0  0  0  0  0  0  # atno 6909 bound_to 6896
  145.4623  139.2286  143.2981 H   0  0  0  0  0  0  0  0  0  0  0  0  # atno 7974 bound_to 7965
  156.2908  140.2236  156.5051 H   0  0  0  0  0  0  0  0  0  0  0  0  # atno 8008 bound_to 7997
  154.7657  140.0470  157.1031 H   0  0  0  0  0  0  0  0  0  0  0  0  # atno 8009 bound_to 7997
  154.9936  140.3093  155.4899 H   0  0  0  0  0  0  0  0  0  0  0  0  # atno 8010 bound_to 7997
  140.1875  144.4120  150.6586 H   0  0  0  0  0  0  0  0  0  0  0  0  # atno 10167 bound_to 10162
  156.4371  130.8104  151.2332 H   0  0  0  0  0  0  0  0  0  0  0  0  # atno 10718 bound_to 10713
  153.5358  135.7014  153.5660 H   0  0  0  0  0  0  0  0  0  0  0  0  # atno 10763 bound_to 10752
  153.3648  135.3960  155.1745 H   0  0  0  0  0  0  0  0  0  0  0  0  # atno 10764 bound_to 10752
  154.8679  135.3797  154.4859 H   0  0  0  0  0  0  0  0  0  0  0  0  # atno 10765 bound_to 10752
  140.9692  134.0829  157.3887 H   0  0  0  0  0  0  0  0  0  0  0  0  # atno 11005 bound_to 11000
  146.2444  140.5393  142.8920 LP  0  0  0  0  0  0  0  0  0  0  0  0  # atno 17320 bound_to 7965
  144.7995  140.6187  143.6487 LP  0  0  0  0  0  0  0  0  0  0  0  0  # atno 17321 bound_to 7965
  140.6478  143.2217  151.6145 LP  0  0  0  0  0  0  0  0  0  0  0  0  # atno 17342 bound_to 10162
  139.5270  144.3030  152.1058 LP  0  0  0  0  0  0  0  0  0  0  0  0  # atno 17343 bound_to 10162
  157.7507  131.0180  150.3608 LP  0  0  0  0  0  0  0  0  0  0  0  0  # atno 17370 bound_to 10713
  156.3958  130.3906  149.6996 LP  0  0  0  0  0  0  0  0  0  0  0  0  # atno 17371 bound_to 10713
  139.8906  135.0113  156.6744 LP  0  0  0  0  0  0  0  0  0  0  0  0  # atno 17394 bound_to 11000
  140.7354  133.9023  155.8240 LP  0  0  0  0  0  0  0  0  0  0  0  0  # atno 17395 bound_to 11000

$$$$
