AV-unprocessed.smi:1327|AV-procd|sdf|5478|dock6
  -GOLD-   22720 5 53D 1   1.00000     0.00000
 Structure written by MMmdl.
 39 40  0  0  0  0  0  0  0  0  2 V2000
  151.6643  140.3846  154.9201 O   0  0  0  0  0  0  0  0  0  0  0  0
  150.9674  140.3760  156.2164 S   0  0  0  0  0  0  0  0  0  0  0  0
  150.5471  139.0721  156.7571 O   0  0  0  0  0  0  0  0  0  0  0  0
  151.6686  141.3482  157.3105 N   0  5  0  0  0  0  0  0  0  0  0  0
  151.1377  142.6840  157.5289 C   0  0  0  0  0  0  0  0  0  0  0  0
  152.1639  143.5768  158.2696 C   0  0  0  0  0  0  0  0  0  0  0  0
  152.5535  143.1158  159.6724 C   0  0  0  0  0  0  0  0  0  0  0  0
  152.2185  143.8876  160.8088 C   0  0  0  0  0  0  0  0  0  0  0  0
  152.6169  143.4263  162.0780 C   0  0  0  0  0  0  0  0  0  0  0  0
  153.3234  142.2118  162.1686 C   0  0  0  0  0  0  0  0  0  0  0  0
  153.5988  141.5079  160.9801 C   0  0  0  0  0  0  0  0  0  0  0  0
  153.2203  141.9392  159.7589 N   0  0  0  0  0  0  0  0  0  0  0  0
  149.5142  141.3104  155.9996 N   0  0  0  0  0  0  0  0  0  0  0  0
  148.4263  141.1041  156.9825 C   0  0  0  0  0  0  0  0  0  0  0  0
  147.1179  141.8699  156.7030 C   0  0  0  0  0  0  0  0  0  0  0  0
  146.2181  141.1935  155.6568 C   0  0  0  0  0  0  0  0  0  0  0  0
  146.6744  141.4154  154.2111 C   0  0  0  0  0  0  0  0  0  0  0  0
  148.1050  140.9362  153.9356 C   0  0  0  0  0  0  0  0  0  0  0  0
  149.1742  141.7901  154.6415 C   0  0  0  0  0  0  0  0  0  0  0  0
  150.8447  143.1714  156.5981 H   0  0  0  0  0  0  0  0  0  0  0  0
  150.2284  142.6411  158.1287 H   0  0  0  0  0  0  0  0  0  0  0  0
  153.0742  143.6374  157.6724 H   0  0  0  0  0  0  0  0  0  0  0  0
  151.7828  144.5978  158.3256 H   0  0  0  0  0  0  0  0  0  0  0  0
  151.6826  144.8197  160.7065 H   0  0  0  0  0  0  0  0  0  0  0  0
  152.3873  143.9958  162.9661 H   0  0  0  0  0  0  0  0  0  0  0  0
  153.6475  141.8294  163.1249 H   0  0  0  0  0  0  0  0  0  0  0  0
  154.1388  140.5732  161.0100 H   0  0  0  0  0  0  0  0  0  0  0  0
  148.2177  140.0370  157.0679 H   0  0  0  0  0  0  0  0  0  0  0  0
  148.8038  141.4118  157.9578 H   0  0  0  0  0  0  0  0  0  0  0  0
  146.5569  141.8994  157.6376 H   0  0  0  0  0  0  0  0  0  0  0  0
  147.3098  142.9133  156.4506 H   0  0  0  0  0  0  0  0  0  0  0  0
  146.1443  140.1251  155.8643 H   0  0  0  0  0  0  0  0  0  0  0  0
  145.2061  141.5870  155.7578 H   0  0  0  0  0  0  0  0  0  0  0  0
  145.9907  140.8882  153.5452 H   0  0  0  0  0  0  0  0  0  0  0  0
  146.5858  142.4718  153.9553 H   0  0  0  0  0  0  0  0  0  0  0  0
  148.2145  139.8797  154.1801 H   0  0  0  0  0  0  0  0  0  0  0  0
  148.2751  141.0064  152.8610 H   0  0  0  0  0  0  0  0  0  0  0  0
  148.8689  142.8353  154.6899 H   0  0  0  0  0  0  0  0  0  0  0  0
  150.0748  141.7899  154.0301 H   0  0  0  0  0  0  0  0  0  0  0  0
  1  2  2  0  0  0  0
  2  3  2  0  0  0  0
  2  4  1  0  0  0  0
  2 13  1  0  0  0  0
  4  5  1  0  0  0  0
  5  6  1  0  0  0  0
  5 20  1  0  0  0  0
  5 21  1  0  0  0  0
  6  7  1  0  0  0  0
  6 22  1  0  0  0  0
  6 23  1  0  0  0  0
  7 12  1  0  0  0  0
  7  8  2  0  0  0  0
  8  9  1  0  0  0  0
  8 24  1  0  0  0  0
  9 10  2  0  0  0  0
  9 25  1  0  0  0  0
 10 11  1  0  0  0  0
 10 26  1  0  0  0  0
 11 12  2  0  0  0  0
 11 27  1  0  0  0  0
 13 19  1  0  0  0  0
 13 14  1  0  0  0  0
 14 15  1  0  0  0  0
 14 28  1  0  0  0  0
 14 29  1  0  0  0  0
 15 16  1  0  0  0  0
 15 30  1  0  0  0  0
 15 31  1  0  0  0  0
 16 17  1  0  0  0  0
 16 32  1  0  0  0  0
 16 33  1  0  0  0  0
 17 18  1  0  0  0  0
 17 34  1  0  0  0  0
 17 35  1  0  0  0  0
 18 19  1  0  0  0  0
 18 36  1  0  0  0  0
 18 37  1  0  0  0  0
 19 38  1  0  0  0  0
 19 39  1  0  0  0  0
M  CHG  1   4  -1
M  END
> <s_m_source_file>
AV-unprocessed.smi

> <i_m_source_file_index>
1327

> <i_lp_mmshare_version>
43012

> <i_f3d_flags>
0

> <s_epik_input>
W0NIMl0xW0NIMl1bQ0gyXVtDSDJdW0NIMl1bQ0gyXU4xUyg9TykoPU8pW05IXVtDSDJdW0NIMl1jMltjSF1bY0hdW2NIXVtjSF1uMg==

> <s_epik_cmdline>
J2VwaWtfcHl0aG9uJywgJy1waCcsICc3LjAnLCAnLXRuJywgJzgnLCAnLW1hJywgJzIwMCcsICctbWV0YWxfYmluZGluZycsICctaW1hZScsICc8aW5maWxlLm1hZT4nLCAnLW9tYWUnLCAnPG91dGZpbGUubWFlPic=

> <r_lp_tautomer_probability>
1

> <r_epik_Ionization_Penalty>
3.18796

> <r_epik_Ionization_Penalty_Charging>
3.10426

> <r_epik_Ionization_Penalty_Neutral>
0.0836926

> <r_epik_State_Penalty>
3.10111

> <r_epik_Charging_Adjusted_Penalty>
6.20538

> <i_epik_Tot_Q>
-1

> <i_epik_Tot_abs_Q>
1

> <r_epik_Metal_State_Penalty>
0.463976

> <b_epik_Metal_Only>
1

> <s_lp_Force_Field>
OPLS_2005

> <r_lp_Energy>
9.11233

> <b_lp_Chiralities_Consistent>
1

> <s_lp_Variant>
AV-unprocessed.smi:1327-2

> <Gold.Version>
5.8.1

> <Gold.Id.Protein>
6NUR|6NUR_protein|mol2

> <Gold.PLP.Fitness>
46.0367

> <Gold.PLP.PLP>
-43.7501

> <Gold.PLP.part.hbond>
-1.0000

> <Gold.PLP.part.metal>
0.0000

> <Gold.PLP.part.buried>
-4.4996

> <Gold.PLP.part.nonpolar>
-37.2750

> <Gold.PLP.part.repulsive>
0.0517

> <Gold.PLP.ligand.clash>
0.0000

> <Gold.PLP.ligand.torsion>
1.8665

> <Gold.PLP.Chemscore.Hbond>
0.9760

> <Gold.PLP.Chemscore.CHOScore>
0.0000

> <Gold.PLP.Chemscore.Metal>
0.0000

> <Gold.Chemscore.Hbonds>
donor molecule, donor type, donor heavy atom, donor atom, acceptor molecule, acceptor atom, score
      P1  H  7989  7998       L1     1  0.82

> <Gold.PLP.Chemscore.Internal.Correction>
3.0916

> <Gold.Rescore>
     Score         DG    S(hbond)    S(metal)    S(lipo)     H(rot)  DE(clash)    DE(int)     intcor
     16.29     -18.37       0.97        0.00     110.43       1.27       0.04       2.04       ----

> <Gold.Chemscore.Fitness>
16.2898

> <Gold.Chemscore.DG>
-18.3651

> <Gold.Chemscore.ZeroCoef>
-5.4800

> <Gold.Chemscore.Hbond>
0.9659

> <Gold.Chemscore.Metal>
0.0000

> <Gold.Chemscore.Lipo>
110.4268

> <Gold.Chemscore.Internal_Hbond>
0.0000

> <Gold.Chemscore.DEClash>
0.0355

> <Gold.Chemscore.DEInternal>
2.0399

> <Gold.Chemscore.Rot>
1.2738

> <Gold.Chemscore.Internal.Correction>
   9.000000E+99

> <Gold.Chemscore.Hbonds>
donor molecule, donor type, donor heavy atom, donor atom, acceptor molecule, acceptor atom, score
      P1  H  7989  7998       L1     1  0.77

> <Gold.Chemscore.Hbond.Weighted>
-3.2262

> <Gold.Chemscore.Metal.Weighted>
-0.0000

> <Gold.Chemscore.Lipo.Weighted>
-12.9199

> <Gold.Chemscore.Internal_Hbond.Weighted>
0.0000

> <Gold.Chemscore.DEClash.Weighted>
0.0355

> <Gold.Chemscore.DEInternal.Weighted>
2.0399

> <Gold.Chemscore.Rot.Weighted>
3.2610

> <Gold.Chemscore.Internal.Correction.Weighted>
   9.000000E+99

> <Gold.Protein.RotatedTorsions>
[ 6907 6896 6895 6894 ] final  129.30 input  -60.11 | X-H torsion
[ 7974 7965 7964 7962 ] final  130.69 input  175.53 | X-H torsion
[ 8008 7997 7996 7995 ] final   66.83 input   59.86 | X-H torsion
[ 10167 10162 10161 10158 ] final  -66.98 input  -65.29 | X-H torsion
[ 10718 10713 10712 10709 ] final  106.32 input   66.30 | X-H torsion
[ 10763 10752 10751 10750 ] final   43.38 input  -60.55 | X-H torsion
[ 11005 11000 10999 10996 ] final -118.26 input  -57.11 | X-H torsion

> <Gold.Protein.ActiveResidues>
 VAL166  LYS551  ARG553  GLY616  TRP617  ASP618  TYR619  PRO620  LYS621  CYS622 
 ASP623  PHE694  ASN695  SER759  ASP760  ASP761  ALA762  ILE779  LEU786  VAL792 
 PHE793  MET794  SER795  GLU796  ALA797  LYS798  CYS799  TRP800  GLU811  SER814 

> <Gold.Protein.RotatedAtoms>
  152.3637  133.6329  159.6033 H   0  0  0  0  0  0  0  0  0  0  0  0  # atno 6907 bound_to 6896
  150.7619  133.9383  159.3457 H   0  0  0  0  0  0  0  0  0  0  0  0  # atno 6908 bound_to 6896
  151.7217  135.0894  160.0336 H   0  0  0  0  0  0  0  0  0  0  0  0  # atno 6909 bound_to 6896
  145.0152  139.4182  143.5225 H   0  0  0  0  0  0  0  0  0  0  0  0  # atno 7974 bound_to 7965
  155.6834  140.3496  155.4864 H   0  0  0  0  0  0  0  0  0  0  0  0  # atno 8008 bound_to 7997
  155.9587  140.1133  157.0937 H   0  0  0  0  0  0  0  0  0  0  0  0  # atno 8009 bound_to 7997
  154.4138  140.1180  156.5135 H   0  0  0  0  0  0  0  0  0  0  0  0  # atno 8010 bound_to 7997
  140.5617  143.2313  151.6715 H   0  0  0  0  0  0  0  0  0  0  0  0  # atno 10167 bound_to 10162
  157.6673  131.0848  150.5988 H   0  0  0  0  0  0  0  0  0  0  0  0  # atno 10718 bound_to 10713
  152.9862  135.6103  154.3102 H   0  0  0  0  0  0  0  0  0  0  0  0  # atno 10763 bound_to 10752
  154.2818  135.2777  155.2695 H   0  0  0  0  0  0  0  0  0  0  0  0  # atno 10764 bound_to 10752
  154.5031  135.5861  153.6603 H   0  0  0  0  0  0  0  0  0  0  0  0  # atno 10765 bound_to 10752
  141.0298  133.9998  157.3160 H   0  0  0  0  0  0  0  0  0  0  0  0  # atno 11005 bound_to 11000
  146.3477  139.9619  142.8716 LP  0  0  0  0  0  0  0  0  0  0  0  0  # atno 17320 bound_to 7965
  145.1969  140.9837  143.4178 LP  0  0  0  0  0  0  0  0  0  0  0  0  # atno 17321 bound_to 7965
  139.5073  144.3650  152.0525 LP  0  0  0  0  0  0  0  0  0  0  0  0  # atno 17342 bound_to 10162
  140.2778  144.3893  150.6129 LP  0  0  0  0  0  0  0  0  0  0  0  0  # atno 17343 bound_to 10162
  156.6289  130.4426  149.5794 LP  0  0  0  0  0  0  0  0  0  0  0  0  # atno 17370 bound_to 10713
  156.2297  130.6787  151.1451 LP  0  0  0  0  0  0  0  0  0  0  0  0  # atno 17371 bound_to 10713
  139.9200  135.0200  156.8029 LP  0  0  0  0  0  0  0  0  0  0  0  0  # atno 17394 bound_to 11000
  140.6426  133.9804  155.7715 LP  0  0  0  0  0  0  0  0  0  0  0  0  # atno 17395 bound_to 11000

$$$$
