AV-unprocessed.smi:1813|AV-procd|sdf|7346|dock6
  -GOLD-   22720 9 03D 1   1.00000     0.00000
 Structure written by MMmdl.
 39 40  0  0  0  0  0  0  0  0  3 V2000
  143.7854  132.4044  149.6550 C   0  0  0  0  0  0  0  0  0  0  0  0
  144.9679  133.1977  149.9544 N   0  0  0  0  0  0  0  0  0  0  0  0
  145.5985  133.1935  151.1368 C   0  0  0  0  0  0  0  0  0  0  0  0
  145.2374  132.5043  152.0914 O   0  0  0  0  0  0  0  0  0  0  0  0
  146.8347  134.0918  151.2480 C   0  0  0  0  0  0  0  0  0  0  0  0
  147.3794  134.1643  152.6281 N   0  3  2  0  0  0  0  0  0  0  0  0
  148.0763  132.9190  153.0473 C   0  0  0  0  0  0  0  0  0  0  0  0
  148.7427  133.0941  154.4213 C   0  0  0  0  0  0  0  0  0  0  0  0
  147.7178  133.5215  155.4834 C   0  0  1  0  0  0  0  0  0  0  0  0
  148.3948  133.7629  156.7537 N   0  0  0  0  0  0  0  0  0  0  0  0
  147.8138  134.1802  157.8876 C   0  0  0  0  0  0  0  0  0  0  0  0
  146.5997  134.3942  157.9140 O   0  0  0  0  0  0  0  0  0  0  0  0
  148.6775  134.3275  158.9171 N   0  5  0  0  0  0  0  0  0  0  0  0
  148.2353  134.7687  160.1060 C   0  0  0  0  0  0  0  0  0  0  0  0
  147.8007  133.9512  161.0717 N   0  0  0  0  0  0  0  0  0  0  0  0
  147.3922  134.6229  162.2253 C   0  0  0  0  0  0  0  0  0  0  0  0
  147.5277  135.9831  162.1395 C   0  0  0  0  0  0  0  0  0  0  0  0
  148.1769  136.4638  160.5978 S   0  0  0  0  0  0  0  0  0  0  0  0
  146.9779  134.7853  155.0078 C   0  0  0  0  0  0  0  0  0  0  0  0
  146.3530  134.5736  153.6199 C   0  0  0  0  0  0  0  0  0  0  0  0
  143.4689  132.5821  148.6271 H   0  0  0  0  0  0  0  0  0  0  0  0
  142.9601  132.6714  150.3163 H   0  0  0  0  0  0  0  0  0  0  0  0
  143.9925  131.3394  149.7679 H   0  0  0  0  0  0  0  0  0  0  0  0
  145.3288  133.7833  149.2149 H   0  0  0  0  0  0  0  0  0  0  0  0
  147.5857  133.6696  150.5791 H   0  0  0  0  0  0  0  0  0  0  0  0
  146.6157  135.0954  150.8793 H   0  0  0  0  0  0  0  0  0  0  0  0
  147.3625  132.0943  153.0800 H   0  0  0  0  0  0  0  0  0  0  0  0
  148.8370  132.6476  152.3151 H   0  0  0  0  0  0  0  0  0  0  0  0
  149.2228  132.1613  154.7199 H   0  0  0  0  0  0  0  0  0  0  0  0
  149.5355  133.8401  154.3467 H   0  0  0  0  0  0  0  0  0  0  0  0
  146.9982  132.7102  155.6103 H   0  0  0  0  0  0  0  0  0  0  0  0
  149.3908  133.5998  156.7810 H   0  0  0  0  0  0  0  0  0  0  0  0
  147.0193  134.0518  163.0622 H   0  0  0  0  0  0  0  0  0  0  0  0
  147.2885  136.7273  162.8836 H   0  0  0  0  0  0  0  0  0  0  0  0
  146.1992  135.0589  155.7205 H   0  0  0  0  0  0  0  0  0  0  0  0
  147.6701  135.6279  154.9695 H   0  0  0  0  0  0  0  0  0  0  0  0
  145.8774  135.5008  153.2986 H   0  0  0  0  0  0  0  0  0  0  0  0
  145.5702  133.8150  153.6703 H   0  0  0  0  0  0  0  0  0  0  0  0
  148.0723  134.8997  152.6184 H   0  0  0  0  0  0  0  0  0  0  0  0
  1  2  1  0  0  0  0
  1 21  1  0  0  0  0
  1 22  1  0  0  0  0
  1 23  1  0  0  0  0
  2  3  1  0  0  0  0
  2 24  1  0  0  0  0
  3  4  2  0  0  0  0
  3  5  1  0  0  0  0
  5  6  1  0  0  0  0
  5 25  1  0  0  0  0
  5 26  1  0  0  0  0
  6 20  1  0  0  0  0
  6  7  1  0  0  0  0
  6 39  1  0  0  0  0
  7  8  1  0  0  0  0
  7 27  1  0  0  0  0
  7 28  1  0  0  0  0
  8  9  1  0  0  0  0
  8 29  1  0  0  0  0
  8 30  1  0  0  0  0
  9 10  1  0  0  0  0
  9 19  1  0  0  0  0
  9 31  1  0  0  0  0
 10 11  1  0  0  0  0
 10 32  1  0  0  0  0
 11 12  2  0  0  0  0
 11 13  1  0  0  0  0
 13 14  1  0  0  0  0
 14 18  1  0  0  0  0
 14 15  2  0  0  0  0
 15 16  1  0  0  0  0
 16 17  2  0  0  0  0
 16 33  1  0  0  0  0
 17 18  1  0  0  0  0
 17 34  1  0  0  0  0
 19 20  1  0  0  0  0
 19 35  1  0  0  0  0
 19 36  1  0  0  0  0
 20 37  1  0  0  0  0
 20 38  1  0  0  0  0
M  CHG  1   6   1
M  CHG  1  13  -1
M  END
> <s_m_source_file>
AV-unprocessed.smi

> <i_m_source_file_index>
1813

> <i_lp_mmshare_version>
43012

> <i_f3d_flags>
0

> <s_epik_input>
W0NIM11bTkhdQyg9TylbQ0gyXU4xW0NIMl1bQ0gyXVtDSF0oW0NIMl1bQ0gyXTEpW05IXUMoPU8pW05IXWMybltjSF1bY0hdczI=

> <s_epik_cmdline>
J2VwaWtfcHl0aG9uJywgJy1waCcsICc3LjAnLCAnLXRuJywgJzgnLCAnLW1hJywgJzIwMCcsICctbWV0YWxfYmluZGluZycsICctaW1hZScsICc8aW5maWxlLm1hZT4nLCAnLW9tYWUnLCAnPG91dGZpbGUubWFlPic=

> <r_lp_tautomer_probability>
0.999

> <r_epik_Ionization_Penalty>
7.12128

> <r_epik_Ionization_Penalty_Charging>
6.25357

> <r_epik_Ionization_Penalty_Neutral>
0.867707

> <r_epik_State_Penalty>
6.33838

> <r_epik_Charging_Adjusted_Penalty>
12.592

> <i_epik_Tot_Q>
0

> <i_epik_Tot_abs_Q>
2

> <r_epik_Metal_State_Penalty>
2.34161

> <b_epik_Metal_Only>
1

> <s_lp_Force_Field>
OPLS_2005

> <r_lp_Energy>
3.88073

> <b_lp_Chiralities_Consistent>
1

> <s_lp_Variant>
AV-unprocessed.smi:1813-7

> <Gold.Version>
5.8.1

> <Gold.Id.Protein>
6NUR|6NUR_protein|mol2

> <Gold.PLP.Fitness>
41.3126

> <Gold.PLP.PLP>
-28.0231

> <Gold.PLP.part.hbond>
-2.9768

> <Gold.PLP.part.metal>
0.0000

> <Gold.PLP.part.buried>
-3.0335

> <Gold.PLP.part.nonpolar>
-21.3007

> <Gold.PLP.part.repulsive>
0.2582

> <Gold.PLP.ligand.clash>
0.0000

> <Gold.PLP.ligand.torsion>
0.8616

> <Gold.PLP.Chemscore.Hbond>
4.9913

> <Gold.PLP.Chemscore.CHOScore>
0.0000

> <Gold.PLP.Chemscore.Metal>
0.0000

> <Gold.Chemscore.Hbonds>
donor molecule, donor type, donor heavy atom, donor atom, acceptor molecule, acceptor atom, score
      L1  H     2    24       P1  7921  0.96
      L1  H     6    39       P1  7948  2.00
      P1  H  6896  6907       L1    13  1.85

> <Gold.PLP.Chemscore.Internal.Correction>
0.0390

> <Gold.Rescore>
     Score         DG    S(hbond)    S(metal)    S(lipo)     H(rot)  DE(clash)    DE(int)     intcor
     10.94     -14.44       1.99        0.00      58.15       1.76       0.23       3.27       ----

> <Gold.Chemscore.Fitness>
10.9354

> <Gold.Chemscore.DG>
-14.4379

> <Gold.Chemscore.ZeroCoef>
-5.4800

> <Gold.Chemscore.Hbond>
1.9944

> <Gold.Chemscore.Metal>
0.0000

> <Gold.Chemscore.Lipo>
58.1454

> <Gold.Chemscore.Internal_Hbond>
0.0000

> <Gold.Chemscore.DEClash>
0.2282

> <Gold.Chemscore.DEInternal>
3.2744

> <Gold.Chemscore.Rot>
1.7603

> <Gold.Chemscore.Internal.Correction>
   9.000000E+99

> <Gold.Chemscore.Hbonds>
donor molecule, donor type, donor heavy atom, donor atom, acceptor molecule, acceptor atom, score
      L1  H     2    24       P1  7921  0.68
      L1  H     6    39       P1  7948  0.76
      P1  H  6896  6907       L1    13  0.20

> <Gold.Chemscore.Hbond.Weighted>
-6.6613

> <Gold.Chemscore.Metal.Weighted>
-0.0000

> <Gold.Chemscore.Lipo.Weighted>
-6.8030

> <Gold.Chemscore.Internal_Hbond.Weighted>
0.0000

> <Gold.Chemscore.DEClash.Weighted>
0.2282

> <Gold.Chemscore.DEInternal.Weighted>
3.2744

> <Gold.Chemscore.Rot.Weighted>
4.5064

> <Gold.Chemscore.Internal.Correction.Weighted>
   9.000000E+99

> <Gold.Protein.RotatedTorsions>
[ 6907 6896 6895 6894 ] final -101.55 input  -60.11 | X-H torsion
[ 7974 7965 7964 7962 ] final -111.46 input  175.53 | X-H torsion
[ 8008 7997 7996 7995 ] final  135.97 input   59.86 | X-H torsion
[ 10167 10162 10161 10158 ] final   82.16 input  -65.29 | X-H torsion
[ 10718 10713 10712 10709 ] final  -24.33 input   66.30 | X-H torsion
[ 10763 10752 10751 10750 ] final   23.72 input  -60.55 | X-H torsion
[ 11005 11000 10999 10996 ] final -102.70 input  -57.11 | X-H torsion

> <Gold.Protein.ActiveResidues>
 VAL166  LYS551  ARG553  GLY616  TRP617  ASP618  TYR619  PRO620  LYS621  CYS622 
 ASP623  PHE694  ASN695  SER759  ASP760  ASP761  ALA762  ILE779  LEU786  VAL792 
 PHE793  MET794  SER795  GLU796  ALA797  LYS798  CYS799  TRP800  GLU811  SER814 

> <Gold.Protein.RotatedAtoms>
  150.7159  134.0716  159.3866 H   0  0  0  0  0  0  0  0  0  0  0  0  # atno 6907 bound_to 6896
  151.8699  135.0491  160.0487 H   0  0  0  0  0  0  0  0  0  0  0  0  # atno 6908 bound_to 6896
  152.2651  133.5296  159.5442 H   0  0  0  0  0  0  0  0  0  0  0  0  # atno 6909 bound_to 6896
  145.1558  140.8853  143.3620 H   0  0  0  0  0  0  0  0  0  0  0  0  # atno 7974 bound_to 7965
  156.3004  140.2457  156.3669 H   0  0  0  0  0  0  0  0  0  0  0  0  # atno 8008 bound_to 7997
  154.8825  140.0412  157.1810 H   0  0  0  0  0  0  0  0  0  0  0  0  # atno 8009 bound_to 7997
  154.8681  140.2931  155.5502 H   0  0  0  0  0  0  0  0  0  0  0  0  # atno 8010 bound_to 7997
  139.9317  144.6147  150.8338 H   0  0  0  0  0  0  0  0  0  0  0  0  # atno 10167 bound_to 10162
  156.4792  130.4541  149.6822 H   0  0  0  0  0  0  0  0  0  0  0  0  # atno 10718 bound_to 10713
  153.0817  135.6621  154.0031 H   0  0  0  0  0  0  0  0  0  0  0  0  # atno 10763 bound_to 10752
  153.9651  135.2970  155.3432 H   0  0  0  0  0  0  0  0  0  0  0  0  # atno 10764 bound_to 10752
  154.7218  135.5161  153.8895 H   0  0  0  0  0  0  0  0  0  0  0  0  # atno 10765 bound_to 10752
  141.1178  133.8580  157.1393 H   0  0  0  0  0  0  0  0  0  0  0  0  # atno 11005 bound_to 11000
  145.0383  139.3282  143.5990 LP  0  0  0  0  0  0  0  0  0  0  0  0  # atno 17320 bound_to 7965
  146.3489  139.9746  142.8702 LP  0  0  0  0  0  0  0  0  0  0  0  0  # atno 17321 bound_to 7965
  140.7635  143.3226  151.2588 LP  0  0  0  0  0  0  0  0  0  0  0  0  # atno 17342 bound_to 10162
  139.6777  143.9909  152.2790 LP  0  0  0  0  0  0  0  0  0  0  0  0  # atno 17343 bound_to 10162
  156.3539  130.7446  151.2410 LP  0  0  0  0  0  0  0  0  0  0  0  0  # atno 17370 bound_to 10713
  157.7485  131.0369  150.4431 LP  0  0  0  0  0  0  0  0  0  0  0  0  # atno 17371 bound_to 10713
  140.0112  134.9987  157.0399 LP  0  0  0  0  0  0  0  0  0  0  0  0  # atno 17394 bound_to 11000
  140.4596  134.1497  155.7190 LP  0  0  0  0  0  0  0  0  0  0  0  0  # atno 17395 bound_to 11000

$$$$
