AV-unprocessed.smi:110|AV-procd|sdf|1069|dock7
  -GOLD-   2262018153D 1   1.00000     0.00000
 Structure written by MMmdl.
 46 50  0  0  0  0  0  0  0  0  1 V2000
  147.6273  137.7867  153.9408 O   0  0  0  0  0  0  0  0  0  0  0  0
  148.2704  137.3381  155.1148 C   0  0  0  0  0  0  0  0  0  0  0  0
  149.5228  138.1850  155.3874 C   0  0  1  0  0  0  0  0  0  0  0  0
  150.3657  137.5088  156.3082 O   0  0  0  0  0  0  0  0  0  0  0  0
  151.6728  137.9636  156.1702 C   0  0  2  0  0  0  0  0  0  0  0  0
  151.9041  139.0610  157.1750 N   0  0  0  0  0  0  0  0  0  0  0  0
  151.2488  140.2720  157.1999 C   0  0  0  0  0  0  0  0  0  0  0  0
  151.6156  141.0958  158.1410 N   0  0  0  0  0  0  0  0  0  0  0  0
  152.6314  140.4231  158.8060 C   0  0  0  0  0  0  0  0  0  0  0  0
  153.4670  140.7344  159.9173 C   0  0  0  0  0  0  0  0  0  0  0  0
  153.4152  141.8895  160.6205 N   0  0  0  0  0  0  0  0  0  0  0  0
  153.5982  141.8257  162.0782 C   0  0  0  0  0  0  0  0  0  0  0  0
  152.9403  143.0775  162.6894 C   0  0  0  0  0  0  0  0  0  0  0  0
  152.5053  143.8011  161.4567 C   0  0  0  0  0  0  0  0  0  0  0  0
  151.8800  145.0579  161.3811 C   0  0  0  0  0  0  0  0  0  0  0  0
  151.5675  145.5693  160.1032 C   0  0  0  0  0  0  0  0  0  0  0  0
  151.8871  144.8309  158.9400 C   0  0  0  0  0  0  0  0  0  0  0  0
  152.5167  143.5706  159.0405 C   0  0  0  0  0  0  0  0  0  0  0  0
  152.8084  143.0574  160.3210 C   0  0  0  0  0  0  0  0  0  0  0  0
  154.3422  139.7858  160.3337 N   0  0  0  0  0  0  0  0  0  0  0  0
  154.4267  138.6232  159.6844 C   0  0  0  0  0  0  0  0  0  0  0  0
  153.7277  138.2078  158.6276 N   0  0  0  0  0  0  0  0  0  0  0  0
  152.8202  139.1399  158.2134 C   0  0  0  0  0  0  0  0  0  0  0  0
  151.8497  138.4093  154.7086 C   0  0  1  0  0  0  0  0  0  0  0  0
  152.6832  137.5126  154.0016 O   0  0  0  0  0  0  0  0  0  0  0  0
  150.4225  138.3580  154.1524 C   0  0  2  0  0  0  0  0  0  0  0  0
  150.1023  139.5617  153.4839 O   0  0  0  0  0  0  0  0  0  0  0  0
  149.2438  139.1546  155.8004 H   0  0  0  0  0  0  0  0  0  0  0  0
  152.3751  137.1850  156.4712 H   0  0  0  0  0  0  0  0  0  0  0  0
  152.3038  139.3984  154.6564 H   0  0  0  0  0  0  0  0  0  0  0  0
  150.3000  137.5125  153.4730 H   0  0  0  0  0  0  0  0  0  0  0  0
  147.8669  137.2130  153.2291 H   0  0  0  0  0  0  0  0  0  0  0  0
  147.5815  137.3636  155.9596 H   0  0  0  0  0  0  0  0  0  0  0  0
  148.5508  136.2964  154.9553 H   0  0  0  0  0  0  0  0  0  0  0  0
  150.4751  140.5280  156.4908 H   0  0  0  0  0  0  0  0  0  0  0  0
  153.1547  140.9159  162.4855 H   0  0  0  0  0  0  0  0  0  0  0  0
  154.6649  141.8049  162.3048 H   0  0  0  0  0  0  0  0  0  0  0  0
  152.0787  142.8256  163.3082 H   0  0  0  0  0  0  0  0  0  0  0  0
  153.6439  143.6739  163.2704 H   0  0  0  0  0  0  0  0  0  0  0  0
  151.6477  145.6184  162.2745 H   0  0  0  0  0  0  0  0  0  0  0  0
  151.0869  146.5323  160.0127 H   0  0  0  0  0  0  0  0  0  0  0  0
  151.6510  145.2345  157.9665 H   0  0  0  0  0  0  0  0  0  0  0  0
  152.7690  143.0164  158.1486 H   0  0  0  0  0  0  0  0  0  0  0  0
  155.1568  137.9254  160.0669 H   0  0  0  0  0  0  0  0  0  0  0  0
  153.0063  137.9502  153.2287 H   0  0  0  0  0  0  0  0  0  0  0  0
  149.2891  139.8904  153.8370 H   0  0  0  0  0  0  0  0  0  0  0  0
  1  2  1  0  0  0  0
  1 32  1  0  0  0  0
  2  3  1  0  0  0  0
  2 33  1  0  0  0  0
  2 34  1  0  0  0  0
  3 28  1  0  0  0  0
  3 26  1  0  0  0  0
  3  4  1  0  0  0  0
  4  5  1  0  0  0  0
  5 29  1  0  0  0  0
  5  6  1  0  0  0  0
  5 24  1  0  0  0  0
  6 23  1  0  0  0  0
  6  7  1  0  0  0  0
  7  8  2  0  0  0  0
  7 35  1  0  0  0  0
  8  9  1  0  0  0  0
  9 23  2  0  0  0  0
  9 10  1  0  0  0  0
 10 11  1  0  0  0  0
 10 20  2  0  0  0  0
 11 19  1  0  0  0  0
 11 12  1  0  0  0  0
 12 13  1  0  0  0  0
 12 36  1  0  0  0  0
 12 37  1  0  0  0  0
 13 14  1  0  0  0  0
 13 38  1  0  0  0  0
 13 39  1  0  0  0  0
 14 19  2  0  0  0  0
 14 15  1  0  0  0  0
 15 16  2  0  0  0  0
 15 40  1  0  0  0  0
 16 17  1  0  0  0  0
 16 41  1  0  0  0  0
 17 18  2  0  0  0  0
 17 42  1  0  0  0  0
 18 19  1  0  0  0  0
 18 43  1  0  0  0  0
 20 21  1  0  0  0  0
 21 22  2  0  0  0  0
 21 44  1  0  0  0  0
 22 23  1  0  0  0  0
 24 30  1  0  0  0  0
 24 25  1  0  0  0  0
 24 26  1  0  0  0  0
 25 45  1  0  0  0  0
 26 31  1  0  0  0  0
 26 27  1  0  0  0  0
 27 46  1  0  0  0  0
M  END
> <s_m_source_file>
AV-unprocessed.smi

> <i_m_source_file_index>
110

> <i_lp_mmshare_version>
43012

> <i_f3d_flags>
0

> <s_epik_input>
W09IXVtDSDJdW0NASF0xT1tDQEhdKFtDQEhdKFtPSF0pW0NAQEhdMVtPSF0pbihbY0hdbjIpYyhjMjMpbltjSF1uYzNOKFtDSDJdW0NIMl00KWMoYzQ1KVtjSF1bY0hdW2NIXVtjSF01

> <s_epik_cmdline>
J2VwaWtfcHl0aG9uJywgJy1waCcsICc3LjAnLCAnLXRuJywgJzgnLCAnLW1hJywgJzIwMCcsICctbWV0YWxfYmluZGluZycsICctaW1hZScsICc8aW5maWxlLm1hZT4nLCAnLW9tYWUnLCAnPG91dGZpbGUubWFlPic=

> <r_lp_tautomer_probability>
1

> <r_epik_Ionization_Penalty>
0.00068475

> <r_epik_Ionization_Penalty_Charging>
0

> <r_epik_Ionization_Penalty_Neutral>
0.00068475

> <r_epik_State_Penalty>
0.000417442

> <r_epik_Charging_Adjusted_Penalty>
0.000417442

> <i_epik_Tot_Q>
0

> <i_epik_Tot_abs_Q>
0

> <r_epik_Metal_State_Penalty>
-0

> <b_epik_Metal_Only>
0

> <s_epik_Chemistry_Notes>
This compound contains an acetal/aminal-like group ( X-CH(R)-Y where X, Y are N, S, or O) that may be acid/base labile, releasing an aldehyde.

> <s_lp_Force_Field>
OPLS_2005

> <r_lp_Energy>
55.3724

> <b_lp_Chiralities_Consistent>
1

> <s_lp_Variant>
AV-unprocessed.smi:110-7

> <Gold.Version>
5.8.1

> <Gold.Id.Protein>
6NUR|6NUR_protein|mol2

> <Gold.PLP.Fitness>
62.3491

> <Gold.PLP.PLP>
-56.0706

> <Gold.PLP.part.hbond>
-3.7560

> <Gold.PLP.part.metal>
0.0000

> <Gold.PLP.part.buried>
-2.9385

> <Gold.PLP.part.nonpolar>
-48.6785

> <Gold.PLP.part.repulsive>
0.0068

> <Gold.PLP.ligand.clash>
0.0000

> <Gold.PLP.ligand.torsion>
0.4303

> <Gold.PLP.Chemscore.Hbond>
2.3280

> <Gold.PLP.Chemscore.CHOScore>
0.0000

> <Gold.PLP.Chemscore.Metal>
0.0000

> <Gold.Chemscore.Hbonds>
donor molecule, donor type, donor heavy atom, donor atom, acceptor molecule, acceptor atom, score
      L1  H     1    32       P1  7948  1.00
      P1  H  7989  7998       L1    27  0.77
      P1  H 10752 10765       L1    25  0.54

> <Gold.PLP.Chemscore.Internal.Correction>
0.1551

> <Gold.Rescore>
     Score         DG    S(hbond)    S(metal)    S(lipo)     H(rot)  DE(clash)    DE(int)     intcor
     15.32     -18.25       1.99        0.00     126.20       3.38       1.10       1.83       ----

> <Gold.Chemscore.Fitness>
15.3164

> <Gold.Chemscore.DG>
-18.2459

> <Gold.Chemscore.ZeroCoef>
-5.4800

> <Gold.Chemscore.Hbond>
1.9946

> <Gold.Chemscore.Metal>
0.0000

> <Gold.Chemscore.Lipo>
126.2049

> <Gold.Chemscore.Internal_Hbond>
0.0000

> <Gold.Chemscore.DEClash>
1.0985

> <Gold.Chemscore.DEInternal>
1.8310

> <Gold.Chemscore.Rot>
3.3837

> <Gold.Chemscore.Internal.Correction>
   9.000000E+99

> <Gold.Chemscore.Hbonds>
donor molecule, donor type, donor heavy atom, donor atom, acceptor molecule, acceptor atom, score
      L1  H     1    32       P1  7948  0.96
      P1  H  7989  7998       L1    27  0.59
      P1  H 10752 10765       L1    25  0.22

> <Gold.Chemscore.Hbond.Weighted>
-6.6621

> <Gold.Chemscore.Metal.Weighted>
-0.0000

> <Gold.Chemscore.Lipo.Weighted>
-14.7660

> <Gold.Chemscore.Internal_Hbond.Weighted>
0.0000

> <Gold.Chemscore.DEClash.Weighted>
1.0985

> <Gold.Chemscore.DEInternal.Weighted>
1.8310

> <Gold.Chemscore.Rot.Weighted>
8.6622

> <Gold.Chemscore.Internal.Correction.Weighted>
   9.000000E+99

> <Gold.Protein.RotatedTorsions>
[ 6907 6896 6895 6894 ] final  -36.94 input  -60.11 | X-H torsion
[ 7974 7965 7964 7962 ] final   39.36 input  175.53 | X-H torsion
[ 8008 7997 7996 7995 ] final  150.78 input   59.86 | X-H torsion
[ 10167 10162 10161 10158 ] final    6.44 input  -65.29 | X-H torsion
[ 10718 10713 10712 10709 ] final   86.01 input   66.30 | X-H torsion
[ 10763 10752 10751 10750 ] final  124.00 input  -60.55 | X-H torsion
[ 11005 11000 10999 10996 ] final  127.21 input  -57.11 | X-H torsion

> <Gold.Protein.ActiveResidues>
 VAL166  LYS551  ARG553  GLY616  TRP617  ASP618  TYR619  PRO620  LYS621  CYS622 
 ASP623  PHE694  ASN695  SER759  ASP760  ASP761  ALA762  ILE779  LEU786  VAL792 
 PHE793  MET794  SER795  GLU796  ALA797  LYS798  CYS799  TRP800  GLU811  SER814 

> <Gold.Protein.RotatedAtoms>
  151.0209  134.9468  159.8058 H   0  0  0  0  0  0  0  0  0  0  0  0  # atno 6907 bound_to 6896
  152.5325  134.2904  159.9051 H   0  0  0  0  0  0  0  0  0  0  0  0  # atno 6908 bound_to 6896
  151.2912  133.4122  159.2667 H   0  0  0  0  0  0  0  0  0  0  0  0  # atno 6909 bound_to 6896
  146.0990  139.5661  142.9426 H   0  0  0  0  0  0  0  0  0  0  0  0  # atno 7974 bound_to 7965
  156.2701  140.2065  156.6072 H   0  0  0  0  0  0  0  0  0  0  0  0  # atno 8008 bound_to 7997
  154.6860  140.0535  157.0338 H   0  0  0  0  0  0  0  0  0  0  0  0  # atno 8009 bound_to 7997
  155.0934  140.3198  155.4570 H   0  0  0  0  0  0  0  0  0  0  0  0  # atno 8010 bound_to 7997
  140.6427  143.7735  150.7453 H   0  0  0  0  0  0  0  0  0  0  0  0  # atno 10167 bound_to 10162
  157.6923  131.0198  150.2908 H   0  0  0  0  0  0  0  0  0  0  0  0  # atno 10718 bound_to 10713
  153.6544  135.3357  155.3109 H   0  0  0  0  0  0  0  0  0  0  0  0  # atno 10763 bound_to 10752
  154.8530  135.4349  154.1870 H   0  0  0  0  0  0  0  0  0  0  0  0  # atno 10764 bound_to 10752
  153.2821  135.7010  153.7450 H   0  0  0  0  0  0  0  0  0  0  0  0  # atno 10765 bound_to 10752
  139.9496  134.9624  156.8822 H   0  0  0  0  0  0  0  0  0  0  0  0  # atno 11005 bound_to 11000
  145.5891  141.0372  143.2080 LP  0  0  0  0  0  0  0  0  0  0  0  0  # atno 17320 bound_to 7965
  144.7418  139.7428  143.7308 LP  0  0  0  0  0  0  0  0  0  0  0  0  # atno 17321 bound_to 7965
  140.1370  143.4475  152.2218 LP  0  0  0  0  0  0  0  0  0  0  0  0  # atno 17342 bound_to 10162
  139.5637  144.7422  151.4083 LP  0  0  0  0  0  0  0  0  0  0  0  0  # atno 17343 bound_to 10162
  156.3440  130.3820  149.7385 LP  0  0  0  0  0  0  0  0  0  0  0  0  # atno 17370 bound_to 10713
  156.4885  130.8074  151.3085 LP  0  0  0  0  0  0  0  0  0  0  0  0  # atno 17371 bound_to 10713
  140.5751  134.0406  155.7444 LP  0  0  0  0  0  0  0  0  0  0  0  0  # atno 17394 bound_to 11000
  141.1155  133.9547  157.2830 LP  0  0  0  0  0  0  0  0  0  0  0  0  # atno 17395 bound_to 11000

$$$$
