AV-unprocessed.smi:2474|AV-procd|sdf|9753|dock1
  -GOLD-   2272013393D 1   1.00000     0.00000
 Structure written by MMmdl.
 40 41  0  0  0  0  0  0  0  0  1 V2000
  144.2879  144.5651  155.5095 C   0  0  0  0  0  0  0  0  0  0  0  0
  145.2873  143.4688  155.3613 C   0  0  0  0  0  0  0  0  0  0  0  0
  145.7019  142.5744  156.3169 C   0  0  0  0  0  0  0  0  0  0  0  0
  146.6605  141.6664  155.8622 N   0  0  0  0  0  0  0  0  0  0  0  0
  146.9719  141.8530  154.5764 C   0  0  0  0  0  0  0  0  0  0  0  0
  147.9868  141.0349  153.8365 C   0  0  2  0  0  0  0  0  0  0  0  0
  147.4261  139.6756  153.3948 C   0  0  0  0  0  0  0  0  0  0  0  0
  149.3359  140.9168  154.5818 C   0  0  0  0  0  0  0  0  0  0  0  0
  149.5680  142.0084  155.5242 N   0  0  0  0  0  0  0  0  0  0  0  0
  150.5092  142.0164  156.4775 C   0  0  0  0  0  0  0  0  0  0  0  0
  151.2750  141.0784  156.6990 O   0  0  0  0  0  0  0  0  0  0  0  0
  150.5296  143.1789  157.1438 N   0  0  0  0  0  0  0  0  0  0  0  0
  151.4728  143.5264  158.2024 C   0  0  1  0  0  0  0  0  0  0  0  0
  150.9783  144.7749  158.9626 C   0  0  0  0  0  0  0  0  0  0  0  0
  151.9561  145.2236  160.0606 C   0  0  0  0  0  0  0  0  0  0  0  0
  152.1726  144.1442  161.1304 C   0  0  0  0  0  0  0  0  0  0  0  0
  152.9000  142.6458  160.4137 S   0  0  0  0  0  0  0  0  0  0  0  0
  151.6495  142.3200  159.1405 C   0  0  0  0  0  0  0  0  0  0  0  0
  146.0936  143.1897  153.8405 S   0  0  0  0  0  0  0  0  0  0  0  0
  143.8777  144.5896  156.5193 H   0  0  0  0  0  0  0  0  0  0  0  0
  143.4602  144.4294  154.8133 H   0  0  0  0  0  0  0  0  0  0  0  0
  144.7449  145.5342  155.3081 H   0  0  0  0  0  0  0  0  0  0  0  0
  145.3708  142.5141  157.3430 H   0  0  0  0  0  0  0  0  0  0  0  0
  148.1909  141.5802  152.9142 H   0  0  0  0  0  0  0  0  0  0  0  0
  146.5364  139.8003  152.7769 H   0  0  0  0  0  0  0  0  0  0  0  0
  147.1523  139.0616  154.2534 H   0  0  0  0  0  0  0  0  0  0  0  0
  148.1594  139.1198  152.8098 H   0  0  0  0  0  0  0  0  0  0  0  0
  149.3526  139.9907  155.1570 H   0  0  0  0  0  0  0  0  0  0  0  0
  150.1625  140.8534  153.8726 H   0  0  0  0  0  0  0  0  0  0  0  0
  148.9890  142.8288  155.4195 H   0  0  0  0  0  0  0  0  0  0  0  0
  149.8579  143.8864  156.8847 H   0  0  0  0  0  0  0  0  0  0  0  0
  152.4421  143.7473  157.7507 H   0  0  0  0  0  0  0  0  0  0  0  0
  150.8364  145.5992  158.2625 H   0  0  0  0  0  0  0  0  0  0  0  0
  149.9993  144.5785  159.4021 H   0  0  0  0  0  0  0  0  0  0  0  0
  152.9128  145.4970  159.6136 H   0  0  0  0  0  0  0  0  0  0  0  0
  151.5718  146.1268  160.5356 H   0  0  0  0  0  0  0  0  0  0  0  0
  152.8362  144.5151  161.9117 H   0  0  0  0  0  0  0  0  0  0  0  0
  151.2271  143.8868  161.6091 H   0  0  0  0  0  0  0  0  0  0  0  0
  150.7063  142.0705  159.6282 H   0  0  0  0  0  0  0  0  0  0  0  0
  151.9602  141.4408  158.5753 H   0  0  0  0  0  0  0  0  0  0  0  0
  1  2  1  0  0  0  0
  1 20  1  0  0  0  0
  1 21  1  0  0  0  0
  1 22  1  0  0  0  0
  2 19  1  0  0  0  0
  2  3  2  0  0  0  0
  3  4  1  0  0  0  0
  3 23  1  0  0  0  0
  4  5  2  0  0  0  0
  5  6  1  0  0  0  0
  5 19  1  0  0  0  0
  6  7  1  0  0  0  0
  6  8  1  0  0  0  0
  6 24  1  0  0  0  0
  7 25  1  0  0  0  0
  7 26  1  0  0  0  0
  7 27  1  0  0  0  0
  8  9  1  0  0  0  0
  8 28  1  0  0  0  0
  8 29  1  0  0  0  0
  9 10  1  0  0  0  0
  9 30  1  0  0  0  0
 10 11  2  0  0  0  0
 10 12  1  0  0  0  0
 12 13  1  0  0  0  0
 12 31  1  0  0  0  0
 13 18  1  0  0  0  0
 13 14  1  0  0  0  0
 13 32  1  0  0  0  0
 14 15  1  0  0  0  0
 14 33  1  0  0  0  0
 14 34  1  0  0  0  0
 15 16  1  0  0  0  0
 15 35  1  0  0  0  0
 15 36  1  0  0  0  0
 16 17  1  0  0  0  0
 16 37  1  0  0  0  0
 16 38  1  0  0  0  0
 17 18  1  0  0  0  0
 18 39  1  0  0  0  0
 18 40  1  0  0  0  0
M  END
> <s_m_source_file>
AV-unprocessed.smi

> <i_m_source_file_index>
2474

> <i_lp_mmshare_version>
43012

> <i_f3d_flags>
0

> <s_epik_input>
W0NIM11jMVtjSF1uYyhzMSlbQ0BIXShbQ0gzXSlbQ0gyXVtOSF1DKD1PKVtOSF1bQ0BASF0yW0NIMl1bQ0gyXVtDSDJdU1tDSDJdMg==

> <s_epik_cmdline>
J2VwaWtfcHl0aG9uJywgJy1waCcsICc3LjAnLCAnLXRuJywgJzgnLCAnLW1hJywgJzIwMCcsICctbWV0YWxfYmluZGluZycsICctaW1hZScsICc8aW5maWxlLm1hZT4nLCAnLW9tYWUnLCAnPG91dGZpbGUubWFlPic=

> <r_epik_Ionization_Penalty>
0.000644338

> <r_epik_Ionization_Penalty_Charging>
0

> <r_epik_Ionization_Penalty_Neutral>
0.000644338

> <r_epik_State_Penalty>
0.000374131

> <r_epik_Charging_Adjusted_Penalty>
0.000374131

> <i_epik_Tot_Q>
0

> <i_epik_Tot_abs_Q>
0

> <r_epik_Metal_State_Penalty>
-0

> <b_epik_Metal_Only>
0

> <s_lp_Force_Field>
OPLS_2005

> <r_lp_Energy>
-6.48006

> <b_lp_Chiralities_Consistent>
1

> <s_lp_Variant>
AV-unprocessed.smi:2474-3

> <Gold.Version>
5.8.1

> <Gold.Id.Protein>
6NUR|6NUR_protein|mol2

> <Gold.PLP.Fitness>
49.9356

> <Gold.PLP.PLP>
-46.0660

> <Gold.PLP.part.hbond>
-2.0000

> <Gold.PLP.part.metal>
0.0000

> <Gold.PLP.part.buried>
-5.8403

> <Gold.PLP.part.nonpolar>
-38.6362

> <Gold.PLP.part.repulsive>
0.3030

> <Gold.PLP.ligand.clash>
0.0000

> <Gold.PLP.ligand.torsion>
1.0299

> <Gold.PLP.Chemscore.Hbond>
1.9280

> <Gold.PLP.Chemscore.CHOScore>
0.0000

> <Gold.PLP.Chemscore.Metal>
0.0000

> <Gold.Chemscore.Hbonds>
donor molecule, donor type, donor heavy atom, donor atom, acceptor molecule, acceptor atom, score
      L1  H     9    30       P1  8028  0.93
      L1  H    12    31       P1  8028  1.00

> <Gold.PLP.Chemscore.Internal.Correction>
0.1455

> <Gold.Rescore>
     Score         DG    S(hbond)    S(metal)    S(lipo)     H(rot)  DE(clash)    DE(int)     intcor
     19.39     -21.46       1.88        0.00     114.84       1.46       0.02       2.05       ----

> <Gold.Chemscore.Fitness>
19.3872

> <Gold.Chemscore.DG>
-21.4624

> <Gold.Chemscore.ZeroCoef>
-5.4800

> <Gold.Chemscore.Hbond>
1.8824

> <Gold.Chemscore.Metal>
0.0000

> <Gold.Chemscore.Lipo>
114.8431

> <Gold.Chemscore.Internal_Hbond>
0.0000

> <Gold.Chemscore.DEClash>
0.0234

> <Gold.Chemscore.DEInternal>
2.0517

> <Gold.Chemscore.Rot>
1.4616

> <Gold.Chemscore.Internal.Correction>
   9.000000E+99

> <Gold.Chemscore.Hbonds>
donor molecule, donor type, donor heavy atom, donor atom, acceptor molecule, acceptor atom, score
      L1  H     9    30       P1  8028  0.89
      L1  H    12    31       P1  8028  0.93

> <Gold.Chemscore.Hbond.Weighted>
-6.2873

> <Gold.Chemscore.Metal.Weighted>
-0.0000

> <Gold.Chemscore.Lipo.Weighted>
-13.4366

> <Gold.Chemscore.Internal_Hbond.Weighted>
0.0000

> <Gold.Chemscore.DEClash.Weighted>
0.0234

> <Gold.Chemscore.DEInternal.Weighted>
2.0517

> <Gold.Chemscore.Rot.Weighted>
3.7416

> <Gold.Chemscore.Internal.Correction.Weighted>
   9.000000E+99

> <Gold.Protein.RotatedTorsions>
[ 6907 6896 6895 6894 ] final  153.59 input  -60.11 | X-H torsion
[ 7974 7965 7964 7962 ] final    0.99 input  175.53 | X-H torsion
[ 8008 7997 7996 7995 ] final  108.06 input   59.86 | X-H torsion
[ 10167 10162 10161 10158 ] final  -10.37 input  -65.29 | X-H torsion
[ 10718 10713 10712 10709 ] final   92.82 input   66.30 | X-H torsion
[ 10763 10752 10751 10750 ] final  -26.59 input  -60.55 | X-H torsion
[ 11005 11000 10999 10996 ] final   -0.23 input  -57.11 | X-H torsion

> <Gold.Protein.ActiveResidues>
 VAL166  LYS551  ARG553  GLY616  TRP617  ASP618  TYR619  PRO620  LYS621  CYS622 
 ASP623  PHE694  ASN695  SER759  ASP760  ASP761  ALA762  ILE779  LEU786  VAL792 
 PHE793  MET794  SER795  GLU796  ALA797  LYS798  CYS799  TRP800  GLU811  SER814 

> <Gold.Protein.RotatedAtoms>
  152.0706  133.4104  159.4457 H   0  0  0  0  0  0  0  0  0  0  0  0  # atno 6907 bound_to 6896
  150.6863  134.3096  159.4750 H   0  0  0  0  0  0  0  0  0  0  0  0  # atno 6908 bound_to 6896
  152.0928  134.9395  160.0622 H   0  0  0  0  0  0  0  0  0  0  0  0  # atno 6909 bound_to 6896
  146.2438  140.1055  142.8346 H   0  0  0  0  0  0  0  0  0  0  0  0  # atno 7974 bound_to 7965
  156.1873  140.3083  155.9263 H   0  0  0  0  0  0  0  0  0  0  0  0  # atno 8008 bound_to 7997
  155.3252  140.0458  157.3058 H   0  0  0  0  0  0  0  0  0  0  0  0  # atno 8009 bound_to 7997
  154.5411  140.2261  155.8650 H   0  0  0  0  0  0  0  0  0  0  0  0  # atno 8010 bound_to 7997
  140.7112  143.5755  150.9047 H   0  0  0  0  0  0  0  0  0  0  0  0  # atno 10167 bound_to 10162
  157.6957  131.0457  150.3940 H   0  0  0  0  0  0  0  0  0  0  0  0  # atno 10718 bound_to 10713
  153.7183  135.6946  153.5019 H   0  0  0  0  0  0  0  0  0  0  0  0  # atno 10763 bound_to 10752
  153.2222  135.4366  155.0501 H   0  0  0  0  0  0  0  0  0  0  0  0  # atno 10764 bound_to 10752
  154.8292  135.3463  154.6718 H   0  0  0  0  0  0  0  0  0  0  0  0  # atno 10765 bound_to 10752
  140.6340  133.9550  155.8289 H   0  0  0  0  0  0  0  0  0  0  0  0  # atno 11005 bound_to 11000
  145.0532  140.9033  143.4983 LP  0  0  0  0  0  0  0  0  0  0  0  0  # atno 17320 bound_to 7965
  145.1156  139.2727  143.5615 LP  0  0  0  0  0  0  0  0  0  0  0  0  # atno 17321 bound_to 7965
  139.9481  143.6303  152.3036 LP  0  0  0  0  0  0  0  0  0  0  0  0  # atno 17342 bound_to 10162
  139.6812  144.7655  151.1605 LP  0  0  0  0  0  0  0  0  0  0  0  0  # atno 17343 bound_to 10162
  156.4340  130.3978  149.6741 LP  0  0  0  0  0  0  0  0  0  0  0  0  # atno 17370 bound_to 10713
  156.3948  130.7645  151.2649 LP  0  0  0  0  0  0  0  0  0  0  0  0  # atno 17371 bound_to 10713
  141.0655  134.0283  157.3600 LP  0  0  0  0  0  0  0  0  0  0  0  0  # atno 17394 bound_to 11000
  139.9105  135.0189  156.7672 LP  0  0  0  0  0  0  0  0  0  0  0  0  # atno 17395 bound_to 11000

$$$$
