AV-unprocessed.smi:2866|AV-procd|sdf|11021|dock4
  -GOLD-   2272015483D 1   1.00000     0.00000
 Structure written by MMmdl.
 42 44  0  0  0  0  0  0  0  0  2 V2000
  152.2903  145.1676  160.1828 C   0  0  0  0  0  0  0  0  0  0  0  0
  152.0249  143.8425  159.4889 C   0  0  0  0  0  0  0  0  0  0  0  0
  151.1977  143.8357  158.3431 C   0  0  0  0  0  0  0  0  0  0  0  0
  150.9738  142.6087  157.7299 C   0  0  0  0  0  0  0  0  0  0  0  0
  150.2221  142.2720  156.6018 N   0  3  0  0  0  0  0  0  0  0  0  0
  150.3039  140.9298  156.3855 C   0  0  0  0  0  0  0  0  0  0  0  0
  151.0959  140.4055  157.3598 N   0  0  0  0  0  0  0  0  0  0  0  0
  151.5109  139.0161  157.5928 C   0  0  0  0  0  0  0  0  0  0  0  0
  150.8237  138.3819  158.8174 C   0  0  2  0  0  0  0  0  0  0  0  0
  151.5157  137.2038  159.1881 O   0  0  0  0  0  0  0  0  0  0  0  0
  149.3435  138.0584  158.5395 C   0  0  0  0  0  0  0  0  0  0  0  0
  148.8096  137.0635  159.4528 N   0  0  0  0  0  0  0  0  0  0  0  0
  148.6397  135.7127  159.2414 C   0  0  0  0  0  0  0  0  0  0  0  0
  148.1017  135.1886  160.3812 C   0  0  0  0  0  0  0  0  0  0  0  0
  147.9753  136.3092  161.2527 C   0  0  0  0  0  0  0  0  0  0  0  0
  147.4405  136.3433  162.6600 C   0  0  0  0  0  0  0  0  0  0  0  0
  148.3739  136.7924  163.4990 F   0  0  0  0  0  0  0  0  0  0  0  0
  146.3816  137.1502  162.7245 F   0  0  0  0  0  0  0  0  0  0  0  0
  147.0777  135.1175  163.0379 F   0  0  0  0  0  0  0  0  0  0  0  0
  148.4020  137.4302  160.6864 N   0  0  0  0  0  0  0  0  0  0  0  0
  151.5385  141.4154  158.2198 C   0  0  0  0  0  0  0  0  0  0  0  0
  152.3568  141.4036  159.3463 C   0  0  0  0  0  0  0  0  0  0  0  0
  152.5986  142.6421  159.9830 C   0  0  0  0  0  0  0  0  0  0  0  0
  153.4907  142.6623  161.2126 C   0  0  0  0  0  0  0  0  0  0  0  0
  151.7349  145.9812  159.7155 H   0  0  0  0  0  0  0  0  0  0  0  0
  153.3506  145.4173  160.1358 H   0  0  0  0  0  0  0  0  0  0  0  0
  151.9906  145.1209  161.2300 H   0  0  0  0  0  0  0  0  0  0  0  0
  150.7593  144.7458  157.9602 H   0  0  0  0  0  0  0  0  0  0  0  0
  149.8305  140.3806  155.5843 H   0  0  0  0  0  0  0  0  0  0  0  0
  151.3110  138.4397  156.6886 H   0  0  0  0  0  0  0  0  0  0  0  0
  152.5938  139.0167  157.7258 H   0  0  0  0  0  0  0  0  0  0  0  0
  150.8797  139.0746  159.6579 H   0  0  0  0  0  0  0  0  0  0  0  0
  152.4437  137.3590  159.0927 H   0  0  0  0  0  0  0  0  0  0  0  0
  148.7399  138.9614  158.6380 H   0  0  0  0  0  0  0  0  0  0  0  0
  149.2119  137.7078  157.5143 H   0  0  0  0  0  0  0  0  0  0  0  0
  148.9128  135.2421  158.3083 H   0  0  0  0  0  0  0  0  0  0  0  0
  147.8385  134.1578  160.5666 H   0  0  0  0  0  0  0  0  0  0  0  0
  152.7922  140.4892  159.7213 H   0  0  0  0  0  0  0  0  0  0  0  0
  153.8784  141.6691  161.4411 H   0  0  0  0  0  0  0  0  0  0  0  0
  152.9343  143.0112  162.0830 H   0  0  0  0  0  0  0  0  0  0  0  0
  154.3433  143.3239  161.0572 H   0  0  0  0  0  0  0  0  0  0  0  0
  149.6933  142.9086  156.0192 H   0  0  0  0  0  0  0  0  0  0  0  0
  1  2  1  0  0  0  0
  1 25  1  0  0  0  0
  1 26  1  0  0  0  0
  1 27  1  0  0  0  0
  2 23  1  0  0  0  0
  2  3  2  0  0  0  0
  3  4  1  0  0  0  0
  3 28  1  0  0  0  0
  4 21  2  0  0  0  0
  4  5  1  0  0  0  0
  5  6  2  0  0  0  0
  5 42  1  0  0  0  0
  6  7  1  0  0  0  0
  6 29  1  0  0  0  0
  7  8  1  0  0  0  0
  7 21  1  0  0  0  0
  8  9  1  0  0  0  0
  8 30  1  0  0  0  0
  8 31  1  0  0  0  0
  9 10  1  0  0  0  0
  9 11  1  0  0  0  0
  9 32  1  0  0  0  0
 10 33  1  0  0  0  0
 11 12  1  0  0  0  0
 11 34  1  0  0  0  0
 11 35  1  0  0  0  0
 12 20  1  0  0  0  0
 12 13  1  0  0  0  0
 13 14  2  0  0  0  0
 13 36  1  0  0  0  0
 14 15  1  0  0  0  0
 14 37  1  0  0  0  0
 15 16  1  0  0  0  0
 15 20  2  0  0  0  0
 16 17  1  0  0  0  0
 16 18  1  0  0  0  0
 16 19  1  0  0  0  0
 21 22  1  0  0  0  0
 22 23  2  0  0  0  0
 22 38  1  0  0  0  0
 23 24  1  0  0  0  0
 24 39  1  0  0  0  0
 24 40  1  0  0  0  0
 24 41  1  0  0  0  0
M  CHG  1   5   1
M  END
> <s_m_source_file>
AV-unprocessed.smi

> <i_m_source_file_index>
2866

> <i_lp_mmshare_version>
43012

> <i_f3d_flags>
0

> <s_epik_input>
W0NIM11jKFtjSF0xKWMoW0NIM10pW2NIXWMoYzEyKW4oW2NIXW4yKVtDSDJdW0NASF0oW09IXSlbQ0gyXW4zW2NIXVtjSF1jKG4zKUMoRikoRilG

> <s_epik_cmdline>
J2VwaWtfcHl0aG9uJywgJy1waCcsICc3LjAnLCAnLXRuJywgJzgnLCAnLW1hJywgJzIwMCcsICctbWV0YWxfYmluZGluZycsICctaW1hZScsICc8aW5maWxlLm1hZT4nLCAnLW9tYWUnLCAnPG91dGZpbGUubWFlPic=

> <r_lp_tautomer_probability>
1

> <r_epik_Ionization_Penalty>
1.09214

> <r_epik_Ionization_Penalty_Charging>
1.09214

> <r_epik_Ionization_Penalty_Neutral>
2.80082e-06

> <r_epik_State_Penalty>
1.14852

> <r_epik_Charging_Adjusted_Penalty>
2.24066

> <i_epik_Tot_Q>
1

> <i_epik_Tot_abs_Q>
1

> <r_epik_Metal_State_Penalty>
1.23687

> <b_epik_Metal_Only>
0

> <s_lp_Force_Field>
OPLS_2005

> <r_lp_Energy>
15.9965

> <b_lp_Chiralities_Consistent>
1

> <s_lp_Variant>
AV-unprocessed.smi:2866-3

> <Gold.Version>
5.8.1

> <Gold.Id.Protein>
6NUR|6NUR_protein|mol2

> <Gold.PLP.Fitness>
66.6562

> <Gold.PLP.PLP>
-56.3521

> <Gold.PLP.part.hbond>
-3.7195

> <Gold.PLP.part.metal>
0.0000

> <Gold.PLP.part.buried>
-7.3286

> <Gold.PLP.part.nonpolar>
-45.2902

> <Gold.PLP.part.repulsive>
0.0606

> <Gold.PLP.ligand.clash>
0.0000

> <Gold.PLP.ligand.torsion>
0.7446

> <Gold.PLP.Chemscore.Hbond>
3.9187

> <Gold.PLP.Chemscore.CHOScore>
0.0000

> <Gold.PLP.Chemscore.Metal>
0.0000

> <Gold.Chemscore.Hbonds>
donor molecule, donor type, donor heavy atom, donor atom, acceptor molecule, acceptor atom, score
      L1  H     5    42       P1  8028  2.00
      P1  H  6896  6907       L1    10  0.55
      P1  H  6931  6943       L1    20  0.70
      P1  H  6934  6947       L1    20  0.50

> <Gold.PLP.Chemscore.Internal.Correction>
0.0371

> <Gold.Rescore>
     Score         DG    S(hbond)    S(metal)    S(lipo)     H(rot)  DE(clash)    DE(int)     intcor
     19.21     -19.97       2.29        0.00     112.93       2.48       0.08       0.69       ----

> <Gold.Chemscore.Fitness>
19.2060

> <Gold.Chemscore.DG>
-19.9745

> <Gold.Chemscore.ZeroCoef>
-5.4800

> <Gold.Chemscore.Hbond>
2.2866

> <Gold.Chemscore.Metal>
0.0000

> <Gold.Chemscore.Lipo>
112.9267

> <Gold.Chemscore.Internal_Hbond>
0.0000

> <Gold.Chemscore.DEClash>
0.0756

> <Gold.Chemscore.DEInternal>
0.6930

> <Gold.Chemscore.Rot>
2.4825

> <Gold.Chemscore.Internal.Correction>
   9.000000E+99

> <Gold.Chemscore.Hbonds>
donor molecule, donor type, donor heavy atom, donor atom, acceptor molecule, acceptor atom, score
      L1  H     5    42       P1  8028  0.90
      P1  H  6896  6907       L1    10  0.35
      P1  H  6931  6943       L1    20  0.34
      P1  H  6934  6947       L1    20  0.43

> <Gold.Chemscore.Hbond.Weighted>
-7.6372

> <Gold.Chemscore.Metal.Weighted>
-0.0000

> <Gold.Chemscore.Lipo.Weighted>
-13.2124

> <Gold.Chemscore.Internal_Hbond.Weighted>
0.0000

> <Gold.Chemscore.DEClash.Weighted>
0.0756

> <Gold.Chemscore.DEInternal.Weighted>
0.6930

> <Gold.Chemscore.Rot.Weighted>
6.3551

> <Gold.Chemscore.Internal.Correction.Weighted>
   9.000000E+99

> <Gold.Protein.RotatedTorsions>
[ 6907 6896 6895 6894 ] final  -20.83 input  -60.11 | X-H torsion
[ 7974 7965 7964 7962 ] final -152.46 input  175.53 | X-H torsion
[ 8008 7997 7996 7995 ] final  -15.66 input   59.86 | X-H torsion
[ 10167 10162 10161 10158 ] final  123.58 input  -65.29 | X-H torsion
[ 10718 10713 10712 10709 ] final  -30.56 input   66.30 | X-H torsion
[ 10763 10752 10751 10750 ] final -171.45 input  -60.55 | X-H torsion
[ 11005 11000 10999 10996 ] final  -88.01 input  -57.11 | X-H torsion

> <Gold.Protein.ActiveResidues>
 VAL166  LYS551  ARG553  GLY616  TRP617  ASP618  TYR619  PRO620  LYS621  CYS622 
 ASP623  PHE694  ASN695  SER759  ASP760  ASP761  ALA762  ILE779  LEU786  VAL792 
 PHE793  MET794  SER795  GLU796  ALA797  LYS798  CYS799  TRP800  GLU811  SER814 

> <Gold.Protein.RotatedAtoms>
  151.2424  135.0593  159.9029 H   0  0  0  0  0  0  0  0  0  0  0  0  # atno 6907 bound_to 6896
  152.5391  134.0420  159.8082 H   0  0  0  0  0  0  0  0  0  0  0  0  # atno 6908 bound_to 6896
  151.0616  133.5491  159.2665 H   0  0  0  0  0  0  0  0  0  0  0  0  # atno 6909 bound_to 6896
  144.7793  140.4659  143.5851 H   0  0  0  0  0  0  0  0  0  0  0  0  # atno 7974 bound_to 7965
  154.5113  140.2190  155.9151 H   0  0  0  0  0  0  0  0  0  0  0  0  # atno 8008 bound_to 7997
  156.1555  140.3153  155.8686 H   0  0  0  0  0  0  0  0  0  0  0  0  # atno 8009 bound_to 7997
  155.3854  140.0475  157.3033 H   0  0  0  0  0  0  0  0  0  0  0  0  # atno 8010 bound_to 7997
  139.5791  144.6977  151.3576 H   0  0  0  0  0  0  0  0  0  0  0  0  # atno 10167 bound_to 10162
  156.3982  130.4385  149.7342 H   0  0  0  0  0  0  0  0  0  0  0  0  # atno 10718 bound_to 10713
  154.6303  135.2886  155.0224 H   0  0  0  0  0  0  0  0  0  0  0  0  # atno 10763 bound_to 10752
  154.1387  135.6522  153.4941 H   0  0  0  0  0  0  0  0  0  0  0  0  # atno 10764 bound_to 10752
  153.0276  135.5327  154.7128 H   0  0  0  0  0  0  0  0  0  0  0  0  # atno 10765 bound_to 10752
  141.1608  133.7545  156.9389 H   0  0  0  0  0  0  0  0  0  0  0  0  # atno 11005 bound_to 11000
  145.6096  139.1512  143.3083 LP  0  0  0  0  0  0  0  0  0  0  0  0  # atno 17320 bound_to 7965
  146.1992  140.6212  142.9110 LP  0  0  0  0  0  0  0  0  0  0  0  0  # atno 17321 bound_to 7965
  140.7071  143.7486  150.7501 LP  0  0  0  0  0  0  0  0  0  0  0  0  # atno 17342 bound_to 10162
  140.1014  143.4784  152.2423 LP  0  0  0  0  0  0  0  0  0  0  0  0  # atno 17343 bound_to 10162
  156.4369  130.7842  151.2863 LP  0  0  0  0  0  0  0  0  0  0  0  0  # atno 17370 bound_to 10713
  157.7502  131.0137  150.3434 LP  0  0  0  0  0  0  0  0  0  0  0  0  # atno 17371 bound_to 10713
  140.1335  134.9340  157.2369 LP  0  0  0  0  0  0  0  0  0  0  0  0  # atno 17394 bound_to 11000
  140.2924  134.3225  155.7311 LP  0  0  0  0  0  0  0  0  0  0  0  0  # atno 17395 bound_to 11000

$$$$
