AV-unprocessed.smi:1521|AV-procd|sdf|6133|dock9
  -GOLD-   22720 6273D 1   1.00000     0.00000
 Structure written by MMmdl.
 35 36  0  0  0  0  0  0  0  0  2 V2000
  154.5981  141.3470  162.6070 O   0  0  0  0  0  0  0  0  0  0  0  0
  154.7892  140.4362  161.8021 C   0  0  0  0  0  0  0  0  0  0  0  0
  155.5835  139.3871  162.0578 N   0  0  0  0  0  0  0  0  0  0  0  0
  156.2984  139.1543  163.3085 C   0  0  0  0  0  0  0  0  0  0  0  0
  156.0157  137.7491  163.8676 C   0  0  1  0  0  0  0  0  0  0  0  0
  154.5054  137.4446  163.9250 C   0  0  0  0  0  0  0  0  0  0  0  0
  154.3105  136.1246  164.4158 O   0  0  0  0  0  0  0  0  0  0  0  0
  154.9320  135.1636  163.5734 C   0  0  0  0  0  0  0  0  0  0  0  0
  156.4387  135.4598  163.5026 C   0  0  0  0  0  0  0  0  0  0  0  0
  156.6249  136.7822  163.0181 O   0  0  0  0  0  0  0  0  0  0  0  0
  154.2473  140.3317  160.5750 N   0  0  0  0  0  0  0  0  0  0  0  0
  153.3521  141.1832  159.9028 C   0  0  0  0  0  0  0  0  0  0  0  0
  152.9621  142.4151  160.3347 C   0  0  0  0  0  0  0  0  0  0  0  0
  152.0262  143.2449  159.5861 C   0  0  0  0  0  0  0  0  0  0  0  0
  151.6343  144.6537  159.9958 C   0  0  0  0  0  0  0  0  0  0  0  0
  150.3099  144.7750  160.0902 F   0  0  0  0  0  0  0  0  0  0  0  0
  152.1632  144.9442  161.1838 F   0  0  0  0  0  0  0  0  0  0  0  0
  152.0766  145.5495  159.1130 F   0  0  0  0  0  0  0  0  0  0  0  0
  151.6202  142.6469  158.4092 C   0  0  0  0  0  0  0  0  0  0  0  0
  151.9450  141.4320  157.9165 N   0  5  0  0  0  0  0  0  0  0  0  0
  152.8165  140.6621  158.6274 C   0  0  0  0  0  0  0  0  0  0  0  0
  153.1623  139.5489  158.2294 O   0  0  0  0  0  0  0  0  0  0  0  0
  155.6836  138.6844  161.3402 H   0  0  0  0  0  0  0  0  0  0  0  0
  157.3631  139.2565  163.0972 H   0  0  0  0  0  0  0  0  0  0  0  0
  156.0573  139.9204  164.0472 H   0  0  0  0  0  0  0  0  0  0  0  0
  156.4382  137.6720  164.8712 H   0  0  0  0  0  0  0  0  0  0  0  0
  154.0018  138.1441  164.5923 H   0  0  0  0  0  0  0  0  0  0  0  0
  154.0454  137.5513  162.9412 H   0  0  0  0  0  0  0  0  0  0  0  0
  154.7590  134.1670  163.9792 H   0  0  0  0  0  0  0  0  0  0  0  0
  154.4841  135.1888  162.5788 H   0  0  0  0  0  0  0  0  0  0  0  0
  156.9064  135.3463  164.4819 H   0  0  0  0  0  0  0  0  0  0  0  0
  156.9321  134.7610  162.8271 H   0  0  0  0  0  0  0  0  0  0  0  0
  154.5001  139.5086  160.0481 H   0  0  0  0  0  0  0  0  0  0  0  0
  153.3349  142.8284  161.2561 H   0  0  0  0  0  0  0  0  0  0  0  0
  150.9336  143.2357  157.7640 H   0  0  0  0  0  0  0  0  0  0  0  0
  1  2  2  0  0  0  0
  2  3  1  0  0  0  0
  2 11  1  0  0  0  0
  3  4  1  0  0  0  0
  3 23  1  0  0  0  0
  4  5  1  0  0  0  0
  4 24  1  0  0  0  0
  4 25  1  0  0  0  0
  5 10  1  0  0  0  0
  5  6  1  0  0  0  0
  5 26  1  0  0  0  0
  6  7  1  0  0  0  0
  6 27  1  0  0  0  0
  6 28  1  0  0  0  0
  7  8  1  0  0  0  0
  8  9  1  0  0  0  0
  8 29  1  0  0  0  0
  8 30  1  0  0  0  0
  9 10  1  0  0  0  0
  9 31  1  0  0  0  0
  9 32  1  0  0  0  0
 11 12  1  0  0  0  0
 11 33  1  0  0  0  0
 12 21  1  0  0  0  0
 12 13  2  0  0  0  0
 13 14  1  0  0  0  0
 13 34  1  0  0  0  0
 14 15  1  0  0  0  0
 14 19  2  0  0  0  0
 15 16  1  0  0  0  0
 15 17  1  0  0  0  0
 15 18  1  0  0  0  0
 19 20  1  0  0  0  0
 19 35  1  0  0  0  0
 20 21  1  0  0  0  0
 21 22  2  0  0  0  0
M  CHG  1  20  -1
M  END
> <s_m_source_file>
AV-unprocessed.smi

> <i_m_source_file_index>
1521

> <i_lp_mmshare_version>
43012

> <i_f3d_flags>
0

> <s_epik_input>
Tz1jMVtuSF1bY0hdYyhDKEYpKEYpRilbY0hdYzFbTkhdQyg9TylbTkhdW0NIMl1bQ0BASF0yW0NIMl1PW0NIMl1bQ0gyXU8y

> <s_epik_cmdline>
J2VwaWtfcHl0aG9uJywgJy1waCcsICc3LjAnLCAnLXRuJywgJzgnLCAnLW1hJywgJzIwMCcsICctbWV0YWxfYmluZGluZycsICctaW1hZScsICc8aW5maWxlLm1hZT4nLCAnLW9tYWUnLCAnPG91dGZpbGUubWFlPic=

> <r_lp_tautomer_probability>
1

> <r_epik_Ionization_Penalty>
3.1412

> <r_epik_Ionization_Penalty_Charging>
0.17015

> <r_epik_Ionization_Penalty_Neutral>
2.97105

> <r_epik_State_Penalty>
2.96707

> <r_epik_Charging_Adjusted_Penalty>
3.13722

> <i_epik_Tot_Q>
-1

> <i_epik_Tot_abs_Q>
1

> <r_epik_Metal_State_Penalty>
0.451298

> <b_epik_Metal_Only>
1

> <s_lp_Force_Field>
OPLS_2005

> <r_lp_Energy>
21.3

> <b_lp_Chiralities_Consistent>
1

> <s_lp_Variant>
AV-unprocessed.smi:1521-4

> <Gold.Version>
5.8.1

> <Gold.Id.Protein>
6NUR|6NUR_protein|mol2

> <Gold.PLP.Fitness>
42.0056

> <Gold.PLP.PLP>
-39.2477

> <Gold.PLP.part.hbond>
-2.0000

> <Gold.PLP.part.metal>
0.0000

> <Gold.PLP.part.buried>
-4.4917

> <Gold.PLP.part.nonpolar>
-31.5830

> <Gold.PLP.part.repulsive>
0.1256

> <Gold.PLP.ligand.clash>
0.0000

> <Gold.PLP.ligand.torsion>
0.1467

> <Gold.PLP.Chemscore.Hbond>
1.0000

> <Gold.PLP.Chemscore.CHOScore>
0.0000

> <Gold.PLP.Chemscore.Metal>
0.0000

> <Gold.Chemscore.Hbonds>
donor molecule, donor type, donor heavy atom, donor atom, acceptor molecule, acceptor atom, score
      P1  H  7997  8008       L1    22  1.00

> <Gold.PLP.Chemscore.Internal.Correction>
0.0513

> <Gold.Rescore>
     Score         DG    S(hbond)    S(metal)    S(lipo)     H(rot)  DE(clash)    DE(int)     intcor
     12.63     -14.63       0.94        0.00      81.14       1.36       0.87       1.14       ----

> <Gold.Chemscore.Fitness>
12.6275

> <Gold.Chemscore.DG>
-14.6319

> <Gold.Chemscore.ZeroCoef>
-5.4800

> <Gold.Chemscore.Hbond>
0.9433

> <Gold.Chemscore.Metal>
0.0000

> <Gold.Chemscore.Lipo>
81.1362

> <Gold.Chemscore.Internal_Hbond>
0.0000

> <Gold.Chemscore.DEClash>
0.8651

> <Gold.Chemscore.DEInternal>
1.1392

> <Gold.Chemscore.Rot>
1.3640

> <Gold.Chemscore.Internal.Correction>
   9.000000E+99

> <Gold.Chemscore.Hbonds>
donor molecule, donor type, donor heavy atom, donor atom, acceptor molecule, acceptor atom, score
      P1  H  7997  8008       L1    22  0.25

> <Gold.Chemscore.Hbond.Weighted>
-3.1507

> <Gold.Chemscore.Metal.Weighted>
-0.0000

> <Gold.Chemscore.Lipo.Weighted>
-9.4929

> <Gold.Chemscore.Internal_Hbond.Weighted>
0.0000

> <Gold.Chemscore.DEClash.Weighted>
0.8651

> <Gold.Chemscore.DEInternal.Weighted>
1.1392

> <Gold.Chemscore.Rot.Weighted>
3.4918

> <Gold.Chemscore.Internal.Correction.Weighted>
   9.000000E+99

> <Gold.Protein.RotatedTorsions>
[ 6907 6896 6895 6894 ] final   35.56 input  -60.11 | X-H torsion
[ 7974 7965 7964 7962 ] final -107.34 input  175.53 | X-H torsion
[ 8008 7997 7996 7995 ] final  -78.09 input   59.86 | X-H torsion
[ 10167 10162 10161 10158 ] final   -6.17 input  -65.29 | X-H torsion
[ 10718 10713 10712 10709 ] final -150.15 input   66.30 | X-H torsion
[ 10763 10752 10751 10750 ] final  113.63 input  -60.55 | X-H torsion
[ 11005 11000 10999 10996 ] final  107.72 input  -57.11 | X-H torsion

> <Gold.Protein.ActiveResidues>
 VAL166  LYS551  ARG553  GLY616  TRP617  ASP618  TYR619  PRO620  LYS621  CYS622 
 ASP623  PHE694  ASN695  SER759  ASP760  ASP761  ALA762  ILE779  LEU786  VAL792 
 PHE793  MET794  SER795  GLU796  ALA797  LYS798  CYS799  TRP800  GLU811  SER814 

> <Gold.Protein.RotatedAtoms>
  152.1178  134.9227  160.0564 H   0  0  0  0  0  0  0  0  0  0  0  0  # atno 6907 bound_to 6896
  152.0380  133.3960  159.4333 H   0  0  0  0  0  0  0  0  0  0  0  0  # atno 6908 bound_to 6896
  150.6847  134.3368  159.4894 H   0  0  0  0  0  0  0  0  0  0  0  0  # atno 6909 bound_to 6896
  145.2066  140.9079  143.3339 H   0  0  0  0  0  0  0  0  0  0  0  0  # atno 7974 bound_to 7965
  154.5657  140.0700  156.8888 H   0  0  0  0  0  0  0  0  0  0  0  0  # atno 8008 bound_to 7997
  155.2727  140.3366  155.4246 H   0  0  0  0  0  0  0  0  0  0  0  0  # atno 8009 bound_to 7997
  156.2078  140.1747  156.7746 H   0  0  0  0  0  0  0  0  0  0  0  0  # atno 8010 bound_to 7997
  140.6988  143.6224  150.8599 H   0  0  0  0  0  0  0  0  0  0  0  0  # atno 10167 bound_to 10162
  156.4423  130.8128  151.2358 H   0  0  0  0  0  0  0  0  0  0  0  0  # atno 10718 bound_to 10713
  153.4953  135.3650  155.2512 H   0  0  0  0  0  0  0  0  0  0  0  0  # atno 10763 bound_to 10752
  154.8750  135.3987  154.3541 H   0  0  0  0  0  0  0  0  0  0  0  0  # atno 10764 bound_to 10752
  153.4168  135.7079  153.6387 H   0  0  0  0  0  0  0  0  0  0  0  0  # atno 10765 bound_to 10752
  139.8832  134.9409  156.5862 H   0  0  0  0  0  0  0  0  0  0  0  0  # atno 11005 bound_to 11000
  144.9896  139.3702  143.6221 LP  0  0  0  0  0  0  0  0  0  0  0  0  # atno 17320 bound_to 7965
  146.3406  139.9073  142.8785 LP  0  0  0  0  0  0  0  0  0  0  0  0  # atno 17321 bound_to 7965
  139.9945  143.5811  152.2898 LP  0  0  0  0  0  0  0  0  0  0  0  0  # atno 17342 bound_to 10162
  139.6478  144.7659  151.2208 LP  0  0  0  0  0  0  0  0  0  0  0  0  # atno 17343 bound_to 10162
  157.7506  131.0164  150.3543 LP  0  0  0  0  0  0  0  0  0  0  0  0  # atno 17370 bound_to 10713
  156.3904  130.3897  149.7034 LP  0  0  0  0  0  0  0  0  0  0  0  0  # atno 17371 bound_to 10713
  140.7990  133.8521  155.8710 LP  0  0  0  0  0  0  0  0  0  0  0  0  # atno 17394 bound_to 11000
  140.9610  134.1656  157.4654 LP  0  0  0  0  0  0  0  0  0  0  0  0  # atno 17395 bound_to 11000

$$$$
