AV-unprocessed.smi:2999|AV-procd|sdf|11421|dock4
  -GOLD-   2272016343D 1   1.00000     0.00000
 Structure written by MMmdl.
 38 40  0  0  0  0  0  0  0  0  2 V2000
  146.5579  139.6994  152.7291 O   0  0  0  0  0  0  0  0  0  0  0  0
  147.3038  138.7216  152.7816 C   0  0  0  0  0  0  0  0  0  0  0  0
  147.0374  137.5594  152.1687 N   0  0  0  0  0  0  0  0  0  0  0  0
  145.8423  137.2876  151.3767 C   0  0  0  0  0  0  0  0  0  0  0  0
  145.1499  135.9806  151.8033 C   0  0  2  0  0  0  0  0  0  0  0  0
  144.2417  135.4234  150.6864 C   0  0  0  0  0  0  0  0  0  0  0  0
  143.5007  134.2211  151.1376 N   0  3  1  0  0  0  0  0  0  0  0  0
  144.3323  132.9952  151.1739 C   0  0  0  0  0  0  0  0  0  0  0  0
  145.4892  133.0203  150.2028 C   0  0  0  0  0  0  0  0  0  0  0  0
  144.2662  132.1830  149.9016 C   0  0  0  0  0  0  0  0  0  0  0  0
  142.7862  134.4845  152.4090 C   0  0  0  0  0  0  0  0  0  0  0  0
  143.7320  135.0782  153.4688 C   0  0  0  0  0  0  0  0  0  0  0  0
  144.3498  136.2498  152.9508 O   0  0  0  0  0  0  0  0  0  0  0  0
  148.4704  138.6676  153.4439 N   0  0  0  0  0  0  0  0  0  0  0  0
  149.0934  139.7002  154.1875 C   0  0  0  0  0  0  0  0  0  0  0  0
  150.2667  139.4550  154.7735 N   0  0  0  0  0  0  0  0  0  0  0  0
  150.7515  140.5697  155.4637 C   0  0  0  0  0  0  0  0  0  0  0  0
  149.9287  141.6661  155.3886 C   0  0  0  0  0  0  0  0  0  0  0  0
  148.4994  141.3428  154.4451 S   0  0  0  0  0  0  0  0  0  0  0  0
  147.7051  136.8073  152.2598 H   0  0  0  0  0  0  0  0  0  0  0  0
  145.1576  138.1286  151.4890 H   0  0  0  0  0  0  0  0  0  0  0  0
  146.1110  137.2472  150.3196 H   0  0  0  0  0  0  0  0  0  0  0  0
  145.9102  135.2406  152.0577 H   0  0  0  0  0  0  0  0  0  0  0  0
  143.5150  136.1819  150.3925 H   0  0  0  0  0  0  0  0  0  0  0  0
  144.8242  135.1908  149.7941 H   0  0  0  0  0  0  0  0  0  0  0  0
  144.4340  132.4962  152.1356 H   0  0  0  0  0  0  0  0  0  0  0  0
  145.6427  133.9167  149.6043 H   0  0  0  0  0  0  0  0  0  0  0  0
  146.3964  132.4921  150.4893 H   0  0  0  0  0  0  0  0  0  0  0  0
  144.3680  131.1033  149.9894 H   0  0  0  0  0  0  0  0  0  0  0  0
  143.6069  132.5248  149.1057 H   0  0  0  0  0  0  0  0  0  0  0  0
  141.9790  135.1904  152.2091 H   0  0  0  0  0  0  0  0  0  0  0  0
  142.3161  133.5719  152.7773 H   0  0  0  0  0  0  0  0  0  0  0  0
  143.1690  135.3447  154.3634 H   0  0  0  0  0  0  0  0  0  0  0  0
  144.4893  134.3559  153.7771 H   0  0  0  0  0  0  0  0  0  0  0  0
  148.9711  137.7917  153.4130 H   0  0  0  0  0  0  0  0  0  0  0  0
  151.6956  140.4952  155.9826 H   0  0  0  0  0  0  0  0  0  0  0  0
  150.0759  142.6405  155.8298 H   0  0  0  0  0  0  0  0  0  0  0  0
  142.7911  134.0426  150.4410 H   0  0  0  0  0  0  0  0  0  0  0  0
  1  2  2  0  0  0  0
  2  3  1  0  0  0  0
  2 14  1  0  0  0  0
  3  4  1  0  0  0  0
  3 20  1  0  0  0  0
  4  5  1  0  0  0  0
  4 21  1  0  0  0  0
  4 22  1  0  0  0  0
  5 13  1  0  0  0  0
  5  6  1  0  0  0  0
  5 23  1  0  0  0  0
  6  7  1  0  0  0  0
  6 24  1  0  0  0  0
  6 25  1  0  0  0  0
  7  8  1  0  0  0  0
  7 11  1  0  0  0  0
  7 38  1  0  0  0  0
  8 10  1  0  0  0  0
  8  9  1  0  0  0  0
  8 26  1  0  0  0  0
  9 10  1  0  0  0  0
  9 27  1  0  0  0  0
  9 28  1  0  0  0  0
 10 29  1  0  0  0  0
 10 30  1  0  0  0  0
 11 12  1  0  0  0  0
 11 31  1  0  0  0  0
 11 32  1  0  0  0  0
 12 13  1  0  0  0  0
 12 33  1  0  0  0  0
 12 34  1  0  0  0  0
 14 15  1  0  0  0  0
 14 35  1  0  0  0  0
 15 19  1  0  0  0  0
 15 16  2  0  0  0  0
 16 17  1  0  0  0  0
 17 18  2  0  0  0  0
 17 36  1  0  0  0  0
 18 19  1  0  0  0  0
 18 37  1  0  0  0  0
M  CHG  1   7   1
M  END
> <s_m_source_file>
AV-unprocessed.smi

> <i_m_source_file_index>
2999

> <i_lp_mmshare_version>
43012

> <i_f3d_flags>
0

> <s_epik_input>
czFbY0hdW2NIXW5jMVtOSF1DKD1PKVtOSF1bQ0gyXVtDQEBIXTJbQ0gyXU4oW0NIMl1bQ0gyXU8yKVtDSF0zW0NIMl1bQ0gyXTM=

> <s_epik_cmdline>
J2VwaWtfcHl0aG9uJywgJy1waCcsICc3LjAnLCAnLXRuJywgJzgnLCAnLW1hJywgJzIwMCcsICctbWV0YWxfYmluZGluZycsICctaW1hZScsICc8aW5maWxlLm1hZT4nLCAnLW9tYWUnLCAnPG91dGZpbGUubWFlPic=

> <r_lp_tautomer_probability>
0.999

> <r_epik_Ionization_Penalty>
1.55235

> <r_epik_Ionization_Penalty_Charging>
1.55221

> <r_epik_Ionization_Penalty_Neutral>
0.000139685

> <r_epik_State_Penalty>
1.64652

> <r_epik_Charging_Adjusted_Penalty>
3.19873

> <i_epik_Tot_Q>
1

> <i_epik_Tot_abs_Q>
1

> <r_epik_Metal_State_Penalty>
1.68612

> <b_epik_Metal_Only>
0

> <s_lp_Force_Field>
OPLS_2005

> <r_lp_Energy>
21.4475

> <b_lp_Chiralities_Consistent>
1

> <s_lp_Variant>
AV-unprocessed.smi:2999-5

> <Gold.Version>
5.8.1

> <Gold.Id.Protein>
6NUR|6NUR_protein|mol2

> <Gold.PLP.Fitness>
44.2098

> <Gold.PLP.PLP>
-33.0056

> <Gold.PLP.part.hbond>
-3.3799

> <Gold.PLP.part.metal>
0.0000

> <Gold.PLP.part.buried>
1.1169

> <Gold.PLP.part.nonpolar>
-31.9360

> <Gold.PLP.part.repulsive>
1.5902

> <Gold.PLP.ligand.clash>
0.0000

> <Gold.PLP.ligand.torsion>
1.1195

> <Gold.PLP.Chemscore.Hbond>
3.0577

> <Gold.PLP.Chemscore.CHOScore>
1.0000

> <Gold.PLP.Chemscore.Metal>
0.0000

> <Gold.Chemscore.Hbonds>
donor molecule, donor type, donor heavy atom, donor atom, acceptor molecule, acceptor atom, score
      L1  H     3    20       P1  7948  0.69
      L1  H     7    38       P1 10186  2.00
      L1  H    14    35       P1  7948  0.38
      L1  C    18    37       P1  8028  1.00

> <Gold.PLP.Chemscore.Internal.Correction>
1.2702

> <Gold.Rescore>
     Score         DG    S(hbond)    S(metal)    S(lipo)     H(rot)  DE(clash)    DE(int)     intcor
     13.74     -16.64       1.97        0.00      73.56       1.58       1.10       1.80       ----

> <Gold.Chemscore.Fitness>
13.7388

> <Gold.Chemscore.DG>
-16.6357

> <Gold.Chemscore.ZeroCoef>
-5.4800

> <Gold.Chemscore.Hbond>
1.9737

> <Gold.Chemscore.Metal>
0.0000

> <Gold.Chemscore.Lipo>
73.5645

> <Gold.Chemscore.Internal_Hbond>
0.0000

> <Gold.Chemscore.DEClash>
1.0970

> <Gold.Chemscore.DEInternal>
1.7998

> <Gold.Chemscore.Rot>
1.5795

> <Gold.Chemscore.Internal.Correction>
   9.000000E+99

> <Gold.Chemscore.Hbonds>
donor molecule, donor type, donor heavy atom, donor atom, acceptor molecule, acceptor atom, score
      L1  H     3    20       P1  7948  0.66
      L1  H     7    38       P1 10186  0.81
      L1  H    14    35       P1  7948  0.36

> <Gold.Chemscore.Hbond.Weighted>
-6.5921

> <Gold.Chemscore.Metal.Weighted>
-0.0000

> <Gold.Chemscore.Lipo.Weighted>
-8.6070

> <Gold.Chemscore.Internal_Hbond.Weighted>
0.0000

> <Gold.Chemscore.DEClash.Weighted>
1.0970

> <Gold.Chemscore.DEInternal.Weighted>
1.7998

> <Gold.Chemscore.Rot.Weighted>
4.0434

> <Gold.Chemscore.Internal.Correction.Weighted>
   9.000000E+99

> <Gold.Protein.RotatedTorsions>
[ 6907 6896 6895 6894 ] final  -50.54 input  -60.11 | X-H torsion
[ 7974 7965 7964 7962 ] final   15.50 input  175.53 | X-H torsion
[ 8008 7997 7996 7995 ] final -137.99 input   59.86 | X-H torsion
[ 10167 10162 10161 10158 ] final  -42.57 input  -65.29 | X-H torsion
[ 10718 10713 10712 10709 ] final -134.95 input   66.30 | X-H torsion
[ 10763 10752 10751 10750 ] final   53.39 input  -60.55 | X-H torsion
[ 11005 11000 10999 10996 ] final   74.06 input  -57.11 | X-H torsion

> <Gold.Protein.ActiveResidues>
 VAL166  LYS551  ARG553  GLY616  TRP617  ASP618  TYR619  PRO620  LYS621  CYS622 
 ASP623  PHE694  ASN695  SER759  ASP760  ASP761  ALA762  ILE779  LEU786  VAL792 
 PHE793  MET794  SER795  GLU796  ALA797  LYS798  CYS799  TRP800  GLU811  SER814 

> <Gold.Protein.RotatedAtoms>
  150.8697  134.8069  159.7145 H   0  0  0  0  0  0  0  0  0  0  0  0  # atno 6907 bound_to 6896
  152.4706  134.4966  159.9721 H   0  0  0  0  0  0  0  0  0  0  0  0  # atno 6908 bound_to 6896
  151.5056  133.3457  159.2912 H   0  0  0  0  0  0  0  0  0  0  0  0  # atno 6909 bound_to 6896
  146.2276  139.8885  142.8558 H   0  0  0  0  0  0  0  0  0  0  0  0  # atno 7974 bound_to 7965
  155.4209  140.0518  157.3025 H   0  0  0  0  0  0  0  0  0  0  0  0  # atno 8008 bound_to 7997
  154.4903  140.2117  155.9522 H   0  0  0  0  0  0  0  0  0  0  0  0  # atno 8009 bound_to 7997
  156.1333  140.3168  155.8387 H   0  0  0  0  0  0  0  0  0  0  0  0  # atno 8010 bound_to 7997
  140.6964  143.3030  151.3228 H   0  0  0  0  0  0  0  0  0  0  0  0  # atno 10167 bound_to 10162
  156.2609  130.7209  151.1143 H   0  0  0  0  0  0  0  0  0  0  0  0  # atno 10718 bound_to 10713
  152.9795  135.5780  154.4733 H   0  0  0  0  0  0  0  0  0  0  0  0  # atno 10763 bound_to 10752
  154.4293  135.2773  155.1925 H   0  0  0  0  0  0  0  0  0  0  0  0  # atno 10764 bound_to 10752
  154.3641  135.6182  153.5759 H   0  0  0  0  0  0  0  0  0  0  0  0  # atno 10765 bound_to 10752
  139.9409  134.7400  156.1102 H   0  0  0  0  0  0  0  0  0  0  0  0  # atno 11005 bound_to 11000
  145.2441  141.0020  143.3919 LP  0  0  0  0  0  0  0  0  0  0  0  0  # atno 17320 bound_to 7965
  144.9428  139.4170  143.6440 LP  0  0  0  0  0  0  0  0  0  0  0  0  # atno 17321 bound_to 7965
  139.6425  144.0512  152.2566 LP  0  0  0  0  0  0  0  0  0  0  0  0  # atno 17342 bound_to 10162
  140.0022  144.6285  150.7720 LP  0  0  0  0  0  0  0  0  0  0  0  0  # atno 17343 bound_to 10162
  157.7250  131.0656  150.5971 LP  0  0  0  0  0  0  0  0  0  0  0  0  # atno 17370 bound_to 10713
  156.6059  130.4367  149.5878 LP  0  0  0  0  0  0  0  0  0  0  0  0  # atno 17371 bound_to 10713
  141.1043  133.6665  156.2827 LP  0  0  0  0  0  0  0  0  0  0  0  0  # atno 17394 bound_to 11000
  140.5954  134.5608  157.5507 LP  0  0  0  0  0  0  0  0  0  0  0  0  # atno 17395 bound_to 11000

$$$$
