AV-unprocessed.smi:1867|AV-procd|sdf|7562|dock1
  -GOLD-   22720 9283D 1   1.00000     0.00000
 Structure written by MMmdl.
 52 55  0  0  0  0  0  0  0  0  2 V2000
  149.3677  135.1946  156.0973 O   0  0  0  0  0  0  0  0  0  0  0  0
  149.3056  135.4758  154.9027 C   0  0  0  0  0  0  0  0  0  0  0  0
  149.5653  136.6940  154.3891 N   0  0  0  0  0  0  0  0  0  0  0  0
  150.0655  137.8408  155.0606 C   0  0  0  0  0  0  0  0  0  0  0  0
  150.1674  137.8008  156.4644 C   0  0  0  0  0  0  0  0  0  0  0  0
  150.6373  138.9353  157.1527 C   0  0  0  0  0  0  0  0  0  0  0  0
  150.9864  140.0911  156.4148 C   0  0  0  0  0  0  0  0  0  0  0  0
  151.4546  141.2504  157.0644 N   0  0  0  0  0  0  0  0  0  0  0  0
  151.8577  141.2332  158.4622 C   0  0  0  0  0  0  0  0  0  0  0  0
  152.1367  142.6963  158.8010 C   0  0  0  0  0  0  0  0  0  0  0  0
  151.1352  143.4495  157.9257 C   0  0  0  0  0  0  0  0  0  0  0  0
  151.0068  142.5791  156.6698 C   0  0  0  0  0  0  0  0  0  0  0  0
  150.8672  140.1374  155.0665 N   0  0  0  0  0  0  0  0  0  0  0  0
  150.4213  139.0458  154.4102 C   0  0  0  0  0  0  0  0  0  0  0  0
  148.9066  134.5670  153.9955 N   0  0  0  0  0  0  0  0  0  0  0  0
  148.5495  133.1658  154.2196 C   0  0  2  0  0  0  0  0  0  0  0  0
  149.7386  132.2449  154.4820 C   0  0  0  0  0  0  0  0  0  0  0  0
  149.1565  130.8684  154.1550 C   0  0  0  0  0  0  0  0  0  0  0  0
  148.1960  131.0864  153.0498 N   0  3  1  0  0  0  0  0  0  0  0  0
  147.0118  130.1932  153.0685 C   0  0  0  0  0  0  0  0  0  0  0  0
  146.0800  130.5034  151.8820 C   0  0  0  0  0  0  0  0  0  0  0  0
  145.7214  132.0005  151.7689 C   0  0  0  0  0  0  0  0  0  0  0  0
  146.3887  132.8494  152.8625 C   0  0  0  0  0  0  0  0  0  0  0  0
  147.8993  132.5449  152.9740 C   0  0  1  0  0  0  0  0  0  0  0  0
  149.3508  136.8221  153.4113 H   0  0  0  0  0  0  0  0  0  0  0  0
  149.8917  136.9110  157.0115 H   0  0  0  0  0  0  0  0  0  0  0  0
  150.7136  138.9075  158.2294 H   0  0  0  0  0  0  0  0  0  0  0  0
  151.0410  140.8459  159.0728 H   0  0  0  0  0  0  0  0  0  0  0  0
  152.7364  140.6073  158.6211 H   0  0  0  0  0  0  0  0  0  0  0  0
  152.0264  142.9143  159.8635 H   0  0  0  0  0  0  0  0  0  0  0  0
  153.1537  142.9571  158.5052 H   0  0  0  0  0  0  0  0  0  0  0  0
  150.1723  143.4972  158.4360 H   0  0  0  0  0  0  0  0  0  0  0  0
  151.4471  144.4702  157.7036 H   0  0  0  0  0  0  0  0  0  0  0  0
  151.6565  142.9481  155.8755 H   0  0  0  0  0  0  0  0  0  0  0  0
  149.9803  142.5760  156.3011 H   0  0  0  0  0  0  0  0  0  0  0  0
  150.3299  139.1652  153.3417 H   0  0  0  0  0  0  0  0  0  0  0  0
  148.7667  134.9105  153.0561 H   0  0  0  0  0  0  0  0  0  0  0  0
  147.8535  133.0872  155.0575 H   0  0  0  0  0  0  0  0  0  0  0  0
  150.5597  132.4766  153.8016 H   0  0  0  0  0  0  0  0  0  0  0  0
  150.1147  132.3108  155.5034 H   0  0  0  0  0  0  0  0  0  0  0  0
  149.9233  130.1436  153.8807 H   0  0  0  0  0  0  0  0  0  0  0  0
  148.6324  130.4835  155.0313 H   0  0  0  0  0  0  0  0  0  0  0  0
  147.3408  129.1544  153.0238 H   0  0  0  0  0  0  0  0  0  0  0  0
  146.4730  130.3119  154.0099 H   0  0  0  0  0  0  0  0  0  0  0  0
  146.5605  130.1830  150.9568 H   0  0  0  0  0  0  0  0  0  0  0  0
  145.1699  129.9087  151.9672 H   0  0  0  0  0  0  0  0  0  0  0  0
  146.0310  132.3686  150.7900 H   0  0  0  0  0  0  0  0  0  0  0  0
  144.6394  132.1319  151.8113 H   0  0  0  0  0  0  0  0  0  0  0  0
  146.2340  133.9096  152.6595 H   0  0  0  0  0  0  0  0  0  0  0  0
  145.8957  132.6519  153.8155 H   0  0  0  0  0  0  0  0  0  0  0  0
  148.4052  132.9073  152.0772 H   0  0  0  0  0  0  0  0  0  0  0  0
  148.6929  130.8729  152.1966 H   0  0  0  0  0  0  0  0  0  0  0  0
  1  2  2  0  0  0  0
  2  3  1  0  0  0  0
  2 15  1  0  0  0  0
  3  4  1  0  0  0  0
  3 25  1  0  0  0  0
  4 14  1  0  0  0  0
  4  5  2  0  0  0  0
  5  6  1  0  0  0  0
  5 26  1  0  0  0  0
  6  7  2  0  0  0  0
  6 27  1  0  0  0  0
  7  8  1  0  0  0  0
  7 13  1  0  0  0  0
  8 12  1  0  0  0  0
  8  9  1  0  0  0  0
  9 10  1  0  0  0  0
  9 28  1  0  0  0  0
  9 29  1  0  0  0  0
 10 11  1  0  0  0  0
 10 30  1  0  0  0  0
 10 31  1  0  0  0  0
 11 12  1  0  0  0  0
 11 32  1  0  0  0  0
 11 33  1  0  0  0  0
 12 34  1  0  0  0  0
 12 35  1  0  0  0  0
 13 14  2  0  0  0  0
 14 36  1  0  0  0  0
 15 16  1  0  0  0  0
 15 37  1  0  0  0  0
 16 24  1  0  0  0  0
 16 17  1  0  0  0  0
 16 38  1  0  0  0  0
 17 18  1  0  0  0  0
 17 39  1  0  0  0  0
 17 40  1  0  0  0  0
 18 19  1  0  0  0  0
 18 41  1  0  0  0  0
 18 42  1  0  0  0  0
 19 24  1  0  0  0  0
 19 20  1  0  0  0  0
 19 52  1  0  0  0  0
 20 21  1  0  0  0  0
 20 43  1  0  0  0  0
 20 44  1  0  0  0  0
 21 22  1  0  0  0  0
 21 45  1  0  0  0  0
 21 46  1  0  0  0  0
 22 23  1  0  0  0  0
 22 47  1  0  0  0  0
 22 48  1  0  0  0  0
 23 24  1  0  0  0  0
 23 49  1  0  0  0  0
 23 50  1  0  0  0  0
 24 51  1  0  0  0  0
M  CHG  1  19   1
M  END
> <s_m_source_file>
AV-unprocessed.smi

> <i_m_source_file_index>
1867

> <i_lp_mmshare_version>
43012

> <i_f3d_flags>
0

> <s_epik_input>
W0NIMl0xW0NIMl1bQ0gyXVtDSDJdW0NASF0oTjEyKVtDQEBIXShbQ0gyXVtDSDJdMilbTkhdQyg9TylbTkhdYzNbY0hdW2NIXWMobltjSF0zKU40W0NIMl1bQ0gyXVtDSDJdW0NIMl00

> <s_epik_cmdline>
J2VwaWtfcHl0aG9uJywgJy1waCcsICc3LjAnLCAnLXRuJywgJzgnLCAnLW1hJywgJzIwMCcsICctbWV0YWxfYmluZGluZycsICctaW1hZScsICc8aW5maWxlLm1hZT4nLCAnLW9tYWUnLCAnPG91dGZpbGUubWFlPic=

> <r_lp_tautomer_probability>
1

> <r_epik_Ionization_Penalty>
0.0751123

> <r_epik_Ionization_Penalty_Charging>
0.000974069

> <r_epik_Ionization_Penalty_Neutral>
0.0741382

> <r_epik_State_Penalty>
0.0647261

> <r_epik_Charging_Adjusted_Penalty>
0.0657002

> <i_epik_Tot_Q>
1

> <i_epik_Tot_abs_Q>
1

> <r_epik_Metal_State_Penalty>
0.0580571

> <b_epik_Metal_Only>
0

> <s_lp_Force_Field>
OPLS_2005

> <r_lp_Energy>
77.3858

> <b_lp_Chiralities_Consistent>
1

> <s_lp_Variant>
AV-unprocessed.smi:1867-3

> <Gold.Version>
5.8.1

> <Gold.Id.Protein>
6NUR|6NUR_protein|mol2

> <Gold.PLP.Fitness>
53.8780

> <Gold.PLP.PLP>
-40.7497

> <Gold.PLP.part.hbond>
-4.0000

> <Gold.PLP.part.metal>
0.0000

> <Gold.PLP.part.buried>
-4.5335

> <Gold.PLP.part.nonpolar>
-32.4928

> <Gold.PLP.part.repulsive>
0.1051

> <Gold.PLP.ligand.clash>
0.0000

> <Gold.PLP.ligand.torsion>
0.5165

> <Gold.PLP.Chemscore.Hbond>
3.6500

> <Gold.PLP.Chemscore.CHOScore>
1.0000

> <Gold.PLP.Chemscore.Metal>
0.0000

> <Gold.Chemscore.Hbonds>
donor molecule, donor type, donor heavy atom, donor atom, acceptor molecule, acceptor atom, score
      L1  H     3    25       P1  7948  1.00
      L1  H    15    37       P1  7948  0.99
      L1  H    19    52       P1 10747  1.00
      P1  H  7989  7998       L1    13  0.65
      L1  C    14    36       P1  7957  1.00

> <Gold.PLP.Chemscore.Internal.Correction>
0.2114

> <Gold.Rescore>
     Score         DG    S(hbond)    S(metal)    S(lipo)     H(rot)  DE(clash)    DE(int)     intcor
     21.95     -23.78       2.66        0.00     102.18       1.00       0.02       1.81       ----

> <Gold.Chemscore.Fitness>
21.9457

> <Gold.Chemscore.DG>
-23.7764

> <Gold.Chemscore.ZeroCoef>
-5.4800

> <Gold.Chemscore.Hbond>
2.6649

> <Gold.Chemscore.Metal>
0.0000

> <Gold.Chemscore.Lipo>
102.1837

> <Gold.Chemscore.Internal_Hbond>
0.0000

> <Gold.Chemscore.DEClash>
0.0241

> <Gold.Chemscore.DEInternal>
1.8065

> <Gold.Chemscore.Rot>
1.0000

> <Gold.Chemscore.Internal.Correction>
   9.000000E+99

> <Gold.Chemscore.Hbonds>
donor molecule, donor type, donor heavy atom, donor atom, acceptor molecule, acceptor atom, score
      L1  H     3    25       P1  7948  0.89
      L1  H    15    37       P1  7948  0.28
      L1  H    19    52       P1 10747  0.77
      P1  H  7989  7998       L1    13  0.06

> <Gold.Chemscore.Hbond.Weighted>
-8.9009

> <Gold.Chemscore.Metal.Weighted>
-0.0000

> <Gold.Chemscore.Lipo.Weighted>
-11.9555

> <Gold.Chemscore.Internal_Hbond.Weighted>
0.0000

> <Gold.Chemscore.DEClash.Weighted>
0.0241

> <Gold.Chemscore.DEInternal.Weighted>
1.8065

> <Gold.Chemscore.Rot.Weighted>
2.5600

> <Gold.Chemscore.Internal.Correction.Weighted>
   9.000000E+99

> <Gold.Protein.RotatedTorsions>
[ 6907 6896 6895 6894 ] final  -88.25 input  -60.11 | X-H torsion
[ 7974 7965 7964 7962 ] final  135.10 input  175.53 | X-H torsion
[ 8008 7997 7996 7995 ] final  161.94 input   59.86 | X-H torsion
[ 10167 10162 10161 10158 ] final   45.69 input  -65.29 | X-H torsion
[ 10718 10713 10712 10709 ] final  -15.78 input   66.30 | X-H torsion
[ 10763 10752 10751 10750 ] final  -10.26 input  -60.55 | X-H torsion
[ 11005 11000 10999 10996 ] final  109.76 input  -57.11 | X-H torsion

> <Gold.Protein.ActiveResidues>
 VAL166  LYS551  ARG553  GLY616  TRP617  ASP618  TYR619  PRO620  LYS621  CYS622 
 ASP623  PHE694  ASN695  SER759  ASP760  ASP761  ALA762  ILE779  LEU786  VAL792 
 PHE793  MET794  SER795  GLU796  ALA797  LYS798  CYS799  TRP800  GLU811  SER814 

> <Gold.Protein.RotatedAtoms>
  150.6868  134.2771  159.4611 H   0  0  0  0  0  0  0  0  0  0  0  0  # atno 6907 bound_to 6896
  152.0688  134.9544  160.0584 H   0  0  0  0  0  0  0  0  0  0  0  0  # atno 6908 bound_to 6896
  152.0942  133.4181  159.4594 H   0  0  0  0  0  0  0  0  0  0  0  0  # atno 6909 bound_to 6896
  144.9697  139.4619  143.5439 H   0  0  0  0  0  0  0  0  0  0  0  0  # atno 7974 bound_to 7965
  156.2067  140.1764  156.7784 H   0  0  0  0  0  0  0  0  0  0  0  0  # atno 8008 bound_to 7997
  154.5665  140.0690  156.8929 H   0  0  0  0  0  0  0  0  0  0  0  0  # atno 8009 bound_to 7997
  155.2751  140.3345  155.4264 H   0  0  0  0  0  0  0  0  0  0  0  0  # atno 8010 bound_to 7997
  140.3215  144.2699  150.6182 H   0  0  0  0  0  0  0  0  0  0  0  0  # atno 10167 bound_to 10162
  156.5968  130.4813  149.6256 H   0  0  0  0  0  0  0  0  0  0  0  0  # atno 10718 bound_to 10713
  153.4666  135.7016  153.6018 H   0  0  0  0  0  0  0  0  0  0  0  0  # atno 10763 bound_to 10752
  153.4290  135.3807  155.2159 H   0  0  0  0  0  0  0  0  0  0  0  0  # atno 10764 bound_to 10752
  154.8726  135.3946  154.4099 H   0  0  0  0  0  0  0  0  0  0  0  0  # atno 10765 bound_to 10752
  139.8868  134.9467  156.6175 H   0  0  0  0  0  0  0  0  0  0  0  0  # atno 11005 bound_to 11000
  146.3378  139.8901  142.8810 LP  0  0  0  0  0  0  0  0  0  0  0  0  # atno 17320 bound_to 7965
  145.2577  141.0066  143.3844 LP  0  0  0  0  0  0  0  0  0  0  0  0  # atno 17321 bound_to 7965
  140.5479  143.2211  151.7976 LP  0  0  0  0  0  0  0  0  0  0  0  0  # atno 17342 bound_to 10162
  139.4873  144.4515  151.9648 LP  0  0  0  0  0  0  0  0  0  0  0  0  # atno 17343 bound_to 10162
  156.2502  130.6903  151.1638 LP  0  0  0  0  0  0  0  0  0  0  0  0  # atno 17370 bound_to 10713
  157.7290  131.0628  150.5796 LP  0  0  0  0  0  0  0  0  0  0  0  0  # atno 17371 bound_to 10713
  140.7764  133.8696  155.8533 LP  0  0  0  0  0  0  0  0  0  0  0  0  # atno 17394 bound_to 11000
  140.9798  134.1421  157.4504 LP  0  0  0  0  0  0  0  0  0  0  0  0  # atno 17395 bound_to 11000

$$$$
