AV-unprocessed.smi:395|AV-procd|sdf|2486|dock1
  -GOLD-   2262022423D 1   1.00000     0.00000
 Structure written by MMmdl.
 34 35  0  0  0  0  0  0  0  0  1 V2000
  152.4443  144.7482  158.8404 C   0  0  0  0  0  0  0  0  0  0  0  0
  151.5237  144.1688  159.6305 C   0  0  0  0  0  0  0  0  0  0  0  0
  150.2810  143.4123  159.1810 C   0  0  0  0  0  0  0  0  0  0  0  0
  150.2055  143.1928  157.7391 N   0  0  0  0  0  0  0  0  0  0  0  0
  150.6597  142.1049  157.0985 C   0  0  0  0  0  0  0  0  0  0  0  0
  151.1675  141.1438  157.6781 O   0  0  0  0  0  0  0  0  0  0  0  0
  150.5135  142.1133  155.5696 C   0  0  0  0  0  0  0  0  0  0  0  0
  149.9589  140.8494  155.0376 N   0  0  0  0  0  0  0  0  0  0  0  0
  150.7107  139.6553  155.1807 C   0  0  0  0  0  0  0  0  0  0  0  0
  151.7952  139.6525  155.7656 O   0  0  0  0  0  0  0  0  0  0  0  0
  150.1175  138.4633  154.5790 C   0  0  0  0  0  0  0  0  0  0  0  0
  150.8588  137.2493  154.6723 C   0  0  0  0  0  0  0  0  0  0  0  0
  151.4628  136.2632  154.7231 N   0  0  0  0  0  0  0  0  0  0  0  0
  148.9224  138.5202  153.9560 C   0  0  0  0  0  0  0  0  0  0  0  0
  148.1898  139.6833  153.8618 N   0  0  0  0  0  0  0  0  0  0  0  0
  147.0031  139.7566  153.0570 C   0  0  0  0  0  0  0  0  0  0  0  0
  146.4906  138.5272  152.3325 C   0  0  0  0  0  0  0  0  0  0  0  0
  147.1291  139.6509  151.5529 C   0  0  0  0  0  0  0  0  0  0  0  0
  148.7165  140.8952  154.3591 C   0  0  0  0  0  0  0  0  0  0  0  0
  148.1213  141.9641  154.1987 O   0  0  0  0  0  0  0  0  0  0  0  0
  152.3764  144.7230  157.7629 H   0  0  0  0  0  0  0  0  0  0  0  0
  153.2904  145.2623  159.2715 H   0  0  0  0  0  0  0  0  0  0  0  0
  151.6566  144.2357  160.7005 H   0  0  0  0  0  0  0  0  0  0  0  0
  150.2319  142.4613  159.7138 H   0  0  0  0  0  0  0  0  0  0  0  0
  149.4039  143.9830  159.4856 H   0  0  0  0  0  0  0  0  0  0  0  0
  149.7988  143.9335  157.1863 H   0  0  0  0  0  0  0  0  0  0  0  0
  149.9028  142.9732  155.2918 H   0  0  0  0  0  0  0  0  0  0  0  0
  151.4840  142.3190  155.1138 H   0  0  0  0  0  0  0  0  0  0  0  0
  148.5191  137.6193  153.5160 H   0  0  0  0  0  0  0  0  0  0  0  0
  146.2399  140.4431  153.4197 H   0  0  0  0  0  0  0  0  0  0  0  0
  147.0566  137.6019  152.4234 H   0  0  0  0  0  0  0  0  0  0  0  0
  145.4124  138.4071  152.2522 H   0  0  0  0  0  0  0  0  0  0  0  0
  146.4762  140.2788  150.9501 H   0  0  0  0  0  0  0  0  0  0  0  0
  148.1160  139.4670  151.1326 H   0  0  0  0  0  0  0  0  0  0  0  0
  1  2  2  0  0  0  0
  1 21  1  0  0  0  0
  1 22  1  0  0  0  0
  2  3  1  0  0  0  0
  2 23  1  0  0  0  0
  3  4  1  0  0  0  0
  3 24  1  0  0  0  0
  3 25  1  0  0  0  0
  4  5  1  0  0  0  0
  4 26  1  0  0  0  0
  5  6  2  0  0  0  0
  5  7  1  0  0  0  0
  7  8  1  0  0  0  0
  7 27  1  0  0  0  0
  7 28  1  0  0  0  0
  8 19  1  0  0  0  0
  8  9  1  0  0  0  0
  9 10  2  0  0  0  0
  9 11  1  0  0  0  0
 11 12  1  0  0  0  0
 11 14  2  0  0  0  0
 12 13  3  0  0  0  0
 14 15  1  0  0  0  0
 14 29  1  0  0  0  0
 15 16  1  0  0  0  0
 15 19  1  0  0  0  0
 16 18  1  0  0  0  0
 16 17  1  0  0  0  0
 16 30  1  0  0  0  0
 17 18  1  0  0  0  0
 17 31  1  0  0  0  0
 17 32  1  0  0  0  0
 18 33  1  0  0  0  0
 18 34  1  0  0  0  0
 19 20  2  0  0  0  0
M  END
> <s_m_source_file>
AV-unprocessed.smi

> <i_m_source_file_index>
395

> <i_lp_mmshare_version>
43012

> <i_f3d_flags>
0

> <s_epik_input>
W0NIMl09W0NIXVtDSDJdW05IXUMoPU8pW0NIMl1uMWMoPU8pYyhDI04pW2NIXW4oYzE9TylbQ0hdMltDSDJdW0NIMl0y

> <s_epik_cmdline>
J2VwaWtfcHl0aG9uJywgJy1waCcsICc3LjAnLCAnLXRuJywgJzgnLCAnLW1hJywgJzIwMCcsICctbWV0YWxfYmluZGluZycsICctaW1hZScsICc8aW5maWxlLm1hZT4nLCAnLW9tYWUnLCAnPG91dGZpbGUubWFlPic=

> <r_lp_tautomer_probability>
1

> <r_epik_Ionization_Penalty>
1.93471e-08

> <r_epik_Ionization_Penalty_Charging>
8.01404e-11

> <r_epik_Ionization_Penalty_Neutral>
1.9267e-08

> <r_epik_State_Penalty>
-0

> <r_epik_Charging_Adjusted_Penalty>
8.01404e-11

> <i_epik_Tot_Q>
0

> <i_epik_Tot_abs_Q>
0

> <r_epik_Metal_State_Penalty>
-0

> <b_epik_Metal_Only>
0

> <s_lp_Force_Field>
OPLS_2005

> <r_lp_Energy>
28.6083

> <b_lp_Chiralities_Consistent>
1

> <s_lp_Variant>
AV-unprocessed.smi:395-1

> <Gold.Version>
5.8.1

> <Gold.Id.Protein>
6NUR|6NUR_protein|mol2

> <Gold.PLP.Fitness>
45.9289

> <Gold.PLP.PLP>
-37.7455

> <Gold.PLP.part.hbond>
-2.4982

> <Gold.PLP.part.metal>
0.0000

> <Gold.PLP.part.buried>
2.2968

> <Gold.PLP.part.nonpolar>
-37.3690

> <Gold.PLP.part.repulsive>
0.3336

> <Gold.PLP.ligand.clash>
0.0000

> <Gold.PLP.ligand.torsion>
0.5684

> <Gold.PLP.Chemscore.Hbond>
2.0000

> <Gold.PLP.Chemscore.CHOScore>
1.0000

> <Gold.PLP.Chemscore.Metal>
0.0000

> <Gold.Chemscore.Hbonds>
donor molecule, donor type, donor heavy atom, donor atom, acceptor molecule, acceptor atom, score
      L1  H     4    26       P1  8028  1.00
      P1  H 10752 10765       L1    13  1.00
      L1  C    14    29       P1  7948  1.00

> <Gold.PLP.Chemscore.Internal.Correction>
0.3201

> <Gold.Rescore>
     Score         DG    S(hbond)    S(metal)    S(lipo)     H(rot)  DE(clash)    DE(int)     intcor
     10.92     -15.59       1.93        0.00      77.09       2.09       2.77       1.89       ----

> <Gold.Chemscore.Fitness>
10.9239

> <Gold.Chemscore.DG>
-15.5869

> <Gold.Chemscore.ZeroCoef>
-5.4800

> <Gold.Chemscore.Hbond>
1.9263

> <Gold.Chemscore.Metal>
0.0000

> <Gold.Chemscore.Lipo>
77.0926

> <Gold.Chemscore.Internal_Hbond>
0.0000

> <Gold.Chemscore.DEClash>
2.7715

> <Gold.Chemscore.DEInternal>
1.8914

> <Gold.Chemscore.Rot>
2.0886

> <Gold.Chemscore.Internal.Correction>
   9.000000E+99

> <Gold.Chemscore.Hbonds>
donor molecule, donor type, donor heavy atom, donor atom, acceptor molecule, acceptor atom, score
      L1  H     4    26       P1  8028  0.77
      P1  H 10752 10765       L1    13  0.99

> <Gold.Chemscore.Hbond.Weighted>
-6.4339

> <Gold.Chemscore.Metal.Weighted>
-0.0000

> <Gold.Chemscore.Lipo.Weighted>
-9.0198

> <Gold.Chemscore.Internal_Hbond.Weighted>
0.0000

> <Gold.Chemscore.DEClash.Weighted>
2.7715

> <Gold.Chemscore.DEInternal.Weighted>
1.8914

> <Gold.Chemscore.Rot.Weighted>
5.3469

> <Gold.Chemscore.Internal.Correction.Weighted>
   9.000000E+99

> <Gold.Protein.RotatedTorsions>
[ 6907 6896 6895 6894 ] final  116.62 input  -60.11 | X-H torsion
[ 7974 7965 7964 7962 ] final  155.16 input  175.53 | X-H torsion
[ 8008 7997 7996 7995 ] final   34.86 input   59.86 | X-H torsion
[ 10167 10162 10161 10158 ] final    9.84 input  -65.29 | X-H torsion
[ 10718 10713 10712 10709 ] final  -12.43 input   66.30 | X-H torsion
[ 10763 10752 10751 10750 ] final  174.76 input  -60.55 | X-H torsion
[ 11005 11000 10999 10996 ] final   63.60 input  -57.11 | X-H torsion

> <Gold.Protein.ActiveResidues>
 VAL166  LYS551  ARG553  GLY616  TRP617  ASP618  TYR619  PRO620  LYS621  CYS622 
 ASP623  PHE694  ASN695  SER759  ASP760  ASP761  ALA762  ILE779  LEU786  VAL792 
 PHE793  MET794  SER795  GLU796  ALA797  LYS798  CYS799  TRP800  GLU811  SER814 

> <Gold.Protein.RotatedAtoms>
  152.4666  133.7936  159.6914 H   0  0  0  0  0  0  0  0  0  0  0  0  # atno 6907 bound_to 6896
  150.8633  133.7602  159.2991 H   0  0  0  0  0  0  0  0  0  0  0  0  # atno 6908 bound_to 6896
  151.5160  135.1069  159.9918 H   0  0  0  0  0  0  0  0  0  0  0  0  # atno 6909 bound_to 6896
  144.8042  139.7030  143.6169 H   0  0  0  0  0  0  0  0  0  0  0  0  # atno 7974 bound_to 7965
  155.1617  140.3284  155.4410 H   0  0  0  0  0  0  0  0  0  0  0  0  # atno 8008 bound_to 7997
  156.2540  140.1959  156.6675 H   0  0  0  0  0  0  0  0  0  0  0  0  # atno 8009 bound_to 7997
  154.6400  140.0571  156.9821 H   0  0  0  0  0  0  0  0  0  0  0  0  # atno 8010 bound_to 7997
  140.6230  143.8162  150.7199 H   0  0  0  0  0  0  0  0  0  0  0  0  # atno 10167 bound_to 10162
  156.6448  130.4938  149.6082 H   0  0  0  0  0  0  0  0  0  0  0  0  # atno 10718 bound_to 10713
  154.4584  135.2767  155.1731 H   0  0  0  0  0  0  0  0  0  0  0  0  # atno 10763 bound_to 10752
  154.3529  135.6146  153.5655 H   0  0  0  0  0  0  0  0  0  0  0  0  # atno 10764 bound_to 10752
  152.9852  135.5816  154.4941 H   0  0  0  0  0  0  0  0  0  0  0  0  # atno 10765 bound_to 10752
  140.0013  134.6437  155.9925 H   0  0  0  0  0  0  0  0  0  0  0  0  # atno 11005 bound_to 11000
  146.2331  139.5851  142.9542 LP  0  0  0  0  0  0  0  0  0  0  0  0  # atno 17320 bound_to 7965
  145.5477  141.0416  143.2295 LP  0  0  0  0  0  0  0  0  0  0  0  0  # atno 17321 bound_to 7965
  140.1756  143.4157  152.1969 LP  0  0  0  0  0  0  0  0  0  0  0  0  # atno 17342 bound_to 10162
  139.5455  144.7295  151.4596 LP  0  0  0  0  0  0  0  0  0  0  0  0  # atno 17343 bound_to 10162
  156.2130  130.6691  151.1290 LP  0  0  0  0  0  0  0  0  0  0  0  0  # atno 17370 bound_to 10713
  157.7160  131.0709  150.6326 LP  0  0  0  0  0  0  0  0  0  0  0  0  # atno 17371 bound_to 10713
  141.1644  133.6537  156.4429 LP  0  0  0  0  0  0  0  0  0  0  0  0  # atno 17394 bound_to 11000
  140.4722  134.6743  157.5134 LP  0  0  0  0  0  0  0  0  0  0  0  0  # atno 17395 bound_to 11000

$$$$
