AV-unprocessed.smi:3193|AV-procd|sdf|12202|dock8
  -GOLD-   2272018 33D 1   1.00000     0.00000
 Structure written by MMmdl.
 40 41  0  0  0  0  0  0  0  0  2 V2000
  146.6543  141.5875  154.2023 C   0  0  0  0  0  0  0  0  0  0  0  0
  147.9479  140.9472  153.6583 C   0  0  1  0  0  0  0  0  0  0  0  0
  149.1793  141.3556  154.4948 C   0  0  0  0  0  0  0  0  0  0  0  0
  149.2126  140.6603  155.8662 C   0  0  0  0  0  0  0  0  0  0  0  0
  149.1347  139.1343  155.7165 C   0  0  0  0  0  0  0  0  0  0  0  0
  147.9062  138.7113  154.8957 C   0  0  0  0  0  0  0  0  0  0  0  0
  147.8823  139.4028  153.5136 C   0  0  1  0  0  0  0  0  0  0  0  0
  146.6980  138.9369  152.6426 C   0  0  0  0  0  0  0  0  0  0  0  0
  146.6837  137.4689  152.4825 N   0  3  0  0  0  0  0  0  0  0  0  0
  145.9784  137.0040  151.2726 C   0  0  0  0  0  0  0  0  0  0  0  0
  144.9300  135.9387  151.6202 C   0  0  0  0  0  0  0  0  0  0  0  0
  145.2279  134.6733  150.9808 N   0  0  0  0  0  0  0  0  0  0  0  0
  146.4157  133.9572  151.0513 C   0  0  0  0  0  0  0  0  0  0  0  0
  146.2349  132.8212  150.2947 C   0  0  0  0  0  0  0  0  0  0  0  0
  144.9512  132.8178  149.7541 N   0  0  0  0  0  0  0  0  0  0  0  0
  144.4152  133.9453  150.2026 C   0  0  0  0  0  0  0  0  0  0  0  0
  146.3828  141.1992  155.1835 H   0  0  0  0  0  0  0  0  0  0  0  0
  145.8104  141.4186  153.5338 H   0  0  0  0  0  0  0  0  0  0  0  0
  146.7681  142.6674  154.2995 H   0  0  0  0  0  0  0  0  0  0  0  0
  148.0962  141.3622  152.6602 H   0  0  0  0  0  0  0  0  0  0  0  0
  150.0864  141.0979  153.9460 H   0  0  0  0  0  0  0  0  0  0  0  0
  149.2065  142.4380  154.6256 H   0  0  0  0  0  0  0  0  0  0  0  0
  150.1257  140.9333  156.3960 H   0  0  0  0  0  0  0  0  0  0  0  0
  148.3858  141.0124  156.4835 H   0  0  0  0  0  0  0  0  0  0  0  0
  150.0407  138.7706  155.2299 H   0  0  0  0  0  0  0  0  0  0  0  0
  149.1046  138.6655  156.7005 H   0  0  0  0  0  0  0  0  0  0  0  0
  147.9190  137.6277  154.7761 H   0  0  0  0  0  0  0  0  0  0  0  0
  146.9963  138.9431  155.4499 H   0  0  0  0  0  0  0  0  0  0  0  0
  148.7936  139.1065  152.9904 H   0  0  0  0  0  0  0  0  0  0  0  0
  145.7505  139.2595  153.0757 H   0  0  0  0  0  0  0  0  0  0  0  0
  146.7701  139.3890  151.6524 H   0  0  0  0  0  0  0  0  0  0  0  0
  147.6385  137.1421  152.4430 H   0  0  0  0  0  0  0  0  0  0  0  0
  145.5001  137.8552  150.7860 H   0  0  0  0  0  0  0  0  0  0  0  0
  146.7055  136.5960  150.5689 H   0  0  0  0  0  0  0  0  0  0  0  0
  144.8864  135.7812  152.6990 H   0  0  0  0  0  0  0  0  0  0  0  0
  143.9367  136.2607  151.3046 H   0  0  0  0  0  0  0  0  0  0  0  0
  147.2682  134.3031  151.6171 H   0  0  0  0  0  0  0  0  0  0  0  0
  146.9239  132.0126  150.0999 H   0  0  0  0  0  0  0  0  0  0  0  0
  143.4064  134.2471  149.9610 H   0  0  0  0  0  0  0  0  0  0  0  0
  146.2364  137.0637  153.2926 H   0  0  0  0  0  0  0  0  0  0  0  0
  1  2  1  0  0  0  0
  1 17  1  0  0  0  0
  1 18  1  0  0  0  0
  1 19  1  0  0  0  0
  2  7  1  0  0  0  0
  2  3  1  0  0  0  0
  2 20  1  0  0  0  0
  3  4  1  0  0  0  0
  3 21  1  0  0  0  0
  3 22  1  0  0  0  0
  4  5  1  0  0  0  0
  4 23  1  0  0  0  0
  4 24  1  0  0  0  0
  5  6  1  0  0  0  0
  5 25  1  0  0  0  0
  5 26  1  0  0  0  0
  6  7  1  0  0  0  0
  6 27  1  0  0  0  0
  6 28  1  0  0  0  0
  7  8  1  0  0  0  0
  7 29  1  0  0  0  0
  8  9  1  0  0  0  0
  8 30  1  0  0  0  0
  8 31  1  0  0  0  0
  9 10  1  0  0  0  0
  9 32  1  0  0  0  0
  9 40  1  0  0  0  0
 10 11  1  0  0  0  0
 10 33  1  0  0  0  0
 10 34  1  0  0  0  0
 11 12  1  0  0  0  0
 11 35  1  0  0  0  0
 11 36  1  0  0  0  0
 12 16  1  0  0  0  0
 12 13  1  0  0  0  0
 13 14  2  0  0  0  0
 13 37  1  0  0  0  0
 14 15  1  0  0  0  0
 14 38  1  0  0  0  0
 15 16  2  0  0  0  0
 16 39  1  0  0  0  0
M  CHG  1   9   1
M  END
> <s_m_source_file>
AV-unprocessed.smi

> <i_m_source_file_index>
3193

> <i_lp_mmshare_version>
43012

> <i_f3d_flags>
0

> <s_epik_input>
W0NIM11bQ0BASF0xW0NIMl1bQ0gyXVtDSDJdW0NIMl1bQ0BIXTFbQ0gyXVtOSF1bQ0gyXVtDSDJdbjJbY0hdW2NIXW5bY0hdMg==

> <s_epik_cmdline>
J2VwaWtfcHl0aG9uJywgJy1waCcsICc3LjAnLCAnLXRuJywgJzgnLCAnLW1hJywgJzIwMCcsICctbWV0YWxfYmluZGluZycsICctaW1hZScsICc8aW5maWxlLm1hZT4nLCAnLW9tYWUnLCAnPG91dGZpbGUubWFlPic=

> <r_lp_tautomer_probability>
1

> <r_epik_Ionization_Penalty>
0.0503046

> <r_epik_Ionization_Penalty_Charging>
0.0503046

> <r_epik_Ionization_Penalty_Neutral>
0

> <r_epik_State_Penalty>
0.0981804

> <r_epik_Charging_Adjusted_Penalty>
0.148485

> <i_epik_Tot_Q>
1

> <i_epik_Tot_abs_Q>
1

> <r_epik_Metal_State_Penalty>
0.000105854

> <b_epik_Metal_Only>
0

> <s_lp_Force_Field>
OPLS_2005

> <r_lp_Energy>
20.219

> <b_lp_Chiralities_Consistent>
1

> <s_lp_Variant>
AV-unprocessed.smi:3193-2

> <Gold.Version>
5.8.1

> <Gold.Id.Protein>
6NUR|6NUR_protein|mol2

> <Gold.PLP.Fitness>
42.5875

> <Gold.PLP.PLP>
-29.3459

> <Gold.PLP.part.hbond>
-1.0000

> <Gold.PLP.part.metal>
0.0000

> <Gold.PLP.part.buried>
2.7074

> <Gold.PLP.part.nonpolar>
-30.3794

> <Gold.PLP.part.repulsive>
0.2200

> <Gold.PLP.ligand.clash>
0.0000

> <Gold.PLP.ligand.torsion>
0.9057

> <Gold.PLP.Chemscore.Hbond>
2.0000

> <Gold.PLP.Chemscore.CHOScore>
3.0000

> <Gold.PLP.Chemscore.Metal>
0.0000

> <Gold.Chemscore.Hbonds>
donor molecule, donor type, donor heavy atom, donor atom, acceptor molecule, acceptor atom, score
      L1  H     9    32       P1  7948  2.00
      L1  C    13    37       P1  7948  1.00
      L1  C    14    38       P1 10747  1.00
      L1  C    16    39       P1 10186  1.00

> <Gold.PLP.Chemscore.Internal.Correction>
0.0530

> <Gold.Rescore>
     Score         DG    S(hbond)    S(metal)    S(lipo)     H(rot)  DE(clash)    DE(int)     intcor
     10.84     -12.25       0.95        0.00      72.13       1.89       0.46       0.94       ----

> <Gold.Chemscore.Fitness>
10.8444

> <Gold.Chemscore.DG>
-12.2472

> <Gold.Chemscore.ZeroCoef>
-5.4800

> <Gold.Chemscore.Hbond>
0.9478

> <Gold.Chemscore.Metal>
0.0000

> <Gold.Chemscore.Lipo>
72.1260

> <Gold.Chemscore.Internal_Hbond>
0.0000

> <Gold.Chemscore.DEClash>
0.4623

> <Gold.Chemscore.DEInternal>
0.9405

> <Gold.Chemscore.Rot>
1.8895

> <Gold.Chemscore.Internal.Correction>
   9.000000E+99

> <Gold.Chemscore.Hbonds>
donor molecule, donor type, donor heavy atom, donor atom, acceptor molecule, acceptor atom, score
      L1  H     9    32       P1  7948  0.98

> <Gold.Chemscore.Hbond.Weighted>
-3.1655

> <Gold.Chemscore.Metal.Weighted>
-0.0000

> <Gold.Chemscore.Lipo.Weighted>
-8.4387

> <Gold.Chemscore.Internal_Hbond.Weighted>
0.0000

> <Gold.Chemscore.DEClash.Weighted>
0.4623

> <Gold.Chemscore.DEInternal.Weighted>
0.9405

> <Gold.Chemscore.Rot.Weighted>
4.8371

> <Gold.Chemscore.Internal.Correction.Weighted>
   9.000000E+99

> <Gold.Protein.RotatedTorsions>
[ 6907 6896 6895 6894 ] final   62.63 input  -60.11 | X-H torsion
[ 7974 7965 7964 7962 ] final -146.81 input  175.53 | X-H torsion
[ 8008 7997 7996 7995 ] final   71.64 input   59.86 | X-H torsion
[ 10167 10162 10161 10158 ] final  131.66 input  -65.29 | X-H torsion
[ 10718 10713 10712 10709 ] final  -89.11 input   66.30 | X-H torsion
[ 10763 10752 10751 10750 ] final  -29.07 input  -60.55 | X-H torsion
[ 11005 11000 10999 10996 ] final   87.41 input  -57.11 | X-H torsion

> <Gold.Protein.ActiveResidues>
 VAL166  LYS551  ARG553  GLY616  TRP617  ASP618  TYR619  PRO620  LYS621  CYS622 
 ASP623  PHE694  ASN695  SER759  ASP760  ASP761  ALA762  ILE779  LEU786  VAL792 
 PHE793  MET794  SER795  GLU796  ALA797  LYS798  CYS799  TRP800  GLU811  SER814 

> <Gold.Protein.RotatedAtoms>
  152.4187  134.5994  159.9995 H   0  0  0  0  0  0  0  0  0  0  0  0  # atno 6907 bound_to 6896
  151.6150  133.3338  159.3083 H   0  0  0  0  0  0  0  0  0  0  0  0  # atno 6908 bound_to 6896
  150.8076  134.7249  159.6724 H   0  0  0  0  0  0  0  0  0  0  0  0  # atno 6909 bound_to 6896
  144.8135  140.5408  143.5627 H   0  0  0  0  0  0  0  0  0  0  0  0  # atno 7974 bound_to 7965
  155.7570  140.3487  155.5178 H   0  0  0  0  0  0  0  0  0  0  0  0  # atno 8008 bound_to 7997
  155.8950  140.1024  157.1412 H   0  0  0  0  0  0  0  0  0  0  0  0  # atno 8009 bound_to 7997
  154.4037  140.1297  156.4351 H   0  0  0  0  0  0  0  0  0  0  0  0  # atno 8010 bound_to 7997
  139.5374  144.6696  151.4739 H   0  0  0  0  0  0  0  0  0  0  0  0  # atno 10167 bound_to 10162
  155.9984  130.4860  150.5122 H   0  0  0  0  0  0  0  0  0  0  0  0  # atno 10718 bound_to 10713
  153.7586  135.6921  153.4930 H   0  0  0  0  0  0  0  0  0  0  0  0  # atno 10763 bound_to 10752
  153.1954  135.4456  155.0200 H   0  0  0  0  0  0  0  0  0  0  0  0  # atno 10764 bound_to 10752
  154.8161  135.3399  154.7103 H   0  0  0  0  0  0  0  0  0  0  0  0  # atno 10765 bound_to 10752
  139.8920  134.8420  156.2856 H   0  0  0  0  0  0  0  0  0  0  0  0  # atno 11005 bound_to 11000
  145.5269  139.1476  143.3521 LP  0  0  0  0  0  0  0  0  0  0  0  0  # atno 17320 bound_to 7965
  146.2436  140.5410  142.8923 LP  0  0  0  0  0  0  0  0  0  0  0  0  # atno 17321 bound_to 7965
  140.6588  143.8543  150.6864 LP  0  0  0  0  0  0  0  0  0  0  0  0  # atno 17342 bound_to 10162
  140.1931  143.4020  152.1848 LP  0  0  0  0  0  0  0  0  0  0  0  0  # atno 17343 bound_to 10162
  157.3093  131.0660  151.2012 LP  0  0  0  0  0  0  0  0  0  0  0  0  # atno 17370 bound_to 10713
  157.2964  130.6821  149.6141 LP  0  0  0  0  0  0  0  0  0  0  0  0  # atno 17371 bound_to 10713
  141.0010  133.7151  156.0960 LP  0  0  0  0  0  0  0  0  0  0  0  0  # atno 17394 bound_to 11000
  140.7498  134.4058  157.5543 LP  0  0  0  0  0  0  0  0  0  0  0  0  # atno 17395 bound_to 11000

$$$$
