AV-unprocessed.smi:741|AV-procd|sdf|3557|dock2
  -GOLD-   22720 0553D 1   1.00000     0.00000
 Structure written by MMmdl.
 43 44  0  0  0  0  0  0  0  0  3 V2000
  145.9921  134.2322  154.8237 C   0  0  0  0  0  0  0  0  0  0  0  0
  144.9110  134.7342  153.8550 C   0  0  0  0  0  0  0  0  0  0  0  0
  145.4534  135.1289  152.4678 C   0  0  1  0  0  0  0  0  0  0  0  0
  144.3151  135.6038  151.5381 C   0  0  0  0  0  0  0  0  0  0  0  0
  143.7076  134.4995  150.7555 N   0  3  0  0  0  0  0  0  0  0  0  0
  144.4682  134.0874  149.5572 C   0  0  0  0  0  0  0  0  0  0  0  0
  143.9808  132.6747  149.2571 C   0  0  0  0  0  0  0  0  0  0  0  0
  143.7909  132.0787  150.6485 C   0  0  0  0  0  0  0  0  0  0  0  0
  143.4216  133.2740  151.5382 C   0  0  0  0  0  0  0  0  0  0  0  0
  146.4726  136.1716  152.6130 N   0  0  0  0  0  0  0  0  0  0  0  0
  146.3017  137.3680  153.1946 C   0  0  0  0  0  0  0  0  0  0  0  0
  145.2528  137.7172  153.7347 O   0  0  0  0  0  0  0  0  0  0  0  0
  147.4227  138.1071  153.1321 N   0  0  0  0  0  0  0  0  0  0  0  0
  147.6329  139.4277  153.6143 C   0  0  0  0  0  0  0  0  0  0  0  0
  148.9219  139.7563  154.0898 C   0  0  0  0  0  0  0  0  0  0  0  0
  149.1773  141.0601  154.5615 C   0  0  0  0  0  0  0  0  0  0  0  0
  148.1948  141.9861  154.5446 N   0  3  0  0  0  0  0  0  0  0  0  0
  146.9525  141.7242  154.0846 C   0  0  0  0  0  0  0  0  0  0  0  0
  146.6372  140.4374  153.6017 C   0  0  0  0  0  0  0  0  0  0  0  0
  145.5482  133.9234  155.7703 H   0  0  0  0  0  0  0  0  0  0  0  0
  146.7274  135.0063  155.0437 H   0  0  0  0  0  0  0  0  0  0  0  0
  146.5219  133.3733  154.4110 H   0  0  0  0  0  0  0  0  0  0  0  0
  144.1633  133.9491  153.7371 H   0  0  0  0  0  0  0  0  0  0  0  0
  144.3905  135.5811  154.3046 H   0  0  0  0  0  0  0  0  0  0  0  0
  145.9021  134.2330  152.0350 H   0  0  0  0  0  0  0  0  0  0  0  0
  143.5379  136.1150  152.1085 H   0  0  0  0  0  0  0  0  0  0  0  0
  144.7203  136.3418  150.8436 H   0  0  0  0  0  0  0  0  0  0  0  0
  144.3167  134.7655  148.7178 H   0  0  0  0  0  0  0  0  0  0  0  0
  145.5355  134.0648  149.7831 H   0  0  0  0  0  0  0  0  0  0  0  0
  143.0236  132.7154  148.7354 H   0  0  0  0  0  0  0  0  0  0  0  0
  144.6776  132.1055  148.6411 H   0  0  0  0  0  0  0  0  0  0  0  0
  143.0366  131.2915  150.6672 H   0  0  0  0  0  0  0  0  0  0  0  0
  144.7313  131.6444  150.9907 H   0  0  0  0  0  0  0  0  0  0  0  0
  143.9919  133.2422  152.4678 H   0  0  0  0  0  0  0  0  0  0  0  0
  142.3630  133.2618  151.7989 H   0  0  0  0  0  0  0  0  0  0  0  0
  147.3734  135.9743  152.2012 H   0  0  0  0  0  0  0  0  0  0  0  0
  148.2351  137.6536  152.7399 H   0  0  0  0  0  0  0  0  0  0  0  0
  149.7099  139.0171  154.1009 H   0  0  0  0  0  0  0  0  0  0  0  0
  150.1320  141.3883  154.9463 H   0  0  0  0  0  0  0  0  0  0  0  0
  146.2539  142.5478  154.1101 H   0  0  0  0  0  0  0  0  0  0  0  0
  145.6445  140.2547  153.2191 H   0  0  0  0  0  0  0  0  0  0  0  0
  142.8114  134.8263  150.4244 H   0  0  0  0  0  0  0  0  0  0  0  0
  148.4012  142.9247  154.8882 H   0  0  0  0  0  0  0  0  0  0  0  0
  1  2  1  0  0  0  0
  1 20  1  0  0  0  0
  1 21  1  0  0  0  0
  1 22  1  0  0  0  0
  2  3  1  0  0  0  0
  2 23  1  0  0  0  0
  2 24  1  0  0  0  0
  3  4  1  0  0  0  0
  3 10  1  0  0  0  0
  3 25  1  0  0  0  0
  4  5  1  0  0  0  0
  4 26  1  0  0  0  0
  4 27  1  0  0  0  0
  5  9  1  0  0  0  0
  5  6  1  0  0  0  0
  5 42  1  0  0  0  0
  6  7  1  0  0  0  0
  6 28  1  0  0  0  0
  6 29  1  0  0  0  0
  7  8  1  0  0  0  0
  7 30  1  0  0  0  0
  7 31  1  0  0  0  0
  8  9  1  0  0  0  0
  8 32  1  0  0  0  0
  8 33  1  0  0  0  0
  9 34  1  0  0  0  0
  9 35  1  0  0  0  0
 10 11  1  0  0  0  0
 10 36  1  0  0  0  0
 11 12  2  0  0  0  0
 11 13  1  0  0  0  0
 13 14  1  0  0  0  0
 13 37  1  0  0  0  0
 14 19  1  0  0  0  0
 14 15  2  0  0  0  0
 15 16  1  0  0  0  0
 15 38  1  0  0  0  0
 16 17  2  0  0  0  0
 16 39  1  0  0  0  0
 17 18  1  0  0  0  0
 17 43  1  0  0  0  0
 18 19  2  0  0  0  0
 18 40  1  0  0  0  0
 19 41  1  0  0  0  0
M  CHG  1   5   1
M  CHG  1  17   1
M  END
> <s_m_source_file>
AV-unprocessed.smi

> <i_m_source_file_index>
741

> <i_lp_mmshare_version>
43012

> <i_f3d_flags>
0

> <s_epik_input>
W0NIMl0xW0NIMl1bQ0gyXVtDSDJdTjFbQ0gyXVtDQEBIXShbQ0gyXVtDSDNdKVtOSF1DKD1PKVtOSF1jMltjSF1bY0hdbltjSF1bY0hdMg==

> <s_epik_cmdline>
J2VwaWtfcHl0aG9uJywgJy1waCcsICc3LjAnLCAnLXRuJywgJzgnLCAnLW1hJywgJzIwMCcsICctbWV0YWxfYmluZGluZycsICctaW1hZScsICc8aW5maWxlLm1hZT4nLCAnLW9tYWUnLCAnPG91dGZpbGUubWFlPic=

> <r_epik_Ionization_Penalty>
1.10771

> <r_epik_Ionization_Penalty_Charging>
1.10769

> <r_epik_Ionization_Penalty_Neutral>
1.91663e-05

> <r_epik_State_Penalty>
1.16347

> <r_epik_Charging_Adjusted_Penalty>
2.27116

> <i_epik_Tot_Q>
2

> <i_epik_Tot_abs_Q>
2

> <r_epik_Metal_State_Penalty>
1.24871

> <b_epik_Metal_Only>
0

> <s_lp_Force_Field>
OPLS_2005

> <r_lp_Energy>
49.4137

> <b_lp_Chiralities_Consistent>
1

> <s_lp_Variant>
AV-unprocessed.smi:741-4

> <Gold.Version>
5.8.1

> <Gold.Id.Protein>
6NUR|6NUR_protein|mol2

> <Gold.PLP.Fitness>
46.5493

> <Gold.PLP.PLP>
-30.0053

> <Gold.PLP.part.hbond>
-4.0000

> <Gold.PLP.part.metal>
0.0000

> <Gold.PLP.part.buried>
0.7675

> <Gold.PLP.part.nonpolar>
-27.7674

> <Gold.PLP.part.repulsive>
0.4162

> <Gold.PLP.ligand.clash>
0.0000

> <Gold.PLP.ligand.torsion>
0.7980

> <Gold.PLP.Chemscore.Hbond>
6.0000

> <Gold.PLP.Chemscore.CHOScore>
0.0000

> <Gold.PLP.Chemscore.Metal>
0.0000

> <Gold.Chemscore.Hbonds>
donor molecule, donor type, donor heavy atom, donor atom, acceptor molecule, acceptor atom, score
      L1  H     5    42       P1 10186  1.90
      L1  H    10    36       P1  7948  1.00
      L1  H    13    37       P1  7948  0.99
      L1  H    17    43       P1  8028  2.00

> <Gold.PLP.Chemscore.Internal.Correction>
0.1401

> <Gold.Rescore>
     Score         DG    S(hbond)    S(metal)    S(lipo)     H(rot)  DE(clash)    DE(int)     intcor
     17.25     -21.78       3.35        0.00      79.19       1.63       1.48       3.05       ----

> <Gold.Chemscore.Fitness>
17.2453

> <Gold.Chemscore.DG>
-21.7761

> <Gold.Chemscore.ZeroCoef>
-5.4800

> <Gold.Chemscore.Hbond>
3.3512

> <Gold.Chemscore.Metal>
0.0000

> <Gold.Chemscore.Lipo>
79.1943

> <Gold.Chemscore.Internal_Hbond>
0.0000

> <Gold.Chemscore.DEClash>
1.4804

> <Gold.Chemscore.DEInternal>
3.0504

> <Gold.Chemscore.Rot>
1.6260

> <Gold.Chemscore.Internal.Correction>
   9.000000E+99

> <Gold.Chemscore.Hbonds>
donor molecule, donor type, donor heavy atom, donor atom, acceptor molecule, acceptor atom, score
      L1  H     5    42       P1 10186  0.19
      L1  H    10    36       P1  7948  0.98
      L1  H    13    37       P1  7948  0.94
      L1  H    17    43       P1  8028  0.97

> <Gold.Chemscore.Hbond.Weighted>
-11.1930

> <Gold.Chemscore.Metal.Weighted>
-0.0000

> <Gold.Chemscore.Lipo.Weighted>
-9.2657

> <Gold.Chemscore.Internal_Hbond.Weighted>
0.0000

> <Gold.Chemscore.DEClash.Weighted>
1.4804

> <Gold.Chemscore.DEInternal.Weighted>
3.0504

> <Gold.Chemscore.Rot.Weighted>
4.1626

> <Gold.Chemscore.Internal.Correction.Weighted>
   9.000000E+99

> <Gold.Protein.RotatedTorsions>
[ 6907 6896 6895 6894 ] final  -89.35 input  -60.11 | X-H torsion
[ 7974 7965 7964 7962 ] final   21.83 input  175.53 | X-H torsion
[ 8008 7997 7996 7995 ] final   88.57 input   59.86 | X-H torsion
[ 10167 10162 10161 10158 ] final  -53.05 input  -65.29 | X-H torsion
[ 10718 10713 10712 10709 ] final  -30.08 input   66.30 | X-H torsion
[ 10763 10752 10751 10750 ] final  162.38 input  -60.55 | X-H torsion
[ 11005 11000 10999 10996 ] final   25.22 input  -57.11 | X-H torsion

> <Gold.Protein.ActiveResidues>
 VAL166  LYS551  ARG553  GLY616  TRP617  ASP618  TYR619  PRO620  LYS621  CYS622 
 ASP623  PHE694  ASN695  SER759  ASP760  ASP761  ALA762  ILE779  LEU786  VAL792 
 PHE793  MET794  SER795  GLU796  ALA797  LYS798  CYS799  TRP800  GLU811  SER814 

> <Gold.Protein.RotatedAtoms>
  150.6873  134.2600  159.4545 H   0  0  0  0  0  0  0  0  0  0  0  0  # atno 6907 bound_to 6896
  152.0531  134.9639  160.0584 H   0  0  0  0  0  0  0  0  0  0  0  0  # atno 6908 bound_to 6896
  152.1095  133.4258  159.4661 H   0  0  0  0  0  0  0  0  0  0  0  0  # atno 6909 bound_to 6896
  146.2054  139.7971  142.8729 H   0  0  0  0  0  0  0  0  0  0  0  0  # atno 7974 bound_to 7965
  155.9894  140.3370  155.6739 H   0  0  0  0  0  0  0  0  0  0  0  0  # atno 8008 bound_to 7997
  155.6441  140.0698  157.2627 H   0  0  0  0  0  0  0  0  0  0  0  0  # atno 8009 bound_to 7997
  154.4215  140.1737  156.1592 H   0  0  0  0  0  0  0  0  0  0  0  0  # atno 8010 bound_to 7997
  140.6505  143.2563  151.4736 H   0  0  0  0  0  0  0  0  0  0  0  0  # atno 10167 bound_to 10162
  156.4044  130.4396  149.7298 H   0  0  0  0  0  0  0  0  0  0  0  0  # atno 10718 bound_to 10713
  154.2774  135.2764  155.2712 H   0  0  0  0  0  0  0  0  0  0  0  0  # atno 10763 bound_to 10752
  154.5248  135.5746  153.6714 H   0  0  0  0  0  0  0  0  0  0  0  0  # atno 10764 bound_to 10752
  152.9935  135.6213  154.2932 H   0  0  0  0  0  0  0  0  0  0  0  0  # atno 10765 bound_to 10752
  140.3502  134.2237  155.7681 H   0  0  0  0  0  0  0  0  0  0  0  0  # atno 11005 bound_to 11000
  145.3336  141.0272  143.3432 LP  0  0  0  0  0  0  0  0  0  0  0  0  # atno 17320 bound_to 7965
  144.8781  139.4942  143.6736 LP  0  0  0  0  0  0  0  0  0  0  0  0  # atno 17321 bound_to 7965
  139.5720  144.1906  152.1850 LP  0  0  0  0  0  0  0  0  0  0  0  0  # atno 17342 bound_to 10162
  140.1205  144.5377  150.6866 LP  0  0  0  0  0  0  0  0  0  0  0  0  # atno 17343 bound_to 10162
  156.4302  130.7811  151.2831 LP  0  0  0  0  0  0  0  0  0  0  0  0  # atno 17370 bound_to 10713
  157.7505  131.0156  150.3512 LP  0  0  0  0  0  0  0  0  0  0  0  0  # atno 17371 bound_to 10713
  141.2014  133.7963  157.0441 LP  0  0  0  0  0  0  0  0  0  0  0  0  # atno 17394 bound_to 11000
  140.0709  134.9702  157.1466 LP  0  0  0  0  0  0  0  0  0  0  0  0  # atno 17395 bound_to 11000

$$$$
