AV-unprocessed.smi:2923|AV-procd|sdf|11206|dock4
  -GOLD-   2272016 93D 1   1.00000     0.00000
 Structure written by MMmdl.
 47 49  0  0  0  0  0  0  0  0  2 V2000
  144.4097  132.5262  148.9332 C   0  0  0  0  0  0  0  0  0  0  0  0
  144.8336  132.4786  150.3281 N   0  0  0  0  0  0  0  0  0  0  0  0
  145.0135  131.1980  150.9995 C   0  0  0  0  0  0  0  0  0  0  0  0
  145.0940  133.6792  151.0237 C   0  0  0  0  0  0  0  0  0  0  0  0
  145.1127  133.7687  152.4369 C   0  0  0  0  0  0  0  0  0  0  0  0
  145.3799  135.0060  153.0577 C   0  0  0  0  0  0  0  0  0  0  0  0
  145.6249  136.1512  152.2716 C   0  0  0  0  0  0  0  0  0  0  0  0
  145.8925  137.3692  152.9560 N   0  0  0  0  0  0  0  0  0  0  0  0
  146.4319  138.5088  152.4891 C   0  0  0  0  0  0  0  0  0  0  0  0
  146.8004  138.7058  151.3320 O   0  0  0  0  0  0  0  0  0  0  0  0
  146.5223  139.4287  153.4583 N   0  0  0  0  0  0  0  0  0  0  0  0
  147.0673  140.7772  153.2892 C   0  0  2  0  0  0  0  0  0  0  0  0
  148.4834  140.9454  153.8882 C   0  0  2  0  0  0  0  0  0  0  0  0
  149.3279  139.7831  154.3524 C   0  0  0  0  0  0  0  0  0  0  0  0
  149.0614  139.7499  155.8599 C   0  0  0  0  0  0  0  0  0  0  0  0
  147.8272  140.4446  156.0269 O   0  0  0  0  0  0  0  0  0  0  0  0
  147.8227  141.5443  155.1195 C   0  0  2  0  0  0  0  0  0  0  0  0
  146.5164  141.7830  154.3342 C   0  0  0  0  0  0  0  0  0  0  0  0
  146.3601  143.2126  153.8067 C   0  0  0  0  0  0  0  0  0  0  0  0
  145.2087  141.4474  155.0644 C   0  0  0  0  0  0  0  0  0  0  0  0
  145.5995  136.0095  150.8631 C   0  0  0  0  0  0  0  0  0  0  0  0
  145.3397  134.8048  150.3100 N   0  3  0  0  0  0  0  0  0  0  0  0
  145.1771  132.9948  148.3162 H   0  0  0  0  0  0  0  0  0  0  0  0
  143.4856  133.0962  148.8315 H   0  0  0  0  0  0  0  0  0  0  0  0
  144.2286  131.5261  148.5384 H   0  0  0  0  0  0  0  0  0  0  0  0
  144.3539  131.1229  151.8646 H   0  0  0  0  0  0  0  0  0  0  0  0
  146.0446  131.0821  151.3350 H   0  0  0  0  0  0  0  0  0  0  0  0
  144.7851  130.3654  150.3337 H   0  0  0  0  0  0  0  0  0  0  0  0
  144.9259  132.9064  153.0593 H   0  0  0  0  0  0  0  0  0  0  0  0
  145.3938  135.0705  154.1360 H   0  0  0  0  0  0  0  0  0  0  0  0
  145.6236  137.3822  153.9290 H   0  0  0  0  0  0  0  0  0  0  0  0
  146.1999  139.1852  154.3836 H   0  0  0  0  0  0  0  0  0  0  0  0
  146.9950  141.1571  152.2685 H   0  0  0  0  0  0  0  0  0  0  0  0
  149.0462  141.7027  153.3401 H   0  0  0  0  0  0  0  0  0  0  0  0
  149.0380  138.8461  153.8783 H   0  0  0  0  0  0  0  0  0  0  0  0
  150.3874  139.9352  154.1456 H   0  0  0  0  0  0  0  0  0  0  0  0
  149.0073  138.7353  156.2553 H   0  0  0  0  0  0  0  0  0  0  0  0
  149.8453  140.2850  156.3981 H   0  0  0  0  0  0  0  0  0  0  0  0
  148.3228  142.4333  155.5071 H   0  0  0  0  0  0  0  0  0  0  0  0
  146.2071  143.9251  154.6179 H   0  0  0  0  0  0  0  0  0  0  0  0
  145.5117  143.2978  153.1269 H   0  0  0  0  0  0  0  0  0  0  0  0
  147.2445  143.5384  153.2582 H   0  0  0  0  0  0  0  0  0  0  0  0
  144.9787  142.1863  155.8327 H   0  0  0  0  0  0  0  0  0  0  0  0
  145.2513  140.4801  155.5651 H   0  0  0  0  0  0  0  0  0  0  0  0
  144.3648  141.4172  154.3744 H   0  0  0  0  0  0  0  0  0  0  0  0
  145.7781  136.7979  150.1485 H   0  0  0  0  0  0  0  0  0  0  0  0
  145.3280  134.7401  149.2920 H   0  0  0  0  0  0  0  0  0  0  0  0
  1  2  1  0  0  0  0
  1 23  1  0  0  0  0
  1 24  1  0  0  0  0
  1 25  1  0  0  0  0
  2  3  1  0  0  0  0
  2  4  1  0  0  0  0
  3 26  1  0  0  0  0
  3 27  1  0  0  0  0
  3 28  1  0  0  0  0
  4 22  1  0  0  0  0
  4  5  2  0  0  0  0
  5  6  1  0  0  0  0
  5 29  1  0  0  0  0
  6  7  2  0  0  0  0
  6 30  1  0  0  0  0
  7  8  1  0  0  0  0
  7 21  1  0  0  0  0
  8  9  1  0  0  0  0
  8 31  1  0  0  0  0
  9 10  2  0  0  0  0
  9 11  1  0  0  0  0
 11 12  1  0  0  0  0
 11 32  1  0  0  0  0
 12 18  1  0  0  0  0
 12 13  1  0  0  0  0
 12 33  1  0  0  0  0
 13 17  1  0  0  0  0
 13 14  1  0  0  0  0
 13 34  1  0  0  0  0
 14 15  1  0  0  0  0
 14 35  1  0  0  0  0
 14 36  1  0  0  0  0
 15 16  1  0  0  0  0
 15 37  1  0  0  0  0
 15 38  1  0  0  0  0
 16 17  1  0  0  0  0
 17 18  1  0  0  0  0
 17 39  1  0  0  0  0
 18 19  1  0  0  0  0
 18 20  1  0  0  0  0
 19 40  1  0  0  0  0
 19 41  1  0  0  0  0
 19 42  1  0  0  0  0
 20 43  1  0  0  0  0
 20 44  1  0  0  0  0
 20 45  1  0  0  0  0
 21 22  2  0  0  0  0
 21 46  1  0  0  0  0
 22 47  1  0  0  0  0
M  CHG  1  22   1
M  END
> <s_m_source_file>
AV-unprocessed.smi

> <i_m_source_file_index>
2923

> <i_lp_mmshare_version>
43012

> <i_f3d_flags>
0

> <s_epik_input>
W0NIM11OKFtDSDNdKWMxW2NIXVtjSF1jKFtjSF1uMSlbTkhdQyg9TylbTkhdW0NASF0yQyhbQ0gzXSkoW0NIM10pW0NAQEhdKFtDQEhdMjMpT1tDSDJdW0NIMl0z

> <s_epik_cmdline>
J2VwaWtfcHl0aG9uJywgJy1waCcsICc3LjAnLCAnLXRuJywgJzgnLCAnLW1hJywgJzIwMCcsICctbWV0YWxfYmluZGluZycsICctaW1hZScsICc8aW5maWxlLm1hZT4nLCAnLW9tYWUnLCAnPG91dGZpbGUubWFlPic=

> <r_lp_tautomer_probability>
0.999994

> <r_epik_Ionization_Penalty>
0.252205

> <r_epik_Ionization_Penalty_Charging>
0.252185

> <r_epik_Ionization_Penalty_Neutral>
1.99479e-05

> <r_epik_State_Penalty>
0.243573

> <r_epik_Charging_Adjusted_Penalty>
0.495758

> <i_epik_Tot_Q>
1

> <i_epik_Tot_abs_Q>
1

> <r_epik_Metal_State_Penalty>
0.534372

> <b_epik_Metal_Only>
0

> <s_lp_Force_Field>
OPLS_2005

> <r_lp_Energy>
46.9132

> <b_lp_Chiralities_Consistent>
1

> <s_lp_Variant>
AV-unprocessed.smi:2923-5

> <Gold.Version>
5.8.1

> <Gold.Id.Protein>
6NUR|6NUR_protein|mol2

> <Gold.PLP.Fitness>
43.8592

> <Gold.PLP.PLP>
-39.3357

> <Gold.PLP.part.hbond>
-2.2978

> <Gold.PLP.part.metal>
0.0000

> <Gold.PLP.part.buried>
-3.6484

> <Gold.PLP.part.nonpolar>
-33.9652

> <Gold.PLP.part.repulsive>
0.8985

> <Gold.PLP.ligand.clash>
0.0000

> <Gold.PLP.ligand.torsion>
0.5030

> <Gold.PLP.Chemscore.Hbond>
1.7800

> <Gold.PLP.Chemscore.CHOScore>
0.0000

> <Gold.PLP.Chemscore.Metal>
0.0000

> <Gold.Chemscore.Hbonds>
donor molecule, donor type, donor heavy atom, donor atom, acceptor molecule, acceptor atom, score
      L1  H    22    47       P1  7921  1.00
      P1  H  7954  7966       L1    10  0.71

> <Gold.PLP.Chemscore.Internal.Correction>
0.1894

> <Gold.Rescore>
     Score         DG    S(hbond)    S(metal)    S(lipo)     H(rot)  DE(clash)    DE(int)     intcor
     17.61     -19.77       1.92        0.00      89.27       1.00       0.55       1.60       ----

> <Gold.Chemscore.Fitness>
17.6130

> <Gold.Chemscore.DG>
-19.7705

> <Gold.Chemscore.ZeroCoef>
-5.4800

> <Gold.Chemscore.Hbond>
1.9179

> <Gold.Chemscore.Metal>
0.0000

> <Gold.Chemscore.Lipo>
89.2717

> <Gold.Chemscore.Internal_Hbond>
0.0000

> <Gold.Chemscore.DEClash>
0.5548

> <Gold.Chemscore.DEInternal>
1.6028

> <Gold.Chemscore.Rot>
1.0000

> <Gold.Chemscore.Internal.Correction>
   9.000000E+99

> <Gold.Chemscore.Hbonds>
donor molecule, donor type, donor heavy atom, donor atom, acceptor molecule, acceptor atom, score
      L1  H    22    47       P1  7921  0.97
      P1  H  7954  7966       L1    10  0.68

> <Gold.Chemscore.Hbond.Weighted>
-6.4057

> <Gold.Chemscore.Metal.Weighted>
-0.0000

> <Gold.Chemscore.Lipo.Weighted>
-10.4448

> <Gold.Chemscore.Internal_Hbond.Weighted>
0.0000

> <Gold.Chemscore.DEClash.Weighted>
0.5548

> <Gold.Chemscore.DEInternal.Weighted>
1.6028

> <Gold.Chemscore.Rot.Weighted>
2.5600

> <Gold.Chemscore.Internal.Correction.Weighted>
   9.000000E+99

> <Gold.Protein.RotatedTorsions>
[ 6907 6896 6895 6894 ] final  -33.42 input  -60.11 | X-H torsion
[ 7974 7965 7964 7962 ] final  147.62 input  175.53 | X-H torsion
[ 8008 7997 7996 7995 ] final   36.73 input   59.86 | X-H torsion
[ 10167 10162 10161 10158 ] final  130.18 input  -65.29 | X-H torsion
[ 10718 10713 10712 10709 ] final    9.67 input   66.30 | X-H torsion
[ 10763 10752 10751 10750 ] final  141.21 input  -60.55 | X-H torsion
[ 11005 11000 10999 10996 ] final -155.69 input  -57.11 | X-H torsion

> <Gold.Protein.ActiveResidues>
 VAL166  LYS551  ARG553  GLY616  TRP617  ASP618  TYR619  PRO620  LYS621  CYS622 
 ASP623  PHE694  ASN695  SER759  ASP760  ASP761  ALA762  ILE779  LEU786  VAL792 
 PHE793  MET794  SER795  GLU796  ALA797  LYS798  CYS799  TRP800  GLU811  SER814 

> <Gold.Protein.RotatedAtoms>
  151.0658  134.9766  159.8283 H   0  0  0  0  0  0  0  0  0  0  0  0  # atno 6907 bound_to 6896
  152.5402  134.2360  159.8853 H   0  0  0  0  0  0  0  0  0  0  0  0  # atno 6908 bound_to 6896
  151.2382  133.4370  159.2640 H   0  0  0  0  0  0  0  0  0  0  0  0  # atno 6909 bound_to 6896
  144.8577  139.6051  143.5945 H   0  0  0  0  0  0  0  0  0  0  0  0  # atno 7974 bound_to 7965
  155.1922  140.3309  155.4357 H   0  0  0  0  0  0  0  0  0  0  0  0  # atno 8008 bound_to 7997
  156.2438  140.1908  156.6964 H   0  0  0  0  0  0  0  0  0  0  0  0  # atno 8009 bound_to 7997
  154.6198  140.0597  156.9586 H   0  0  0  0  0  0  0  0  0  0  0  0  # atno 8010 bound_to 7997
  139.5442  144.6758  151.4527 H   0  0  0  0  0  0  0  0  0  0  0  0  # atno 10167 bound_to 10162
  156.9697  130.5964  149.5668 H   0  0  0  0  0  0  0  0  0  0  0  0  # atno 10718 bound_to 10713
  153.9355  135.2985  155.3444 H   0  0  0  0  0  0  0  0  0  0  0  0  # atno 10763 bound_to 10752
  154.7504  135.4983  153.9283 H   0  0  0  0  0  0  0  0  0  0  0  0  # atno 10764 bound_to 10752
  153.1069  135.6749  153.9675 H   0  0  0  0  0  0  0  0  0  0  0  0  # atno 10765 bound_to 10752
  140.6837  134.4117  157.5225 H   0  0  0  0  0  0  0  0  0  0  0  0  # atno 11005 bound_to 11000
  146.2836  139.6943  142.9211 LP  0  0  0  0  0  0  0  0  0  0  0  0  # atno 17320 bound_to 7965
  145.4373  141.0420  143.2877 LP  0  0  0  0  0  0  0  0  0  0  0  0  # atno 17321 bound_to 7965
  140.6684  143.8348  150.6969 LP  0  0  0  0  0  0  0  0  0  0  0  0  # atno 17342 bound_to 10162
  140.1764  143.4151  152.1964 LP  0  0  0  0  0  0  0  0  0  0  0  0  # atno 17343 bound_to 10162
  156.0288  130.5380  150.8478 LP  0  0  0  0  0  0  0  0  0  0  0  0  # atno 17370 bound_to 10713
  157.5601  131.0945  150.9572 LP  0  0  0  0  0  0  0  0  0  0  0  0  # atno 17371 bound_to 10713
  139.8944  134.8708  156.2179 LP  0  0  0  0  0  0  0  0  0  0  0  0  # atno 17394 bound_to 11000
  141.0297  133.6995  156.1408 LP  0  0  0  0  0  0  0  0  0  0  0  0  # atno 17395 bound_to 11000

$$$$
