AV-unprocessed.smi:523|AV-procd|sdf|2803|dock4
  -GOLD-   2262023283D 1   1.00000     0.00000
 Structure written by MMmdl.
 41 43  0  0  0  0  0  0  0  0  1 V2000
  147.8502  141.0648  153.6889 C   0  0  0  0  0  0  0  0  0  0  0  0
  149.1565  141.4669  154.0589 O   0  0  0  0  0  0  0  0  0  0  0  0
  149.2986  141.6356  155.4601 C   0  0  0  0  0  0  0  0  0  0  0  0
  150.7462  142.0211  155.7940 C   0  0  0  0  0  0  0  0  0  0  0  0
  151.3266  141.1310  156.7982 N   0  0  0  0  0  0  0  0  0  0  0  0
  151.7614  141.4375  158.0515 C   0  0  0  0  0  0  0  0  0  0  0  0
  151.6614  142.7243  158.5810 N   0  0  0  0  0  0  0  0  0  0  0  0
  152.7221  143.4910  159.2285 C   0  0  0  0  0  0  0  0  0  0  0  0
  152.2212  144.1142  160.5437 C   0  0  0  0  0  0  0  0  0  0  0  0
  151.1156  144.9659  160.2644 O   0  0  0  0  0  0  0  0  0  0  0  0
  150.0488  144.2623  159.6375 C   0  0  0  0  0  0  0  0  0  0  0  0
  150.5489  143.6323  158.3245 C   0  0  0  0  0  0  0  0  0  0  0  0
  152.3345  140.4237  158.7054 N   0  0  0  0  0  0  0  0  0  0  0  0
  152.2344  139.3731  157.8072 C   0  0  0  0  0  0  0  0  0  0  0  0
  151.6402  139.7767  156.6551 C   0  0  0  0  0  0  0  0  0  0  0  0
  151.4499  138.8718  155.5116 C   0  0  0  0  0  0  0  0  0  0  0  0
  150.9296  139.2122  154.4516 O   0  0  0  0  0  0  0  0  0  0  0  0
  151.9144  137.6196  155.7405 N   0  0  0  0  0  0  0  0  0  0  0  0
  152.5153  137.1496  156.8754 C   0  0  0  0  0  0  0  0  0  0  0  0
  152.8928  135.9793  156.9321 O   0  0  0  0  0  0  0  0  0  0  0  0
  152.6757  138.0237  157.9197 N   0  0  0  0  0  0  0  0  0  0  0  0
  153.3186  137.5759  159.1565 C   0  0  0  0  0  0  0  0  0  0  0  0
  151.8091  136.9586  154.9845 H   0  0  0  0  0  0  0  0  0  0  0  0
  147.7962  140.9492  152.6065 H   0  0  0  0  0  0  0  0  0  0  0  0
  147.1100  141.8092  153.9854 H   0  0  0  0  0  0  0  0  0  0  0  0
  147.5884  140.1088  154.1437 H   0  0  0  0  0  0  0  0  0  0  0  0
  148.6184  142.4133  155.8110 H   0  0  0  0  0  0  0  0  0  0  0  0
  149.0327  140.7130  155.9776 H   0  0  0  0  0  0  0  0  0  0  0  0
  151.3485  142.0114  154.8905 H   0  0  0  0  0  0  0  0  0  0  0  0
  150.7922  143.0498  156.1440 H   0  0  0  0  0  0  0  0  0  0  0  0
  153.5990  142.8683  159.3999 H   0  0  0  0  0  0  0  0  0  0  0  0
  153.0501  144.2798  158.5501 H   0  0  0  0  0  0  0  0  0  0  0  0
  151.9317  143.3442  161.2603 H   0  0  0  0  0  0  0  0  0  0  0  0
  153.0121  144.7031  161.0080 H   0  0  0  0  0  0  0  0  0  0  0  0
  149.6568  143.4985  160.3111 H   0  0  0  0  0  0  0  0  0  0  0  0
  149.2350  144.9587  159.4357 H   0  0  0  0  0  0  0  0  0  0  0  0
  150.8639  144.4072  157.6244 H   0  0  0  0  0  0  0  0  0  0  0  0
  149.7342  143.0878  157.8461 H   0  0  0  0  0  0  0  0  0  0  0  0
  152.8256  136.6855  159.5496 H   0  0  0  0  0  0  0  0  0  0  0  0
  153.2901  138.3316  159.9411 H   0  0  0  0  0  0  0  0  0  0  0  0
  154.3656  137.3318  158.9715 H   0  0  0  0  0  0  0  0  0  0  0  0
  1  2  1  0  0  0  0
  1 24  1  0  0  0  0
  1 25  1  0  0  0  0
  1 26  1  0  0  0  0
  2  3  1  0  0  0  0
  3  4  1  0  0  0  0
  3 27  1  0  0  0  0
  3 28  1  0  0  0  0
  4  5  1  0  0  0  0
  4 29  1  0  0  0  0
  4 30  1  0  0  0  0
  5 15  1  0  0  0  0
  5  6  1  0  0  0  0
  6  7  1  0  0  0  0
  6 13  2  0  0  0  0
  7 12  1  0  0  0  0
  7  8  1  0  0  0  0
  8  9  1  0  0  0  0
  8 31  1  0  0  0  0
  8 32  1  0  0  0  0
  9 10  1  0  0  0  0
  9 33  1  0  0  0  0
  9 34  1  0  0  0  0
 10 11  1  0  0  0  0
 11 12  1  0  0  0  0
 11 35  1  0  0  0  0
 11 36  1  0  0  0  0
 12 37  1  0  0  0  0
 12 38  1  0  0  0  0
 13 14  1  0  0  0  0
 14 21  1  0  0  0  0
 14 15  2  0  0  0  0
 15 16  1  0  0  0  0
 16 17  2  0  0  0  0
 16 18  1  0  0  0  0
 18 23  1  0  0  0  0
 18 19  1  0  0  0  0
 19 20  2  0  0  0  0
 19 21  1  0  0  0  0
 21 22  1  0  0  0  0
 22 39  1  0  0  0  0
 22 40  1  0  0  0  0
 22 41  1  0  0  0  0
M  END
> <s_m_source_file>
AV-unprocessed.smi

> <i_m_source_file_index>
523

> <i_lp_mmshare_version>
43012

> <i_f3d_flags>
0

> <s_epik_input>
W0NIM11uMWMoPU8pW25IXWMoPU8pYyhjMTIpbihbQ0gyXVtDSDJdT1tDSDNdKWMobjIpTjNbQ0gyXVtDSDJdT1tDSDJdW0NIMl0z

> <s_epik_cmdline>
J2VwaWtfcHl0aG9uJywgJy1waCcsICc3LjAnLCAnLXRuJywgJzgnLCAnLW1hJywgJzIwMCcsICctbWV0YWxfYmluZGluZycsICctaW1hZScsICc8aW5maWxlLm1hZT4nLCAnLW9tYWUnLCAnPG91dGZpbGUubWFlPic=

> <r_lp_tautomer_probability>
1

> <r_epik_Ionization_Penalty>
0.000208431

> <r_epik_Ionization_Penalty_Charging>
0.000208146

> <r_epik_Ionization_Penalty_Neutral>
2.85359e-07

> <r_epik_State_Penalty>
-0

> <r_epik_Charging_Adjusted_Penalty>
0.000208146

> <i_epik_Tot_Q>
0

> <i_epik_Tot_abs_Q>
0

> <r_epik_Metal_State_Penalty>
0.136977

> <b_epik_Metal_Only>
0

> <s_lp_Force_Field>
OPLS_2005

> <r_lp_Energy>
38.6509

> <b_lp_Chiralities_Consistent>
1

> <s_lp_Variant>
AV-unprocessed.smi:523-1

> <Gold.Version>
5.8.1

> <Gold.Id.Protein>
6NUR|6NUR_protein|mol2

> <Gold.PLP.Fitness>
41.9410

> <Gold.PLP.PLP>
-35.5085

> <Gold.PLP.part.hbond>
-3.9288

> <Gold.PLP.part.metal>
0.0000

> <Gold.PLP.part.buried>
-4.7336

> <Gold.PLP.part.nonpolar>
-27.5748

> <Gold.PLP.part.repulsive>
0.6129

> <Gold.PLP.ligand.clash>
0.0000

> <Gold.PLP.ligand.torsion>
1.0600

> <Gold.PLP.Chemscore.Hbond>
2.6880

> <Gold.PLP.Chemscore.CHOScore>
0.0000

> <Gold.PLP.Chemscore.Metal>
0.0000

> <Gold.Chemscore.Hbonds>
donor molecule, donor type, donor heavy atom, donor atom, acceptor molecule, acceptor atom, score
      P1  H  7989  7998       L1    17  1.00
      P1  H  8011  8017       L1     2  0.63
      P1  H 10752 10764       L1    20  1.00

> <Gold.PLP.Chemscore.Internal.Correction>
0.4885

> <Gold.Rescore>
     Score         DG    S(hbond)    S(metal)    S(lipo)     H(rot)  DE(clash)    DE(int)     intcor
     14.56     -17.64       2.27        0.00      72.85       1.53       0.52       2.57       ----

> <Gold.Chemscore.Fitness>
14.5575

> <Gold.Chemscore.DG>
-17.6431

> <Gold.Chemscore.ZeroCoef>
-5.4800

> <Gold.Chemscore.Hbond>
2.2661

> <Gold.Chemscore.Metal>
0.0000

> <Gold.Chemscore.Lipo>
72.8483

> <Gold.Chemscore.Internal_Hbond>
0.0000

> <Gold.Chemscore.DEClash>
0.5206

> <Gold.Chemscore.DEInternal>
2.5650

> <Gold.Chemscore.Rot>
1.5348

> <Gold.Chemscore.Internal.Correction>
   9.000000E+99

> <Gold.Chemscore.Hbonds>
donor molecule, donor type, donor heavy atom, donor atom, acceptor molecule, acceptor atom, score
      P1  H  7989  7998       L1    17  0.91
      P1  H  8011  8017       L1     2  0.21
      P1  H 10752 10764       L1    20  0.58

> <Gold.Chemscore.Hbond.Weighted>
-7.5688

> <Gold.Chemscore.Metal.Weighted>
-0.0000

> <Gold.Chemscore.Lipo.Weighted>
-8.5232

> <Gold.Chemscore.Internal_Hbond.Weighted>
0.0000

> <Gold.Chemscore.DEClash.Weighted>
0.5206

> <Gold.Chemscore.DEInternal.Weighted>
2.5650

> <Gold.Chemscore.Rot.Weighted>
3.9290

> <Gold.Chemscore.Internal.Correction.Weighted>
   9.000000E+99

> <Gold.Protein.RotatedTorsions>
[ 6907 6896 6895 6894 ] final   46.16 input  -60.11 | X-H torsion
[ 7974 7965 7964 7962 ] final  -13.80 input  175.53 | X-H torsion
[ 8008 7997 7996 7995 ] final -120.66 input   59.86 | X-H torsion
[ 10167 10162 10161 10158 ] final  150.78 input  -65.29 | X-H torsion
[ 10718 10713 10712 10709 ] final  -72.60 input   66.30 | X-H torsion
[ 10763 10752 10751 10750 ] final  -22.79 input  -60.55 | X-H torsion
[ 11005 11000 10999 10996 ] final  156.16 input  -57.11 | X-H torsion

> <Gold.Protein.ActiveResidues>
 VAL166  LYS551  ARG553  GLY616  TRP617  ASP618  TYR619  PRO620  LYS621  CYS622 
 ASP623  PHE694  ASN695  SER759  ASP760  ASP761  ALA762  ILE779  LEU786  VAL792 
 PHE793  MET794  SER795  GLU796  ALA797  LYS798  CYS799  TRP800  GLU811  SER814 

> <Gold.Protein.RotatedAtoms>
  152.2531  134.8112  160.0442 H   0  0  0  0  0  0  0  0  0  0  0  0  # atno 6907 bound_to 6896
  151.8785  133.3485  159.3766 H   0  0  0  0  0  0  0  0  0  0  0  0  # atno 6908 bound_to 6896
  150.7091  134.4969  159.5587 H   0  0  0  0  0  0  0  0  0  0  0  0  # atno 6909 bound_to 6896
  146.2100  140.3255  142.8394 H   0  0  0  0  0  0  0  0  0  0  0  0  # atno 7974 bound_to 7965
  155.1354  140.0401  157.2785 H   0  0  0  0  0  0  0  0  0  0  0  0  # atno 8008 bound_to 7997
  154.6512  140.2569  155.7186 H   0  0  0  0  0  0  0  0  0  0  0  0  # atno 8009 bound_to 7997
  156.2578  140.2836  156.0946 H   0  0  0  0  0  0  0  0  0  0  0  0  # atno 8010 bound_to 7997
  139.4846  144.5494  151.7427 H   0  0  0  0  0  0  0  0  0  0  0  0  # atno 10167 bound_to 10162
  156.0313  130.4376  150.2618 H   0  0  0  0  0  0  0  0  0  0  0  0  # atno 10718 bound_to 10713
  153.6575  135.6978  153.5188 H   0  0  0  0  0  0  0  0  0  0  0  0  # atno 10763 bound_to 10752
  153.2658  135.4230  155.0938 H   0  0  0  0  0  0  0  0  0  0  0  0  # atno 10764 bound_to 10752
  154.8461  135.3566  154.6119 H   0  0  0  0  0  0  0  0  0  0  0  0  # atno 10765 bound_to 10752
  140.1648  134.8584  157.2619 H   0  0  0  0  0  0  0  0  0  0  0  0  # atno 11005 bound_to 11000
  144.8889  140.7498  143.5939 LP  0  0  0  0  0  0  0  0  0  0  0  0  # atno 17320 bound_to 7965
  145.3177  139.1798  143.4604 LP  0  0  0  0  0  0  0  0  0  0  0  0  # atno 17321 bound_to 7965
  140.5046  144.1118  150.5979 LP  0  0  0  0  0  0  0  0  0  0  0  0  # atno 17342 bound_to 10162
  140.4022  143.2698  151.9933 LP  0  0  0  0  0  0  0  0  0  0  0  0  # atno 17343 bound_to 10162
  157.0720  131.0119  151.3187 LP  0  0  0  0  0  0  0  0  0  0  0  0  # atno 17370 bound_to 10713
  157.4992  130.7869  149.7587 LP  0  0  0  0  0  0  0  0  0  0  0  0  # atno 17371 bound_to 10713
  140.2446  134.3755  155.7466 LP  0  0  0  0  0  0  0  0  0  0  0  0  # atno 17394 bound_to 11000
  141.2213  133.7284  156.8842 LP  0  0  0  0  0  0  0  0  0  0  0  0  # atno 17395 bound_to 11000

$$$$
