AV-unprocessed.smi:670|AV-procd|sdf|3265|dock9
  -GOLD-   22720 0213D 1   1.00000     0.00000
 Structure written by MMmdl.
 44 45  0  0  0  0  0  0  0  0  2 V2000
  145.1796  135.6629  151.2782 C   0  0  0  0  0  0  0  0  0  0  0  0
  145.5109  134.1991  150.9444 C   0  0  2  0  0  0  0  0  0  0  0  0
  144.3233  133.5225  150.2303 C   0  0  0  0  0  0  0  0  0  0  0  0
  144.6248  132.0560  149.8872 C   0  0  0  0  0  0  0  0  0  0  0  0
  145.0194  131.2665  151.1429 C   0  0  0  0  0  0  0  0  0  0  0  0
  146.2081  131.9260  151.8572 C   0  0  0  0  0  0  0  0  0  0  0  0
  145.9172  133.4018  152.2047 C   0  0  1  0  0  0  0  0  0  0  0  0
  147.0916  133.9997  152.7391 O   0  0  0  0  0  0  0  0  0  0  0  0
  147.6027  133.3622  153.9009 C   0  0  0  0  0  0  0  0  0  0  0  0
  146.9399  133.9798  155.1365 C   0  0  0  0  0  0  0  0  0  0  0  0
  147.6407  133.5739  156.3465 N   0  0  0  0  0  0  0  0  0  0  0  0
  147.3324  133.9912  157.5822 C   0  0  0  0  0  0  0  0  0  0  0  0
  146.4076  134.7716  157.8153 O   0  0  0  0  0  0  0  0  0  0  0  0
  148.2216  133.4417  158.7093 C   0  0  0  0  0  0  0  0  0  0  0  0
  147.8960  133.9619  160.0455 N   0  0  0  0  0  0  0  0  0  0  0  0
  147.8790  135.4200  160.1223 N   0  5  0  0  0  0  0  0  0  0  0  0
  147.5859  136.0178  161.3075 C   0  0  0  0  0  0  0  0  0  0  0  0
  147.5434  137.2384  161.4458 O   0  0  0  0  0  0  0  0  0  0  0  0
  147.3169  135.1669  162.4549 C   0  0  0  0  0  0  0  0  0  0  0  0
  147.3592  133.8233  162.3600 C   0  0  0  0  0  0  0  0  0  0  0  0
  147.6708  133.1399  161.1105 C   0  0  0  0  0  0  0  0  0  0  0  0
  147.7258  131.9131  161.0198 O   0  0  0  0  0  0  0  0  0  0  0  0
  144.3393  135.7312  151.9700 H   0  0  0  0  0  0  0  0  0  0  0  0
  144.9162  136.2197  150.3787 H   0  0  0  0  0  0  0  0  0  0  0  0
  146.0298  136.1686  151.7364 H   0  0  0  0  0  0  0  0  0  0  0  0
  146.3580  134.1999  150.2565 H   0  0  0  0  0  0  0  0  0  0  0  0
  143.4367  133.5704  150.8642 H   0  0  0  0  0  0  0  0  0  0  0  0
  144.0783  134.0660  149.3171 H   0  0  0  0  0  0  0  0  0  0  0  0
  143.7541  131.5972  149.4178 H   0  0  0  0  0  0  0  0  0  0  0  0
  145.4320  132.0096  149.1553 H   0  0  0  0  0  0  0  0  0  0  0  0
  144.1688  131.2091  151.8235 H   0  0  0  0  0  0  0  0  0  0  0  0
  145.2702  130.2403  150.8729 H   0  0  0  0  0  0  0  0  0  0  0  0
  146.4451  131.3582  152.7566 H   0  0  0  0  0  0  0  0  0  0  0  0
  147.0899  131.8697  151.2177 H   0  0  0  0  0  0  0  0  0  0  0  0
  145.1006  133.4566  152.9276 H   0  0  0  0  0  0  0  0  0  0  0  0
  147.3782  132.2955  153.8586 H   0  0  0  0  0  0  0  0  0  0  0  0
  148.6860  133.4649  153.9674 H   0  0  0  0  0  0  0  0  0  0  0  0
  146.9342  135.0679  155.0583 H   0  0  0  0  0  0  0  0  0  0  0  0
  145.9004  133.6542  155.1978 H   0  0  0  0  0  0  0  0  0  0  0  0
  148.4213  132.9431  156.2360 H   0  0  0  0  0  0  0  0  0  0  0  0
  148.1515  132.3527  158.7187 H   0  0  0  0  0  0  0  0  0  0  0  0
  149.2599  133.6646  158.4567 H   0  0  0  0  0  0  0  0  0  0  0  0
  147.0804  135.6226  163.4052 H   0  0  0  0  0  0  0  0  0  0  0  0
  147.1546  133.2301  163.2388 H   0  0  0  0  0  0  0  0  0  0  0  0
  1  2  1  0  0  0  0
  1 23  1  0  0  0  0
  1 24  1  0  0  0  0
  1 25  1  0  0  0  0
  2  7  1  0  0  0  0
  2  3  1  0  0  0  0
  2 26  1  0  0  0  0
  3  4  1  0  0  0  0
  3 27  1  0  0  0  0
  3 28  1  0  0  0  0
  4  5  1  0  0  0  0
  4 29  1  0  0  0  0
  4 30  1  0  0  0  0
  5  6  1  0  0  0  0
  5 31  1  0  0  0  0
  5 32  1  0  0  0  0
  6  7  1  0  0  0  0
  6 33  1  0  0  0  0
  6 34  1  0  0  0  0
  7  8  1  0  0  0  0
  7 35  1  0  0  0  0
  8  9  1  0  0  0  0
  9 10  1  0  0  0  0
  9 36  1  0  0  0  0
  9 37  1  0  0  0  0
 10 11  1  0  0  0  0
 10 38  1  0  0  0  0
 10 39  1  0  0  0  0
 11 12  1  0  0  0  0
 11 40  1  0  0  0  0
 12 13  2  0  0  0  0
 12 14  1  0  0  0  0
 14 41  1  0  0  0  0
 14 42  1  0  0  0  0
 14 15  1  0  0  0  0
 15 16  1  0  0  0  0
 15 21  1  0  0  0  0
 16 17  1  0  0  0  0
 17 18  2  0  0  0  0
 17 19  1  0  0  0  0
 19 43  1  0  0  0  0
 19 20  2  0  0  0  0
 20 44  1  0  0  0  0
 20 21  1  0  0  0  0
 21 22  2  0  0  0  0
M  CHG  1  16  -1
M  END
> <s_m_source_file>
AV-unprocessed.smi

> <i_m_source_file_index>
670

> <i_lp_mmshare_version>
43012

> <i_f3d_flags>
0

> <s_epik_input>
W0NIM11bQ0BASF0xW0NIMl1bQ0gyXVtDSDJdW0NIMl1bQ0BIXTFPW0NIMl1bQ0gyXVtOSF1DKD1PKVtDSDJdbjJbbkhdYyg9TylbY0hdW2NIXWMyPU8=

> <s_epik_cmdline>
J2VwaWtfcHl0aG9uJywgJy1waCcsICc3LjAnLCAnLXRuJywgJzgnLCAnLW1hJywgJzIwMCcsICctbWV0YWxfYmluZGluZycsICctaW1hZScsICc8aW5maWxlLm1hZT4nLCAnLW9tYWUnLCAnPG91dGZpbGUubWFlPic=

> <r_lp_tautomer_probability>
1

> <r_epik_Ionization_Penalty>
0.0975638

> <r_epik_Ionization_Penalty_Charging>
0.0975637

> <r_epik_Ionization_Penalty_Neutral>
2.78599e-08

> <r_epik_State_Penalty>
0.0343507

> <r_epik_Charging_Adjusted_Penalty>
0.131914

> <i_epik_Tot_Q>
-1

> <i_epik_Tot_abs_Q>
1

> <r_epik_Metal_State_Penalty>
0.0343507

> <b_epik_Metal_Only>
0

> <s_lp_Force_Field>
OPLS_2005

> <r_lp_Energy>
26.6339

> <b_lp_Chiralities_Consistent>
1

> <s_lp_Variant>
AV-unprocessed.smi:670-1

> <Gold.Version>
5.8.1

> <Gold.Id.Protein>
6NUR|6NUR_protein|mol2

> <Gold.PLP.Fitness>
42.6426

> <Gold.PLP.PLP>
-37.7124

> <Gold.PLP.part.hbond>
-2.0000

> <Gold.PLP.part.metal>
0.0000

> <Gold.PLP.part.buried>
-6.1689

> <Gold.PLP.part.nonpolar>
-30.1740

> <Gold.PLP.part.repulsive>
0.7300

> <Gold.PLP.ligand.clash>
0.0000

> <Gold.PLP.ligand.torsion>
0.2729

> <Gold.PLP.Chemscore.Hbond>
1.8080

> <Gold.PLP.Chemscore.CHOScore>
0.0000

> <Gold.PLP.Chemscore.Metal>
0.0000

> <Gold.Chemscore.Hbonds>
donor molecule, donor type, donor heavy atom, donor atom, acceptor molecule, acceptor atom, score
      P1  H  6931  6943       L1    18  0.93
      P1  H  6934  6947       L1    18  0.85

> <Gold.PLP.Chemscore.Internal.Correction>
0.0521

> <Gold.Rescore>
     Score         DG    S(hbond)    S(metal)    S(lipo)     H(rot)  DE(clash)    DE(int)     intcor
     12.98     -14.65       1.77        0.00      81.53       2.45       0.06       1.61       ----

> <Gold.Chemscore.Fitness>
12.9814

> <Gold.Chemscore.DG>
-14.6504

> <Gold.Chemscore.ZeroCoef>
-5.4800

> <Gold.Chemscore.Hbond>
1.7668

> <Gold.Chemscore.Metal>
0.0000

> <Gold.Chemscore.Lipo>
81.5264

> <Gold.Chemscore.Internal_Hbond>
0.0000

> <Gold.Chemscore.DEClash>
0.0595

> <Gold.Chemscore.DEInternal>
1.6096

> <Gold.Chemscore.Rot>
2.4490

> <Gold.Chemscore.Internal.Correction>
   9.000000E+99

> <Gold.Chemscore.Hbonds>
donor molecule, donor type, donor heavy atom, donor atom, acceptor molecule, acceptor atom, score
      P1  H  6931  6943       L1    18  0.89
      P1  H  6934  6947       L1    18  0.83

> <Gold.Chemscore.Hbond.Weighted>
-5.9012

> <Gold.Chemscore.Metal.Weighted>
-0.0000

> <Gold.Chemscore.Lipo.Weighted>
-9.5386

> <Gold.Chemscore.Internal_Hbond.Weighted>
0.0000

> <Gold.Chemscore.DEClash.Weighted>
0.0595

> <Gold.Chemscore.DEInternal.Weighted>
1.6096

> <Gold.Chemscore.Rot.Weighted>
6.2694

> <Gold.Chemscore.Internal.Correction.Weighted>
   9.000000E+99

> <Gold.Protein.RotatedTorsions>
[ 6907 6896 6895 6894 ] final   48.79 input  -60.11 | X-H torsion
[ 7974 7965 7964 7962 ] final  -22.60 input  175.53 | X-H torsion
[ 8008 7997 7996 7995 ] final   17.54 input   59.86 | X-H torsion
[ 10167 10162 10161 10158 ] final  125.22 input  -65.29 | X-H torsion
[ 10718 10713 10712 10709 ] final   45.16 input   66.30 | X-H torsion
[ 10763 10752 10751 10750 ] final -169.77 input  -60.55 | X-H torsion
[ 11005 11000 10999 10996 ] final  174.23 input  -57.11 | X-H torsion

> <Gold.Protein.ActiveResidues>
 VAL166  LYS551  ARG553  GLY616  TRP617  ASP618  TYR619  PRO620  LYS621  CYS622 
 ASP623  PHE694  ASN695  SER759  ASP760  ASP761  ALA762  ILE779  LEU786  VAL792 
 PHE793  MET794  SER795  GLU796  ALA797  LYS798  CYS799  TRP800  GLU811  SER814 

> <Gold.Protein.RotatedAtoms>
  152.2835  134.7802  160.0391 H   0  0  0  0  0  0  0  0  0  0  0  0  # atno 6907 bound_to 6896
  151.8373  133.3413  159.3640 H   0  0  0  0  0  0  0  0  0  0  0  0  # atno 6908 bound_to 6896
  150.7199  134.5354  159.5765 H   0  0  0  0  0  0  0  0  0  0  0  0  # atno 6909 bound_to 6896
  146.1666  140.4501  142.8549 H   0  0  0  0  0  0  0  0  0  0  0  0  # atno 7974 bound_to 7965
  154.8929  140.2989  155.5361 H   0  0  0  0  0  0  0  0  0  0  0  0  # atno 8008 bound_to 7997
  156.3020  140.2421  156.3881 H   0  0  0  0  0  0  0  0  0  0  0  0  # atno 8009 bound_to 7997
  154.8600  140.0405  157.1648 H   0  0  0  0  0  0  0  0  0  0  0  0  # atno 8010 bound_to 7997
  139.5698  144.6932  151.3810 H   0  0  0  0  0  0  0  0  0  0  0  0  # atno 10167 bound_to 10162
  157.4346  130.8045  149.7635 H   0  0  0  0  0  0  0  0  0  0  0  0  # atno 10718 bound_to 10713
  154.6487  135.2908  155.0014 H   0  0  0  0  0  0  0  0  0  0  0  0  # atno 10763 bound_to 10752
  154.1115  135.6562  153.4890 H   0  0  0  0  0  0  0  0  0  0  0  0  # atno 10764 bound_to 10752
  153.0364  135.5266  154.7385 H   0  0  0  0  0  0  0  0  0  0  0  0  # atno 10765 bound_to 10752
  140.3491  134.7211  157.4255 H   0  0  0  0  0  0  0  0  0  0  0  0  # atno 11005 bound_to 11000
  144.8101  140.6370  143.6421 LP  0  0  0  0  0  0  0  0  0  0  0  0  # atno 17320 bound_to 7965
  145.4451  139.1530  143.3949 LP  0  0  0  0  0  0  0  0  0  0  0  0  # atno 17321 bound_to 7965
  140.6982  143.7697  150.7360 LP  0  0  0  0  0  0  0  0  0  0  0  0  # atno 17342 bound_to 10162
  140.1199  143.4621  152.2319 LP  0  0  0  0  0  0  0  0  0  0  0  0  # atno 17343 bound_to 10162
  155.9925  130.3930  150.2937 LP  0  0  0  0  0  0  0  0  0  0  0  0  # atno 17370 bound_to 10713
  157.1097  131.0218  151.3053 LP  0  0  0  0  0  0  0  0  0  0  0  0  # atno 17371 bound_to 10713
  140.0718  134.5852  155.8634 LP  0  0  0  0  0  0  0  0  0  0  0  0  # atno 17394 bound_to 11000
  141.2017  133.6620  156.5966 LP  0  0  0  0  0  0  0  0  0  0  0  0  # atno 17395 bound_to 11000

$$$$
