AV-unprocessed.smi:1638|AV-procd|sdf|6546|dock1
  -GOLD-   22720 7233D 1   1.00000     0.00000
 Structure written by MMmdl.
 41 42  0  0  0  0  0  0  0  0  2 V2000
  151.9831  140.2905  158.3896 C   0  0  0  0  0  0  0  0  0  0  0  0
  151.5511  140.0275  156.9875 C   0  0  0  0  0  0  0  0  0  0  0  0
  152.4170  139.8937  155.9757 N   0  0  0  0  0  0  0  0  0  0  0  0
  151.7796  139.6584  154.7654 N   0  0  0  0  0  0  0  0  0  0  0  0
  150.4468  139.6235  154.9009 C   0  0  0  0  0  0  0  0  0  0  0  0
  149.5500  139.4069  153.8211 N   0  0  0  0  0  0  0  0  0  0  0  0
  148.2709  138.9947  153.8722 C   0  0  0  0  0  0  0  0  0  0  0  0
  147.6365  138.7615  154.9015 O   0  0  0  0  0  0  0  0  0  0  0  0
  147.7482  138.8686  152.6436 N   0  0  0  0  0  0  0  0  0  0  0  0
  146.3848  138.4323  152.3635 C   0  0  0  0  0  0  0  0  0  0  0  0
  145.9570  137.2854  153.3008 C   0  0  0  0  0  0  0  0  0  0  0  0
  146.2956  135.9394  152.7648 N   0  3  0  0  0  0  0  0  0  0  0  0
  145.2308  135.3951  151.8812 C   0  0  0  0  0  0  0  0  0  0  0  0
  145.8414  134.6743  150.6669 C   0  0  0  0  0  0  0  0  0  0  0  0
  146.3543  133.2570  150.9572 C   0  0  0  0  0  0  0  0  0  0  0  0
  147.3929  133.1795  152.0864 C   0  0  0  0  0  0  0  0  0  0  0  0
  146.7865  133.5076  153.4592 C   0  0  0  0  0  0  0  0  0  0  0  0
  146.7724  135.0054  153.8263 C   0  0  0  0  0  0  0  0  0  0  0  0
  149.8574  139.8759  156.5350 S   0  0  0  0  0  0  0  0  0  0  0  0
  153.0355  140.0367  158.5213 H   0  0  0  0  0  0  0  0  0  0  0  0
  151.3918  139.6923  159.0828 H   0  0  0  0  0  0  0  0  0  0  0  0
  151.8443  141.3447  158.6294 H   0  0  0  0  0  0  0  0  0  0  0  0
  149.9324  139.5745  152.9022 H   0  0  0  0  0  0  0  0  0  0  0  0
  148.3357  139.0774  151.8494 H   0  0  0  0  0  0  0  0  0  0  0  0
  145.7203  139.2869  152.4938 H   0  0  0  0  0  0  0  0  0  0  0  0
  146.3166  138.1415  151.3147 H   0  0  0  0  0  0  0  0  0  0  0  0
  146.4027  137.4015  154.2900 H   0  0  0  0  0  0  0  0  0  0  0  0
  144.8774  137.3624  153.4374 H   0  0  0  0  0  0  0  0  0  0  0  0
  144.5323  134.7633  152.4317 H   0  0  0  0  0  0  0  0  0  0  0  0
  144.6277  136.2129  151.4855 H   0  0  0  0  0  0  0  0  0  0  0  0
  145.0817  134.6014  149.8878 H   0  0  0  0  0  0  0  0  0  0  0  0
  146.6424  135.2805  150.2414 H   0  0  0  0  0  0  0  0  0  0  0  0
  145.5114  132.6060  151.1927 H   0  0  0  0  0  0  0  0  0  0  0  0
  146.7946  132.8531  150.0448 H   0  0  0  0  0  0  0  0  0  0  0  0
  147.7777  132.1594  152.1158 H   0  0  0  0  0  0  0  0  0  0  0  0
  148.2512  133.8189  151.8764 H   0  0  0  0  0  0  0  0  0  0  0  0
  145.7822  133.0886  153.5325 H   0  0  0  0  0  0  0  0  0  0  0  0
  147.3627  132.9885  154.2259 H   0  0  0  0  0  0  0  0  0  0  0  0
  147.7859  135.2982  154.1001 H   0  0  0  0  0  0  0  0  0  0  0  0
  146.1629  135.1306  154.7227 H   0  0  0  0  0  0  0  0  0  0  0  0
  147.0822  136.0870  152.1490 H   0  0  0  0  0  0  0  0  0  0  0  0
  1  2  1  0  0  0  0
  1 20  1  0  0  0  0
  1 21  1  0  0  0  0
  1 22  1  0  0  0  0
  2 19  1  0  0  0  0
  2  3  2  0  0  0  0
  3  4  1  0  0  0  0
  4  5  2  0  0  0  0
  5  6  1  0  0  0  0
  5 19  1  0  0  0  0
  6  7  1  0  0  0  0
  6 23  1  0  0  0  0
  7  8  2  0  0  0  0
  7  9  1  0  0  0  0
  9 10  1  0  0  0  0
  9 24  1  0  0  0  0
 10 11  1  0  0  0  0
 10 25  1  0  0  0  0
 10 26  1  0  0  0  0
 11 12  1  0  0  0  0
 11 27  1  0  0  0  0
 11 28  1  0  0  0  0
 12 18  1  0  0  0  0
 12 13  1  0  0  0  0
 12 41  1  0  0  0  0
 13 14  1  0  0  0  0
 13 29  1  0  0  0  0
 13 30  1  0  0  0  0
 14 15  1  0  0  0  0
 14 31  1  0  0  0  0
 14 32  1  0  0  0  0
 15 16  1  0  0  0  0
 15 33  1  0  0  0  0
 15 34  1  0  0  0  0
 16 17  1  0  0  0  0
 16 35  1  0  0  0  0
 16 36  1  0  0  0  0
 17 18  1  0  0  0  0
 17 37  1  0  0  0  0
 17 38  1  0  0  0  0
 18 39  1  0  0  0  0
 18 40  1  0  0  0  0
M  CHG  1  12   1
M  END
> <s_m_source_file>
AV-unprocessed.smi

> <i_m_source_file_index>
1638

> <i_lp_mmshare_version>
43012

> <i_f3d_flags>
0

> <s_epik_input>
W0NIM11jMW5uYyhzMSlbTkhdQyg9TylbTkhdW0NIMl1bQ0gyXU4yW0NIMl1bQ0gyXVtDSDJdW0NIMl1bQ0gyXVtDSDJdMg==

> <s_epik_cmdline>
J2VwaWtfcHl0aG9uJywgJy1waCcsICc3LjAnLCAnLXRuJywgJzgnLCAnLW1hJywgJzIwMCcsICctbWV0YWxfYmluZGluZycsICctaW1hZScsICc8aW5maWxlLm1hZT4nLCAnLW9tYWUnLCAnPG91dGZpbGUubWFlPic=

> <r_lp_tautomer_probability>
1

> <r_epik_Ionization_Penalty>
0.00683162

> <r_epik_Ionization_Penalty_Charging>
0.00256589

> <r_epik_Ionization_Penalty_Neutral>
0.00426573

> <r_epik_State_Penalty>
0.0020046

> <r_epik_Charging_Adjusted_Penalty>
0.00457048

> <i_epik_Tot_Q>
1

> <i_epik_Tot_abs_Q>
1

> <r_epik_Metal_State_Penalty>
0.375345

> <b_epik_Metal_Only>
0

> <s_lp_Force_Field>
OPLS_2005

> <r_lp_Energy>
20.2813

> <b_lp_Chiralities_Consistent>
1

> <s_lp_Variant>
AV-unprocessed.smi:1638-1

> <Gold.Version>
5.8.1

> <Gold.Id.Protein>
6NUR|6NUR_protein|mol2

> <Gold.PLP.Fitness>
44.5787

> <Gold.PLP.PLP>
-29.3538

> <Gold.PLP.part.hbond>
-6.0000

> <Gold.PLP.part.metal>
0.0000

> <Gold.PLP.part.buried>
-1.3630

> <Gold.PLP.part.nonpolar>
-21.3223

> <Gold.PLP.part.repulsive>
0.3291

> <Gold.PLP.ligand.clash>
0.0044

> <Gold.PLP.ligand.torsion>
0.8411

> <Gold.PLP.Chemscore.Hbond>
5.6180

> <Gold.PLP.Chemscore.CHOScore>
0.0000

> <Gold.PLP.Chemscore.Metal>
0.0000

> <Gold.Chemscore.Hbonds>
donor molecule, donor type, donor heavy atom, donor atom, acceptor molecule, acceptor atom, score
      L1  H     6    23       P1  7957  0.96
      L1  H     9    24       P1  7957  1.00
      L1  H    12    41       P1  7948  2.00
      P1  H  7989  7998       L1     4  0.60
      P1  H  7997  8008       L1     3  1.00

> <Gold.PLP.Chemscore.Internal.Correction>
0.0575

> <Gold.Rescore>
     Score         DG    S(hbond)    S(metal)    S(lipo)     H(rot)  DE(clash)    DE(int)     intcor
     18.51     -20.93       3.89        0.00      55.88       1.60       0.04       2.38       ----

> <Gold.Chemscore.Fitness>
18.5063

> <Gold.Chemscore.DG>
-20.9332

> <Gold.Chemscore.ZeroCoef>
-5.4800

> <Gold.Chemscore.Hbond>
3.8936

> <Gold.Chemscore.Metal>
0.0000

> <Gold.Chemscore.Lipo>
55.8826

> <Gold.Chemscore.Internal_Hbond>
0.0000

> <Gold.Chemscore.DEClash>
0.0443

> <Gold.Chemscore.DEInternal>
2.3826

> <Gold.Chemscore.Rot>
1.5975

> <Gold.Chemscore.Internal.Correction>
   9.000000E+99

> <Gold.Chemscore.Hbonds>
donor molecule, donor type, donor heavy atom, donor atom, acceptor molecule, acceptor atom, score
      L1  H     6    23       P1  7957  0.92
      L1  H     9    24       P1  7957  0.91
      L1  H    12    41       P1  7948  0.96
      P1  H  7989  7998       L1     4  0.04
      P1  H  7997  8008       L1     3  0.87

> <Gold.Chemscore.Hbond.Weighted>
-13.0045

> <Gold.Chemscore.Metal.Weighted>
-0.0000

> <Gold.Chemscore.Lipo.Weighted>
-6.5383

> <Gold.Chemscore.Internal_Hbond.Weighted>
0.0000

> <Gold.Chemscore.DEClash.Weighted>
0.0443

> <Gold.Chemscore.DEInternal.Weighted>
2.3826

> <Gold.Chemscore.Rot.Weighted>
4.0896

> <Gold.Chemscore.Internal.Correction.Weighted>
   9.000000E+99

> <Gold.Protein.RotatedTorsions>
[ 6907 6896 6895 6894 ] final  -12.28 input  -60.11 | X-H torsion
[ 7974 7965 7964 7962 ] final   49.18 input  175.53 | X-H torsion
[ 8008 7997 7996 7995 ] final  -19.41 input   59.86 | X-H torsion
[ 10167 10162 10161 10158 ] final  -10.21 input  -65.29 | X-H torsion
[ 10718 10713 10712 10709 ] final  -13.37 input   66.30 | X-H torsion
[ 10763 10752 10751 10750 ] final -152.98 input  -60.55 | X-H torsion
[ 11005 11000 10999 10996 ] final   52.60 input  -57.11 | X-H torsion

> <Gold.Protein.ActiveResidues>
 VAL166  LYS551  ARG553  GLY616  TRP617  ASP618  TYR619  PRO620  LYS621  CYS622 
 ASP623  PHE694  ASN695  SER759  ASP760  ASP761  ALA762  ILE779  LEU786  VAL792 
 PHE793  MET794  SER795  GLU796  ALA797  LYS798  CYS799  TRP800  GLU811  SER814 

> <Gold.Protein.RotatedAtoms>
  151.3731  135.0926  159.9471 H   0  0  0  0  0  0  0  0  0  0  0  0  # atno 6907 bound_to 6896
  152.5130  133.9146  159.7515 H   0  0  0  0  0  0  0  0  0  0  0  0  # atno 6908 bound_to 6896
  150.9563  133.6439  159.2791 H   0  0  0  0  0  0  0  0  0  0  0  0  # atno 6909 bound_to 6896
  146.0133  139.4568  142.9942 H   0  0  0  0  0  0  0  0  0  0  0  0  # atno 7974 bound_to 7965
  154.4838  140.2089  155.9702 H   0  0  0  0  0  0  0  0  0  0  0  0  # atno 8008 bound_to 7997
  156.1206  140.3214  155.8171 H   0  0  0  0  0  0  0  0  0  0  0  0  # atno 8009 bound_to 7997
  155.4475  140.0514  157.2995 H   0  0  0  0  0  0  0  0  0  0  0  0  # atno 8010 bound_to 7997
  140.7108  143.5773  150.9029 H   0  0  0  0  0  0  0  0  0  0  0  0  # atno 10167 bound_to 10162
  156.6312  130.4902  149.6128 H   0  0  0  0  0  0  0  0  0  0  0  0  # atno 10718 bound_to 10713
  154.7958  135.3223  154.7669 H   0  0  0  0  0  0  0  0  0  0  0  0  # atno 10763 bound_to 10752
  153.8348  135.6876  153.4814 H   0  0  0  0  0  0  0  0  0  0  0  0  # atno 10764 bound_to 10752
  153.1649  135.4646  154.9765 H   0  0  0  0  0  0  0  0  0  0  0  0  # atno 10765 bound_to 10752
  140.0836  134.5305  155.8922 H   0  0  0  0  0  0  0  0  0  0  0  0  # atno 11005 bound_to 11000
  145.7307  141.0043  143.1353 LP  0  0  0  0  0  0  0  0  0  0  0  0  # atno 17320 bound_to 7965
  144.6961  139.8981  143.7457 LP  0  0  0  0  0  0  0  0  0  0  0  0  # atno 17321 bound_to 7965
  139.9499  143.6284  152.3032 LP  0  0  0  0  0  0  0  0  0  0  0  0  # atno 17342 bound_to 10162
  139.6799  144.7656  151.1628 LP  0  0  0  0  0  0  0  0  0  0  0  0  # atno 17343 bound_to 10162
  156.2233  130.6750  151.1390 LP  0  0  0  0  0  0  0  0  0  0  0  0  # atno 17370 bound_to 10713
  157.7199  131.0688  150.6177 LP  0  0  0  0  0  0  0  0  0  0  0  0  # atno 17371 bound_to 10713
  141.2055  133.6647  156.6184 LP  0  0  0  0  0  0  0  0  0  0  0  0  # atno 17394 bound_to 11000
  140.3453  134.7815  157.4427 LP  0  0  0  0  0  0  0  0  0  0  0  0  # atno 17395 bound_to 11000

$$$$
