AV-unprocessed.smi:2001|AV-procd|sdf|8103|dock7
  -GOLD-   2272010323D 1   1.00000     0.00000
 Structure written by MMmdl.
 50 51  0  0  0  0  0  0  0  0  1 V2000
  146.3175  127.1867  154.6862 C   0  0  0  0  0  0  0  0  0  0  0  0
  146.2632  127.5355  153.3138 O   0  0  0  0  0  0  0  0  0  0  0  0
  146.8504  128.7987  153.0516 C   0  0  0  0  0  0  0  0  0  0  0  0
  145.9340  129.5865  152.1028 C   0  0  0  0  0  0  0  0  0  0  0  0
  146.2974  131.0065  152.0581 N   0  0  0  0  0  0  0  0  0  0  0  0
  147.4005  131.3322  152.8299 N   0  0  0  0  0  0  0  0  0  0  0  0
  147.8194  132.5555  152.8817 C   0  0  0  0  0  0  0  0  0  0  0  0
  149.0049  132.9471  153.6935 C   0  0  0  0  0  0  0  0  0  0  0  0
  149.7138  132.1102  154.2553 O   0  0  0  0  0  0  0  0  0  0  0  0
  149.2407  134.2692  153.7698 N   0  0  0  0  0  0  0  0  0  0  0  0
  150.3306  134.8832  154.5171 C   0  0  0  0  0  0  0  0  0  0  0  0
  149.7969  135.7411  155.6790 C   0  0  0  0  0  0  0  0  0  0  0  0
  150.1928  137.1473  155.6349 N   0  0  0  0  0  0  0  0  0  0  0  0
  149.1799  137.9549  154.9673 C   0  0  0  0  0  0  0  0  0  0  0  0
  149.5548  139.4476  154.9490 C   0  0  2  0  0  0  0  0  0  0  0  0
  148.5308  140.2897  154.1807 C   0  0  0  0  0  0  0  0  0  0  0  0
  150.8239  139.6078  154.3183 O   0  0  0  0  0  0  0  0  0  0  0  0
  151.8838  138.8291  154.8761 C   0  0  1  0  0  0  0  0  0  0  0  0
  152.3680  139.4030  156.2184 C   0  0  0  0  0  0  0  0  0  0  0  0
  151.4745  137.3446  154.9601 C   0  0  0  0  0  0  0  0  0  0  0  0
  147.1432  133.6055  152.1387 C   0  0  0  0  0  0  0  0  0  0  0  0
  146.0689  133.2724  151.3902 C   0  0  0  0  0  0  0  0  0  0  0  0
  145.5749  131.8969  151.3134 C   0  0  0  0  0  0  0  0  0  0  0  0
  144.5965  131.5697  150.6426 O   0  0  0  0  0  0  0  0  0  0  0  0
  145.8591  126.2089  154.8344 H   0  0  0  0  0  0  0  0  0  0  0  0
  145.7747  127.9083  155.2981 H   0  0  0  0  0  0  0  0  0  0  0  0
  147.3482  127.1326  155.0394 H   0  0  0  0  0  0  0  0  0  0  0  0
  146.9889  129.3440  153.9865 H   0  0  0  0  0  0  0  0  0  0  0  0
  147.8340  128.6648  152.5986 H   0  0  0  0  0  0  0  0  0  0  0  0
  145.9939  129.1556  151.1016 H   0  0  0  0  0  0  0  0  0  0  0  0
  144.8921  129.4704  152.4066 H   0  0  0  0  0  0  0  0  0  0  0  0
  148.6144  134.8916  153.2795 H   0  0  0  0  0  0  0  0  0  0  0  0
  150.9657  134.0872  154.9063 H   0  0  0  0  0  0  0  0  0  0  0  0
  150.9486  135.4691  153.8361 H   0  0  0  0  0  0  0  0  0  0  0  0
  148.7089  135.6684  155.7246 H   0  0  0  0  0  0  0  0  0  0  0  0
  150.1648  135.3015  156.6073 H   0  0  0  0  0  0  0  0  0  0  0  0
  149.0394  137.5999  153.9448 H   0  0  0  0  0  0  0  0  0  0  0  0
  148.2207  137.8342  155.4727 H   0  0  0  0  0  0  0  0  0  0  0  0
  149.6084  139.8221  155.9716 H   0  0  0  0  0  0  0  0  0  0  0  0
  147.5410  140.2092  154.6304 H   0  0  0  0  0  0  0  0  0  0  0  0
  148.4547  139.9678  153.1417 H   0  0  0  0  0  0  0  0  0  0  0  0
  148.8121  141.3431  154.1834 H   0  0  0  0  0  0  0  0  0  0  0  0
  152.7186  138.9063  154.1791 H   0  0  0  0  0  0  0  0  0  0  0  0
  153.2494  138.8682  156.5728 H   0  0  0  0  0  0  0  0  0  0  0  0
  151.6077  139.3273  156.9956 H   0  0  0  0  0  0  0  0  0  0  0  0
  152.6387  140.4541  156.1166 H   0  0  0  0  0  0  0  0  0  0  0  0
  152.2647  136.7909  155.4655 H   0  0  0  0  0  0  0  0  0  0  0  0
  151.4152  136.9394  153.9486 H   0  0  0  0  0  0  0  0  0  0  0  0
  147.4859  134.6293  152.1764 H   0  0  0  0  0  0  0  0  0  0  0  0
  145.5576  134.0423  150.8311 H   0  0  0  0  0  0  0  0  0  0  0  0
  1  2  1  0  0  0  0
  1 25  1  0  0  0  0
  1 26  1  0  0  0  0
  1 27  1  0  0  0  0
  2  3  1  0  0  0  0
  3  4  1  0  0  0  0
  3 28  1  0  0  0  0
  3 29  1  0  0  0  0
  4  5  1  0  0  0  0
  4 30  1  0  0  0  0
  4 31  1  0  0  0  0
  5 23  1  0  0  0  0
  5  6  1  0  0  0  0
  6  7  2  0  0  0  0
  7  8  1  0  0  0  0
  7 21  1  0  0  0  0
  8  9  2  0  0  0  0
  8 10  1  0  0  0  0
 10 11  1  0  0  0  0
 10 32  1  0  0  0  0
 11 12  1  0  0  0  0
 11 33  1  0  0  0  0
 11 34  1  0  0  0  0
 12 13  1  0  0  0  0
 12 35  1  0  0  0  0
 12 36  1  0  0  0  0
 13 20  1  0  0  0  0
 13 14  1  0  0  0  0
 14 15  1  0  0  0  0
 14 37  1  0  0  0  0
 14 38  1  0  0  0  0
 15 16  1  0  0  0  0
 15 17  1  0  0  0  0
 15 39  1  0  0  0  0
 16 40  1  0  0  0  0
 16 41  1  0  0  0  0
 16 42  1  0  0  0  0
 17 18  1  0  0  0  0
 18 19  1  0  0  0  0
 18 20  1  0  0  0  0
 18 43  1  0  0  0  0
 19 44  1  0  0  0  0
 19 45  1  0  0  0  0
 19 46  1  0  0  0  0
 20 47  1  0  0  0  0
 20 48  1  0  0  0  0
 21 22  2  0  0  0  0
 21 49  1  0  0  0  0
 22 23  1  0  0  0  0
 22 50  1  0  0  0  0
 23 24  2  0  0  0  0
M  END
> <s_m_source_file>
AV-unprocessed.smi

> <i_m_source_file_index>
2001

> <i_lp_mmshare_version>
43012

> <i_f3d_flags>
0

> <s_epik_input>
W0NIM11PW0NIMl1bQ0gyXW4xbmMoW2NIXVtjSF1jMT1PKUMoPU8pW05IXVtDSDJdW0NIMl1OMltDSDJdW0NAQEhdKFtDSDNdKU9bQ0BASF0oW0NIM10pW0NIMl0y

> <s_epik_cmdline>
J2VwaWtfcHl0aG9uJywgJy1waCcsICc3LjAnLCAnLXRuJywgJzgnLCAnLW1hJywgJzIwMCcsICctbWV0YWxfYmluZGluZycsICctaW1hZScsICc8aW5maWxlLm1hZT4nLCAnLW9tYWUnLCAnPG91dGZpbGUubWFlPic=

> <r_lp_tautomer_probability>
1

> <r_epik_Ionization_Penalty>
0.206669

> <r_epik_Ionization_Penalty_Charging>
5.55992e-09

> <r_epik_Ionization_Penalty_Neutral>
0.206669

> <r_epik_State_Penalty>
0.196651

> <r_epik_Charging_Adjusted_Penalty>
0.196651

> <i_epik_Tot_Q>
0

> <i_epik_Tot_abs_Q>
0

> <r_epik_Metal_State_Penalty>
0.198372

> <b_epik_Metal_Only>
0

> <s_lp_Force_Field>
OPLS_2005

> <r_lp_Energy>
40.7423

> <b_lp_Chiralities_Consistent>
1

> <s_lp_Variant>
AV-unprocessed.smi:2001-2

> <Gold.Version>
5.8.1

> <Gold.Id.Protein>
6NUR|6NUR_protein|mol2

> <Gold.PLP.Fitness>
42.4233

> <Gold.PLP.PLP>
-40.1445

> <Gold.PLP.part.hbond>
-2.4359

> <Gold.PLP.part.metal>
0.0000

> <Gold.PLP.part.buried>
-4.6844

> <Gold.PLP.part.nonpolar>
-33.3951

> <Gold.PLP.part.repulsive>
0.5462

> <Gold.PLP.ligand.clash>
0.4098

> <Gold.PLP.ligand.torsion>
1.2055

> <Gold.PLP.Chemscore.Hbond>
1.6240

> <Gold.PLP.Chemscore.CHOScore>
0.0000

> <Gold.PLP.Chemscore.Metal>
0.0000

> <Gold.Chemscore.Hbonds>
donor molecule, donor type, donor heavy atom, donor atom, acceptor molecule, acceptor atom, score
      L1  H    10    32       P1  7948  0.59
      P1  H  7989  7998       L1    17  1.00

> <Gold.PLP.Chemscore.Internal.Correction>
0.2276

> <Gold.Rescore>
     Score         DG    S(hbond)    S(metal)    S(lipo)     H(rot)  DE(clash)    DE(int)     intcor
     13.37     -14.74       1.44        0.00      81.99       2.00       0.24       1.13       ----

> <Gold.Chemscore.Fitness>
13.3719

> <Gold.Chemscore.DG>
-14.7431

> <Gold.Chemscore.ZeroCoef>
-5.4800

> <Gold.Chemscore.Hbond>
1.4357

> <Gold.Chemscore.Metal>
0.0000

> <Gold.Chemscore.Lipo>
81.9913

> <Gold.Chemscore.Internal_Hbond>
0.0000

> <Gold.Chemscore.DEClash>
0.2387

> <Gold.Chemscore.DEInternal>
1.1325

> <Gold.Chemscore.Rot>
2.0020

> <Gold.Chemscore.Internal.Correction>
   9.000000E+99

> <Gold.Chemscore.Hbonds>
donor molecule, donor type, donor heavy atom, donor atom, acceptor molecule, acceptor atom, score
      L1  H    10    32       P1  7948  0.36
      P1  H  7989  7998       L1    17  0.45

> <Gold.Chemscore.Hbond.Weighted>
-4.7953

> <Gold.Chemscore.Metal.Weighted>
-0.0000

> <Gold.Chemscore.Lipo.Weighted>
-9.5930

> <Gold.Chemscore.Internal_Hbond.Weighted>
0.0000

> <Gold.Chemscore.DEClash.Weighted>
0.2387

> <Gold.Chemscore.DEInternal.Weighted>
1.1325

> <Gold.Chemscore.Rot.Weighted>
5.1252

> <Gold.Chemscore.Internal.Correction.Weighted>
   9.000000E+99

> <Gold.Protein.RotatedTorsions>
[ 6907 6896 6895 6894 ] final  127.49 input  -60.11 | X-H torsion
[ 7974 7965 7964 7962 ] final -168.51 input  175.53 | X-H torsion
[ 8008 7997 7996 7995 ] final   17.97 input   59.86 | X-H torsion
[ 10167 10162 10161 10158 ] final  151.51 input  -65.29 | X-H torsion
[ 10718 10713 10712 10709 ] final  137.57 input   66.30 | X-H torsion
[ 10763 10752 10751 10750 ] final  -11.17 input  -60.55 | X-H torsion
[ 11005 11000 10999 10996 ] final   91.59 input  -57.11 | X-H torsion

> <Gold.Protein.ActiveResidues>
 VAL166  LYS551  ARG553  GLY616  TRP617  ASP618  TYR619  PRO620  LYS621  CYS622 
 ASP623  PHE694  ASN695  SER759  ASP760  ASP761  ALA762  ILE779  LEU786  VAL792 
 PHE793  MET794  SER795  GLU796  ALA797  LYS798  CYS799  TRP800  GLU811  SER814 

> <Gold.Protein.RotatedAtoms>
  152.3807  133.6542  159.6158 H   0  0  0  0  0  0  0  0  0  0  0  0  # atno 6907 bound_to 6896
  150.7739  133.9118  159.3380 H   0  0  0  0  0  0  0  0  0  0  0  0  # atno 6908 bound_to 6896
  151.6924  135.0945  160.0287 H   0  0  0  0  0  0  0  0  0  0  0  0  # atno 6909 bound_to 6896
  144.7202  140.2360  143.6298 H   0  0  0  0  0  0  0  0  0  0  0  0  # atno 7974 bound_to 7965
  154.8992  140.2998  155.5327 H   0  0  0  0  0  0  0  0  0  0  0  0  # atno 8008 bound_to 7997
  156.3019  140.2410  156.3952 H   0  0  0  0  0  0  0  0  0  0  0  0  # atno 8009 bound_to 7997
  154.8539  140.0408  157.1610 H   0  0  0  0  0  0  0  0  0  0  0  0  # atno 8010 bound_to 7997
  139.4840  144.5435  151.7525 H   0  0  0  0  0  0  0  0  0  0  0  0  # atno 10167 bound_to 10162
  157.4347  131.1052  151.0211 H   0  0  0  0  0  0  0  0  0  0  0  0  # atno 10718 bound_to 10713
  153.4798  135.7017  153.5944 H   0  0  0  0  0  0  0  0  0  0  0  0  # atno 10763 bound_to 10752
  153.4163  135.3836  155.2082 H   0  0  0  0  0  0  0  0  0  0  0  0  # atno 10764 bound_to 10752
  154.8722  135.3916  154.4246 H   0  0  0  0  0  0  0  0  0  0  0  0  # atno 10765 bound_to 10752
  139.8836  134.8683  156.3450 H   0  0  0  0  0  0  0  0  0  0  0  0  # atno 11005 bound_to 11000
  145.8365  139.2110  143.1852 LP  0  0  0  0  0  0  0  0  0  0  0  0  # atno 17320 bound_to 7965
  146.0384  140.8189  142.9841 LP  0  0  0  0  0  0  0  0  0  0  0  0  # atno 17321 bound_to 7965
  140.4978  144.1215  150.5964 LP  0  0  0  0  0  0  0  0  0  0  0  0  # atno 17342 bound_to 10162
  140.4098  143.2662  151.9847 LP  0  0  0  0  0  0  0  0  0  0  0  0  # atno 17343 bound_to 10162
  157.1095  130.6015  149.5478 LP  0  0  0  0  0  0  0  0  0  0  0  0  # atno 17370 bound_to 10713
  155.9926  130.4984  150.7346 LP  0  0  0  0  0  0  0  0  0  0  0  0  # atno 17371 bound_to 10713
  140.9633  133.7374  156.0431 LP  0  0  0  0  0  0  0  0  0  0  0  0  # atno 17394 bound_to 11000
  140.7962  134.3561  157.5451 LP  0  0  0  0  0  0  0  0  0  0  0  0  # atno 17395 bound_to 11000

$$$$
