AV-unprocessed.smi:570|AV-procd|sdf|2961|dock4
  -GOLD-   2262023463D 1   1.00000     0.00000
 Structure written by MMmdl.
 40 41  0  0  0  0  0  0  0  0  1 V2000
  143.6491  132.3541  150.3087 C   0  0  0  0  0  0  0  0  0  0  0  0
  144.7080  133.2828  150.4627 O   0  0  0  0  0  0  0  0  0  0  0  0
  145.9838  132.6728  150.3655 C   0  0  0  0  0  0  0  0  0  0  0  0
  147.0017  133.5318  151.1235 C   0  0  0  0  0  0  0  0  0  0  0  0
  146.7313  133.5694  152.6362 C   0  0  0  0  0  0  0  0  0  0  0  0
  147.9050  134.0189  153.3745 N   0  0  0  0  0  0  0  0  0  0  0  0
  148.5247  133.3195  154.3385 C   0  0  0  0  0  0  0  0  0  0  0  0
  148.1564  132.2070  154.7175 O   0  0  0  0  0  0  0  0  0  0  0  0
  149.6684  134.0192  155.0145 C   0  0  0  0  0  0  0  0  0  0  0  0
  149.7745  135.3487  154.7875 N   0  0  0  0  0  0  0  0  0  0  0  0
  150.7772  136.0211  155.3655 C   0  0  0  0  0  0  0  0  0  0  0  0
  150.8708  137.3945  155.1059 N   0  0  0  0  0  0  0  0  0  0  0  0
  149.8307  138.1160  154.3679 C   0  0  0  0  0  0  0  0  0  0  0  0
  149.7426  139.5797  154.8328 C   0  0  0  0  0  0  0  0  0  0  0  0
  151.0178  140.1990  154.7226 O   0  0  0  0  0  0  0  0  0  0  0  0
  151.9807  139.5601  155.5514 C   0  0  0  0  0  0  0  0  0  0  0  0
  152.1571  138.0969  155.1116 C   0  0  0  0  0  0  0  0  0  0  0  0
  151.6969  135.4755  156.1706 N   0  0  0  0  0  0  0  0  0  0  0  0
  151.6046  134.1541  156.4255 C   0  0  0  0  0  0  0  0  0  0  0  0
  150.5881  133.3551  155.8673 C   0  0  0  0  0  0  0  0  0  0  0  0
  150.4997  131.6730  156.2658 Cl  0  0  0  0  0  0  0  0  0  0  0  0
  142.6932  132.8710  150.3921 H   0  0  0  0  0  0  0  0  0  0  0  0
  143.6843  131.5847  151.0810 H   0  0  0  0  0  0  0  0  0  0  0  0
  143.6861  131.8717  149.3312 H   0  0  0  0  0  0  0  0  0  0  0  0
  145.9513  131.6682  150.7905 H   0  0  0  0  0  0  0  0  0  0  0  0
  146.2751  132.5803  149.3179 H   0  0  0  0  0  0  0  0  0  0  0  0
  148.0055  133.1454  150.9418 H   0  0  0  0  0  0  0  0  0  0  0  0
  146.9832  134.5449  150.7191 H   0  0  0  0  0  0  0  0  0  0  0  0
  145.8778  134.2126  152.8582 H   0  0  0  0  0  0  0  0  0  0  0  0
  146.4694  132.5726  152.9920 H   0  0  0  0  0  0  0  0  0  0  0  0
  148.2680  134.9332  153.1465 H   0  0  0  0  0  0  0  0  0  0  0  0
  150.0653  138.0741  153.3037 H   0  0  0  0  0  0  0  0  0  0  0  0
  148.8488  137.6608  154.4935 H   0  0  0  0  0  0  0  0  0  0  0  0
  149.0295  140.1259  154.2152 H   0  0  0  0  0  0  0  0  0  0  0  0
  149.3832  139.6400  155.8615 H   0  0  0  0  0  0  0  0  0  0  0  0
  152.9282  140.0929  155.4686 H   0  0  0  0  0  0  0  0  0  0  0  0
  151.6740  139.6176  156.5972 H   0  0  0  0  0  0  0  0  0  0  0  0
  152.8804  137.6271  155.7774 H   0  0  0  0  0  0  0  0  0  0  0  0
  152.5800  138.0566  154.1073 H   0  0  0  0  0  0  0  0  0  0  0  0
  152.3456  133.7324  157.0885 H   0  0  0  0  0  0  0  0  0  0  0  0
  1  2  1  0  0  0  0
  1 22  1  0  0  0  0
  1 23  1  0  0  0  0
  1 24  1  0  0  0  0
  2  3  1  0  0  0  0
  3  4  1  0  0  0  0
  3 25  1  0  0  0  0
  3 26  1  0  0  0  0
  4  5  1  0  0  0  0
  4 27  1  0  0  0  0
  4 28  1  0  0  0  0
  5  6  1  0  0  0  0
  5 29  1  0  0  0  0
  5 30  1  0  0  0  0
  6  7  1  0  0  0  0
  6 31  1  0  0  0  0
  7  8  2  0  0  0  0
  7  9  1  0  0  0  0
  9 20  1  0  0  0  0
  9 10  2  0  0  0  0
 10 11  1  0  0  0  0
 11 12  1  0  0  0  0
 11 18  2  0  0  0  0
 12 17  1  0  0  0  0
 12 13  1  0  0  0  0
 13 14  1  0  0  0  0
 13 32  1  0  0  0  0
 13 33  1  0  0  0  0
 14 15  1  0  0  0  0
 14 34  1  0  0  0  0
 14 35  1  0  0  0  0
 15 16  1  0  0  0  0
 16 17  1  0  0  0  0
 16 36  1  0  0  0  0
 16 37  1  0  0  0  0
 17 38  1  0  0  0  0
 17 39  1  0  0  0  0
 18 19  1  0  0  0  0
 19 20  2  0  0  0  0
 19 40  1  0  0  0  0
 20 21  1  0  0  0  0
M  END
> <s_m_source_file>
AV-unprocessed.smi

> <i_m_source_file_index>
570

> <i_lp_mmshare_version>
43012

> <i_f3d_flags>
0

> <s_epik_input>
W0NIM11PW0NIMl1bQ0gyXVtDSDJdW05IXUMoPU8pYzFuYyhuW2NIXWMxQ2wpTjJbQ0gyXVtDSDJdT1tDSDJdW0NIMl0y

> <s_epik_cmdline>
J2VwaWtfcHl0aG9uJywgJy1waCcsICc3LjAnLCAnLXRuJywgJzgnLCAnLW1hJywgJzIwMCcsICctbWV0YWxfYmluZGluZycsICctaW1hZScsICc8aW5maWxlLm1hZT4nLCAnLW9tYWUnLCAnPG91dGZpbGUubWFlPic=

> <r_lp_tautomer_probability>
1

> <r_epik_Ionization_Penalty>
2.32145e-05

> <r_epik_Ionization_Penalty_Charging>
0

> <r_epik_Ionization_Penalty_Neutral>
2.32145e-05

> <r_epik_State_Penalty>
-0

> <r_epik_Charging_Adjusted_Penalty>
0

> <i_epik_Tot_Q>
0

> <i_epik_Tot_abs_Q>
0

> <r_epik_Metal_State_Penalty>
0.0219249

> <b_epik_Metal_Only>
0

> <s_lp_Force_Field>
OPLS_2005

> <r_lp_Energy>
13.2289

> <b_lp_Chiralities_Consistent>
1

> <s_lp_Variant>
AV-unprocessed.smi:570-1

> <Gold.Version>
5.8.1

> <Gold.Id.Protein>
6NUR|6NUR_protein|mol2

> <Gold.PLP.Fitness>
43.4532

> <Gold.PLP.PLP>
-35.2786

> <Gold.PLP.part.hbond>
-2.9549

> <Gold.PLP.part.metal>
0.0000

> <Gold.PLP.part.buried>
-5.7427

> <Gold.PLP.part.nonpolar>
-26.9784

> <Gold.PLP.part.repulsive>
0.5430

> <Gold.PLP.ligand.clash>
0.0000

> <Gold.PLP.ligand.torsion>
0.5130

> <Gold.PLP.Chemscore.Hbond>
3.0000

> <Gold.PLP.Chemscore.CHOScore>
0.0000

> <Gold.PLP.Chemscore.Metal>
0.0000

> <Gold.Chemscore.Hbonds>
donor molecule, donor type, donor heavy atom, donor atom, acceptor molecule, acceptor atom, score
      L1  H     6    31       P1  7948  1.00
      P1  H  7989  7998       L1    15  0.99
      P1  H 10752 10764       L1    18  0.95

> <Gold.PLP.Chemscore.Internal.Correction>
0.2006

> <Gold.Rescore>
     Score         DG    S(hbond)    S(metal)    S(lipo)     H(rot)  DE(clash)    DE(int)     intcor
     14.69     -16.55       1.84        0.00      77.69       1.63       0.08       1.78       ----

> <Gold.Chemscore.Fitness>
14.6918

> <Gold.Chemscore.DG>
-16.5536

> <Gold.Chemscore.ZeroCoef>
-5.4800

> <Gold.Chemscore.Hbond>
1.8440

> <Gold.Chemscore.Metal>
0.0000

> <Gold.Chemscore.Lipo>
77.6874

> <Gold.Chemscore.Internal_Hbond>
0.0000

> <Gold.Chemscore.DEClash>
0.0799

> <Gold.Chemscore.DEInternal>
1.7819

> <Gold.Chemscore.Rot>
1.6308

> <Gold.Chemscore.Internal.Correction>
   9.000000E+99

> <Gold.Chemscore.Hbonds>
donor molecule, donor type, donor heavy atom, donor atom, acceptor molecule, acceptor atom, score
      L1  H     6    31       P1  7948  0.80
      P1  H  7989  7998       L1    15  0.79
      P1  H 10752 10764       L1    18  0.06

> <Gold.Chemscore.Hbond.Weighted>
-6.1591

> <Gold.Chemscore.Metal.Weighted>
-0.0000

> <Gold.Chemscore.Lipo.Weighted>
-9.0894

> <Gold.Chemscore.Internal_Hbond.Weighted>
0.0000

> <Gold.Chemscore.DEClash.Weighted>
0.0799

> <Gold.Chemscore.DEInternal.Weighted>
1.7819

> <Gold.Chemscore.Rot.Weighted>
4.1749

> <Gold.Chemscore.Internal.Correction.Weighted>
   9.000000E+99

> <Gold.Protein.RotatedTorsions>
[ 6907 6896 6895 6894 ] final   57.02 input  -60.11 | X-H torsion
[ 7974 7965 7964 7962 ] final  -59.38 input  175.53 | X-H torsion
[ 8008 7997 7996 7995 ] final  -80.75 input   59.86 | X-H torsion
[ 10167 10162 10161 10158 ] final  162.20 input  -65.29 | X-H torsion
[ 10718 10713 10712 10709 ] final -166.40 input   66.30 | X-H torsion
[ 10763 10752 10751 10750 ] final  -30.22 input  -60.55 | X-H torsion
[ 11005 11000 10999 10996 ] final   72.74 input  -57.11 | X-H torsion

> <Gold.Protein.ActiveResidues>
 VAL166  LYS551  ARG553  GLY616  TRP617  ASP618  TYR619  PRO620  LYS621  CYS622 
 ASP623  PHE694  ASN695  SER759  ASP760  ASP761  ALA762  ILE779  LEU786  VAL792 
 PHE793  MET794  SER795  GLU796  ALA797  LYS798  CYS799  TRP800  GLU811  SER814 

> <Gold.Protein.RotatedAtoms>
  152.3692  134.6759  160.0181 H   0  0  0  0  0  0  0  0  0  0  0  0  # atno 6907 bound_to 6896
  151.7057  133.3306  159.3286 H   0  0  0  0  0  0  0  0  0  0  0  0  # atno 6908 bound_to 6896
  150.7661  134.6511  159.6333 H   0  0  0  0  0  0  0  0  0  0  0  0  # atno 6909 bound_to 6896
  145.8282  140.8497  143.0097 H   0  0  0  0  0  0  0  0  0  0  0  0  # atno 7974 bound_to 7965
  154.5914  140.0658  156.9243 H   0  0  0  0  0  0  0  0  0  0  0  0  # atno 8008 bound_to 7997
  155.2289  140.3336  155.4287 H   0  0  0  0  0  0  0  0  0  0  0  0  # atno 8009 bound_to 7997
  156.2258  140.1818  156.7350 H   0  0  0  0  0  0  0  0  0  0  0  0  # atno 8010 bound_to 7997
  139.4858  144.4461  151.8889 H   0  0  0  0  0  0  0  0  0  0  0  0  # atno 10167 bound_to 10162
  156.6673  130.9070  151.3038 H   0  0  0  0  0  0  0  0  0  0  0  0  # atno 10718 bound_to 10713
  153.7773  135.6908  153.4895 H   0  0  0  0  0  0  0  0  0  0  0  0  # atno 10763 bound_to 10752
  153.1834  135.4498  155.0056 H   0  0  0  0  0  0  0  0  0  0  0  0  # atno 10764 bound_to 10752
  154.8095  135.3371  154.7279 H   0  0  0  0  0  0  0  0  0  0  0  0  # atno 10765 bound_to 10752
  139.9475  134.7286  156.0943 H   0  0  0  0  0  0  0  0  0  0  0  0  # atno 11005 bound_to 11000
  144.6742  140.0633  143.7475 LP  0  0  0  0  0  0  0  0  0  0  0  0  # atno 17320 bound_to 7965
  145.9600  139.2794  143.1161 LP  0  0  0  0  0  0  0  0  0  0  0  0  # atno 17321 bound_to 7965
  140.3916  144.2609  150.5899 LP  0  0  0  0  0  0  0  0  0  0  0  0  # atno 17342 bound_to 10162
  140.5141  143.2283  151.8490 LP  0  0  0  0  0  0  0  0  0  0  0  0  # atno 17343 bound_to 10162
  157.7089  130.9417  150.1023 LP  0  0  0  0  0  0  0  0  0  0  0  0  # atno 17370 bound_to 10713
  156.1965  130.3657  149.8842 LP  0  0  0  0  0  0  0  0  0  0  0  0  # atno 17371 bound_to 10713
  141.1129  133.6637  156.3024 LP  0  0  0  0  0  0  0  0  0  0  0  0  # atno 17394 bound_to 11000
  140.5799  134.5756  157.5477 LP  0  0  0  0  0  0  0  0  0  0  0  0  # atno 17395 bound_to 11000

$$$$
