AV-unprocessed.smi:2710|AV-procd|sdf|10464|dock2
  -GOLD-   2272014503D 1   1.00000     0.00000
 Structure written by MMmdl.
 53 54  0  0  0  0  0  0  0  0  2 V2000
  147.3498  128.0121  151.4398 C   0  0  0  0  0  0  0  0  0  0  0  0
  146.3904  129.1937  151.6578 C   0  0  0  0  0  0  0  0  0  0  0  0
  147.0855  130.4796  151.9577 N   0  3  2  0  0  0  0  0  0  0  0  0
  147.7042  130.4707  153.3152 C   0  0  0  0  0  0  0  0  0  0  0  0
  148.5209  131.7410  153.5893 C   0  0  0  0  0  0  0  0  0  0  0  0
  147.6470  132.9881  153.4389 C   0  0  1  0  0  0  0  0  0  0  0  0
  148.4469  134.1908  153.6527 N   0  0  0  0  0  0  0  0  0  0  0  0
  149.0352  134.5277  154.8095 C   0  0  0  0  0  0  0  0  0  0  0  0
  148.9598  133.8455  155.8311 O   0  0  0  0  0  0  0  0  0  0  0  0
  149.6842  135.6994  154.7030 N   0  0  0  0  0  0  0  0  0  0  0  0
  150.4456  136.3759  155.6931 C   0  0  0  0  0  0  0  0  0  0  0  0
  150.3552  135.9527  157.0342 C   0  0  0  0  0  0  0  0  0  0  0  0
  151.0410  136.5616  158.0240 N   0  0  0  0  0  0  0  0  0  0  0  0
  151.7905  137.6234  157.6992 C   0  0  0  0  0  0  0  0  0  0  0  0
  152.6839  138.2179  158.8020 C   0  0  0  0  0  0  0  0  0  0  0  0
  152.4061  139.7281  158.9885 C   0  0  0  0  0  0  0  0  0  0  0  0
  154.1635  138.0065  158.4324 C   0  0  0  0  0  0  0  0  0  0  0  0
  152.3943  137.5577  160.1710 C   0  0  0  0  0  0  0  0  0  0  0  0
  151.9670  138.0886  156.4556 N   0  0  0  0  0  0  0  0  0  0  0  0
  151.2888  137.4874  155.4551 C   0  0  0  0  0  0  0  0  0  0  0  0
  147.0241  132.9867  152.0357 C   0  0  0  0  0  0  0  0  0  0  0  0
  146.2284  131.6937  151.7513 C   0  0  1  0  0  0  0  0  0  0  0  0
  145.6349  131.7866  150.3299 C   0  0  0  0  0  0  0  0  0  0  0  0
  146.8051  127.1471  151.0606 H   0  0  0  0  0  0  0  0  0  0  0  0
  147.8366  127.6954  152.3615 H   0  0  0  0  0  0  0  0  0  0  0  0
  148.1226  128.2578  150.7108 H   0  0  0  0  0  0  0  0  0  0  0  0
  145.8163  129.2797  150.7382 H   0  0  0  0  0  0  0  0  0  0  0  0
  145.6766  128.9628  152.4498 H   0  0  0  0  0  0  0  0  0  0  0  0
  146.9238  130.3585  154.0696 H   0  0  0  0  0  0  0  0  0  0  0  0
  148.3748  129.6208  153.4281 H   0  0  0  0  0  0  0  0  0  0  0  0
  148.9403  131.6974  154.5953 H   0  0  0  0  0  0  0  0  0  0  0  0
  149.3668  131.7874  152.9014 H   0  0  0  0  0  0  0  0  0  0  0  0
  146.8525  132.9459  154.1870 H   0  0  0  0  0  0  0  0  0  0  0  0
  148.5585  134.8126  152.8651 H   0  0  0  0  0  0  0  0  0  0  0  0
  149.5884  136.1858  153.8235 H   0  0  0  0  0  0  0  0  0  0  0  0
  149.7368  135.1131  157.3164 H   0  0  0  0  0  0  0  0  0  0  0  0
  153.0025  140.1441  159.8014 H   0  0  0  0  0  0  0  0  0  0  0  0
  151.3572  139.9129  159.2241 H   0  0  0  0  0  0  0  0  0  0  0  0
  152.6502  140.3027  158.0943 H   0  0  0  0  0  0  0  0  0  0  0  0
  154.4087  138.4934  157.4879 H   0  0  0  0  0  0  0  0  0  0  0  0
  154.3976  136.9466  158.3257 H   0  0  0  0  0  0  0  0  0  0  0  0
  154.8272  138.4150  159.1951 H   0  0  0  0  0  0  0  0  0  0  0  0
  152.9911  138.0096  160.9641 H   0  0  0  0  0  0  0  0  0  0  0  0
  152.6298  136.4929  160.1695 H   0  0  0  0  0  0  0  0  0  0  0  0
  151.3450  137.6643  160.4496 H   0  0  0  0  0  0  0  0  0  0  0  0
  151.4248  137.9195  154.4762 H   0  0  0  0  0  0  0  0  0  0  0  0
  146.3676  133.8519  151.9294 H   0  0  0  0  0  0  0  0  0  0  0  0
  147.8088  133.1050  151.2864 H   0  0  0  0  0  0  0  0  0  0  0  0
  145.3996  131.6430  152.4597 H   0  0  0  0  0  0  0  0  0  0  0  0
  145.1559  132.7533  150.1707 H   0  0  0  0  0  0  0  0  0  0  0  0
  144.8635  131.0387  150.1505 H   0  0  0  0  0  0  0  0  0  0  0  0
  146.4064  131.6750  149.5674 H   0  0  0  0  0  0  0  0  0  0  0  0
  147.8433  130.5538  151.2940 H   0  0  0  0  0  0  0  0  0  0  0  0
  1  2  1  0  0  0  0
  1 24  1  0  0  0  0
  1 25  1  0  0  0  0
  1 26  1  0  0  0  0
  2  3  1  0  0  0  0
  2 27  1  0  0  0  0
  2 28  1  0  0  0  0
  3 22  1  0  0  0  0
  3  4  1  0  0  0  0
  3 53  1  0  0  0  0
  4  5  1  0  0  0  0
  4 29  1  0  0  0  0
  4 30  1  0  0  0  0
  5  6  1  0  0  0  0
  5 31  1  0  0  0  0
  5 32  1  0  0  0  0
  6  7  1  0  0  0  0
  6 21  1  0  0  0  0
  6 33  1  0  0  0  0
  7  8  1  0  0  0  0
  7 34  1  0  0  0  0
  8  9  2  0  0  0  0
  8 10  1  0  0  0  0
 10 11  1  0  0  0  0
 10 35  1  0  0  0  0
 11 20  1  0  0  0  0
 11 12  2  0  0  0  0
 12 13  1  0  0  0  0
 12 36  1  0  0  0  0
 13 14  2  0  0  0  0
 14 15  1  0  0  0  0
 14 19  1  0  0  0  0
 15 16  1  0  0  0  0
 15 17  1  0  0  0  0
 15 18  1  0  0  0  0
 16 37  1  0  0  0  0
 16 38  1  0  0  0  0
 16 39  1  0  0  0  0
 17 40  1  0  0  0  0
 17 41  1  0  0  0  0
 17 42  1  0  0  0  0
 18 43  1  0  0  0  0
 18 44  1  0  0  0  0
 18 45  1  0  0  0  0
 19 20  2  0  0  0  0
 20 46  1  0  0  0  0
 21 22  1  0  0  0  0
 21 47  1  0  0  0  0
 21 48  1  0  0  0  0
 22 23  1  0  0  0  0
 22 49  1  0  0  0  0
 23 50  1  0  0  0  0
 23 51  1  0  0  0  0
 23 52  1  0  0  0  0
M  CHG  1   3   1
M  END
> <s_m_source_file>
AV-unprocessed.smi

> <i_m_source_file_index>
2710

> <i_lp_mmshare_version>
43012

> <i_f3d_flags>
0

> <s_epik_input>
W0NIM11bQ0gyXU4xW0NIMl1bQ0gyXVtDQEhdKFtDSDJdW0NASF0xW0NIM10pW05IXUMoPU8pW05IXWMyW2NIXW5jKEMoW0NIM10pKFtDSDNdKVtDSDNdKW5bY0hdMg==

> <s_epik_cmdline>
J2VwaWtfcHl0aG9uJywgJy1waCcsICc3LjAnLCAnLXRuJywgJzgnLCAnLW1hJywgJzIwMCcsICctbWV0YWxfYmluZGluZycsICctaW1hZScsICc8aW5maWxlLm1hZT4nLCAnLW9tYWUnLCAnPG91dGZpbGUubWFlPic=

> <r_lp_tautomer_probability>
1

> <r_epik_Ionization_Penalty>
0.00396003

> <r_epik_Ionization_Penalty_Charging>
0.0039379

> <r_epik_Ionization_Penalty_Neutral>
2.21316e-05

> <r_epik_State_Penalty>
0.00281651

> <r_epik_Charging_Adjusted_Penalty>
0.00675441

> <i_epik_Tot_Q>
1

> <i_epik_Tot_abs_Q>
1

> <r_epik_Metal_State_Penalty>
-0

> <b_epik_Metal_Only>
0

> <s_lp_Force_Field>
OPLS_2005

> <r_lp_Energy>
20.3539

> <b_lp_Chiralities_Consistent>
1

> <s_lp_Variant>
AV-unprocessed.smi:2710-1

> <Gold.Version>
5.8.1

> <Gold.Id.Protein>
6NUR|6NUR_protein|mol2

> <Gold.PLP.Fitness>
46.6263

> <Gold.PLP.PLP>
-37.4740

> <Gold.PLP.part.hbond>
-3.8335

> <Gold.PLP.part.metal>
0.0000

> <Gold.PLP.part.buried>
-5.3194

> <Gold.PLP.part.nonpolar>
-28.6849

> <Gold.PLP.part.repulsive>
0.0797

> <Gold.PLP.ligand.clash>
0.0000

> <Gold.PLP.ligand.torsion>
0.2382

> <Gold.PLP.Chemscore.Hbond>
3.1581

> <Gold.PLP.Chemscore.CHOScore>
0.0000

> <Gold.PLP.Chemscore.Metal>
0.0000

> <Gold.Chemscore.Hbonds>
donor molecule, donor type, donor heavy atom, donor atom, acceptor molecule, acceptor atom, score
      L1  H     3    53       P1 10747  1.00
      L1  H     7    34       P1  7948  1.00
      L1  H    10    35       P1  7948  1.00
      P1  H  6896  6908       L1    13  0.16

> <Gold.PLP.Chemscore.Internal.Correction>
0.1544

> <Gold.Rescore>
     Score         DG    S(hbond)    S(metal)    S(lipo)     H(rot)  DE(clash)    DE(int)     intcor
     19.56     -21.20       2.43        0.00      93.47       1.31       0.00       1.64       ----

> <Gold.Chemscore.Fitness>
19.5600

> <Gold.Chemscore.DG>
-21.1973

> <Gold.Chemscore.ZeroCoef>
-5.4800

> <Gold.Chemscore.Hbond>
2.4343

> <Gold.Chemscore.Metal>
0.0000

> <Gold.Chemscore.Lipo>
93.4667

> <Gold.Chemscore.Internal_Hbond>
0.0000

> <Gold.Chemscore.DEClash>
0.0015

> <Gold.Chemscore.DEInternal>
1.6358

> <Gold.Chemscore.Rot>
1.3081

> <Gold.Chemscore.Internal.Correction>
   9.000000E+99

> <Gold.Chemscore.Hbonds>
donor molecule, donor type, donor heavy atom, donor atom, acceptor molecule, acceptor atom, score
      L1  H     3    53       P1 10747  0.94
      L1  H     7    34       P1  7948  0.35
      L1  H    10    35       P1  7948  0.49
      P1  H  6896  6908       L1    13  0.07

> <Gold.Chemscore.Hbond.Weighted>
-8.1305

> <Gold.Chemscore.Metal.Weighted>
-0.0000

> <Gold.Chemscore.Lipo.Weighted>
-10.9356

> <Gold.Chemscore.Internal_Hbond.Weighted>
0.0000

> <Gold.Chemscore.DEClash.Weighted>
0.0015

> <Gold.Chemscore.DEInternal.Weighted>
1.6358

> <Gold.Chemscore.Rot.Weighted>
3.3488

> <Gold.Chemscore.Internal.Correction.Weighted>
   9.000000E+99

> <Gold.Protein.RotatedTorsions>
[ 6907 6896 6895 6894 ] final -155.16 input  -60.11 | X-H torsion
[ 7974 7965 7964 7962 ] final -149.73 input  175.53 | X-H torsion
[ 8008 7997 7996 7995 ] final  155.23 input   59.86 | X-H torsion
[ 10167 10162 10161 10158 ] final   71.99 input  -65.29 | X-H torsion
[ 10718 10713 10712 10709 ] final   16.11 input   66.30 | X-H torsion
[ 10763 10752 10751 10750 ] final  124.70 input  -60.55 | X-H torsion
[ 11005 11000 10999 10996 ] final  -44.69 input  -57.11 | X-H torsion

> <Gold.Protein.ActiveResidues>
 VAL166  LYS551  ARG553  GLY616  TRP617  ASP618  TYR619  PRO620  LYS621  CYS622 
 ASP623  PHE694  ASN695  SER759  ASP760  ASP761  ALA762  ILE779  LEU786  VAL792 
 PHE793  MET794  SER795  GLU796  ALA797  LYS798  CYS799  TRP800  GLU811  SER814 

> <Gold.Protein.RotatedAtoms>
  151.2684  133.4267  159.2619 H   0  0  0  0  0  0  0  0  0  0  0  0  # atno 6907 bound_to 6896
  151.0467  134.9645  159.8200 H   0  0  0  0  0  0  0  0  0  0  0  0  # atno 6908 bound_to 6896
  152.5375  134.2640  159.8998 H   0  0  0  0  0  0  0  0  0  0  0  0  # atno 6909 bound_to 6896
  144.7950  140.5026  143.5747 H   0  0  0  0  0  0  0  0  0  0  0  0  # atno 7974 bound_to 7965
  156.2489  140.1945  156.6769 H   0  0  0  0  0  0  0  0  0  0  0  0  # atno 8008 bound_to 7997
  154.6351  140.0591  156.9805 H   0  0  0  0  0  0  0  0  0  0  0  0  # atno 8009 bound_to 7997
  155.1650  140.3263  155.4406 H   0  0  0  0  0  0  0  0  0  0  0  0  # atno 8010 bound_to 7997
  140.0401  144.5396  150.7440 H   0  0  0  0  0  0  0  0  0  0  0  0  # atno 10167 bound_to 10162
  157.0632  130.6317  149.5790 H   0  0  0  0  0  0  0  0  0  0  0  0  # atno 10718 bound_to 10713
  153.6655  135.3339  155.3139 H   0  0  0  0  0  0  0  0  0  0  0  0  # atno 10763 bound_to 10752
  154.8504  135.4374  154.1760 H   0  0  0  0  0  0  0  0  0  0  0  0  # atno 10764 bound_to 10752
  153.2737  135.7002  153.7530 H   0  0  0  0  0  0  0  0  0  0  0  0  # atno 10765 bound_to 10752
  141.0467  133.6758  156.2907 H   0  0  0  0  0  0  0  0  0  0  0  0  # atno 11005 bound_to 11000
  145.5697  139.1483  143.3295 LP  0  0  0  0  0  0  0  0  0  0  0  0  # atno 17320 bound_to 7965
  146.2215  140.5831  142.9015 LP  0  0  0  0  0  0  0  0  0  0  0  0  # atno 17321 bound_to 7965
  140.7264  143.2640  151.4106 LP  0  0  0  0  0  0  0  0  0  0  0  0  # atno 17342 bound_to 10162
  139.6019  144.1277  152.2207 LP  0  0  0  0  0  0  0  0  0  0  0  0  # atno 17343 bound_to 10162
  155.9972  130.5043  150.7526 LP  0  0  0  0  0  0  0  0  0  0  0  0  # atno 17370 bound_to 10713
  157.4938  131.0913  151.0396 LP  0  0  0  0  0  0  0  0  0  0  0  0  # atno 17371 bound_to 10713
  140.6134  134.5435  157.5537 LP  0  0  0  0  0  0  0  0  0  0  0  0  # atno 17394 bound_to 11000
  139.9317  134.7951  156.0913 LP  0  0  0  0  0  0  0  0  0  0  0  0  # atno 17395 bound_to 11000

$$$$
