AV-unprocessed.smi:1005|AV-procd|sdf|4370|dock3
  -GOLD-   22720 2283D 1   1.00000     0.00000
 Structure written by MMmdl.
 57 59  0  0  0  0  0  0  0  0  3 V2000
  151.7350  144.2017  158.9743 C   0  0  0  0  0  0  0  0  0  0  0  0
  152.5133  143.1579  159.7557 C   0  0  0  0  0  0  0  0  0  0  0  0
  153.0527  142.0467  159.0691 C   0  0  0  0  0  0  0  0  0  0  0  0
  153.7833  141.0540  159.7580 C   0  0  0  0  0  0  0  0  0  0  0  0
  154.4033  139.9069  159.2935 N   0  0  0  0  0  0  0  0  0  0  0  0
  154.9242  139.4097  160.4117 C   0  0  0  0  0  0  0  0  0  0  0  0
  154.7210  140.1046  161.5472 N   0  0  0  0  0  0  0  0  0  0  0  0
  155.2127  139.7752  162.8735 C   0  0  0  0  0  0  0  0  0  0  0  0
  155.8983  138.3932  162.9300 C   0  0  2  0  0  0  0  0  0  0  0  0
  154.9288  137.4493  163.3377 O   0  0  0  0  0  0  0  0  0  0  0  0
  157.0940  138.3440  163.9075 C   0  0  0  0  0  0  0  0  0  0  0  0
  156.7115  138.0515  165.3151 N   0  3  1  0  0  0  0  0  0  0  0  0
  157.8492  137.8768  166.2546 C   0  0  0  0  0  0  0  0  0  0  0  0
  158.4728  139.2297  166.6496 C   0  0  0  0  0  0  0  0  0  0  0  0
  157.4654  140.0955  167.1619 O   0  0  0  0  0  0  0  0  0  0  0  0
  156.4422  140.3693  166.2112 C   0  0  2  0  0  0  0  0  0  0  0  0
  155.4846  141.4023  166.8365 C   0  0  0  0  0  0  0  0  0  0  0  0
  156.0340  142.7838  166.8579 N   0  3  0  0  0  0  0  0  0  0  0  0
  156.2473  143.3130  165.4924 C   0  0  0  0  0  0  0  0  0  0  0  0
  155.2437  143.7258  167.6855 C   0  0  0  0  0  0  0  0  0  0  0  0
  155.7438  139.0345  165.8623 C   0  0  0  0  0  0  0  0  0  0  0  0
  153.9569  141.2030  161.1647 C   0  0  0  0  0  0  0  0  0  0  0  0
  153.4195  142.3013  161.8601 C   0  0  0  0  0  0  0  0  0  0  0  0
  152.6993  143.2878  161.1553 C   0  0  0  0  0  0  0  0  0  0  0  0
  152.1321  144.4747  161.9138 C   0  0  0  0  0  0  0  0  0  0  0  0
  151.6600  143.9361  157.9194 H   0  0  0  0  0  0  0  0  0  0  0  0
  152.2253  145.1730  159.0403 H   0  0  0  0  0  0  0  0  0  0  0  0
  150.7222  144.2969  159.3669 H   0  0  0  0  0  0  0  0  0  0  0  0
  152.9113  141.9483  158.0027 H   0  0  0  0  0  0  0  0  0  0  0  0
  155.4954  138.4925  160.4039 H   0  0  0  0  0  0  0  0  0  0  0  0
  155.9071  140.5584  163.1818 H   0  0  0  0  0  0  0  0  0  0  0  0
  154.3751  139.8117  163.5718 H   0  0  0  0  0  0  0  0  0  0  0  0
  156.2227  138.1330  161.9230 H   0  0  0  0  0  0  0  0  0  0  0  0
  155.2933  136.9162  164.0281 H   0  0  0  0  0  0  0  0  0  0  0  0
  157.8204  137.6021  163.5817 H   0  0  0  0  0  0  0  0  0  0  0  0
  157.6041  139.3075  163.8680 H   0  0  0  0  0  0  0  0  0  0  0  0
  157.4704  137.3868  167.1525 H   0  0  0  0  0  0  0  0  0  0  0  0
  158.6060  137.2086  165.8473 H   0  0  0  0  0  0  0  0  0  0  0  0
  159.2283  139.0792  167.4206 H   0  0  0  0  0  0  0  0  0  0  0  0
  158.9803  139.6977  165.8051 H   0  0  0  0  0  0  0  0  0  0  0  0
  156.9110  140.8014  165.3275 H   0  0  0  0  0  0  0  0  0  0  0  0
  154.5507  141.3918  166.2723 H   0  0  0  0  0  0  0  0  0  0  0  0
  155.2282  141.1067  167.8551 H   0  0  0  0  0  0  0  0  0  0  0  0
  155.3019  143.4028  164.9557 H   0  0  0  0  0  0  0  0  0  0  0  0
  156.9050  142.6582  164.9198 H   0  0  0  0  0  0  0  0  0  0  0  0
  156.7154  144.2973  165.5278 H   0  0  0  0  0  0  0  0  0  0  0  0
  154.2153  143.7935  167.3286 H   0  0  0  0  0  0  0  0  0  0  0  0
  155.6790  144.7251  167.6505 H   0  0  0  0  0  0  0  0  0  0  0  0
  155.2252  143.4262  168.7327 H   0  0  0  0  0  0  0  0  0  0  0  0
  154.9279  139.1908  165.1559 H   0  0  0  0  0  0  0  0  0  0  0  0
  155.2921  138.6107  166.7600 H   0  0  0  0  0  0  0  0  0  0  0  0
  153.5640  142.3869  162.9267 H   0  0  0  0  0  0  0  0  0  0  0  0
  152.4242  144.4526  162.9640 H   0  0  0  0  0  0  0  0  0  0  0  0
  151.0429  144.4696  161.8677 H   0  0  0  0  0  0  0  0  0  0  0  0
  152.4925  145.4111  161.4877 H   0  0  0  0  0  0  0  0  0  0  0  0
  156.9514  142.7265  167.2765 H   0  0  0  0  0  0  0  0  0  0  0  0
  156.2280  137.1648  165.2776 H   0  0  0  0  0  0  0  0  0  0  0  0
  1  2  1  0  0  0  0
  1 26  1  0  0  0  0
  1 27  1  0  0  0  0
  1 28  1  0  0  0  0
  2 24  1  0  0  0  0
  2  3  2  0  0  0  0
  3  4  1  0  0  0  0
  3 29  1  0  0  0  0
  4 22  2  0  0  0  0
  4  5  1  0  0  0  0
  5  6  2  0  0  0  0
  6  7  1  0  0  0  0
  6 30  1  0  0  0  0
  7  8  1  0  0  0  0
  7 22  1  0  0  0  0
  8  9  1  0  0  0  0
  8 31  1  0  0  0  0
  8 32  1  0  0  0  0
  9 10  1  0  0  0  0
  9 11  1  0  0  0  0
  9 33  1  0  0  0  0
 10 34  1  0  0  0  0
 11 12  1  0  0  0  0
 11 35  1  0  0  0  0
 11 36  1  0  0  0  0
 12 21  1  0  0  0  0
 12 13  1  0  0  0  0
 12 57  1  0  0  0  0
 13 14  1  0  0  0  0
 13 37  1  0  0  0  0
 13 38  1  0  0  0  0
 14 15  1  0  0  0  0
 14 39  1  0  0  0  0
 14 40  1  0  0  0  0
 15 16  1  0  0  0  0
 16 17  1  0  0  0  0
 16 21  1  0  0  0  0
 16 41  1  0  0  0  0
 17 18  1  0  0  0  0
 17 42  1  0  0  0  0
 17 43  1  0  0  0  0
 18 19  1  0  0  0  0
 18 20  1  0  0  0  0
 18 56  1  0  0  0  0
 19 44  1  0  0  0  0
 19 45  1  0  0  0  0
 19 46  1  0  0  0  0
 20 47  1  0  0  0  0
 20 48  1  0  0  0  0
 20 49  1  0  0  0  0
 21 50  1  0  0  0  0
 21 51  1  0  0  0  0
 22 23  1  0  0  0  0
 23 24  2  0  0  0  0
 23 52  1  0  0  0  0
 24 25  1  0  0  0  0
 25 53  1  0  0  0  0
 25 54  1  0  0  0  0
 25 55  1  0  0  0  0
M  CHG  1  12   1
M  CHG  1  18   1
M  END
> <s_m_source_file>
AV-unprocessed.smi

> <i_m_source_file_index>
1005

> <i_lp_mmshare_version>
43012

> <i_f3d_flags>
0

> <s_epik_input>
W0NIM11jKFtjSF0xKWMoW0NIM10pW2NIXWMoYzEyKW4oW2NIXW4yKVtDSDJdW0NASF0oW09IXSlbQ0gyXU4zW0NIMl1bQ0gyXU9bQ0BIXShbQ0gyXTMpW0NIMl1OKFtDSDNdKVtDSDNd

> <s_epik_cmdline>
J2VwaWtfcHl0aG9uJywgJy1waCcsICc3LjAnLCAnLXRuJywgJzgnLCAnLW1hJywgJzIwMCcsICctbWV0YWxfYmluZGluZycsICctaW1hZScsICc8aW5maWxlLm1hZT4nLCAnLW9tYWUnLCAnPG91dGZpbGUubWFlPic=

> <r_epik_Ionization_Penalty>
1.0968

> <r_epik_Ionization_Penalty_Charging>
1.0096

> <r_epik_Ionization_Penalty_Neutral>
0.0871956

> <r_epik_State_Penalty>
1.31185

> <r_epik_Charging_Adjusted_Penalty>
2.32145

> <i_epik_Tot_Q>
2

> <i_epik_Tot_abs_Q>
2

> <r_epik_Metal_State_Penalty>
1.22442

> <b_epik_Metal_Only>
0

> <s_lp_Force_Field>
OPLS_2005

> <r_lp_Energy>
36.3086

> <b_lp_Chiralities_Consistent>
1

> <s_lp_Variant>
AV-unprocessed.smi:1005-9

> <Gold.Version>
5.8.1

> <Gold.Id.Protein>
6NUR|6NUR_protein|mol2

> <Gold.PLP.Fitness>
47.9602

> <Gold.PLP.PLP>
-46.6981

> <Gold.PLP.part.hbond>
-1.0000

> <Gold.PLP.part.metal>
0.0000

> <Gold.PLP.part.buried>
-4.3451

> <Gold.PLP.part.nonpolar>
-40.8032

> <Gold.PLP.part.repulsive>
0.0880

> <Gold.PLP.ligand.clash>
0.0000

> <Gold.PLP.ligand.torsion>
0.9512

> <Gold.PLP.Chemscore.Hbond>
1.0000

> <Gold.PLP.Chemscore.CHOScore>
0.0000

> <Gold.PLP.Chemscore.Metal>
0.0000

> <Gold.Chemscore.Hbonds>
donor molecule, donor type, donor heavy atom, donor atom, acceptor molecule, acceptor atom, score
      P1  H  7997  8008       L1     5  0.88

> <Gold.PLP.Chemscore.Internal.Correction>
0.1645

> <Gold.Rescore>
     Score         DG    S(hbond)    S(metal)    S(lipo)     H(rot)  DE(clash)    DE(int)     intcor
     16.64     -17.93       0.92        0.00     134.43       2.48       0.23       1.05       ----

> <Gold.Chemscore.Fitness>
16.6424

> <Gold.Chemscore.DG>
-17.9259

> <Gold.Chemscore.ZeroCoef>
-5.4800

> <Gold.Chemscore.Hbond>
0.9190

> <Gold.Chemscore.Metal>
0.0000

> <Gold.Chemscore.Lipo>
134.4342

> <Gold.Chemscore.Internal_Hbond>
0.0000

> <Gold.Chemscore.DEClash>
0.2331

> <Gold.Chemscore.DEInternal>
1.0504

> <Gold.Chemscore.Rot>
2.4814

> <Gold.Chemscore.Internal.Correction>
   9.000000E+99

> <Gold.Chemscore.Hbonds>
donor molecule, donor type, donor heavy atom, donor atom, acceptor molecule, acceptor atom, score
      P1  H  7997  8008       L1     5  0.74

> <Gold.Chemscore.Hbond.Weighted>
-3.0694

> <Gold.Chemscore.Metal.Weighted>
-0.0000

> <Gold.Chemscore.Lipo.Weighted>
-15.7288

> <Gold.Chemscore.Internal_Hbond.Weighted>
0.0000

> <Gold.Chemscore.DEClash.Weighted>
0.2331

> <Gold.Chemscore.DEInternal.Weighted>
1.0504

> <Gold.Chemscore.Rot.Weighted>
6.3524

> <Gold.Chemscore.Internal.Correction.Weighted>
   9.000000E+99

> <Gold.Protein.RotatedTorsions>
[ 6907 6896 6895 6894 ] final  -16.11 input  -60.11 | X-H torsion
[ 7974 7965 7964 7962 ] final  -31.06 input  175.53 | X-H torsion
[ 8008 7997 7996 7995 ] final -119.46 input   59.86 | X-H torsion
[ 10167 10162 10161 10158 ] final  167.30 input  -65.29 | X-H torsion
[ 10718 10713 10712 10709 ] final -165.90 input   66.30 | X-H torsion
[ 10763 10752 10751 10750 ] final   92.41 input  -60.55 | X-H torsion
[ 11005 11000 10999 10996 ] final   58.34 input  -57.11 | X-H torsion

> <Gold.Protein.ActiveResidues>
 VAL166  LYS551  ARG553  GLY616  TRP617  ASP618  TYR619  PRO620  LYS621  CYS622 
 ASP623  PHE694  ASN695  SER759  ASP760  ASP761  ALA762  ILE779  LEU786  VAL792 
 PHE793  MET794  SER795  GLU796  ALA797  LYS798  CYS799  TRP800  GLU811  SER814 

> <Gold.Protein.RotatedAtoms>
  151.3136  135.0800  159.9280 H   0  0  0  0  0  0  0  0  0  0  0  0  # atno 6907 bound_to 6896
  152.5272  133.9711  159.7772 H   0  0  0  0  0  0  0  0  0  0  0  0  # atno 6908 bound_to 6896
  151.0019  133.5996  159.2724 H   0  0  0  0  0  0  0  0  0  0  0  0  # atno 6909 bound_to 6896
  146.1096  140.5620  142.8784 H   0  0  0  0  0  0  0  0  0  0  0  0  # atno 7974 bound_to 7965
  155.1161  140.0398  157.2737 H   0  0  0  0  0  0  0  0  0  0  0  0  # atno 8008 bound_to 7997
  154.6648  140.2599  155.7044 H   0  0  0  0  0  0  0  0  0  0  0  0  # atno 8009 bound_to 7997
  156.2634  140.2809  156.1135 H   0  0  0  0  0  0  0  0  0  0  0  0  # atno 8010 bound_to 7997
  139.4942  144.3936  151.9490 H   0  0  0  0  0  0  0  0  0  0  0  0  # atno 10167 bound_to 10162
  156.6600  130.9042  151.3027 H   0  0  0  0  0  0  0  0  0  0  0  0  # atno 10718 bound_to 10713
  153.2189  135.4362  155.0466 H   0  0  0  0  0  0  0  0  0  0  0  0  # atno 10763 bound_to 10752
  154.8239  135.3351  154.6957 H   0  0  0  0  0  0  0  0  0  0  0  0  # atno 10764 bound_to 10752
  153.7391  135.7006  153.5027 H   0  0  0  0  0  0  0  0  0  0  0  0  # atno 10765 bound_to 10752
  140.0385  134.5908  155.9413 H   0  0  0  0  0  0  0  0  0  0  0  0  # atno 11005 bound_to 11000
  144.7500  140.5166  143.6809 LP  0  0  0  0  0  0  0  0  0  0  0  0  # atno 17320 bound_to 7965
  145.5691  139.1482  143.3298 LP  0  0  0  0  0  0  0  0  0  0  0  0  # atno 17321 bound_to 7965
  140.3374  144.3245  150.5974 LP  0  0  0  0  0  0  0  0  0  0  0  0  # atno 17342 bound_to 10162
  140.5595  143.2194  151.7790 LP  0  0  0  0  0  0  0  0  0  0  0  0  # atno 17343 bound_to 10162
  157.7113  130.9443  150.1098 LP  0  0  0  0  0  0  0  0  0  0  0  0  # atno 17370 bound_to 10713
  156.2018  130.3661  149.8779 LP  0  0  0  0  0  0  0  0  0  0  0  0  # atno 17371 bound_to 10713
  141.1870  133.6559  156.5264 LP  0  0  0  0  0  0  0  0  0  0  0  0  # atno 17394 bound_to 11000
  140.4108  134.7274  157.4835 LP  0  0  0  0  0  0  0  0  0  0  0  0  # atno 17395 bound_to 11000

$$$$
