AV-unprocessed.smi:3285|AV-procd|sdf|12585|dock4
  -GOLD-   2272018503D 1   1.00000     0.00000
 Structure written by MMmdl.
 45 46  0  0  0  0  0  0  0  0  2 V2000
  152.2182  138.9473  155.2746 C   0  0  0  0  0  0  0  0  0  0  0  0
  150.8406  139.5043  155.0565 C   0  0  0  0  0  0  0  0  0  0  0  0
  149.9647  138.8209  154.3398 N   0  0  0  0  0  0  0  0  0  0  0  0
  148.7997  139.5938  154.3193 O   0  0  0  0  0  0  0  0  0  0  0  0
  149.0238  140.7278  155.0309 C   0  0  0  0  0  0  0  0  0  0  0  0
  147.8917  141.6938  155.1268 C   0  0  0  0  0  0  0  0  0  0  0  0
  150.2990  140.7356  155.5255 C   0  0  0  0  0  0  0  0  0  0  0  0
  150.9791  141.7859  156.3612 C   0  0  0  0  0  0  0  0  0  0  0  0
  150.1650  142.1158  157.6188 C   0  0  0  0  0  0  0  0  0  0  0  0
  150.2253  143.5605  157.9231 N   0  3  0  0  0  0  0  0  0  0  0  0
  151.5869  144.1400  158.0073 C   0  0  1  0  0  0  0  0  0  0  0  0
  151.5895  145.3722  158.9274 C   0  0  0  0  0  0  0  0  0  0  0  0
  151.4038  144.9890  160.4042 C   0  0  0  0  0  0  0  0  0  0  0  0
  152.4595  143.9708  160.8808 C   0  0  1  0  0  0  0  0  0  0  0  0
  152.2282  143.6357  162.3650 C   0  0  0  0  0  0  0  0  0  0  0  0
  152.4605  142.7152  159.9689 C   0  0  2  0  0  0  0  0  0  0  0  0
  153.5392  141.6902  160.3622 C   0  0  0  0  0  0  0  0  0  0  0  0
  152.6386  143.1182  158.4886 C   0  0  0  0  0  0  0  0  0  0  0  0
  152.9579  139.5003  154.6955 H   0  0  0  0  0  0  0  0  0  0  0  0
  152.2823  137.8994  154.9790 H   0  0  0  0  0  0  0  0  0  0  0  0
  152.5033  139.0104  156.3246 H   0  0  0  0  0  0  0  0  0  0  0  0
  148.2224  142.7027  154.8797 H   0  0  0  0  0  0  0  0  0  0  0  0
  147.4829  141.7089  156.1371 H   0  0  0  0  0  0  0  0  0  0  0  0
  147.0868  141.4263  154.4413 H   0  0  0  0  0  0  0  0  0  0  0  0
  151.9763  141.4558  156.6543 H   0  0  0  0  0  0  0  0  0  0  0  0
  151.1293  142.6957  155.7789 H   0  0  0  0  0  0  0  0  0  0  0  0
  149.1286  141.8133  157.4713 H   0  0  0  0  0  0  0  0  0  0  0  0
  150.5504  141.5501  158.4683 H   0  0  0  0  0  0  0  0  0  0  0  0
  149.7355  144.0432  157.1834 H   0  0  0  0  0  0  0  0  0  0  0  0
  151.8578  144.4755  157.0052 H   0  0  0  0  0  0  0  0  0  0  0  0
  152.5370  145.9012  158.8153 H   0  0  0  0  0  0  0  0  0  0  0  0
  150.8135  146.0753  158.6221 H   0  0  0  0  0  0  0  0  0  0  0  0
  151.4562  145.8903  161.0162 H   0  0  0  0  0  0  0  0  0  0  0  0
  150.4039  144.5795  160.5539 H   0  0  0  0  0  0  0  0  0  0  0  0
  153.4377  144.4479  160.8019 H   0  0  0  0  0  0  0  0  0  0  0  0
  151.2969  143.0870  162.5086 H   0  0  0  0  0  0  0  0  0  0  0  0
  152.1732  144.5436  162.9667 H   0  0  0  0  0  0  0  0  0  0  0  0
  153.0392  143.0353  162.7761 H   0  0  0  0  0  0  0  0  0  0  0  0
  151.4933  142.2206  160.0683 H   0  0  0  0  0  0  0  0  0  0  0  0
  154.5338  142.1373  160.3549 H   0  0  0  0  0  0  0  0  0  0  0  0
  153.5503  140.8488  159.6691 H   0  0  0  0  0  0  0  0  0  0  0  0
  153.3644  141.2771  161.3552 H   0  0  0  0  0  0  0  0  0  0  0  0
  152.6350  142.2329  157.8534 H   0  0  0  0  0  0  0  0  0  0  0  0
  153.6293  143.5575  158.3627 H   0  0  0  0  0  0  0  0  0  0  0  0
  149.7427  143.7371  158.7927 H   0  0  0  0  0  0  0  0  0  0  0  0
  1  2  1  0  0  0  0
  1 19  1  0  0  0  0
  1 20  1  0  0  0  0
  1 21  1  0  0  0  0
  2  7  1  0  0  0  0
  2  3  2  0  0  0  0
  3  4  1  0  0  0  0
  4  5  1  0  0  0  0
  5  6  1  0  0  0  0
  5  7  2  0  0  0  0
  6 22  1  0  0  0  0
  6 23  1  0  0  0  0
  6 24  1  0  0  0  0
  7  8  1  0  0  0  0
  8  9  1  0  0  0  0
  8 25  1  0  0  0  0
  8 26  1  0  0  0  0
  9 10  1  0  0  0  0
  9 27  1  0  0  0  0
  9 28  1  0  0  0  0
 10 11  1  0  0  0  0
 10 29  1  0  0  0  0
 10 45  1  0  0  0  0
 11 18  1  0  0  0  0
 11 12  1  0  0  0  0
 11 30  1  0  0  0  0
 12 13  1  0  0  0  0
 12 31  1  0  0  0  0
 12 32  1  0  0  0  0
 13 14  1  0  0  0  0
 13 33  1  0  0  0  0
 13 34  1  0  0  0  0
 14 15  1  0  0  0  0
 14 16  1  0  0  0  0
 14 35  1  0  0  0  0
 15 36  1  0  0  0  0
 15 37  1  0  0  0  0
 15 38  1  0  0  0  0
 16 17  1  0  0  0  0
 16 18  1  0  0  0  0
 16 39  1  0  0  0  0
 17 40  1  0  0  0  0
 17 41  1  0  0  0  0
 17 42  1  0  0  0  0
 18 43  1  0  0  0  0
 18 44  1  0  0  0  0
M  CHG  1  10   1
M  END
> <s_m_source_file>
AV-unprocessed.smi

> <i_m_source_file_index>
3285

> <i_lp_mmshare_version>
43012

> <i_f3d_flags>
0

> <s_epik_input>
W0NIM11jMW5vYyhbQ0gzXSljMVtDSDJdW0NIMl1bTkhdW0NAQEhdMltDSDJdW0NIMl1bQ0BASF0oW0NIM10pW0NAQEhdKFtDSDNdKVtDSDJdMg==

> <s_epik_cmdline>
J2VwaWtfcHl0aG9uJywgJy1waCcsICc3LjAnLCAnLXRuJywgJzgnLCAnLW1hJywgJzIwMCcsICctbWV0YWxfYmluZGluZycsICctaW1hZScsICc8aW5maWxlLm1hZT4nLCAnLW9tYWUnLCAnPG91dGZpbGUubWFlPic=

> <r_lp_tautomer_probability>
1

> <r_epik_Ionization_Penalty>
0.000204615

> <r_epik_Ionization_Penalty_Charging>
0.000204615

> <r_epik_Ionization_Penalty_Neutral>
9.28663e-11

> <r_epik_State_Penalty>
-0

> <r_epik_Charging_Adjusted_Penalty>
0.000204615

> <i_epik_Tot_Q>
1

> <i_epik_Tot_abs_Q>
1

> <r_epik_Metal_State_Penalty>
-0

> <b_epik_Metal_Only>
0

> <s_lp_Force_Field>
OPLS_2005

> <r_lp_Energy>
13.8901

> <b_lp_Chiralities_Consistent>
1

> <s_lp_Variant>
AV-unprocessed.smi:3285-6

> <Gold.Version>
5.8.1

> <Gold.Id.Protein>
6NUR|6NUR_protein|mol2

> <Gold.PLP.Fitness>
52.0423

> <Gold.PLP.PLP>
-47.3434

> <Gold.PLP.part.hbond>
-1.0000

> <Gold.PLP.part.metal>
0.0000

> <Gold.PLP.part.buried>
-2.3736

> <Gold.PLP.part.nonpolar>
-43.6537

> <Gold.PLP.part.repulsive>
0.3886

> <Gold.PLP.ligand.clash>
0.0000

> <Gold.PLP.ligand.torsion>
0.6546

> <Gold.PLP.Chemscore.Hbond>
2.0000

> <Gold.PLP.Chemscore.CHOScore>
0.0000

> <Gold.PLP.Chemscore.Metal>
0.0000

> <Gold.Chemscore.Hbonds>
donor molecule, donor type, donor heavy atom, donor atom, acceptor molecule, acceptor atom, score
      L1  H    10    29       P1  8028  2.00

> <Gold.PLP.Chemscore.Internal.Correction>
0.0081

> <Gold.Rescore>
     Score         DG    S(hbond)    S(metal)    S(lipo)     H(rot)  DE(clash)    DE(int)     intcor
     20.60     -21.75       0.96        0.00     141.23       1.35       0.37       0.77       ----

> <Gold.Chemscore.Fitness>
20.6030

> <Gold.Chemscore.DG>
-21.7502

> <Gold.Chemscore.ZeroCoef>
-5.4800

> <Gold.Chemscore.Hbond>
0.9562

> <Gold.Chemscore.Metal>
0.0000

> <Gold.Chemscore.Lipo>
141.2264

> <Gold.Chemscore.Internal_Hbond>
0.0000

> <Gold.Chemscore.DEClash>
0.3723

> <Gold.Chemscore.DEInternal>
0.7749

> <Gold.Chemscore.Rot>
1.3465

> <Gold.Chemscore.Internal.Correction>
   9.000000E+99

> <Gold.Chemscore.Hbonds>
donor molecule, donor type, donor heavy atom, donor atom, acceptor molecule, acceptor atom, score
      L1  H    10    29       P1  8028  0.65

> <Gold.Chemscore.Hbond.Weighted>
-3.1938

> <Gold.Chemscore.Metal.Weighted>
-0.0000

> <Gold.Chemscore.Lipo.Weighted>
-16.5235

> <Gold.Chemscore.Internal_Hbond.Weighted>
0.0000

> <Gold.Chemscore.DEClash.Weighted>
0.3723

> <Gold.Chemscore.DEInternal.Weighted>
0.7749

> <Gold.Chemscore.Rot.Weighted>
3.4470

> <Gold.Chemscore.Internal.Correction.Weighted>
   9.000000E+99

> <Gold.Protein.RotatedTorsions>
[ 6907 6896 6895 6894 ] final    9.51 input  -60.11 | X-H torsion
[ 7974 7965 7964 7962 ] final  113.87 input  175.53 | X-H torsion
[ 8008 7997 7996 7995 ] final  154.50 input   59.86 | X-H torsion
[ 10167 10162 10161 10158 ] final -127.08 input  -65.29 | X-H torsion
[ 10718 10713 10712 10709 ] final  100.69 input   66.30 | X-H torsion
[ 10763 10752 10751 10750 ] final   40.15 input  -60.55 | X-H torsion
[ 11005 11000 10999 10996 ] final   19.71 input  -57.11 | X-H torsion

> <Gold.Protein.ActiveResidues>
 VAL166  LYS551  ARG553  GLY616  TRP617  ASP618  TYR619  PRO620  LYS621  CYS622 
 ASP623  PHE694  ASN695  SER759  ASP760  ASP761  ALA762  ILE779  LEU786  VAL792 
 PHE793  MET794  SER795  GLU796  ALA797  LYS798  CYS799  TRP800  GLU811  SER814 

> <Gold.Protein.RotatedAtoms>
  151.7233  135.0890  160.0287 H   0  0  0  0  0  0  0  0  0  0  0  0  # atno 6907 bound_to 6896
  152.3588  133.6266  159.6008 H   0  0  0  0  0  0  0  0  0  0  0  0  # atno 6908 bound_to 6896
  150.7590  133.9373  159.3487 H   0  0  0  0  0  0  0  0  0  0  0  0  # atno 6909 bound_to 6896
  145.2115  139.2904  143.4266 H   0  0  0  0  0  0  0  0  0  0  0  0  # atno 7974 bound_to 7965
  156.2528  140.1965  156.6655 H   0  0  0  0  0  0  0  0  0  0  0  0  # atno 8008 bound_to 7997
  154.6432  140.0581  156.9895 H   0  0  0  0  0  0  0  0  0  0  0  0  # atno 8009 bound_to 7997
  155.1531  140.3253  155.4429 H   0  0  0  0  0  0  0  0  0  0  0  0  # atno 8010 bound_to 7997
  139.9646  143.5912  152.2433 H   0  0  0  0  0  0  0  0  0  0  0  0  # atno 10167 bound_to 10162
  157.6848  131.0705  150.5139 H   0  0  0  0  0  0  0  0  0  0  0  0  # atno 10718 bound_to 10713
  152.9945  135.6200  154.2580 H   0  0  0  0  0  0  0  0  0  0  0  0  # atno 10763 bound_to 10752
  154.2317  135.2792  155.2889 H   0  0  0  0  0  0  0  0  0  0  0  0  # atno 10764 bound_to 10752
  154.5444  135.5751  153.6925 H   0  0  0  0  0  0  0  0  0  0  0  0  # atno 10765 bound_to 10752
  140.4106  134.1622  155.7667 H   0  0  0  0  0  0  0  0  0  0  0  0  # atno 11005 bound_to 11000
  146.3396  140.2392  142.8595 LP  0  0  0  0  0  0  0  0  0  0  0  0  # atno 17320 bound_to 7965
  144.9851  140.8496  143.5373 LP  0  0  0  0  0  0  0  0  0  0  0  0  # atno 17321 bound_to 7965
  139.6527  144.7661  151.2116 LP  0  0  0  0  0  0  0  0  0  0  0  0  # atno 17342 bound_to 10162
  140.7542  143.6135  150.8583 LP  0  0  0  0  0  0  0  0  0  0  0  0  # atno 17343 bound_to 10162
  156.5455  130.4218  149.6133 LP  0  0  0  0  0  0  0  0  0  0  0  0  # atno 17370 bound_to 10713
  156.2948  130.7144  151.2002 LP  0  0  0  0  0  0  0  0  0  0  0  0  # atno 17371 bound_to 10713
  141.1822  133.8389  157.1216 LP  0  0  0  0  0  0  0  0  0  0  0  0  # atno 17394 bound_to 11000
  140.0270  134.9919  157.0705 LP  0  0  0  0  0  0  0  0  0  0  0  0  # atno 17395 bound_to 11000

$$$$
