AV-unprocessed.smi:102|AV-procd|sdf|965|dock3
  -GOLD-   2262017513D 1   1.00000     0.00000
 Structure written by MMmdl.
 43 44  0  0  0  0  0  0  0  0  2 V2000
  150.3305  131.2242  155.9879 C   0  0  0  0  0  0  0  0  0  0  0  0
  149.6595  132.0352  157.0893 C   0  0  0  0  0  0  0  0  0  0  0  0
  150.3178  132.7264  157.8668 O   0  0  0  0  0  0  0  0  0  0  0  0
  148.3250  131.8973  157.0925 O   0  0  0  0  0  0  0  0  0  0  0  0
  147.5393  132.7102  157.9485 C   0  0  0  0  0  0  0  0  0  0  0  0
  147.3929  134.1104  157.3331 C   0  0  2  0  0  0  0  0  0  0  0  0
  148.6727  134.6020  156.9592 O   0  0  0  0  0  0  0  0  0  0  0  0
  149.2256  135.2923  158.0332 C   0  0  1  0  0  0  0  0  0  0  0  0
  150.1745  136.3420  157.5123 N   0  0  0  0  0  0  0  0  0  0  0  0
  150.3189  136.5433  156.1505 C   0  0  0  0  0  0  0  0  0  0  0  0
  151.1425  137.4966  155.6695 C   0  0  0  0  0  0  0  0  0  0  0  0
  151.2633  137.6699  154.3421 F   0  0  0  0  0  0  0  0  0  0  0  0
  151.8934  138.3391  156.5986 C   0  0  0  0  0  0  0  0  0  0  0  0
  152.6516  139.1994  156.1543 O   0  0  0  0  0  0  0  0  0  0  0  0
  151.7134  138.1321  157.9356 N   0  5  0  0  0  0  0  0  0  0  0  0
  150.8738  137.1741  158.4273 C   0  0  0  0  0  0  0  0  0  0  0  0
  150.6843  136.9989  159.6310 O   0  0  0  0  0  0  0  0  0  0  0  0
  148.0707  135.9470  158.7908 C   0  0  2  0  0  0  0  0  0  0  0  0
  148.2851  135.8499  160.1916 O   0  0  0  0  0  0  0  0  0  0  0  0
  147.3931  136.3771  161.0463 C   0  0  0  0  0  0  0  0  0  0  0  0
  147.6375  135.9393  162.4842 C   0  0  0  0  0  0  0  0  0  0  0  0
  146.4612  137.1260  160.7518 O   0  0  0  0  0  0  0  0  0  0  0  0
  146.8577  135.1336  158.3481 C   0  0  1  0  0  0  0  0  0  0  0  0
  145.9052  136.0105  157.7598 O   0  0  0  0  0  0  0  0  0  0  0  0
  146.2574  136.8078  156.7370 C   0  0  0  0  0  0  0  0  0  0  0  0
  145.1092  137.6910  156.2672 C   0  0  0  0  0  0  0  0  0  0  0  0
  147.3681  136.8622  156.2086 O   0  0  0  0  0  0  0  0  0  0  0  0
  149.5997  130.6297  155.4391 H   0  0  0  0  0  0  0  0  0  0  0  0
  151.0722  130.5496  156.4157 H   0  0  0  0  0  0  0  0  0  0  0  0
  150.8327  131.8884  155.2845 H   0  0  0  0  0  0  0  0  0  0  0  0
  146.5538  132.2545  158.0560 H   0  0  0  0  0  0  0  0  0  0  0  0
  147.9841  132.7632  158.9431 H   0  0  0  0  0  0  0  0  0  0  0  0
  146.7491  134.0517  156.4545 H   0  0  0  0  0  0  0  0  0  0  0  0
  149.8075  134.5867  158.6293 H   0  0  0  0  0  0  0  0  0  0  0  0
  149.7606  135.9356  155.4540 H   0  0  0  0  0  0  0  0  0  0  0  0
  147.9832  136.9856  158.4658 H   0  0  0  0  0  0  0  0  0  0  0  0
  148.7066  135.8872  162.6909 H   0  0  0  0  0  0  0  0  0  0  0  0
  147.2012  134.9558  162.6587 H   0  0  0  0  0  0  0  0  0  0  0  0
  147.1868  136.6474  163.1798 H   0  0  0  0  0  0  0  0  0  0  0  0
  146.4140  134.6259  159.2063 H   0  0  0  0  0  0  0  0  0  0  0  0
  144.1738  137.1312  156.2618 H   0  0  0  0  0  0  0  0  0  0  0  0
  145.2971  138.0568  155.2576 H   0  0  0  0  0  0  0  0  0  0  0  0
  144.9973  138.5482  156.9308 H   0  0  0  0  0  0  0  0  0  0  0  0
  1  2  1  0  0  0  0
  1 28  1  0  0  0  0
  1 29  1  0  0  0  0
  1 30  1  0  0  0  0
  2  3  2  0  0  0  0
  2  4  1  0  0  0  0
  4  5  1  0  0  0  0
  5  6  1  0  0  0  0
  5 31  1  0  0  0  0
  5 32  1  0  0  0  0
  6 23  1  0  0  0  0
  6  7  1  0  0  0  0
  6 33  1  0  0  0  0
  7  8  1  0  0  0  0
  8  9  1  0  0  0  0
  8 18  1  0  0  0  0
  8 34  1  0  0  0  0
  9 16  1  0  0  0  0
  9 10  1  0  0  0  0
 10 11  2  0  0  0  0
 10 35  1  0  0  0  0
 11 12  1  0  0  0  0
 11 13  1  0  0  0  0
 13 14  2  0  0  0  0
 13 15  1  0  0  0  0
 15 16  1  0  0  0  0
 16 17  2  0  0  0  0
 18 19  1  0  0  0  0
 18 23  1  0  0  0  0
 18 36  1  0  0  0  0
 19 20  1  0  0  0  0
 20 21  1  0  0  0  0
 20 22  2  0  0  0  0
 21 37  1  0  0  0  0
 21 38  1  0  0  0  0
 21 39  1  0  0  0  0
 23 24  1  0  0  0  0
 23 40  1  0  0  0  0
 24 25  1  0  0  0  0
 25 26  1  0  0  0  0
 25 27  2  0  0  0  0
 26 41  1  0  0  0  0
 26 42  1  0  0  0  0
 26 43  1  0  0  0  0
M  CHG  1  15  -1
M  END
> <s_m_source_file>
AV-unprocessed.smi

> <i_m_source_file_index>
102

> <i_lp_mmshare_version>
43012

> <i_f3d_flags>
0

> <s_epik_input>
W0NIM11DKD1PKU9bQ0gyXVtDQEBIXTFPW0NASF0oW0NAQEhdKE9DKD1PKVtDSDNdKVtDQEhdMU9DKD1PKVtDSDNdKW4yW2NIXWMoRiljKD1PKVtuSF1jMj1P

> <s_epik_cmdline>
J2VwaWtfcHl0aG9uJywgJy1waCcsICc3LjAnLCAnLXRuJywgJzgnLCAnLW1hJywgJzIwMCcsICctbWV0YWxfYmluZGluZycsICctaW1hZScsICc8aW5maWxlLm1hZT4nLCAnLW9tYWUnLCAnPG91dGZpbGUubWFlPic=

> <r_epik_Ionization_Penalty>
1.40304

> <r_epik_Ionization_Penalty_Charging>
1.43915e-08

> <r_epik_Ionization_Penalty_Neutral>
1.40304

> <r_epik_State_Penalty>
1.48536

> <r_epik_Charging_Adjusted_Penalty>
1.48536

> <i_epik_Tot_Q>
-1

> <i_epik_Tot_abs_Q>
1

> <r_epik_Metal_State_Penalty>
0.00663881

> <b_epik_Metal_Only>
0

> <s_epik_Chemistry_Notes>
This compound has an ester and may undergo hydrolysis at high or low pH. This compound contains an acetal/aminal-like group ( X-CH(R)-Y where X, Y are N, S, or O) that may be acid/base labile, releasing an aldehyde.

> <s_lp_Force_Field>
OPLS_2005

> <r_lp_Energy>
22.1455

> <b_lp_Chiralities_Consistent>
1

> <s_lp_Variant>
AV-unprocessed.smi:102-21

> <Gold.Version>
5.8.1

> <Gold.Id.Protein>
6NUR|6NUR_protein|mol2

> <Gold.PLP.Fitness>
35.6760

> <Gold.PLP.PLP>
-24.3617

> <Gold.PLP.part.hbond>
-3.9704

> <Gold.PLP.part.metal>
0.0000

> <Gold.PLP.part.buried>
-5.3167

> <Gold.PLP.part.nonpolar>
-16.2414

> <Gold.PLP.part.repulsive>
0.0058

> <Gold.PLP.ligand.clash>
0.0000

> <Gold.PLP.ligand.torsion>
0.3765

> <Gold.PLP.Chemscore.Hbond>
3.9913

> <Gold.PLP.Chemscore.CHOScore>
0.0000

> <Gold.PLP.Chemscore.Metal>
0.0000

> <Gold.Chemscore.Hbonds>
donor molecule, donor type, donor heavy atom, donor atom, acceptor molecule, acceptor atom, score
      P1  H  6896  6907       L1     3  1.00
      P1  H  6896  6908       L1    17  1.00
      P1  H  6934  6947       L1    22  0.99
      P1  H  7997  8008       L1    14  1.00

> <Gold.PLP.Chemscore.Internal.Correction>
0.0935

> <Gold.Rescore>
     Score         DG    S(hbond)    S(metal)    S(lipo)     H(rot)  DE(clash)    DE(int)     intcor
      6.51     -11.96       3.98        0.00      29.05       4.00       0.00       5.45       ----

> <Gold.Chemscore.Fitness>
6.5091

> <Gold.Chemscore.DG>
-11.9611

> <Gold.Chemscore.ZeroCoef>
-5.4800

> <Gold.Chemscore.Hbond>
3.9848

> <Gold.Chemscore.Metal>
0.0000

> <Gold.Chemscore.Lipo>
29.0534

> <Gold.Chemscore.Internal_Hbond>
0.0000

> <Gold.Chemscore.DEClash>
0.0000

> <Gold.Chemscore.DEInternal>
5.4519

> <Gold.Chemscore.Rot>
3.9951

> <Gold.Chemscore.Internal.Correction>
   9.000000E+99

> <Gold.Chemscore.Hbonds>
donor molecule, donor type, donor heavy atom, donor atom, acceptor molecule, acceptor atom, score
      P1  H  6896  6907       L1     3  1.00
      P1  H  6896  6908       L1    17  0.39
      P1  H  6934  6947       L1    22  0.56
      P1  H  7997  8008       L1    14  1.00

> <Gold.Chemscore.Hbond.Weighted>
-13.3092

> <Gold.Chemscore.Metal.Weighted>
-0.0000

> <Gold.Chemscore.Lipo.Weighted>
-3.3992

> <Gold.Chemscore.Internal_Hbond.Weighted>
0.0000

> <Gold.Chemscore.DEClash.Weighted>
0.0000

> <Gold.Chemscore.DEInternal.Weighted>
5.4519

> <Gold.Chemscore.Rot.Weighted>
10.2274

> <Gold.Chemscore.Internal.Correction.Weighted>
   9.000000E+99

> <Gold.Protein.RotatedTorsions>
[ 6907 6896 6895 6894 ] final -144.68 input  -60.11 | X-H torsion
[ 7974 7965 7964 7962 ] final -127.52 input  175.53 | X-H torsion
[ 8008 7997 7996 7995 ] final  -40.47 input   59.86 | X-H torsion
[ 10167 10162 10161 10158 ] final   -3.57 input  -65.29 | X-H torsion
[ 10718 10713 10712 10709 ] final  -99.47 input   66.30 | X-H torsion
[ 10763 10752 10751 10750 ] final -124.61 input  -60.55 | X-H torsion
[ 11005 11000 10999 10996 ] final   89.03 input  -57.11 | X-H torsion

> <Gold.Protein.ActiveResidues>
 VAL166  LYS551  ARG553  GLY616  TRP617  ASP618  TYR619  PRO620  LYS621  CYS622 
 ASP623  PHE694  ASN695  SER759  ASP760  ASP761  ALA762  ILE779  LEU786  VAL792 
 PHE793  MET794  SER795  GLU796  ALA797  LYS798  CYS799  TRP800  GLU811  SER814 

> <Gold.Protein.RotatedAtoms>
  151.1173  133.5129  159.2603 H   0  0  0  0  0  0  0  0  0  0  0  0  # atno 6907 bound_to 6896
  151.1900  135.0398  159.8838 H   0  0  0  0  0  0  0  0  0  0  0  0  # atno 6908 bound_to 6896
  152.5454  134.1014  159.8373 H   0  0  0  0  0  0  0  0  0  0  0  0  # atno 6909 bound_to 6896
  144.9762  140.7595  143.4640 H   0  0  0  0  0  0  0  0  0  0  0  0  # atno 7974 bound_to 7965
  154.4012  140.1524  156.3032 H   0  0  0  0  0  0  0  0  0  0  0  0  # atno 8008 bound_to 7997
  155.8681  140.3450  155.5781 H   0  0  0  0  0  0  0  0  0  0  0  0  # atno 8009 bound_to 7997
  155.7805  140.0842  157.2052 H   0  0  0  0  0  0  0  0  0  0  0  0  # atno 8010 bound_to 7997
  140.6895  143.6524  150.8338 H   0  0  0  0  0  0  0  0  0  0  0  0  # atno 10167 bound_to 10162
  156.0135  130.5284  150.6674 H   0  0  0  0  0  0  0  0  0  0  0  0  # atno 10718 bound_to 10713
  154.8725  135.4058  154.3134 H   0  0  0  0  0  0  0  0  0  0  0  0  # atno 10763 bound_to 10752
  153.3974  135.7017  153.6456 H   0  0  0  0  0  0  0  0  0  0  0  0  # atno 10764 bound_to 10752
  153.5213  135.3686  155.2604 H   0  0  0  0  0  0  0  0  0  0  0  0  # atno 10765 bound_to 10752
  139.8884  134.8526  156.3085 H   0  0  0  0  0  0  0  0  0  0  0  0  # atno 11005 bound_to 11000
  145.2486  139.2041  143.4954 LP  0  0  0  0  0  0  0  0  0  0  0  0  # atno 17320 bound_to 7965
  146.3396  140.2395  142.8595 LP  0  0  0  0  0  0  0  0  0  0  0  0  # atno 17321 bound_to 7965
  140.0235  143.5517  152.2790 LP  0  0  0  0  0  0  0  0  0  0  0  0  # atno 17342 bound_to 10162
  139.6284  144.7641  151.2588 LP  0  0  0  0  0  0  0  0  0  0  0  0  # atno 17343 bound_to 10162
  157.4404  131.0860  151.0949 LP  0  0  0  0  0  0  0  0  0  0  0  0  # atno 17370 bound_to 10713
  157.1495  130.6178  149.5578 LP  0  0  0  0  0  0  0  0  0  0  0  0  # atno 17371 bound_to 10713
  140.9866  133.7234  156.0751 LP  0  0  0  0  0  0  0  0  0  0  0  0  # atno 17394 bound_to 11000
  140.7680  134.3865  157.5513 LP  0  0  0  0  0  0  0  0  0  0  0  0  # atno 17395 bound_to 11000

$$$$
