AV-unprocessed.smi:200|AV-procd|sdf|1578|dock7
  -GOLD-   2262019463D 1   1.00000     0.00000
 Structure written by MMmdl.
 56 59  0  0  0  0  0  0  0  0  1 V2000
  149.2285  141.2228  154.5187 C   0  0  0  0  0  0  0  0  0  0  0  0
  149.2329  139.8113  154.6619 O   0  0  0  0  0  0  0  0  0  0  0  0
  150.5105  139.2532  154.9406 C   0  0  0  0  0  0  0  0  0  0  0  0
  151.2605  140.0262  156.0465 C   0  0  0  0  0  0  0  0  0  0  0  0
  150.4932  140.1659  157.2859 N   0  0  0  0  0  0  0  0  0  0  0  0
  150.4970  139.0839  158.1023 C   0  0  0  0  0  0  0  0  0  0  0  0
  151.6554  138.6665  158.6773 N   0  0  0  0  0  0  0  0  0  0  0  0
  151.6531  137.6045  159.4883 C   0  0  0  0  0  0  0  0  0  0  0  0
  150.6253  136.8342  159.8521 N   0  0  0  0  0  0  0  0  0  0  0  0
  149.4626  137.2478  159.2713 C   0  0  0  0  0  0  0  0  0  0  0  0
  149.3150  138.3471  158.3808 C   0  0  0  0  0  0  0  0  0  0  0  0
  147.9936  138.4552  157.9688 N   0  0  0  0  0  0  0  0  0  0  0  0
  147.3915  137.4748  158.5845 C   0  0  0  0  0  0  0  0  0  0  0  0
  148.1922  136.7138  159.4083 N   0  0  0  0  0  0  0  0  0  0  0  0
  147.7785  135.5745  160.2151 C   0  0  0  0  0  0  0  0  0  0  0  0
  146.9011  135.9375  161.4347 C   0  0  0  0  0  0  0  0  0  0  0  0
  145.7542  136.8773  161.0260 C   0  0  0  0  0  0  0  0  0  0  0  0
  144.9986  137.2906  162.1464 O   0  0  0  0  0  0  0  0  0  0  0  0
  146.4908  134.7460  162.3108 C   0  0  0  0  0  0  0  0  0  0  0  0
  147.3798  135.1336  163.3791 O   0  0  0  0  0  0  0  0  0  0  0  0
  147.6646  136.3714  162.6947 C   0  0  0  0  0  0  0  0  0  0  0  0
  150.5594  141.4800  157.9397 C   0  0  2  0  0  0  0  0  0  0  0  0
  150.8898  142.6615  157.0139 C   0  0  0  0  0  0  0  0  0  0  0  0
  151.4737  143.7521  157.9279 C   0  0  0  0  0  0  0  0  0  0  0  0
  151.5910  143.1349  159.3330 C   0  0  2  0  0  0  0  0  0  0  0  0
  152.8195  143.6085  160.1212 C   0  0  0  0  0  0  0  0  0  0  0  0
  151.5563  141.6235  159.0973 C   0  0  0  0  0  0  0  0  0  0  0  0
  148.2283  141.5532  154.2390 H   0  0  0  0  0  0  0  0  0  0  0  0
  149.9170  141.5450  153.7367 H   0  0  0  0  0  0  0  0  0  0  0  0
  149.4915  141.7254  155.4491 H   0  0  0  0  0  0  0  0  0  0  0  0
  150.3665  138.2139  155.2360 H   0  0  0  0  0  0  0  0  0  0  0  0
  151.1099  139.2216  154.0298 H   0  0  0  0  0  0  0  0  0  0  0  0
  152.2026  139.5218  156.2642 H   0  0  0  0  0  0  0  0  0  0  0  0
  151.5359  141.0169  155.6854 H   0  0  0  0  0  0  0  0  0  0  0  0
  152.6109  137.3348  159.9081 H   0  0  0  0  0  0  0  0  0  0  0  0
  146.3349  137.2855  158.4631 H   0  0  0  0  0  0  0  0  0  0  0  0
  147.2594  134.8708  159.5634 H   0  0  0  0  0  0  0  0  0  0  0  0
  148.6792  135.0525  160.5404 H   0  0  0  0  0  0  0  0  0  0  0  0
  146.1467  137.7738  160.5449 H   0  0  0  0  0  0  0  0  0  0  0  0
  145.0936  136.4134  160.2944 H   0  0  0  0  0  0  0  0  0  0  0  0
  144.6211  136.5254  162.5531 H   0  0  0  0  0  0  0  0  0  0  0  0
  145.4464  134.7644  162.6260 H   0  0  0  0  0  0  0  0  0  0  0  0
  146.7496  133.7747  161.8875 H   0  0  0  0  0  0  0  0  0  0  0  0
  148.7330  136.5210  162.5494 H   0  0  0  0  0  0  0  0  0  0  0  0
  147.2243  137.2278  163.2071 H   0  0  0  0  0  0  0  0  0  0  0  0
  149.5696  141.6638  158.3604 H   0  0  0  0  0  0  0  0  0  0  0  0
  151.6386  142.3863  156.2716 H   0  0  0  0  0  0  0  0  0  0  0  0
  150.0088  143.0070  156.4725 H   0  0  0  0  0  0  0  0  0  0  0  0
  152.4510  144.0571  157.5514 H   0  0  0  0  0  0  0  0  0  0  0  0
  150.8439  144.6421  157.9451 H   0  0  0  0  0  0  0  0  0  0  0  0
  150.6942  143.4042  159.8936 H   0  0  0  0  0  0  0  0  0  0  0  0
  153.7452  143.3622  159.6002 H   0  0  0  0  0  0  0  0  0  0  0  0
  152.8561  143.1389  161.1044 H   0  0  0  0  0  0  0  0  0  0  0  0
  152.7970  144.6883  160.2692 H   0  0  0  0  0  0  0  0  0  0  0  0
  151.2524  141.0668  159.9842 H   0  0  0  0  0  0  0  0  0  0  0  0
  152.5534  141.2866  158.8115 H   0  0  0  0  0  0  0  0  0  0  0  0
  1  2  1  0  0  0  0
  1 28  1  0  0  0  0
  1 29  1  0  0  0  0
  1 30  1  0  0  0  0
  2  3  1  0  0  0  0
  3  4  1  0  0  0  0
  3 31  1  0  0  0  0
  3 32  1  0  0  0  0
  4  5  1  0  0  0  0
  4 33  1  0  0  0  0
  4 34  1  0  0  0  0
  5  6  1  0  0  0  0
  5 22  1  0  0  0  0
  6 11  1  0  0  0  0
  6  7  2  0  0  0  0
  7  8  1  0  0  0  0
  8  9  2  0  0  0  0
  8 35  1  0  0  0  0
  9 10  1  0  0  0  0
 10 14  1  0  0  0  0
 10 11  2  0  0  0  0
 11 12  1  0  0  0  0
 12 13  2  0  0  0  0
 13 14  1  0  0  0  0
 13 36  1  0  0  0  0
 14 15  1  0  0  0  0
 15 16  1  0  0  0  0
 15 37  1  0  0  0  0
 15 38  1  0  0  0  0
 16 21  1  0  0  0  0
 16 17  1  0  0  0  0
 16 19  1  0  0  0  0
 17 18  1  0  0  0  0
 17 39  1  0  0  0  0
 17 40  1  0  0  0  0
 18 41  1  0  0  0  0
 19 20  1  0  0  0  0
 19 42  1  0  0  0  0
 19 43  1  0  0  0  0
 20 21  1  0  0  0  0
 21 44  1  0  0  0  0
 21 45  1  0  0  0  0
 22 27  1  0  0  0  0
 22 23  1  0  0  0  0
 22 46  1  0  0  0  0
 23 24  1  0  0  0  0
 23 47  1  0  0  0  0
 23 48  1  0  0  0  0
 24 25  1  0  0  0  0
 24 49  1  0  0  0  0
 24 50  1  0  0  0  0
 25 26  1  0  0  0  0
 25 27  1  0  0  0  0
 25 51  1  0  0  0  0
 26 52  1  0  0  0  0
 26 53  1  0  0  0  0
 26 54  1  0  0  0  0
 27 55  1  0  0  0  0
 27 56  1  0  0  0  0
M  END
> <s_m_source_file>
AV-unprocessed.smi

> <i_m_source_file_index>
200

> <i_lp_mmshare_version>
43012

> <i_f3d_flags>
0

> <s_epik_input>
W0NIM11bQ0BASF0oW0NIMl0xKVtDSDJdW0NIMl1bQ0BIXTFOKFtDSDJdW0NIMl1PW0NIM10pYyhuW2NIXW4yKWMoYzIzKW5bY0hdbjNbQ0gyXUM0KFtDSDJdW09IXSlbQ0gyXU9bQ0gyXTQ=

> <s_epik_cmdline>
J2VwaWtfcHl0aG9uJywgJy1waCcsICc3LjAnLCAnLXRuJywgJzgnLCAnLW1hJywgJzIwMCcsICctbWV0YWxfYmluZGluZycsICctaW1hZScsICc8aW5maWxlLm1hZT4nLCAnLW9tYWUnLCAnPG91dGZpbGUubWFlPic=

> <r_lp_tautomer_probability>
1

> <r_epik_Ionization_Penalty>
0.00363087

> <r_epik_Ionization_Penalty_Charging>
0

> <r_epik_Ionization_Penalty_Neutral>
0.00363087

> <r_epik_State_Penalty>
0.0024341

> <r_epik_Charging_Adjusted_Penalty>
0.0024341

> <i_epik_Tot_Q>
0

> <i_epik_Tot_abs_Q>
0

> <r_epik_Metal_State_Penalty>
-0

> <b_epik_Metal_Only>
0

> <s_lp_Force_Field>
OPLS_2005

> <r_lp_Energy>
51.1688

> <b_lp_Chiralities_Consistent>
1

> <s_lp_Variant>
AV-unprocessed.smi:200-3

> <Gold.Version>
5.8.1

> <Gold.Id.Protein>
6NUR|6NUR_protein|mol2

> <Gold.PLP.Fitness>
49.0874

> <Gold.PLP.PLP>
-48.0949

> <Gold.PLP.part.hbond>
-1.1862

> <Gold.PLP.part.metal>
0.0000

> <Gold.PLP.part.buried>
-7.5888

> <Gold.PLP.part.nonpolar>
-40.8555

> <Gold.PLP.part.repulsive>
0.1113

> <Gold.PLP.ligand.clash>
0.0066

> <Gold.PLP.ligand.torsion>
1.6611

> <Gold.PLP.Chemscore.Hbond>
1.0000

> <Gold.PLP.Chemscore.CHOScore>
0.0000

> <Gold.PLP.Chemscore.Metal>
0.0000

> <Gold.Chemscore.Hbonds>
donor molecule, donor type, donor heavy atom, donor atom, acceptor molecule, acceptor atom, score
      P1  H  6896  6909       L1     9  0.96

> <Gold.PLP.Chemscore.Internal.Correction>
1.3213

> <Gold.Rescore>
     Score         DG    S(hbond)    S(metal)    S(lipo)     H(rot)  DE(clash)    DE(int)     intcor
     11.79     -13.72       0.93        0.00     115.67       3.28       0.84       1.09       ----

> <Gold.Chemscore.Fitness>
11.7881

> <Gold.Chemscore.DG>
-13.7216

> <Gold.Chemscore.ZeroCoef>
-5.4800

> <Gold.Chemscore.Hbond>
0.9267

> <Gold.Chemscore.Metal>
0.0000

> <Gold.Chemscore.Lipo>
115.6689

> <Gold.Chemscore.Internal_Hbond>
0.0000

> <Gold.Chemscore.DEClash>
0.8396

> <Gold.Chemscore.DEInternal>
1.0938

> <Gold.Chemscore.Rot>
3.2761

> <Gold.Chemscore.Internal.Correction>
   9.000000E+99

> <Gold.Chemscore.Hbonds>
donor molecule, donor type, donor heavy atom, donor atom, acceptor molecule, acceptor atom, score
      P1  H  6896  6909       L1     9  0.75

> <Gold.Chemscore.Hbond.Weighted>
-3.0951

> <Gold.Chemscore.Metal.Weighted>
-0.0000

> <Gold.Chemscore.Lipo.Weighted>
-13.5333

> <Gold.Chemscore.Internal_Hbond.Weighted>
0.0000

> <Gold.Chemscore.DEClash.Weighted>
0.8396

> <Gold.Chemscore.DEInternal.Weighted>
1.0938

> <Gold.Chemscore.Rot.Weighted>
8.3868

> <Gold.Chemscore.Internal.Correction.Weighted>
   9.000000E+99

> <Gold.Protein.RotatedTorsions>
[ 6907 6896 6895 6894 ] final   75.57 input  -60.11 | X-H torsion
[ 7974 7965 7964 7962 ] final   92.97 input  175.53 | X-H torsion
[ 8008 7997 7996 7995 ] final -152.17 input   59.86 | X-H torsion
[ 10167 10162 10161 10158 ] final  159.36 input  -65.29 | X-H torsion
[ 10718 10713 10712 10709 ] final   16.60 input   66.30 | X-H torsion
[ 10763 10752 10751 10750 ] final  172.83 input  -60.55 | X-H torsion
[ 11005 11000 10999 10996 ] final   17.64 input  -57.11 | X-H torsion

> <Gold.Protein.ActiveResidues>
 VAL166  LYS551  ARG553  GLY616  TRP617  ASP618  TYR619  PRO620  LYS621  CYS622 
 ASP623  PHE694  ASN695  SER759  ASP760  ASP761  ALA762  ILE779  LEU786  VAL792 
 PHE793  MET794  SER795  GLU796  ALA797  LYS798  CYS799  TRP800  GLU811  SER814 

> <Gold.Protein.RotatedAtoms>
  152.5032  134.4100  159.9445 H   0  0  0  0  0  0  0  0  0  0  0  0  # atno 6907 bound_to 6896
  151.4068  133.3734  159.2746 H   0  0  0  0  0  0  0  0  0  0  0  0  # atno 6908 bound_to 6896
  150.9321  134.8757  159.7617 H   0  0  0  0  0  0  0  0  0  0  0  0  # atno 6909 bound_to 6896
  145.4852  139.2277  143.2860 H   0  0  0  0  0  0  0  0  0  0  0  0  # atno 7974 bound_to 7965
  155.6510  140.0712  157.2587 H   0  0  0  0  0  0  0  0  0  0  0  0  # atno 8008 bound_to 7997
  154.4162  140.1733  156.1724 H   0  0  0  0  0  0  0  0  0  0  0  0  # atno 8009 bound_to 7997
  155.9777  140.3356  155.6637 H   0  0  0  0  0  0  0  0  0  0  0  0  # atno 8010 bound_to 7997
  139.4832  144.4737  151.8541 H   0  0  0  0  0  0  0  0  0  0  0  0  # atno 10167 bound_to 10162
  157.0702  130.6345  149.5804 H   0  0  0  0  0  0  0  0  0  0  0  0  # atno 10718 bound_to 10713
  154.4316  135.2760  155.1908 H   0  0  0  0  0  0  0  0  0  0  0  0  # atno 10763 bound_to 10752
  154.3812  135.6087  153.5795 H   0  0  0  0  0  0  0  0  0  0  0  0  # atno 10764 bound_to 10752
  152.9836  135.5881  154.4628 H   0  0  0  0  0  0  0  0  0  0  0  0  # atno 10765 bound_to 10752
  140.4337  134.1393  155.7683 H   0  0  0  0  0  0  0  0  0  0  0  0  # atno 11005 bound_to 11000
  146.2317  140.5642  142.8972 LP  0  0  0  0  0  0  0  0  0  0  0  0  # atno 17320 bound_to 7965
  144.7865  140.5948  143.6570 LP  0  0  0  0  0  0  0  0  0  0  0  0  # atno 17321 bound_to 7965
  140.4207  144.2246  150.5887 LP  0  0  0  0  0  0  0  0  0  0  0  0  # atno 17342 bound_to 10162
  140.4876  143.2358  151.8865 LP  0  0  0  0  0  0  0  0  0  0  0  0  # atno 17343 bound_to 10162
  155.9953  130.5019  150.7452 LP  0  0  0  0  0  0  0  0  0  0  0  0  # atno 17370 bound_to 10713
  157.4884  131.0908  151.0455 LP  0  0  0  0  0  0  0  0  0  0  0  0  # atno 17371 bound_to 10713
  141.1735  133.8561  157.1496 LP  0  0  0  0  0  0  0  0  0  0  0  0  # atno 17394 bound_to 11000
  140.0117  134.9985  157.0408 LP  0  0  0  0  0  0  0  0  0  0  0  0  # atno 17395 bound_to 11000

$$$$
