AV-unprocessed.smi:2492|AV-procd|sdf|9815|dock10
  -GOLD-   2272013443D 1   1.00000     0.00000
 Structure written by MMmdl.
 32 33  0  0  0  0  0  0  0  0  2 V2000
  153.8113  141.5790  161.3305 C   0  0  0  0  0  0  0  0  0  0  0  0
  152.9132  143.1460  161.1805 S   0  0  0  0  0  0  0  0  0  0  0  0
  152.6147  143.1700  159.3894 C   0  0  2  0  0  0  0  0  0  0  0  0
  152.2490  144.5589  158.8733 C   0  0  0  0  0  0  0  0  0  0  0  0
  151.5789  144.2950  157.5235 C   0  0  0  0  0  0  0  0  0  0  0  0
  150.9215  142.9058  157.6370 C   0  0  1  0  0  0  0  0  0  0  0  0
  151.2775  142.0688  156.4929 N   0  0  0  0  0  0  0  0  0  0  0  0
  150.9001  140.7964  156.3002 C   0  0  0  0  0  0  0  0  0  0  0  0
  150.1920  140.2319  157.1372 O   0  0  0  0  0  0  0  0  0  0  0  0
  151.3685  140.2577  155.1516 N   0  5  0  0  0  0  0  0  0  0  0  0
  151.3834  138.9240  154.9933 C   0  0  0  0  0  0  0  0  0  0  0  0
  150.4018  138.0843  155.3252 N   0  0  0  0  0  0  0  0  0  0  0  0
  150.9204  136.8852  154.9481 C   0  0  0  0  0  0  0  0  0  0  0  0
  150.1899  135.5970  155.1150 C   0  0  0  0  0  0  0  0  0  0  0  0
  152.1286  136.9232  154.4064 N   0  0  0  0  0  0  0  0  0  0  0  0
  152.4441  138.2891  154.4296 O   0  0  0  0  0  0  0  0  0  0  0  0
  151.4286  142.3019  158.9620 C   0  0  0  0  0  0  0  0  0  0  0  0
  154.1045  141.4129  162.3671 H   0  0  0  0  0  0  0  0  0  0  0  0
  154.7108  141.5952  160.7151 H   0  0  0  0  0  0  0  0  0  0  0  0
  153.1857  140.7450  161.0124 H   0  0  0  0  0  0  0  0  0  0  0  0
  153.5152  142.8301  158.8753 H   0  0  0  0  0  0  0  0  0  0  0  0
  151.5336  145.0320  159.5478 H   0  0  0  0  0  0  0  0  0  0  0  0
  153.1138  145.2175  158.7895 H   0  0  0  0  0  0  0  0  0  0  0  0
  150.8574  145.0721  157.2693 H   0  0  0  0  0  0  0  0  0  0  0  0
  152.3415  144.2978  156.7427 H   0  0  0  0  0  0  0  0  0  0  0  0
  149.8367  143.0194  157.6791 H   0  0  0  0  0  0  0  0  0  0  0  0
  151.8562  142.4914  155.7819 H   0  0  0  0  0  0  0  0  0  0  0  0
  149.7927  135.2639  154.1561 H   0  0  0  0  0  0  0  0  0  0  0  0
  149.3595  135.7137  155.8121 H   0  0  0  0  0  0  0  0  0  0  0  0
  150.8578  134.8273  155.5024 H   0  0  0  0  0  0  0  0  0  0  0  0
  151.7000  141.2484  158.8813 H   0  0  0  0  0  0  0  0  0  0  0  0
  150.6352  142.3701  159.7075 H   0  0  0  0  0  0  0  0  0  0  0  0
  1  2  1  0  0  0  0
  1 18  1  0  0  0  0
  1 19  1  0  0  0  0
  1 20  1  0  0  0  0
  2  3  1  0  0  0  0
  3 17  1  0  0  0  0
  3  4  1  0  0  0  0
  3 21  1  0  0  0  0
  4  5  1  0  0  0  0
  4 22  1  0  0  0  0
  4 23  1  0  0  0  0
  5  6  1  0  0  0  0
  5 24  1  0  0  0  0
  5 25  1  0  0  0  0
  6  7  1  0  0  0  0
  6 17  1  0  0  0  0
  6 26  1  0  0  0  0
  7  8  1  0  0  0  0
  7 27  1  0  0  0  0
  8  9  2  0  0  0  0
  8 10  1  0  0  0  0
 10 11  1  0  0  0  0
 11 16  1  0  0  0  0
 11 12  2  0  0  0  0
 12 13  1  0  0  0  0
 13 14  1  0  0  0  0
 13 15  2  0  0  0  0
 14 28  1  0  0  0  0
 14 29  1  0  0  0  0
 14 30  1  0  0  0  0
 15 16  1  0  0  0  0
 17 31  1  0  0  0  0
 17 32  1  0  0  0  0
M  CHG  1  10  -1
M  END
> <s_m_source_file>
AV-unprocessed.smi

> <i_m_source_file_index>
2492

> <i_lp_mmshare_version>
43012

> <i_f3d_flags>
0

> <s_epik_input>
W0NIM11TW0NAQEhdMVtDSDJdW0NIMl1bQ0BIXShbQ0gyXTEpW05IXUMoPU8pW05IXWMybmMoW0NIM10pbm8y

> <s_epik_cmdline>
J2VwaWtfcHl0aG9uJywgJy1waCcsICc3LjAnLCAnLXRuJywgJzgnLCAnLW1hJywgJzIwMCcsICctbWV0YWxfYmluZGluZycsICctaW1hZScsICc8aW5maWxlLm1hZT4nLCAnLW9tYWUnLCAnPG91dGZpbGUubWFlPic=

> <r_lp_tautomer_probability>
1

> <r_epik_Ionization_Penalty>
6.26454

> <r_epik_Ionization_Penalty_Charging>
6.26445

> <r_epik_Ionization_Penalty_Neutral>
9.05726e-05

> <r_epik_State_Penalty>
6.26444

> <r_epik_Charging_Adjusted_Penalty>
12.5289

> <i_epik_Tot_Q>
-1

> <i_epik_Tot_abs_Q>
1

> <r_epik_Metal_State_Penalty>
2.20125

> <b_epik_Metal_Only>
1

> <s_lp_Force_Field>
OPLS_2005

> <r_lp_Energy>
10.5247

> <b_lp_Chiralities_Consistent>
1

> <s_lp_Variant>
AV-unprocessed.smi:2492-5

> <Gold.Version>
5.8.1

> <Gold.Id.Protein>
6NUR|6NUR_protein|mol2

> <Gold.PLP.Fitness>
41.4511

> <Gold.PLP.PLP>
-36.6179

> <Gold.PLP.part.hbond>
-1.8285

> <Gold.PLP.part.metal>
0.0000

> <Gold.PLP.part.buried>
-4.3113

> <Gold.PLP.part.nonpolar>
-31.7462

> <Gold.PLP.part.repulsive>
0.4879

> <Gold.PLP.ligand.clash>
0.0000

> <Gold.PLP.ligand.torsion>
0.5872

> <Gold.PLP.Chemscore.Hbond>
2.0000

> <Gold.PLP.Chemscore.CHOScore>
0.0000

> <Gold.PLP.Chemscore.Metal>
0.0000

> <Gold.Chemscore.Hbonds>
donor molecule, donor type, donor heavy atom, donor atom, acceptor molecule, acceptor atom, score
      P1  H  7989  7998       L1    10  1.00
      P1  H 10752 10763       L1    15  0.89

> <Gold.PLP.Chemscore.Internal.Correction>
0.0075

> <Gold.Rescore>
     Score         DG    S(hbond)    S(metal)    S(lipo)     H(rot)  DE(clash)    DE(int)     intcor
     14.61     -16.86       1.49        0.00      82.54       1.27       0.39       1.85       ----

> <Gold.Chemscore.Fitness>
14.6140

> <Gold.Chemscore.DG>
-16.8601

> <Gold.Chemscore.ZeroCoef>
-5.4800

> <Gold.Chemscore.Hbond>
1.4900

> <Gold.Chemscore.Metal>
0.0000

> <Gold.Chemscore.Lipo>
82.5436

> <Gold.Chemscore.Internal_Hbond>
0.0000

> <Gold.Chemscore.DEClash>
0.3947

> <Gold.Chemscore.DEInternal>
1.8514

> <Gold.Chemscore.Rot>
1.2712

> <Gold.Chemscore.Internal.Correction>
   9.000000E+99

> <Gold.Chemscore.Hbonds>
donor molecule, donor type, donor heavy atom, donor atom, acceptor molecule, acceptor atom, score
      P1  H  7989  7998       L1    10  0.43
      P1  H 10752 10763       L1    15  0.78

> <Gold.Chemscore.Hbond.Weighted>
-4.9767

> <Gold.Chemscore.Metal.Weighted>
-0.0000

> <Gold.Chemscore.Lipo.Weighted>
-9.6576

> <Gold.Chemscore.Internal_Hbond.Weighted>
0.0000

> <Gold.Chemscore.DEClash.Weighted>
0.3947

> <Gold.Chemscore.DEInternal.Weighted>
1.8514

> <Gold.Chemscore.Rot.Weighted>
3.2542

> <Gold.Chemscore.Internal.Correction.Weighted>
   9.000000E+99

> <Gold.Protein.RotatedTorsions>
[ 6907 6896 6895 6894 ] final   81.72 input  -60.11 | X-H torsion
[ 7974 7965 7964 7962 ] final  -88.34 input  175.53 | X-H torsion
[ 8008 7997 7996 7995 ] final -109.46 input   59.86 | X-H torsion
[ 10167 10162 10161 10158 ] final  -21.01 input  -65.29 | X-H torsion
[ 10718 10713 10712 10709 ] final  -40.79 input   66.30 | X-H torsion
[ 10763 10752 10751 10750 ] final   51.04 input  -60.55 | X-H torsion
[ 11005 11000 10999 10996 ] final -176.13 input  -57.11 | X-H torsion

> <Gold.Protein.ActiveResidues>
 VAL166  LYS551  ARG553  GLY616  TRP617  ASP618  TYR619  PRO620  LYS621  CYS622 
 ASP623  PHE694  ASN695  SER759  ASP760  ASP761  ALA762  ILE779  LEU786  VAL792 
 PHE793  MET794  SER795  GLU796  ALA797  LYS798  CYS799  TRP800  GLU811  SER814 

> <Gold.Protein.RotatedAtoms>
  152.5277  134.3160  159.9130 H   0  0  0  0  0  0  0  0  0  0  0  0  # atno 6907 bound_to 6896
  151.3109  133.4074  159.2654 H   0  0  0  0  0  0  0  0  0  0  0  0  # atno 6908 bound_to 6896
  151.0039  134.9360  159.8026 H   0  0  0  0  0  0  0  0  0  0  0  0  # atno 6909 bound_to 6896
  145.4545  140.9561  143.2004 H   0  0  0  0  0  0  0  0  0  0  0  0  # atno 7974 bound_to 7965
  154.9597  140.0399  157.2184 H   0  0  0  0  0  0  0  0  0  0  0  0  # atno 8008 bound_to 7997
  154.7900  140.2834  155.5976 H   0  0  0  0  0  0  0  0  0  0  0  0  # atno 8009 bound_to 7997
  156.2948  140.2575  156.2746 H   0  0  0  0  0  0  0  0  0  0  0  0  # atno 8010 bound_to 7997
  140.7279  143.4668  151.0302 H   0  0  0  0  0  0  0  0  0  0  0  0  # atno 10167 bound_to 10162
  156.2774  130.4213  149.8373 H   0  0  0  0  0  0  0  0  0  0  0  0  # atno 10718 bound_to 10713
  152.9785  135.5859  154.4351 H   0  0  0  0  0  0  0  0  0  0  0  0  # atno 10763 bound_to 10752
  154.3959  135.2768  155.2128 H   0  0  0  0  0  0  0  0  0  0  0  0  # atno 10764 bound_to 10752
  154.3980  135.6110  153.5935 H   0  0  0  0  0  0  0  0  0  0  0  0  # atno 10765 bound_to 10752
  140.4556  134.6303  157.4820 H   0  0  0  0  0  0  0  0  0  0  0  0  # atno 11005 bound_to 11000
  144.8041  139.6085  143.7059 LP  0  0  0  0  0  0  0  0  0  0  0  0  # atno 17320 bound_to 7965
  146.2486  139.6151  142.9443 LP  0  0  0  0  0  0  0  0  0  0  0  0  # atno 17321 bound_to 7965
  139.8357  143.7631  152.3180 LP  0  0  0  0  0  0  0  0  0  0  0  0  # atno 17342 bound_to 10162
  139.7762  144.7460  151.0153 LP  0  0  0  0  0  0  0  0  0  0  0  0  # atno 17343 bound_to 10162
  156.5832  130.8475  151.3388 LP  0  0  0  0  0  0  0  0  0  0  0  0  # atno 17370 bound_to 10713
  157.7304  130.9684  150.1829 LP  0  0  0  0  0  0  0  0  0  0  0  0  # atno 17371 bound_to 10713
  139.9978  134.6883  155.9580 LP  0  0  0  0  0  0  0  0  0  0  0  0  # atno 17394 bound_to 11000
  141.1644  133.6537  156.4430 LP  0  0  0  0  0  0  0  0  0  0  0  0  # atno 17395 bound_to 11000

$$$$
