AV-unprocessed.smi:3335|AV-procd|sdf|12850|dock7
  -GOLD-   2272019243D 1   1.00000     0.00000
 Structure written by MMmdl.
 46 47  0  0  0  0  0  0  0  0  1 V2000
  152.2165  144.9868  159.2579 C   0  0  0  0  0  0  0  0  0  0  0  0
  151.8913  143.5490  158.9732 C   0  0  0  0  0  0  0  0  0  0  0  0
  152.3862  142.3916  159.6370 C   0  0  0  0  0  0  0  0  0  0  0  0
  151.8927  141.2678  159.1452 N   0  0  0  0  0  0  0  0  0  0  0  0
  151.0729  141.6607  158.1439 N   0  0  0  0  0  0  0  0  0  0  0  0
  150.3091  140.6807  157.3737 C   0  0  1  0  0  0  0  0  0  0  0  0
  150.6071  140.7619  155.8632 C   0  0  0  0  0  0  0  0  0  0  0  0
  150.4143  139.2394  157.9436 C   0  0  2  0  0  0  0  0  0  0  0  0
  151.8483  138.6830  157.8280 C   0  0  0  0  0  0  0  0  0  0  0  0
  149.4314  138.3794  157.2773 N   0  0  0  0  0  0  0  0  0  0  0  0
  148.2678  137.9498  158.0736 C   0  0  1  0  0  0  0  0  0  0  0  0
  147.1468  137.4922  157.1280 C   0  0  0  0  0  0  0  0  0  0  0  0
  148.6094  136.8056  159.0514 C   0  0  0  0  0  0  0  0  0  0  0  0
  149.7545  136.3501  159.0520 O   0  0  0  0  0  0  0  0  0  0  0  0
  147.6577  136.3367  159.8874 N   0  0  0  0  0  0  0  0  0  0  0  0
  147.9097  135.2882  160.8745 C   0  0  0  0  0  0  0  0  0  0  0  0
  146.6683  135.2470  161.7650 C   0  0  0  0  0  0  0  0  0  0  0  0
  145.5567  135.7843  160.8757 C   0  0  0  0  0  0  0  0  0  0  0  0
  146.2639  136.7756  159.9517 C   0  0  0  0  0  0  0  0  0  0  0  0
  151.0504  143.0359  158.0270 C   0  0  0  0  0  0  0  0  0  0  0  0
  152.8786  145.0905  160.1178 H   0  0  0  0  0  0  0  0  0  0  0  0
  151.3189  145.5666  159.4725 H   0  0  0  0  0  0  0  0  0  0  0  0
  152.7127  145.4615  158.4115 H   0  0  0  0  0  0  0  0  0  0  0  0
  153.0826  142.3352  160.4606 H   0  0  0  0  0  0  0  0  0  0  0  0
  149.2635  140.9753  157.4769 H   0  0  0  0  0  0  0  0  0  0  0  0
  149.9549  140.0928  155.3014 H   0  0  0  0  0  0  0  0  0  0  0  0
  151.6367  140.4874  155.6325 H   0  0  0  0  0  0  0  0  0  0  0  0
  150.4426  141.7718  155.4869 H   0  0  0  0  0  0  0  0  0  0  0  0
  150.1569  139.2930  159.0023 H   0  0  0  0  0  0  0  0  0  0  0  0
  152.5772  139.4103  158.1857 H   0  0  0  0  0  0  0  0  0  0  0  0
  152.1062  138.4365  156.7976 H   0  0  0  0  0  0  0  0  0  0  0  0
  151.9839  137.7881  158.4337 H   0  0  0  0  0  0  0  0  0  0  0  0
  149.8767  137.6109  156.7950 H   0  0  0  0  0  0  0  0  0  0  0  0
  147.8970  138.8216  158.6104 H   0  0  0  0  0  0  0  0  0  0  0  0
  146.2571  137.1919  157.6831 H   0  0  0  0  0  0  0  0  0  0  0  0
  147.4577  136.6451  156.5146 H   0  0  0  0  0  0  0  0  0  0  0  0
  146.8527  138.2971  156.4536 H   0  0  0  0  0  0  0  0  0  0  0  0
  148.0427  134.3372  160.3568 H   0  0  0  0  0  0  0  0  0  0  0  0
  148.8087  135.4844  161.4609 H   0  0  0  0  0  0  0  0  0  0  0  0
  146.4577  134.2494  162.1512 H   0  0  0  0  0  0  0  0  0  0  0  0
  146.8074  135.9135  162.6171 H   0  0  0  0  0  0  0  0  0  0  0  0
  145.1369  134.9692  160.2848 H   0  0  0  0  0  0  0  0  0  0  0  0
  144.7439  136.2394  161.4420 H   0  0  0  0  0  0  0  0  0  0  0  0
  146.2256  137.7808  160.3742 H   0  0  0  0  0  0  0  0  0  0  0  0
  145.7920  136.7967  158.9685 H   0  0  0  0  0  0  0  0  0  0  0  0
  150.4380  143.5320  157.2886 H   0  0  0  0  0  0  0  0  0  0  0  0
  1  2  1  0  0  0  0
  1 21  1  0  0  0  0
  1 22  1  0  0  0  0
  1 23  1  0  0  0  0
  2 20  2  0  0  0  0
  2  3  1  0  0  0  0
  3  4  2  0  0  0  0
  3 24  1  0  0  0  0
  4  5  1  0  0  0  0
  5  6  1  0  0  0  0
  5 20  1  0  0  0  0
  6  7  1  0  0  0  0
  6  8  1  0  0  0  0
  6 25  1  0  0  0  0
  7 26  1  0  0  0  0
  7 27  1  0  0  0  0
  7 28  1  0  0  0  0
  8  9  1  0  0  0  0
  8 10  1  0  0  0  0
  8 29  1  0  0  0  0
  9 30  1  0  0  0  0
  9 31  1  0  0  0  0
  9 32  1  0  0  0  0
 10 11  1  0  0  0  0
 10 33  1  0  0  0  0
 11 12  1  0  0  0  0
 11 13  1  0  0  0  0
 11 34  1  0  0  0  0
 12 35  1  0  0  0  0
 12 36  1  0  0  0  0
 12 37  1  0  0  0  0
 13 14  2  0  0  0  0
 13 15  1  0  0  0  0
 15 19  1  0  0  0  0
 15 16  1  0  0  0  0
 16 17  1  0  0  0  0
 16 38  1  0  0  0  0
 16 39  1  0  0  0  0
 17 18  1  0  0  0  0
 17 40  1  0  0  0  0
 17 41  1  0  0  0  0
 18 19  1  0  0  0  0
 18 42  1  0  0  0  0
 18 43  1  0  0  0  0
 19 44  1  0  0  0  0
 19 45  1  0  0  0  0
 20 46  1  0  0  0  0
M  END
> <s_m_source_file>
AV-unprocessed.smi

> <i_m_source_file_index>
3335

> <i_lp_mmshare_version>
43012

> <i_f3d_flags>
0

> <s_epik_input>
W0NIM11jMVtjSF1ubihbY0hdMSlbQ0BIXShbQ0gzXSlbQ0BIXShbQ0gzXSlbTkhdW0NASF0oW0NIM10pQyg9TylOMltDSDJdW0NIMl1bQ0gyXVtDSDJdMg==

> <s_epik_cmdline>
J2VwaWtfcHl0aG9uJywgJy1waCcsICc3LjAnLCAnLXRuJywgJzgnLCAnLW1hJywgJzIwMCcsICctbWV0YWxfYmluZGluZycsICctaW1hZScsICc8aW5maWxlLm1hZT4nLCAnLW9tYWUnLCAnPG91dGZpbGUubWFlPic=

> <r_lp_tautomer_probability>
1

> <r_epik_Ionization_Penalty>
0.918803

> <r_epik_Ionization_Penalty_Charging>
0

> <r_epik_Ionization_Penalty_Neutral>
0.918803

> <r_epik_State_Penalty>
0.958258

> <r_epik_Charging_Adjusted_Penalty>
0.958258

> <i_epik_Tot_Q>
0

> <i_epik_Tot_abs_Q>
0

> <r_epik_Metal_State_Penalty>
0.956786

> <b_epik_Metal_Only>
0

> <s_lp_Force_Field>
OPLS_2005

> <r_lp_Energy>
40.2433

> <b_lp_Chiralities_Consistent>
1

> <s_lp_Variant>
AV-unprocessed.smi:3335-14

> <Gold.Version>
5.8.1

> <Gold.Id.Protein>
6NUR|6NUR_protein|mol2

> <Gold.PLP.Fitness>
40.6908

> <Gold.PLP.PLP>
-36.4229

> <Gold.PLP.part.hbond>
-1.0000

> <Gold.PLP.part.metal>
0.0000

> <Gold.PLP.part.buried>
-5.6618

> <Gold.PLP.part.nonpolar>
-30.1218

> <Gold.PLP.part.repulsive>
0.0000

> <Gold.PLP.ligand.clash>
0.0000

> <Gold.PLP.ligand.torsion>
0.9878

> <Gold.PLP.Chemscore.Hbond>
1.0000

> <Gold.PLP.Chemscore.CHOScore>
1.0000

> <Gold.PLP.Chemscore.Metal>
0.0000

> <Gold.Chemscore.Hbonds>
donor molecule, donor type, donor heavy atom, donor atom, acceptor molecule, acceptor atom, score
      P1  H  6896  6907       L1    14  1.00
      L1  C    20    46       P1  8028  1.00

> <Gold.PLP.Chemscore.Internal.Correction>
0.2435

> <Gold.Rescore>
     Score         DG    S(hbond)    S(metal)    S(lipo)     H(rot)  DE(clash)    DE(int)     intcor
     12.80     -15.83       1.00        0.00      95.41       1.62       0.03       3.01       ----

> <Gold.Chemscore.Fitness>
12.7969

> <Gold.Chemscore.DG>
-15.8349

> <Gold.Chemscore.ZeroCoef>
-5.4800

> <Gold.Chemscore.Hbond>
1.0000

> <Gold.Chemscore.Metal>
0.0000

> <Gold.Chemscore.Lipo>
95.4107

> <Gold.Chemscore.Internal_Hbond>
0.0000

> <Gold.Chemscore.DEClash>
0.0276

> <Gold.Chemscore.DEInternal>
3.0103

> <Gold.Chemscore.Rot>
1.6204

> <Gold.Chemscore.Internal.Correction>
   9.000000E+99

> <Gold.Chemscore.Hbonds>
donor molecule, donor type, donor heavy atom, donor atom, acceptor molecule, acceptor atom, score
      P1  H  6896  6907       L1    14  0.99

> <Gold.Chemscore.Hbond.Weighted>
-3.3400

> <Gold.Chemscore.Metal.Weighted>
-0.0000

> <Gold.Chemscore.Lipo.Weighted>
-11.1630

> <Gold.Chemscore.Internal_Hbond.Weighted>
0.0000

> <Gold.Chemscore.DEClash.Weighted>
0.0276

> <Gold.Chemscore.DEInternal.Weighted>
3.0103

> <Gold.Chemscore.Rot.Weighted>
4.1482

> <Gold.Chemscore.Internal.Correction.Weighted>
   9.000000E+99

> <Gold.Protein.RotatedTorsions>
[ 6907 6896 6895 6894 ] final  -53.15 input  -60.11 | X-H torsion
[ 7974 7965 7964 7962 ] final  -17.49 input  175.53 | X-H torsion
[ 8008 7997 7996 7995 ] final   74.83 input   59.86 | X-H torsion
[ 10167 10162 10161 10158 ] final -175.72 input  -65.29 | X-H torsion
[ 10718 10713 10712 10709 ] final  134.74 input   66.30 | X-H torsion
[ 10763 10752 10751 10750 ] final -164.98 input  -60.55 | X-H torsion
[ 11005 11000 10999 10996 ] final   27.46 input  -57.11 | X-H torsion

> <Gold.Protein.ActiveResidues>
 VAL166  LYS551  ARG553  GLY616  TRP617  ASP618  TYR619  PRO620  LYS621  CYS622 
 ASP623  PHE694  ASN695  SER759  ASP760  ASP761  ALA762  ILE779  LEU786  VAL792 
 PHE793  MET794  SER795  GLU796  ALA797  LYS798  CYS799  TRP800  GLU811  SER814 

> <Gold.Protein.RotatedAtoms>
  150.8453  134.7759  159.6964 H   0  0  0  0  0  0  0  0  0  0  0  0  # atno 6907 bound_to 6896
  152.4531  134.5347  159.9831 H   0  0  0  0  0  0  0  0  0  0  0  0  # atno 6908 bound_to 6896
  151.5479  133.3384  159.2983 H   0  0  0  0  0  0  0  0  0  0  0  0  # atno 6909 bound_to 6896
  146.1938  140.3786  142.8448 H   0  0  0  0  0  0  0  0  0  0  0  0  # atno 7974 bound_to 7965
  155.8040  140.3475  155.5419 H   0  0  0  0  0  0  0  0  0  0  0  0  # atno 8008 bound_to 7997
  155.8509  140.0956  157.1696 H   0  0  0  0  0  0  0  0  0  0  0  0  # atno 8009 bound_to 7997
  154.4008  140.1376  156.3830 H   0  0  0  0  0  0  0  0  0  0  0  0  # atno 8010 bound_to 7997
  139.5566  144.1973  152.1170 H   0  0  0  0  0  0  0  0  0  0  0  0  # atno 10167 bound_to 10162
  157.4642  131.1075  150.9882 H   0  0  0  0  0  0  0  0  0  0  0  0  # atno 10718 bound_to 10713
  154.6976  135.2982  154.9389 H   0  0  0  0  0  0  0  0  0  0  0  0  # atno 10763 bound_to 10752
  154.0332  135.6667  153.4786 H   0  0  0  0  0  0  0  0  0  0  0  0  # atno 10764 bound_to 10752
  153.0657  135.5089  154.8102 H   0  0  0  0  0  0  0  0  0  0  0  0  # atno 10765 bound_to 10752
  140.3260  134.2490  155.7709 H   0  0  0  0  0  0  0  0  0  0  0  0  # atno 11005 bound_to 11000
  144.8540  140.7043  143.6150 LP  0  0  0  0  0  0  0  0  0  0  0  0  # atno 17320 bound_to 7965
  145.3707  139.1659  143.4333 LP  0  0  0  0  0  0  0  0  0  0  0  0  # atno 17321 bound_to 7965
  140.1479  144.5142  150.6705 LP  0  0  0  0  0  0  0  0  0  0  0  0  # atno 17342 bound_to 10162
  140.6840  143.2340  151.5310 LP  0  0  0  0  0  0  0  0  0  0  0  0  # atno 17343 bound_to 10162
  157.0669  130.5848  149.5395 LP  0  0  0  0  0  0  0  0  0  0  0  0  # atno 17370 bound_to 10713
  156.0043  130.5127  150.7773 LP  0  0  0  0  0  0  0  0  0  0  0  0  # atno 17371 bound_to 10713
  141.2075  133.7804  157.0115 LP  0  0  0  0  0  0  0  0  0  0  0  0  # atno 17394 bound_to 11000
  140.0901  134.9597  157.1762 LP  0  0  0  0  0  0  0  0  0  0  0  0  # atno 17395 bound_to 11000

$$$$
