AV-unprocessed.smi:1836|AV-procd|sdf|7477|dock3
  -GOLD-   22720 9173D 1   1.00000     0.00000
 Structure written by MMmdl.
 33 34  0  0  0  0  0  0  0  0  1 V2000
  148.9244  140.2562  154.0567 C   0  0  0  0  0  0  0  0  0  0  0  0
  148.0507  141.2660  154.8140 C   0  0  2  0  0  0  0  0  0  0  0  0
  147.1361  142.0472  153.8447 C   0  0  0  0  0  0  0  0  0  0  0  0
  146.0286  142.7030  154.5385 N   0  0  0  0  0  0  0  0  0  0  0  0
  145.5692  142.2130  155.8272 C   0  0  0  0  0  0  0  0  0  0  0  0
  144.5661  143.2663  156.3177 C   0  0  0  0  0  0  0  0  0  0  0  0
  144.2267  144.1191  155.0905 C   0  0  0  0  0  0  0  0  0  0  0  0
  145.2916  143.7232  154.0822 C   0  0  0  0  0  0  0  0  0  0  0  0
  145.4289  144.2916  152.9999 O   0  0  0  0  0  0  0  0  0  0  0  0
  148.9348  142.1788  155.5363 N   0  0  0  0  0  0  0  0  0  0  0  0
  149.9338  141.8142  156.3537 C   0  0  0  0  0  0  0  0  0  0  0  0
  150.2333  140.6421  156.5820 O   0  0  0  0  0  0  0  0  0  0  0  0
  150.5417  142.8877  156.8832 N   0  0  0  0  0  0  0  0  0  0  0  0
  151.5992  142.9133  157.8259 C   0  0  0  0  0  0  0  0  0  0  0  0
  151.9834  141.7529  158.3708 N   0  0  0  0  0  0  0  0  0  0  0  0
  153.0260  141.9217  159.2737 N   0  0  0  0  0  0  0  0  0  0  0  0
  153.3898  143.2039  159.3720 C   0  0  0  0  0  0  0  0  0  0  0  0
  152.4964  144.3340  158.3701 S   0  0  0  0  0  0  0  0  0  0  0  0
  148.3112  139.5291  153.5234 H   0  0  0  0  0  0  0  0  0  0  0  0
  149.5673  139.7012  154.7409 H   0  0  0  0  0  0  0  0  0  0  0  0
  149.5643  140.7518  153.3256 H   0  0  0  0  0  0  0  0  0  0  0  0
  147.4331  140.6958  155.5104 H   0  0  0  0  0  0  0  0  0  0  0  0
  147.7110  142.7698  153.2625 H   0  0  0  0  0  0  0  0  0  0  0  0
  146.7029  141.3591  153.1172 H   0  0  0  0  0  0  0  0  0  0  0  0
  145.0855  141.2445  155.6925 H   0  0  0  0  0  0  0  0  0  0  0  0
  146.3981  142.0877  156.5249 H   0  0  0  0  0  0  0  0  0  0  0  0
  143.6796  142.8065  156.7556 H   0  0  0  0  0  0  0  0  0  0  0  0
  145.0253  143.8905  157.0854 H   0  0  0  0  0  0  0  0  0  0  0  0
  143.2409  143.8741  154.6943 H   0  0  0  0  0  0  0  0  0  0  0  0
  144.2630  145.1869  155.3089 H   0  0  0  0  0  0  0  0  0  0  0  0
  148.7604  143.1658  155.4153 H   0  0  0  0  0  0  0  0  0  0  0  0
  150.2002  143.7911  156.5904 H   0  0  0  0  0  0  0  0  0  0  0  0
  154.1913  143.4855  160.0388 H   0  0  0  0  0  0  0  0  0  0  0  0
  1  2  1  0  0  0  0
  1 19  1  0  0  0  0
  1 20  1  0  0  0  0
  1 21  1  0  0  0  0
  2  3  1  0  0  0  0
  2 10  1  0  0  0  0
  2 22  1  0  0  0  0
  3  4  1  0  0  0  0
  3 23  1  0  0  0  0
  3 24  1  0  0  0  0
  4  8  1  0  0  0  0
  4  5  1  0  0  0  0
  5  6  1  0  0  0  0
  5 25  1  0  0  0  0
  5 26  1  0  0  0  0
  6  7  1  0  0  0  0
  6 27  1  0  0  0  0
  6 28  1  0  0  0  0
  7  8  1  0  0  0  0
  7 29  1  0  0  0  0
  7 30  1  0  0  0  0
  8  9  2  0  0  0  0
 10 11  1  0  0  0  0
 10 31  1  0  0  0  0
 11 12  2  0  0  0  0
 11 13  1  0  0  0  0
 13 14  1  0  0  0  0
 13 32  1  0  0  0  0
 14 18  1  0  0  0  0
 14 15  2  0  0  0  0
 15 16  1  0  0  0  0
 16 17  2  0  0  0  0
 17 18  1  0  0  0  0
 17 33  1  0  0  0  0
M  END
> <s_m_source_file>
AV-unprocessed.smi

> <i_m_source_file_index>
1836

> <i_lp_mmshare_version>
43012

> <i_f3d_flags>
0

> <s_epik_input>
Tz1DMVtDSDJdW0NIMl1bQ0gyXU4xW0NIMl1bQ0BASF0oW0NIM10pW05IXUMoPU8pW05IXWMybm5bY0hdczI=

> <s_epik_cmdline>
J2VwaWtfcHl0aG9uJywgJy1waCcsICc3LjAnLCAnLXRuJywgJzgnLCAnLW1hJywgJzIwMCcsICctbWV0YWxfYmluZGluZycsICctaW1hZScsICc8aW5maWxlLm1hZT4nLCAnLW9tYWUnLCAnPG91dGZpbGUubWFlPic=

> <r_lp_tautomer_probability>
1

> <r_epik_Ionization_Penalty>
0.00192022

> <r_epik_Ionization_Penalty_Charging>
0

> <r_epik_Ionization_Penalty_Neutral>
0.00192022

> <r_epik_State_Penalty>
-0

> <r_epik_Charging_Adjusted_Penalty>
0

> <i_epik_Tot_Q>
0

> <i_epik_Tot_abs_Q>
0

> <r_epik_Metal_State_Penalty>
0.336618

> <b_epik_Metal_Only>
0

> <s_lp_Force_Field>
OPLS_2005

> <r_lp_Energy>
16.7835

> <b_lp_Chiralities_Consistent>
1

> <s_lp_Variant>
AV-unprocessed.smi:1836-1

> <Gold.Version>
5.8.1

> <Gold.Id.Protein>
6NUR|6NUR_protein|mol2

> <Gold.PLP.Fitness>
41.0363

> <Gold.PLP.PLP>
-36.2571

> <Gold.PLP.part.hbond>
-2.9229

> <Gold.PLP.part.metal>
0.0000

> <Gold.PLP.part.buried>
-5.1008

> <Gold.PLP.part.nonpolar>
-28.9717

> <Gold.PLP.part.repulsive>
0.4068

> <Gold.PLP.ligand.clash>
0.0000

> <Gold.PLP.ligand.torsion>
0.5191

> <Gold.PLP.Chemscore.Hbond>
1.9280

> <Gold.PLP.Chemscore.CHOScore>
0.0000

> <Gold.PLP.Chemscore.Metal>
0.0000

> <Gold.Chemscore.Hbonds>
donor molecule, donor type, donor heavy atom, donor atom, acceptor molecule, acceptor atom, score
      L1  H    10    31       P1  8028  1.00
      L1  H    13    32       P1  8028  0.94

> <Gold.PLP.Chemscore.Internal.Correction>
0.0334

> <Gold.Rescore>
     Score         DG    S(hbond)    S(metal)    S(lipo)     H(rot)  DE(clash)    DE(int)     intcor
     10.79     -14.17       1.95        0.00      56.95       1.76       0.04       3.34       ----

> <Gold.Chemscore.Fitness>
10.7925

> <Gold.Chemscore.DG>
-14.1680

> <Gold.Chemscore.ZeroCoef>
-5.4800

> <Gold.Chemscore.Hbond>
1.9531

> <Gold.Chemscore.Metal>
0.0000

> <Gold.Chemscore.Lipo>
56.9466

> <Gold.Chemscore.Internal_Hbond>
0.0000

> <Gold.Chemscore.DEClash>
0.0388

> <Gold.Chemscore.DEInternal>
3.3367

> <Gold.Chemscore.Rot>
1.7571

> <Gold.Chemscore.Internal.Correction>
   9.000000E+99

> <Gold.Chemscore.Hbonds>
donor molecule, donor type, donor heavy atom, donor atom, acceptor molecule, acceptor atom, score
      L1  H    10    31       P1  8028  0.96
      L1  H    13    32       P1  8028  0.92

> <Gold.Chemscore.Hbond.Weighted>
-6.5235

> <Gold.Chemscore.Metal.Weighted>
-0.0000

> <Gold.Chemscore.Lipo.Weighted>
-6.6627

> <Gold.Chemscore.Internal_Hbond.Weighted>
0.0000

> <Gold.Chemscore.DEClash.Weighted>
0.0388

> <Gold.Chemscore.DEInternal.Weighted>
3.3367

> <Gold.Chemscore.Rot.Weighted>
4.4983

> <Gold.Chemscore.Internal.Correction.Weighted>
   9.000000E+99

> <Gold.Protein.RotatedTorsions>
[ 6907 6896 6895 6894 ] final -174.50 input  -60.11 | X-H torsion
[ 7974 7965 7964 7962 ] final   82.09 input  175.53 | X-H torsion
[ 8008 7997 7996 7995 ] final   89.67 input   59.86 | X-H torsion
[ 10167 10162 10161 10158 ] final -109.96 input  -65.29 | X-H torsion
[ 10718 10713 10712 10709 ] final  -32.95 input   66.30 | X-H torsion
[ 10763 10752 10751 10750 ] final  -82.66 input  -60.55 | X-H torsion
[ 11005 11000 10999 10996 ] final -104.92 input  -57.11 | X-H torsion

> <Gold.Protein.ActiveResidues>
 VAL166  LYS551  ARG553  GLY616  TRP617  ASP618  TYR619  PRO620  LYS621  CYS622 
 ASP623  PHE694  ASN695  SER759  ASP760  ASP761  ALA762  ILE779  LEU786  VAL792 
 PHE793  MET794  SER795  GLU796  ALA797  LYS798  CYS799  TRP800  GLU811  SER814 

> <Gold.Protein.RotatedAtoms>
  151.5734  133.3387  159.2993 H   0  0  0  0  0  0  0  0  0  0  0  0  # atno 6907 bound_to 6896
  150.8354  134.7628  159.6900 H   0  0  0  0  0  0  0  0  0  0  0  0  # atno 6908 bound_to 6896
  152.4431  134.5556  159.9931 H   0  0  0  0  0  0  0  0  0  0  0  0  # atno 6909 bound_to 6896
  145.6297  139.2402  143.2092 H   0  0  0  0  0  0  0  0  0  0  0  0  # atno 7974 bound_to 7965
  156.0028  140.3358  155.6862 H   0  0  0  0  0  0  0  0  0  0  0  0  # atno 8008 bound_to 7997
  155.6266  140.0680  157.2679 H   0  0  0  0  0  0  0  0  0  0  0  0  # atno 8009 bound_to 7997
  154.4255  140.1767  156.1416 H   0  0  0  0  0  0  0  0  0  0  0  0  # atno 8010 bound_to 7997
  140.1496  143.4210  152.1504 H   0  0  0  0  0  0  0  0  0  0  0  0  # atno 10167 bound_to 10162
  156.3686  130.4336  149.7564 H   0  0  0  0  0  0  0  0  0  0  0  0  # atno 10718 bound_to 10713
  154.5785  135.5583  153.7162 H   0  0  0  0  0  0  0  0  0  0  0  0  # atno 10763 bound_to 10752
  153.0073  135.6314  154.2016 H   0  0  0  0  0  0  0  0  0  0  0  0  # atno 10764 bound_to 10752
  154.1956  135.2880  155.2987 H   0  0  0  0  0  0  0  0  0  0  0  0  # atno 10765 bound_to 10752
  141.1078  133.8764  157.1670 H   0  0  0  0  0  0  0  0  0  0  0  0  # atno 11005 bound_to 11000
  146.1366  140.7114  142.9386 LP  0  0  0  0  0  0  0  0  0  0  0  0  # atno 17320 bound_to 7965
  144.7198  140.4336  143.7016 LP  0  0  0  0  0  0  0  0  0  0  0  0  # atno 17321 bound_to 7965
  139.5432  144.7275  151.4666 LP  0  0  0  0  0  0  0  0  0  0  0  0  # atno 17342 bound_to 10162
  140.6710  143.8293  150.7000 LP  0  0  0  0  0  0  0  0  0  0  0  0  # atno 17343 bound_to 10162
  156.4700  130.7992  151.3010 LP  0  0  0  0  0  0  0  0  0  0  0  0  # atno 17370 bound_to 10713
  157.7481  131.0039  150.3054 LP  0  0  0  0  0  0  0  0  0  0  0  0  # atno 17371 bound_to 10713
  139.9956  135.0048  157.0075 LP  0  0  0  0  0  0  0  0  0  0  0  0  # atno 17394 bound_to 11000
  140.4856  134.1245  155.7224 LP  0  0  0  0  0  0  0  0  0  0  0  0  # atno 17395 bound_to 11000

$$$$
