AV-unprocessed.smi:3272|AV-procd|sdf|12519|dock9
  -GOLD-   2272018433D 1   1.00000     0.00000
 Structure written by MMmdl.
 35 36  0  0  0  0  0  0  0  0  1 V2000
  151.2882  141.5865  157.5425 C   0  0  0  0  0  0  0  0  0  0  0  0
  150.6979  141.9707  156.1807 C   0  0  0  0  0  0  0  0  0  0  0  0
  150.3635  140.8015  155.3913 N   0  0  0  0  0  0  0  0  0  0  0  0
  149.1273  140.4266  154.9039 C   0  0  0  0  0  0  0  0  0  0  0  0
  149.3367  139.2600  154.2244 C   0  0  0  0  0  0  0  0  0  0  0  0
  148.4083  138.4463  153.5269 N   0  0  0  0  0  0  0  0  0  0  0  0
  147.0682  138.5314  153.5557 C   0  0  0  0  0  0  0  0  0  0  0  0
  146.4262  139.3581  154.2040 O   0  0  0  0  0  0  0  0  0  0  0  0
  146.5032  137.5886  152.7878 N   0  0  0  0  0  0  0  0  0  0  0  0
  145.0676  137.3868  152.6160 C   0  0  0  0  0  0  0  0  0  0  0  0
  144.7486  135.9838  152.0657 C   0  0  1  0  0  0  0  0  0  0  0  0
  145.4984  135.5957  150.8054 C   0  0  0  0  0  0  0  0  0  0  0  0
  145.3575  134.0766  150.8073 C   0  0  0  0  0  0  0  0  0  0  0  0
  145.2828  133.6924  152.1773 O   0  0  0  0  0  0  0  0  0  0  0  0
  145.1543  134.8465  153.0024 C   0  0  0  0  0  0  0  0  0  0  0  0
  150.7248  138.9882  154.3403 C   0  0  0  0  0  0  0  0  0  0  0  0
  151.3388  139.9243  155.0476 N   0  0  0  0  0  0  0  0  0  0  0  0
  151.5450  142.4757  158.1182 H   0  0  0  0  0  0  0  0  0  0  0  0
  152.1950  140.9924  157.4245 H   0  0  0  0  0  0  0  0  0  0  0  0
  150.5789  141.0034  158.1308 H   0  0  0  0  0  0  0  0  0  0  0  0
  149.7999  142.5758  156.3121 H   0  0  0  0  0  0  0  0  0  0  0  0
  151.4097  142.5776  155.6199 H   0  0  0  0  0  0  0  0  0  0  0  0
  148.2384  141.0133  155.0821 H   0  0  0  0  0  0  0  0  0  0  0  0
  148.8067  137.7159  152.9552 H   0  0  0  0  0  0  0  0  0  0  0  0
  147.1120  136.9546  152.2910 H   0  0  0  0  0  0  0  0  0  0  0  0
  144.5341  137.5649  153.5514 H   0  0  0  0  0  0  0  0  0  0  0  0
  144.7093  138.1409  151.9150 H   0  0  0  0  0  0  0  0  0  0  0  0
  143.6773  135.9060  151.8719 H   0  0  0  0  0  0  0  0  0  0  0  0
  145.0938  136.0558  149.9035 H   0  0  0  0  0  0  0  0  0  0  0  0
  146.5503  135.8732  150.8879 H   0  0  0  0  0  0  0  0  0  0  0  0
  144.4306  133.7802  150.3147 H   0  0  0  0  0  0  0  0  0  0  0  0
  146.1847  133.5821  150.2977 H   0  0  0  0  0  0  0  0  0  0  0  0
  146.1235  135.0499  153.4602 H   0  0  0  0  0  0  0  0  0  0  0  0
  144.4309  134.6850  153.8018 H   0  0  0  0  0  0  0  0  0  0  0  0
  151.2955  138.1612  153.9443 H   0  0  0  0  0  0  0  0  0  0  0  0
  1  2  1  0  0  0  0
  1 18  1  0  0  0  0
  1 19  1  0  0  0  0
  1 20  1  0  0  0  0
  2  3  1  0  0  0  0
  2 21  1  0  0  0  0
  2 22  1  0  0  0  0
  3 17  1  0  0  0  0
  3  4  1  0  0  0  0
  4  5  2  0  0  0  0
  4 23  1  0  0  0  0
  5  6  1  0  0  0  0
  5 16  1  0  0  0  0
  6  7  1  0  0  0  0
  6 24  1  0  0  0  0
  7  8  2  0  0  0  0
  7  9  1  0  0  0  0
  9 10  1  0  0  0  0
  9 25  1  0  0  0  0
 10 11  1  0  0  0  0
 10 26  1  0  0  0  0
 10 27  1  0  0  0  0
 11 15  1  0  0  0  0
 11 12  1  0  0  0  0
 11 28  1  0  0  0  0
 12 13  1  0  0  0  0
 12 29  1  0  0  0  0
 12 30  1  0  0  0  0
 13 14  1  0  0  0  0
 13 31  1  0  0  0  0
 13 32  1  0  0  0  0
 14 15  1  0  0  0  0
 15 33  1  0  0  0  0
 15 34  1  0  0  0  0
 16 17  2  0  0  0  0
 16 35  1  0  0  0  0
M  END
> <s_m_source_file>
AV-unprocessed.smi

> <i_m_source_file_index>
3272

> <i_lp_mmshare_version>
43012

> <i_f3d_flags>
0

> <s_epik_input>
W0NIM11bQ0gyXW4xW2NIXWMoW2NIXW4xKVtOSF1DKD1PKVtOSF1bQ0gyXVtDQEBIXTJbQ0gyXVtDSDJdT1tDSDJdMg==

> <s_epik_cmdline>
J2VwaWtfcHl0aG9uJywgJy1waCcsICc3LjAnLCAnLXRuJywgJzgnLCAnLW1hJywgJzIwMCcsICctbWV0YWxfYmluZGluZycsICctaW1hZScsICc8aW5maWxlLm1hZT4nLCAnLW9tYWUnLCAnPG91dGZpbGUubWFlPic=

> <r_lp_tautomer_probability>
1

> <r_epik_Ionization_Penalty>
0.000182896

> <r_epik_Ionization_Penalty_Charging>
0

> <r_epik_Ionization_Penalty_Neutral>
0.000182896

> <r_epik_State_Penalty>
-0

> <r_epik_Charging_Adjusted_Penalty>
0

> <i_epik_Tot_Q>
0

> <i_epik_Tot_abs_Q>
0

> <r_epik_Metal_State_Penalty>
-0

> <b_epik_Metal_Only>
0

> <s_lp_Force_Field>
OPLS_2005

> <r_lp_Energy>
22.1585

> <b_lp_Chiralities_Consistent>
1

> <s_lp_Variant>
AV-unprocessed.smi:3272-2

> <Gold.Version>
5.8.1

> <Gold.Id.Protein>
6NUR|6NUR_protein|mol2

> <Gold.PLP.Fitness>
36.2142

> <Gold.PLP.PLP>
-29.7319

> <Gold.PLP.part.hbond>
-3.8169

> <Gold.PLP.part.metal>
0.0000

> <Gold.PLP.part.buried>
-3.6990

> <Gold.PLP.part.nonpolar>
-23.0626

> <Gold.PLP.part.repulsive>
0.3106

> <Gold.PLP.ligand.clash>
0.0000

> <Gold.PLP.ligand.torsion>
0.1747

> <Gold.PLP.Chemscore.Hbond>
2.2750

> <Gold.PLP.Chemscore.CHOScore>
0.0000

> <Gold.PLP.Chemscore.Metal>
0.0000

> <Gold.Chemscore.Hbonds>
donor molecule, donor type, donor heavy atom, donor atom, acceptor molecule, acceptor atom, score
      L1  H     6    24       P1  7948  1.00
      L1  H     9    25       P1  7948  1.00
      P1  H  7989  7998       L1    17  0.25

> <Gold.PLP.Chemscore.Internal.Correction>
0.0068

> <Gold.Rescore>
     Score         DG    S(hbond)    S(metal)    S(lipo)     H(rot)  DE(clash)    DE(int)     intcor
     14.35     -15.64       1.97        0.00      61.52       1.41       0.03       1.26       ----

> <Gold.Chemscore.Fitness>
14.3468

> <Gold.Chemscore.DG>
-15.6409

> <Gold.Chemscore.ZeroCoef>
-5.4800

> <Gold.Chemscore.Hbond>
1.9651

> <Gold.Chemscore.Metal>
0.0000

> <Gold.Chemscore.Lipo>
61.5215

> <Gold.Chemscore.Internal_Hbond>
0.0000

> <Gold.Chemscore.DEClash>
0.0319

> <Gold.Chemscore.DEInternal>
1.2622

> <Gold.Chemscore.Rot>
1.4064

> <Gold.Chemscore.Internal.Correction>
   9.000000E+99

> <Gold.Chemscore.Hbonds>
donor molecule, donor type, donor heavy atom, donor atom, acceptor molecule, acceptor atom, score
      L1  H     6    24       P1  7948  1.00
      L1  H     9    25       P1  7948  0.92

> <Gold.Chemscore.Hbond.Weighted>
-6.5633

> <Gold.Chemscore.Metal.Weighted>
-0.0000

> <Gold.Chemscore.Lipo.Weighted>
-7.1980

> <Gold.Chemscore.Internal_Hbond.Weighted>
0.0000

> <Gold.Chemscore.DEClash.Weighted>
0.0319

> <Gold.Chemscore.DEInternal.Weighted>
1.2622

> <Gold.Chemscore.Rot.Weighted>
3.6004

> <Gold.Chemscore.Internal.Correction.Weighted>
   9.000000E+99

> <Gold.Protein.RotatedTorsions>
[ 6907 6896 6895 6894 ] final -165.86 input  -60.11 | X-H torsion
[ 7974 7965 7964 7962 ] final   -9.95 input  175.53 | X-H torsion
[ 8008 7997 7996 7995 ] final    5.70 input   59.86 | X-H torsion
[ 10167 10162 10161 10158 ] final   59.23 input  -65.29 | X-H torsion
[ 10718 10713 10712 10709 ] final  -57.56 input   66.30 | X-H torsion
[ 10763 10752 10751 10750 ] final   68.23 input  -60.55 | X-H torsion
[ 11005 11000 10999 10996 ] final -108.56 input  -57.11 | X-H torsion

> <Gold.Protein.ActiveResidues>
 VAL166  LYS551  ARG553  GLY616  TRP617  ASP618  TYR619  PRO620  LYS621  CYS622 
 ASP623  PHE694  ASN695  SER759  ASP760  ASP761  ALA762  ILE779  LEU786  VAL792 
 PHE793  MET794  SER795  GLU796  ALA797  LYS798  CYS799  TRP800  GLU811  SER814 

> <Gold.Protein.RotatedAtoms>
  151.4344  133.3661  159.2772 H   0  0  0  0  0  0  0  0  0  0  0  0  # atno 6907 bound_to 6896
  150.9202  134.8621  159.7494 H   0  0  0  0  0  0  0  0  0  0  0  0  # atno 6908 bound_to 6896
  152.4978  134.4281  159.9555 H   0  0  0  0  0  0  0  0  0  0  0  0  # atno 6909 bound_to 6896
  146.2236  140.2692  142.8356 H   0  0  0  0  0  0  0  0  0  0  0  0  # atno 7974 bound_to 7965
  154.7317  140.2732  155.6450 H   0  0  0  0  0  0  0  0  0  0  0  0  # atno 8008 bound_to 7997
  156.2851  140.2714  156.1945 H   0  0  0  0  0  0  0  0  0  0  0  0  # atno 8009 bound_to 7997
  155.0373  140.0371  157.2486 H   0  0  0  0  0  0  0  0  0  0  0  0  # atno 8010 bound_to 7997
  140.1787  144.4204  150.6626 H   0  0  0  0  0  0  0  0  0  0  0  0  # atno 10167 bound_to 10162
  156.1202  130.4167  150.0457 H   0  0  0  0  0  0  0  0  0  0  0  0  # atno 10718 bound_to 10713
  153.0225  135.5255  154.7102 H   0  0  0  0  0  0  0  0  0  0  0  0  # atno 10763 bound_to 10752
  154.6186  135.2886  155.0354 H   0  0  0  0  0  0  0  0  0  0  0  0  # atno 10764 bound_to 10752
  154.1349  135.6587  153.4982 H   0  0  0  0  0  0  0  0  0  0  0  0  # atno 10765 bound_to 10752
  141.0895  133.9080  157.2108 H   0  0  0  0  0  0  0  0  0  0  0  0  # atno 11005 bound_to 11000
  144.9280  140.7943  143.5707 LP  0  0  0  0  0  0  0  0  0  0  0  0  # atno 17320 bound_to 7965
  145.2634  139.1983  143.4880 LP  0  0  0  0  0  0  0  0  0  0  0  0  # atno 17321 bound_to 7965
  140.6534  143.2231  151.6024 LP  0  0  0  0  0  0  0  0  0  0  0  0  # atno 17342 bound_to 10162
  139.5306  144.2928  152.1138 LP  0  0  0  0  0  0  0  0  0  0  0  0  # atno 17343 bound_to 10162
  156.8397  130.9421  151.3632 LP  0  0  0  0  0  0  0  0  0  0  0  0  # atno 17370 bound_to 10713
  157.6385  130.8786  149.9404 LP  0  0  0  0  0  0  0  0  0  0  0  0  # atno 17371 bound_to 10713
  139.9718  135.0126  156.9532 LP  0  0  0  0  0  0  0  0  0  0  0  0  # atno 17394 bound_to 11000
  140.5285  134.0837  155.7310 LP  0  0  0  0  0  0  0  0  0  0  0  0  # atno 17395 bound_to 11000

$$$$
