AV-unprocessed.smi:2477|AV-procd|sdf|9762|dock3
  -GOLD-   2272013403D 1   1.00000     0.00000
 Structure written by MMmdl.
 51 53  0  0  0  0  0  0  0  0  1 V2000
  144.4011  143.5584  162.5419 C   0  0  0  0  0  0  0  0  0  0  0  0
  144.5814  144.0210  161.1633 N   0  0  0  0  0  0  0  0  0  0  0  0
  143.5907  144.8584  160.6235 C   0  0  0  0  0  0  0  0  0  0  0  0
  143.6748  145.3308  159.3721 C   0  0  0  0  0  0  0  0  0  0  0  0
  144.8192  144.9612  158.5742 C   0  0  0  0  0  0  0  0  0  0  0  0
  145.7832  144.1465  159.0726 C   0  0  0  0  0  0  0  0  0  0  0  0
  146.9329  143.7422  158.3719 N   0  0  0  0  0  0  0  0  0  0  0  0
  147.4749  142.5170  158.2500 C   0  0  0  0  0  0  0  0  0  0  0  0
  147.0412  141.4822  158.7554 O   0  0  0  0  0  0  0  0  0  0  0  0
  148.5998  142.5661  157.5216 N   0  0  0  0  0  0  0  0  0  0  0  0
  149.4920  141.4389  157.2607 C   0  0  1  0  0  0  0  0  0  0  0  0
  149.1801  140.8671  155.8640 C   0  0  0  0  0  0  0  0  0  0  0  0
  150.1304  139.7171  155.4955 C   0  0  0  0  0  0  0  0  0  0  0  0
  151.5984  140.1577  155.5912 C   0  0  0  0  0  0  0  0  0  0  0  0
  151.9143  140.7188  156.9854 C   0  0  0  0  0  0  0  0  0  0  0  0
  150.9726  141.8786  157.3543 C   0  0  2  0  0  0  0  0  0  0  0  0
  151.2788  142.2562  158.6921 O   0  0  0  0  0  0  0  0  0  0  0  0
  152.5504  142.8714  158.8673 C   0  0  0  0  0  0  0  0  0  0  0  0
  152.8321  143.1034  160.3544 C   0  0  0  0  0  0  0  0  0  0  0  0
  152.0128  144.3455  160.7152 C   0  0  0  0  0  0  0  0  0  0  0  0
  151.8620  145.1488  159.4138 C   0  0  0  0  0  0  0  0  0  0  0  0
  152.4738  144.2891  158.2995 C   0  0  0  0  0  0  0  0  0  0  0  0
  145.6819  143.6327  160.4527 C   0  0  0  0  0  0  0  0  0  0  0  0
  146.5343  142.8931  160.9511 O   0  0  0  0  0  0  0  0  0  0  0  0
  143.5032  143.9641  163.0091 H   0  0  0  0  0  0  0  0  0  0  0  0
  145.2492  143.8546  163.1609 H   0  0  0  0  0  0  0  0  0  0  0  0
  144.3211  142.4709  162.5720 H   0  0  0  0  0  0  0  0  0  0  0  0
  142.7668  145.0897  161.2827 H   0  0  0  0  0  0  0  0  0  0  0  0
  142.9049  145.9727  158.9702 H   0  0  0  0  0  0  0  0  0  0  0  0
  144.8763  145.3732  157.5802 H   0  0  0  0  0  0  0  0  0  0  0  0
  147.4439  144.4989  157.9406 H   0  0  0  0  0  0  0  0  0  0  0  0
  148.8819  143.4603  157.1477 H   0  0  0  0  0  0  0  0  0  0  0  0
  149.3128  140.6480  157.9921 H   0  0  0  0  0  0  0  0  0  0  0  0
  148.1486  140.5148  155.8270 H   0  0  0  0  0  0  0  0  0  0  0  0
  149.2632  141.6557  155.1142 H   0  0  0  0  0  0  0  0  0  0  0  0
  149.9573  138.8723  156.1634 H   0  0  0  0  0  0  0  0  0  0  0  0
  149.9133  139.3640  154.4870 H   0  0  0  0  0  0  0  0  0  0  0  0
  152.2545  139.3148  155.3719 H   0  0  0  0  0  0  0  0  0  0  0  0
  151.8047  140.9165  154.8353 H   0  0  0  0  0  0  0  0  0  0  0  0
  151.8222  139.9226  157.7256 H   0  0  0  0  0  0  0  0  0  0  0  0
  152.9508  141.0553  157.0229 H   0  0  0  0  0  0  0  0  0  0  0  0
  151.1526  142.6991  156.6561 H   0  0  0  0  0  0  0  0  0  0  0  0
  153.3364  142.2963  158.3755 H   0  0  0  0  0  0  0  0  0  0  0  0
  152.5924  142.2447  160.9819 H   0  0  0  0  0  0  0  0  0  0  0  0
  153.8927  143.3197  160.4893 H   0  0  0  0  0  0  0  0  0  0  0  0
  151.0277  144.0426  161.0722 H   0  0  0  0  0  0  0  0  0  0  0  0
  152.4836  144.9264  161.5087 H   0  0  0  0  0  0  0  0  0  0  0  0
  150.8066  145.3386  159.2143 H   0  0  0  0  0  0  0  0  0  0  0  0
  152.3616  146.1160  159.4771 H   0  0  0  0  0  0  0  0  0  0  0  0
  153.4830  144.6434  158.0860 H   0  0  0  0  0  0  0  0  0  0  0  0
  151.9087  144.3398  157.3680 H   0  0  0  0  0  0  0  0  0  0  0  0
  1  2  1  0  0  0  0
  1 25  1  0  0  0  0
  1 26  1  0  0  0  0
  1 27  1  0  0  0  0
  2 23  1  0  0  0  0
  2  3  1  0  0  0  0
  3  4  2  0  0  0  0
  3 28  1  0  0  0  0
  4  5  1  0  0  0  0
  4 29  1  0  0  0  0
  5  6  2  0  0  0  0
  5 30  1  0  0  0  0
  6  7  1  0  0  0  0
  6 23  1  0  0  0  0
  7  8  1  0  0  0  0
  7 31  1  0  0  0  0
  8  9  2  0  0  0  0
  8 10  1  0  0  0  0
 10 11  1  0  0  0  0
 10 32  1  0  0  0  0
 11 16  1  0  0  0  0
 11 12  1  0  0  0  0
 11 33  1  0  0  0  0
 12 13  1  0  0  0  0
 12 34  1  0  0  0  0
 12 35  1  0  0  0  0
 13 14  1  0  0  0  0
 13 36  1  0  0  0  0
 13 37  1  0  0  0  0
 14 15  1  0  0  0  0
 14 38  1  0  0  0  0
 14 39  1  0  0  0  0
 15 16  1  0  0  0  0
 15 40  1  0  0  0  0
 15 41  1  0  0  0  0
 16 17  1  0  0  0  0
 16 42  1  0  0  0  0
 17 18  1  0  0  0  0
 18 22  1  0  0  0  0
 18 19  1  0  0  0  0
 18 43  1  0  0  0  0
 19 20  1  0  0  0  0
 19 44  1  0  0  0  0
 19 45  1  0  0  0  0
 20 21  1  0  0  0  0
 20 46  1  0  0  0  0
 20 47  1  0  0  0  0
 21 22  1  0  0  0  0
 21 48  1  0  0  0  0
 21 49  1  0  0  0  0
 22 50  1  0  0  0  0
 22 51  1  0  0  0  0
 23 24  2  0  0  0  0
M  END
> <s_m_source_file>
AV-unprocessed.smi

> <i_m_source_file_index>
2477

> <i_lp_mmshare_version>
43012

> <i_f3d_flags>
0

> <s_epik_input>
W0NIM11uMVtjSF1bY0hdW2NIXWMoYzE9TylbTkhdQyg9TylbTkhdW0NAQEhdMltDSDJdW0NIMl1bQ0gyXVtDSDJdW0NASF0yT1tDSF0zW0NIMl1bQ0gyXVtDSDJdW0NIMl0z

> <s_epik_cmdline>
J2VwaWtfcHl0aG9uJywgJy1waCcsICc3LjAnLCAnLXRuJywgJzgnLCAnLW1hJywgJzIwMCcsICctbWV0YWxfYmluZGluZycsICctaW1hZScsICc8aW5maWxlLm1hZT4nLCAnLW9tYWUnLCAnPG91dGZpbGUubWFlPic=

> <r_lp_tautomer_probability>
1

> <r_epik_Ionization_Penalty>
2.40753e-05

> <r_epik_Ionization_Penalty_Charging>
4.84018e-06

> <r_epik_Ionization_Penalty_Neutral>
1.92352e-05

> <r_epik_State_Penalty>
-0

> <r_epik_Charging_Adjusted_Penalty>
4.84018e-06

> <i_epik_Tot_Q>
0

> <i_epik_Tot_abs_Q>
0

> <r_epik_Metal_State_Penalty>
-0

> <b_epik_Metal_Only>
0

> <s_lp_Force_Field>
OPLS_2005

> <r_lp_Energy>
41.4138

> <b_lp_Chiralities_Consistent>
1

> <s_lp_Variant>
AV-unprocessed.smi:2477-4

> <Gold.Version>
5.8.1

> <Gold.Id.Protein>
6NUR|6NUR_protein|mol2

> <Gold.PLP.Fitness>
57.4204

> <Gold.PLP.PLP>
-48.1668

> <Gold.PLP.part.hbond>
-5.0000

> <Gold.PLP.part.metal>
0.0000

> <Gold.PLP.part.buried>
-4.8350

> <Gold.PLP.part.nonpolar>
-38.6622

> <Gold.PLP.part.repulsive>
0.1359

> <Gold.PLP.ligand.clash>
0.0000

> <Gold.PLP.ligand.torsion>
0.7722

> <Gold.PLP.Chemscore.Hbond>
3.5787

> <Gold.PLP.Chemscore.CHOScore>
0.0000

> <Gold.PLP.Chemscore.Metal>
0.0000

> <Gold.Chemscore.Hbonds>
donor molecule, donor type, donor heavy atom, donor atom, acceptor molecule, acceptor atom, score
      L1  H     7    31       P1  8029  1.00
      L1  H    10    32       P1  8028  0.99
      P1  H  6933  6944       L1    24  0.77
      P1  H  6934  6946       L1    24  0.82

> <Gold.PLP.Chemscore.Internal.Correction>
0.0618

> <Gold.Rescore>
     Score         DG    S(hbond)    S(metal)    S(lipo)     H(rot)  DE(clash)    DE(int)     intcor
     20.47     -23.97       2.35        0.00     120.65       1.36       0.05       3.45       ----

> <Gold.Chemscore.Fitness>
20.4680

> <Gold.Chemscore.DG>
-23.9731

> <Gold.Chemscore.ZeroCoef>
-5.4800

> <Gold.Chemscore.Hbond>
2.3503

> <Gold.Chemscore.Metal>
0.0000

> <Gold.Chemscore.Lipo>
120.6464

> <Gold.Chemscore.Internal_Hbond>
0.0000

> <Gold.Chemscore.DEClash>
0.0515

> <Gold.Chemscore.DEInternal>
3.4536

> <Gold.Chemscore.Rot>
1.3564

> <Gold.Chemscore.Internal.Correction>
   9.000000E+99

> <Gold.Chemscore.Hbonds>
donor molecule, donor type, donor heavy atom, donor atom, acceptor molecule, acceptor atom, score
      L1  H     7    31       P1  8029  0.35
      L1  H    10    32       P1  8028  0.42
      P1  H  6933  6944       L1    24  0.74
      P1  H  6934  6946       L1    24  0.77

> <Gold.Chemscore.Hbond.Weighted>
-7.8499

> <Gold.Chemscore.Metal.Weighted>
-0.0000

> <Gold.Chemscore.Lipo.Weighted>
-14.1156

> <Gold.Chemscore.Internal_Hbond.Weighted>
0.0000

> <Gold.Chemscore.DEClash.Weighted>
0.0515

> <Gold.Chemscore.DEInternal.Weighted>
3.4536

> <Gold.Chemscore.Rot.Weighted>
3.4724

> <Gold.Chemscore.Internal.Correction.Weighted>
   9.000000E+99

> <Gold.Protein.RotatedTorsions>
[ 6907 6896 6895 6894 ] final  -30.55 input  -60.11 | X-H torsion
[ 7974 7965 7964 7962 ] final -115.95 input  175.53 | X-H torsion
[ 8008 7997 7996 7995 ] final  137.89 input   59.86 | X-H torsion
[ 10167 10162 10161 10158 ] final  129.26 input  -65.29 | X-H torsion
[ 10718 10713 10712 10709 ] final  -65.58 input   66.30 | X-H torsion
[ 10763 10752 10751 10750 ] final  -39.50 input  -60.55 | X-H torsion
[ 11005 11000 10999 10996 ] final -134.37 input  -57.11 | X-H torsion

> <Gold.Protein.ActiveResidues>
 VAL166  LYS551  ARG553  GLY616  TRP617  ASP618  TYR619  PRO620  LYS621  CYS622 
 ASP623  PHE694  ASN695  SER759  ASP760  ASP761  ALA762  ILE779  LEU786  VAL792 
 PHE793  MET794  SER795  GLU796  ALA797  LYS798  CYS799  TRP800  GLU811  SER814 

> <Gold.Protein.RotatedAtoms>
  151.1040  134.9988  159.8461 H   0  0  0  0  0  0  0  0  0  0  0  0  # atno 6907 bound_to 6896
  152.5439  134.1916  159.8686 H   0  0  0  0  0  0  0  0  0  0  0  0  # atno 6908 bound_to 6896
  151.1961  133.4594  159.2629 H   0  0  0  0  0  0  0  0  0  0  0  0  # atno 6909 bound_to 6896
  145.1024  140.8560  143.3918 H   0  0  0  0  0  0  0  0  0  0  0  0  # atno 7974 bound_to 7965
  156.3000  140.2407  156.3984 H   0  0  0  0  0  0  0  0  0  0  0  0  # atno 8008 bound_to 7997
  154.8549  140.0422  157.1648 H   0  0  0  0  0  0  0  0  0  0  0  0  # atno 8009 bound_to 7997
  154.8958  140.2970  155.5348 H   0  0  0  0  0  0  0  0  0  0  0  0  # atno 8010 bound_to 7997
  139.5486  144.6795  151.4393 H   0  0  0  0  0  0  0  0  0  0  0  0  # atno 10167 bound_to 10162
  156.0661  130.4249  150.1584 H   0  0  0  0  0  0  0  0  0  0  0  0  # atno 10718 bound_to 10713
  153.9304  135.6772  153.4745 H   0  0  0  0  0  0  0  0  0  0  0  0  # atno 10763 bound_to 10752
  153.0982  135.4841  154.8816 H   0  0  0  0  0  0  0  0  0  0  0  0  # atno 10764 bound_to 10752
  154.7431  135.3165  154.8650 H   0  0  0  0  0  0  0  0  0  0  0  0  # atno 10765 bound_to 10752
  140.8996  134.1707  157.4470 H   0  0  0  0  0  0  0  0  0  0  0  0  # atno 11005 bound_to 11000
  145.0940  139.2870  143.5720 LP  0  0  0  0  0  0  0  0  0  0  0  0  # atno 17320 bound_to 7965
  146.3529  140.0486  142.8637 LP  0  0  0  0  0  0  0  0  0  0  0  0  # atno 17321 bound_to 7965
  140.6743  143.8225  150.7038 LP  0  0  0  0  0  0  0  0  0  0  0  0  # atno 17342 bound_to 10162
  140.1659  143.4236  152.2035 LP  0  0  0  0  0  0  0  0  0  0  0  0  # atno 17343 bound_to 10162
  156.9644  130.9815  151.3472 LP  0  0  0  0  0  0  0  0  0  0  0  0  # atno 17370 bound_to 10713
  157.5704  130.8306  149.8384 LP  0  0  0  0  0  0  0  0  0  0  0  0  # atno 17371 bound_to 10713
  139.8740  134.9893  156.5449 LP  0  0  0  0  0  0  0  0  0  0  0  0  # atno 17394 bound_to 11000
  140.8246  133.8327  155.8927 LP  0  0  0  0  0  0  0  0  0  0  0  0  # atno 17395 bound_to 11000

$$$$
