AV-unprocessed.smi:2846|AV-procd|sdf|10951|dock6
  -GOLD-   2272015403D 1   1.00000     0.00000
 Structure written by MMmdl.
 48 50  0  0  0  0  0  0  0  0  1 V2000
  151.4282  140.5913  155.4847 O   0  0  0  0  0  0  0  0  0  0  0  0
  150.4656  140.4107  156.2313 C   0  0  0  0  0  0  0  0  0  0  0  0
  150.6706  140.1725  157.7293 C   0  0  0  0  0  0  0  0  0  0  0  0
  151.4414  141.2437  158.4834 C   0  0  0  0  0  0  0  0  0  0  0  0
  151.1797  142.5564  158.3301 C   0  0  0  0  0  0  0  0  0  0  0  0
  151.9110  143.6626  159.0697 C   0  0  0  0  0  0  0  0  0  0  0  0
  152.7269  143.1296  160.2597 C   0  0  0  0  0  0  0  0  0  0  0  0
  153.4904  141.8542  159.8810 C   0  0  0  0  0  0  0  0  0  0  0  0
  152.5333  140.7401  159.4197 C   0  0  0  0  0  0  0  0  0  0  0  0
  149.1929  140.4143  155.8079 N   0  0  0  0  0  0  0  0  0  0  0  0
  148.7549  140.6373  154.4313 C   0  0  0  0  0  0  0  0  0  0  0  0
  147.2172  140.5027  154.2478 C   0  0  0  0  0  0  0  0  0  0  0  0
  146.8719  139.0848  153.7672 C   0  0  0  0  0  0  0  0  0  0  0  0
  147.0571  137.9732  154.6210 C   0  0  0  0  0  0  0  0  0  0  0  0
  146.7098  136.6893  154.1564 C   0  0  0  0  0  0  0  0  0  0  0  0
  146.1970  136.4579  152.9302 N   0  0  0  0  0  0  0  0  0  0  0  0
  146.0090  137.5188  152.1183 C   0  0  0  0  0  0  0  0  0  0  0  0
  146.3228  138.8422  152.4858 C   0  0  0  0  0  0  0  0  0  0  0  0
  146.4498  140.9106  155.5261 C   0  0  0  0  0  0  0  0  0  0  0  0
  146.4227  142.4414  155.5413 C   0  0  0  0  0  0  0  0  0  0  0  0
  146.5383  142.8721  154.0752 C   0  0  0  0  0  0  0  0  0  0  0  0
  146.7124  141.5806  153.2653 C   0  0  0  0  0  0  0  0  0  0  0  0
  149.6812  140.0819  158.1802 H   0  0  0  0  0  0  0  0  0  0  0  0
  151.1599  139.2094  157.8812 H   0  0  0  0  0  0  0  0  0  0  0  0
  150.4142  142.8728  157.6366 H   0  0  0  0  0  0  0  0  0  0  0  0
  152.5660  144.1666  158.3586 H   0  0  0  0  0  0  0  0  0  0  0  0
  151.1889  144.4022  159.4163 H   0  0  0  0  0  0  0  0  0  0  0  0
  153.4172  143.8965  160.6120 H   0  0  0  0  0  0  0  0  0  0  0  0
  152.0570  142.9110  161.0923 H   0  0  0  0  0  0  0  0  0  0  0  0
  154.1926  142.0843  159.0784 H   0  0  0  0  0  0  0  0  0  0  0  0
  154.0885  141.5053  160.7232 H   0  0  0  0  0  0  0  0  0  0  0  0
  152.0507  140.2811  160.2832 H   0  0  0  0  0  0  0  0  0  0  0  0
  153.1049  139.9549  158.9236 H   0  0  0  0  0  0  0  0  0  0  0  0
  148.4675  140.2613  156.4937 H   0  0  0  0  0  0  0  0  0  0  0  0
  149.1159  141.5978  154.0608 H   0  0  0  0  0  0  0  0  0  0  0  0
  149.2563  139.8855  153.8209 H   0  0  0  0  0  0  0  0  0  0  0  0
  147.4534  138.0931  155.6183 H   0  0  0  0  0  0  0  0  0  0  0  0
  146.8438  135.8252  154.7903 H   0  0  0  0  0  0  0  0  0  0  0  0
  145.5898  137.3082  151.1458 H   0  0  0  0  0  0  0  0  0  0  0  0
  146.1330  139.6452  151.7898 H   0  0  0  0  0  0  0  0  0  0  0  0
  145.4163  140.5671  155.4544 H   0  0  0  0  0  0  0  0  0  0  0  0
  146.8586  140.4888  156.4438 H   0  0  0  0  0  0  0  0  0  0  0  0
  145.5167  142.8234  156.0127 H   0  0  0  0  0  0  0  0  0  0  0  0
  147.2723  142.8247  156.1081 H   0  0  0  0  0  0  0  0  0  0  0  0
  145.6605  143.4284  153.7452 H   0  0  0  0  0  0  0  0  0  0  0  0
  147.4040  143.5227  153.9464 H   0  0  0  0  0  0  0  0  0  0  0  0
  147.3616  141.7156  152.3997 H   0  0  0  0  0  0  0  0  0  0  0  0
  145.7316  141.2908  152.8842 H   0  0  0  0  0  0  0  0  0  0  0  0
  1  2  2  0  0  0  0
  2  3  1  0  0  0  0
  2 10  1  0  0  0  0
  3  4  1  0  0  0  0
  3 23  1  0  0  0  0
  3 24  1  0  0  0  0
  4  9  1  0  0  0  0
  4  5  2  0  0  0  0
  5  6  1  0  0  0  0
  5 25  1  0  0  0  0
  6  7  1  0  0  0  0
  6 26  1  0  0  0  0
  6 27  1  0  0  0  0
  7  8  1  0  0  0  0
  7 28  1  0  0  0  0
  7 29  1  0  0  0  0
  8  9  1  0  0  0  0
  8 30  1  0  0  0  0
  8 31  1  0  0  0  0
  9 32  1  0  0  0  0
  9 33  1  0  0  0  0
 10 11  1  0  0  0  0
 10 34  1  0  0  0  0
 11 12  1  0  0  0  0
 11 35  1  0  0  0  0
 11 36  1  0  0  0  0
 12 22  1  0  0  0  0
 12 13  1  0  0  0  0
 12 19  1  0  0  0  0
 13 18  1  0  0  0  0
 13 14  2  0  0  0  0
 14 15  1  0  0  0  0
 14 37  1  0  0  0  0
 15 16  2  0  0  0  0
 15 38  1  0  0  0  0
 16 17  1  0  0  0  0
 17 18  2  0  0  0  0
 17 39  1  0  0  0  0
 18 40  1  0  0  0  0
 19 20  1  0  0  0  0
 19 41  1  0  0  0  0
 19 42  1  0  0  0  0
 20 21  1  0  0  0  0
 20 43  1  0  0  0  0
 20 44  1  0  0  0  0
 21 22  1  0  0  0  0
 21 45  1  0  0  0  0
 21 46  1  0  0  0  0
 22 47  1  0  0  0  0
 22 48  1  0  0  0  0
M  END
> <s_m_source_file>
AV-unprocessed.smi

> <i_m_source_file_index>
2846

> <i_lp_mmshare_version>
43012

> <i_f3d_flags>
0

> <s_epik_input>
W0NIMl0xW0NIMl1bQ0gyXVtDSDJdW0NIXT1DMVtDSDJdQyg9TylbTkhdW0NIMl1DMihbQ0gyXVtDSDJdW0NIMl1bQ0gyXTIpYzNbY0hdW2NIXW5bY0hdW2NIXTM=

> <s_epik_cmdline>
J2VwaWtfcHl0aG9uJywgJy1waCcsICc3LjAnLCAnLXRuJywgJzgnLCAnLW1hJywgJzIwMCcsICctbWV0YWxfYmluZGluZycsICctaW1hZScsICc8aW5maWxlLm1hZT4nLCAnLW9tYWUnLCAnPG91dGZpbGUubWFlPic=

> <r_epik_Ionization_Penalty>
0.0617419

> <r_epik_Ionization_Penalty_Charging>
0

> <r_epik_Ionization_Penalty_Neutral>
0.0617419

> <r_epik_State_Penalty>
0.0536117

> <r_epik_Charging_Adjusted_Penalty>
0.0536117

> <i_epik_Tot_Q>
0

> <i_epik_Tot_abs_Q>
0

> <r_epik_Metal_State_Penalty>
0.0485218

> <b_epik_Metal_Only>
0

> <s_lp_Force_Field>
OPLS_2005

> <r_lp_Energy>
29.944

> <b_lp_Chiralities_Consistent>
1

> <s_lp_Variant>
AV-unprocessed.smi:2846-1

> <Gold.Version>
5.8.1

> <Gold.Id.Protein>
6NUR|6NUR_protein|mol2

> <Gold.PLP.Fitness>
41.6946

> <Gold.PLP.PLP>
-38.1232

> <Gold.PLP.part.hbond>
-1.0000

> <Gold.PLP.part.metal>
0.0000

> <Gold.PLP.part.buried>
-3.6287

> <Gold.PLP.part.nonpolar>
-35.1053

> <Gold.PLP.part.repulsive>
1.3716

> <Gold.PLP.ligand.clash>
0.0000

> <Gold.PLP.ligand.torsion>
1.0080

> <Gold.PLP.Chemscore.Hbond>
0.8320

> <Gold.PLP.Chemscore.CHOScore>
0.9850

> <Gold.PLP.Chemscore.Metal>
0.0000

> <Gold.Chemscore.Hbonds>
donor molecule, donor type, donor heavy atom, donor atom, acceptor molecule, acceptor atom, score
      P1  H  7989  7998       L1     1  0.80
      L1  C    17    39       P1 10171  1.00

> <Gold.PLP.Chemscore.Internal.Correction>
0.1365

> <Gold.Rescore>
     Score         DG    S(hbond)    S(metal)    S(lipo)     H(rot)  DE(clash)    DE(int)     intcor
     17.39     -18.35       0.85        0.00     115.97       1.38       0.14       0.82       ----

> <Gold.Chemscore.Fitness>
17.3869

> <Gold.Chemscore.DG>
-18.3455

> <Gold.Chemscore.ZeroCoef>
-5.4800

> <Gold.Chemscore.Hbond>
0.8464

> <Gold.Chemscore.Metal>
0.0000

> <Gold.Chemscore.Lipo>
115.9700

> <Gold.Chemscore.Internal_Hbond>
0.0000

> <Gold.Chemscore.DEClash>
0.1378

> <Gold.Chemscore.DEInternal>
0.8208

> <Gold.Chemscore.Rot>
1.3789

> <Gold.Chemscore.Internal.Correction>
   9.000000E+99

> <Gold.Chemscore.Hbonds>
donor molecule, donor type, donor heavy atom, donor atom, acceptor molecule, acceptor atom, score
      P1  H  7989  7998       L1     1  0.76

> <Gold.Chemscore.Hbond.Weighted>
-2.8270

> <Gold.Chemscore.Metal.Weighted>
-0.0000

> <Gold.Chemscore.Lipo.Weighted>
-13.5685

> <Gold.Chemscore.Internal_Hbond.Weighted>
0.0000

> <Gold.Chemscore.DEClash.Weighted>
0.1378

> <Gold.Chemscore.DEInternal.Weighted>
0.8208

> <Gold.Chemscore.Rot.Weighted>
3.5299

> <Gold.Chemscore.Internal.Correction.Weighted>
   9.000000E+99

> <Gold.Protein.RotatedTorsions>
[ 6907 6896 6895 6894 ] final  -86.40 input  -60.11 | X-H torsion
[ 7974 7965 7964 7962 ] final -172.89 input  175.53 | X-H torsion
[ 8008 7997 7996 7995 ] final   29.35 input   59.86 | X-H torsion
[ 10167 10162 10161 10158 ] final   44.72 input  -65.29 | X-H torsion
[ 10718 10713 10712 10709 ] final   87.62 input   66.30 | X-H torsion
[ 10763 10752 10751 10750 ] final  161.60 input  -60.55 | X-H torsion
[ 11005 11000 10999 10996 ] final -158.49 input  -57.11 | X-H torsion

> <Gold.Protein.ActiveResidues>
 VAL166  LYS551  ARG553  GLY616  TRP617  ASP618  TYR619  PRO620  LYS621  CYS622 
 ASP623  PHE694  ASN695  SER759  ASP760  ASP761  ALA762  ILE779  LEU786  VAL792 
 PHE793  MET794  SER795  GLU796  ALA797  LYS798  CYS799  TRP800  GLU811  SER814 

> <Gold.Protein.RotatedAtoms>
  150.6867  134.3056  159.4724 H   0  0  0  0  0  0  0  0  0  0  0  0  # atno 6907 bound_to 6896
  152.0947  134.9380  160.0580 H   0  0  0  0  0  0  0  0  0  0  0  0  # atno 6908 bound_to 6896
  152.0683  133.4059  159.4485 H   0  0  0  0  0  0  0  0  0  0  0  0  # atno 6909 bound_to 6896
  144.7142  140.1704  143.6368 H   0  0  0  0  0  0  0  0  0  0  0  0  # atno 7974 bound_to 7965
  155.0731  140.3202  155.4624 H   0  0  0  0  0  0  0  0  0  0  0  0  # atno 8008 bound_to 7997
  156.2785  140.2108  156.5804 H   0  0  0  0  0  0  0  0  0  0  0  0  # atno 8009 bound_to 7997
  154.7038  140.0504  157.0472 H   0  0  0  0  0  0  0  0  0  0  0  0  # atno 8010 bound_to 7997
  140.3315  144.2583  150.6167 H   0  0  0  0  0  0  0  0  0  0  0  0  # atno 10167 bound_to 10162
  157.6942  131.0262  150.3150 H   0  0  0  0  0  0  0  0  0  0  0  0  # atno 10718 bound_to 10713
  154.2655  135.2767  155.2760 H   0  0  0  0  0  0  0  0  0  0  0  0  # atno 10763 bound_to 10752
  154.5347  135.5720  153.6792 H   0  0  0  0  0  0  0  0  0  0  0  0  # atno 10764 bound_to 10752
  152.9954  135.6236  154.2807 H   0  0  0  0  0  0  0  0  0  0  0  0  # atno 10765 bound_to 10752
  140.6531  134.4430  157.5235 H   0  0  0  0  0  0  0  0  0  0  0  0  # atno 11005 bound_to 11000
  145.8949  139.2397  143.1527 LP  0  0  0  0  0  0  0  0  0  0  0  0  # atno 17320 bound_to 7965
  145.9867  140.8637  143.0087 LP  0  0  0  0  0  0  0  0  0  0  0  0  # atno 17321 bound_to 7965
  140.5393  143.2227  151.8111 LP  0  0  0  0  0  0  0  0  0  0  0  0  # atno 17342 bound_to 10162
  139.4856  144.4621  151.9528 LP  0  0  0  0  0  0  0  0  0  0  0  0  # atno 17343 bound_to 10162
  156.3646  130.3853  149.7224 LP  0  0  0  0  0  0  0  0  0  0  0  0  # atno 17370 bound_to 10713
  156.4659  130.7973  151.2993 LP  0  0  0  0  0  0  0  0  0  0  0  0  # atno 17371 bound_to 10713
  139.9039  134.8493  156.1784 LP  0  0  0  0  0  0  0  0  0  0  0  0  # atno 17394 bound_to 11000
  141.0522  133.6883  156.1793 LP  0  0  0  0  0  0  0  0  0  0  0  0  # atno 17395 bound_to 11000

$$$$
