AV-unprocessed.smi:3148|AV-procd|sdf|11992|dock7
  -GOLD-   2272017393D 1   1.00000     0.00000
 Structure written by MMmdl.
 34 36  0  0  0  0  0  0  0  0  1 V2000
  154.6903  140.0681  161.5205 C   0  0  0  0  0  0  0  0  0  0  0  0
  154.3320  141.4311  161.3219 O   0  0  0  0  0  0  0  0  0  0  0  0
  153.5143  141.7388  160.2544 C   0  0  0  0  0  0  0  0  0  0  0  0
  153.1355  143.0787  160.0339 C   0  0  0  0  0  0  0  0  0  0  0  0
  152.3003  143.3200  158.9232 C   0  0  0  0  0  0  0  0  0  0  0  0
  151.8301  144.7162  158.5748 C   0  0  0  0  0  0  0  0  0  0  0  0
  151.8850  142.3212  158.1133 N   0  0  0  0  0  0  0  0  0  0  0  0
  152.3021  141.0885  158.4093 C   0  0  0  0  0  0  0  0  0  0  0  0
  151.8657  140.0919  157.5563 N   0  0  0  0  0  0  0  0  0  0  0  0
  151.7430  140.2443  156.1110 C   0  0  1  0  0  0  0  0  0  0  0  0
  152.4526  139.1390  155.3260 C   0  0  0  0  0  0  0  0  0  0  0  0
  151.3270  138.6291  154.4147 C   0  0  1  0  0  0  0  0  0  0  0  0
  150.3146  137.7782  155.1924 C   0  0  0  0  0  0  0  0  0  0  0  0
  149.5814  138.8390  156.0108 C   0  0  0  0  0  0  0  0  0  0  0  0
  150.3009  140.1282  155.5784 C   0  0  2  0  0  0  0  0  0  0  0  0
  150.5739  139.8152  154.2230 O   0  0  0  0  0  0  0  0  0  0  0  0
  153.0910  140.7456  159.4339 N   0  0  0  0  0  0  0  0  0  0  0  0
  155.3397  139.9895  162.3922 H   0  0  0  0  0  0  0  0  0  0  0  0
  155.2361  139.6702  160.6637 H   0  0  0  0  0  0  0  0  0  0  0  0
  153.8124  139.4471  161.7048 H   0  0  0  0  0  0  0  0  0  0  0  0
  153.4709  143.8746  160.6824 H   0  0  0  0  0  0  0  0  0  0  0  0
  152.0891  145.4258  159.3611 H   0  0  0  0  0  0  0  0  0  0  0  0
  150.7478  144.7336  158.4436 H   0  0  0  0  0  0  0  0  0  0  0  0
  152.2949  145.0496  157.6468 H   0  0  0  0  0  0  0  0  0  0  0  0
  151.4394  139.2820  157.9824 H   0  0  0  0  0  0  0  0  0  0  0  0
  152.1623  141.2079  155.8173 H   0  0  0  0  0  0  0  0  0  0  0  0
  153.2696  139.5592  154.7387 H   0  0  0  0  0  0  0  0  0  0  0  0
  152.8608  138.3448  155.9528 H   0  0  0  0  0  0  0  0  0  0  0  0
  151.6791  138.1648  153.4933 H   0  0  0  0  0  0  0  0  0  0  0  0
  149.6252  137.2755  154.5132 H   0  0  0  0  0  0  0  0  0  0  0  0
  150.7963  137.0216  155.8128 H   0  0  0  0  0  0  0  0  0  0  0  0
  148.5293  138.8753  155.7266 H   0  0  0  0  0  0  0  0  0  0  0  0
  149.6317  138.6593  157.0850 H   0  0  0  0  0  0  0  0  0  0  0  0
  149.7051  141.0313  155.7136 H   0  0  0  0  0  0  0  0  0  0  0  0
  1  2  1  0  0  0  0
  1 18  1  0  0  0  0
  1 19  1  0  0  0  0
  1 20  1  0  0  0  0
  2  3  1  0  0  0  0
  3 17  1  0  0  0  0
  3  4  2  0  0  0  0
  4  5  1  0  0  0  0
  4 21  1  0  0  0  0
  5  6  1  0  0  0  0
  5  7  2  0  0  0  0
  6 22  1  0  0  0  0
  6 23  1  0  0  0  0
  6 24  1  0  0  0  0
  7  8  1  0  0  0  0
  8  9  1  0  0  0  0
  8 17  2  0  0  0  0
  9 10  1  0  0  0  0
  9 25  1  0  0  0  0
 10 15  1  0  0  0  0
 10 11  1  0  0  0  0
 10 26  1  0  0  0  0
 11 12  1  0  0  0  0
 11 27  1  0  0  0  0
 11 28  1  0  0  0  0
 12 16  1  0  0  0  0
 12 13  1  0  0  0  0
 12 29  1  0  0  0  0
 13 14  1  0  0  0  0
 13 30  1  0  0  0  0
 13 31  1  0  0  0  0
 14 15  1  0  0  0  0
 14 32  1  0  0  0  0
 14 33  1  0  0  0  0
 15 16  1  0  0  0  0
 15 34  1  0  0  0  0
M  END
> <s_m_source_file>
AV-unprocessed.smi

> <i_m_source_file_index>
3148

> <i_lp_mmshare_version>
43012

> <i_f3d_flags>
0

> <s_epik_input>
W0NIM11PYzFbY0hdYyhbQ0gzXSluYyhuMSlbTkhdW0NASF0oW0NIMl1bQ0BASF0yMylbQ0BASF0oTzMpW0NIMl1bQ0gyXTI=

> <s_epik_cmdline>
J2VwaWtfcHl0aG9uJywgJy1waCcsICc3LjAnLCAnLXRuJywgJzgnLCAnLW1hJywgJzIwMCcsICctbWV0YWxfYmluZGluZycsICctaW1hZScsICc8aW5maWxlLm1hZT4nLCAnLW9tYWUnLCAnPG91dGZpbGUubWFlPic=

> <r_lp_tautomer_probability>
1

> <r_epik_Ionization_Penalty>
0.101645

> <r_epik_Ionization_Penalty_Charging>
0

> <r_epik_Ionization_Penalty_Neutral>
0.101645

> <r_epik_State_Penalty>
0.0916212

> <r_epik_Charging_Adjusted_Penalty>
0.0916212

> <i_epik_Tot_Q>
0

> <i_epik_Tot_abs_Q>
0

> <r_epik_Metal_State_Penalty>
0.0781

> <b_epik_Metal_Only>
0

> <s_lp_Force_Field>
OPLS_2005

> <r_lp_Energy>
31.5885

> <b_lp_Chiralities_Consistent>
1

> <s_lp_Variant>
AV-unprocessed.smi:3148-2

> <Gold.Version>
5.8.1

> <Gold.Id.Protein>
6NUR|6NUR_protein|mol2

> <Gold.PLP.Fitness>
38.5749

> <Gold.PLP.PLP>
-36.2252

> <Gold.PLP.part.hbond>
-1.7891

> <Gold.PLP.part.metal>
0.0000

> <Gold.PLP.part.buried>
-5.9805

> <Gold.PLP.part.nonpolar>
-29.7542

> <Gold.PLP.part.repulsive>
0.2335

> <Gold.PLP.ligand.clash>
0.0000

> <Gold.PLP.ligand.torsion>
0.3302

> <Gold.PLP.Chemscore.Hbond>
1.0000

> <Gold.PLP.Chemscore.CHOScore>
0.0000

> <Gold.PLP.Chemscore.Metal>
0.0000

> <Gold.Chemscore.Hbonds>
donor molecule, donor type, donor heavy atom, donor atom, acceptor molecule, acceptor atom, score
      P1  H  7989  7998       L1    16  1.00

> <Gold.PLP.Chemscore.Internal.Correction>
0.0100

> <Gold.Rescore>
     Score         DG    S(hbond)    S(metal)    S(lipo)     H(rot)  DE(clash)    DE(int)     intcor
     14.54     -14.87       0.90        0.00      81.25       1.22       0.01       0.32       ----

> <Gold.Chemscore.Fitness>
14.5388

> <Gold.Chemscore.DG>
-14.8668

> <Gold.Chemscore.ZeroCoef>
-5.4800

> <Gold.Chemscore.Hbond>
0.9016

> <Gold.Chemscore.Metal>
0.0000

> <Gold.Chemscore.Lipo>
81.2535

> <Gold.Chemscore.Internal_Hbond>
0.0000

> <Gold.Chemscore.DEClash>
0.0088

> <Gold.Chemscore.DEInternal>
0.3192

> <Gold.Chemscore.Rot>
1.2232

> <Gold.Chemscore.Internal.Correction>
   9.000000E+99

> <Gold.Chemscore.Hbonds>
donor molecule, donor type, donor heavy atom, donor atom, acceptor molecule, acceptor atom, score
      P1  H  7989  7998       L1    16  0.44

> <Gold.Chemscore.Hbond.Weighted>
-3.0115

> <Gold.Chemscore.Metal.Weighted>
-0.0000

> <Gold.Chemscore.Lipo.Weighted>
-9.5067

> <Gold.Chemscore.Internal_Hbond.Weighted>
0.0000

> <Gold.Chemscore.DEClash.Weighted>
0.0088

> <Gold.Chemscore.DEInternal.Weighted>
0.3192

> <Gold.Chemscore.Rot.Weighted>
3.1314

> <Gold.Chemscore.Internal.Correction.Weighted>
   9.000000E+99

> <Gold.Protein.RotatedTorsions>
[ 6907 6896 6895 6894 ] final  -58.58 input  -60.11 | X-H torsion
[ 7974 7965 7964 7962 ] final -163.99 input  175.53 | X-H torsion
[ 8008 7997 7996 7995 ] final   31.28 input   59.86 | X-H torsion
[ 10167 10162 10161 10158 ] final  161.10 input  -65.29 | X-H torsion
[ 10718 10713 10712 10709 ] final   54.42 input   66.30 | X-H torsion
[ 10763 10752 10751 10750 ] final  -14.88 input  -60.55 | X-H torsion
[ 11005 11000 10999 10996 ] final   -7.10 input  -57.11 | X-H torsion

> <Gold.Protein.ActiveResidues>
 VAL166  LYS551  ARG553  GLY616  TRP617  ASP618  TYR619  PRO620  LYS621  CYS622 
 ASP623  PHE694  ASN695  SER759  ASP760  ASP761  ALA762  ILE779  LEU786  VAL792 
 PHE793  MET794  SER795  GLU796  ALA797  LYS798  CYS799  TRP800  GLU811  SER814 

> <Gold.Protein.RotatedAtoms>
  150.7996  134.7080  159.6587 H   0  0  0  0  0  0  0  0  0  0  0  0  # atno 6907 bound_to 6896
  152.4111  134.6119  160.0037 H   0  0  0  0  0  0  0  0  0  0  0  0  # atno 6908 bound_to 6896
  151.6361  133.3292  159.3156 H   0  0  0  0  0  0  0  0  0  0  0  0  # atno 6909 bound_to 6896
  144.7310  140.3027  143.6202 H   0  0  0  0  0  0  0  0  0  0  0  0  # atno 7974 bound_to 7965
  155.1039  140.3232  155.4539 H   0  0  0  0  0  0  0  0  0  0  0  0  # atno 8008 bound_to 7997
  156.2709  140.2056  156.6112 H   0  0  0  0  0  0  0  0  0  0  0  0  # atno 8009 bound_to 7997
  154.6808  140.0526  157.0250 H   0  0  0  0  0  0  0  0  0  0  0  0  # atno 8010 bound_to 7997
  139.4846  144.4570  151.8755 H   0  0  0  0  0  0  0  0  0  0  0  0  # atno 10167 bound_to 10162
  157.5255  130.8594  149.8616 H   0  0  0  0  0  0  0  0  0  0  0  0  # atno 10718 bound_to 10713
  153.5349  135.7014  153.5665 H   0  0  0  0  0  0  0  0  0  0  0  0  # atno 10763 bound_to 10752
  153.3656  135.3958  155.1751 H   0  0  0  0  0  0  0  0  0  0  0  0  # atno 10764 bound_to 10752
  154.8680  135.3799  154.4849 H   0  0  0  0  0  0  0  0  0  0  0  0  # atno 10765 bound_to 10752
  140.7091  133.8924  155.8738 H   0  0  0  0  0  0  0  0  0  0  0  0  # atno 11005 bound_to 11000
  145.7744  139.1869  143.2193 LP  0  0  0  0  0  0  0  0  0  0  0  0  # atno 17320 bound_to 7965
  146.0884  140.7684  142.9607 LP  0  0  0  0  0  0  0  0  0  0  0  0  # atno 17321 bound_to 7965
  140.4030  144.2468  150.5892 LP  0  0  0  0  0  0  0  0  0  0  0  0  # atno 17342 bound_to 10162
  140.5039  143.2310  151.8637 LP  0  0  0  0  0  0  0  0  0  0  0  0  # atno 17343 bound_to 10162
  156.0384  130.3745  150.1500 LP  0  0  0  0  0  0  0  0  0  0  0  0  # atno 17370 bound_to 10713
  156.9687  130.9828  151.3463 LP  0  0  0  0  0  0  0  0  0  0  0  0  # atno 17371 bound_to 10713
  141.0099  134.1034  157.4232 LP  0  0  0  0  0  0  0  0  0  0  0  0  # atno 17394 bound_to 11000
  139.8876  135.0091  156.6572 LP  0  0  0  0  0  0  0  0  0  0  0  0  # atno 17395 bound_to 11000

$$$$
