AV-unprocessed.smi:933|AV-procd|sdf|4202|dock7
  -GOLD-   22720 2113D 1   1.00000     0.00000
 Structure written by MMmdl.
 42 43  0  0  0  0  0  0  0  0  1 V2000
  152.8257  138.3920  154.3937 C   0  0  0  0  0  0  0  0  0  0  0  0
  152.2449  138.0118  155.7597 C   0  0  0  0  0  0  0  0  0  0  0  0
  151.1447  137.0097  155.6539 C   0  0  0  0  0  0  0  0  0  0  0  0
  151.3206  135.7687  155.1923 N   0  0  0  0  0  0  0  0  0  0  0  0
  150.1304  135.0362  155.1493 C   0  0  0  0  0  0  0  0  0  0  0  0
  150.1412  133.6207  154.6497 C   0  0  0  0  0  0  0  0  0  0  0  0
  148.7390  133.0835  154.3168 C   0  0  0  0  0  0  0  0  0  0  0  0
  148.1478  133.7899  153.1808 N   0  0  0  0  0  0  0  0  0  0  0  0
  147.0846  133.4116  152.4518 C   0  0  0  0  0  0  0  0  0  0  0  0
  146.4796  132.3661  152.6807 O   0  0  0  0  0  0  0  0  0  0  0  0
  146.7599  134.2599  151.4610 N   0  0  0  0  0  0  0  0  0  0  0  0
  145.6512  134.0966  150.5201 C   0  0  1  0  0  0  0  0  0  0  0  0
  145.6733  132.6743  149.9219 C   0  0  0  0  0  0  0  0  0  0  0  0
  144.3346  132.0218  150.2840 C   0  0  0  0  0  0  0  0  0  0  0  0
  143.8177  132.8140  151.4815 C   0  0  0  0  0  0  0  0  0  0  0  0
  144.2661  134.2473  151.1931 C   0  0  1  0  0  0  0  0  0  0  0  0
  144.1800  135.1798  152.4140 C   0  0  0  0  0  0  0  0  0  0  0  0
  149.0409  135.7475  155.5875 C   0  0  0  0  0  0  0  0  0  0  0  0
  149.4698  137.3690  156.0569 S   0  0  0  0  0  0  0  0  0  0  0  0
  153.6251  139.1249  154.5022 H   0  0  0  0  0  0  0  0  0  0  0  0
  152.0609  138.8252  153.7482 H   0  0  0  0  0  0  0  0  0  0  0  0
  153.2385  137.5200  153.8857 H   0  0  0  0  0  0  0  0  0  0  0  0
  153.0304  137.6077  156.3990 H   0  0  0  0  0  0  0  0  0  0  0  0
  151.8601  138.9005  156.2607 H   0  0  0  0  0  0  0  0  0  0  0  0
  150.7720  133.5447  153.7635 H   0  0  0  0  0  0  0  0  0  0  0  0
  150.6025  132.9708  155.3943 H   0  0  0  0  0  0  0  0  0  0  0  0
  148.8065  132.0197  154.0827 H   0  0  0  0  0  0  0  0  0  0  0  0
  148.0896  133.1805  155.1880 H   0  0  0  0  0  0  0  0  0  0  0  0
  148.6098  134.6433  152.9012 H   0  0  0  0  0  0  0  0  0  0  0  0
  147.3245  135.0894  151.3511 H   0  0  0  0  0  0  0  0  0  0  0  0
  145.7407  134.8268  149.7137 H   0  0  0  0  0  0  0  0  0  0  0  0
  145.8168  132.6966  148.8410 H   0  0  0  0  0  0  0  0  0  0  0  0
  146.4929  132.0847  150.3364 H   0  0  0  0  0  0  0  0  0  0  0  0
  143.6389  132.1290  149.4507 H   0  0  0  0  0  0  0  0  0  0  0  0
  144.4319  130.9572  150.4976 H   0  0  0  0  0  0  0  0  0  0  0  0
  142.7371  132.7287  151.6020 H   0  0  0  0  0  0  0  0  0  0  0  0
  144.2869  132.4493  152.3964 H   0  0  0  0  0  0  0  0  0  0  0  0
  143.5885  134.6440  150.4351 H   0  0  0  0  0  0  0  0  0  0  0  0
  144.7828  134.8155  153.2464 H   0  0  0  0  0  0  0  0  0  0  0  0
  143.1515  135.2605  152.7665 H   0  0  0  0  0  0  0  0  0  0  0  0
  144.5217  136.1844  152.1637 H   0  0  0  0  0  0  0  0  0  0  0  0
  148.0139  135.4200  155.6535 H   0  0  0  0  0  0  0  0  0  0  0  0
  1  2  1  0  0  0  0
  1 20  1  0  0  0  0
  1 21  1  0  0  0  0
  1 22  1  0  0  0  0
  2  3  1  0  0  0  0
  2 23  1  0  0  0  0
  2 24  1  0  0  0  0
  3 19  1  0  0  0  0
  3  4  2  0  0  0  0
  4  5  1  0  0  0  0
  5  6  1  0  0  0  0
  5 18  2  0  0  0  0
  6  7  1  0  0  0  0
  6 25  1  0  0  0  0
  6 26  1  0  0  0  0
  7  8  1  0  0  0  0
  7 27  1  0  0  0  0
  7 28  1  0  0  0  0
  8  9  1  0  0  0  0
  8 29  1  0  0  0  0
  9 10  2  0  0  0  0
  9 11  1  0  0  0  0
 11 12  1  0  0  0  0
 11 30  1  0  0  0  0
 12 16  1  0  0  0  0
 12 13  1  0  0  0  0
 12 31  1  0  0  0  0
 13 14  1  0  0  0  0
 13 32  1  0  0  0  0
 13 33  1  0  0  0  0
 14 15  1  0  0  0  0
 14 34  1  0  0  0  0
 14 35  1  0  0  0  0
 15 16  1  0  0  0  0
 15 36  1  0  0  0  0
 15 37  1  0  0  0  0
 16 17  1  0  0  0  0
 16 38  1  0  0  0  0
 17 39  1  0  0  0  0
 17 40  1  0  0  0  0
 17 41  1  0  0  0  0
 18 19  1  0  0  0  0
 18 42  1  0  0  0  0
M  END
> <s_m_source_file>
AV-unprocessed.smi

> <i_m_source_file_index>
933

> <i_lp_mmshare_version>
43012

> <i_f3d_flags>
0

> <s_epik_input>
W0NIM11bQ0gyXWMxbmMoW2NIXXMxKVtDSDJdW0NIMl1bTkhdQyg9TylbTkhdW0NAQEhdMltDSDJdW0NIMl1bQ0gyXVtDQEhdMltDSDNd

> <s_epik_cmdline>
J2VwaWtfcHl0aG9uJywgJy1waCcsICc3LjAnLCAnLXRuJywgJzgnLCAnLW1hJywgJzIwMCcsICctbWV0YWxfYmluZGluZycsICctaW1hZScsICc8aW5maWxlLm1hZT4nLCAnLW9tYWUnLCAnPG91dGZpbGUubWFlPic=

> <r_epik_Ionization_Penalty>
0.00203408

> <r_epik_Ionization_Penalty_Charging>
0

> <r_epik_Ionization_Penalty_Neutral>
0.00203408

> <r_epik_State_Penalty>
0.0013452

> <r_epik_Charging_Adjusted_Penalty>
0.0013452

> <i_epik_Tot_Q>
0

> <i_epik_Tot_abs_Q>
0

> <r_epik_Metal_State_Penalty>
-0

> <b_epik_Metal_Only>
0

> <s_lp_Force_Field>
OPLS_2005

> <r_lp_Energy>
20.9711

> <b_lp_Chiralities_Consistent>
1

> <s_lp_Variant>
AV-unprocessed.smi:933-2

> <Gold.Version>
5.8.1

> <Gold.Id.Protein>
6NUR|6NUR_protein|mol2

> <Gold.PLP.Fitness>
41.0237

> <Gold.PLP.PLP>
-32.8349

> <Gold.PLP.part.hbond>
-3.0000

> <Gold.PLP.part.metal>
0.0000

> <Gold.PLP.part.buried>
-3.5053

> <Gold.PLP.part.nonpolar>
-25.0791

> <Gold.PLP.part.repulsive>
0.3040

> <Gold.PLP.ligand.clash>
0.0000

> <Gold.PLP.ligand.torsion>
0.4155

> <Gold.PLP.Chemscore.Hbond>
3.0000

> <Gold.PLP.Chemscore.CHOScore>
0.0000

> <Gold.PLP.Chemscore.Metal>
0.0000

> <Gold.Chemscore.Hbonds>
donor molecule, donor type, donor heavy atom, donor atom, acceptor molecule, acceptor atom, score
      L1  H     8    29       P1  7948  0.95
      L1  H    11    30       P1  7948  1.00
      P1  H 10752 10764       L1     4  1.00

> <Gold.PLP.Chemscore.Internal.Correction>
0.0199

> <Gold.Rescore>
     Score         DG    S(hbond)    S(metal)    S(lipo)     H(rot)  DE(clash)    DE(int)     intcor
     16.40     -19.01       2.42        0.00      80.43       1.55       0.12       2.49       ----

> <Gold.Chemscore.Fitness>
16.3960

> <Gold.Chemscore.DG>
-19.0065

> <Gold.Chemscore.ZeroCoef>
-5.4800

> <Gold.Chemscore.Hbond>
2.4191

> <Gold.Chemscore.Metal>
0.0000

> <Gold.Chemscore.Lipo>
80.4301

> <Gold.Chemscore.Internal_Hbond>
0.0000

> <Gold.Chemscore.DEClash>
0.1214

> <Gold.Chemscore.DEInternal>
2.4890

> <Gold.Chemscore.Rot>
1.5482

> <Gold.Chemscore.Internal.Correction>
   9.000000E+99

> <Gold.Chemscore.Hbonds>
donor molecule, donor type, donor heavy atom, donor atom, acceptor molecule, acceptor atom, score
      L1  H     8    29       P1  7948  0.21
      L1  H    11    30       P1  7948  0.60
      P1  H 10752 10764       L1     4  0.67

> <Gold.Chemscore.Hbond.Weighted>
-8.0797

> <Gold.Chemscore.Metal.Weighted>
-0.0000

> <Gold.Chemscore.Lipo.Weighted>
-9.4103

> <Gold.Chemscore.Internal_Hbond.Weighted>
0.0000

> <Gold.Chemscore.DEClash.Weighted>
0.1214

> <Gold.Chemscore.DEInternal.Weighted>
2.4890

> <Gold.Chemscore.Rot.Weighted>
3.9635

> <Gold.Chemscore.Internal.Correction.Weighted>
   9.000000E+99

> <Gold.Protein.RotatedTorsions>
[ 6907 6896 6895 6894 ] final  -22.87 input  -60.11 | X-H torsion
[ 7974 7965 7964 7962 ] final  126.49 input  175.53 | X-H torsion
[ 8008 7997 7996 7995 ] final -116.55 input   59.86 | X-H torsion
[ 10167 10162 10161 10158 ] final  -44.30 input  -65.29 | X-H torsion
[ 10718 10713 10712 10709 ] final  -12.86 input   66.30 | X-H torsion
[ 10763 10752 10751 10750 ] final  -36.08 input  -60.55 | X-H torsion
[ 11005 11000 10999 10996 ] final  -93.49 input  -57.11 | X-H torsion

> <Gold.Protein.ActiveResidues>
 VAL166  LYS551  ARG553  GLY616  TRP617  ASP618  TYR619  PRO620  LYS621  CYS622 
 ASP623  PHE694  ASN695  SER759  ASP760  ASP761  ALA762  ILE779  LEU786  VAL792 
 PHE793  MET794  SER795  GLU796  ALA797  LYS798  CYS799  TRP800  GLU811  SER814 

> <Gold.Protein.RotatedAtoms>
  151.2122  135.0486  159.8915 H   0  0  0  0  0  0  0  0  0  0  0  0  # atno 6907 bound_to 6896
  152.5423  134.0732  159.8213 H   0  0  0  0  0  0  0  0  0  0  0  0  # atno 6908 bound_to 6896
  151.0887  133.5285  159.2648 H   0  0  0  0  0  0  0  0  0  0  0  0  # atno 6909 bound_to 6896
  145.0611  139.3804  143.5005 H   0  0  0  0  0  0  0  0  0  0  0  0  # atno 7974 bound_to 7965
  155.0696  140.0393  157.2604 H   0  0  0  0  0  0  0  0  0  0  0  0  # atno 8008 bound_to 7997
  154.6993  140.2670  155.6710 H   0  0  0  0  0  0  0  0  0  0  0  0  # atno 8009 bound_to 7997
  156.2755  140.2743  156.1599 H   0  0  0  0  0  0  0  0  0  0  0  0  # atno 8010 bound_to 7997
  140.6902  143.2937  151.3475 H   0  0  0  0  0  0  0  0  0  0  0  0  # atno 10167 bound_to 10162
  156.6385  130.4921  149.6103 H   0  0  0  0  0  0  0  0  0  0  0  0  # atno 10718 bound_to 10713
  153.8739  135.6828  153.4772 H   0  0  0  0  0  0  0  0  0  0  0  0  # atno 10763 bound_to 10752
  153.1272  135.4714  154.9288 H   0  0  0  0  0  0  0  0  0  0  0  0  # atno 10764 bound_to 10752
  154.7701  135.3236  154.8158 H   0  0  0  0  0  0  0  0  0  0  0  0  # atno 10765 bound_to 10752
  141.1496  133.7891  157.0166 H   0  0  0  0  0  0  0  0  0  0  0  0  # atno 11005 bound_to 11000
  146.3524  140.0310  142.8650 LP  0  0  0  0  0  0  0  0  0  0  0  0  # atno 17320 bound_to 7965
  145.1408  140.9570  143.4490 LP  0  0  0  0  0  0  0  0  0  0  0  0  # atno 17321 bound_to 7965
  139.6297  144.0744  152.2466 LP  0  0  0  0  0  0  0  0  0  0  0  0  # atno 17342 bound_to 10162
  140.0215  144.6149  150.7563 LP  0  0  0  0  0  0  0  0  0  0  0  0  # atno 17343 bound_to 10162
  156.2178  130.6718  151.1336 LP  0  0  0  0  0  0  0  0  0  0  0  0  # atno 17370 bound_to 10713
  157.7178  131.0699  150.6257 LP  0  0  0  0  0  0  0  0  0  0  0  0  # atno 17371 bound_to 10713
  140.0843  134.9630  157.1674 LP  0  0  0  0  0  0  0  0  0  0  0  0  # atno 17394 bound_to 11000
  140.3533  134.2574  155.7195 LP  0  0  0  0  0  0  0  0  0  0  0  0  # atno 17395 bound_to 11000

$$$$
