AV-unprocessed.smi:2658|AV-procd|sdf|10310|dock2
  -GOLD-   2272014323D 1   1.00000     0.00000
 Structure written by MMmdl.
 47 49  0  0  0  0  0  0  0  0  2 V2000
  152.0286  143.8624  161.2444 C   0  0  0  0  0  0  0  0  0  0  0  0
  151.9209  142.9165  160.0602 C   0  0  0  0  0  0  0  0  0  0  0  0
  151.0425  143.2532  159.0058 C   0  0  0  0  0  0  0  0  0  0  0  0
  150.9595  142.3640  157.9408 C   0  0  0  0  0  0  0  0  0  0  0  0
  150.1951  142.4055  156.7728 N   0  3  0  0  0  0  0  0  0  0  0  0
  150.4488  141.2969  156.0241 C   0  0  0  0  0  0  0  0  0  0  0  0
  151.3647  140.5480  156.6960 N   0  0  0  0  0  0  0  0  0  0  0  0
  151.9690  139.2585  156.3325 C   0  0  0  0  0  0  0  0  0  0  0  0
  150.9275  138.1265  156.2145 C   0  0  2  0  0  0  0  0  0  0  0  0
  150.2249  138.1830  154.9893 O   0  0  0  0  0  0  0  0  0  0  0  0
  149.9159  138.0946  157.3713 C   0  0  0  0  0  0  0  0  0  0  0  0
  149.1491  136.8945  157.3109 O   0  0  0  0  0  0  0  0  0  0  0  0
  148.6604  136.3656  158.4874 C   0  0  0  0  0  0  0  0  0  0  0  0
  148.2890  135.0083  158.5192 C   0  0  0  0  0  0  0  0  0  0  0  0
  147.7946  134.4910  159.7311 C   0  0  0  0  0  0  0  0  0  0  0  0
  147.3705  133.0383  159.8393 C   0  0  0  0  0  0  0  0  0  0  0  0
  147.7150  135.3806  160.8260 C   0  0  0  0  0  0  0  0  0  0  0  0
  147.2056  134.9318  162.1829 C   0  0  0  0  0  0  0  0  0  0  0  0
  148.0867  136.6788  160.7330 N   0  0  0  0  0  0  0  0  0  0  0  0
  148.5523  137.1669  159.5786 N   0  0  0  0  0  0  0  0  0  0  0  0
  151.7146  141.1758  157.8976 C   0  0  0  0  0  0  0  0  0  0  0  0
  152.5883  140.8317  158.9267 C   0  0  0  0  0  0  0  0  0  0  0  0
  152.6847  141.7214  160.0206 C   0  0  0  0  0  0  0  0  0  0  0  0
  153.6255  141.3688  161.1600 C   0  0  0  0  0  0  0  0  0  0  0  0
  151.3817  144.7314  161.1212 H   0  0  0  0  0  0  0  0  0  0  0  0
  153.0517  144.2216  161.3570 H   0  0  0  0  0  0  0  0  0  0  0  0
  151.7356  143.3571  162.1650 H   0  0  0  0  0  0  0  0  0  0  0  0
  150.4575  144.1608  159.0298 H   0  0  0  0  0  0  0  0  0  0  0  0
  150.0013  141.0539  155.0710 H   0  0  0  0  0  0  0  0  0  0  0  0
  152.4700  139.3985  155.3738 H   0  0  0  0  0  0  0  0  0  0  0  0
  152.7512  139.0157  157.0519 H   0  0  0  0  0  0  0  0  0  0  0  0
  151.4564  137.1728  156.2121 H   0  0  0  0  0  0  0  0  0  0  0  0
  150.5273  138.9367  154.5061 H   0  0  0  0  0  0  0  0  0  0  0  0
  150.4318  138.1889  158.3287 H   0  0  0  0  0  0  0  0  0  0  0  0
  149.2439  138.9493  157.2752 H   0  0  0  0  0  0  0  0  0  0  0  0
  148.3817  134.3888  157.6392 H   0  0  0  0  0  0  0  0  0  0  0  0
  146.3265  132.9679  160.1453 H   0  0  0  0  0  0  0  0  0  0  0  0
  147.9828  132.5156  160.5745 H   0  0  0  0  0  0  0  0  0  0  0  0
  147.4770  132.5239  158.8838 H   0  0  0  0  0  0  0  0  0  0  0  0
  147.8007  134.0980  162.5559 H   0  0  0  0  0  0  0  0  0  0  0  0
  146.1663  134.6109  162.1110 H   0  0  0  0  0  0  0  0  0  0  0  0
  147.2601  135.7372  162.9164 H   0  0  0  0  0  0  0  0  0  0  0  0
  153.1664  139.9201  158.9003 H   0  0  0  0  0  0  0  0  0  0  0  0
  154.1365  140.4228  160.9777 H   0  0  0  0  0  0  0  0  0  0  0  0
  153.0749  141.2744  162.0963 H   0  0  0  0  0  0  0  0  0  0  0  0
  154.3864  142.1401  161.2812 H   0  0  0  0  0  0  0  0  0  0  0  0
  149.5448  143.1335  156.5058 H   0  0  0  0  0  0  0  0  0  0  0  0
  1  2  1  0  0  0  0
  1 25  1  0  0  0  0
  1 26  1  0  0  0  0
  1 27  1  0  0  0  0
  2 23  1  0  0  0  0
  2  3  2  0  0  0  0
  3  4  1  0  0  0  0
  3 28  1  0  0  0  0
  4 21  2  0  0  0  0
  4  5  1  0  0  0  0
  5  6  2  0  0  0  0
  5 47  1  0  0  0  0
  6  7  1  0  0  0  0
  6 29  1  0  0  0  0
  7  8  1  0  0  0  0
  7 21  1  0  0  0  0
  8  9  1  0  0  0  0
  8 30  1  0  0  0  0
  8 31  1  0  0  0  0
  9 10  1  0  0  0  0
  9 11  1  0  0  0  0
  9 32  1  0  0  0  0
 10 33  1  0  0  0  0
 11 12  1  0  0  0  0
 11 34  1  0  0  0  0
 11 35  1  0  0  0  0
 12 13  1  0  0  0  0
 13 20  1  0  0  0  0
 13 14  2  0  0  0  0
 14 15  1  0  0  0  0
 14 36  1  0  0  0  0
 15 16  1  0  0  0  0
 15 17  2  0  0  0  0
 16 37  1  0  0  0  0
 16 38  1  0  0  0  0
 16 39  1  0  0  0  0
 17 18  1  0  0  0  0
 17 19  1  0  0  0  0
 18 40  1  0  0  0  0
 18 41  1  0  0  0  0
 18 42  1  0  0  0  0
 19 20  2  0  0  0  0
 21 22  1  0  0  0  0
 22 23  2  0  0  0  0
 22 43  1  0  0  0  0
 23 24  1  0  0  0  0
 24 44  1  0  0  0  0
 24 45  1  0  0  0  0
 24 46  1  0  0  0  0
M  CHG  1   5   1
M  END
> <s_m_source_file>
AV-unprocessed.smi

> <i_m_source_file_index>
2658

> <i_lp_mmshare_version>
43012

> <i_f3d_flags>
0

> <s_epik_input>
W0NIM11jKFtjSF0xKWMoW0NIM10pW2NIXWMoYzEyKW4oW2NIXW4yKVtDSDJdW0NASF0oW09IXSlbQ0gyXU9jM1tjSF1jKFtDSDNdKWMoW0NIM10pbm4z

> <s_epik_cmdline>
J2VwaWtfcHl0aG9uJywgJy1waCcsICc3LjAnLCAnLXRuJywgJzgnLCAnLW1hJywgJzIwMCcsICctbWV0YWxfYmluZGluZycsICctaW1hZScsICc8aW5maWxlLm1hZT4nLCAnLW9tYWUnLCAnPG91dGZpbGUubWFlPic=

> <r_lp_tautomer_probability>
1

> <r_epik_Ionization_Penalty>
1.0494

> <r_epik_Ionization_Penalty_Charging>
1.04926

> <r_epik_Ionization_Penalty_Neutral>
0.000140304

> <r_epik_State_Penalty>
1.10197

> <r_epik_Charging_Adjusted_Penalty>
2.15123

> <i_epik_Tot_Q>
1

> <i_epik_Tot_abs_Q>
1

> <r_epik_Metal_State_Penalty>
1.19636

> <b_epik_Metal_Only>
0

> <s_lp_Force_Field>
OPLS_2005

> <r_lp_Energy>
21.5781

> <b_lp_Chiralities_Consistent>
1

> <s_lp_Variant>
AV-unprocessed.smi:2658-3

> <Gold.Version>
5.8.1

> <Gold.Id.Protein>
6NUR|6NUR_protein|mol2

> <Gold.PLP.Fitness>
57.0428

> <Gold.PLP.PLP>
-48.9977

> <Gold.PLP.part.hbond>
-4.9615

> <Gold.PLP.part.metal>
0.0000

> <Gold.PLP.part.buried>
-5.0085

> <Gold.PLP.part.nonpolar>
-39.0797

> <Gold.PLP.part.repulsive>
0.0924

> <Gold.PLP.ligand.clash>
0.0000

> <Gold.PLP.ligand.torsion>
0.6360

> <Gold.PLP.Chemscore.Hbond>
3.0944

> <Gold.PLP.Chemscore.CHOScore>
0.0000

> <Gold.PLP.Chemscore.Metal>
0.0000

> <Gold.Chemscore.Hbonds>
donor molecule, donor type, donor heavy atom, donor atom, acceptor molecule, acceptor atom, score
      L1  H     5    47       P1  8028  2.00
      P1  H  6931  6943       L1    19  0.38

> <Gold.PLP.Chemscore.Internal.Correction>
0.0339

> <Gold.Rescore>
     Score         DG    S(hbond)    S(metal)    S(lipo)     H(rot)  DE(clash)    DE(int)     intcor
     18.20     -19.05       1.63        0.00     123.49       2.47       0.12       0.73       ----

> <Gold.Chemscore.Fitness>
18.1989

> <Gold.Chemscore.DG>
-19.0460

> <Gold.Chemscore.ZeroCoef>
-5.4800

> <Gold.Chemscore.Hbond>
1.6278

> <Gold.Chemscore.Metal>
0.0000

> <Gold.Chemscore.Lipo>
123.4929

> <Gold.Chemscore.Internal_Hbond>
0.0000

> <Gold.Chemscore.DEClash>
0.1165

> <Gold.Chemscore.DEInternal>
0.7307

> <Gold.Chemscore.Rot>
2.4685

> <Gold.Chemscore.Internal.Correction>
   9.000000E+99

> <Gold.Chemscore.Hbonds>
donor molecule, donor type, donor heavy atom, donor atom, acceptor molecule, acceptor atom, score
      L1  H     5    47       P1  8028  0.99
      P1  H  6931  6943       L1    19  0.03

> <Gold.Chemscore.Hbond.Weighted>
-5.4367

> <Gold.Chemscore.Metal.Weighted>
-0.0000

> <Gold.Chemscore.Lipo.Weighted>
-14.4487

> <Gold.Chemscore.Internal_Hbond.Weighted>
0.0000

> <Gold.Chemscore.DEClash.Weighted>
0.1165

> <Gold.Chemscore.DEInternal.Weighted>
0.7307

> <Gold.Chemscore.Rot.Weighted>
6.3194

> <Gold.Chemscore.Internal.Correction.Weighted>
   9.000000E+99

> <Gold.Protein.RotatedTorsions>
[ 6907 6896 6895 6894 ] final -126.66 input  -60.11 | X-H torsion
[ 7974 7965 7964 7962 ] final  -84.88 input  175.53 | X-H torsion
[ 8008 7997 7996 7995 ] final   42.94 input   59.86 | X-H torsion
[ 10167 10162 10161 10158 ] final   10.29 input  -65.29 | X-H torsion
[ 10718 10713 10712 10709 ] final  -59.44 input   66.30 | X-H torsion
[ 10763 10752 10751 10750 ] final   62.74 input  -60.55 | X-H torsion
[ 11005 11000 10999 10996 ] final  140.92 input  -57.11 | X-H torsion

> <Gold.Protein.ActiveResidues>
 VAL166  LYS551  ARG553  GLY616  TRP617  ASP618  TYR619  PRO620  LYS621  CYS622 
 ASP623  PHE694  ASN695  SER759  ASP760  ASP761  ALA762  ILE779  LEU786  VAL792 
 PHE793  MET794  SER795  GLU796  ALA797  LYS798  CYS799  TRP800  GLU811  SER814 

> <Gold.Protein.RotatedAtoms>
  150.8992  133.7140  159.2883 H   0  0  0  0  0  0  0  0  0  0  0  0  # atno 6907 bound_to 6896
  151.4665  135.1041  159.9749 H   0  0  0  0  0  0  0  0  0  0  0  0  # atno 6908 bound_to 6896
  152.4867  133.8343  159.7174 H   0  0  0  0  0  0  0  0  0  0  0  0  # atno 6909 bound_to 6896
  145.5007  140.9547  143.1761 H   0  0  0  0  0  0  0  0  0  0  0  0  # atno 7974 bound_to 7965
  155.2945  140.3381  155.4251 H   0  0  0  0  0  0  0  0  0  0  0  0  # atno 8008 bound_to 7997
  156.2030  140.1740  156.7898 H   0  0  0  0  0  0  0  0  0  0  0  0  # atno 8009 bound_to 7997
  154.5584  140.0692  156.8764 H   0  0  0  0  0  0  0  0  0  0  0  0  # atno 8010 bound_to 7997
  140.6203  143.8218  150.7167 H   0  0  0  0  0  0  0  0  0  0  0  0  # atno 10167 bound_to 10162
  156.1061  130.4180  150.0716 H   0  0  0  0  0  0  0  0  0  0  0  0  # atno 10718 bound_to 10713
  152.9993  135.5454  154.6241 H   0  0  0  0  0  0  0  0  0  0  0  0  # atno 10763 bound_to 10752
  154.5533  135.2828  155.0990 H   0  0  0  0  0  0  0  0  0  0  0  0  # atno 10764 bound_to 10752
  154.2221  135.6449  153.5200 H   0  0  0  0  0  0  0  0  0  0  0  0  # atno 10765 bound_to 10752
  140.0363  134.9327  157.0758 H   0  0  0  0  0  0  0  0  0  0  0  0  # atno 11005 bound_to 11000
  144.7782  139.6584  143.7166 LP  0  0  0  0  0  0  0  0  0  0  0  0  # atno 17320 bound_to 7965
  146.2228  139.5666  142.9607 LP  0  0  0  0  0  0  0  0  0  0  0  0  # atno 17321 bound_to 7965
  140.1807  143.4117  152.1935 LP  0  0  0  0  0  0  0  0  0  0  0  0  # atno 17342 bound_to 10162
  139.5433  144.7276  151.4663 LP  0  0  0  0  0  0  0  0  0  0  0  0  # atno 17343 bound_to 10162
  156.8691  130.9518  151.3611 LP  0  0  0  0  0  0  0  0  0  0  0  0  # atno 17370 bound_to 10713
  157.6238  130.8676  149.9154 LP  0  0  0  0  0  0  0  0  0  0  0  0  # atno 17371 bound_to 10713
  140.4143  134.1948  155.7163 LP  0  0  0  0  0  0  0  0  0  0  0  0  # atno 17394 bound_to 11000
  141.1859  133.8314  157.1088 LP  0  0  0  0  0  0  0  0  0  0  0  0  # atno 17395 bound_to 11000

$$$$
