AV-unprocessed.smi:109|AV-procd|sdf|1039|dock7
  -GOLD-   2262018 63D 1   1.00000     0.00000
 Structure written by MMmdl.
 58 61  0  0  0  0  0  0  0  0  1 V2000
  150.3607  139.9990  153.6035 O   0  0  0  0  0  0  0  0  0  0  0  0
  149.5521  140.4723  154.6590 C   0  0  0  0  0  0  0  0  0  0  0  0
  150.4275  141.1624  155.7194 C   0  0  0  0  0  0  0  0  0  0  0  0
  149.6590  141.5936  156.9927 C   0  0  2  0  0  0  0  0  0  0  0  0
  148.5220  142.4352  156.6139 N   0  0  0  0  0  0  0  0  0  0  0  0
  147.2681  142.2018  157.0624 C   0  0  0  0  0  0  0  0  0  0  0  0
  147.0390  141.6425  158.2789 N   0  0  0  0  0  0  0  0  0  0  0  0
  145.7868  141.4143  158.6858 C   0  0  0  0  0  0  0  0  0  0  0  0
  144.6430  141.6684  158.0464 N   0  0  0  0  0  0  0  0  0  0  0  0
  144.8668  142.2390  156.8272 C   0  0  0  0  0  0  0  0  0  0  0  0
  146.1410  142.5276  156.2650 C   0  0  0  0  0  0  0  0  0  0  0  0
  145.9828  143.0804  155.0016 N   0  0  0  0  0  0  0  0  0  0  0  0
  144.6887  143.1072  154.8292 C   0  0  0  0  0  0  0  0  0  0  0  0
  143.9381  142.6508  155.8935 N   0  0  0  0  0  0  0  0  0  0  0  0
  142.4486  142.5210  156.0086 C   0  0  2  0  0  0  0  0  0  0  0  0
  141.8730  142.9858  154.8206 O   0  0  0  0  0  0  0  0  0  0  0  0
  141.2773  144.2694  155.0003 C   0  0  2  0  0  0  0  0  0  0  0  0
  142.3053  145.3874  154.7114 C   0  0  0  0  0  0  0  0  0  0  0  0
  142.7693  145.2755  153.3834 O   0  0  0  0  0  0  0  0  0  0  0  0
  140.7920  144.1829  156.4533 C   0  0  2  0  0  0  0  0  0  0  0  0
  140.5952  145.4508  157.0486 O   0  0  0  0  0  0  0  0  0  0  0  0
  141.8898  143.3911  157.1521 C   0  0  1  0  0  0  0  0  0  0  0  0
  141.3231  142.6047  158.1817 O   0  0  0  0  0  0  0  0  0  0  0  0
  150.5392  142.3547  158.0258 C   0  0  0  0  0  0  0  0  0  0  0  0
  151.2723  143.5789  157.4224 C   0  0  0  0  0  0  0  0  0  0  0  0
  152.1664  144.2928  158.4498 C   0  0  0  0  0  0  0  0  0  0  0  0
  153.1837  143.3305  159.0744 C   0  0  0  0  0  0  0  0  0  0  0  0
  152.4718  142.1258  159.7009 C   0  0  0  0  0  0  0  0  0  0  0  0
  151.5848  141.4089  158.6717 C   0  0  0  0  0  0  0  0  0  0  0  0
  142.2793  141.4499  156.1279 H   0  0  0  0  0  0  0  0  0  0  0  0
  140.4232  144.3822  154.3313 H   0  0  0  0  0  0  0  0  0  0  0  0
  139.8526  143.6274  156.4736 H   0  0  0  0  0  0  0  0  0  0  0  0
  142.6655  144.0527  157.5417 H   0  0  0  0  0  0  0  0  0  0  0  0
  149.8709  140.0633  152.7980 H   0  0  0  0  0  0  0  0  0  0  0  0
  148.8132  141.1592  154.2465 H   0  0  0  0  0  0  0  0  0  0  0  0
  149.0115  139.6317  155.0951 H   0  0  0  0  0  0  0  0  0  0  0  0
  151.2134  140.4569  155.9835 H   0  0  0  0  0  0  0  0  0  0  0  0
  150.9254  142.0278  155.2796 H   0  0  0  0  0  0  0  0  0  0  0  0
  149.3165  140.6870  157.4909 H   0  0  0  0  0  0  0  0  0  0  0  0
  148.7484  143.2313  156.0352 H   0  0  0  0  0  0  0  0  0  0  0  0
  145.6868  140.9649  159.6627 H   0  0  0  0  0  0  0  0  0  0  0  0
  144.2479  143.4716  153.9129 H   0  0  0  0  0  0  0  0  0  0  0  0
  141.8381  146.3689  154.7897 H   0  0  0  0  0  0  0  0  0  0  0  0
  143.1394  145.3838  155.4112 H   0  0  0  0  0  0  0  0  0  0  0  0
  142.4528  144.4617  153.0222 H   0  0  0  0  0  0  0  0  0  0  0  0
  141.4260  145.7626  157.3740 H   0  0  0  0  0  0  0  0  0  0  0  0
  141.1102  141.7545  157.8290 H   0  0  0  0  0  0  0  0  0  0  0  0
  149.8848  142.7216  158.8184 H   0  0  0  0  0  0  0  0  0  0  0  0
  151.8760  143.2635  156.5704 H   0  0  0  0  0  0  0  0  0  0  0  0
  150.5606  144.3118  157.0465 H   0  0  0  0  0  0  0  0  0  0  0  0
  152.6871  145.1241  157.9735 H   0  0  0  0  0  0  0  0  0  0  0  0
  151.5453  144.7271  159.2341 H   0  0  0  0  0  0  0  0  0  0  0  0
  153.8841  142.9885  158.3112 H   0  0  0  0  0  0  0  0  0  0  0  0
  153.7747  143.8496  159.8296 H   0  0  0  0  0  0  0  0  0  0  0  0
  153.2072  141.4296  160.1054 H   0  0  0  0  0  0  0  0  0  0  0  0
  151.8620  142.4562  160.5429 H   0  0  0  0  0  0  0  0  0  0  0  0
  151.0954  140.5717  159.1700 H   0  0  0  0  0  0  0  0  0  0  0  0
  152.2130  140.9732  157.8936 H   0  0  0  0  0  0  0  0  0  0  0  0
  1  2  1  0  0  0  0
  1 34  1  0  0  0  0
  2  3  1  0  0  0  0
  2 35  1  0  0  0  0
  2 36  1  0  0  0  0
  3  4  1  0  0  0  0
  3 37  1  0  0  0  0
  3 38  1  0  0  0  0
  4  5  1  0  0  0  0
  4 24  1  0  0  0  0
  4 39  1  0  0  0  0
  5  6  1  0  0  0  0
  5 40  1  0  0  0  0
  6 11  1  0  0  0  0
  6  7  2  0  0  0  0
  7  8  1  0  0  0  0
  8  9  2  0  0  0  0
  8 41  1  0  0  0  0
  9 10  1  0  0  0  0
 10 14  1  0  0  0  0
 10 11  2  0  0  0  0
 11 12  1  0  0  0  0
 12 13  2  0  0  0  0
 13 14  1  0  0  0  0
 13 42  1  0  0  0  0
 14 15  1  0  0  0  0
 15 30  1  0  0  0  0
 15 22  1  0  0  0  0
 15 16  1  0  0  0  0
 16 17  1  0  0  0  0
 17 31  1  0  0  0  0
 17 18  1  0  0  0  0
 17 20  1  0  0  0  0
 18 19  1  0  0  0  0
 18 43  1  0  0  0  0
 18 44  1  0  0  0  0
 19 45  1  0  0  0  0
 20 32  1  0  0  0  0
 20 21  1  0  0  0  0
 20 22  1  0  0  0  0
 21 46  1  0  0  0  0
 22 33  1  0  0  0  0
 22 23  1  0  0  0  0
 23 47  1  0  0  0  0
 24 29  1  0  0  0  0
 24 25  1  0  0  0  0
 24 48  1  0  0  0  0
 25 26  1  0  0  0  0
 25 49  1  0  0  0  0
 25 50  1  0  0  0  0
 26 27  1  0  0  0  0
 26 51  1  0  0  0  0
 26 52  1  0  0  0  0
 27 28  1  0  0  0  0
 27 53  1  0  0  0  0
 27 54  1  0  0  0  0
 28 29  1  0  0  0  0
 28 55  1  0  0  0  0
 28 56  1  0  0  0  0
 29 57  1  0  0  0  0
 29 58  1  0  0  0  0
M  END
> <s_m_source_file>
AV-unprocessed.smi

> <i_m_source_file_index>
109

> <i_lp_mmshare_version>
43012

> <i_f3d_flags>
0

> <s_epik_input>
W0NIMl0xW0NIMl1bQ0gyXVtDSDJdW0NIMl1bQ0hdMVtDQEhdKFtDSDJdW0NIMl1bT0hdKVtOSF1jKG5bY0hdbjIpYyhjMjMpbltjSF1uM1tDQEBIXTRPW0NASF0oW0NIMl1bT0hdKVtDQEBIXShbT0hdKVtDQEhdNFtPSF0=

> <s_epik_cmdline>
J2VwaWtfcHl0aG9uJywgJy1waCcsICc3LjAnLCAnLXRuJywgJzgnLCAnLW1hJywgJzIwMCcsICctbWV0YWxfYmluZGluZycsICctaW1hZScsICc8aW5maWxlLm1hZT4nLCAnLW9tYWUnLCAnPG91dGZpbGUubWFlPic=

> <r_lp_tautomer_probability>
1

> <r_epik_Ionization_Penalty>
0.000793976

> <r_epik_Ionization_Penalty_Charging>
0

> <r_epik_Ionization_Penalty_Neutral>
0.000793976

> <r_epik_State_Penalty>
-0

> <r_epik_Charging_Adjusted_Penalty>
0

> <i_epik_Tot_Q>
0

> <i_epik_Tot_abs_Q>
0

> <r_epik_Metal_State_Penalty>
-0

> <b_epik_Metal_Only>
0

> <s_epik_Chemistry_Notes>
This compound contains an acetal/aminal-like group ( X-CH(R)-Y where X, Y are N, S, or O) that may be acid/base labile, releasing an aldehyde.

> <s_lp_Force_Field>
OPLS_2005

> <r_lp_Energy>
51.6151

> <b_lp_Chiralities_Consistent>
1

> <s_lp_Variant>
AV-unprocessed.smi:109-9

> <Gold.Version>
5.8.1

> <Gold.Id.Protein>
6NUR|6NUR_protein|mol2

> <Gold.PLP.Fitness>
52.7339

> <Gold.PLP.PLP>
-38.8295

> <Gold.PLP.part.hbond>
-5.1792

> <Gold.PLP.part.metal>
0.0000

> <Gold.PLP.part.buried>
-4.1557

> <Gold.PLP.part.nonpolar>
-31.9295

> <Gold.PLP.part.repulsive>
1.7866

> <Gold.PLP.ligand.clash>
0.0000

> <Gold.PLP.ligand.torsion>
0.4648

> <Gold.PLP.Chemscore.Hbond>
3.9760

> <Gold.PLP.Chemscore.CHOScore>
0.9133

> <Gold.PLP.Chemscore.Metal>
0.0000

> <Gold.Chemscore.Hbonds>
donor molecule, donor type, donor heavy atom, donor atom, acceptor molecule, acceptor atom, score
      L1  H     1    34       P1  7957  1.00
      L1  H     5    40       P1  8028  1.00
      L1  H    19    45       P1 10174  0.70
      P1  H  7989  7998       L1     1  0.79
      L1  C    13    42       P1 10174  0.90

> <Gold.PLP.Chemscore.Internal.Correction>
0.1662

> <Gold.Rescore>
     Score         DG    S(hbond)    S(metal)    S(lipo)     H(rot)  DE(clash)    DE(int)     intcor
     11.26     -14.11       3.54        0.00      92.20       5.47       2.34       0.51       ----

> <Gold.Chemscore.Fitness>
11.2609

> <Gold.Chemscore.DG>
-14.1124

> <Gold.Chemscore.ZeroCoef>
-5.4800

> <Gold.Chemscore.Hbond>
3.5443

> <Gold.Chemscore.Metal>
0.0000

> <Gold.Chemscore.Lipo>
92.2048

> <Gold.Chemscore.Internal_Hbond>
0.0000

> <Gold.Chemscore.DEClash>
2.3373

> <Gold.Chemscore.DEInternal>
0.5143

> <Gold.Chemscore.Rot>
5.4662

> <Gold.Chemscore.Internal.Correction>
   9.000000E+99

> <Gold.Chemscore.Hbonds>
donor molecule, donor type, donor heavy atom, donor atom, acceptor molecule, acceptor atom, score
      L1  H     1    34       P1  7957  0.99
      L1  H     5    40       P1  8028  0.92
      L1  H    19    45       P1 10174  0.69
      P1  H  7989  7998       L1     1  0.38

> <Gold.Chemscore.Hbond.Weighted>
-11.8380

> <Gold.Chemscore.Metal.Weighted>
-0.0000

> <Gold.Chemscore.Lipo.Weighted>
-10.7880

> <Gold.Chemscore.Internal_Hbond.Weighted>
0.0000

> <Gold.Chemscore.DEClash.Weighted>
2.3373

> <Gold.Chemscore.DEInternal.Weighted>
0.5143

> <Gold.Chemscore.Rot.Weighted>
13.9935

> <Gold.Chemscore.Internal.Correction.Weighted>
   9.000000E+99

> <Gold.Protein.RotatedTorsions>
[ 6907 6896 6895 6894 ] final  160.85 input  -60.11 | X-H torsion
[ 7974 7965 7964 7962 ] final  -17.06 input  175.53 | X-H torsion
[ 8008 7997 7996 7995 ] final  -69.49 input   59.86 | X-H torsion
[ 10167 10162 10161 10158 ] final   54.85 input  -65.29 | X-H torsion
[ 10718 10713 10712 10709 ] final  -35.26 input   66.30 | X-H torsion
[ 10763 10752 10751 10750 ] final  169.09 input  -60.55 | X-H torsion
[ 11005 11000 10999 10996 ] final  -89.03 input  -57.11 | X-H torsion

> <Gold.Protein.ActiveResidues>
 VAL166  LYS551  ARG553  GLY616  TRP617  ASP618  TYR619  PRO620  LYS621  CYS622 
 ASP623  PHE694  ASN695  SER759  ASP760  ASP761  ALA762  ILE779  LEU786  VAL792 
 PHE793  MET794  SER795  GLU796  ALA797  LYS798  CYS799  TRP800  GLU811  SER814 

> <Gold.Protein.RotatedAtoms>
  151.9645  133.3706  159.4047 H   0  0  0  0  0  0  0  0  0  0  0  0  # atno 6907 bound_to 6896
  150.6959  134.4205  159.5212 H   0  0  0  0  0  0  0  0  0  0  0  0  # atno 6908 bound_to 6896
  152.1899  134.8681  160.0569 H   0  0  0  0  0  0  0  0  0  0  0  0  # atno 6909 bound_to 6896
  146.1959  140.3725  142.8441 H   0  0  0  0  0  0  0  0  0  0  0  0  # atno 7974 bound_to 7965
  154.4943  140.0852  156.7662 H   0  0  0  0  0  0  0  0  0  0  0  0  # atno 8008 bound_to 7997
  155.4155  140.3443  155.4249 H   0  0  0  0  0  0  0  0  0  0  0  0  # atno 8009 bound_to 7997
  156.1372  140.1518  156.8964 H   0  0  0  0  0  0  0  0  0  0  0  0  # atno 8010 bound_to 7997
  140.2257  144.3741  150.6433 H   0  0  0  0  0  0  0  0  0  0  0  0  # atno 10167 bound_to 10162
  156.3408  130.4293  149.7789 H   0  0  0  0  0  0  0  0  0  0  0  0  # atno 10718 bound_to 10713
  154.3781  135.2753  155.2227 H   0  0  0  0  0  0  0  0  0  0  0  0  # atno 10763 bound_to 10752
  154.4345  135.5969  153.6093 H   0  0  0  0  0  0  0  0  0  0  0  0  # atno 10764 bound_to 10752
  152.9835  135.6004  154.4021 H   0  0  0  0  0  0  0  0  0  0  0  0  # atno 10765 bound_to 10752
  141.1592  133.7606  156.9537 H   0  0  0  0  0  0  0  0  0  0  0  0  # atno 11005 bound_to 11000
  144.8579  140.7097  143.6126 LP  0  0  0  0  0  0  0  0  0  0  0  0  # atno 17320 bound_to 7965
  145.3646  139.1673  143.4365 LP  0  0  0  0  0  0  0  0  0  0  0  0  # atno 17321 bound_to 7965
  140.6222  143.2177  151.6670 LP  0  0  0  0  0  0  0  0  0  0  0  0  # atno 17342 bound_to 10162
  139.5128  144.3464  152.0693 LP  0  0  0  0  0  0  0  0  0  0  0  0  # atno 17343 bound_to 10162
  156.5027  130.8136  151.3138 LP  0  0  0  0  0  0  0  0  0  0  0  0  # atno 17370 bound_to 10713
  157.7446  130.9939  150.2690 LP  0  0  0  0  0  0  0  0  0  0  0  0  # atno 17371 bound_to 10713
  140.1240  134.9399  157.2243 LP  0  0  0  0  0  0  0  0  0  0  0  0  # atno 17394 bound_to 11000
  140.3036  134.3103  155.7283 LP  0  0  0  0  0  0  0  0  0  0  0  0  # atno 17395 bound_to 11000

$$$$
