AV-unprocessed.smi:1941|AV-procd|sdf|7846|dock5
  -GOLD-   22720 9593D 1   1.00000     0.00000
 Structure written by MMmdl.
 40 41  0  0  0  0  0  0  0  0  1 V2000
  154.7654  140.4423  160.5098 C   0  0  0  0  0  0  0  0  0  0  0  0
  153.8217  141.5654  160.7698 C   0  0  0  0  0  0  0  0  0  0  0  0
  153.1351  142.1889  159.8096 N   0  0  0  0  0  0  0  0  0  0  0  0
  152.3343  143.2222  160.3055 C   0  0  0  0  0  0  0  0  0  0  0  0
  151.5220  144.0581  159.3595 C   0  0  0  0  0  0  0  0  0  0  0  0
  150.6990  145.1596  160.0563 C   0  0  0  0  0  0  0  0  0  0  0  0
  149.3319  145.2411  159.5461 N   0  0  0  0  0  0  0  0  0  0  0  0
  148.2428  144.7569  160.1607 C   0  0  0  0  0  0  0  0  0  0  0  0
  148.2583  144.2026  161.2600 O   0  0  0  0  0  0  0  0  0  0  0  0
  147.1387  144.9311  159.4206 N   0  0  0  0  0  0  0  0  0  0  0  0
  145.8025  144.4527  159.7675 C   0  0  1  0  0  0  0  0  0  0  0  0
  144.8178  145.6276  159.6620 C   0  0  0  0  0  0  0  0  0  0  0  0
  145.4144  143.2768  158.8467 C   0  0  2  0  0  0  0  0  0  0  0  0
  143.9354  143.2324  158.4586 C   0  0  0  0  0  0  0  0  0  0  0  0
  143.7495  141.7708  158.1235 C   0  0  0  0  0  0  0  0  0  0  0  0
  144.6131  141.0982  159.1849 C   0  0  0  0  0  0  0  0  0  0  0  0
  145.6489  142.0265  159.4936 O   0  0  0  0  0  0  0  0  0  0  0  0
  152.4080  143.3571  161.6698 C   0  0  0  0  0  0  0  0  0  0  0  0
  153.5000  142.2001  162.3783 S   0  0  0  0  0  0  0  0  0  0  0  0
  155.0476  140.4163  159.4570 H   0  0  0  0  0  0  0  0  0  0  0  0
  154.2960  139.4938  160.7713 H   0  0  0  0  0  0  0  0  0  0  0  0
  155.6676  140.5664  161.1091 H   0  0  0  0  0  0  0  0  0  0  0  0
  152.1780  144.5198  158.6205 H   0  0  0  0  0  0  0  0  0  0  0  0
  150.8467  143.4179  158.7908 H   0  0  0  0  0  0  0  0  0  0  0  0
  150.6979  144.9997  161.1359 H   0  0  0  0  0  0  0  0  0  0  0  0
  151.1760  146.1264  159.8951 H   0  0  0  0  0  0  0  0  0  0  0  0
  149.2111  145.6762  158.6433 H   0  0  0  0  0  0  0  0  0  0  0  0
  147.2351  145.3951  158.5296 H   0  0  0  0  0  0  0  0  0  0  0  0
  145.7926  144.1058  160.8025 H   0  0  0  0  0  0  0  0  0  0  0  0
  143.8145  145.3350  159.9718 H   0  0  0  0  0  0  0  0  0  0  0  0
  144.7544  146.0031  158.6401 H   0  0  0  0  0  0  0  0  0  0  0  0
  145.1249  146.4545  160.3031 H   0  0  0  0  0  0  0  0  0  0  0  0
  146.0192  143.2944  157.9382 H   0  0  0  0  0  0  0  0  0  0  0  0
  143.3052  143.5028  159.3072 H   0  0  0  0  0  0  0  0  0  0  0  0
  143.6925  143.8929  157.6261 H   0  0  0  0  0  0  0  0  0  0  0  0
  142.7079  141.4496  158.1535 H   0  0  0  0  0  0  0  0  0  0  0  0
  144.1451  141.5620  157.1286 H   0  0  0  0  0  0  0  0  0  0  0  0
  144.0344  140.9148  160.0908 H   0  0  0  0  0  0  0  0  0  0  0  0
  145.0202  140.1460  158.8447 H   0  0  0  0  0  0  0  0  0  0  0  0
  151.8980  144.0729  162.2972 H   0  0  0  0  0  0  0  0  0  0  0  0
  1  2  1  0  0  0  0
  1 20  1  0  0  0  0
  1 21  1  0  0  0  0
  1 22  1  0  0  0  0
  2 19  1  0  0  0  0
  2  3  2  0  0  0  0
  3  4  1  0  0  0  0
  4  5  1  0  0  0  0
  4 18  2  0  0  0  0
  5  6  1  0  0  0  0
  5 23  1  0  0  0  0
  5 24  1  0  0  0  0
  6  7  1  0  0  0  0
  6 25  1  0  0  0  0
  6 26  1  0  0  0  0
  7  8  1  0  0  0  0
  7 27  1  0  0  0  0
  8  9  2  0  0  0  0
  8 10  1  0  0  0  0
 10 11  1  0  0  0  0
 10 28  1  0  0  0  0
 11 12  1  0  0  0  0
 11 13  1  0  0  0  0
 11 29  1  0  0  0  0
 12 30  1  0  0  0  0
 12 31  1  0  0  0  0
 12 32  1  0  0  0  0
 13 17  1  0  0  0  0
 13 14  1  0  0  0  0
 13 33  1  0  0  0  0
 14 15  1  0  0  0  0
 14 34  1  0  0  0  0
 14 35  1  0  0  0  0
 15 16  1  0  0  0  0
 15 36  1  0  0  0  0
 15 37  1  0  0  0  0
 16 17  1  0  0  0  0
 16 38  1  0  0  0  0
 16 39  1  0  0  0  0
 18 19  1  0  0  0  0
 18 40  1  0  0  0  0
M  END
> <s_m_source_file>
AV-unprocessed.smi

> <i_m_source_file_index>
1941

> <i_lp_mmshare_version>
43012

> <i_f3d_flags>
0

> <s_epik_input>
W0NIM11jMW5jKFtjSF1zMSlbQ0gyXVtDSDJdW05IXUMoPU8pW05IXVtDQEhdKFtDSDNdKVtDQEBIXTJbQ0gyXVtDSDJdW0NIMl1PMg==

> <s_epik_cmdline>
J2VwaWtfcHl0aG9uJywgJy1waCcsICc3LjAnLCAnLXRuJywgJzgnLCAnLW1hJywgJzIwMCcsICctbWV0YWxfYmluZGluZycsICctaW1hZScsICc8aW5maWxlLm1hZT4nLCAnLW9tYWUnLCAnPG91dGZpbGUubWFlPic=

> <r_epik_Ionization_Penalty>
0.00195486

> <r_epik_Ionization_Penalty_Charging>
0

> <r_epik_Ionization_Penalty_Neutral>
0.00195486

> <r_epik_State_Penalty>
0.00129472

> <r_epik_Charging_Adjusted_Penalty>
0.00129472

> <i_epik_Tot_Q>
0

> <i_epik_Tot_abs_Q>
0

> <r_epik_Metal_State_Penalty>
-0

> <b_epik_Metal_Only>
0

> <s_lp_Force_Field>
OPLS_2005

> <r_lp_Energy>
10.9889

> <b_lp_Chiralities_Consistent>
1

> <s_lp_Variant>
AV-unprocessed.smi:1941-2

> <Gold.Version>
5.8.1

> <Gold.Id.Protein>
6NUR|6NUR_protein|mol2

> <Gold.PLP.Fitness>
44.9697

> <Gold.PLP.PLP>
-36.3581

> <Gold.PLP.part.hbond>
-4.0000

> <Gold.PLP.part.metal>
0.0000

> <Gold.PLP.part.buried>
-6.5254

> <Gold.PLP.part.nonpolar>
-25.8536

> <Gold.PLP.part.repulsive>
0.5020

> <Gold.PLP.ligand.clash>
0.0000

> <Gold.PLP.ligand.torsion>
1.5659

> <Gold.PLP.Chemscore.Hbond>
3.9040

> <Gold.PLP.Chemscore.CHOScore>
0.0000

> <Gold.PLP.Chemscore.Metal>
0.0000

> <Gold.Chemscore.Hbonds>
donor molecule, donor type, donor heavy atom, donor atom, acceptor molecule, acceptor atom, score
      L1  H     7    27       P1  8029  0.85
      L1  H    10    28       P1  8029  0.93
      P1  H  6933  6944       L1     9  1.00
      P1  H  6934  6946       L1    17  0.83

> <Gold.PLP.Chemscore.Internal.Correction>
0.0314

> <Gold.Rescore>
     Score         DG    S(hbond)    S(metal)    S(lipo)     H(rot)  DE(clash)    DE(int)     intcor
     21.98     -23.89       3.80        0.00      85.91       1.69       0.01       1.90       ----

> <Gold.Chemscore.Fitness>
21.9837

> <Gold.Chemscore.DG>
-23.8930

> <Gold.Chemscore.ZeroCoef>
-5.4800

> <Gold.Chemscore.Hbond>
3.8006

> <Gold.Chemscore.Metal>
0.0000

> <Gold.Chemscore.Lipo>
85.9072

> <Gold.Chemscore.Internal_Hbond>
0.0000

> <Gold.Chemscore.DEClash>
0.0135

> <Gold.Chemscore.DEInternal>
1.8958

> <Gold.Chemscore.Rot>
1.6923

> <Gold.Chemscore.Internal.Correction>
   9.000000E+99

> <Gold.Chemscore.Hbonds>
donor molecule, donor type, donor heavy atom, donor atom, acceptor molecule, acceptor atom, score
      L1  H     7    27       P1  8029  0.82
      L1  H    10    28       P1  8029  0.88
      P1  H  6933  6944       L1     9  0.94
      P1  H  6934  6946       L1    17  0.24

> <Gold.Chemscore.Hbond.Weighted>
-12.6942

> <Gold.Chemscore.Metal.Weighted>
-0.0000

> <Gold.Chemscore.Lipo.Weighted>
-10.0511

> <Gold.Chemscore.Internal_Hbond.Weighted>
0.0000

> <Gold.Chemscore.DEClash.Weighted>
0.0135

> <Gold.Chemscore.DEInternal.Weighted>
1.8958

> <Gold.Chemscore.Rot.Weighted>
4.3323

> <Gold.Chemscore.Internal.Correction.Weighted>
   9.000000E+99

> <Gold.Protein.RotatedTorsions>
[ 6907 6896 6895 6894 ] final   -9.83 input  -60.11 | X-H torsion
[ 7974 7965 7964 7962 ] final  -77.99 input  175.53 | X-H torsion
[ 8008 7997 7996 7995 ] final  157.89 input   59.86 | X-H torsion
[ 10167 10162 10161 10158 ] final -155.38 input  -65.29 | X-H torsion
[ 10718 10713 10712 10709 ] final -164.02 input   66.30 | X-H torsion
[ 10763 10752 10751 10750 ] final -125.72 input  -60.55 | X-H torsion
[ 11005 11000 10999 10996 ] final    2.07 input  -57.11 | X-H torsion

> <Gold.Protein.ActiveResidues>
 VAL166  LYS551  ARG553  GLY616  TRP617  ASP618  TYR619  PRO620  LYS621  CYS622 
 ASP623  PHE694  ASN695  SER759  ASP760  ASP761  ALA762  ILE779  LEU786  VAL792 
 PHE793  MET794  SER795  GLU796  ALA797  LYS798  CYS799  TRP800  GLU811  SER814 

> <Gold.Protein.RotatedAtoms>
  151.4115  135.0985  159.9586 H   0  0  0  0  0  0  0  0  0  0  0  0  # atno 6907 bound_to 6896
  152.5018  133.8793  159.7348 H   0  0  0  0  0  0  0  0  0  0  0  0  # atno 6908 bound_to 6896
  150.9288  133.6734  159.2843 H   0  0  0  0  0  0  0  0  0  0  0  0  # atno 6909 bound_to 6896
  145.5924  140.9426  143.1285 H   0  0  0  0  0  0  0  0  0  0  0  0  # atno 7974 bound_to 7965
  156.2336  140.1873  156.7177 H   0  0  0  0  0  0  0  0  0  0  0  0  # atno 8008 bound_to 7997
  154.6067  140.0628  156.9467 H   0  0  0  0  0  0  0  0  0  0  0  0  # atno 8009 bound_to 7997
  155.2084  140.3298  155.4335 H   0  0  0  0  0  0  0  0  0  0  0  0  # atno 8010 bound_to 7997
  139.6936  143.9379  152.2396 H   0  0  0  0  0  0  0  0  0  0  0  0  # atno 10167 bound_to 10162
  156.6330  130.8937  151.2981 H   0  0  0  0  0  0  0  0  0  0  0  0  # atno 10718 bound_to 10713
  154.8739  135.4020  154.3315 H   0  0  0  0  0  0  0  0  0  0  0  0  # atno 10763 bound_to 10752
  153.4128  135.7021  153.6353 H   0  0  0  0  0  0  0  0  0  0  0  0  # atno 10764 bound_to 10752
  153.5048  135.3720  155.2528 H   0  0  0  0  0  0  0  0  0  0  0  0  # atno 10765 bound_to 10752
  140.6084  133.9771  155.8165 H   0  0  0  0  0  0  0  0  0  0  0  0  # atno 11005 bound_to 11000
  144.7345  139.7626  143.7334 LP  0  0  0  0  0  0  0  0  0  0  0  0  # atno 17320 bound_to 7965
  146.1637  139.4760  142.9972 LP  0  0  0  0  0  0  0  0  0  0  0  0  # atno 17321 bound_to 7965
  139.9202  144.6804  150.8469 LP  0  0  0  0  0  0  0  0  0  0  0  0  # atno 17342 bound_to 10162
  140.7690  143.3380  151.2267 LP  0  0  0  0  0  0  0  0  0  0  0  0  # atno 17343 bound_to 10162
  157.7194  130.9539  150.1380 LP  0  0  0  0  0  0  0  0  0  0  0  0  # atno 17370 bound_to 10713
  156.2220  130.3675  149.8545 LP  0  0  0  0  0  0  0  0  0  0  0  0  # atno 17371 bound_to 10713
  141.0825  134.0041  157.3364 LP  0  0  0  0  0  0  0  0  0  0  0  0  # atno 17394 bound_to 11000
  139.9203  135.0200  156.8037 LP  0  0  0  0  0  0  0  0  0  0  0  0  # atno 17395 bound_to 11000

$$$$
