AV-unprocessed.smi:3206|AV-procd|sdf|12256|dock2
  -GOLD-   2272018 93D 1   1.00000     0.00000
 Structure written by MMmdl.
 42 43  0  0  0  0  0  0  0  0  2 V2000
  153.2507  142.7127  163.0749 C   0  0  0  0  0  0  0  0  0  0  0  0
  153.1902  143.0673  161.5821 C   0  0  2  0  0  0  0  0  0  0  0  0
  151.9722  143.9530  161.2604 C   0  0  0  0  0  0  0  0  0  0  0  0
  151.9063  144.3024  159.7646 C   0  0  0  0  0  0  0  0  0  0  0  0
  151.8836  143.0384  158.8829 C   0  0  1  0  0  0  0  0  0  0  0  0
  151.8173  143.4105  157.3902 C   0  0  0  0  0  0  0  0  0  0  0  0
  150.5912  142.8895  156.7543 N   0  3  0  0  0  0  0  0  0  0  0  0
  150.8304  141.8114  155.7735 C   0  0  0  0  0  0  0  0  0  0  0  0
  151.7266  140.7055  156.3520 C   0  0  0  0  0  0  0  0  0  0  0  0
  151.8756  139.5265  155.4388 C   0  0  0  0  0  0  0  0  0  0  0  0
  151.3068  139.4327  154.2412 N   0  0  0  0  0  0  0  0  0  0  0  0
  151.7720  138.2124  153.8440 C   0  0  0  0  0  0  0  0  0  0  0  0
  152.5761  137.5917  154.7032 N   0  0  0  0  0  0  0  0  0  0  0  0
  152.6349  138.4632  155.7362 N   0  0  0  0  0  0  0  0  0  0  0  0
  153.4331  138.1627  156.9093 C   0  0  0  0  0  0  0  0  0  0  0  0
  153.1075  142.1548  159.2067 C   0  0  0  0  0  0  0  0  0  0  0  0
  153.1767  141.8037  160.7019 C   0  0  0  0  0  0  0  0  0  0  0  0
  152.3744  142.1413  163.3829 H   0  0  0  0  0  0  0  0  0  0  0  0
  153.2958  143.6112  163.6911 H   0  0  0  0  0  0  0  0  0  0  0  0
  154.1339  142.1150  163.3008 H   0  0  0  0  0  0  0  0  0  0  0  0
  154.0911  143.6347  161.3432 H   0  0  0  0  0  0  0  0  0  0  0  0
  151.0551  143.4406  161.5544 H   0  0  0  0  0  0  0  0  0  0  0  0
  152.0135  144.8711  161.8477 H   0  0  0  0  0  0  0  0  0  0  0  0
  151.0187  144.9070  159.5739 H   0  0  0  0  0  0  0  0  0  0  0  0
  152.7635  144.9227  159.4988 H   0  0  0  0  0  0  0  0  0  0  0  0
  150.9801  142.4790  159.1321 H   0  0  0  0  0  0  0  0  0  0  0  0
  151.8246  144.4957  157.2787 H   0  0  0  0  0  0  0  0  0  0  0  0
  152.6946  143.0300  156.8652 H   0  0  0  0  0  0  0  0  0  0  0  0
  149.9801  142.5365  157.4769 H   0  0  0  0  0  0  0  0  0  0  0  0
  149.8764  141.3890  155.4544 H   0  0  0  0  0  0  0  0  0  0  0  0
  151.3032  142.2390  154.8887 H   0  0  0  0  0  0  0  0  0  0  0  0
  152.7133  141.1116  156.5765 H   0  0  0  0  0  0  0  0  0  0  0  0
  151.3219  140.3596  157.3040 H   0  0  0  0  0  0  0  0  0  0  0  0
  151.5152  137.7725  152.8916 H   0  0  0  0  0  0  0  0  0  0  0  0
  154.1212  138.9848  157.1075 H   0  0  0  0  0  0  0  0  0  0  0  0
  154.0109  137.2499  156.7573 H   0  0  0  0  0  0  0  0  0  0  0  0
  152.7801  138.0269  157.7715 H   0  0  0  0  0  0  0  0  0  0  0  0
  153.0744  141.2327  158.6258 H   0  0  0  0  0  0  0  0  0  0  0  0
  154.0232  142.6703  158.9137 H   0  0  0  0  0  0  0  0  0  0  0  0
  154.0681  141.2059  160.8952 H   0  0  0  0  0  0  0  0  0  0  0  0
  152.3234  141.1777  160.9674 H   0  0  0  0  0  0  0  0  0  0  0  0
  150.1240  143.6523  156.2845 H   0  0  0  0  0  0  0  0  0  0  0  0
  1  2  1  0  0  0  0
  1 18  1  0  0  0  0
  1 19  1  0  0  0  0
  1 20  1  0  0  0  0
  2 17  1  0  0  0  0
  2  3  1  0  0  0  0
  2 21  1  0  0  0  0
  3  4  1  0  0  0  0
  3 22  1  0  0  0  0
  3 23  1  0  0  0  0
  4  5  1  0  0  0  0
  4 24  1  0  0  0  0
  4 25  1  0  0  0  0
  5  6  1  0  0  0  0
  5 16  1  0  0  0  0
  5 26  1  0  0  0  0
  6  7  1  0  0  0  0
  6 27  1  0  0  0  0
  6 28  1  0  0  0  0
  7  8  1  0  0  0  0
  7 29  1  0  0  0  0
  7 42  1  0  0  0  0
  8  9  1  0  0  0  0
  8 30  1  0  0  0  0
  8 31  1  0  0  0  0
  9 10  1  0  0  0  0
  9 32  1  0  0  0  0
  9 33  1  0  0  0  0
 10 14  1  0  0  0  0
 10 11  2  0  0  0  0
 11 12  1  0  0  0  0
 12 13  2  0  0  0  0
 12 34  1  0  0  0  0
 13 14  1  0  0  0  0
 14 15  1  0  0  0  0
 15 35  1  0  0  0  0
 15 36  1  0  0  0  0
 15 37  1  0  0  0  0
 16 17  1  0  0  0  0
 16 38  1  0  0  0  0
 16 39  1  0  0  0  0
 17 40  1  0  0  0  0
 17 41  1  0  0  0  0
M  CHG  1   7   1
M  END
> <s_m_source_file>
AV-unprocessed.smi

> <i_m_source_file_index>
3206

> <i_lp_mmshare_version>
43012

> <i_f3d_flags>
0

> <s_epik_input>
W0NIM11bQ0BASF0xW0NIMl1bQ0gyXVtDQEhdKFtDSDJdW0NIMl0xKVtDSDJdW05IXVtDSDJdW0NIMl1jMm5bY0hdbm4yW0NIM10=

> <s_epik_cmdline>
J2VwaWtfcHl0aG9uJywgJy1waCcsICc3LjAnLCAnLXRuJywgJzgnLCAnLW1hJywgJzIwMCcsICctbWV0YWxfYmluZGluZycsICctaW1hZScsICc8aW5maWxlLm1hZT4nLCAnLW9tYWUnLCAnPG91dGZpbGUubWFlPic=

> <r_lp_tautomer_probability>
1

> <r_epik_Ionization_Penalty>
0.00114491

> <r_epik_Ionization_Penalty_Charging>
0.00114083

> <r_epik_Ionization_Penalty_Neutral>
4.0852e-06

> <r_epik_State_Penalty>
-0

> <r_epik_Charging_Adjusted_Penalty>
0.00114083

> <i_epik_Tot_Q>
1

> <i_epik_Tot_abs_Q>
1

> <r_epik_Metal_State_Penalty>
-0

> <b_epik_Metal_Only>
0

> <s_lp_Force_Field>
OPLS_2005

> <r_lp_Energy>
13.9676

> <b_lp_Chiralities_Consistent>
1

> <s_lp_Variant>
AV-unprocessed.smi:3206-1

> <Gold.Version>
5.8.1

> <Gold.Id.Protein>
6NUR|6NUR_protein|mol2

> <Gold.PLP.Fitness>
56.2478

> <Gold.PLP.PLP>
-44.0595

> <Gold.PLP.part.hbond>
-3.0000

> <Gold.PLP.part.metal>
0.0000

> <Gold.PLP.part.buried>
-6.6980

> <Gold.PLP.part.nonpolar>
-34.0141

> <Gold.PLP.part.repulsive>
0.2429

> <Gold.PLP.ligand.clash>
0.0000

> <Gold.PLP.ligand.torsion>
1.1411

> <Gold.PLP.Chemscore.Hbond>
3.7262

> <Gold.PLP.Chemscore.CHOScore>
1.0863

> <Gold.PLP.Chemscore.Metal>
0.0000

> <Gold.Chemscore.Hbonds>
donor molecule, donor type, donor heavy atom, donor atom, acceptor molecule, acceptor atom, score
      L1  H     7    42       P1  8028  2.00
      P1  H  7989  7998       L1    11  1.00
      P1  H 10752 10764       L1    13  0.51
      L1  C    12    34       P1  7949  1.00

> <Gold.PLP.Chemscore.Internal.Correction>
0.0330

> <Gold.Rescore>
     Score         DG    S(hbond)    S(metal)    S(lipo)     H(rot)  DE(clash)    DE(int)     intcor
     20.31     -21.58       2.81        0.00     102.18       2.05       0.17       1.10       ----

> <Gold.Chemscore.Fitness>
20.3102

> <Gold.Chemscore.DG>
-21.5805

> <Gold.Chemscore.ZeroCoef>
-5.4800

> <Gold.Chemscore.Hbond>
2.8146

> <Gold.Chemscore.Metal>
0.0000

> <Gold.Chemscore.Lipo>
102.1771

> <Gold.Chemscore.Internal_Hbond>
0.0000

> <Gold.Chemscore.DEClash>
0.1718

> <Gold.Chemscore.DEInternal>
1.0985

> <Gold.Chemscore.Rot>
2.0528

> <Gold.Chemscore.Internal.Correction>
   9.000000E+99

> <Gold.Chemscore.Hbonds>
donor molecule, donor type, donor heavy atom, donor atom, acceptor molecule, acceptor atom, score
      L1  H     7    42       P1  8028  1.00
      P1  H  7989  7998       L1    11  0.55
      P1  H 10752 10764       L1    13  0.49

> <Gold.Chemscore.Hbond.Weighted>
-9.4008

> <Gold.Chemscore.Metal.Weighted>
-0.0000

> <Gold.Chemscore.Lipo.Weighted>
-11.9547

> <Gold.Chemscore.Internal_Hbond.Weighted>
0.0000

> <Gold.Chemscore.DEClash.Weighted>
0.1718

> <Gold.Chemscore.DEInternal.Weighted>
1.0985

> <Gold.Chemscore.Rot.Weighted>
5.2551

> <Gold.Chemscore.Internal.Correction.Weighted>
   9.000000E+99

> <Gold.Protein.RotatedTorsions>
[ 6907 6896 6895 6894 ] final   54.68 input  -60.11 | X-H torsion
[ 7974 7965 7964 7962 ] final -139.83 input  175.53 | X-H torsion
[ 8008 7997 7996 7995 ] final  -99.04 input   59.86 | X-H torsion
[ 10167 10162 10161 10158 ] final  -53.37 input  -65.29 | X-H torsion
[ 10718 10713 10712 10709 ] final -179.01 input   66.30 | X-H torsion
[ 10763 10752 10751 10750 ] final  -63.66 input  -60.55 | X-H torsion
[ 11005 11000 10999 10996 ] final  124.00 input  -57.11 | X-H torsion

> <Gold.Protein.ActiveResidues>
 VAL166  LYS551  ARG553  GLY616  TRP617  ASP618  TYR619  PRO620  LYS621  CYS622 
 ASP623  PHE694  ASN695  SER759  ASP760  ASP761  ALA762  ILE779  LEU786  VAL792 
 PHE793  MET794  SER795  GLU796  ALA797  LYS798  CYS799  TRP800  GLU811  SER814 

> <Gold.Protein.RotatedAtoms>
  152.3463  134.7067  160.0249 H   0  0  0  0  0  0  0  0  0  0  0  0  # atno 6907 bound_to 6896
  151.7435  133.3318  159.3380 H   0  0  0  0  0  0  0  0  0  0  0  0  # atno 6908 bound_to 6896
  150.7511  134.6189  159.6170 H   0  0  0  0  0  0  0  0  0  0  0  0  # atno 6909 bound_to 6896
  144.8645  140.6272  143.5307 H   0  0  0  0  0  0  0  0  0  0  0  0  # atno 7974 bound_to 7965
  154.8094  140.0450  157.1332 H   0  0  0  0  0  0  0  0  0  0  0  0  # atno 8008 bound_to 7997
  154.9385  140.3049  155.5112 H   0  0  0  0  0  0  0  0  0  0  0  0  # atno 8009 bound_to 7997
  156.2970  140.2310  156.4452 H   0  0  0  0  0  0  0  0  0  0  0  0  # atno 8010 bound_to 7997
  140.6488  143.2552  151.4782 H   0  0  0  0  0  0  0  0  0  0  0  0  # atno 10167 bound_to 10162
  156.8528  130.9725  151.3091 H   0  0  0  0  0  0  0  0  0  0  0  0  # atno 10718 bound_to 10713
  154.3184  135.6201  153.5497 H   0  0  0  0  0  0  0  0  0  0  0  0  # atno 10763 bound_to 10752
  152.9822  135.5718  154.5097 H   0  0  0  0  0  0  0  0  0  0  0  0  # atno 10764 bound_to 10752
  154.4761  135.2861  155.1583 H   0  0  0  0  0  0  0  0  0  0  0  0  # atno 10765 bound_to 10752
  139.9338  134.9640  156.8344 H   0  0  0  0  0  0  0  0  0  0  0  0  # atno 11005 bound_to 11000
  145.4248  139.1558  143.4054 LP  0  0  0  0  0  0  0  0  0  0  0  0  # atno 17320 bound_to 7965
  146.2885  140.4360  142.8748 LP  0  0  0  0  0  0  0  0  0  0  0  0  # atno 17321 bound_to 7965
  139.5701  144.1948  152.1824 LP  0  0  0  0  0  0  0  0  0  0  0  0  # atno 17342 bound_to 10162
  140.1242  144.5346  150.6843 LP  0  0  0  0  0  0  0  0  0  0  0  0  # atno 17343 bound_to 10162
  157.6294  130.8717  149.9246 LP  0  0  0  0  0  0  0  0  0  0  0  0  # atno 17370 bound_to 10713
  156.0819  130.3672  150.0564 LP  0  0  0  0  0  0  0  0  0  0  0  0  # atno 17371 bound_to 10713
  140.6129  134.0065  155.7585 LP  0  0  0  0  0  0  0  0  0  0  0  0  # atno 17394 bound_to 11000
  141.0942  133.9870  157.3188 LP  0  0  0  0  0  0  0  0  0  0  0  0  # atno 17395 bound_to 11000

$$$$
