AV-unprocessed.smi:1|AV-procd|sdf|22|dock6
  -GOLD-   2262015123D 1   1.00000     0.00000
 Structure written by MMmdl.
 56 61  0  0  0  0  0  0  0  0  2 V2000
  150.1843  129.7025  154.1388 O   0  0  0  0  0  0  0  0  0  0  0  0
  149.2602  130.4576  153.8291 C   0  0  0  0  0  0  0  0  0  0  0  0
  149.1427  131.7834  154.0940 N   0  5  0  0  0  0  0  0  0  0  0  0
  149.7904  132.3222  155.1382 C   0  0  0  0  0  0  0  0  0  0  0  0
  150.4763  131.5304  156.0013 N   0  0  0  0  0  0  0  0  0  0  0  0
  151.1026  132.0642  157.0563 C   0  0  0  0  0  0  0  0  0  0  0  0
  151.1655  133.3435  157.4372 N   0  0  0  0  0  0  0  0  0  0  0  0
  150.4786  134.1517  156.5775 C   0  0  0  0  0  0  0  0  0  0  0  0
  149.7715  133.7162  155.4188 C   0  0  0  0  0  0  0  0  0  0  0  0
  149.1793  134.7898  154.7702 N   0  0  0  0  0  0  0  0  0  0  0  0
  149.5488  135.8079  155.5435 C   0  0  0  0  0  0  0  0  0  0  0  0
  150.3072  135.5270  156.6215 N   0  0  0  0  0  0  0  0  0  0  0  0
  150.8390  136.4971  157.6272 C   0  0  1  0  0  0  0  0  0  0  0  0
  151.6194  137.4431  156.9670 O   0  0  0  0  0  0  0  0  0  0  0  0
  151.5580  138.6623  157.6887 C   0  0  1  0  0  0  0  0  0  0  0  0
  152.0160  139.8398  156.8182 C   0  0  0  0  0  0  0  0  0  0  0  0
  151.9076  141.0404  157.5710 O   0  0  0  0  0  0  0  0  0  0  0  0
  152.5217  141.1733  158.7658 C   0  0  0  0  0  0  0  0  0  0  0  0
  153.1541  140.2713  159.3185 O   0  0  0  0  0  0  0  0  0  0  0  0
  152.3511  142.5338  159.3534 C   0  0  0  0  0  0  0  0  0  0  0  0
  152.4649  142.7034  160.7531 C   0  0  0  0  0  0  0  0  0  0  0  0
  152.3113  143.9760  161.3369 C   0  0  0  0  0  0  0  0  0  0  0  0
  152.0440  145.0954  160.5276 C   0  0  0  0  0  0  0  0  0  0  0  0
  151.9293  144.9404  159.1339 C   0  0  0  0  0  0  0  0  0  0  0  0
  152.0811  143.6682  158.5484 C   0  0  0  0  0  0  0  0  0  0  0  0
  150.1061  138.7272  158.1682 C   0  0  1  0  0  0  0  0  0  0  0  0
  149.2555  139.2862  157.1824 O   0  0  0  0  0  0  0  0  0  0  0  0
  147.8433  138.4000  157.1513 S   0  0  0  0  0  0  0  0  0  0  0  0
  146.8993  139.0164  158.0963 O   0  0  0  0  0  0  0  0  0  0  0  0
  147.4897  138.1229  155.7513 O   0  0  0  0  0  0  0  0  0  0  0  0
  148.4271  136.9985  157.8469 O   0  0  0  0  0  0  0  0  0  0  0  0
  149.7222  137.2520  158.3751 C   0  0  1  0  0  0  0  0  0  0  0  0
  148.0593  129.8849  153.1237 C   0  0  0  0  0  0  0  0  0  0  0  0
  148.1372  128.6012  152.5366 C   0  0  0  0  0  0  0  0  0  0  0  0
  147.0328  128.0584  151.8511 C   0  0  0  0  0  0  0  0  0  0  0  0
  145.8404  128.7972  151.7373 C   0  0  0  0  0  0  0  0  0  0  0  0
  145.7552  130.0820  152.3051 C   0  0  0  0  0  0  0  0  0  0  0  0
  146.8591  130.6256  152.9906 C   0  0  0  0  0  0  0  0  0  0  0  0
  151.6259  131.3637  157.6899 H   0  0  0  0  0  0  0  0  0  0  0  0
  149.2509  136.8200  155.3121 H   0  0  0  0  0  0  0  0  0  0  0  0
  151.4633  135.8992  158.2928 H   0  0  0  0  0  0  0  0  0  0  0  0
  152.2179  138.5644  158.5527 H   0  0  0  0  0  0  0  0  0  0  0  0
  153.0583  139.7064  156.5279 H   0  0  0  0  0  0  0  0  0  0  0  0
  151.4329  139.8659  155.8968 H   0  0  0  0  0  0  0  0  0  0  0  0
  152.6699  141.8588  161.3952 H   0  0  0  0  0  0  0  0  0  0  0  0
  152.3989  144.0927  162.4071 H   0  0  0  0  0  0  0  0  0  0  0  0
  151.9271  146.0713  160.9751 H   0  0  0  0  0  0  0  0  0  0  0  0
  151.7245  145.7991  158.5115 H   0  0  0  0  0  0  0  0  0  0  0  0
  151.9889  143.5855  157.4754 H   0  0  0  0  0  0  0  0  0  0  0  0
  150.0066  139.3109  159.0840 H   0  0  0  0  0  0  0  0  0  0  0  0
  149.7592  136.9749  159.4290 H   0  0  0  0  0  0  0  0  0  0  0  0
  149.0455  128.0212  152.6136 H   0  0  0  0  0  0  0  0  0  0  0  0
  147.1015  127.0741  151.4120 H   0  0  0  0  0  0  0  0  0  0  0  0
  144.9938  128.3811  151.2118 H   0  0  0  0  0  0  0  0  0  0  0  0
  144.8434  130.6536  152.2132 H   0  0  0  0  0  0  0  0  0  0  0  0
  146.7757  131.6179  153.4102 H   0  0  0  0  0  0  0  0  0  0  0  0
  1  2  2  0  0  0  0
  2  3  1  0  0  0  0
  2 33  1  0  0  0  0
  3  4  1  0  0  0  0
  4  9  1  0  0  0  0
  4  5  2  0  0  0  0
  5  6  1  0  0  0  0
  6  7  2  0  0  0  0
  6 39  1  0  0  0  0
  7  8  1  0  0  0  0
  8 12  1  0  0  0  0
  8  9  2  0  0  0  0
  9 10  1  0  0  0  0
 10 11  2  0  0  0  0
 11 12  1  0  0  0  0
 11 40  1  0  0  0  0
 12 13  1  0  0  0  0
 13 32  1  0  0  0  0
 13 14  1  0  0  0  0
 13 41  1  0  0  0  0
 14 15  1  0  0  0  0
 15 16  1  0  0  0  0
 15 26  1  0  0  0  0
 15 42  1  0  0  0  0
 16 17  1  0  0  0  0
 16 43  1  0  0  0  0
 16 44  1  0  0  0  0
 17 18  1  0  0  0  0
 18 19  2  0  0  0  0
 18 20  1  0  0  0  0
 20 25  1  0  0  0  0
 20 21  2  0  0  0  0
 21 22  1  0  0  0  0
 21 45  1  0  0  0  0
 22 23  2  0  0  0  0
 22 46  1  0  0  0  0
 23 24  1  0  0  0  0
 23 47  1  0  0  0  0
 24 25  2  0  0  0  0
 24 48  1  0  0  0  0
 25 49  1  0  0  0  0
 26 32  1  0  0  0  0
 26 27  1  0  0  0  0
 26 50  1  0  0  0  0
 27 28  1  0  0  0  0
 28 29  2  0  0  0  0
 28 30  2  0  0  0  0
 28 31  1  0  0  0  0
 31 32  1  0  0  0  0
 32 51  1  0  0  0  0
 33 38  1  0  0  0  0
 33 34  2  0  0  0  0
 34 35  1  0  0  0  0
 34 52  1  0  0  0  0
 35 36  2  0  0  0  0
 35 53  1  0  0  0  0
 36 37  1  0  0  0  0
 36 54  1  0  0  0  0
 37 38  2  0  0  0  0
 37 55  1  0  0  0  0
 38 56  1  0  0  0  0
M  CHG  1   3  -1
M  END
> <s_m_source_file>
AV-unprocessed.smi

> <i_m_source_file_index>
1

> <i_lp_mmshare_version>
43012

> <i_f3d_flags>
0

> <s_epik_input>
W2NIXTFbY0hdW2NIXVtjSF1bY0hdYzFDKD1PKVtOSF1jKG5bY0hdbjIpYyhjMjMpbltjSF1uM1tDQEBIXShbQ0BIXShbQ0BIXTQ1KU9TKE81KSg9Tyk9TylPW0NASF00W0NIMl1PQyg9TyljNltjSF1bY0hdW2NIXVtjSF1bY0hdNg==

> <s_epik_cmdline>
J2VwaWtfcHl0aG9uJywgJy1waCcsICc3LjAnLCAnLXRuJywgJzgnLCAnLW1hJywgJzIwMCcsICctbWV0YWxfYmluZGluZycsICctaW1hZScsICc8aW5maWxlLm1hZT4nLCAnLW9tYWUnLCAnPG91dGZpbGUubWFlPic=

> <r_lp_tautomer_probability>
1

> <r_epik_Ionization_Penalty>
4.39121

> <r_epik_Ionization_Penalty_Charging>
3.39398

> <r_epik_Ionization_Penalty_Neutral>
0.997232

> <r_epik_State_Penalty>
3.39839

> <r_epik_Charging_Adjusted_Penalty>
6.79237

> <i_epik_Tot_Q>
-1

> <i_epik_Tot_abs_Q>
1

> <r_epik_Metal_State_Penalty>
0.497663

> <b_epik_Metal_Only>
1

> <s_epik_Chemistry_Notes>
This compound has an ester and may undergo hydrolysis at high or low pH. This compound contains an acetal/aminal-like group ( X-CH(R)-Y where X, Y are N, S, or O) that may be acid/base labile, releasing an aldehyde.

> <s_lp_Force_Field>
OPLS_2005

> <r_lp_Energy>
46.5931

> <b_lp_Chiralities_Consistent>
1

> <s_lp_Variant>
AV-unprocessed.smi:1-22

> <Gold.Version>
5.8.1

> <Gold.Id.Protein>
6NUR|6NUR_protein|mol2

> <Gold.PLP.Fitness>
61.4443

> <Gold.PLP.PLP>
-59.9821

> <Gold.PLP.part.hbond>
-1.1675

> <Gold.PLP.part.metal>
0.0000

> <Gold.PLP.part.buried>
-8.0194

> <Gold.PLP.part.nonpolar>
-50.4156

> <Gold.PLP.part.repulsive>
0.3570

> <Gold.PLP.ligand.clash>
0.0000

> <Gold.PLP.ligand.torsion>
0.5016

> <Gold.PLP.Chemscore.Hbond>
0.7200

> <Gold.PLP.Chemscore.CHOScore>
0.0000

> <Gold.PLP.Chemscore.Metal>
0.0000

> <Gold.Chemscore.Hbonds>
donor molecule, donor type, donor heavy atom, donor atom, acceptor molecule, acceptor atom, score
      P1  H  6896  6907       L1     7  0.75

> <Gold.PLP.Chemscore.Internal.Correction>
0.3055

> <Gold.Rescore>
     Score         DG    S(hbond)    S(metal)    S(lipo)     H(rot)  DE(clash)    DE(int)     intcor
     14.63     -19.32       0.87        0.00     139.81       2.11       0.06       4.64       ----

> <Gold.Chemscore.Fitness>
14.6254

> <Gold.Chemscore.DG>
-19.3187

> <Gold.Chemscore.ZeroCoef>
-5.4800

> <Gold.Chemscore.Hbond>
0.8657

> <Gold.Chemscore.Metal>
0.0000

> <Gold.Chemscore.Lipo>
139.8121

> <Gold.Chemscore.Internal_Hbond>
0.0000

> <Gold.Chemscore.DEClash>
0.0566

> <Gold.Chemscore.DEInternal>
4.6366

> <Gold.Chemscore.Rot>
2.1136

> <Gold.Chemscore.Internal.Correction>
   9.000000E+99

> <Gold.Chemscore.Hbonds>
donor molecule, donor type, donor heavy atom, donor atom, acceptor molecule, acceptor atom, score
      P1  H  6896  6907       L1     7  0.53

> <Gold.Chemscore.Hbond.Weighted>
-2.8914

> <Gold.Chemscore.Metal.Weighted>
-0.0000

> <Gold.Chemscore.Lipo.Weighted>
-16.3580

> <Gold.Chemscore.Internal_Hbond.Weighted>
0.0000

> <Gold.Chemscore.DEClash.Weighted>
0.0566

> <Gold.Chemscore.DEInternal.Weighted>
4.6366

> <Gold.Chemscore.Rot.Weighted>
5.4107

> <Gold.Chemscore.Internal.Correction.Weighted>
   9.000000E+99

> <Gold.Protein.RotatedTorsions>
[ 6907 6896 6895 6894 ] final -155.41 input  -60.11 | X-H torsion
[ 7974 7965 7964 7962 ] final  -32.25 input  175.53 | X-H torsion
[ 8008 7997 7996 7995 ] final  -88.44 input   59.86 | X-H torsion
[ 10167 10162 10161 10158 ] final -168.46 input  -65.29 | X-H torsion
[ 10718 10713 10712 10709 ] final  122.14 input   66.30 | X-H torsion
[ 10763 10752 10751 10750 ] final   57.77 input  -60.55 | X-H torsion
[ 11005 11000 10999 10996 ] final -174.00 input  -57.11 | X-H torsion

> <Gold.Protein.ActiveResidues>
 VAL166  LYS551  ARG553  GLY616  TRP617  ASP618  TYR619  PRO620  LYS621  CYS622 
 ASP623  PHE694  ASN695  SER759  ASP760  ASP761  ALA762  ILE779  LEU786  VAL792 
 PHE793  MET794  SER795  GLU796  ALA797  LYS798  CYS799  TRP800  GLU811  SER814 

> <Gold.Protein.RotatedAtoms>
  151.2721  133.4250  159.2621 H   0  0  0  0  0  0  0  0  0  0  0  0  # atno 6907 bound_to 6896
  151.0436  134.9624  159.8185 H   0  0  0  0  0  0  0  0  0  0  0  0  # atno 6908 bound_to 6896
  152.5370  134.2678  159.9012 H   0  0  0  0  0  0  0  0  0  0  0  0  # atno 6909 bound_to 6896
  146.1005  140.5768  142.8823 H   0  0  0  0  0  0  0  0  0  0  0  0  # atno 7974 bound_to 7965
  154.6749  140.0553  157.0205 H   0  0  0  0  0  0  0  0  0  0  0  0  # atno 8008 bound_to 7997
  155.1035  140.3231  155.4522 H   0  0  0  0  0  0  0  0  0  0  0  0  # atno 8009 bound_to 7997
  156.2672  140.2027  156.6161 H   0  0  0  0  0  0  0  0  0  0  0  0  # atno 8010 bound_to 7997
  139.5984  144.1063  152.1715 H   0  0  0  0  0  0  0  0  0  0  0  0  # atno 10167 bound_to 10162
  157.5764  131.1079  150.8270 H   0  0  0  0  0  0  0  0  0  0  0  0  # atno 10718 bound_to 10713
  152.9856  135.5630  154.5444 H   0  0  0  0  0  0  0  0  0  0  0  0  # atno 10763 bound_to 10752
  154.4893  135.2792  155.1511 H   0  0  0  0  0  0  0  0  0  0  0  0  # atno 10764 bound_to 10752
  154.2987  135.6311  153.5469 H   0  0  0  0  0  0  0  0  0  0  0  0  # atno 10765 bound_to 10752
  140.4794  134.6090  157.4913 H   0  0  0  0  0  0  0  0  0  0  0  0  # atno 11005 bound_to 11000
  144.7429  140.4990  143.6856 LP  0  0  0  0  0  0  0  0  0  0  0  0  # atno 17320 bound_to 7965
  145.5864  139.1492  143.3206 LP  0  0  0  0  0  0  0  0  0  0  0  0  # atno 17321 bound_to 7965
  140.0654  144.5823  150.7231 LP  0  0  0  0  0  0  0  0  0  0  0  0  # atno 17342 bound_to 10162
  140.7230  143.2607  151.4215 LP  0  0  0  0  0  0  0  0  0  0  0  0  # atno 17343 bound_to 10162
  156.8728  130.5152  149.5295 LP  0  0  0  0  0  0  0  0  0  0  0  0  # atno 17370 bound_to 10713
  156.0809  130.5820  150.9561 LP  0  0  0  0  0  0  0  0  0  0  0  0  # atno 17371 bound_to 10713
  139.9836  134.7098  155.9815 LP  0  0  0  0  0  0  0  0  0  0  0  0  # atno 17394 bound_to 11000
  141.1539  133.6545  156.4098 LP  0  0  0  0  0  0  0  0  0  0  0  0  # atno 17395 bound_to 11000

$$$$
