AV-unprocessed.smi:67|AV-procd|sdf|636|dock6
  -GOLD-   2262016533D 1   1.00000     0.00000
 Structure written by MMmdl.
 48 50  0  0  0  0  0  0  0  0  2 V2000
  149.3461  140.9557  153.3163 O   0  0  0  0  0  0  0  0  0  0  0  0
  148.2715  140.7793  154.2190 C   0  0  2  0  0  0  0  0  0  0  0  0
  148.6034  139.5878  155.1504 C   0  0  0  0  0  0  0  0  0  0  0  0
  149.7602  139.8759  156.0395 N   0  3  2  0  0  0  0  0  0  0  0  0
  151.0728  139.6333  155.3863 C   0  0  0  0  0  0  0  0  0  0  0  0
  152.2303  140.1460  156.2593 C   0  0  0  0  0  0  0  0  0  0  0  0
  152.1547  139.5404  157.6762 C   0  0  1  0  0  0  0  0  0  0  0  0
  153.2510  139.8746  158.5309 O   0  0  0  0  0  0  0  0  0  0  0  0
  153.2030  140.8841  159.4738 C   0  0  0  0  0  0  0  0  0  0  0  0
  153.6880  140.8067  160.8034 C   0  0  0  0  0  0  0  0  0  0  0  0
  153.5819  141.9119  161.6689 C   0  0  0  0  0  0  0  0  0  0  0  0
  152.9892  143.1071  161.2245 C   0  0  0  0  0  0  0  0  0  0  0  0
  152.4940  143.2025  159.9079 C   0  0  0  0  0  0  0  0  0  0  0  0
  151.8581  144.4938  159.4141 C   0  0  0  0  0  0  0  0  0  0  0  0
  152.5065  144.9143  158.3288 F   0  0  0  0  0  0  0  0  0  0  0  0
  150.5764  144.3006  159.1011 F   0  0  0  0  0  0  0  0  0  0  0  0
  151.9198  145.4451  160.3465 F   0  0  0  0  0  0  0  0  0  0  0  0
  152.6122  142.0915  159.0451 C   0  0  0  0  0  0  0  0  0  0  0  0
  150.7604  139.6945  158.3183 C   0  0  0  0  0  0  0  0  0  0  0  0
  149.6657  139.1984  157.3593 C   0  0  0  0  0  0  0  0  0  0  0  0
  146.9352  140.6345  153.4824 C   0  0  0  0  0  0  0  0  0  0  0  0
  145.9302  141.1709  154.4976 C   0  0  0  0  0  0  0  0  0  0  0  0
  146.6211  142.2472  155.1985 N   0  0  0  0  0  0  0  0  0  0  0  0
  148.0636  142.0733  155.0261 C   0  0  0  0  0  0  0  0  0  0  0  0
  149.2504  140.3389  152.6062 H   0  0  0  0  0  0  0  0  0  0  0  0
  147.7288  139.3144  155.7434 H   0  0  0  0  0  0  0  0  0  0  0  0
  148.8155  138.7093  154.5390 H   0  0  0  0  0  0  0  0  0  0  0  0
  151.1897  138.5667  155.1880 H   0  0  0  0  0  0  0  0  0  0  0  0
  151.1041  140.1413  154.4213 H   0  0  0  0  0  0  0  0  0  0  0  0
  153.1815  139.8806  155.7972 H   0  0  0  0  0  0  0  0  0  0  0  0
  152.1989  141.2323  156.2732 H   0  0  0  0  0  0  0  0  0  0  0  0
  152.2850  138.4665  157.5347 H   0  0  0  0  0  0  0  0  0  0  0  0
  154.1503  139.9201  161.1996 H   0  0  0  0  0  0  0  0  0  0  0  0
  153.9582  141.8424  162.6789 H   0  0  0  0  0  0  0  0  0  0  0  0
  152.9186  143.9484  161.8979 H   0  0  0  0  0  0  0  0  0  0  0  0
  152.2437  142.1633  158.0321 H   0  0  0  0  0  0  0  0  0  0  0  0
  150.7191  139.1225  159.2458 H   0  0  0  0  0  0  0  0  0  0  0  0
  150.5418  140.7229  158.5937 H   0  0  0  0  0  0  0  0  0  0  0  0
  148.6879  139.3849  157.8042 H   0  0  0  0  0  0  0  0  0  0  0  0
  149.7483  138.1193  157.2209 H   0  0  0  0  0  0  0  0  0  0  0  0
  146.9214  141.2723  152.5969 H   0  0  0  0  0  0  0  0  0  0  0  0
  146.7095  139.6188  153.1571 H   0  0  0  0  0  0  0  0  0  0  0  0
  145.0087  141.5179  154.0296 H   0  0  0  0  0  0  0  0  0  0  0  0
  145.6657  140.3832  155.2037 H   0  0  0  0  0  0  0  0  0  0  0  0
  146.3695  142.2512  156.1821 H   0  0  0  0  0  0  0  0  0  0  0  0
  148.5800  142.0485  155.9860 H   0  0  0  0  0  0  0  0  0  0  0  0
  148.4554  142.9308  154.4773 H   0  0  0  0  0  0  0  0  0  0  0  0
  149.7182  140.8685  156.2234 H   0  0  0  0  0  0  0  0  0  0  0  0
  1  2  1  0  0  0  0
  1 25  1  0  0  0  0
  2 24  1  0  0  0  0
  2  3  1  0  0  0  0
  2 21  1  0  0  0  0
  3  4  1  0  0  0  0
  3 26  1  0  0  0  0
  3 27  1  0  0  0  0
  4 20  1  0  0  0  0
  4  5  1  0  0  0  0
  4 48  1  0  0  0  0
  5  6  1  0  0  0  0
  5 28  1  0  0  0  0
  5 29  1  0  0  0  0
  6  7  1  0  0  0  0
  6 30  1  0  0  0  0
  6 31  1  0  0  0  0
  7  8  1  0  0  0  0
  7 19  1  0  0  0  0
  7 32  1  0  0  0  0
  8  9  1  0  0  0  0
  9 18  1  0  0  0  0
  9 10  2  0  0  0  0
 10 11  1  0  0  0  0
 10 33  1  0  0  0  0
 11 12  2  0  0  0  0
 11 34  1  0  0  0  0
 12 13  1  0  0  0  0
 12 35  1  0  0  0  0
 13 14  1  0  0  0  0
 13 18  2  0  0  0  0
 14 15  1  0  0  0  0
 14 16  1  0  0  0  0
 14 17  1  0  0  0  0
 18 36  1  0  0  0  0
 19 20  1  0  0  0  0
 19 37  1  0  0  0  0
 19 38  1  0  0  0  0
 20 39  1  0  0  0  0
 20 40  1  0  0  0  0
 21 22  1  0  0  0  0
 21 41  1  0  0  0  0
 21 42  1  0  0  0  0
 22 23  1  0  0  0  0
 22 43  1  0  0  0  0
 22 44  1  0  0  0  0
 23 24  1  0  0  0  0
 23 45  1  0  0  0  0
 24 46  1  0  0  0  0
 24 47  1  0  0  0  0
M  CHG  1   4   1
M  END
> <s_m_source_file>
AV-unprocessed.smi

> <i_m_source_file_index>
67

> <i_lp_mmshare_version>
43012

> <i_f3d_flags>
0

> <s_epik_input>
W0NIMl0xW05IXVtDSDJdW0NIMl1bQ0BAXTEoW09IXSlbQ0gyXU4yW0NIMl1bQ0gyXVtDSF0oW0NIMl1bQ0gyXTIpT2MzW2NIXVtjSF1bY0hdYyhDKEYpKEYpRilbY0hdMw==

> <s_epik_cmdline>
J2VwaWtfcHl0aG9uJywgJy1waCcsICc3LjAnLCAnLXRuJywgJzgnLCAnLW1hJywgJzIwMCcsICctbWV0YWxfYmluZGluZycsICctaW1hZScsICc8aW5maWxlLm1hZT4nLCAnLW9tYWUnLCAnPG91dGZpbGUubWFlPic=

> <r_epik_Ionization_Penalty>
2.37709

> <r_epik_Ionization_Penalty_Charging>
0.0305656

> <r_epik_Ionization_Penalty_Neutral>
2.34653

> <r_epik_State_Penalty>
2.56959

> <r_epik_Charging_Adjusted_Penalty>
2.60016

> <i_epik_Tot_Q>
1

> <i_epik_Tot_abs_Q>
1

> <r_epik_Metal_State_Penalty>
2.56925

> <b_epik_Metal_Only>
0

> <s_lp_Force_Field>
OPLS_2005

> <r_lp_Energy>
55.6007

> <b_lp_Chiralities_Consistent>
1

> <s_lp_Variant>
AV-unprocessed.smi:67-8

> <Gold.Version>
5.8.1

> <Gold.Id.Protein>
6NUR|6NUR_protein|mol2

> <Gold.PLP.Fitness>
59.1963

> <Gold.PLP.PLP>
-52.3197

> <Gold.PLP.part.hbond>
-3.1546

> <Gold.PLP.part.metal>
0.0000

> <Gold.PLP.part.buried>
-2.3161

> <Gold.PLP.part.nonpolar>
-47.0352

> <Gold.PLP.part.repulsive>
0.0407

> <Gold.PLP.ligand.clash>
1.2028

> <Gold.PLP.ligand.torsion>
1.0282

> <Gold.PLP.Chemscore.Hbond>
2.8089

> <Gold.PLP.Chemscore.CHOScore>
0.0000

> <Gold.PLP.Chemscore.Metal>
0.0000

> <Gold.Chemscore.Hbonds>
donor molecule, donor type, donor heavy atom, donor atom, acceptor molecule, acceptor atom, score
      L1  H     1    25       P1  7957  0.87
      P1  H  7989  7998       L1     1  0.08
      P1  H  7997  8009       L1     8  1.00
      P1  H  8011  8017       L1     1  0.90

> <Gold.PLP.Chemscore.Internal.Correction>
1.7090

> <Gold.Rescore>
     Score         DG    S(hbond)    S(metal)    S(lipo)     H(rot)  DE(clash)    DE(int)     intcor
     19.07     -20.78       1.75        0.00     128.42       2.17       0.61       1.10       ----

> <Gold.Chemscore.Fitness>
19.0656

> <Gold.Chemscore.DG>
-20.7760

> <Gold.Chemscore.ZeroCoef>
-5.4800

> <Gold.Chemscore.Hbond>
1.7469

> <Gold.Chemscore.Metal>
0.0000

> <Gold.Chemscore.Lipo>
128.4230

> <Gold.Chemscore.Internal_Hbond>
0.0000

> <Gold.Chemscore.DEClash>
0.6142

> <Gold.Chemscore.DEInternal>
1.0962

> <Gold.Chemscore.Rot>
2.1734

> <Gold.Chemscore.Internal.Correction>
   9.000000E+99

> <Gold.Chemscore.Hbonds>
donor molecule, donor type, donor heavy atom, donor atom, acceptor molecule, acceptor atom, score
      L1  H     1    25       P1  7957  0.80
      P1  H  7989  7998       L1     1  0.01
      P1  H  7997  8009       L1     8  0.21
      P1  H  8011  8017       L1     1  0.18

> <Gold.Chemscore.Hbond.Weighted>
-5.8345

> <Gold.Chemscore.Metal.Weighted>
-0.0000

> <Gold.Chemscore.Lipo.Weighted>
-15.0255

> <Gold.Chemscore.Internal_Hbond.Weighted>
0.0000

> <Gold.Chemscore.DEClash.Weighted>
0.6142

> <Gold.Chemscore.DEInternal.Weighted>
1.0962

> <Gold.Chemscore.Rot.Weighted>
5.5640

> <Gold.Chemscore.Internal.Correction.Weighted>
   9.000000E+99

> <Gold.Protein.RotatedTorsions>
[ 6907 6896 6895 6894 ] final   92.89 input  -60.11 | X-H torsion
[ 7974 7965 7964 7962 ] final  -32.36 input  175.53 | X-H torsion
[ 8008 7997 7996 7995 ] final  142.68 input   59.86 | X-H torsion
[ 10167 10162 10161 10158 ] final  -90.16 input  -65.29 | X-H torsion
[ 10718 10713 10712 10709 ] final -114.33 input   66.30 | X-H torsion
[ 10763 10752 10751 10750 ] final  164.14 input  -60.55 | X-H torsion
[ 11005 11000 10999 10996 ] final  -19.27 input  -57.11 | X-H torsion

> <Gold.Protein.ActiveResidues>
 VAL166  LYS551  ARG553  GLY616  TRP617  ASP618  TYR619  PRO620  LYS621  CYS622 
 ASP623  PHE694  ASN695  SER759  ASP760  ASP761  ALA762  ILE779  LEU786  VAL792 
 PHE793  MET794  SER795  GLU796  ALA797  LYS798  CYS799  TRP800  GLU811  SER814 

> <Gold.Protein.RotatedAtoms>
  152.5453  134.1433  159.8487 H   0  0  0  0  0  0  0  0  0  0  0  0  # atno 6907 bound_to 6896
  151.1467  133.4928  159.2603 H   0  0  0  0  0  0  0  0  0  0  0  0  # atno 6908 bound_to 6896
  151.1516  135.0240  159.8725 H   0  0  0  0  0  0  0  0  0  0  0  0  # atno 6909 bound_to 6896
  146.0996  140.5782  142.8827 H   0  0  0  0  0  0  0  0  0  0  0  0  # atno 7974 bound_to 7965
  156.2945  140.2282  156.4768 H   0  0  0  0  0  0  0  0  0  0  0  0  # atno 8008 bound_to 7997
  154.7887  140.0455  157.1205 H   0  0  0  0  0  0  0  0  0  0  0  0  # atno 8009 bound_to 7997
  154.9671  140.3062  155.5008 H   0  0  0  0  0  0  0  0  0  0  0  0  # atno 8010 bound_to 7997
  140.3577  143.2858  151.9652 H   0  0  0  0  0  0  0  0  0  0  0  0  # atno 10167 bound_to 10162
  156.0823  130.6021  150.8760 H   0  0  0  0  0  0  0  0  0  0  0  0  # atno 10718 bound_to 10713
  154.3043  135.2758  155.2596 H   0  0  0  0  0  0  0  0  0  0  0  0  # atno 10763 bound_to 10752
  154.5019  135.5806  153.6541 H   0  0  0  0  0  0  0  0  0  0  0  0  # atno 10764 bound_to 10752
  152.9896  135.6160  154.3216 H   0  0  0  0  0  0  0  0  0  0  0  0  # atno 10765 bound_to 10752
  140.8351  133.7968  155.9800 H   0  0  0  0  0  0  0  0  0  0  0  0  # atno 11005 bound_to 11000
  144.7422  140.4973  143.6861 LP  0  0  0  0  0  0  0  0  0  0  0  0  # atno 17320 bound_to 7965
  145.5881  139.1493  143.3198 LP  0  0  0  0  0  0  0  0  0  0  0  0  # atno 17321 bound_to 7965
  139.4818  144.6020  151.7588 LP  0  0  0  0  0  0  0  0  0  0  0  0  # atno 17342 bound_to 10162
  140.5158  144.0956  150.6008 LP  0  0  0  0  0  0  0  0  0  0  0  0  # atno 17343 bound_to 10162
  157.5944  131.0943  150.9065 LP  0  0  0  0  0  0  0  0  0  0  0  0  # atno 17370 bound_to 10713
  156.9234  130.5323  149.5279 LP  0  0  0  0  0  0  0  0  0  0  0  0  # atno 17371 bound_to 10713
  140.8956  134.2441  157.5070 LP  0  0  0  0  0  0  0  0  0  0  0  0  # atno 17394 bound_to 11000
  139.8704  134.9682  156.4624 LP  0  0  0  0  0  0  0  0  0  0  0  0  # atno 17395 bound_to 11000

$$$$
