AV-unprocessed.smi:2346|AV-procd|sdf|9368|dock4
  -GOLD-   2272012593D 1   1.00000     0.00000
 Structure written by MMmdl.
 45 47  0  0  0  0  0  0  0  0  2 V2000
  148.1310  133.3615  156.9738 C   0  0  0  0  0  0  0  0  0  0  0  0
  148.6536  134.6418  157.2971 O   0  0  0  0  0  0  0  0  0  0  0  0
  148.3848  135.1636  158.5460 C   0  0  0  0  0  0  0  0  0  0  0  0
  147.5884  134.5048  159.5171 C   0  0  0  0  0  0  0  0  0  0  0  0
  147.3523  135.0986  160.7722 C   0  0  0  0  0  0  0  0  0  0  0  0
  146.5343  134.4144  161.7597 C   0  0  0  0  0  0  0  0  0  0  0  0
  145.8830  133.8696  162.5455 N   0  0  0  0  0  0  0  0  0  0  0  0
  147.9102  136.3559  161.0675 C   0  0  0  0  0  0  0  0  0  0  0  0
  148.7030  137.0161  160.1117 C   0  0  0  0  0  0  0  0  0  0  0  0
  148.9463  136.4263  158.8455 C   0  0  0  0  0  0  0  0  0  0  0  0
  149.7119  137.0169  157.8613 O   0  0  0  0  0  0  0  0  0  0  0  0
  150.2215  138.3223  158.0900 C   0  0  0  0  0  0  0  0  0  0  0  0
  150.7058  138.8930  156.7521 C   0  0  0  0  0  0  0  0  0  0  0  0
  150.6295  140.3606  156.7221 N   0  0  0  0  0  0  0  0  0  0  0  0
  149.9609  141.2001  155.8771 C   0  0  0  0  0  0  0  0  0  0  0  0
  149.0787  140.8230  154.7265 C   0  0  1  0  0  0  0  0  0  0  0  0
  147.7433  141.5754  154.7945 C   0  0  0  0  0  0  0  0  0  0  0  0
  149.6866  141.0982  153.4817 O   0  0  0  0  0  0  0  0  0  0  0  0
  150.2170  142.4736  156.2927 N   0  3  0  0  0  0  0  0  0  0  0  0
  151.0514  142.4510  157.4096 C   0  0  0  0  0  0  0  0  0  0  0  0
  151.5775  143.4876  158.1743 C   0  0  0  0  0  0  0  0  0  0  0  0
  152.3935  143.1186  159.2637 C   0  0  0  0  0  0  0  0  0  0  0  0
  152.6574  141.7650  159.5576 C   0  0  0  0  0  0  0  0  0  0  0  0
  152.1190  140.7228  158.7738 C   0  0  0  0  0  0  0  0  0  0  0  0
  151.3158  141.0962  157.6960 C   0  0  0  0  0  0  0  0  0  0  0  0
  148.4103  133.1077  155.9515 H   0  0  0  0  0  0  0  0  0  0  0  0
  147.0415  133.3497  157.0288 H   0  0  0  0  0  0  0  0  0  0  0  0
  148.5355  132.5879  157.6277 H   0  0  0  0  0  0  0  0  0  0  0  0
  147.1487  133.5392  159.3162 H   0  0  0  0  0  0  0  0  0  0  0  0
  147.7343  136.8213  162.0270 H   0  0  0  0  0  0  0  0  0  0  0  0
  149.1139  137.9783  160.3767 H   0  0  0  0  0  0  0  0  0  0  0  0
  149.4408  138.9629  158.5019 H   0  0  0  0  0  0  0  0  0  0  0  0
  151.0483  138.2869  158.8012 H   0  0  0  0  0  0  0  0  0  0  0  0
  151.7295  138.5831  156.5418 H   0  0  0  0  0  0  0  0  0  0  0  0
  150.0999  138.5043  155.9342 H   0  0  0  0  0  0  0  0  0  0  0  0
  148.8828  139.7520  154.7579 H   0  0  0  0  0  0  0  0  0  0  0  0
  147.2184  141.3612  155.7257 H   0  0  0  0  0  0  0  0  0  0  0  0
  147.0864  141.2848  153.9740 H   0  0  0  0  0  0  0  0  0  0  0  0
  147.8901  142.6546  154.7372 H   0  0  0  0  0  0  0  0  0  0  0  0
  149.4722  140.3998  152.8819 H   0  0  0  0  0  0  0  0  0  0  0  0
  151.3743  144.5250  157.9520 H   0  0  0  0  0  0  0  0  0  0  0  0
  152.8238  143.8888  159.8872 H   0  0  0  0  0  0  0  0  0  0  0  0
  153.2860  141.5206  160.4017 H   0  0  0  0  0  0  0  0  0  0  0  0
  152.3262  139.6898  159.0109 H   0  0  0  0  0  0  0  0  0  0  0  0
  149.8402  143.2966  155.8400 H   0  0  0  0  0  0  0  0  0  0  0  0
  1  2  1  0  0  0  0
  1 26  1  0  0  0  0
  1 27  1  0  0  0  0
  1 28  1  0  0  0  0
  2  3  1  0  0  0  0
  3 10  1  0  0  0  0
  3  4  2  0  0  0  0
  4  5  1  0  0  0  0
  4 29  1  0  0  0  0
  5  6  1  0  0  0  0
  5  8  2  0  0  0  0
  6  7  3  0  0  0  0
  8  9  1  0  0  0  0
  8 30  1  0  0  0  0
  9 10  2  0  0  0  0
  9 31  1  0  0  0  0
 10 11  1  0  0  0  0
 11 12  1  0  0  0  0
 12 13  1  0  0  0  0
 12 32  1  0  0  0  0
 12 33  1  0  0  0  0
 13 14  1  0  0  0  0
 13 34  1  0  0  0  0
 13 35  1  0  0  0  0
 14 25  1  0  0  0  0
 14 15  1  0  0  0  0
 15 16  1  0  0  0  0
 15 19  2  0  0  0  0
 16 17  1  0  0  0  0
 16 18  1  0  0  0  0
 16 36  1  0  0  0  0
 17 37  1  0  0  0  0
 17 38  1  0  0  0  0
 17 39  1  0  0  0  0
 18 40  1  0  0  0  0
 19 20  1  0  0  0  0
 19 45  1  0  0  0  0
 20 25  2  0  0  0  0
 20 21  1  0  0  0  0
 21 22  2  0  0  0  0
 21 41  1  0  0  0  0
 22 23  1  0  0  0  0
 22 42  1  0  0  0  0
 23 24  2  0  0  0  0
 23 43  1  0  0  0  0
 24 25  1  0  0  0  0
 24 44  1  0  0  0  0
M  CHG  1  19   1
M  END
> <s_m_source_file>
AV-unprocessed.smi

> <i_m_source_file_index>
2346

> <i_lp_mmshare_version>
43012

> <i_f3d_flags>
0

> <s_epik_input>
W0NIM11PYzFbY0hdYyhDI04pW2NIXVtjSF1jMU9bQ0gyXVtDSDJdbihjKG4yKVtDQEhdKFtDSDNdKVtPSF0pYyhjMjMpW2NIXVtjSF1bY0hdW2NIXTM=

> <s_epik_cmdline>
J2VwaWtfcHl0aG9uJywgJy1waCcsICc3LjAnLCAnLXRuJywgJzgnLCAnLW1hJywgJzIwMCcsICctbWV0YWxfYmluZGluZycsICctaW1hZScsICc8aW5maWxlLm1hZT4nLCAnLW9tYWUnLCAnPG91dGZpbGUubWFlPic=

> <r_epik_Ionization_Penalty>
1.58928

> <r_epik_Ionization_Penalty_Charging>
1.58925

> <r_epik_Ionization_Penalty_Neutral>
2.92192e-05

> <r_epik_State_Penalty>
1.68649

> <r_epik_Charging_Adjusted_Penalty>
3.27574

> <i_epik_Tot_Q>
1

> <i_epik_Tot_abs_Q>
1

> <r_epik_Metal_State_Penalty>
5.74385

> <b_epik_Metal_Only>
0

> <s_lp_Force_Field>
OPLS_2005

> <r_lp_Energy>
24.4742

> <b_lp_Chiralities_Consistent>
1

> <s_lp_Variant>
AV-unprocessed.smi:2346-4

> <Gold.Version>
5.8.1

> <Gold.Id.Protein>
6NUR|6NUR_protein|mol2

> <Gold.PLP.Fitness>
54.1661

> <Gold.PLP.PLP>
-43.4709

> <Gold.PLP.part.hbond>
-4.6976

> <Gold.PLP.part.metal>
0.0000

> <Gold.PLP.part.buried>
-3.2406

> <Gold.PLP.part.nonpolar>
-36.1988

> <Gold.PLP.part.repulsive>
0.1166

> <Gold.PLP.ligand.clash>
0.0000

> <Gold.PLP.ligand.torsion>
0.5089

> <Gold.PLP.Chemscore.Hbond>
3.8748

> <Gold.PLP.Chemscore.CHOScore>
0.0000

> <Gold.PLP.Chemscore.Metal>
0.0000

> <Gold.Chemscore.Hbonds>
donor molecule, donor type, donor heavy atom, donor atom, acceptor molecule, acceptor atom, score
      L1  H    18    40       P1  7957  0.77
      L1  H    19    45       P1  8028  2.00
      P1  H  7989  7998       L1    18  0.19
      P1  H  8011  8017       L1    18  0.95

> <Gold.PLP.Chemscore.Internal.Correction>
0.0885

> <Gold.Rescore>
     Score         DG    S(hbond)    S(metal)    S(lipo)     H(rot)  DE(clash)    DE(int)     intcor
     18.44     -19.53       2.42        0.00     109.04       2.65       0.15       0.94       ----

> <Gold.Chemscore.Fitness>
18.4414

> <Gold.Chemscore.DG>
-19.5292

> <Gold.Chemscore.ZeroCoef>
-5.4800

> <Gold.Chemscore.Hbond>
2.4154

> <Gold.Chemscore.Metal>
0.0000

> <Gold.Chemscore.Lipo>
109.0377

> <Gold.Chemscore.Internal_Hbond>
0.0000

> <Gold.Chemscore.DEClash>
0.1454

> <Gold.Chemscore.DEInternal>
0.9424

> <Gold.Chemscore.Rot>
2.6467

> <Gold.Chemscore.Internal.Correction>
   9.000000E+99

> <Gold.Chemscore.Hbonds>
donor molecule, donor type, donor heavy atom, donor atom, acceptor molecule, acceptor atom, score
      L1  H    18    40       P1  7957  0.76
      L1  H    19    45       P1  8028  0.99
      P1  H  7989  7998       L1    18  0.04
      P1  H  8011  8017       L1    18  0.21

> <Gold.Chemscore.Hbond.Weighted>
-8.0674

> <Gold.Chemscore.Metal.Weighted>
-0.0000

> <Gold.Chemscore.Lipo.Weighted>
-12.7574

> <Gold.Chemscore.Internal_Hbond.Weighted>
0.0000

> <Gold.Chemscore.DEClash.Weighted>
0.1454

> <Gold.Chemscore.DEInternal.Weighted>
0.9424

> <Gold.Chemscore.Rot.Weighted>
6.7756

> <Gold.Chemscore.Internal.Correction.Weighted>
   9.000000E+99

> <Gold.Protein.RotatedTorsions>
[ 6907 6896 6895 6894 ] final  -78.46 input  -60.11 | X-H torsion
[ 7974 7965 7964 7962 ] final  -31.72 input  175.53 | X-H torsion
[ 8008 7997 7996 7995 ] final  -98.60 input   59.86 | X-H torsion
[ 10167 10162 10161 10158 ] final   37.17 input  -65.29 | X-H torsion
[ 10718 10713 10712 10709 ] final  -68.83 input   66.30 | X-H torsion
[ 10763 10752 10751 10750 ] final  -73.23 input  -60.55 | X-H torsion
[ 11005 11000 10999 10996 ] final  103.70 input  -57.11 | X-H torsion

> <Gold.Protein.ActiveResidues>
 VAL166  LYS551  ARG553  GLY616  TRP617  ASP618  TYR619  PRO620  LYS621  CYS622 
 ASP623  PHE694  ASN695  SER759  ASP760  ASP761  ALA762  ILE779  LEU786  VAL792 
 PHE793  MET794  SER795  GLU796  ALA797  LYS798  CYS799  TRP800  GLU811  SER814 

> <Gold.Protein.RotatedAtoms>
  150.6972  134.4269  159.5230 H   0  0  0  0  0  0  0  0  0  0  0  0  # atno 6907 bound_to 6896
  152.2002  134.8592  160.0518 H   0  0  0  0  0  0  0  0  0  0  0  0  # atno 6908 bound_to 6896
  151.9515  133.3632  159.4038 H   0  0  0  0  0  0  0  0  0  0  0  0  # atno 6909 bound_to 6896
  146.1046  140.5702  142.8805 H   0  0  0  0  0  0  0  0  0  0  0  0  # atno 7974 bound_to 7965
  154.8034  140.0454  157.1290 H   0  0  0  0  0  0  0  0  0  0  0  0  # atno 8008 bound_to 7997
  154.9452  140.3058  155.5081 H   0  0  0  0  0  0  0  0  0  0  0  0  # atno 8009 bound_to 7997
  156.2964  140.2298  156.4525 H   0  0  0  0  0  0  0  0  0  0  0  0  # atno 8010 bound_to 7997
  140.4058  144.1661  150.6136 H   0  0  0  0  0  0  0  0  0  0  0  0  # atno 10167 bound_to 10162
  156.0485  130.4302  150.2059 H   0  0  0  0  0  0  0  0  0  0  0  0  # atno 10718 bound_to 10713
  154.4566  135.5904  153.6227 H   0  0  0  0  0  0  0  0  0  0  0  0  # atno 10763 bound_to 10752
  152.9819  135.6034  154.3538 H   0  0  0  0  0  0  0  0  0  0  0  0  # atno 10764 bound_to 10752
  154.3406  135.2841  155.2403 H   0  0  0  0  0  0  0  0  0  0  0  0  # atno 10765 bound_to 10752
  139.8786  134.9273  156.5249 H   0  0  0  0  0  0  0  0  0  0  0  0  # atno 11005 bound_to 11000
  144.7460  140.5069  143.6835 LP  0  0  0  0  0  0  0  0  0  0  0  0  # atno 17320 bound_to 7965
  145.5787  139.1487  143.3247 LP  0  0  0  0  0  0  0  0  0  0  0  0  # atno 17321 bound_to 7965
  140.4691  143.2420  151.9114 LP  0  0  0  0  0  0  0  0  0  0  0  0  # atno 17342 bound_to 10162
  139.4783  144.5388  151.8558 LP  0  0  0  0  0  0  0  0  0  0  0  0  # atno 17343 bound_to 10162
  157.0145  130.9961  151.3356 LP  0  0  0  0  0  0  0  0  0  0  0  0  # atno 17370 bound_to 10713
  157.5387  130.8105  149.8002 LP  0  0  0  0  0  0  0  0  0  0  0  0  # atno 17371 bound_to 10713
  140.8423  133.8195  155.9087 LP  0  0  0  0  0  0  0  0  0  0  0  0  # atno 17394 bound_to 11000
  140.9225  134.2124  157.4917 LP  0  0  0  0  0  0  0  0  0  0  0  0  # atno 17395 bound_to 11000

$$$$
