AV-unprocessed.smi:2252|AV-procd|sdf|9104|dock2
  -GOLD-   2272012303D 1   1.00000     0.00000
 Structure written by MMmdl.
 46 48  0  0  0  0  0  0  0  0  3 V2000
  153.1309  142.3680  159.6672 C   0  0  0  0  0  0  0  0  0  0  0  0
  152.3529  143.4087  158.9915 N   0  0  0  0  0  0  0  0  0  0  0  0
  152.4481  144.7605  159.2016 C   0  0  0  0  0  0  0  0  0  0  0  0
  151.5379  145.3532  158.3664 C   0  0  0  0  0  0  0  0  0  0  0  0
  150.9261  144.3398  157.6802 N   0  3  0  0  0  0  0  0  0  0  0  0
  151.4211  143.1547  158.0567 C   0  0  0  0  0  0  0  0  0  0  0  0
  150.9776  141.8240  157.5231 C   0  0  0  0  0  0  0  0  0  0  0  0
  149.7926  141.9147  156.5478 C   0  0  0  0  0  0  0  0  0  0  0  0
  149.8448  140.8624  155.5369 N   0  0  0  0  0  0  0  0  0  0  0  0
  149.3790  139.6142  155.6995 C   0  0  0  0  0  0  0  0  0  0  0  0
  148.8506  139.2209  156.7397 O   0  0  0  0  0  0  0  0  0  0  0  0
  149.5549  138.6518  154.5138 C   0  0  1  0  0  0  0  0  0  0  0  0
  150.5736  137.5622  154.9156 C   0  0  0  0  0  0  0  0  0  0  0  0
  150.9636  137.3592  156.3644 C   0  0  0  0  0  0  0  0  0  0  0  0
  151.9666  137.9177  155.3895 C   0  0  0  0  0  0  0  0  0  0  0  0
  148.2582  138.0491  154.0902 N   0  3  0  0  0  0  0  0  0  0  0  0
  147.4783  137.3954  155.1640 C   0  0  0  0  0  0  0  0  0  0  0  0
  146.0722  137.2569  154.5924 C   0  0  0  0  0  0  0  0  0  0  0  0
  145.8981  138.5257  153.7617 C   0  0  0  0  0  0  0  0  0  0  0  0
  147.3230  138.9709  153.3998 C   0  0  0  0  0  0  0  0  0  0  0  0
  153.7167  142.8146  160.4714 H   0  0  0  0  0  0  0  0  0  0  0  0
  153.8023  141.8978  158.9481 H   0  0  0  0  0  0  0  0  0  0  0  0
  152.4556  141.6224  160.0881 H   0  0  0  0  0  0  0  0  0  0  0  0
  153.1382  145.1914  159.9127 H   0  0  0  0  0  0  0  0  0  0  0  0
  151.2865  146.3928  158.2128 H   0  0  0  0  0  0  0  0  0  0  0  0
  151.8425  141.3807  157.0287 H   0  0  0  0  0  0  0  0  0  0  0  0
  150.7344  141.1806  158.3686 H   0  0  0  0  0  0  0  0  0  0  0  0
  148.8623  141.8526  157.1154 H   0  0  0  0  0  0  0  0  0  0  0  0
  149.7922  142.8845  156.0496 H   0  0  0  0  0  0  0  0  0  0  0  0
  150.2626  141.1024  154.6494 H   0  0  0  0  0  0  0  0  0  0  0  0
  149.9537  139.2159  153.6681 H   0  0  0  0  0  0  0  0  0  0  0  0
  150.4887  136.6487  154.3287 H   0  0  0  0  0  0  0  0  0  0  0  0
  150.5593  138.0462  157.1035 H   0  0  0  0  0  0  0  0  0  0  0  0
  151.1083  136.3368  156.7078 H   0  0  0  0  0  0  0  0  0  0  0  0
  152.7826  137.2683  155.0792 H   0  0  0  0  0  0  0  0  0  0  0  0
  152.2212  138.9715  155.4864 H   0  0  0  0  0  0  0  0  0  0  0  0
  147.8973  136.4308  155.4525 H   0  0  0  0  0  0  0  0  0  0  0  0
  147.4574  138.0356  156.0478 H   0  0  0  0  0  0  0  0  0  0  0  0
  146.0234  136.3813  153.9434 H   0  0  0  0  0  0  0  0  0  0  0  0
  145.3096  137.1457  155.3640 H   0  0  0  0  0  0  0  0  0  0  0  0
  145.2803  138.3530  152.8797 H   0  0  0  0  0  0  0  0  0  0  0  0
  145.4110  139.2977  154.3587 H   0  0  0  0  0  0  0  0  0  0  0  0
  147.4709  139.9993  153.7317 H   0  0  0  0  0  0  0  0  0  0  0  0
  147.4966  138.9393  152.3236 H   0  0  0  0  0  0  0  0  0  0  0  0
  148.4748  137.3211  153.4239 H   0  0  0  0  0  0  0  0  0  0  0  0
  150.2018  144.4664  156.9841 H   0  0  0  0  0  0  0  0  0  0  0  0
  1  2  1  0  0  0  0
  1 21  1  0  0  0  0
  1 22  1  0  0  0  0
  1 23  1  0  0  0  0
  2  6  1  0  0  0  0
  2  3  1  0  0  0  0
  3  4  2  0  0  0  0
  3 24  1  0  0  0  0
  4  5  1  0  0  0  0
  4 25  1  0  0  0  0
  5  6  2  0  0  0  0
  5 46  1  0  0  0  0
  6  7  1  0  0  0  0
  7  8  1  0  0  0  0
  7 26  1  0  0  0  0
  7 27  1  0  0  0  0
  8  9  1  0  0  0  0
  8 28  1  0  0  0  0
  8 29  1  0  0  0  0
  9 10  1  0  0  0  0
  9 30  1  0  0  0  0
 10 11  2  0  0  0  0
 10 12  1  0  0  0  0
 12 13  1  0  0  0  0
 12 16  1  0  0  0  0
 12 31  1  0  0  0  0
 13 15  1  0  0  0  0
 13 14  1  0  0  0  0
 13 32  1  0  0  0  0
 14 15  1  0  0  0  0
 14 33  1  0  0  0  0
 14 34  1  0  0  0  0
 15 35  1  0  0  0  0
 15 36  1  0  0  0  0
 16 20  1  0  0  0  0
 16 17  1  0  0  0  0
 16 45  1  0  0  0  0
 17 18  1  0  0  0  0
 17 37  1  0  0  0  0
 17 38  1  0  0  0  0
 18 19  1  0  0  0  0
 18 39  1  0  0  0  0
 18 40  1  0  0  0  0
 19 20  1  0  0  0  0
 19 41  1  0  0  0  0
 19 42  1  0  0  0  0
 20 43  1  0  0  0  0
 20 44  1  0  0  0  0
M  CHG  1   5   1
M  CHG  1  16   1
M  END
> <s_m_source_file>
AV-unprocessed.smi

> <i_m_source_file_index>
2252

> <i_lp_mmshare_version>
43012

> <i_f3d_flags>
0

> <s_epik_input>
W0NIM11uMVtjSF1bY0hdbmMxW0NIMl1bQ0gyXVtOSF1DKD1PKVtDQEhdKFtDSF0yW0NIMl1bQ0gyXTIpTjNbQ0gyXVtDSDJdW0NIMl1bQ0gyXTM=

> <s_epik_cmdline>
J2VwaWtfcHl0aG9uJywgJy1waCcsICc3LjAnLCAnLXRuJywgJzgnLCAnLW1hJywgJzIwMCcsICctbWV0YWxfYmluZGluZycsICctaW1hZScsICc8aW5maWxlLm1hZT4nLCAnLW9tYWUnLCAnPG91dGZpbGUubWFlPic=

> <r_lp_tautomer_probability>
1

> <r_epik_Ionization_Penalty>
0.116886

> <r_epik_Ionization_Penalty_Charging>
0.00955009

> <r_epik_Ionization_Penalty_Neutral>
0.107336

> <r_epik_State_Penalty>
0.0956868

> <r_epik_Charging_Adjusted_Penalty>
0.105237

> <i_epik_Tot_Q>
2

> <i_epik_Tot_abs_Q>
2

> <r_epik_Metal_State_Penalty>
0.438836

> <b_epik_Metal_Only>
0

> <s_lp_Force_Field>
OPLS_2005

> <r_lp_Energy>
43.7014

> <b_lp_Chiralities_Consistent>
1

> <s_lp_Variant>
AV-unprocessed.smi:2252-2

> <Gold.Version>
5.8.1

> <Gold.Id.Protein>
6NUR|6NUR_protein|mol2

> <Gold.PLP.Fitness>
50.3255

> <Gold.PLP.PLP>
-39.6873

> <Gold.PLP.part.hbond>
-2.5075

> <Gold.PLP.part.metal>
0.0000

> <Gold.PLP.part.buried>
-2.0345

> <Gold.PLP.part.nonpolar>
-34.5375

> <Gold.PLP.part.repulsive>
0.2219

> <Gold.PLP.ligand.clash>
0.0000

> <Gold.PLP.ligand.torsion>
1.2510

> <Gold.PLP.Chemscore.Hbond>
4.0000

> <Gold.PLP.Chemscore.CHOScore>
0.0000

> <Gold.PLP.Chemscore.Metal>
0.0000

> <Gold.Chemscore.Hbonds>
donor molecule, donor type, donor heavy atom, donor atom, acceptor molecule, acceptor atom, score
      L1  H     5    46       P1  8028  2.00
      L1  H    16    45       P1  7948  2.00

> <Gold.PLP.Chemscore.Internal.Correction>
1.1402

> <Gold.Rescore>
     Score         DG    S(hbond)    S(metal)    S(lipo)     H(rot)  DE(clash)    DE(int)     intcor
     13.47     -17.75       1.93        0.00      94.39       2.05       0.14       4.14       ----

> <Gold.Chemscore.Fitness>
13.4666

> <Gold.Chemscore.DG>
-17.7489

> <Gold.Chemscore.ZeroCoef>
-5.4800

> <Gold.Chemscore.Hbond>
1.9347

> <Gold.Chemscore.Metal>
0.0000

> <Gold.Chemscore.Lipo>
94.3911

> <Gold.Chemscore.Internal_Hbond>
0.0000

> <Gold.Chemscore.DEClash>
0.1418

> <Gold.Chemscore.DEInternal>
4.1404

> <Gold.Chemscore.Rot>
2.0456

> <Gold.Chemscore.Internal.Correction>
   9.000000E+99

> <Gold.Chemscore.Hbonds>
donor molecule, donor type, donor heavy atom, donor atom, acceptor molecule, acceptor atom, score
      L1  H     5    46       P1  8028  0.74
      L1  H    16    45       P1  7948  0.99

> <Gold.Chemscore.Hbond.Weighted>
-6.4619

> <Gold.Chemscore.Metal.Weighted>
-0.0000

> <Gold.Chemscore.Lipo.Weighted>
-11.0438

> <Gold.Chemscore.Internal_Hbond.Weighted>
0.0000

> <Gold.Chemscore.DEClash.Weighted>
0.1418

> <Gold.Chemscore.DEInternal.Weighted>
4.1404

> <Gold.Chemscore.Rot.Weighted>
5.2368

> <Gold.Chemscore.Internal.Correction.Weighted>
   9.000000E+99

> <Gold.Protein.RotatedTorsions>
[ 6907 6896 6895 6894 ] final  -63.87 input  -60.11 | X-H torsion
[ 7974 7965 7964 7962 ] final -152.98 input  175.53 | X-H torsion
[ 8008 7997 7996 7995 ] final -135.16 input   59.86 | X-H torsion
[ 10167 10162 10161 10158 ] final   -2.98 input  -65.29 | X-H torsion
[ 10718 10713 10712 10709 ] final  120.98 input   66.30 | X-H torsion
[ 10763 10752 10751 10750 ] final   66.29 input  -60.55 | X-H torsion
[ 11005 11000 10999 10996 ] final -149.48 input  -57.11 | X-H torsion

> <Gold.Protein.ActiveResidues>
 VAL166  LYS551  ARG553  GLY616  TRP617  ASP618  TYR619  PRO620  LYS621  CYS622 
 ASP623  PHE694  ASN695  SER759  ASP760  ASP761  ALA762  ILE779  LEU786  VAL792 
 PHE793  MET794  SER795  GLU796  ALA797  LYS798  CYS799  TRP800  GLU811  SER814 

> <Gold.Protein.RotatedAtoms>
  150.7621  134.6376  159.6219 H   0  0  0  0  0  0  0  0  0  0  0  0  # atno 6907 bound_to 6896
  152.3634  134.6836  160.0209 H   0  0  0  0  0  0  0  0  0  0  0  0  # atno 6908 bound_to 6896
  151.7219  133.3278  159.3354 H   0  0  0  0  0  0  0  0  0  0  0  0  # atno 6909 bound_to 6896
  144.7765  140.4589  143.5870 H   0  0  0  0  0  0  0  0  0  0  0  0  # atno 7974 bound_to 7965
  155.3741  140.0490  157.3045 H   0  0  0  0  0  0  0  0  0  0  0  0  # atno 8008 bound_to 7997
  154.5115  140.2193  155.9110 H   0  0  0  0  0  0  0  0  0  0  0  0  # atno 8009 bound_to 7997
  156.1588  140.3121  155.8777 H   0  0  0  0  0  0  0  0  0  0  0  0  # atno 8010 bound_to 7997
  140.6872  143.6593  150.8281 H   0  0  0  0  0  0  0  0  0  0  0  0  # atno 10167 bound_to 10162
  157.5851  131.1070  150.8110 H   0  0  0  0  0  0  0  0  0  0  0  0  # atno 10718 bound_to 10713
  153.0133  135.5326  154.6801 H   0  0  0  0  0  0  0  0  0  0  0  0  # atno 10763 bound_to 10752
  154.5963  135.2864  155.0585 H   0  0  0  0  0  0  0  0  0  0  0  0  # atno 10764 bound_to 10752
  154.1658  135.6540  153.5049 H   0  0  0  0  0  0  0  0  0  0  0  0  # atno 10765 bound_to 10752
  140.7503  134.3414  157.5127 H   0  0  0  0  0  0  0  0  0  0  0  0  # atno 11005 bound_to 11000
  145.6171  139.1520  143.3043 LP  0  0  0  0  0  0  0  0  0  0  0  0  # atno 17320 bound_to 7965
  146.1948  140.6284  142.9129 LP  0  0  0  0  0  0  0  0  0  0  0  0  # atno 17321 bound_to 7965
  140.0301  143.5452  152.2763 LP  0  0  0  0  0  0  0  0  0  0  0  0  # atno 17342 bound_to 10162
  139.6242  144.7634  151.2675 LP  0  0  0  0  0  0  0  0  0  0  0  0  # atno 17343 bound_to 10162
  156.8546  130.5092  149.5309 LP  0  0  0  0  0  0  0  0  0  0  0  0  # atno 17370 bound_to 10713
  156.0900  130.5888  150.9716 LP  0  0  0  0  0  0  0  0  0  0  0  0  # atno 17371 bound_to 10713
  139.8789  134.9138  156.3091 LP  0  0  0  0  0  0  0  0  0  0  0  0  # atno 17394 bound_to 11000
  140.9757  133.7299  156.0598 LP  0  0  0  0  0  0  0  0  0  0  0  0  # atno 17395 bound_to 11000

$$$$
