AV-unprocessed.smi:1047|AV-procd|sdf|4597|dock3
  -GOLD-   22720 3 83D 1   1.00000     0.00000
 Structure written by MMmdl.
 57 59  0  0  0  0  0  0  0  0  3 V2000
  145.8449  132.3190  151.1887 C   0  0  0  0  0  0  0  0  0  0  0  0
  146.9650  133.2489  151.6762 C   0  0  0  0  0  0  0  0  0  0  0  0
  148.0502  132.5119  152.3764 N   0  3  2  0  0  0  0  0  0  0  0  0
  147.5537  131.4805  153.3205 C   0  0  0  0  0  0  0  0  0  0  0  0
  147.0569  132.1160  154.6320 C   0  0  0  0  0  0  0  0  0  0  0  0
  148.1049  132.8758  155.2218 O   0  0  0  0  0  0  0  0  0  0  0  0
  148.5491  133.9364  154.3814 C   0  0  1  0  0  0  0  0  0  0  0  0
  149.5867  134.7797  155.1435 C   0  0  0  0  0  0  0  0  0  0  0  0
  150.2884  135.7179  154.2706 N   0  0  0  0  0  0  0  0  0  0  0  0
  151.1552  136.6462  154.9926 C   0  0  0  0  0  0  0  0  0  0  0  0
  150.6460  138.0969  154.9145 C   0  0  2  0  0  0  0  0  0  0  0  0
  150.1406  138.3519  153.6182 O   0  0  0  0  0  0  0  0  0  0  0  0
  151.6930  139.1537  155.3245 C   0  0  0  0  0  0  0  0  0  0  0  0
  151.0902  140.3443  155.9379 N   0  0  0  0  0  0  0  0  0  0  0  0
  150.0674  141.1296  155.5032 C   0  0  0  0  0  0  0  0  0  0  0  0
  149.8872  142.1154  156.4255 N   0  3  0  0  0  0  0  0  0  0  0  0
  150.8099  141.9586  157.4621 C   0  0  0  0  0  0  0  0  0  0  0  0
  151.0198  142.7043  158.6159 C   0  0  0  0  0  0  0  0  0  0  0  0
  152.0522  142.2770  159.4815 C   0  0  0  0  0  0  0  0  0  0  0  0
  152.3064  143.0692  160.7527 C   0  0  0  0  0  0  0  0  0  0  0  0
  152.8354  141.1337  159.1752 C   0  0  0  0  0  0  0  0  0  0  0  0
  153.9419  140.6825  160.1136 C   0  0  0  0  0  0  0  0  0  0  0  0
  152.6074  140.3896  157.9954 C   0  0  0  0  0  0  0  0  0  0  0  0
  151.5856  140.8242  157.1547 C   0  0  0  0  0  0  0  0  0  0  0  0
  149.0658  133.3724  153.0360 C   0  0  0  0  0  0  0  0  0  0  0  0
  145.0231  132.8990  150.7683 H   0  0  0  0  0  0  0  0  0  0  0  0
  145.4419  131.7236  152.0085 H   0  0  0  0  0  0  0  0  0  0  0  0
  146.1867  131.6359  150.4117 H   0  0  0  0  0  0  0  0  0  0  0  0
  147.3606  133.8350  150.8469 H   0  0  0  0  0  0  0  0  0  0  0  0
  146.5196  133.9638  152.3692 H   0  0  0  0  0  0  0  0  0  0  0  0
  146.7690  130.8803  152.8585 H   0  0  0  0  0  0  0  0  0  0  0  0
  148.3719  130.7937  153.5416 H   0  0  0  0  0  0  0  0  0  0  0  0
  146.1824  132.7456  154.4616 H   0  0  0  0  0  0  0  0  0  0  0  0
  146.7528  131.3377  155.3321 H   0  0  0  0  0  0  0  0  0  0  0  0
  147.6968  134.5899  154.1911 H   0  0  0  0  0  0  0  0  0  0  0  0
  149.0799  135.3285  155.9383 H   0  0  0  0  0  0  0  0  0  0  0  0
  150.3030  134.1192  155.6336 H   0  0  0  0  0  0  0  0  0  0  0  0
  149.6163  136.2461  153.7230 H   0  0  0  0  0  0  0  0  0  0  0  0
  151.2378  136.3468  156.0384 H   0  0  0  0  0  0  0  0  0  0  0  0
  152.1634  136.5995  154.5795 H   0  0  0  0  0  0  0  0  0  0  0  0
  149.7949  138.1757  155.5915 H   0  0  0  0  0  0  0  0  0  0  0  0
  149.7292  137.5641  153.2974 H   0  0  0  0  0  0  0  0  0  0  0  0
  152.4182  138.7343  156.0229 H   0  0  0  0  0  0  0  0  0  0  0  0
  152.2598  139.4922  154.4561 H   0  0  0  0  0  0  0  0  0  0  0  0
  149.5015  140.9948  154.5927 H   0  0  0  0  0  0  0  0  0  0  0  0
  150.4198  143.5736  158.8424 H   0  0  0  0  0  0  0  0  0  0  0  0
  153.3333  143.4349  160.7785 H   0  0  0  0  0  0  0  0  0  0  0  0
  152.1370  142.4470  161.6321 H   0  0  0  0  0  0  0  0  0  0  0  0
  151.6444  143.9331  160.8235 H   0  0  0  0  0  0  0  0  0  0  0  0
  154.4236  139.7723  159.7547 H   0  0  0  0  0  0  0  0  0  0  0  0
  153.5427  140.4768  161.1070 H   0  0  0  0  0  0  0  0  0  0  0  0
  154.7080  141.4538  160.2000 H   0  0  0  0  0  0  0  0  0  0  0  0
  153.2030  139.5196  157.7610 H   0  0  0  0  0  0  0  0  0  0  0  0
  149.9477  132.7546  153.2085 H   0  0  0  0  0  0  0  0  0  0  0  0
  149.3879  134.1789  152.3784 H   0  0  0  0  0  0  0  0  0  0  0  0
  148.5332  132.0060  151.6475 H   0  0  0  0  0  0  0  0  0  0  0  0
  149.1869  142.8419  156.3490 H   0  0  0  0  0  0  0  0  0  0  0  0
  1  2  1  0  0  0  0
  1 26  1  0  0  0  0
  1 27  1  0  0  0  0
  1 28  1  0  0  0  0
  2  3  1  0  0  0  0
  2 29  1  0  0  0  0
  2 30  1  0  0  0  0
  3 25  1  0  0  0  0
  3  4  1  0  0  0  0
  3 56  1  0  0  0  0
  4  5  1  0  0  0  0
  4 31  1  0  0  0  0
  4 32  1  0  0  0  0
  5  6  1  0  0  0  0
  5 33  1  0  0  0  0
  5 34  1  0  0  0  0
  6  7  1  0  0  0  0
  7  8  1  0  0  0  0
  7 25  1  0  0  0  0
  7 35  1  0  0  0  0
  8  9  1  0  0  0  0
  8 36  1  0  0  0  0
  8 37  1  0  0  0  0
  9 10  1  0  0  0  0
  9 38  1  0  0  0  0
 10 11  1  0  0  0  0
 10 39  1  0  0  0  0
 10 40  1  0  0  0  0
 11 12  1  0  0  0  0
 11 13  1  0  0  0  0
 11 41  1  0  0  0  0
 12 42  1  0  0  0  0
 13 14  1  0  0  0  0
 13 43  1  0  0  0  0
 13 44  1  0  0  0  0
 14 24  1  0  0  0  0
 14 15  1  0  0  0  0
 15 16  2  0  0  0  0
 15 45  1  0  0  0  0
 16 17  1  0  0  0  0
 16 57  1  0  0  0  0
 17 24  2  0  0  0  0
 17 18  1  0  0  0  0
 18 19  2  0  0  0  0
 18 46  1  0  0  0  0
 19 20  1  0  0  0  0
 19 21  1  0  0  0  0
 20 47  1  0  0  0  0
 20 48  1  0  0  0  0
 20 49  1  0  0  0  0
 21 22  1  0  0  0  0
 21 23  2  0  0  0  0
 22 50  1  0  0  0  0
 22 51  1  0  0  0  0
 22 52  1  0  0  0  0
 23 24  1  0  0  0  0
 23 53  1  0  0  0  0
 25 54  1  0  0  0  0
 25 55  1  0  0  0  0
M  CHG  1   3   1
M  CHG  1  16   1
M  END
> <s_m_source_file>
AV-unprocessed.smi

> <i_m_source_file_index>
1047

> <i_lp_mmshare_version>
43012

> <i_f3d_flags>
0

> <s_epik_input>
W0NIM11bQ0gyXU4xW0NIMl1bQ0gyXU9bQ0BIXShbQ0gyXTEpW0NIMl1bTkhdW0NIMl1bQ0BIXShbT0hdKVtDSDJdbihbY0hdbjIpYyhjMjMpW2NIXWMoW0NIM10pYyhbY0hdMylbQ0gzXQ==

> <s_epik_cmdline>
J2VwaWtfcHl0aG9uJywgJy1waCcsICc3LjAnLCAnLXRuJywgJzgnLCAnLW1hJywgJzIwMCcsICctbWV0YWxfYmluZGluZycsICctaW1hZScsICc8aW5maWxlLm1hZT4nLCAnLW9tYWUnLCAnPG91dGZpbGUubWFlPic=

> <r_epik_Ionization_Penalty>
2.03028

> <r_epik_Ionization_Penalty_Charging>
1.21256

> <r_epik_Ionization_Penalty_Neutral>
0.817715

> <r_epik_State_Penalty>
2.54959

> <r_epik_Charging_Adjusted_Penalty>
3.76215

> <i_epik_Tot_Q>
2

> <i_epik_Tot_abs_Q>
2

> <r_epik_Metal_State_Penalty>
6.52811

> <b_epik_Metal_Only>
0

> <s_lp_Force_Field>
OPLS_2005

> <r_lp_Energy>
43.5189

> <b_lp_Chiralities_Consistent>
1

> <s_lp_Variant>
AV-unprocessed.smi:1047-38

> <Gold.Version>
5.8.1

> <Gold.Id.Protein>
6NUR|6NUR_protein|mol2

> <Gold.PLP.Fitness>
62.2682

> <Gold.PLP.PLP>
-49.9457

> <Gold.PLP.part.hbond>
-6.2614

> <Gold.PLP.part.metal>
0.0000

> <Gold.PLP.part.buried>
-2.8969

> <Gold.PLP.part.nonpolar>
-39.9175

> <Gold.PLP.part.repulsive>
0.1066

> <Gold.PLP.ligand.clash>
0.0000

> <Gold.PLP.ligand.torsion>
1.1437

> <Gold.PLP.Chemscore.Hbond>
4.7913

> <Gold.PLP.Chemscore.CHOScore>
0.0000

> <Gold.PLP.Chemscore.Metal>
0.0000

> <Gold.Chemscore.Hbonds>
donor molecule, donor type, donor heavy atom, donor atom, acceptor molecule, acceptor atom, score
      L1  H     3    56       P1 10747  1.00
      L1  H     9    38       P1  7948  0.70
      L1  H    12    42       P1  7948  0.91
      L1  H    16    57       P1  8028  1.73

> <Gold.PLP.Chemscore.Internal.Correction>
0.2362

> <Gold.Rescore>
     Score         DG    S(hbond)    S(metal)    S(lipo)     H(rot)  DE(clash)    DE(int)     intcor
     22.42     -23.87       3.14        0.00     126.79       2.71       0.30       1.15       ----

> <Gold.Chemscore.Fitness>
22.4189

> <Gold.Chemscore.DG>
-23.8679

> <Gold.Chemscore.ZeroCoef>
-5.4800

> <Gold.Chemscore.Hbond>
3.1401

> <Gold.Chemscore.Metal>
0.0000

> <Gold.Chemscore.Lipo>
126.7924

> <Gold.Chemscore.Internal_Hbond>
0.0000

> <Gold.Chemscore.DEClash>
0.2975

> <Gold.Chemscore.DEInternal>
1.1515

> <Gold.Chemscore.Rot>
2.7088

> <Gold.Chemscore.Internal.Correction>
   9.000000E+99

> <Gold.Chemscore.Hbonds>
donor molecule, donor type, donor heavy atom, donor atom, acceptor molecule, acceptor atom, score
      L1  H     3    56       P1 10747  1.00
      L1  H     9    38       P1  7948  0.35
      L1  H    12    42       P1  7948  0.60
      L1  H    16    57       P1  8028  0.80

> <Gold.Chemscore.Hbond.Weighted>
-10.4878

> <Gold.Chemscore.Metal.Weighted>
-0.0000

> <Gold.Chemscore.Lipo.Weighted>
-14.8347

> <Gold.Chemscore.Internal_Hbond.Weighted>
0.0000

> <Gold.Chemscore.DEClash.Weighted>
0.2975

> <Gold.Chemscore.DEInternal.Weighted>
1.1515

> <Gold.Chemscore.Rot.Weighted>
6.9346

> <Gold.Chemscore.Internal.Correction.Weighted>
   9.000000E+99

> <Gold.Protein.RotatedTorsions>
[ 6907 6896 6895 6894 ] final   81.88 input  -60.11 | X-H torsion
[ 7974 7965 7964 7962 ] final  171.20 input  175.53 | X-H torsion
[ 8008 7997 7996 7995 ] final  -13.73 input   59.86 | X-H torsion
[ 10167 10162 10161 10158 ] final  132.72 input  -65.29 | X-H torsion
[ 10718 10713 10712 10709 ] final  132.08 input   66.30 | X-H torsion
[ 10763 10752 10751 10750 ] final   44.54 input  -60.55 | X-H torsion
[ 11005 11000 10999 10996 ] final  156.46 input  -57.11 | X-H torsion

> <Gold.Protein.ActiveResidues>
 VAL166  LYS551  ARG553  GLY616  TRP617  ASP618  TYR619  PRO620  LYS621  CYS622 
 ASP623  PHE694  ASN695  SER759  ASP760  ASP761  ALA762  ILE779  LEU786  VAL792 
 PHE793  MET794  SER795  GLU796  ALA797  LYS798  CYS799  TRP800  GLU811  SER814 

> <Gold.Protein.RotatedAtoms>
  152.5282  134.3136  159.9122 H   0  0  0  0  0  0  0  0  0  0  0  0  # atno 6907 bound_to 6896
  151.3086  133.4084  159.2653 H   0  0  0  0  0  0  0  0  0  0  0  0  # atno 6908 bound_to 6896
  151.0058  134.9375  159.8037 H   0  0  0  0  0  0  0  0  0  0  0  0  # atno 6909 bound_to 6896
  144.7301  139.9315  143.6425 H   0  0  0  0  0  0  0  0  0  0  0  0  # atno 7974 bound_to 7965
  154.5268  140.2242  155.8876 H   0  0  0  0  0  0  0  0  0  0  0  0  # atno 8008 bound_to 7997
  156.1722  140.3119  155.8958 H   0  0  0  0  0  0  0  0  0  0  0  0  # atno 8009 bound_to 7997
  155.3535  140.0457  157.3037 H   0  0  0  0  0  0  0  0  0  0  0  0  # atno 8010 bound_to 7997
  139.5327  144.6649  151.4893 H   0  0  0  0  0  0  0  0  0  0  0  0  # atno 10167 bound_to 10162
  157.4906  131.1090  150.9562 H   0  0  0  0  0  0  0  0  0  0  0  0  # atno 10718 bound_to 10713
  152.9839  135.6067  154.3291 H   0  0  0  0  0  0  0  0  0  0  0  0  # atno 10763 bound_to 10752
  154.2996  135.2773  155.2619 H   0  0  0  0  0  0  0  0  0  0  0  0  # atno 10764 bound_to 10752
  154.4877  135.5900  153.6492 H   0  0  0  0  0  0  0  0  0  0  0  0  # atno 10765 bound_to 10752
  140.1677  134.8565  157.2652 H   0  0  0  0  0  0  0  0  0  0  0  0  # atno 11005 bound_to 11000
  146.0854  139.3842  143.0439 LP  0  0  0  0  0  0  0  0  0  0  0  0  # atno 17320 bound_to 7965
  145.7784  140.9867  143.1112 LP  0  0  0  0  0  0  0  0  0  0  0  0  # atno 17321 bound_to 7965
  140.6516  143.8686  150.6791 LP  0  0  0  0  0  0  0  0  0  0  0  0  # atno 17342 bound_to 10162
  140.2052  143.3927  152.1761 LP  0  0  0  0  0  0  0  0  0  0  0  0  # atno 17343 bound_to 10162
  157.0265  130.5694  149.5338 LP  0  0  0  0  0  0  0  0  0  0  0  0  # atno 17370 bound_to 10713
  156.0171  130.5265  150.8167 LP  0  0  0  0  0  0  0  0  0  0  0  0  # atno 17371 bound_to 10713
  140.2414  134.3790  155.7479 LP  0  0  0  0  0  0  0  0  0  0  0  0  # atno 17394 bound_to 11000
  141.2215  133.7267  156.8795 LP  0  0  0  0  0  0  0  0  0  0  0  0  # atno 17395 bound_to 11000

$$$$
