AV-unprocessed.smi:3009|AV-procd|sdf|11450|dock8
  -GOLD-   2272016383D 1   1.00000     0.00000
 Structure written by MMmdl.
 44 45  0  0  0  0  0  0  0  0  2 V2000
  151.2112  142.9619  157.1650 C   0  0  0  0  0  0  0  0  0  0  0  0
  150.4475  141.6396  156.9963 C   0  0  0  0  0  0  0  0  0  0  0  0
  151.3083  140.4593  157.4775 C   0  0  0  0  0  0  0  0  0  0  0  0
  149.9898  141.4624  155.5319 C   0  0  0  0  0  0  0  0  0  0  0  0
  148.5729  141.8596  155.3052 N   0  3  2  0  0  0  0  0  0  0  0  0
  147.6596  141.4344  156.3935 C   0  0  0  0  0  0  0  0  0  0  0  0
  147.3154  139.9392  156.2751 C   0  0  0  0  0  0  0  0  0  0  0  0
  146.7496  139.6868  154.9957 O   0  0  0  0  0  0  0  0  0  0  0  0
  147.6488  139.9732  153.9283 C   0  0  1  0  0  0  0  0  0  0  0  0
  146.9711  139.6050  152.5963 C   0  0  0  0  0  0  0  0  0  0  0  0
  147.0334  138.1712  152.3323 N   0  0  0  0  0  0  0  0  0  0  0  0
  145.9981  137.3237  152.4099 C   0  0  0  0  0  0  0  0  0  0  0  0
  144.8588  137.6667  152.7256 O   0  0  0  0  0  0  0  0  0  0  0  0
  146.3711  136.0711  152.1010 N   0  0  0  0  0  0  0  0  0  0  0  0
  145.5545  134.9128  152.0652 C   0  0  0  0  0  0  0  0  0  0  0  0
  145.3469  134.1059  150.9138 C   0  0  0  0  0  0  0  0  0  0  0  0
  144.5362  133.0904  151.1745 N   0  0  0  0  0  0  0  0  0  0  0  0
  144.2239  133.2418  152.4814 N   0  0  0  0  0  0  0  0  0  0  0  0
  144.8215  134.3372  153.0649 C   0  0  0  0  0  0  0  0  0  0  0  0
  148.0139  141.4737  153.9832 C   0  0  0  0  0  0  0  0  0  0  0  0
  143.6081  132.5966  152.9558 H   0  0  0  0  0  0  0  0  0  0  0  0
  152.1166  142.9787  156.5571 H   0  0  0  0  0  0  0  0  0  0  0  0
  151.5054  143.1165  158.2035 H   0  0  0  0  0  0  0  0  0  0  0  0
  150.5968  143.8130  156.8696 H   0  0  0  0  0  0  0  0  0  0  0  0
  149.5728  141.7017  157.6427 H   0  0  0  0  0  0  0  0  0  0  0  0
  152.2092  140.3517  156.8726 H   0  0  0  0  0  0  0  0  0  0  0  0
  150.7605  139.5180  157.4299 H   0  0  0  0  0  0  0  0  0  0  0  0
  151.6196  140.5996  158.5131 H   0  0  0  0  0  0  0  0  0  0  0  0
  150.6447  142.0171  154.8602 H   0  0  0  0  0  0  0  0  0  0  0  0
  150.1136  140.4115  155.2662 H   0  0  0  0  0  0  0  0  0  0  0  0
  148.0885  141.6600  157.3704 H   0  0  0  0  0  0  0  0  0  0  0  0
  146.7426  142.0209  156.3206 H   0  0  0  0  0  0  0  0  0  0  0  0
  148.1952  139.3135  156.4311 H   0  0  0  0  0  0  0  0  0  0  0  0
  146.5900  139.6616  157.0400 H   0  0  0  0  0  0  0  0  0  0  0  0
  148.5481  139.3653  154.0378 H   0  0  0  0  0  0  0  0  0  0  0  0
  145.9398  139.9613  152.5739 H   0  0  0  0  0  0  0  0  0  0  0  0
  147.4853  140.1037  151.7742 H   0  0  0  0  0  0  0  0  0  0  0  0
  147.9316  137.7976  152.0621 H   0  0  0  0  0  0  0  0  0  0  0  0
  147.3409  135.9315  151.8578 H   0  0  0  0  0  0  0  0  0  0  0  0
  145.7490  134.2213  149.9178 H   0  0  0  0  0  0  0  0  0  0  0  0
  144.6710  134.5932  154.1032 H   0  0  0  0  0  0  0  0  0  0  0  0
  147.1145  142.0679  153.8151 H   0  0  0  0  0  0  0  0  0  0  0  0
  148.6977  141.7331  153.1765 H   0  0  0  0  0  0  0  0  0  0  0  0
  148.5788  142.8694  155.3315 H   0  0  0  0  0  0  0  0  0  0  0  0
  1  2  1  0  0  0  0
  1 22  1  0  0  0  0
  1 23  1  0  0  0  0
  1 24  1  0  0  0  0
  2  3  1  0  0  0  0
  2  4  1  0  0  0  0
  2 25  1  0  0  0  0
  3 26  1  0  0  0  0
  3 27  1  0  0  0  0
  3 28  1  0  0  0  0
  4  5  1  0  0  0  0
  4 29  1  0  0  0  0
  4 30  1  0  0  0  0
  5 20  1  0  0  0  0
  5  6  1  0  0  0  0
  5 44  1  0  0  0  0
  6  7  1  0  0  0  0
  6 31  1  0  0  0  0
  6 32  1  0  0  0  0
  7  8  1  0  0  0  0
  7 33  1  0  0  0  0
  7 34  1  0  0  0  0
  8  9  1  0  0  0  0
  9 10  1  0  0  0  0
  9 20  1  0  0  0  0
  9 35  1  0  0  0  0
 10 11  1  0  0  0  0
 10 36  1  0  0  0  0
 10 37  1  0  0  0  0
 11 12  1  0  0  0  0
 11 38  1  0  0  0  0
 12 13  2  0  0  0  0
 12 14  1  0  0  0  0
 14 15  1  0  0  0  0
 14 39  1  0  0  0  0
 15 19  2  0  0  0  0
 15 16  1  0  0  0  0
 16 17  2  0  0  0  0
 16 40  1  0  0  0  0
 17 18  1  0  0  0  0
 18 21  1  0  0  0  0
 18 19  1  0  0  0  0
 19 41  1  0  0  0  0
 20 42  1  0  0  0  0
 20 43  1  0  0  0  0
M  CHG  1   5   1
M  END
> <s_m_source_file>
AV-unprocessed.smi

> <i_m_source_file_index>
3009

> <i_lp_mmshare_version>
43012

> <i_f3d_flags>
0

> <s_epik_input>
W0NIM11bQ0hdKFtDSDNdKVtDSDJdTjFbQ0gyXVtDSDJdT1tDQEhdKFtDSDJdMSlbQ0gyXVtOSF1DKD1PKVtOSF1jMltjSF1uW25IXVtjSF0y

> <s_epik_cmdline>
J2VwaWtfcHl0aG9uJywgJy1waCcsICc3LjAnLCAnLXRuJywgJzgnLCAnLW1hJywgJzIwMCcsICctbWV0YWxfYmluZGluZycsICctaW1hZScsICc8aW5maWxlLm1hZT4nLCAnLW9tYWUnLCAnPG91dGZpbGUubWFlPic=

> <r_lp_tautomer_probability>
0.5

> <r_epik_Ionization_Penalty>
0.0974064

> <r_epik_Ionization_Penalty_Charging>
0.0973651

> <r_epik_Ionization_Penalty_Neutral>
4.13573e-05

> <r_epik_State_Penalty>
0.0874853

> <r_epik_Charging_Adjusted_Penalty>
0.18485

> <i_epik_Tot_Q>
1

> <i_epik_Tot_abs_Q>
1

> <r_epik_Metal_State_Penalty>
0.0874855

> <b_epik_Metal_Only>
0

> <s_lp_Force_Field>
OPLS_2005

> <r_lp_Energy>
22.9615

> <b_lp_Chiralities_Consistent>
1

> <s_lp_Variant>
AV-unprocessed.smi:3009-2

> <Gold.Version>
5.8.1

> <Gold.Id.Protein>
6NUR|6NUR_protein|mol2

> <Gold.PLP.Fitness>
42.5768

> <Gold.PLP.PLP>
-27.5058

> <Gold.PLP.part.hbond>
-4.0000

> <Gold.PLP.part.metal>
0.0000

> <Gold.PLP.part.buried>
-5.9752

> <Gold.PLP.part.nonpolar>
-20.3089

> <Gold.PLP.part.repulsive>
1.6316

> <Gold.PLP.ligand.clash>
0.0000

> <Gold.PLP.ligand.torsion>
1.4888

> <Gold.PLP.Chemscore.Hbond>
5.0000

> <Gold.PLP.Chemscore.CHOScore>
1.0000

> <Gold.PLP.Chemscore.Metal>
0.0000

> <Gold.Chemscore.Hbonds>
donor molecule, donor type, donor heavy atom, donor atom, acceptor molecule, acceptor atom, score
      L1  H     5    44       P1  8028  2.00
      L1  H    11    38       P1  7948  0.93
      L1  H    14    39       P1  7948  1.00
      L1  H    18    21       P1 10957  0.46
      L1  C    16    40       P1  7921  1.00

> <Gold.PLP.Chemscore.Internal.Correction>
0.0486

> <Gold.Rescore>
     Score         DG    S(hbond)    S(metal)    S(lipo)     H(rot)  DE(clash)    DE(int)     intcor
     19.41     -20.96       3.84        0.00      61.87       1.80       0.09       1.46       ----

> <Gold.Chemscore.Fitness>
19.4078

> <Gold.Chemscore.DG>
-20.9614

> <Gold.Chemscore.ZeroCoef>
-5.4800

> <Gold.Chemscore.Hbond>
3.8448

> <Gold.Chemscore.Metal>
0.0000

> <Gold.Chemscore.Lipo>
61.8656

> <Gold.Chemscore.Internal_Hbond>
0.0000

> <Gold.Chemscore.DEClash>
0.0907

> <Gold.Chemscore.DEInternal>
1.4628

> <Gold.Chemscore.Rot>
1.7963

> <Gold.Chemscore.Internal.Correction>
   9.000000E+99

> <Gold.Chemscore.Hbonds>
donor molecule, donor type, donor heavy atom, donor atom, acceptor molecule, acceptor atom, score
      L1  H     5    44       P1  8028  1.00
      L1  H    11    38       P1  7948  0.90
      L1  H    14    39       P1  7948  0.98
      L1  H    18    21       P1 10957  0.07

> <Gold.Chemscore.Hbond.Weighted>
-12.8416

> <Gold.Chemscore.Metal.Weighted>
-0.0000

> <Gold.Chemscore.Lipo.Weighted>
-7.2383

> <Gold.Chemscore.Internal_Hbond.Weighted>
0.0000

> <Gold.Chemscore.DEClash.Weighted>
0.0907

> <Gold.Chemscore.DEInternal.Weighted>
1.4628

> <Gold.Chemscore.Rot.Weighted>
4.5985

> <Gold.Chemscore.Internal.Correction.Weighted>
   9.000000E+99

> <Gold.Protein.RotatedTorsions>
[ 6907 6896 6895 6894 ] final  174.21 input  -60.11 | X-H torsion
[ 7974 7965 7964 7962 ] final  151.60 input  175.53 | X-H torsion
[ 8008 7997 7996 7995 ] final  128.44 input   59.86 | X-H torsion
[ 10167 10162 10161 10158 ] final  -30.61 input  -65.29 | X-H torsion
[ 10718 10713 10712 10709 ] final  -87.42 input   66.30 | X-H torsion
[ 10763 10752 10751 10750 ] final  -82.59 input  -60.55 | X-H torsion
[ 11005 11000 10999 10996 ] final  -17.82 input  -57.11 | X-H torsion

> <Gold.Protein.ActiveResidues>
 VAL166  LYS551  ARG553  GLY616  TRP617  ASP618  TYR619  PRO620  LYS621  CYS622 
 ASP623  PHE694  ASN695  SER759  ASP760  ASP761  ALA762  ILE779  LEU786  VAL792 
 PHE793  MET794  SER795  GLU796  ALA797  LYS798  CYS799  TRP800  GLU811  SER814 

> <Gold.Protein.RotatedAtoms>
  151.7559  133.3330  159.3404 H   0  0  0  0  0  0  0  0  0  0  0  0  # atno 6907 bound_to 6896
  150.7517  134.6150  159.6115 H   0  0  0  0  0  0  0  0  0  0  0  0  # atno 6908 bound_to 6896
  152.3437  134.7101  160.0308 H   0  0  0  0  0  0  0  0  0  0  0  0  # atno 6909 bound_to 6896
  144.8281  139.6558  143.6071 H   0  0  0  0  0  0  0  0  0  0  0  0  # atno 7974 bound_to 7965
  156.2915  140.2644  156.2437 H   0  0  0  0  0  0  0  0  0  0  0  0  # atno 8008 bound_to 7997
  154.9952  140.0388  157.2355 H   0  0  0  0  0  0  0  0  0  0  0  0  # atno 8009 bound_to 7997
  154.7650  140.2768  155.6188 H   0  0  0  0  0  0  0  0  0  0  0  0  # atno 8010 bound_to 7997
  140.7247  143.3835  151.1558 H   0  0  0  0  0  0  0  0  0  0  0  0  # atno 10167 bound_to 10162
  155.9985  130.4799  150.4864 H   0  0  0  0  0  0  0  0  0  0  0  0  # atno 10718 bound_to 10713
  154.5775  135.5586  153.7153 H   0  0  0  0  0  0  0  0  0  0  0  0  # atno 10763 bound_to 10752
  153.0070  135.6312  154.2028 H   0  0  0  0  0  0  0  0  0  0  0  0  # atno 10764 bound_to 10752
  154.1969  135.2880  155.2983 H   0  0  0  0  0  0  0  0  0  0  0  0  # atno 10765 bound_to 10752
  140.8206  133.8071  155.9656 H   0  0  0  0  0  0  0  0  0  0  0  0  # atno 11005 bound_to 11000
  146.2585  139.6357  142.9378 LP  0  0  0  0  0  0  0  0  0  0  0  0  # atno 17320 bound_to 7965
  145.4955  141.0438  143.2569 LP  0  0  0  0  0  0  0  0  0  0  0  0  # atno 17321 bound_to 7965
  139.7428  143.8898  152.3055 LP  0  0  0  0  0  0  0  0  0  0  0  0  # atno 17342 bound_to 10162
  139.8725  144.7060  150.8971 LP  0  0  0  0  0  0  0  0  0  0  0  0  # atno 17343 bound_to 10162
  157.2863  131.0617  151.2164 LP  0  0  0  0  0  0  0  0  0  0  0  0  # atno 17370 bound_to 10713
  157.3192  130.6928  149.6259 LP  0  0  0  0  0  0  0  0  0  0  0  0  # atno 17371 bound_to 10713
  140.9103  134.2269  157.4990 LP  0  0  0  0  0  0  0  0  0  0  0  0  # atno 17394 bound_to 11000
  139.8709  134.9747  156.4855 LP  0  0  0  0  0  0  0  0  0  0  0  0  # atno 17395 bound_to 11000

$$$$
