AV-unprocessed.smi:3335|AV-procd|sdf|12838|dock3
  -GOLD-   2272019223D 1   1.00000     0.00000
 Structure written by MMmdl.
 47 48  0  0  0  0  0  0  0  0  2 V2000
  146.9189  134.2409  163.0778 C   0  0  0  0  0  0  0  0  0  0  0  0
  147.4694  135.2843  162.1490 C   0  0  0  0  0  0  0  0  0  0  0  0
  147.3223  136.6973  162.2338 C   0  0  0  0  0  0  0  0  0  0  0  0
  147.9396  137.3365  161.2541 N   0  0  0  0  0  0  0  0  0  0  0  0
  148.4905  136.3592  160.4984 N   0  0  0  0  0  0  0  0  0  0  0  0
  149.2929  136.6753  159.3205 C   0  0  1  0  0  0  0  0  0  0  0  0
  149.0528  135.6768  158.1671 C   0  0  0  0  0  0  0  0  0  0  0  0
  149.1395  138.1621  158.9071 C   0  0  2  0  0  0  0  0  0  0  0  0
  147.9033  138.4497  158.0300 C   0  0  0  0  0  0  0  0  0  0  0  0
  150.3865  138.6292  158.2514 N   0  3  0  0  0  0  0  0  0  0  0  0
  150.4703  140.0743  157.9267 C   0  0  2  0  0  0  0  0  0  0  0  0
  150.6633  140.2401  156.4107 C   0  0  0  0  0  0  0  0  0  0  0  0
  151.6297  140.7600  158.6781 C   0  0  0  0  0  0  0  0  0  0  0  0
  152.3458  140.0774  159.4128 O   0  0  0  0  0  0  0  0  0  0  0  0
  151.8386  142.0833  158.5072 N   0  0  0  0  0  0  0  0  0  0  0  0
  152.9099  142.8167  159.1799 C   0  0  0  0  0  0  0  0  0  0  0  0
  152.6385  144.2963  158.9076 C   0  0  0  0  0  0  0  0  0  0  0  0
  151.8433  144.2944  157.6100 C   0  0  0  0  0  0  0  0  0  0  0  0
  151.0605  142.9821  157.6540 C   0  0  0  0  0  0  0  0  0  0  0  0
  148.2313  135.1121  161.0286 C   0  0  0  0  0  0  0  0  0  0  0  0
  146.1701  134.6537  163.7543 H   0  0  0  0  0  0  0  0  0  0  0  0
  147.7013  133.7999  163.6953 H   0  0  0  0  0  0  0  0  0  0  0  0
  146.4422  133.4269  162.5314 H   0  0  0  0  0  0  0  0  0  0  0  0
  146.7918  137.2739  162.9773 H   0  0  0  0  0  0  0  0  0  0  0  0
  150.3303  136.5382  159.6308 H   0  0  0  0  0  0  0  0  0  0  0  0
  149.7316  135.8595  157.3342 H   0  0  0  0  0  0  0  0  0  0  0  0
  148.0354  135.7308  157.7795 H   0  0  0  0  0  0  0  0  0  0  0  0
  149.2218  134.6523  158.5003 H   0  0  0  0  0  0  0  0  0  0  0  0
  149.0192  138.7273  159.8321 H   0  0  0  0  0  0  0  0  0  0  0  0
  146.9843  138.1163  158.5107 H   0  0  0  0  0  0  0  0  0  0  0  0
  147.9721  137.9537  157.0620 H   0  0  0  0  0  0  0  0  0  0  0  0
  147.7821  139.5157  157.8415 H   0  0  0  0  0  0  0  0  0  0  0  0
  151.1597  138.4226  158.8680 H   0  0  0  0  0  0  0  0  0  0  0  0
  149.5201  140.5318  158.1963 H   0  0  0  0  0  0  0  0  0  0  0  0
  150.7170  141.2908  156.1240 H   0  0  0  0  0  0  0  0  0  0  0  0
  149.8329  139.7966  155.8607 H   0  0  0  0  0  0  0  0  0  0  0  0
  151.5806  139.7583  156.0686 H   0  0  0  0  0  0  0  0  0  0  0  0
  152.9395  142.6120  160.2514 H   0  0  0  0  0  0  0  0  0  0  0  0
  153.8677  142.5180  158.7510 H   0  0  0  0  0  0  0  0  0  0  0  0
  152.0258  144.7098  159.7101 H   0  0  0  0  0  0  0  0  0  0  0  0
  153.5514  144.8893  158.8445 H   0  0  0  0  0  0  0  0  0  0  0  0
  151.2000  145.1684  157.5059 H   0  0  0  0  0  0  0  0  0  0  0  0
  152.5299  144.2823  156.7624 H   0  0  0  0  0  0  0  0  0  0  0  0
  150.9134  142.5843  156.6496 H   0  0  0  0  0  0  0  0  0  0  0  0
  150.0802  143.1419  158.1057 H   0  0  0  0  0  0  0  0  0  0  0  0
  148.6063  134.2105  160.5669 H   0  0  0  0  0  0  0  0  0  0  0  0
  150.5068  138.0967  157.4020 H   0  0  0  0  0  0  0  0  0  0  0  0
  1  2  1  0  0  0  0
  1 21  1  0  0  0  0
  1 22  1  0  0  0  0
  1 23  1  0  0  0  0
  2 20  2  0  0  0  0
  2  3  1  0  0  0  0
  3  4  2  0  0  0  0
  3 24  1  0  0  0  0
  4  5  1  0  0  0  0
  5  6  1  0  0  0  0
  5 20  1  0  0  0  0
  6  7  1  0  0  0  0
  6  8  1  0  0  0  0
  6 25  1  0  0  0  0
  7 26  1  0  0  0  0
  7 27  1  0  0  0  0
  7 28  1  0  0  0  0
  8  9  1  0  0  0  0
  8 10  1  0  0  0  0
  8 29  1  0  0  0  0
  9 30  1  0  0  0  0
  9 31  1  0  0  0  0
  9 32  1  0  0  0  0
 10 11  1  0  0  0  0
 10 33  1  0  0  0  0
 10 47  1  0  0  0  0
 11 12  1  0  0  0  0
 11 13  1  0  0  0  0
 11 34  1  0  0  0  0
 12 35  1  0  0  0  0
 12 36  1  0  0  0  0
 12 37  1  0  0  0  0
 13 14  2  0  0  0  0
 13 15  1  0  0  0  0
 15 19  1  0  0  0  0
 15 16  1  0  0  0  0
 16 17  1  0  0  0  0
 16 38  1  0  0  0  0
 16 39  1  0  0  0  0
 17 18  1  0  0  0  0
 17 40  1  0  0  0  0
 17 41  1  0  0  0  0
 18 19  1  0  0  0  0
 18 42  1  0  0  0  0
 18 43  1  0  0  0  0
 19 44  1  0  0  0  0
 19 45  1  0  0  0  0
 20 46  1  0  0  0  0
M  CHG  1  10   1
M  END
> <s_m_source_file>
AV-unprocessed.smi

> <i_m_source_file_index>
3335

> <i_lp_mmshare_version>
43012

> <i_f3d_flags>
0

> <s_epik_input>
W0NIM11jMVtjSF1ubihbY0hdMSlbQ0BIXShbQ0gzXSlbQ0BIXShbQ0gzXSlbTkhdW0NASF0oW0NIM10pQyg9TylOMltDSDJdW0NIMl1bQ0gyXVtDSDJdMg==

> <s_epik_cmdline>
J2VwaWtfcHl0aG9uJywgJy1waCcsICc3LjAnLCAnLXRuJywgJzgnLCAnLW1hJywgJzIwMCcsICctbWV0YWxfYmluZGluZycsICctaW1hZScsICc8aW5maWxlLm1hZT4nLCAnLW9tYWUnLCAnPG91dGZpbGUubWFlPic=

> <r_lp_tautomer_probability>
1

> <r_epik_Ionization_Penalty>
0.14175

> <r_epik_Ionization_Penalty_Charging>
0.141731

> <r_epik_Ionization_Penalty_Neutral>
1.91261e-05

> <r_epik_State_Penalty>
0.131043

> <r_epik_Charging_Adjusted_Penalty>
0.272773

> <i_epik_Tot_Q>
1

> <i_epik_Tot_abs_Q>
1

> <r_epik_Metal_State_Penalty>
0.131408

> <b_epik_Metal_Only>
0

> <s_lp_Force_Field>
OPLS_2005

> <r_lp_Energy>
39.0238

> <b_lp_Chiralities_Consistent>
1

> <s_lp_Variant>
AV-unprocessed.smi:3335-2

> <Gold.Version>
5.8.1

> <Gold.Id.Protein>
6NUR|6NUR_protein|mol2

> <Gold.PLP.Fitness>
43.8486

> <Gold.PLP.PLP>
-41.6493

> <Gold.PLP.part.hbond>
-2.0000

> <Gold.PLP.part.metal>
0.0000

> <Gold.PLP.part.buried>
-5.1286

> <Gold.PLP.part.nonpolar>
-35.6627

> <Gold.PLP.part.repulsive>
0.0866

> <Gold.PLP.ligand.clash>
0.0000

> <Gold.PLP.ligand.torsion>
1.6408

> <Gold.PLP.Chemscore.Hbond>
1.7440

> <Gold.PLP.Chemscore.CHOScore>
0.0000

> <Gold.PLP.Chemscore.Metal>
0.0000

> <Gold.Chemscore.Hbonds>
donor molecule, donor type, donor heavy atom, donor atom, acceptor molecule, acceptor atom, score
      P1  H  6931  6943       L1     4  0.94
      P1  H  6934  6947       L1     4  0.69

> <Gold.PLP.Chemscore.Internal.Correction>
0.2489

> <Gold.Rescore>
     Score         DG    S(hbond)    S(metal)    S(lipo)     H(rot)  DE(clash)    DE(int)     intcor
     14.62     -16.46       1.39        0.00      90.95       1.68       0.01       1.83       ----

> <Gold.Chemscore.Fitness>
14.6229

> <Gold.Chemscore.DG>
-16.4636

> <Gold.Chemscore.ZeroCoef>
-5.4800

> <Gold.Chemscore.Hbond>
1.3885

> <Gold.Chemscore.Metal>
0.0000

> <Gold.Chemscore.Lipo>
90.9503

> <Gold.Chemscore.Internal_Hbond>
0.0000

> <Gold.Chemscore.DEClash>
0.0073

> <Gold.Chemscore.DEInternal>
1.8334

> <Gold.Chemscore.Rot>
1.6778

> <Gold.Chemscore.Internal.Correction>
   9.000000E+99

> <Gold.Chemscore.Hbonds>
donor molecule, donor type, donor heavy atom, donor atom, acceptor molecule, acceptor atom, score
      P1  H  6931  6943       L1     4  0.48
      P1  H  6934  6947       L1     4  0.56

> <Gold.Chemscore.Hbond.Weighted>
-4.6376

> <Gold.Chemscore.Metal.Weighted>
-0.0000

> <Gold.Chemscore.Lipo.Weighted>
-10.6412

> <Gold.Chemscore.Internal_Hbond.Weighted>
0.0000

> <Gold.Chemscore.DEClash.Weighted>
0.0073

> <Gold.Chemscore.DEInternal.Weighted>
1.8334

> <Gold.Chemscore.Rot.Weighted>
4.2952

> <Gold.Chemscore.Internal.Correction.Weighted>
   9.000000E+99

> <Gold.Protein.RotatedTorsions>
[ 6907 6896 6895 6894 ] final   74.65 input  -60.11 | X-H torsion
[ 7974 7965 7964 7962 ] final  -87.16 input  175.53 | X-H torsion
[ 8008 7997 7996 7995 ] final   46.07 input   59.86 | X-H torsion
[ 10167 10162 10161 10158 ] final -102.75 input  -65.29 | X-H torsion
[ 10718 10713 10712 10709 ] final   84.32 input   66.30 | X-H torsion
[ 10763 10752 10751 10750 ] final -130.91 input  -60.55 | X-H torsion
[ 11005 11000 10999 10996 ] final   -4.94 input  -57.11 | X-H torsion

> <Gold.Protein.ActiveResidues>
 VAL166  LYS551  ARG553  GLY616  TRP617  ASP618  TYR619  PRO620  LYS621  CYS622 
 ASP623  PHE694  ASN695  SER759  ASP760  ASP761  ALA762  ILE779  LEU786  VAL792 
 PHE793  MET794  SER795  GLU796  ALA797  LYS798  CYS799  TRP800  GLU811  SER814 

> <Gold.Protein.RotatedAtoms>
  152.4987  134.4239  159.9489 H   0  0  0  0  0  0  0  0  0  0  0  0  # atno 6907 bound_to 6896
  151.4213  133.3691  159.2764 H   0  0  0  0  0  0  0  0  0  0  0  0  # atno 6908 bound_to 6896
  150.9221  134.8660  159.7555 H   0  0  0  0  0  0  0  0  0  0  0  0  # atno 6909 bound_to 6896
  145.4702  140.9560  143.1921 H   0  0  0  0  0  0  0  0  0  0  0  0  # atno 7974 bound_to 7965
  155.3464  140.3411  155.4239 H   0  0  0  0  0  0  0  0  0  0  0  0  # atno 8008 bound_to 7997
  156.1787  140.1656  156.8351 H   0  0  0  0  0  0  0  0  0  0  0  0  # atno 8009 bound_to 7997
  154.5309  140.0745  156.8327 H   0  0  0  0  0  0  0  0  0  0  0  0  # atno 8010 bound_to 7997
  140.2273  143.3632  152.0917 H   0  0  0  0  0  0  0  0  0  0  0  0  # atno 10167 bound_to 10162
  157.6896  131.0128  150.2656 H   0  0  0  0  0  0  0  0  0  0  0  0  # atno 10718 bound_to 10713
  154.8753  135.3847  154.4160 H   0  0  0  0  0  0  0  0  0  0  0  0  # atno 10763 bound_to 10752
  153.4869  135.7030  153.5911 H   0  0  0  0  0  0  0  0  0  0  0  0  # atno 10764 bound_to 10752
  153.4302  135.3880  155.2133 H   0  0  0  0  0  0  0  0  0  0  0  0  # atno 10765 bound_to 10752
  140.6857  133.9114  155.8584 H   0  0  0  0  0  0  0  0  0  0  0  0  # atno 11005 bound_to 11000
  144.7950  139.6253  143.7097 LP  0  0  0  0  0  0  0  0  0  0  0  0  # atno 17320 bound_to 7965
  146.2401  139.5984  142.9497 LP  0  0  0  0  0  0  0  0  0  0  0  0  # atno 17321 bound_to 7965
  139.5122  144.6914  151.5750 LP  0  0  0  0  0  0  0  0  0  0  0  0  # atno 17342 bound_to 10162
  140.6211  143.9256  150.6527 LP  0  0  0  0  0  0  0  0  0  0  0  0  # atno 17343 bound_to 10162
  156.3227  130.3788  149.7560 LP  0  0  0  0  0  0  0  0  0  0  0  0  # atno 17370 bound_to 10713
  156.5125  130.8178  151.3174 LP  0  0  0  0  0  0  0  0  0  0  0  0  # atno 17371 bound_to 10713
  141.0282  134.0794  157.4045 LP  0  0  0  0  0  0  0  0  0  0  0  0  # atno 17394 bound_to 11000
  139.8938  135.0132  156.6919 LP  0  0  0  0  0  0  0  0  0  0  0  0  # atno 17395 bound_to 11000

$$$$
