AV-unprocessed.smi:499|AV-procd|sdf|2733|dock8
  -GOLD-   2262023183D 1   1.00000     0.00000
 Structure written by MMmdl.
 36 37  0  0  0  0  0  0  0  0  1 V2000
  145.7262  143.0559  155.8115 C   0  0  0  0  0  0  0  0  0  0  0  0
  146.4604  141.8644  156.4585 C   0  0  2  0  0  0  0  0  0  0  0  0
  146.2359  141.9436  157.9138 C   0  0  0  0  0  0  0  0  0  0  0  0
  146.0564  142.0060  159.0556 N   0  0  0  0  0  0  0  0  0  0  0  0
  147.9029  141.9926  156.2350 N   0  0  0  0  0  0  0  0  0  0  0  0
  148.8858  141.1943  156.6852 C   0  0  0  0  0  0  0  0  0  0  0  0
  148.6885  140.1811  157.3558 O   0  0  0  0  0  0  0  0  0  0  0  0
  150.3117  141.6044  156.2907 C   0  0  0  0  0  0  0  0  0  0  0  0
  151.1760  141.8841  157.4496 N   0  0  0  0  0  0  0  0  0  0  0  0
  150.9256  143.0707  158.1662 C   0  0  0  0  0  0  0  0  0  0  0  0
  151.6365  143.4364  159.2502 C   0  0  0  0  0  0  0  0  0  0  0  0
  151.3805  144.7539  159.9652 C   0  0  0  0  0  0  0  0  0  0  0  0
  151.8172  145.7666  159.2178 F   0  0  0  0  0  0  0  0  0  0  0  0
  150.0789  144.9346  160.1905 F   0  0  0  0  0  0  0  0  0  0  0  0
  152.0184  144.7976  161.1355 F   0  0  0  0  0  0  0  0  0  0  0  0
  152.7169  142.5523  159.6412 C   0  0  0  0  0  0  0  0  0  0  0  0
  152.9792  141.4209  158.9580 C   0  0  0  0  0  0  0  0  0  0  0  0
  152.1862  141.0290  157.7907 C   0  0  0  0  0  0  0  0  0  0  0  0
  152.4158  139.9977  157.1583 O   0  0  0  0  0  0  0  0  0  0  0  0
  145.8803  140.5497  155.9248 C   0  0  0  0  0  0  0  0  0  0  0  0
  144.5398  140.0106  156.3730 C   0  0  0  0  0  0  0  0  0  0  0  0
  145.8135  139.2908  156.7596 C   0  0  0  0  0  0  0  0  0  0  0  0
  144.6623  143.0321  156.0497 H   0  0  0  0  0  0  0  0  0  0  0  0
  145.8118  143.0519  154.7248 H   0  0  0  0  0  0  0  0  0  0  0  0
  146.1196  144.0073  156.1719 H   0  0  0  0  0  0  0  0  0  0  0  0
  148.1853  142.7918  155.6861 H   0  0  0  0  0  0  0  0  0  0  0  0
  150.7368  140.8073  155.6795 H   0  0  0  0  0  0  0  0  0  0  0  0
  150.2727  142.4762  155.6345 H   0  0  0  0  0  0  0  0  0  0  0  0
  150.1214  143.6737  157.7702 H   0  0  0  0  0  0  0  0  0  0  0  0
  153.3257  142.7992  160.4985 H   0  0  0  0  0  0  0  0  0  0  0  0
  153.7917  140.7854  159.2788 H   0  0  0  0  0  0  0  0  0  0  0  0
  146.0873  140.3900  154.8686 H   0  0  0  0  0  0  0  0  0  0  0  0
  144.0033  140.5390  157.1583 H   0  0  0  0  0  0  0  0  0  0  0  0
  143.9109  139.5457  155.6165 H   0  0  0  0  0  0  0  0  0  0  0  0
  146.0312  138.3492  156.2596 H   0  0  0  0  0  0  0  0  0  0  0  0
  146.1257  139.3441  157.8003 H   0  0  0  0  0  0  0  0  0  0  0  0
  1  2  1  0  0  0  0
  1 23  1  0  0  0  0
  1 24  1  0  0  0  0
  1 25  1  0  0  0  0
  2  3  1  0  0  0  0
  2  5  1  0  0  0  0
  2 20  1  0  0  0  0
  3  4  3  0  0  0  0
  5  6  1  0  0  0  0
  5 26  1  0  0  0  0
  6  7  2  0  0  0  0
  6  8  1  0  0  0  0
  8  9  1  0  0  0  0
  8 27  1  0  0  0  0
  8 28  1  0  0  0  0
  9 18  1  0  0  0  0
  9 10  1  0  0  0  0
 10 11  2  0  0  0  0
 10 29  1  0  0  0  0
 11 12  1  0  0  0  0
 11 16  1  0  0  0  0
 12 13  1  0  0  0  0
 12 14  1  0  0  0  0
 12 15  1  0  0  0  0
 16 17  2  0  0  0  0
 16 30  1  0  0  0  0
 17 18  1  0  0  0  0
 17 31  1  0  0  0  0
 18 19  2  0  0  0  0
 20 22  1  0  0  0  0
 20 21  1  0  0  0  0
 20 32  1  0  0  0  0
 21 22  1  0  0  0  0
 21 33  1  0  0  0  0
 21 34  1  0  0  0  0
 22 35  1  0  0  0  0
 22 36  1  0  0  0  0
M  END
> <s_m_source_file>
AV-unprocessed.smi

> <i_m_source_file_index>
499

> <i_lp_mmshare_version>
43012

> <i_f3d_flags>
0

> <s_epik_input>
W0NIMl0xW0NIMl1bQ0hdMVtDQF0oW0NIM10pKEMjTilbTkhdQyg9TylbQ0gyXW4yW2NIXWMoQyhGKShGKUYpW2NIXVtjSF1jMj1P

> <s_epik_cmdline>
J2VwaWtfcHl0aG9uJywgJy1waCcsICc3LjAnLCAnLXRuJywgJzgnLCAnLW1hJywgJzIwMCcsICctbWV0YWxfYmluZGluZycsICctaW1hZScsICc8aW5maWxlLm1hZT4nLCAnLW9tYWUnLCAnPG91dGZpbGUubWFlPic=

> <r_lp_tautomer_probability>
1

> <r_epik_Ionization_Penalty>
4.79953e-07

> <r_epik_Ionization_Penalty_Charging>
1.46911e-08

> <r_epik_Ionization_Penalty_Neutral>
4.65262e-07

> <r_epik_State_Penalty>
-0

> <r_epik_Charging_Adjusted_Penalty>
1.46911e-08

> <i_epik_Tot_Q>
0

> <i_epik_Tot_abs_Q>
0

> <r_epik_Metal_State_Penalty>
-0

> <b_epik_Metal_Only>
0

> <s_lp_Force_Field>
OPLS_2005

> <r_lp_Energy>
23.9412

> <b_lp_Chiralities_Consistent>
1

> <s_lp_Variant>
AV-unprocessed.smi:499-2

> <Gold.Version>
5.8.1

> <Gold.Id.Protein>
6NUR|6NUR_protein|mol2

> <Gold.PLP.Fitness>
46.5628

> <Gold.PLP.PLP>
-37.7976

> <Gold.PLP.part.hbond>
-3.0000

> <Gold.PLP.part.metal>
0.0000

> <Gold.PLP.part.buried>
-5.4485

> <Gold.PLP.part.nonpolar>
-28.8458

> <Gold.PLP.part.repulsive>
0.0184

> <Gold.PLP.ligand.clash>
0.0000

> <Gold.PLP.ligand.torsion>
1.4086

> <Gold.PLP.Chemscore.Hbond>
2.9920

> <Gold.PLP.Chemscore.CHOScore>
0.3500

> <Gold.PLP.Chemscore.Metal>
0.0000

> <Gold.Chemscore.Hbonds>
donor molecule, donor type, donor heavy atom, donor atom, acceptor molecule, acceptor atom, score
      L1  H     5    26       P1  8028  0.95
      P1  H  6934  6946       L1     4  0.62
      P1  H  7997  8009       L1    19  0.99
      L1  C    10    29       P1  8028  0.73

> <Gold.PLP.Chemscore.Internal.Correction>
1.5565

> <Gold.Rescore>
     Score         DG    S(hbond)    S(metal)    S(lipo)     H(rot)  DE(clash)    DE(int)     intcor
     14.88     -17.23       2.73        0.00      64.16       1.90       0.28       2.07       ----

> <Gold.Chemscore.Fitness>
14.8848

> <Gold.Chemscore.DG>
-17.2330

> <Gold.Chemscore.ZeroCoef>
-5.4800

> <Gold.Chemscore.Hbond>
2.7301

> <Gold.Chemscore.Metal>
0.0000

> <Gold.Chemscore.Lipo>
64.1562

> <Gold.Chemscore.Internal_Hbond>
0.0000

> <Gold.Chemscore.DEClash>
0.2803

> <Gold.Chemscore.DEInternal>
2.0678

> <Gold.Chemscore.Rot>
1.9030

> <Gold.Chemscore.Internal.Correction>
   9.000000E+99

> <Gold.Chemscore.Hbonds>
donor molecule, donor type, donor heavy atom, donor atom, acceptor molecule, acceptor atom, score
      L1  H     5    26       P1  8028  0.80
      P1  H  6934  6946       L1     4  0.59
      P1  H  7997  8009       L1    19  0.46

> <Gold.Chemscore.Hbond.Weighted>
-9.1185

> <Gold.Chemscore.Metal.Weighted>
-0.0000

> <Gold.Chemscore.Lipo.Weighted>
-7.5063

> <Gold.Chemscore.Internal_Hbond.Weighted>
0.0000

> <Gold.Chemscore.DEClash.Weighted>
0.2803

> <Gold.Chemscore.DEInternal.Weighted>
2.0678

> <Gold.Chemscore.Rot.Weighted>
4.8718

> <Gold.Chemscore.Internal.Correction.Weighted>
   9.000000E+99

> <Gold.Protein.RotatedTorsions>
[ 6907 6896 6895 6894 ] final  -93.07 input  -60.11 | X-H torsion
[ 7974 7965 7964 7962 ] final  121.39 input  175.53 | X-H torsion
[ 8008 7997 7996 7995 ] final  173.54 input   59.86 | X-H torsion
[ 10167 10162 10161 10158 ] final  141.47 input  -65.29 | X-H torsion
[ 10718 10713 10712 10709 ] final -124.55 input   66.30 | X-H torsion
[ 10763 10752 10751 10750 ] final  -51.23 input  -60.55 | X-H torsion
[ 11005 11000 10999 10996 ] final  -51.14 input  -57.11 | X-H torsion

> <Gold.Protein.ActiveResidues>
 VAL166  LYS551  ARG553  GLY616  TRP617  ASP618  TYR619  PRO620  LYS621  CYS622 
 ASP623  PHE694  ASN695  SER759  ASP760  ASP761  ALA762  ILE779  LEU786  VAL792 
 PHE793  MET794  SER795  GLU796  ALA797  LYS798  CYS799  TRP800  GLU811  SER814 

> <Gold.Protein.RotatedAtoms>
  150.6916  134.2024  159.4327 H   0  0  0  0  0  0  0  0  0  0  0  0  # atno 6907 bound_to 6896
  151.9990  134.9936  160.0573 H   0  0  0  0  0  0  0  0  0  0  0  0  # atno 6908 bound_to 6896
  152.1596  133.4538  159.4891 H   0  0  0  0  0  0  0  0  0  0  0  0  # atno 6909 bound_to 6896
  145.1198  139.3396  143.4720 H   0  0  0  0  0  0  0  0  0  0  0  0  # atno 7974 bound_to 7965
  156.1065  140.1457  156.9396 H   0  0  0  0  0  0  0  0  0  0  0  0  # atno 8008 bound_to 7997
  154.4738  140.0901  156.7254 H   0  0  0  0  0  0  0  0  0  0  0  0  # atno 8009 bound_to 7997
  155.4670  140.3440  155.4322 H   0  0  0  0  0  0  0  0  0  0  0  0  # atno 8010 bound_to 7997
  139.5020  144.6169  151.6142 H   0  0  0  0  0  0  0  0  0  0  0  0  # atno 10167 bound_to 10162
  156.1598  130.6593  151.0033 H   0  0  0  0  0  0  0  0  0  0  0  0  # atno 10718 bound_to 10713
  154.1231  135.6531  153.4907 H   0  0  0  0  0  0  0  0  0  0  0  0  # atno 10763 bound_to 10752
  153.0219  135.5275  154.7076 H   0  0  0  0  0  0  0  0  0  0  0  0  # atno 10764 bound_to 10752
  154.6290  135.2974  155.0209 H   0  0  0  0  0  0  0  0  0  0  0  0  # atno 10765 bound_to 10752
  141.0855  133.6643  156.3834 H   0  0  0  0  0  0  0  0  0  0  0  0  # atno 11005 bound_to 11000
  146.3521  140.1153  142.8602 LP  0  0  0  0  0  0  0  0  0  0  0  0  # atno 17320 bound_to 7965
  145.0753  140.9183  143.4858 LP  0  0  0  0  0  0  0  0  0  0  0  0  # atno 17321 bound_to 7965
  140.5860  143.9863  150.6296 LP  0  0  0  0  0  0  0  0  0  0  0  0  # atno 17342 bound_to 10162
  140.3028  143.3249  152.0955 LP  0  0  0  0  0  0  0  0  0  0  0  0  # atno 17343 bound_to 10162
  157.6723  131.0858  150.7581 LP  0  0  0  0  0  0  0  0  0  0  0  0  # atno 17370 bound_to 10713
  156.7644  130.4809  149.5430 LP  0  0  0  0  0  0  0  0  0  0  0  0  # atno 17371 bound_to 10713
  140.5373  134.6154  157.5369 LP  0  0  0  0  0  0  0  0  0  0  0  0  # atno 17394 bound_to 11000
  139.9672  134.7352  156.0113 LP  0  0  0  0  0  0  0  0  0  0  0  0  # atno 17395 bound_to 11000

$$$$
