AV-unprocessed.smi:280|AV-procd|sdf|2100|dock7
  -GOLD-   2262021393D 1   1.00000     0.00000
 Structure written by MMmdl.
 59 62  0  0  0  0  0  0  0  0  2 V2000
  147.5163  135.0389  154.7073 C   0  0  0  0  0  0  0  0  0  0  0  0
  146.6310  136.1906  154.1873 C   0  0  1  0  0  0  0  0  0  0  0  0
  147.4509  137.4985  154.2752 C   0  0  0  0  0  0  0  0  0  0  0  0
  146.7522  138.6312  153.6811 N   0  0  0  0  0  0  0  0  0  0  0  0
  147.2713  139.8470  153.9909 C   0  0  0  0  0  0  0  0  0  0  0  0
  146.6334  140.9793  153.5901 N   0  0  0  0  0  0  0  0  0  0  0  0
  147.1376  142.1803  153.8886 C   0  0  0  0  0  0  0  0  0  0  0  0
  148.2474  142.4726  154.5687 N   0  0  0  0  0  0  0  0  0  0  0  0
  148.8906  141.3423  154.9785 C   0  0  0  0  0  0  0  0  0  0  0  0
  148.4757  140.0025  154.7339 C   0  0  0  0  0  0  0  0  0  0  0  0
  149.3739  139.1165  155.3167 N   0  0  0  0  0  0  0  0  0  0  0  0
  150.2702  139.8875  155.8692 C   0  0  0  0  0  0  0  0  0  0  0  0
  150.0632  141.2392  155.7078 N   0  0  0  0  0  0  0  0  0  0  0  0
  150.8947  142.3169  156.2230 C   0  0  0  0  0  0  0  0  0  0  0  0
  150.9939  142.3480  157.7615 C   0  0  0  0  0  0  0  0  0  0  0  0
  149.6401  141.9831  158.3952 C   0  0  0  0  0  0  0  0  0  0  0  0
  148.5954  142.7738  157.8653 O   0  0  0  0  0  0  0  0  0  0  0  0
  152.2077  141.6329  158.3705 C   0  0  0  0  0  0  0  0  0  0  0  0
  152.5709  142.7905  159.1527 O   0  0  0  0  0  0  0  0  0  0  0  0
  151.6630  143.5907  158.3664 C   0  0  0  0  0  0  0  0  0  0  0  0
  146.3247  138.4038  152.3066 C   0  0  0  0  0  0  0  0  0  0  0  0
  145.4473  137.1504  152.2286 C   0  0  0  0  0  0  0  0  0  0  0  0
  146.1264  135.9537  152.7970 N   0  3  2  0  0  0  0  0  0  0  0  0
  145.2800  134.7343  152.6383 C   0  0  0  0  0  0  0  0  0  0  0  0
  145.4749  134.0362  151.2697 C   0  0  0  0  0  0  0  0  0  0  0  0
  146.9293  133.5959  151.0251 C   0  0  0  0  0  0  0  0  0  0  0  0
  144.5306  132.8273  151.1556 C   0  0  0  0  0  0  0  0  0  0  0  0
  145.1074  134.9311  150.2385 O   0  0  0  0  0  0  0  0  0  0  0  0
  147.9117  135.2757  155.6955 H   0  0  0  0  0  0  0  0  0  0  0  0
  148.3698  134.8687  154.0509 H   0  0  0  0  0  0  0  0  0  0  0  0
  146.9814  134.0964  154.8102 H   0  0  0  0  0  0  0  0  0  0  0  0
  145.7633  136.2887  154.8421 H   0  0  0  0  0  0  0  0  0  0  0  0
  147.7018  137.6956  155.3171 H   0  0  0  0  0  0  0  0  0  0  0  0
  148.3990  137.3758  153.7490 H   0  0  0  0  0  0  0  0  0  0  0  0
  146.5701  143.0278  153.5331 H   0  0  0  0  0  0  0  0  0  0  0  0
  151.1104  139.4859  156.4165 H   0  0  0  0  0  0  0  0  0  0  0  0
  151.8848  142.2383  155.7731 H   0  0  0  0  0  0  0  0  0  0  0  0
  150.4817  143.2551  155.8502 H   0  0  0  0  0  0  0  0  0  0  0  0
  149.3959  140.9379  158.2031 H   0  0  0  0  0  0  0  0  0  0  0  0
  149.6583  142.0940  159.4792 H   0  0  0  0  0  0  0  0  0  0  0  0
  148.9563  143.3498  157.2087 H   0  0  0  0  0  0  0  0  0  0  0  0
  151.9548  140.7712  158.9897 H   0  0  0  0  0  0  0  0  0  0  0  0
  152.9811  141.3757  157.6449 H   0  0  0  0  0  0  0  0  0  0  0  0
  152.2001  144.2068  157.6439 H   0  0  0  0  0  0  0  0  0  0  0  0
  150.9988  144.2002  158.9805 H   0  0  0  0  0  0  0  0  0  0  0  0
  145.7626  139.2635  151.9388 H   0  0  0  0  0  0  0  0  0  0  0  0
  147.2003  138.2894  151.6658 H   0  0  0  0  0  0  0  0  0  0  0  0
  144.5182  137.3285  152.7729 H   0  0  0  0  0  0  0  0  0  0  0  0
  145.1733  136.9687  151.1894 H   0  0  0  0  0  0  0  0  0  0  0  0
  145.4729  134.0159  153.4327 H   0  0  0  0  0  0  0  0  0  0  0  0
  144.2273  134.9916  152.7698 H   0  0  0  0  0  0  0  0  0  0  0  0
  147.2650  132.9008  151.7951 H   0  0  0  0  0  0  0  0  0  0  0  0
  147.6147  134.4437  151.0198 H   0  0  0  0  0  0  0  0  0  0  0  0
  147.0332  133.0923  150.0632 H   0  0  0  0  0  0  0  0  0  0  0  0
  144.7548  132.0799  151.9173 H   0  0  0  0  0  0  0  0  0  0  0  0
  144.6192  132.3403  150.1835 H   0  0  0  0  0  0  0  0  0  0  0  0
  143.4877  133.1215  151.2812 H   0  0  0  0  0  0  0  0  0  0  0  0
  145.4433  134.6009  149.4185 H   0  0  0  0  0  0  0  0  0  0  0  0
  146.9477  135.7997  152.2295 H   0  0  0  0  0  0  0  0  0  0  0  0
  1  2  1  0  0  0  0
  1 29  1  0  0  0  0
  1 30  1  0  0  0  0
  1 31  1  0  0  0  0
  2 23  1  0  0  0  0
  2  3  1  0  0  0  0
  2 32  1  0  0  0  0
  3  4  1  0  0  0  0
  3 33  1  0  0  0  0
  3 34  1  0  0  0  0
  4  5  1  0  0  0  0
  4 21  1  0  0  0  0
  5 10  1  0  0  0  0
  5  6  2  0  0  0  0
  6  7  1  0  0  0  0
  7  8  2  0  0  0  0
  7 35  1  0  0  0  0
  8  9  1  0  0  0  0
  9 13  1  0  0  0  0
  9 10  2  0  0  0  0
 10 11  1  0  0  0  0
 11 12  2  0  0  0  0
 12 13  1  0  0  0  0
 12 36  1  0  0  0  0
 13 14  1  0  0  0  0
 14 15  1  0  0  0  0
 14 37  1  0  0  0  0
 14 38  1  0  0  0  0
 15 20  1  0  0  0  0
 15 16  1  0  0  0  0
 15 18  1  0  0  0  0
 16 17  1  0  0  0  0
 16 39  1  0  0  0  0
 16 40  1  0  0  0  0
 17 41  1  0  0  0  0
 18 19  1  0  0  0  0
 18 42  1  0  0  0  0
 18 43  1  0  0  0  0
 19 20  1  0  0  0  0
 20 44  1  0  0  0  0
 20 45  1  0  0  0  0
 21 22  1  0  0  0  0
 21 46  1  0  0  0  0
 21 47  1  0  0  0  0
 22 23  1  0  0  0  0
 22 48  1  0  0  0  0
 22 49  1  0  0  0  0
 23 24  1  0  0  0  0
 23 59  1  0  0  0  0
 24 25  1  0  0  0  0
 24 50  1  0  0  0  0
 24 51  1  0  0  0  0
 25 26  1  0  0  0  0
 25 27  1  0  0  0  0
 25 28  1  0  0  0  0
 26 52  1  0  0  0  0
 26 53  1  0  0  0  0
 26 54  1  0  0  0  0
 27 55  1  0  0  0  0
 27 56  1  0  0  0  0
 27 57  1  0  0  0  0
 28 58  1  0  0  0  0
M  CHG  1  23   1
M  END
> <s_m_source_file>
AV-unprocessed.smi

> <i_m_source_file_index>
280

> <i_lp_mmshare_version>
43012

> <i_f3d_flags>
0

> <s_epik_input>
W0NIM11DKFtDSDNdKShbT0hdKVtDSDJdTjFbQ0gyXVtDSDJdTihbQ0gyXVtDQEhdMVtDSDNdKWMobltjSF1uMiljKGMyMyluW2NIXW4zW0NIMl1DNChbQ0gyXVtPSF0pW0NIMl1PW0NIMl00

> <s_epik_cmdline>
J2VwaWtfcHl0aG9uJywgJy1waCcsICc3LjAnLCAnLXRuJywgJzgnLCAnLW1hJywgJzIwMCcsICctbWV0YWxfYmluZGluZycsICctaW1hZScsICc8aW5maWxlLm1hZT4nLCAnLW9tYWUnLCAnPG91dGZpbGUubWFlPic=

> <r_lp_tautomer_probability>
1

> <r_epik_Ionization_Penalty>
0.00179402

> <r_epik_Ionization_Penalty_Charging>
0.00173996

> <r_epik_Ionization_Penalty_Neutral>
5.40607e-05

> <r_epik_State_Penalty>
-0

> <r_epik_Charging_Adjusted_Penalty>
0.00173996

> <i_epik_Tot_Q>
1

> <i_epik_Tot_abs_Q>
1

> <r_epik_Metal_State_Penalty>
-0

> <b_epik_Metal_Only>
0

> <s_lp_Force_Field>
OPLS_2005

> <r_lp_Energy>
52.0143

> <b_lp_Chiralities_Consistent>
1

> <s_lp_Variant>
AV-unprocessed.smi:280-4

> <Gold.Version>
5.8.1

> <Gold.Id.Protein>
6NUR|6NUR_protein|mol2

> <Gold.PLP.Fitness>
48.2290

> <Gold.PLP.PLP>
-38.3913

> <Gold.PLP.part.hbond>
-4.6353

> <Gold.PLP.part.metal>
0.0000

> <Gold.PLP.part.buried>
-6.9370

> <Gold.PLP.part.nonpolar>
-29.7109

> <Gold.PLP.part.repulsive>
4.0669

> <Gold.PLP.ligand.clash>
1.2813

> <Gold.PLP.ligand.torsion>
1.0605

> <Gold.PLP.Chemscore.Hbond>
3.9335

> <Gold.PLP.Chemscore.CHOScore>
0.0000

> <Gold.PLP.Chemscore.Metal>
0.0000

> <Gold.Chemscore.Hbonds>
donor molecule, donor type, donor heavy atom, donor atom, acceptor molecule, acceptor atom, score
      L1  H    17    41       P1  8028  0.94
      L1  H    23    59       P1  7948  1.84
      L1  H    28    58       P1  7921  1.00

> <Gold.PLP.Chemscore.Internal.Correction>
1.4394

> <Gold.Rescore>
     Score         DG    S(hbond)    S(metal)    S(lipo)     H(rot)  DE(clash)    DE(int)     intcor
      8.76     -14.76       2.45        0.00      88.57       3.63       2.33       3.67       ----

> <Gold.Chemscore.Fitness>
8.7575

> <Gold.Chemscore.DG>
-14.7573

> <Gold.Chemscore.ZeroCoef>
-5.4800

> <Gold.Chemscore.Hbond>
2.4542

> <Gold.Chemscore.Metal>
0.0000

> <Gold.Chemscore.Lipo>
88.5703

> <Gold.Chemscore.Internal_Hbond>
0.0000

> <Gold.Chemscore.DEClash>
2.3301

> <Gold.Chemscore.DEInternal>
3.6697

> <Gold.Chemscore.Rot>
3.6260

> <Gold.Chemscore.Internal.Correction>
   9.000000E+99

> <Gold.Chemscore.Hbonds>
donor molecule, donor type, donor heavy atom, donor atom, acceptor molecule, acceptor atom, score
      L1  H    17    41       P1  8028  0.49
      L1  H    23    59       P1  7948  0.84
      L1  H    28    58       P1  7921  0.95

> <Gold.Chemscore.Hbond.Weighted>
-8.1970

> <Gold.Chemscore.Metal.Weighted>
-0.0000

> <Gold.Chemscore.Lipo.Weighted>
-10.3627

> <Gold.Chemscore.Internal_Hbond.Weighted>
0.0000

> <Gold.Chemscore.DEClash.Weighted>
2.3301

> <Gold.Chemscore.DEInternal.Weighted>
3.6697

> <Gold.Chemscore.Rot.Weighted>
9.2825

> <Gold.Chemscore.Internal.Correction.Weighted>
   9.000000E+99

> <Gold.Protein.RotatedTorsions>
[ 6907 6896 6895 6894 ] final  146.95 input  -60.11 | X-H torsion
[ 7974 7965 7964 7962 ] final -169.13 input  175.53 | X-H torsion
[ 8008 7997 7996 7995 ] final   81.05 input   59.86 | X-H torsion
[ 10167 10162 10161 10158 ] final -141.30 input  -65.29 | X-H torsion
[ 10718 10713 10712 10709 ] final    2.25 input   66.30 | X-H torsion
[ 10763 10752 10751 10750 ] final  -98.73 input  -60.55 | X-H torsion
[ 11005 11000 10999 10996 ] final -162.07 input  -57.11 | X-H torsion

> <Gold.Protein.ActiveResidues>
 VAL166  LYS551  ARG553  GLY616  TRP617  ASP618  TYR619  PRO620  LYS621  CYS622 
 ASP623  PHE694  ASN695  SER759  ASP760  ASP761  ALA762  ILE779  LEU786  VAL792 
 PHE793  MET794  SER795  GLU796  ALA797  LYS798  CYS799  TRP800  GLU811  SER814 

> <Gold.Protein.RotatedAtoms>
  152.1612  133.4583  159.4861 H   0  0  0  0  0  0  0  0  0  0  0  0  # atno 6907 bound_to 6896
  150.6907  134.2070  159.4353 H   0  0  0  0  0  0  0  0  0  0  0  0  # atno 6908 bound_to 6896
  151.9972  134.9947  160.0614 H   0  0  0  0  0  0  0  0  0  0  0  0  # atno 6909 bound_to 6896
  144.7190  140.2266  143.6309 H   0  0  0  0  0  0  0  0  0  0  0  0  # atno 7974 bound_to 7965
  155.8919  140.3438  155.5962 H   0  0  0  0  0  0  0  0  0  0  0  0  # atno 8008 bound_to 7997
  155.7601  140.0831  157.2178 H   0  0  0  0  0  0  0  0  0  0  0  0  # atno 8009 bound_to 7997
  154.4034  140.1537  156.2810 H   0  0  0  0  0  0  0  0  0  0  0  0  # atno 8010 bound_to 7997
  139.8198  143.7589  152.2666 H   0  0  0  0  0  0  0  0  0  0  0  0  # atno 10167 bound_to 10162
  156.8603  130.5584  149.5663 H   0  0  0  0  0  0  0  0  0  0  0  0  # atno 10718 bound_to 10713
  154.7439  135.4998  153.9169 H   0  0  0  0  0  0  0  0  0  0  0  0  # atno 10763 bound_to 10752
  153.1071  135.6700  153.9575 H   0  0  0  0  0  0  0  0  0  0  0  0  # atno 10764 bound_to 10752
  153.9344  135.3074  155.3424 H   0  0  0  0  0  0  0  0  0  0  0  0  # atno 10765 bound_to 10752
  140.6134  134.4826  157.5217 H   0  0  0  0  0  0  0  0  0  0  0  0  # atno 11005 bound_to 11000
  145.8450  139.2148  143.1805 LP  0  0  0  0  0  0  0  0  0  0  0  0  # atno 17320 bound_to 7965
  146.0312  140.8256  142.9875 LP  0  0  0  0  0  0  0  0  0  0  0  0  # atno 17321 bound_to 7965
  139.7764  144.7459  151.0150 LP  0  0  0  0  0  0  0  0  0  0  0  0  # atno 17342 bound_to 10162
  140.7814  143.4589  151.0306 LP  0  0  0  0  0  0  0  0  0  0  0  0  # atno 17343 bound_to 10162
  156.0780  130.5798  150.9511 LP  0  0  0  0  0  0  0  0  0  0  0  0  # atno 17370 bound_to 10713
  157.6254  131.0926  150.8544 LP  0  0  0  0  0  0  0  0  0  0  0  0  # atno 17371 bound_to 10713
  139.9183  134.8201  156.1294 LP  0  0  0  0  0  0  0  0  0  0  0  0  # atno 17394 bound_to 11000
  141.0792  133.6761  156.2301 LP  0  0  0  0  0  0  0  0  0  0  0  0  # atno 17395 bound_to 11000

$$$$
