AV-unprocessed.smi:337|AV-procd|sdf|2373|dock4
  -GOLD-   2262022293D 1   1.00000     0.00000
 Structure written by MMmdl.
 43 44  0  0  0  0  0  0  0  0  1 V2000
  146.2912  138.1564  152.3321 C   0  0  0  0  0  0  0  0  0  0  0  0
  147.3092  139.2430  152.7163 C   0  0  1  0  0  0  0  0  0  0  0  0
  146.5768  140.3907  153.2507 N   0  0  0  0  0  0  0  0  0  0  0  0
  147.1431  141.5041  153.7407 C   0  0  0  0  0  0  0  0  0  0  0  0
  146.2416  142.3750  154.1947 N   0  0  0  0  0  0  0  0  0  0  0  0
  148.3547  141.7115  153.7791 O   0  0  0  0  0  0  0  0  0  0  0  0
  148.2549  138.6770  153.7865 C   0  0  0  0  0  0  0  0  0  0  0  0
  147.8201  138.3321  154.8866 O   0  0  0  0  0  0  0  0  0  0  0  0
  149.5518  138.6010  153.4513 N   0  0  0  0  0  0  0  0  0  0  0  0
  150.6215  138.1946  154.3563 C   0  0  0  0  0  0  0  0  0  0  0  0
  150.9995  139.2629  155.3733 C   0  0  0  0  0  0  0  0  0  0  0  0
  150.2175  140.4223  155.5591 C   0  0  0  0  0  0  0  0  0  0  0  0
  150.6121  141.3657  156.5258 C   0  0  0  0  0  0  0  0  0  0  0  0
  151.7837  141.1296  157.2832 C   0  0  0  0  0  0  0  0  0  0  0  0
  152.1876  142.0571  158.2678 N   0  0  0  0  0  0  0  0  0  0  0  0
  152.3644  141.5714  159.6348 C   0  0  0  0  0  0  0  0  0  0  0  0
  153.0649  142.6370  160.4947 C   0  0  0  0  0  0  0  0  0  0  0  0
  152.3319  143.8563  160.4380 O   0  0  0  0  0  0  0  0  0  0  0  0
  152.2630  144.3704  159.1119 C   0  0  0  0  0  0  0  0  0  0  0  0
  151.5406  143.3651  158.1983 C   0  0  0  0  0  0  0  0  0  0  0  0
  152.5441  140.0236  157.0875 N   0  0  0  0  0  0  0  0  0  0  0  0
  152.1592  139.1205  156.1609 C   0  0  0  0  0  0  0  0  0  0  0  0
  146.7890  137.2743  151.9280 H   0  0  0  0  0  0  0  0  0  0  0  0
  145.6056  138.5202  151.5661 H   0  0  0  0  0  0  0  0  0  0  0  0
  145.6912  137.8384  153.1863 H   0  0  0  0  0  0  0  0  0  0  0  0
  147.8721  139.5441  151.8304 H   0  0  0  0  0  0  0  0  0  0  0  0
  145.5703  140.3167  153.2722 H   0  0  0  0  0  0  0  0  0  0  0  0
  146.5382  143.2576  154.5845 H   0  0  0  0  0  0  0  0  0  0  0  0
  145.2592  142.1478  154.1403 H   0  0  0  0  0  0  0  0  0  0  0  0
  149.8225  138.8996  152.5253 H   0  0  0  0  0  0  0  0  0  0  0  0
  150.3401  137.2726  154.8684 H   0  0  0  0  0  0  0  0  0  0  0  0
  151.5037  137.9616  153.7597 H   0  0  0  0  0  0  0  0  0  0  0  0
  149.3253  140.5926  154.9747 H   0  0  0  0  0  0  0  0  0  0  0  0
  150.0209  142.2581  156.6666 H   0  0  0  0  0  0  0  0  0  0  0  0
  151.3902  141.3296  160.0620 H   0  0  0  0  0  0  0  0  0  0  0  0
  152.9589  140.6569  159.6366 H   0  0  0  0  0  0  0  0  0  0  0  0
  153.1218  142.3045  161.5312 H   0  0  0  0  0  0  0  0  0  0  0  0
  154.0895  142.7995  160.1555 H   0  0  0  0  0  0  0  0  0  0  0  0
  151.7237  145.3176  159.1268 H   0  0  0  0  0  0  0  0  0  0  0  0
  153.2669  144.5822  158.7398 H   0  0  0  0  0  0  0  0  0  0  0  0
  151.5282  143.7564  157.1820 H   0  0  0  0  0  0  0  0  0  0  0  0
  150.5004  143.2587  158.5095 H   0  0  0  0  0  0  0  0  0  0  0  0
  152.7952  138.2543  156.0516 H   0  0  0  0  0  0  0  0  0  0  0  0
  1  2  1  0  0  0  0
  1 23  1  0  0  0  0
  1 24  1  0  0  0  0
  1 25  1  0  0  0  0
  2  3  1  0  0  0  0
  2  7  1  0  0  0  0
  2 26  1  0  0  0  0
  3  4  1  0  0  0  0
  3 27  1  0  0  0  0
  4  5  1  0  0  0  0
  4  6  2  0  0  0  0
  5 28  1  0  0  0  0
  5 29  1  0  0  0  0
  7  8  2  0  0  0  0
  7  9  1  0  0  0  0
  9 10  1  0  0  0  0
  9 30  1  0  0  0  0
 10 11  1  0  0  0  0
 10 31  1  0  0  0  0
 10 32  1  0  0  0  0
 11 22  1  0  0  0  0
 11 12  2  0  0  0  0
 12 13  1  0  0  0  0
 12 33  1  0  0  0  0
 13 14  2  0  0  0  0
 13 34  1  0  0  0  0
 14 15  1  0  0  0  0
 14 21  1  0  0  0  0
 15 20  1  0  0  0  0
 15 16  1  0  0  0  0
 16 17  1  0  0  0  0
 16 35  1  0  0  0  0
 16 36  1  0  0  0  0
 17 18  1  0  0  0  0
 17 37  1  0  0  0  0
 17 38  1  0  0  0  0
 18 19  1  0  0  0  0
 19 20  1  0  0  0  0
 19 39  1  0  0  0  0
 19 40  1  0  0  0  0
 20 41  1  0  0  0  0
 20 42  1  0  0  0  0
 21 22  2  0  0  0  0
 22 43  1  0  0  0  0
M  END
> <s_m_source_file>
AV-unprocessed.smi

> <i_m_source_file_index>
337

> <i_lp_mmshare_version>
43012

> <i_f3d_flags>
0

> <s_epik_input>
W05IMl1DKD1PKVtOSF1bQ0BASF0oW0NIM10pQyg9TylbTkhdW0NIMl1jMVtjSF1bY0hdYyhuW2NIXTEpTjJbQ0gyXVtDSDJdT1tDSDJdW0NIMl0y

> <s_epik_cmdline>
J2VwaWtfcHl0aG9uJywgJy1waCcsICc3LjAnLCAnLXRuJywgJzgnLCAnLW1hJywgJzIwMCcsICctbWV0YWxfYmluZGluZycsICctaW1hZScsICc8aW5maWxlLm1hZT4nLCAnLW9tYWUnLCAnPG91dGZpbGUubWFlPic=

> <r_lp_tautomer_probability>
1

> <r_epik_Ionization_Penalty>
0.0048357

> <r_epik_Ionization_Penalty_Charging>
0

> <r_epik_Ionization_Penalty_Neutral>
0.0048357

> <r_epik_State_Penalty>
0.0034696

> <r_epik_Charging_Adjusted_Penalty>
0.0034696

> <i_epik_Tot_Q>
0

> <i_epik_Tot_abs_Q>
0

> <r_epik_Metal_State_Penalty>
-0

> <b_epik_Metal_Only>
0

> <s_lp_Force_Field>
OPLS_2005

> <r_lp_Energy>
9.87941

> <b_lp_Chiralities_Consistent>
1

> <s_lp_Variant>
AV-unprocessed.smi:337-2

> <Gold.Version>
5.8.1

> <Gold.Id.Protein>
6NUR|6NUR_protein|mol2

> <Gold.PLP.Fitness>
52.8923

> <Gold.PLP.PLP>
-43.2300

> <Gold.PLP.part.hbond>
-5.0000

> <Gold.PLP.part.metal>
0.0000

> <Gold.PLP.part.buried>
-4.4675

> <Gold.PLP.part.nonpolar>
-34.7233

> <Gold.PLP.part.repulsive>
0.4887

> <Gold.PLP.ligand.clash>
0.0000

> <Gold.PLP.ligand.torsion>
0.4308

> <Gold.PLP.Chemscore.Hbond>
3.3801

> <Gold.PLP.Chemscore.CHOScore>
0.0000

> <Gold.PLP.Chemscore.Metal>
0.0000

> <Gold.Chemscore.Hbonds>
donor molecule, donor type, donor heavy atom, donor atom, acceptor molecule, acceptor atom, score
      L1  H     3    27       P1 10175  0.94
      L1  H     9    30       P1  7957  1.00
      P1  H  7997  8009       L1    21  0.95
      P1  H  8011  8017       L1     6  0.39

> <Gold.PLP.Chemscore.Internal.Correction>
0.3835

> <Gold.Rescore>
     Score         DG    S(hbond)    S(metal)    S(lipo)     H(rot)  DE(clash)    DE(int)     intcor
     17.11     -18.58       2.59        0.00      96.33       2.66       0.48       1.00       ----

> <Gold.Chemscore.Fitness>
17.1099

> <Gold.Chemscore.DG>
-18.5819

> <Gold.Chemscore.ZeroCoef>
-5.4800

> <Gold.Chemscore.Hbond>
2.5850

> <Gold.Chemscore.Metal>
0.0000

> <Gold.Chemscore.Lipo>
96.3309

> <Gold.Chemscore.Internal_Hbond>
0.0000

> <Gold.Chemscore.DEClash>
0.4759

> <Gold.Chemscore.DEInternal>
0.9961

> <Gold.Chemscore.Rot>
2.6573

> <Gold.Chemscore.Internal.Correction>
   9.000000E+99

> <Gold.Chemscore.Hbonds>
donor molecule, donor type, donor heavy atom, donor atom, acceptor molecule, acceptor atom, score
      L1  H     3    27       P1 10175  0.86
      L1  H     9    30       P1  7957  0.62
      P1  H  7997  8009       L1    21  0.21
      P1  H  8011  8017       L1     6  0.39

> <Gold.Chemscore.Hbond.Weighted>
-8.6339

> <Gold.Chemscore.Metal.Weighted>
-0.0000

> <Gold.Chemscore.Lipo.Weighted>
-11.2707

> <Gold.Chemscore.Internal_Hbond.Weighted>
0.0000

> <Gold.Chemscore.DEClash.Weighted>
0.4759

> <Gold.Chemscore.DEInternal.Weighted>
0.9961

> <Gold.Chemscore.Rot.Weighted>
6.8027

> <Gold.Chemscore.Internal.Correction.Weighted>
   9.000000E+99

> <Gold.Protein.RotatedTorsions>
[ 6907 6896 6895 6894 ] final  -54.93 input  -60.11 | X-H torsion
[ 7974 7965 7964 7962 ] final  -30.26 input  175.53 | X-H torsion
[ 8008 7997 7996 7995 ] final  176.56 input   59.86 | X-H torsion
[ 10167 10162 10161 10158 ] final -114.48 input  -65.29 | X-H torsion
[ 10718 10713 10712 10709 ] final -176.06 input   66.30 | X-H torsion
[ 10763 10752 10751 10750 ] final  -41.15 input  -60.55 | X-H torsion
[ 11005 11000 10999 10996 ] final -160.28 input  -57.11 | X-H torsion

> <Gold.Protein.ActiveResidues>
 VAL166  LYS551  ARG553  GLY616  TRP617  ASP618  TYR619  PRO620  LYS621  CYS622 
 ASP623  PHE694  ASN695  SER759  ASP760  ASP761  ALA762  ILE779  LEU786  VAL792 
 PHE793  MET794  SER795  GLU796  ALA797  LYS798  CYS799  TRP800  GLU811  SER814 

> <Gold.Protein.RotatedAtoms>
  150.8295  134.7542  159.6841 H   0  0  0  0  0  0  0  0  0  0  0  0  # atno 6907 bound_to 6896
  152.4402  134.5603  159.9902 H   0  0  0  0  0  0  0  0  0  0  0  0  # atno 6908 bound_to 6896
  151.5767  133.3345  159.3036 H   0  0  0  0  0  0  0  0  0  0  0  0  # atno 6909 bound_to 6896
  146.1156  140.5518  142.8758 H   0  0  0  0  0  0  0  0  0  0  0  0  # atno 7974 bound_to 7965
  156.0751  140.1380  156.9781 H   0  0  0  0  0  0  0  0  0  0  0  0  # atno 8008 bound_to 7997
  154.4553  140.0963  156.6790 H   0  0  0  0  0  0  0  0  0  0  0  0  # atno 8009 bound_to 7997
  155.5165  140.3455  155.4400 H   0  0  0  0  0  0  0  0  0  0  0  0  # atno 8010 bound_to 7997
  140.1005  143.4617  152.1815 H   0  0  0  0  0  0  0  0  0  0  0  0  # atno 10167 bound_to 10162
  156.8090  130.9579  151.3116 H   0  0  0  0  0  0  0  0  0  0  0  0  # atno 10718 bound_to 10713
  153.9577  135.6743  153.4745 H   0  0  0  0  0  0  0  0  0  0  0  0  # atno 10763 bound_to 10752
  153.0853  135.4902  154.8582 H   0  0  0  0  0  0  0  0  0  0  0  0  # atno 10764 bound_to 10752
  154.7290  135.3134  154.8882 H   0  0  0  0  0  0  0  0  0  0  0  0  # atno 10765 bound_to 10752
  140.6333  134.4628  157.5230 H   0  0  0  0  0  0  0  0  0  0  0  0  # atno 11005 bound_to 11000
  144.7550  140.5284  143.6775 LP  0  0  0  0  0  0  0  0  0  0  0  0  # atno 17320 bound_to 7965
  145.5574  139.1478  143.3360 LP  0  0  0  0  0  0  0  0  0  0  0  0  # atno 17321 bound_to 7965
  139.5674  144.7443  151.3985 LP  0  0  0  0  0  0  0  0  0  0  0  0  # atno 17342 bound_to 10162
  140.6980  143.7701  150.7357 LP  0  0  0  0  0  0  0  0  0  0  0  0  # atno 17343 bound_to 10162
  157.6515  130.8889  149.9643 LP  0  0  0  0  0  0  0  0  0  0  0  0  # atno 17370 bound_to 10713
  156.1056  130.3653  150.0140 LP  0  0  0  0  0  0  0  0  0  0  0  0  # atno 17371 bound_to 10713
  139.9108  134.8350  156.1537 LP  0  0  0  0  0  0  0  0  0  0  0  0  # atno 17394 bound_to 11000
  141.0660  133.6819  156.2045 LP  0  0  0  0  0  0  0  0  0  0  0  0  # atno 17395 bound_to 11000

$$$$
