AV-unprocessed.smi:1831|AV-procd|sdf|7463|dock3
  -GOLD-   22720 9153D 1   1.00000     0.00000
 Structure written by MMmdl.
 40 41  0  0  0  0  0  0  0  0  3 V2000
  145.4949  134.6397  162.7042 C   0  0  0  0  0  0  0  0  0  0  0  0
  146.4426  135.3029  161.7647 C   0  0  0  0  0  0  0  0  0  0  0  0
  146.8079  136.5812  161.8877 N   0  0  0  0  0  0  0  0  0  0  0  0
  147.6979  136.9684  160.8965 N   0  0  0  0  0  0  0  0  0  0  0  0
  148.0017  135.9776  160.0467 C   0  0  0  0  0  0  0  0  0  0  0  0
  148.8472  136.1460  159.0166 N   0  5  0  0  0  0  0  0  0  0  0  0
  149.7827  137.1196  159.0665 C   0  0  0  0  0  0  0  0  0  0  0  0
  150.8829  137.0468  159.6206 O   0  0  0  0  0  0  0  0  0  0  0  0
  149.4352  138.2392  158.4136 N   0  0  0  0  0  0  0  0  0  0  0  0
  150.2563  139.4397  158.2810 C   0  0  0  0  0  0  0  0  0  0  0  0
  149.4408  140.6819  157.8499 C   0  0  1  0  0  0  0  0  0  0  0  0
  150.3536  141.7778  157.2963 C   0  0  0  0  0  0  0  0  0  0  0  0
  150.4264  141.5071  155.7845 C   0  0  0  0  0  0  0  0  0  0  0  0
  149.3746  140.5072  155.4729 N   0  3  2  0  0  0  0  0  0  0  0  0
  148.6819  140.6871  154.1670 C   0  0  0  0  0  0  0  0  0  0  0  0
  147.8177  141.9626  154.1543 C   0  0  0  0  0  0  0  0  0  0  0  0
  147.8023  139.4672  153.8357 C   0  0  0  0  0  0  0  0  0  0  0  0
  148.5011  140.4487  156.6620 C   0  0  0  0  0  0  0  0  0  0  0  0
  147.1747  134.4624  160.4085 S   0  0  0  0  0  0  0  0  0  0  0  0
  146.0433  134.2083  163.5415 H   0  0  0  0  0  0  0  0  0  0  0  0
  144.9518  133.8446  162.1932 H   0  0  0  0  0  0  0  0  0  0  0  0
  144.7738  135.3611  163.0897 H   0  0  0  0  0  0  0  0  0  0  0  0
  148.5261  138.2555  157.9743 H   0  0  0  0  0  0  0  0  0  0  0  0
  150.7163  139.6307  159.2508 H   0  0  0  0  0  0  0  0  0  0  0  0
  151.0849  139.2634  157.5931 H   0  0  0  0  0  0  0  0  0  0  0  0
  148.8774  141.0445  158.7107 H   0  0  0  0  0  0  0  0  0  0  0  0
  149.8947  142.7525  157.4677 H   0  0  0  0  0  0  0  0  0  0  0  0
  151.3370  141.7953  157.7681 H   0  0  0  0  0  0  0  0  0  0  0  0
  150.2762  142.4375  155.2352 H   0  0  0  0  0  0  0  0  0  0  0  0
  151.3983  141.1030  155.4997 H   0  0  0  0  0  0  0  0  0  0  0  0
  149.4408  140.7844  153.3892 H   0  0  0  0  0  0  0  0  0  0  0  0
  147.2629  142.0502  153.2199 H   0  0  0  0  0  0  0  0  0  0  0  0
  148.4210  142.8658  154.2460 H   0  0  0  0  0  0  0  0  0  0  0  0
  147.0931  141.9590  154.9697 H   0  0  0  0  0  0  0  0  0  0  0  0
  147.2789  139.6084  152.8897 H   0  0  0  0  0  0  0  0  0  0  0  0
  147.0495  139.3025  154.6075 H   0  0  0  0  0  0  0  0  0  0  0  0
  148.3870  138.5526  153.7406 H   0  0  0  0  0  0  0  0  0  0  0  0
  147.9357  139.5207  156.7243 H   0  0  0  0  0  0  0  0  0  0  0  0
  147.7746  141.2616  156.6116 H   0  0  0  0  0  0  0  0  0  0  0  0
  149.8398  139.6107  155.4392 H   0  0  0  0  0  0  0  0  0  0  0  0
  1  2  1  0  0  0  0
  1 20  1  0  0  0  0
  1 21  1  0  0  0  0
  1 22  1  0  0  0  0
  2 19  1  0  0  0  0
  2  3  2  0  0  0  0
  3  4  1  0  0  0  0
  4  5  2  0  0  0  0
  5  6  1  0  0  0  0
  5 19  1  0  0  0  0
  6  7  1  0  0  0  0
  7  8  2  0  0  0  0
  7  9  1  0  0  0  0
  9 10  1  0  0  0  0
  9 23  1  0  0  0  0
 10 11  1  0  0  0  0
 10 24  1  0  0  0  0
 10 25  1  0  0  0  0
 11 18  1  0  0  0  0
 11 12  1  0  0  0  0
 11 26  1  0  0  0  0
 12 13  1  0  0  0  0
 12 27  1  0  0  0  0
 12 28  1  0  0  0  0
 13 14  1  0  0  0  0
 13 29  1  0  0  0  0
 13 30  1  0  0  0  0
 14 15  1  0  0  0  0
 14 18  1  0  0  0  0
 14 40  1  0  0  0  0
 15 16  1  0  0  0  0
 15 17  1  0  0  0  0
 15 31  1  0  0  0  0
 16 32  1  0  0  0  0
 16 33  1  0  0  0  0
 16 34  1  0  0  0  0
 17 35  1  0  0  0  0
 17 36  1  0  0  0  0
 17 37  1  0  0  0  0
 18 38  1  0  0  0  0
 18 39  1  0  0  0  0
M  CHG  1   6  -1
M  CHG  1  14   1
M  END
> <s_m_source_file>
AV-unprocessed.smi

> <i_m_source_file_index>
1831

> <i_lp_mmshare_version>
43012

> <i_f3d_flags>
0

> <s_epik_input>
W0NIM11jMW5uYyhzMSlbTkhdQyg9TylbTkhdW0NIMl1bQ0BASF0yW0NIMl1bQ0gyXU4oW0NIMl0yKVtDSF0oW0NIM10pW0NIM10=

> <s_epik_cmdline>
J2VwaWtfcHl0aG9uJywgJy1waCcsICc3LjAnLCAnLXRuJywgJzgnLCAnLW1hJywgJzIwMCcsICctbWV0YWxfYmluZGluZycsICctaW1hZScsICc8aW5maWxlLm1hZT4nLCAnLW9tYWUnLCAnPG91dGZpbGUubWFlPic=

> <r_lp_tautomer_probability>
1

> <r_epik_Ionization_Penalty>
4.24531

> <r_epik_Ionization_Penalty_Charging>
4.11954

> <r_epik_Ionization_Penalty_Neutral>
0.125766

> <r_epik_State_Penalty>
4.11879

> <r_epik_Charging_Adjusted_Penalty>
8.23833

> <i_epik_Tot_Q>
0

> <i_epik_Tot_abs_Q>
2

> <r_epik_Metal_State_Penalty>
0.659341

> <b_epik_Metal_Only>
1

> <s_lp_Force_Field>
OPLS_2005

> <r_lp_Energy>
23.48

> <b_lp_Chiralities_Consistent>
1

> <s_lp_Variant>
AV-unprocessed.smi:1831-8

> <Gold.Version>
5.8.1

> <Gold.Id.Protein>
6NUR|6NUR_protein|mol2

> <Gold.PLP.Fitness>
35.7300

> <Gold.PLP.PLP>
-30.2823

> <Gold.PLP.part.hbond>
-3.1037

> <Gold.PLP.part.metal>
0.0000

> <Gold.PLP.part.buried>
-4.6181

> <Gold.PLP.part.nonpolar>
-23.2301

> <Gold.PLP.part.repulsive>
0.2633

> <Gold.PLP.ligand.clash>
0.0000

> <Gold.PLP.ligand.torsion>
1.1442

> <Gold.PLP.Chemscore.Hbond>
2.5345

> <Gold.PLP.Chemscore.CHOScore>
0.0000

> <Gold.PLP.Chemscore.Metal>
0.0000

> <Gold.Chemscore.Hbonds>
donor molecule, donor type, donor heavy atom, donor atom, acceptor molecule, acceptor atom, score
      P1  H  6896  6908       L1     8  1.00
      P1  H  6931  6943       L1     4  0.78
      P1  H  6934  6947       L1     4  0.58

> <Gold.PLP.Chemscore.Internal.Correction>
0.1327

> <Gold.Rescore>
     Score         DG    S(hbond)    S(metal)    S(lipo)     H(rot)  DE(clash)    DE(int)     intcor
     14.95     -16.27       2.26        0.00      60.80       1.51       0.26       1.06       ----

> <Gold.Chemscore.Fitness>
14.9536

> <Gold.Chemscore.DG>
-16.2666

> <Gold.Chemscore.ZeroCoef>
-5.4800

> <Gold.Chemscore.Hbond>
2.2595

> <Gold.Chemscore.Metal>
0.0000

> <Gold.Chemscore.Lipo>
60.7990

> <Gold.Chemscore.Internal_Hbond>
0.0000

> <Gold.Chemscore.DEClash>
0.2555

> <Gold.Chemscore.DEInternal>
1.0575

> <Gold.Chemscore.Rot>
1.5131

> <Gold.Chemscore.Internal.Correction>
   9.000000E+99

> <Gold.Chemscore.Hbonds>
donor molecule, donor type, donor heavy atom, donor atom, acceptor molecule, acceptor atom, score
      P1  H  6896  6908       L1     8  0.73
      P1  H  6931  6943       L1     4  0.33
      P1  H  6934  6947       L1     4  0.08

> <Gold.Chemscore.Hbond.Weighted>
-7.5466

> <Gold.Chemscore.Metal.Weighted>
-0.0000

> <Gold.Chemscore.Lipo.Weighted>
-7.1135

> <Gold.Chemscore.Internal_Hbond.Weighted>
0.0000

> <Gold.Chemscore.DEClash.Weighted>
0.2555

> <Gold.Chemscore.DEInternal.Weighted>
1.0575

> <Gold.Chemscore.Rot.Weighted>
3.8735

> <Gold.Chemscore.Internal.Correction.Weighted>
   9.000000E+99

> <Gold.Protein.RotatedTorsions>
[ 6907 6896 6895 6894 ] final -132.30 input  -60.11 | X-H torsion
[ 7974 7965 7964 7962 ] final -133.28 input  175.53 | X-H torsion
[ 8008 7997 7996 7995 ] final  -69.59 input   59.86 | X-H torsion
[ 10167 10162 10161 10158 ] final  101.61 input  -65.29 | X-H torsion
[ 10718 10713 10712 10709 ] final  -37.38 input   66.30 | X-H torsion
[ 10763 10752 10751 10750 ] final -169.93 input  -60.55 | X-H torsion
[ 11005 11000 10999 10996 ] final -104.49 input  -57.11 | X-H torsion

> <Gold.Protein.ActiveResidues>
 VAL166  LYS551  ARG553  GLY616  TRP617  ASP618  TYR619  PRO620  LYS621  CYS622 
 ASP623  PHE694  ASN695  SER759  ASP760  ASP761  ALA762  ILE779  LEU786  VAL792 
 PHE793  MET794  SER795  GLU796  ALA797  LYS798  CYS799  TRP800  GLU811  SER814 

> <Gold.Protein.RotatedAtoms>
  150.9608  133.6447  159.2754 H   0  0  0  0  0  0  0  0  0  0  0  0  # atno 6907 bound_to 6896
  151.3770  135.0932  159.9493 H   0  0  0  0  0  0  0  0  0  0  0  0  # atno 6908 bound_to 6896
  152.5147  133.9151  159.7561 H   0  0  0  0  0  0  0  0  0  0  0  0  # atno 6909 bound_to 6896
  144.9208  140.7011  143.4967 H   0  0  0  0  0  0  0  0  0  0  0  0  # atno 7974 bound_to 7965
  154.4950  140.0850  156.7677 H   0  0  0  0  0  0  0  0  0  0  0  0  # atno 8008 bound_to 7997
  155.4139  140.3442  155.4247 H   0  0  0  0  0  0  0  0  0  0  0  0  # atno 8009 bound_to 7997
  156.1381  140.1521  156.8950 H   0  0  0  0  0  0  0  0  0  0  0  0  # atno 8010 bound_to 7997
  139.7423  144.7008  151.0557 H   0  0  0  0  0  0  0  0  0  0  0  0  # atno 10167 bound_to 10162
  156.3159  130.4259  149.8006 H   0  0  0  0  0  0  0  0  0  0  0  0  # atno 10718 bound_to 10713
  154.6470  135.2906  155.0033 H   0  0  0  0  0  0  0  0  0  0  0  0  # atno 10763 bound_to 10752
  154.1139  135.6558  153.4894 H   0  0  0  0  0  0  0  0  0  0  0  0  # atno 10764 bound_to 10752
  153.0356  135.5272  154.7362 H   0  0  0  0  0  0  0  0  0  0  0  0  # atno 10765 bound_to 10752
  141.1098  133.8727  157.1617 H   0  0  0  0  0  0  0  0  0  0  0  0  # atno 11005 bound_to 11000
  145.3300  139.1762  143.4542 LP  0  0  0  0  0  0  0  0  0  0  0  0  # atno 17320 bound_to 7965
  146.3203  140.3328  142.8641 LP  0  0  0  0  0  0  0  0  0  0  0  0  # atno 17321 bound_to 7965
  140.7787  143.4909  150.9894 LP  0  0  0  0  0  0  0  0  0  0  0  0  # atno 17342 bound_to 10162
  139.8598  143.7330  152.3174 LP  0  0  0  0  0  0  0  0  0  0  0  0  # atno 17343 bound_to 10162
  156.5332  130.8267  151.3244 LP  0  0  0  0  0  0  0  0  0  0  0  0  # atno 17370 bound_to 10713
  157.7401  130.9844  150.2358 LP  0  0  0  0  0  0  0  0  0  0  0  0  # atno 17371 bound_to 10713
  139.9986  135.0037  157.0139 LP  0  0  0  0  0  0  0  0  0  0  0  0  # atno 17394 bound_to 11000
  140.4805  134.1294  155.7216 LP  0  0  0  0  0  0  0  0  0  0  0  0  # atno 17395 bound_to 11000

$$$$
