AV-unprocessed.smi:1479|AV-procd|sdf|5983|dock4
  -GOLD-   22720 6 73D 1   1.00000     0.00000
 Structure written by MMmdl.
 40 41  0  0  0  0  0  0  0  0  1 V2000
  144.8782  137.0810  161.4711 C   0  0  0  0  0  0  0  0  0  0  0  0
  146.5070  136.3732  161.9479 S   0  0  0  0  0  0  0  0  0  0  0  0
  147.4418  137.4841  162.1833 O   0  0  0  0  0  0  0  0  0  0  0  0
  146.2906  135.3713  163.0029 O   0  0  0  0  0  0  0  0  0  0  0  0
  147.0052  135.4949  160.4010 C   0  0  0  0  0  0  0  0  0  0  0  0
  148.1853  136.1860  159.7020 C   0  0  0  0  0  0  0  0  0  0  0  0
  148.1360  135.9533  158.2678 N   0  0  0  0  0  0  0  0  0  0  0  0
  149.4521  136.1549  157.6855 C   0  0  0  0  0  0  0  0  0  0  0  0
  150.0276  137.5139  158.0266 C   0  0  0  0  0  0  0  0  0  0  0  0
  150.8738  137.7081  159.1372 C   0  0  0  0  0  0  0  0  0  0  0  0
  151.3897  138.9208  159.4304 N   0  0  0  0  0  0  0  0  0  0  0  0
  151.0749  139.9473  158.6283 C   0  0  0  0  0  0  0  0  0  0  0  0
  151.6134  141.2029  158.9403 N   0  0  0  0  0  0  0  0  0  0  0  0
  152.6578  141.3680  159.9547 C   0  0  0  0  0  0  0  0  0  0  0  0
  152.5437  142.7394  160.6413 C   0  0  0  0  0  0  0  0  0  0  0  0
  152.5682  143.7715  159.6635 O   0  0  0  0  0  0  0  0  0  0  0  0
  151.4700  143.6658  158.7663 C   0  0  0  0  0  0  0  0  0  0  0  0
  151.5439  142.3304  158.0071 C   0  0  0  0  0  0  0  0  0  0  0  0
  150.2828  139.8614  157.5499 N   0  0  0  0  0  0  0  0  0  0  0  0
  149.7599  138.6547  157.2445 C   0  0  0  0  0  0  0  0  0  0  0  0
  144.4676  137.6400  162.3118 H   0  0  0  0  0  0  0  0  0  0  0  0
  144.1936  136.2765  161.2037 H   0  0  0  0  0  0  0  0  0  0  0  0
  145.0052  137.7501  160.6203 H   0  0  0  0  0  0  0  0  0  0  0  0
  147.2895  134.4803  160.6797 H   0  0  0  0  0  0  0  0  0  0  0  0
  146.1378  135.4212  159.7442 H   0  0  0  0  0  0  0  0  0  0  0  0
  148.1684  137.2562  159.9122 H   0  0  0  0  0  0  0  0  0  0  0  0
  149.1245  135.7930  160.0930 H   0  0  0  0  0  0  0  0  0  0  0  0
  147.8445  134.9992  158.1097 H   0  0  0  0  0  0  0  0  0  0  0  0
  150.1413  135.3988  158.0644 H   0  0  0  0  0  0  0  0  0  0  0  0
  149.3984  136.0310  156.6033 H   0  0  0  0  0  0  0  0  0  0  0  0
  151.1390  136.8911  159.7921 H   0  0  0  0  0  0  0  0  0  0  0  0
  152.6101  140.5978  160.7240 H   0  0  0  0  0  0  0  0  0  0  0  0
  153.6306  141.2716  159.4712 H   0  0  0  0  0  0  0  0  0  0  0  0
  151.6288  142.8036  161.2329 H   0  0  0  0  0  0  0  0  0  0  0  0
  153.3770  142.8840  161.3288 H   0  0  0  0  0  0  0  0  0  0  0  0
  150.5290  143.7507  159.3124 H   0  0  0  0  0  0  0  0  0  0  0  0
  151.5058  144.4985  158.0637 H   0  0  0  0  0  0  0  0  0  0  0  0
  152.4285  142.3104  157.3698 H   0  0  0  0  0  0  0  0  0  0  0  0
  150.6786  142.2661  157.3481 H   0  0  0  0  0  0  0  0  0  0  0  0
  149.1255  138.6031  156.3720 H   0  0  0  0  0  0  0  0  0  0  0  0
  1  2  1  0  0  0  0
  1 21  1  0  0  0  0
  1 22  1  0  0  0  0
  1 23  1  0  0  0  0
  2  3  2  0  0  0  0
  2  4  2  0  0  0  0
  2  5  1  0  0  0  0
  5  6  1  0  0  0  0
  5 24  1  0  0  0  0
  5 25  1  0  0  0  0
  6  7  1  0  0  0  0
  6 26  1  0  0  0  0
  6 27  1  0  0  0  0
  7  8  1  0  0  0  0
  7 28  1  0  0  0  0
  8  9  1  0  0  0  0
  8 29  1  0  0  0  0
  8 30  1  0  0  0  0
  9 20  1  0  0  0  0
  9 10  2  0  0  0  0
 10 11  1  0  0  0  0
 10 31  1  0  0  0  0
 11 12  2  0  0  0  0
 12 13  1  0  0  0  0
 12 19  1  0  0  0  0
 13 18  1  0  0  0  0
 13 14  1  0  0  0  0
 14 15  1  0  0  0  0
 14 32  1  0  0  0  0
 14 33  1  0  0  0  0
 15 16  1  0  0  0  0
 15 34  1  0  0  0  0
 15 35  1  0  0  0  0
 16 17  1  0  0  0  0
 17 18  1  0  0  0  0
 17 36  1  0  0  0  0
 17 37  1  0  0  0  0
 18 38  1  0  0  0  0
 18 39  1  0  0  0  0
 19 20  2  0  0  0  0
 20 40  1  0  0  0  0
M  END
> <s_m_source_file>
AV-unprocessed.smi

> <i_m_source_file_index>
1479

> <i_lp_mmshare_version>
43012

> <i_f3d_flags>
0

> <s_epik_input>
W0NIM11TKD1PKSg9TylbQ0gyXVtDSDJdW05IXVtDSDJdYzFbY0hdbmMobltjSF0xKU4yW0NIMl1bQ0gyXU9bQ0gyXVtDSDJdMg==

> <s_epik_cmdline>
J2VwaWtfcHl0aG9uJywgJy1waCcsICc3LjAnLCAnLXRuJywgJzgnLCAnLW1hJywgJzIwMCcsICctbWV0YWxfYmluZGluZycsICctaW1hZScsICc8aW5maWxlLm1hZT4nLCAnLW9tYWUnLCAnPG91dGZpbGUubWFlPic=

> <r_lp_tautomer_probability>
1

> <r_epik_Ionization_Penalty>
0.401462

> <r_epik_Ionization_Penalty_Charging>
0

> <r_epik_Ionization_Penalty_Neutral>
0.401462

> <r_epik_State_Penalty>
0.400842

> <r_epik_Charging_Adjusted_Penalty>
0.400842

> <i_epik_Tot_Q>
0

> <i_epik_Tot_abs_Q>
0

> <r_epik_Metal_State_Penalty>
0.400839

> <b_epik_Metal_Only>
0

> <s_lp_Force_Field>
OPLS_2005

> <r_lp_Energy>
7.63479

> <b_lp_Chiralities_Consistent>
1

> <s_lp_Variant>
AV-unprocessed.smi:1479-1

> <Gold.Version>
5.8.1

> <Gold.Id.Protein>
6NUR|6NUR_protein|mol2

> <Gold.PLP.Fitness>
36.3265

> <Gold.PLP.PLP>
-34.8167

> <Gold.PLP.part.hbond>
-2.2576

> <Gold.PLP.part.metal>
0.0000

> <Gold.PLP.part.buried>
-7.6128

> <Gold.PLP.part.nonpolar>
-25.2260

> <Gold.PLP.part.repulsive>
0.0249

> <Gold.PLP.ligand.clash>
0.0000

> <Gold.PLP.ligand.torsion>
0.8573

> <Gold.PLP.Chemscore.Hbond>
1.0000

> <Gold.PLP.Chemscore.CHOScore>
0.0000

> <Gold.PLP.Chemscore.Metal>
0.0000

> <Gold.Chemscore.Hbonds>
donor molecule, donor type, donor heavy atom, donor atom, acceptor molecule, acceptor atom, score
      P1  H  6931  6943       L1     3  0.74
      P1  H  6934  6947       L1     3  0.56

> <Gold.PLP.Chemscore.Internal.Correction>
0.2245

> <Gold.Rescore>
     Score         DG    S(hbond)    S(metal)    S(lipo)     H(rot)  DE(clash)    DE(int)     intcor
     10.98     -11.77       0.96        0.00      71.84       2.08       0.05       0.75       ----

> <Gold.Chemscore.Fitness>
10.9778

> <Gold.Chemscore.DG>
-11.7721

> <Gold.Chemscore.ZeroCoef>
-5.4800

> <Gold.Chemscore.Hbond>
0.9621

> <Gold.Chemscore.Metal>
0.0000

> <Gold.Chemscore.Lipo>
71.8447

> <Gold.Chemscore.Internal_Hbond>
0.0000

> <Gold.Chemscore.DEClash>
0.0484

> <Gold.Chemscore.DEInternal>
0.7459

> <Gold.Chemscore.Rot>
2.0810

> <Gold.Chemscore.Internal.Correction>
   9.000000E+99

> <Gold.Chemscore.Hbonds>
donor molecule, donor type, donor heavy atom, donor atom, acceptor molecule, acceptor atom, score
      P1  H  6931  6943       L1     3  0.74
      P1  H  6934  6947       L1     3  0.48

> <Gold.Chemscore.Hbond.Weighted>
-3.2136

> <Gold.Chemscore.Metal.Weighted>
-0.0000

> <Gold.Chemscore.Lipo.Weighted>
-8.4058

> <Gold.Chemscore.Internal_Hbond.Weighted>
0.0000

> <Gold.Chemscore.DEClash.Weighted>
0.0484

> <Gold.Chemscore.DEInternal.Weighted>
0.7459

> <Gold.Chemscore.Rot.Weighted>
5.3273

> <Gold.Chemscore.Internal.Correction.Weighted>
   9.000000E+99

> <Gold.Protein.RotatedTorsions>
[ 6907 6896 6895 6894 ] final   93.12 input  -60.11 | X-H torsion
[ 7974 7965 7964 7962 ] final  -74.90 input  175.53 | X-H torsion
[ 8008 7997 7996 7995 ] final  166.04 input   59.86 | X-H torsion
[ 10167 10162 10161 10158 ] final   89.24 input  -65.29 | X-H torsion
[ 10718 10713 10712 10709 ] final  -83.41 input   66.30 | X-H torsion
[ 10763 10752 10751 10750 ] final   71.38 input  -60.55 | X-H torsion
[ 11005 11000 10999 10996 ] final  176.93 input  -57.11 | X-H torsion

> <Gold.Protein.ActiveResidues>
 VAL166  LYS551  ARG553  GLY616  TRP617  ASP618  TYR619  PRO620  LYS621  CYS622 
 ASP623  PHE694  ASN695  SER759  ASP760  ASP761  ALA762  ILE779  LEU786  VAL792 
 PHE793  MET794  SER795  GLU796  ALA797  LYS798  CYS799  TRP800  GLU811  SER814 

> <Gold.Protein.RotatedAtoms>
  152.5453  134.1397  159.8473 H   0  0  0  0  0  0  0  0  0  0  0  0  # atno 6907 bound_to 6896
  151.1434  133.4948  159.2604 H   0  0  0  0  0  0  0  0  0  0  0  0  # atno 6908 bound_to 6896
  151.1548  135.0255  159.8739 H   0  0  0  0  0  0  0  0  0  0  0  0  # atno 6909 bound_to 6896
  145.6331  140.9332  143.1076 H   0  0  0  0  0  0  0  0  0  0  0  0  # atno 7974 bound_to 7965
  156.1751  140.1654  156.8377 H   0  0  0  0  0  0  0  0  0  0  0  0  # atno 8008 bound_to 7997
  154.5299  140.0759  156.8359 H   0  0  0  0  0  0  0  0  0  0  0  0  # atno 8009 bound_to 7997
  155.3430  140.3385  155.4241 H   0  0  0  0  0  0  0  0  0  0  0  0  # atno 8010 bound_to 7997
  139.8592  144.6553  150.9078 H   0  0  0  0  0  0  0  0  0  0  0  0  # atno 10167 bound_to 10162
  156.0019  130.4665  150.4253 H   0  0  0  0  0  0  0  0  0  0  0  0  # atno 10718 bound_to 10713
  153.0395  135.5139  154.7584 H   0  0  0  0  0  0  0  0  0  0  0  0  # atno 10763 bound_to 10752
  154.6533  135.2928  154.9962 H   0  0  0  0  0  0  0  0  0  0  0  0  # atno 10764 bound_to 10752
  154.0839  135.6660  153.4894 H   0  0  0  0  0  0  0  0  0  0  0  0  # atno 10765 bound_to 10752
  140.3785  134.6967  157.4436 H   0  0  0  0  0  0  0  0  0  0  0  0  # atno 11005 bound_to 11000
  144.7186  139.8109  143.7390 LP  0  0  0  0  0  0  0  0  0  0  0  0  # atno 17320 bound_to 7965
  146.1341  139.4383  143.0150 LP  0  0  0  0  0  0  0  0  0  0  0  0  # atno 17321 bound_to 7965
  140.7777  143.3759  151.1564 LP  0  0  0  0  0  0  0  0  0  0  0  0  # atno 17342 bound_to 10162
  139.7390  143.8954  152.3044 LP  0  0  0  0  0  0  0  0  0  0  0  0  # atno 17343 bound_to 10162
  157.2306  131.0503  151.2494 LP  0  0  0  0  0  0  0  0  0  0  0  0  # atno 17370 bound_to 10713
  157.3714  130.7183  149.6568 LP  0  0  0  0  0  0  0  0  0  0  0  0  # atno 17371 bound_to 10713
  140.0497  134.6149  155.8877 LP  0  0  0  0  0  0  0  0  0  0  0  0  # atno 17394 bound_to 11000
  141.1931  133.6578  156.5534 LP  0  0  0  0  0  0  0  0  0  0  0  0  # atno 17395 bound_to 11000

$$$$
