AV-unprocessed.smi:1128|AV-procd|sdf|4843|dock1
  -GOLD-   22720 3413D 1   1.00000     0.00000
 Structure written by MMmdl.
 38 39  0  0  0  0  0  0  0  0  1 V2000
  150.0750  141.6600  158.5397 O   0  0  0  0  0  0  0  0  0  0  0  0
  150.8831  141.0225  157.8652 C   0  0  0  0  0  0  0  0  0  0  0  0
  152.0594  140.5928  158.3428 N   0  0  0  0  0  0  0  0  0  0  0  0
  152.5401  140.8033  159.7047 C   0  0  0  0  0  0  0  0  0  0  0  0
  152.1591  142.1923  160.2586 C   0  0  1  0  0  0  0  0  0  0  0  0
  152.6851  142.4182  161.6962 C   0  0  0  0  0  0  0  0  0  0  0  0
  152.5754  143.8660  162.1400 C   0  0  0  0  0  0  0  0  0  0  0  0
  152.3446  144.8847  161.2955 C   0  0  0  0  0  0  0  0  0  0  0  0
  152.1756  144.7040  159.7987 C   0  0  0  0  0  0  0  0  0  0  0  0
  152.6433  143.3160  159.3228 C   0  0  0  0  0  0  0  0  0  0  0  0
  150.7356  140.6717  156.5742 N   0  0  0  0  0  0  0  0  0  0  0  0
  149.6656  140.9108  155.6945 C   0  0  0  0  0  0  0  0  0  0  0  0
  148.5599  141.6449  155.9871 C   0  0  0  0  0  0  0  0  0  0  0  0
  147.4915  141.8488  155.0230 C   0  0  0  0  0  0  0  0  0  0  0  0
  146.2333  142.6234  155.3831 C   0  0  0  0  0  0  0  0  0  0  0  0
  146.3102  143.1297  156.6145 F   0  0  0  0  0  0  0  0  0  0  0  0
  146.0303  143.6274  154.5300 F   0  0  0  0  0  0  0  0  0  0  0  0
  145.1748  141.8162  155.3314 F   0  0  0  0  0  0  0  0  0  0  0  0
  147.6393  141.2495  153.8271 C   0  0  0  0  0  0  0  0  0  0  0  0
  148.7733  140.4961  153.5169 N   0  0  0  0  0  0  0  0  0  0  0  0
  149.7987  140.2795  154.3707 C   0  0  0  0  0  0  0  0  0  0  0  0
  150.7601  139.5938  154.0241 O   0  0  0  0  0  0  0  0  0  0  0  0
  148.8141  140.0867  152.5946 H   0  0  0  0  0  0  0  0  0  0  0  0
  152.6679  140.0816  157.7203 H   0  0  0  0  0  0  0  0  0  0  0  0
  152.1146  140.0224  160.3356 H   0  0  0  0  0  0  0  0  0  0  0  0
  153.6223  140.6654  159.7366 H   0  0  0  0  0  0  0  0  0  0  0  0
  151.0699  142.2527  160.2903 H   0  0  0  0  0  0  0  0  0  0  0  0
  152.1305  141.7964  162.3999 H   0  0  0  0  0  0  0  0  0  0  0  0
  153.7328  142.1249  161.7704 H   0  0  0  0  0  0  0  0  0  0  0  0
  152.7025  144.0624  163.1945 H   0  0  0  0  0  0  0  0  0  0  0  0
  152.2611  145.8915  161.6778 H   0  0  0  0  0  0  0  0  0  0  0  0
  151.1224  144.8506  159.5578 H   0  0  0  0  0  0  0  0  0  0  0  0
  152.7326  145.4824  159.2767 H   0  0  0  0  0  0  0  0  0  0  0  0
  153.7329  143.2984  159.2764 H   0  0  0  0  0  0  0  0  0  0  0  0
  152.2903  143.1445  158.3053 H   0  0  0  0  0  0  0  0  0  0  0  0
  151.5158  140.1869  156.1548 H   0  0  0  0  0  0  0  0  0  0  0  0
  148.4315  142.1006  156.9548 H   0  0  0  0  0  0  0  0  0  0  0  0
  146.9123  141.2943  153.0296 H   0  0  0  0  0  0  0  0  0  0  0  0
  1  2  2  0  0  0  0
  2  3  1  0  0  0  0
  2 11  1  0  0  0  0
  3  4  1  0  0  0  0
  3 24  1  0  0  0  0
  4  5  1  0  0  0  0
  4 25  1  0  0  0  0
  4 26  1  0  0  0  0
  5 10  1  0  0  0  0
  5  6  1  0  0  0  0
  5 27  1  0  0  0  0
  6  7  1  0  0  0  0
  6 28  1  0  0  0  0
  6 29  1  0  0  0  0
  7  8  2  0  0  0  0
  7 30  1  0  0  0  0
  8  9  1  0  0  0  0
  8 31  1  0  0  0  0
  9 10  1  0  0  0  0
  9 32  1  0  0  0  0
  9 33  1  0  0  0  0
 10 34  1  0  0  0  0
 10 35  1  0  0  0  0
 11 12  1  0  0  0  0
 11 36  1  0  0  0  0
 12 21  1  0  0  0  0
 12 13  2  0  0  0  0
 13 14  1  0  0  0  0
 13 37  1  0  0  0  0
 14 15  1  0  0  0  0
 14 19  2  0  0  0  0
 15 16  1  0  0  0  0
 15 17  1  0  0  0  0
 15 18  1  0  0  0  0
 19 20  1  0  0  0  0
 19 38  1  0  0  0  0
 20 23  1  0  0  0  0
 20 21  1  0  0  0  0
 21 22  2  0  0  0  0
M  END
> <s_m_source_file>
AV-unprocessed.smi

> <i_m_source_file_index>
1128

> <i_lp_mmshare_version>
43012

> <i_f3d_flags>
0

> <s_epik_input>
Tz1jMVtuSF1bY0hdYyhDKEYpKEYpRilbY0hdYzFbTkhdQyg9TylbTkhdW0NIMl1bQ0BASF0yW0NIMl1bQ0hdPVtDSF1bQ0gyXVtDSDJdMg==

> <s_epik_cmdline>
J2VwaWtfcHl0aG9uJywgJy1waCcsICc3LjAnLCAnLXRuJywgJzgnLCAnLW1hJywgJzIwMCcsICctbWV0YWxfYmluZGluZycsICctaW1hZScsICc8aW5maWxlLm1hZT4nLCAnLW9tYWUnLCAnPG91dGZpbGUubWFlPic=

> <r_lp_tautomer_probability>
1

> <r_epik_Ionization_Penalty>
0.00381734

> <r_epik_Ionization_Penalty_Charging>
0.00379608

> <r_epik_Ionization_Penalty_Neutral>
2.12611e-05

> <r_epik_State_Penalty>
-0

> <r_epik_Charging_Adjusted_Penalty>
0.00379608

> <i_epik_Tot_Q>
0

> <i_epik_Tot_abs_Q>
0

> <r_epik_Metal_State_Penalty>
0.371155

> <b_epik_Metal_Only>
0

> <s_lp_Force_Field>
OPLS_2005

> <r_lp_Energy>
19.5554

> <b_lp_Chiralities_Consistent>
1

> <s_lp_Variant>
AV-unprocessed.smi:1128-2

> <Gold.Version>
5.8.1

> <Gold.Id.Protein>
6NUR|6NUR_protein|mol2

> <Gold.PLP.Fitness>
46.7021

> <Gold.PLP.PLP>
-41.5628

> <Gold.PLP.part.hbond>
-2.1989

> <Gold.PLP.part.metal>
0.0000

> <Gold.PLP.part.buried>
-3.9310

> <Gold.PLP.part.nonpolar>
-36.2773

> <Gold.PLP.part.repulsive>
0.7160

> <Gold.PLP.ligand.clash>
0.0000

> <Gold.PLP.ligand.torsion>
0.1994

> <Gold.PLP.Chemscore.Hbond>
1.8320

> <Gold.PLP.Chemscore.CHOScore>
0.0000

> <Gold.PLP.Chemscore.Metal>
0.0000

> <Gold.Chemscore.Hbonds>
donor molecule, donor type, donor heavy atom, donor atom, acceptor molecule, acceptor atom, score
      L1  H    20    23       P1  7957  0.93
      P1  H  7989  7998       L1    22  0.75

> <Gold.PLP.Chemscore.Internal.Correction>
0.0421

> <Gold.Rescore>
     Score         DG    S(hbond)    S(metal)    S(lipo)     H(rot)  DE(clash)    DE(int)     intcor
     14.31     -19.57       1.58        0.00     103.68       1.30       2.51       2.75       ----

> <Gold.Chemscore.Fitness>
14.3078

> <Gold.Chemscore.DG>
-19.5659

> <Gold.Chemscore.ZeroCoef>
-5.4800

> <Gold.Chemscore.Hbond>
1.5847

> <Gold.Chemscore.Metal>
0.0000

> <Gold.Chemscore.Lipo>
103.6824

> <Gold.Chemscore.Internal_Hbond>
0.0000

> <Gold.Chemscore.DEClash>
2.5063

> <Gold.Chemscore.DEInternal>
2.7518

> <Gold.Chemscore.Rot>
1.3038

> <Gold.Chemscore.Internal.Correction>
   9.000000E+99

> <Gold.Chemscore.Hbonds>
donor molecule, donor type, donor heavy atom, donor atom, acceptor molecule, acceptor atom, score
      L1  H    20    23       P1  7957  0.89
      P1  H  7989  7998       L1    22  0.09

> <Gold.Chemscore.Hbond.Weighted>
-5.2928

> <Gold.Chemscore.Metal.Weighted>
-0.0000

> <Gold.Chemscore.Lipo.Weighted>
-12.1308

> <Gold.Chemscore.Internal_Hbond.Weighted>
0.0000

> <Gold.Chemscore.DEClash.Weighted>
2.5063

> <Gold.Chemscore.DEInternal.Weighted>
2.7518

> <Gold.Chemscore.Rot.Weighted>
3.3377

> <Gold.Chemscore.Internal.Correction.Weighted>
   9.000000E+99

> <Gold.Protein.RotatedTorsions>
[ 6907 6896 6895 6894 ] final -176.33 input  -60.11 | X-H torsion
[ 7974 7965 7964 7962 ] final  -54.65 input  175.53 | X-H torsion
[ 8008 7997 7996 7995 ] final   30.66 input   59.86 | X-H torsion
[ 10167 10162 10161 10158 ] final  129.37 input  -65.29 | X-H torsion
[ 10718 10713 10712 10709 ] final  -17.87 input   66.30 | X-H torsion
[ 10763 10752 10751 10750 ] final   58.47 input  -60.55 | X-H torsion
[ 11005 11000 10999 10996 ] final   14.72 input  -57.11 | X-H torsion

> <Gold.Protein.ActiveResidues>
 VAL166  LYS551  ARG553  GLY616  TRP617  ASP618  TYR619  PRO620  LYS621  CYS622 
 ASP623  PHE694  ASN695  SER759  ASP760  ASP761  ALA762  ILE779  LEU786  VAL792 
 PHE793  MET794  SER795  GLU796  ALA797  LYS798  CYS799  TRP800  GLU811  SER814 

> <Gold.Protein.RotatedAtoms>
  151.6030  133.3354  159.3051 H   0  0  0  0  0  0  0  0  0  0  0  0  # atno 6907 bound_to 6896
  150.8197  134.7402  159.6773 H   0  0  0  0  0  0  0  0  0  0  0  0  # atno 6908 bound_to 6896
  152.4291  134.5817  160.0001 H   0  0  0  0  0  0  0  0  0  0  0  0  # atno 6909 bound_to 6896
  145.8832  140.8128  142.9829 H   0  0  0  0  0  0  0  0  0  0  0  0  # atno 7974 bound_to 7965
  155.0939  140.3223  155.4566 H   0  0  0  0  0  0  0  0  0  0  0  0  # atno 8008 bound_to 7997
  156.2735  140.2073  156.6012 H   0  0  0  0  0  0  0  0  0  0  0  0  # atno 8009 bound_to 7997
  154.6882  140.0519  157.0323 H   0  0  0  0  0  0  0  0  0  0  0  0  # atno 8010 bound_to 7997
  139.5481  144.6790  151.4410 H   0  0  0  0  0  0  0  0  0  0  0  0  # atno 10167 bound_to 10162
  156.5674  130.4741  149.6378 H   0  0  0  0  0  0  0  0  0  0  0  0  # atno 10718 bound_to 10713
  152.9871  135.5605  154.5558 H   0  0  0  0  0  0  0  0  0  0  0  0  # atno 10763 bound_to 10752
  154.4986  135.2796  155.1441 H   0  0  0  0  0  0  0  0  0  0  0  0  # atno 10764 bound_to 10752
  154.2881  135.6331  153.5427 H   0  0  0  0  0  0  0  0  0  0  0  0  # atno 10765 bound_to 10752
  140.4664  134.1075  155.7725 H   0  0  0  0  0  0  0  0  0  0  0  0  # atno 11005 bound_to 11000
  144.6728  140.1415  143.7436 LP  0  0  0  0  0  0  0  0  0  0  0  0  # atno 17320 bound_to 7965
  145.8998  139.2424  143.1500 LP  0  0  0  0  0  0  0  0  0  0  0  0  # atno 17321 bound_to 7965
  140.6735  143.8241  150.7029 LP  0  0  0  0  0  0  0  0  0  0  0  0  # atno 17342 bound_to 10162
  140.1672  143.4225  152.2026 LP  0  0  0  0  0  0  0  0  0  0  0  0  # atno 17343 bound_to 10162
  156.2744  130.7035  151.1842 LP  0  0  0  0  0  0  0  0  0  0  0  0  # atno 17370 bound_to 10713
  157.7355  131.0571  150.5464 LP  0  0  0  0  0  0  0  0  0  0  0  0  # atno 17371 bound_to 10713
  141.1597  133.8815  157.1880 LP  0  0  0  0  0  0  0  0  0  0  0  0  # atno 17394 bound_to 11000
  139.9913  135.0063  156.9980 LP  0  0  0  0  0  0  0  0  0  0  0  0  # atno 17395 bound_to 11000

$$$$
