AV-unprocessed.smi:516|AV-procd|sdf|2784|dock5
  -GOLD-   2262023253D 1   1.00000     0.00000
 Structure written by MMmdl.
 44 46  0  0  0  0  0  0  0  0  1 V2000
  148.3990  133.7245  159.0685 C   0  0  0  0  0  0  0  0  0  0  0  0
  149.3382  133.8850  158.0202 O   0  0  0  0  0  0  0  0  0  0  0  0
  148.9152  133.2738  156.8137 C   0  0  0  0  0  0  0  0  0  0  0  0
  149.7368  133.8497  155.6545 C   0  0  0  0  0  0  0  0  0  0  0  0
  149.3137  135.2019  155.3131 N   0  0  0  0  0  0  0  0  0  0  0  0
  148.1066  135.5985  154.8328 C   0  0  0  0  0  0  0  0  0  0  0  0
  146.9822  134.6434  154.5655 C   0  0  0  0  0  0  0  0  0  0  0  0
  146.4878  134.6797  153.1905 N   0  0  0  0  0  0  0  0  0  0  0  0
  145.4764  133.6579  152.9288 C   0  0  0  0  0  0  0  0  0  0  0  0
  144.9552  133.7271  151.4825 C   0  0  0  0  0  0  0  0  0  0  0  0
  144.4489  135.0313  151.2169 O   0  0  0  0  0  0  0  0  0  0  0  0
  145.4227  136.0508  151.4173 C   0  0  0  0  0  0  0  0  0  0  0  0
  145.9397  135.9906  152.8647 C   0  0  0  0  0  0  0  0  0  0  0  0
  148.0082  136.9135  154.6095 N   0  0  0  0  0  0  0  0  0  0  0  0
  149.2587  137.3888  154.9765 C   0  0  0  0  0  0  0  0  0  0  0  0
  150.0582  136.3766  155.3941 C   0  0  0  0  0  0  0  0  0  0  0  0
  151.4442  136.5916  155.8254 C   0  0  0  0  0  0  0  0  0  0  0  0
  152.1871  135.6849  156.1949 O   0  0  0  0  0  0  0  0  0  0  0  0
  151.8199  137.8927  155.7676 N   0  0  0  0  0  0  0  0  0  0  0  0
  151.0650  138.9607  155.3636 C   0  0  0  0  0  0  0  0  0  0  0  0
  151.5545  140.0897  155.3700 O   0  0  0  0  0  0  0  0  0  0  0  0
  149.7746  138.7141  154.9631 N   0  0  0  0  0  0  0  0  0  0  0  0
  148.8835  139.7855  154.5138 C   0  0  0  0  0  0  0  0  0  0  0  0
  152.7659  138.0978  156.0540 H   0  0  0  0  0  0  0  0  0  0  0  0
  148.7700  134.2110  159.9705 H   0  0  0  0  0  0  0  0  0  0  0  0
  148.2389  132.6698  159.2963 H   0  0  0  0  0  0  0  0  0  0  0  0
  147.4404  134.1770  158.8117 H   0  0  0  0  0  0  0  0  0  0  0  0
  149.0525  132.1930  156.8739 H   0  0  0  0  0  0  0  0  0  0  0  0
  147.8528  133.4635  156.6523 H   0  0  0  0  0  0  0  0  0  0  0  0
  150.7951  133.8541  155.9134 H   0  0  0  0  0  0  0  0  0  0  0  0
  149.6530  133.2162  154.7718 H   0  0  0  0  0  0  0  0  0  0  0  0
  147.3084  133.6335  154.8194 H   0  0  0  0  0  0  0  0  0  0  0  0
  146.1716  134.8818  155.2551 H   0  0  0  0  0  0  0  0  0  0  0  0
  145.8872  132.6641  153.1083 H   0  0  0  0  0  0  0  0  0  0  0  0
  144.6406  133.7795  153.6195 H   0  0  0  0  0  0  0  0  0  0  0  0
  145.7498  133.4874  150.7743 H   0  0  0  0  0  0  0  0  0  0  0  0
  144.1592  132.9980  151.3308 H   0  0  0  0  0  0  0  0  0  0  0  0
  146.2428  135.9255  150.7087 H   0  0  0  0  0  0  0  0  0  0  0  0
  144.9697  137.0216  151.2160 H   0  0  0  0  0  0  0  0  0  0  0  0
  145.1250  136.2317  153.5495 H   0  0  0  0  0  0  0  0  0  0  0  0
  146.7031  136.7564  153.0060 H   0  0  0  0  0  0  0  0  0  0  0  0
  149.3380  140.7767  154.5256 H   0  0  0  0  0  0  0  0  0  0  0  0
  147.9997  139.8250  155.1512 H   0  0  0  0  0  0  0  0  0  0  0  0
  148.5527  139.5905  153.4931 H   0  0  0  0  0  0  0  0  0  0  0  0
  1  2  1  0  0  0  0
  1 25  1  0  0  0  0
  1 26  1  0  0  0  0
  1 27  1  0  0  0  0
  2  3  1  0  0  0  0
  3  4  1  0  0  0  0
  3 28  1  0  0  0  0
  3 29  1  0  0  0  0
  4  5  1  0  0  0  0
  4 30  1  0  0  0  0
  4 31  1  0  0  0  0
  5 16  1  0  0  0  0
  5  6  1  0  0  0  0
  6  7  1  0  0  0  0
  6 14  2  0  0  0  0
  7  8  1  0  0  0  0
  7 32  1  0  0  0  0
  7 33  1  0  0  0  0
  8 13  1  0  0  0  0
  8  9  1  0  0  0  0
  9 10  1  0  0  0  0
  9 34  1  0  0  0  0
  9 35  1  0  0  0  0
 10 11  1  0  0  0  0
 10 36  1  0  0  0  0
 10 37  1  0  0  0  0
 11 12  1  0  0  0  0
 12 13  1  0  0  0  0
 12 38  1  0  0  0  0
 12 39  1  0  0  0  0
 13 40  1  0  0  0  0
 13 41  1  0  0  0  0
 14 15  1  0  0  0  0
 15 22  1  0  0  0  0
 15 16  2  0  0  0  0
 16 17  1  0  0  0  0
 17 18  2  0  0  0  0
 17 19  1  0  0  0  0
 19 24  1  0  0  0  0
 19 20  1  0  0  0  0
 20 21  2  0  0  0  0
 20 22  1  0  0  0  0
 22 23  1  0  0  0  0
 23 42  1  0  0  0  0
 23 43  1  0  0  0  0
 23 44  1  0  0  0  0
M  END
> <s_m_source_file>
AV-unprocessed.smi

> <i_m_source_file_index>
516

> <i_lp_mmshare_version>
43012

> <i_f3d_flags>
0

> <s_epik_input>
W0NIM11uMWMoPU8pW25IXWMoPU8pYyhjMTIpbihbQ0gyXVtDSDJdT1tDSDNdKWMobjIpW0NIMl1OM1tDSDJdW0NIMl1PW0NIMl1bQ0gyXTM=

> <s_epik_cmdline>
J2VwaWtfcHl0aG9uJywgJy1waCcsICc3LjAnLCAnLXRuJywgJzgnLCAnLW1hJywgJzIwMCcsICctbWV0YWxfYmluZGluZycsICctaW1hZScsICc8aW5maWxlLm1hZT4nLCAnLW9tYWUnLCAnPG91dGZpbGUubWFlPic=

> <r_epik_Ionization_Penalty>
0.0972048

> <r_epik_Ionization_Penalty_Charging>
0.000199653

> <r_epik_Ionization_Penalty_Neutral>
0.0970052

> <r_epik_State_Penalty>
0.0871068

> <r_epik_Charging_Adjusted_Penalty>
0.0873064

> <i_epik_Tot_Q>
0

> <i_epik_Tot_abs_Q>
0

> <r_epik_Metal_State_Penalty>
0.236525

> <b_epik_Metal_Only>
0

> <s_lp_Force_Field>
OPLS_2005

> <r_lp_Energy>
41.4517

> <b_lp_Chiralities_Consistent>
1

> <s_lp_Variant>
AV-unprocessed.smi:516-1

> <Gold.Version>
5.8.1

> <Gold.Id.Protein>
6NUR|6NUR_protein|mol2

> <Gold.PLP.Fitness>
32.2716

> <Gold.PLP.PLP>
-23.6448

> <Gold.PLP.part.hbond>
-3.0000

> <Gold.PLP.part.metal>
0.0000

> <Gold.PLP.part.buried>
-5.1431

> <Gold.PLP.part.nonpolar>
-17.6822

> <Gold.PLP.part.repulsive>
0.9581

> <Gold.PLP.ligand.clash>
0.0000

> <Gold.PLP.ligand.torsion>
0.1564

> <Gold.PLP.Chemscore.Hbond>
2.9760

> <Gold.PLP.Chemscore.CHOScore>
0.0000

> <Gold.PLP.Chemscore.Metal>
0.0000

> <Gold.Chemscore.Hbonds>
donor molecule, donor type, donor heavy atom, donor atom, acceptor molecule, acceptor atom, score
      P1  H  6896  6909       L1     2  0.45
      P1  H  7989  7998       L1    21  0.99
      P1  H 10752 10765       L1    18  1.00

> <Gold.PLP.Chemscore.Internal.Correction>
0.0117

> <Gold.Rescore>
     Score         DG    S(hbond)    S(metal)    S(lipo)     H(rot)  DE(clash)    DE(int)     intcor
     12.64     -14.28       2.89        0.00      37.28       2.04       0.02       1.61       ----

> <Gold.Chemscore.Fitness>
12.6416

> <Gold.Chemscore.DG>
-14.2762

> <Gold.Chemscore.ZeroCoef>
-5.4800

> <Gold.Chemscore.Hbond>
2.8939

> <Gold.Chemscore.Metal>
0.0000

> <Gold.Chemscore.Lipo>
37.2848

> <Gold.Chemscore.Internal_Hbond>
0.0000

> <Gold.Chemscore.DEClash>
0.0222

> <Gold.Chemscore.DEInternal>
1.6124

> <Gold.Chemscore.Rot>
2.0437

> <Gold.Chemscore.Internal.Correction>
   9.000000E+99

> <Gold.Chemscore.Hbonds>
donor molecule, donor type, donor heavy atom, donor atom, acceptor molecule, acceptor atom, score
      P1  H  6896  6909       L1     2  0.02
      P1  H  7989  7998       L1    21  0.72
      P1  H 10752 10765       L1    18  0.86

> <Gold.Chemscore.Hbond.Weighted>
-9.6658

> <Gold.Chemscore.Metal.Weighted>
-0.0000

> <Gold.Chemscore.Lipo.Weighted>
-4.3623

> <Gold.Chemscore.Internal_Hbond.Weighted>
0.0000

> <Gold.Chemscore.DEClash.Weighted>
0.0222

> <Gold.Chemscore.DEInternal.Weighted>
1.6124

> <Gold.Chemscore.Rot.Weighted>
5.2319

> <Gold.Chemscore.Internal.Correction.Weighted>
   9.000000E+99

> <Gold.Protein.RotatedTorsions>
[ 6907 6896 6895 6894 ] final   11.87 input  -60.11 | X-H torsion
[ 7974 7965 7964 7962 ] final  -71.03 input  175.53 | X-H torsion
[ 8008 7997 7996 7995 ] final  -36.14 input   59.86 | X-H torsion
[ 10167 10162 10161 10158 ] final -148.58 input  -65.29 | X-H torsion
[ 10718 10713 10712 10709 ] final -140.19 input   66.30 | X-H torsion
[ 10763 10752 10751 10750 ] final -129.11 input  -60.55 | X-H torsion
[ 11005 11000 10999 10996 ] final  126.85 input  -57.11 | X-H torsion

> <Gold.Protein.ActiveResidues>
 VAL166  LYS551  ARG553  GLY616  TRP617  ASP618  TYR619  PRO620  LYS621  CYS622 
 ASP623  PHE694  ASN695  SER759  ASP760  ASP761  ALA762  ILE779  LEU786  VAL792 
 PHE793  MET794  SER795  GLU796  ALA797  LYS798  CYS799  TRP800  GLU811  SER814 

> <Gold.Protein.RotatedAtoms>
  151.7613  135.0809  160.0345 H   0  0  0  0  0  0  0  0  0  0  0  0  # atno 6907 bound_to 6896
  152.3351  133.5998  159.5845 H   0  0  0  0  0  0  0  0  0  0  0  0  # atno 6908 bound_to 6896
  150.7445  133.9724  159.3592 H   0  0  0  0  0  0  0  0  0  0  0  0  # atno 6909 bound_to 6896
  145.6833  140.9180  143.0820 H   0  0  0  0  0  0  0  0  0  0  0  0  # atno 7974 bound_to 7965
  154.4079  140.1638  156.2326 H   0  0  0  0  0  0  0  0  0  0  0  0  # atno 8008 bound_to 7997
  155.9270  140.3417  155.6195 H   0  0  0  0  0  0  0  0  0  0  0  0  # atno 8009 bound_to 7997
  155.7153  140.0761  157.2344 H   0  0  0  0  0  0  0  0  0  0  0  0  # atno 8010 bound_to 7997
  139.7519  143.8505  152.2588 H   0  0  0  0  0  0  0  0  0  0  0  0  # atno 10167 bound_to 10162
  156.3195  130.7526  151.1620 H   0  0  0  0  0  0  0  0  0  0  0  0  # atno 10718 bound_to 10713
  154.8757  135.3906  154.3866 H   0  0  0  0  0  0  0  0  0  0  0  0  # atno 10763 bound_to 10752
  153.4607  135.7029  153.6057 H   0  0  0  0  0  0  0  0  0  0  0  0  # atno 10764 bound_to 10752
  153.4557  135.3823  155.2278 H   0  0  0  0  0  0  0  0  0  0  0  0  # atno 10765 bound_to 10752
  139.9477  134.9627  156.8768 H   0  0  0  0  0  0  0  0  0  0  0  0  # atno 11005 bound_to 11000
  144.7019  139.8725  143.7441 LP  0  0  0  0  0  0  0  0  0  0  0  0  # atno 17320 bound_to 7965
  146.0945  139.3936  143.0385 LP  0  0  0  0  0  0  0  0  0  0  0  0  # atno 17321 bound_to 7965
  139.8486  144.7175  150.9242 LP  0  0  0  0  0  0  0  0  0  0  0  0  # atno 17342 bound_to 10162
  140.7799  143.3919  151.1295 LP  0  0  0  0  0  0  0  0  0  0  0  0  # atno 17343 bound_to 10162
  157.7408  131.0511  150.5137 LP  0  0  0  0  0  0  0  0  0  0  0  0  # atno 17370 bound_to 10713
  156.5287  130.4179  149.6212 LP  0  0  0  0  0  0  0  0  0  0  0  0  # atno 17371 bound_to 10713
  140.5794  134.0367  155.7458 LP  0  0  0  0  0  0  0  0  0  0  0  0  # atno 17394 bound_to 11000
  141.1132  133.9582  157.2871 LP  0  0  0  0  0  0  0  0  0  0  0  0  # atno 17395 bound_to 11000

$$$$
