AV-unprocessed.smi:1137|AV-procd|sdf|4866|dock4
  -GOLD-   22720 3433D 1   1.00000     0.00000
 Structure written by MMmdl.
 18 18  0  0  0  0  0  0  0  0  3 V2000
  152.8236  139.1623  155.8906 O   0  0  0  0  0  0  0  0  0  0  0  0
  151.8558  139.8885  156.2064 C   0  0  0  0  0  0  0  0  0  0  0  0
  151.0343  140.3880  155.4048 O   0  5  0  0  0  0  0  0  0  0  0  0
  151.6498  140.1464  157.7056 C   0  0  1  0  0  0  0  0  0  0  0  0
  152.5888  139.4175  158.4758 O   0  0  0  0  0  0  0  0  0  0  0  0
  151.7491  141.6511  157.9125 C   0  0  0  0  0  0  0  0  0  0  0  0
  152.5957  142.1786  158.9135 C   0  0  0  0  0  0  0  0  0  0  0  0
  152.6645  143.5749  159.1000 C   0  0  0  0  0  0  0  0  0  0  0  0
  151.8814  144.4159  158.2832 C   0  0  0  0  0  0  0  0  0  0  0  0
  151.0800  143.8781  157.3380 N   0  3  0  0  0  0  0  0  0  0  0  0
  150.9878  142.5470  157.1271 C   0  0  0  0  0  0  0  0  0  0  0  0
  150.6541  139.8038  157.9916 H   0  0  0  0  0  0  0  0  0  0  0  0
  152.3564  139.4974  159.3877 H   0  0  0  0  0  0  0  0  0  0  0  0
  153.1828  141.5197  159.5369 H   0  0  0  0  0  0  0  0  0  0  0  0
  153.3056  143.9934  159.8618 H   0  0  0  0  0  0  0  0  0  0  0  0
  151.8689  145.4933  158.3592 H   0  0  0  0  0  0  0  0  0  0  0  0
  150.3048  142.2387  156.3486 H   0  0  0  0  0  0  0  0  0  0  0  0
  150.5163  144.5026  156.7607 H   0  0  0  0  0  0  0  0  0  0  0  0
  1  2  2  0  0  0  0
  2  3  1  0  0  0  0
  2  4  1  0  0  0  0
  4  5  1  0  0  0  0
  4  6  1  0  0  0  0
  4 12  1  0  0  0  0
  5 13  1  0  0  0  0
  6 11  1  0  0  0  0
  6  7  2  0  0  0  0
  7  8  1  0  0  0  0
  7 14  1  0  0  0  0
  8  9  2  0  0  0  0
  8 15  1  0  0  0  0
  9 10  1  0  0  0  0
  9 16  1  0  0  0  0
 10 11  2  0  0  0  0
 10 18  1  0  0  0  0
 11 17  1  0  0  0  0
M  CHG  1   3  -1
M  CHG  1  10   1
M  END
> <s_m_source_file>
AV-unprocessed.smi

> <i_m_source_file_index>
1137

> <i_lp_mmshare_version>
43012

> <i_f3d_flags>
0

> <s_epik_input>
Tz1DKFtPSF0pW0NASF0oW09IXSljMVtjSF1bY0hdW2NIXW5bY0hdMQ==

> <s_epik_cmdline>
J2VwaWtfcHl0aG9uJywgJy1waCcsICc3LjAnLCAnLXRuJywgJzgnLCAnLW1hJywgJzIwMCcsICctbWV0YWxfYmluZGluZycsICctaW1hZScsICc8aW5maWxlLm1hZT4nLCAnLW9tYWUnLCAnPG91dGZpbGUubWFlPic=

> <r_epik_Ionization_Penalty>
2.03958

> <r_epik_Ionization_Penalty_Charging>
2.03958

> <r_epik_Ionization_Penalty_Neutral>
5.11681e-08

> <r_epik_State_Penalty>
2.1712

> <r_epik_Charging_Adjusted_Penalty>
4.21078

> <i_epik_Tot_Q>
0

> <i_epik_Tot_abs_Q>
2

> <r_epik_Metal_State_Penalty>
6.24859

> <b_epik_Metal_Only>
0

> <s_lp_Force_Field>
OPLS_2005

> <r_lp_Energy>
7.29674

> <b_lp_Chiralities_Consistent>
1

> <s_lp_Variant>
AV-unprocessed.smi:1137-4

> <Gold.Version>
5.8.1

> <Gold.Id.Protein>
6NUR|6NUR_protein|mol2

> <Gold.PLP.Fitness>
40.2392

> <Gold.PLP.PLP>
-25.5966

> <Gold.PLP.part.hbond>
-3.0000

> <Gold.PLP.part.metal>
0.0000

> <Gold.PLP.part.buried>
-4.5429

> <Gold.PLP.part.nonpolar>
-18.4651

> <Gold.PLP.part.repulsive>
0.0440

> <Gold.PLP.ligand.clash>
0.0000

> <Gold.PLP.ligand.torsion>
0.1537

> <Gold.PLP.Chemscore.Hbond>
4.9760

> <Gold.PLP.Chemscore.CHOScore>
0.0000

> <Gold.PLP.Chemscore.Metal>
0.0000

> <Gold.Chemscore.Hbonds>
donor molecule, donor type, donor heavy atom, donor atom, acceptor molecule, acceptor atom, score
      L1  H    10    18       P1  8028  1.95
      P1  H  7989  7998       L1     3  0.93
      P1  H  7997  8009       L1     1  2.00

> <Gold.PLP.Chemscore.Internal.Correction>
0.0219

> <Gold.Rescore>
     Score         DG    S(hbond)    S(metal)    S(lipo)     H(rot)  DE(clash)    DE(int)     intcor
     14.27     -15.84       2.75        0.00      57.39       2.16       0.00       1.58       ----

> <Gold.Chemscore.Fitness>
14.2654

> <Gold.Chemscore.DG>
-15.8440

> <Gold.Chemscore.ZeroCoef>
-5.4800

> <Gold.Chemscore.Hbond>
2.7469

> <Gold.Chemscore.Metal>
0.0000

> <Gold.Chemscore.Lipo>
57.3923

> <Gold.Chemscore.Internal_Hbond>
0.0000

> <Gold.Chemscore.DEClash>
0.0000

> <Gold.Chemscore.DEInternal>
1.5786

> <Gold.Chemscore.Rot>
2.1584

> <Gold.Chemscore.Internal.Correction>
   9.000000E+99

> <Gold.Chemscore.Hbonds>
donor molecule, donor type, donor heavy atom, donor atom, acceptor molecule, acceptor atom, score
      L1  H    10    18       P1  8028  0.86
      P1  H  7989  7998       L1     3  0.83
      P1  H  7997  8009       L1     1  0.69

> <Gold.Chemscore.Hbond.Weighted>
-9.1747

> <Gold.Chemscore.Metal.Weighted>
-0.0000

> <Gold.Chemscore.Lipo.Weighted>
-6.7149

> <Gold.Chemscore.Internal_Hbond.Weighted>
0.0000

> <Gold.Chemscore.DEClash.Weighted>
0.0000

> <Gold.Chemscore.DEInternal.Weighted>
1.5786

> <Gold.Chemscore.Rot.Weighted>
5.5256

> <Gold.Chemscore.Internal.Correction.Weighted>
   9.000000E+99

> <Gold.Protein.RotatedTorsions>
[ 6907 6896 6895 6894 ] final -151.01 input  -60.11 | X-H torsion
[ 7974 7965 7964 7962 ] final -104.71 input  175.53 | X-H torsion
[ 8008 7997 7996 7995 ] final -141.98 input   59.86 | X-H torsion
[ 10167 10162 10161 10158 ] final  -41.95 input  -65.29 | X-H torsion
[ 10718 10713 10712 10709 ] final   -8.82 input   66.30 | X-H torsion
[ 10763 10752 10751 10750 ] final -176.27 input  -60.55 | X-H torsion
[ 11005 11000 10999 10996 ] final  109.11 input  -57.11 | X-H torsion

> <Gold.Protein.ActiveResidues>
 VAL166  LYS551  ARG553  GLY616  TRP617  ASP618  TYR619  PRO620  LYS621  CYS622 
 ASP623  PHE694  ASN695  SER759  ASP760  ASP761  ALA762  ILE779  LEU786  VAL792 
 PHE793  MET794  SER795  GLU796  ALA797  LYS798  CYS799  TRP800  GLU811  SER814 

> <Gold.Protein.RotatedAtoms>
  151.2068  133.4579  159.2597 H   0  0  0  0  0  0  0  0  0  0  0  0  # atno 6907 bound_to 6896
  151.1015  134.9975  159.8461 H   0  0  0  0  0  0  0  0  0  0  0  0  # atno 6908 bound_to 6896
  152.5443  134.1995  159.8759 H   0  0  0  0  0  0  0  0  0  0  0  0  # atno 6909 bound_to 6896
  145.2397  140.9200  143.3157 H   0  0  0  0  0  0  0  0  0  0  0  0  # atno 7974 bound_to 7965
  155.4868  140.0564  157.2959 H   0  0  0  0  0  0  0  0  0  0  0  0  # atno 8008 bound_to 7997
  154.4639  140.2009  156.0123 H   0  0  0  0  0  0  0  0  0  0  0  0  # atno 8009 bound_to 7997
  156.0939  140.3229  155.7856 H   0  0  0  0  0  0  0  0  0  0  0  0  # atno 8010 bound_to 7997
  140.6985  143.3065  151.3140 H   0  0  0  0  0  0  0  0  0  0  0  0  # atno 10167 bound_to 10162
  156.6971  130.5082  149.5927 H   0  0  0  0  0  0  0  0  0  0  0  0  # atno 10718 bound_to 10713
  154.5744  135.2830  155.0795 H   0  0  0  0  0  0  0  0  0  0  0  0  # atno 10763 bound_to 10752
  154.2155  135.6400  153.5132 H   0  0  0  0  0  0  0  0  0  0  0  0  # atno 10764 bound_to 10752
  153.0068  135.5502  154.6378 H   0  0  0  0  0  0  0  0  0  0  0  0  # atno 10765 bound_to 10752
  139.8856  134.9449  156.6075 H   0  0  0  0  0  0  0  0  0  0  0  0  # atno 11005 bound_to 11000
  144.9600  139.3990  143.6360 LP  0  0  0  0  0  0  0  0  0  0  0  0  # atno 17320 bound_to 7965
  146.3332  139.8649  142.8850 LP  0  0  0  0  0  0  0  0  0  0  0  0  # atno 17321 bound_to 7965
  139.6472  144.0428  152.2600 LP  0  0  0  0  0  0  0  0  0  0  0  0  # atno 17342 bound_to 10162
  139.9953  144.6332  150.7778 LP  0  0  0  0  0  0  0  0  0  0  0  0  # atno 17343 bound_to 10162
  156.1755  130.6465  151.0889 LP  0  0  0  0  0  0  0  0  0  0  0  0  # atno 17370 bound_to 10713
  157.6987  131.0784  150.6888 LP  0  0  0  0  0  0  0  0  0  0  0  0  # atno 17371 bound_to 10713
  140.7836  133.8639  155.8588 LP  0  0  0  0  0  0  0  0  0  0  0  0  # atno 17394 bound_to 11000
  140.9738  134.1495  157.4553 LP  0  0  0  0  0  0  0  0  0  0  0  0  # atno 17395 bound_to 11000

$$$$
