AV-unprocessed.smi:898|AV-procd|sdf|4086|dock1
  -GOLD-   22720 1573D 1   1.00000     0.00000
 Structure written by MMmdl.
 33 35  0  0  0  0  0  0  0  0  2 V2000
  152.1574  139.6363  159.0567 O   0  0  0  0  0  0  0  0  0  0  0  0
  153.2969  140.0865  159.1972 C   0  0  0  0  0  0  0  0  0  0  0  0
  154.4505  139.3842  159.1246 N   0  5  0  0  0  0  0  0  0  0  0  0
  154.7990  138.5596  160.1259 C   0  0  0  0  0  0  0  0  0  0  0  0
  156.0273  138.0329  160.2291 N   0  0  0  0  0  0  0  0  0  0  0  0
  156.1737  137.2057  161.3333 N   0  0  0  0  0  0  0  0  0  0  0  0
  155.0490  137.1138  162.0467 C   0  0  0  0  0  0  0  0  0  0  0  0
  154.9528  136.2850  163.2838 C   0  0  0  0  0  0  0  0  0  0  0  0
  154.0574  135.0669  163.3553 C   0  0  0  0  0  0  0  0  0  0  0  0
  153.7028  136.3086  164.1331 C   0  0  0  0  0  0  0  0  0  0  0  0
  153.7023  138.0414  161.4056 S   0  0  0  0  0  0  0  0  0  0  0  0
  153.4764  141.3929  159.4401 N   0  0  0  0  0  0  0  0  0  0  0  0
  152.4267  142.4022  159.5543 C   0  0  1  0  0  0  0  0  0  0  0  0
  153.0766  143.7968  159.6380 C   0  0  0  0  0  0  0  0  0  0  0  0
  152.0464  144.9228  159.8230 C   0  0  0  0  0  0  0  0  0  0  0  0
  151.0510  145.0006  158.6572 C   0  0  0  0  0  0  0  0  0  0  0  0
  150.0813  143.4750  158.5200 S   0  0  0  0  0  0  0  0  0  0  0  0
  151.4525  142.2970  158.3643 C   0  0  0  0  0  0  0  0  0  0  0  0
  155.9143  136.2392  163.7914 H   0  0  0  0  0  0  0  0  0  0  0  0
  153.4401  134.8290  162.4912 H   0  0  0  0  0  0  0  0  0  0  0  0
  154.4216  134.2094  163.9172 H   0  0  0  0  0  0  0  0  0  0  0  0
  153.8299  136.2801  165.2132 H   0  0  0  0  0  0  0  0  0  0  0  0
  152.8618  136.9006  163.7770 H   0  0  0  0  0  0  0  0  0  0  0  0
  154.4274  141.7132  159.5484 H   0  0  0  0  0  0  0  0  0  0  0  0
  151.8754  142.2280  160.4803 H   0  0  0  0  0  0  0  0  0  0  0  0
  153.7777  143.8203  160.4732 H   0  0  0  0  0  0  0  0  0  0  0  0
  153.6665  143.9866  158.7400 H   0  0  0  0  0  0  0  0  0  0  0  0
  151.5070  144.7809  160.7603 H   0  0  0  0  0  0  0  0  0  0  0  0
  152.5688  145.8757  159.9126 H   0  0  0  0  0  0  0  0  0  0  0  0
  150.3670  145.8373  158.7994 H   0  0  0  0  0  0  0  0  0  0  0  0
  151.5774  145.1733  157.7179 H   0  0  0  0  0  0  0  0  0  0  0  0
  151.9745  142.4839  157.4253 H   0  0  0  0  0  0  0  0  0  0  0  0
  151.0299  141.2940  158.2992 H   0  0  0  0  0  0  0  0  0  0  0  0
  1  2  2  0  0  0  0
  2  3  1  0  0  0  0
  2 12  1  0  0  0  0
  3  4  1  0  0  0  0
  4 11  1  0  0  0  0
  4  5  2  0  0  0  0
  5  6  1  0  0  0  0
  6  7  2  0  0  0  0
  7  8  1  0  0  0  0
  7 11  1  0  0  0  0
  8 10  1  0  0  0  0
  8  9  1  0  0  0  0
  8 19  1  0  0  0  0
  9 10  1  0  0  0  0
  9 20  1  0  0  0  0
  9 21  1  0  0  0  0
 10 22  1  0  0  0  0
 10 23  1  0  0  0  0
 12 13  1  0  0  0  0
 12 24  1  0  0  0  0
 13 18  1  0  0  0  0
 13 14  1  0  0  0  0
 13 25  1  0  0  0  0
 14 15  1  0  0  0  0
 14 26  1  0  0  0  0
 14 27  1  0  0  0  0
 15 16  1  0  0  0  0
 15 28  1  0  0  0  0
 15 29  1  0  0  0  0
 16 17  1  0  0  0  0
 16 30  1  0  0  0  0
 16 31  1  0  0  0  0
 17 18  1  0  0  0  0
 18 32  1  0  0  0  0
 18 33  1  0  0  0  0
M  CHG  1   3  -1
M  END
> <s_m_source_file>
AV-unprocessed.smi

> <i_m_source_file_index>
898

> <i_lp_mmshare_version>
43012

> <i_f3d_flags>
0

> <s_epik_input>
W0NIMl0xU1tDSDJdW0NIMl1bQ0gyXVtDQEhdMVtOSF1DKD1PKVtOSF1jMm5uYyhzMilbQ0hdM1tDSDJdW0NIMl0z

> <s_epik_cmdline>
J2VwaWtfcHl0aG9uJywgJy1waCcsICc3LjAnLCAnLXRuJywgJzgnLCAnLW1hJywgJzIwMCcsICctbWV0YWxfYmluZGluZycsICctaW1hZScsICc8aW5maWxlLm1hZT4nLCAnLW9tYWUnLCAnPG91dGZpbGUubWFlPic=

> <r_lp_tautomer_probability>
1

> <r_epik_Ionization_Penalty>
4.71411

> <r_epik_Ionization_Penalty_Charging>
4.5615

> <r_epik_Ionization_Penalty_Neutral>
0.152604

> <r_epik_State_Penalty>
4.56123

> <r_epik_Charging_Adjusted_Penalty>
9.12273

> <i_epik_Tot_Q>
-1

> <i_epik_Tot_abs_Q>
1

> <r_epik_Metal_State_Penalty>
0.850765

> <b_epik_Metal_Only>
1

> <s_lp_Force_Field>
OPLS_2005

> <r_lp_Energy>
0.516701

> <b_lp_Chiralities_Consistent>
1

> <s_lp_Variant>
AV-unprocessed.smi:898-4

> <Gold.Version>
5.8.1

> <Gold.Id.Protein>
6NUR|6NUR_protein|mol2

> <Gold.PLP.Fitness>
37.5644

> <Gold.PLP.PLP>
-33.1519

> <Gold.PLP.part.hbond>
-1.0000

> <Gold.PLP.part.metal>
0.0000

> <Gold.PLP.part.buried>
-4.3870

> <Gold.PLP.part.nonpolar>
-27.6485

> <Gold.PLP.part.repulsive>
0.0783

> <Gold.PLP.ligand.clash>
0.0000

> <Gold.PLP.ligand.torsion>
0.8754

> <Gold.PLP.Chemscore.Hbond>
2.0000

> <Gold.PLP.Chemscore.CHOScore>
0.0000

> <Gold.PLP.Chemscore.Metal>
0.0000

> <Gold.Chemscore.Hbonds>
donor molecule, donor type, donor heavy atom, donor atom, acceptor molecule, acceptor atom, score
      P1  H  7997  8009       L1     3  1.80

> <Gold.PLP.Chemscore.Internal.Correction>
0.1633

> <Gold.Rescore>
     Score         DG    S(hbond)    S(metal)    S(lipo)     H(rot)  DE(clash)    DE(int)     intcor
     14.51     -16.52       0.94        0.00      93.59       1.19       0.04       1.97       ----

> <Gold.Chemscore.Fitness>
14.5129

> <Gold.Chemscore.DG>
-16.5151

> <Gold.Chemscore.ZeroCoef>
-5.4800

> <Gold.Chemscore.Hbond>
0.9386

> <Gold.Chemscore.Metal>
0.0000

> <Gold.Chemscore.Lipo>
93.5860

> <Gold.Chemscore.Internal_Hbond>
0.0000

> <Gold.Chemscore.DEClash>
0.0368

> <Gold.Chemscore.DEInternal>
1.9654

> <Gold.Chemscore.Rot>
1.1911

> <Gold.Chemscore.Internal.Correction>
   9.000000E+99

> <Gold.Chemscore.Hbonds>
donor molecule, donor type, donor heavy atom, donor atom, acceptor molecule, acceptor atom, score
      P1  H  7997  8009       L1     3  0.17

> <Gold.Chemscore.Hbond.Weighted>
-3.1348

> <Gold.Chemscore.Metal.Weighted>
-0.0000

> <Gold.Chemscore.Lipo.Weighted>
-10.9496

> <Gold.Chemscore.Internal_Hbond.Weighted>
0.0000

> <Gold.Chemscore.DEClash.Weighted>
0.0368

> <Gold.Chemscore.DEInternal.Weighted>
1.9654

> <Gold.Chemscore.Rot.Weighted>
3.0492

> <Gold.Chemscore.Internal.Correction.Weighted>
   9.000000E+99

> <Gold.Protein.RotatedTorsions>
[ 6907 6896 6895 6894 ] final  165.87 input  -60.11 | X-H torsion
[ 7974 7965 7964 7962 ] final -103.53 input  175.53 | X-H torsion
[ 8008 7997 7996 7995 ] final  123.99 input   59.86 | X-H torsion
[ 10167 10162 10161 10158 ] final  142.98 input  -65.29 | X-H torsion
[ 10718 10713 10712 10709 ] final   80.12 input   66.30 | X-H torsion
[ 10763 10752 10751 10750 ] final -129.04 input  -60.55 | X-H torsion
[ 11005 11000 10999 10996 ] final  134.07 input  -57.11 | X-H torsion

> <Gold.Protein.ActiveResidues>
 VAL166  LYS551  ARG553  GLY616  TRP617  ASP618  TYR619  PRO620  LYS621  CYS622 
 ASP623  PHE694  ASN695  SER759  ASP760  ASP761  ALA762  ILE779  LEU786  VAL792 
 PHE793  MET794  SER795  GLU796  ALA797  LYS798  CYS799  TRP800  GLU811  SER814 

> <Gold.Protein.RotatedAtoms>
  151.8877  133.3509  159.3787 H   0  0  0  0  0  0  0  0  0  0  0  0  # atno 6907 bound_to 6896
  150.7111  134.4955  159.5545 H   0  0  0  0  0  0  0  0  0  0  0  0  # atno 6908 bound_to 6896
  152.2519  134.8124  160.0495 H   0  0  0  0  0  0  0  0  0  0  0  0  # atno 6909 bound_to 6896
  145.2547  140.9249  143.3075 H   0  0  0  0  0  0  0  0  0  0  0  0  # atno 7974 bound_to 7965
  156.2786  140.2750  156.1716 H   0  0  0  0  0  0  0  0  0  0  0  0  # atno 8008 bound_to 7997
  155.0648  140.0387  157.2607 H   0  0  0  0  0  0  0  0  0  0  0  0  # atno 8009 bound_to 7997
  154.7087  140.2664  155.6655 H   0  0  0  0  0  0  0  0  0  0  0  0  # atno 8010 bound_to 7997
  139.4981  144.6071  151.6354 H   0  0  0  0  0  0  0  0  0  0  0  0  # atno 10167 bound_to 10162
  157.6797  130.9945  150.2032 H   0  0  0  0  0  0  0  0  0  0  0  0  # atno 10718 bound_to 10713
  154.8757  135.3908  154.3855 H   0  0  0  0  0  0  0  0  0  0  0  0  # atno 10763 bound_to 10752
  153.4597  135.7029  153.6063 H   0  0  0  0  0  0  0  0  0  0  0  0  # atno 10764 bound_to 10752
  153.4567  135.3821  155.2283 H   0  0  0  0  0  0  0  0  0  0  0  0  # atno 10765 bound_to 10752
  139.9891  134.9521  156.9814 H   0  0  0  0  0  0  0  0  0  0  0  0  # atno 11005 bound_to 11000
  144.9471  139.4123  143.6420 LP  0  0  0  0  0  0  0  0  0  0  0  0  # atno 17320 bound_to 7965
  146.3292  139.8461  142.8881 LP  0  0  0  0  0  0  0  0  0  0  0  0  # atno 17321 bound_to 7965
  140.5736  144.0067  150.6229 LP  0  0  0  0  0  0  0  0  0  0  0  0  # atno 17342 bound_to 10162
  140.3193  143.3147  152.0800 LP  0  0  0  0  0  0  0  0  0  0  0  0  # atno 17343 bound_to 10162
  156.2718  130.3723  149.8023 LP  0  0  0  0  0  0  0  0  0  0  0  0  # atno 17370 bound_to 10713
  156.5738  130.8436  151.3364 LP  0  0  0  0  0  0  0  0  0  0  0  0  # atno 17371 bound_to 10713
  140.4943  134.1162  155.7238 LP  0  0  0  0  0  0  0  0  0  0  0  0  # atno 17394 bound_to 11000
  141.1551  133.8898  157.1999 LP  0  0  0  0  0  0  0  0  0  0  0  0  # atno 17395 bound_to 11000

$$$$
