AV-unprocessed.smi:149|AV-procd|sdf|1241|dock3
  -GOLD-   2262018453D 1   1.00000     0.00000
 Structure written by MMmdl.
 59 63  0  0  0  0  0  0  0  0  1 V2000
  150.8441  132.1753  156.7881 C   0  0  0  0  0  0  0  0  0  0  0  0
  150.1115  133.4938  156.4837 C   0  0  1  0  0  0  0  0  0  0  0  0
  150.9955  134.7059  156.8248 C   0  0  0  0  0  0  0  0  0  0  0  0
  151.1528  135.4711  155.5984 N   0  0  0  0  0  0  0  0  0  0  0  0
  151.6207  136.7482  155.6610 C   0  0  0  0  0  0  0  0  0  0  0  0
  152.2881  137.2396  154.5821 N   0  0  0  0  0  0  0  0  0  0  0  0
  152.7676  138.4859  154.5839 C   0  0  0  0  0  0  0  0  0  0  0  0
  152.6956  139.4043  155.5471 N   0  0  0  0  0  0  0  0  0  0  0  0
  152.0232  138.9285  156.6333 C   0  0  0  0  0  0  0  0  0  0  0  0
  151.4497  137.6303  156.7720 C   0  0  0  0  0  0  0  0  0  0  0  0
  150.8262  137.5335  158.0123 N   0  0  0  0  0  0  0  0  0  0  0  0
  151.0188  138.6969  158.5685 C   0  0  0  0  0  0  0  0  0  0  0  0
  151.7577  139.5849  157.8227 N   0  0  0  0  0  0  0  0  0  0  0  0
  152.0888  140.9338  158.1762 C   0  0  0  0  0  0  0  0  0  0  0  0
  151.6167  141.5414  159.4990 C   0  0  0  0  0  0  0  0  0  0  0  0
  151.5109  142.9245  158.8198 C   0  0  0  0  0  0  0  0  0  0  0  0
  150.2693  143.7462  159.2050 C   0  0  0  0  0  0  0  0  0  0  0  0
  150.3024  144.1202  160.5675 O   0  0  0  0  0  0  0  0  0  0  0  0
  152.7682  143.8097  158.9374 C   0  0  0  0  0  0  0  0  0  0  0  0
  152.7565  144.8539  157.9855 O   0  0  0  0  0  0  0  0  0  0  0  0
  151.3940  142.1211  157.5048 C   0  0  0  0  0  0  0  0  0  0  0  0
  150.0676  135.1231  154.7045 C   0  0  0  0  0  0  0  0  0  0  0  0
  149.7227  133.6546  154.9931 C   0  0  2  0  0  0  0  0  0  0  0  0
  148.3311  133.3200  154.6475 N   0  0  0  0  0  0  0  0  0  0  0  0
  147.3866  134.3011  155.1857 C   0  0  0  0  0  0  0  0  0  0  0  0
  145.9281  133.9651  154.8301 C   0  0  0  0  0  0  0  0  0  0  0  0
  145.7920  133.8703  153.4173 O   0  0  0  0  0  0  0  0  0  0  0  0
  146.6540  132.8886  152.8544 C   0  0  0  0  0  0  0  0  0  0  0  0
  148.1157  133.2179  153.2046 C   0  0  0  0  0  0  0  0  0  0  0  0
  151.7663  132.0955  156.2117 H   0  0  0  0  0  0  0  0  0  0  0  0
  150.2341  131.3046  156.5523 H   0  0  0  0  0  0  0  0  0  0  0  0
  151.1077  132.1114  157.8441 H   0  0  0  0  0  0  0  0  0  0  0  0
  149.2160  133.5545  157.1038 H   0  0  0  0  0  0  0  0  0  0  0  0
  150.5207  135.3161  157.5948 H   0  0  0  0  0  0  0  0  0  0  0  0
  151.9739  134.4002  157.1978 H   0  0  0  0  0  0  0  0  0  0  0  0
  153.2850  138.7898  153.6858 H   0  0  0  0  0  0  0  0  0  0  0  0
  150.6299  138.9354  159.5478 H   0  0  0  0  0  0  0  0  0  0  0  0
  153.1728  141.0141  158.0789 H   0  0  0  0  0  0  0  0  0  0  0  0
  150.6490  141.1469  159.8155 H   0  0  0  0  0  0  0  0  0  0  0  0
  152.3446  141.4825  160.3089 H   0  0  0  0  0  0  0  0  0  0  0  0
  150.1733  144.6425  158.5922 H   0  0  0  0  0  0  0  0  0  0  0  0
  149.3591  143.1681  159.0429 H   0  0  0  0  0  0  0  0  0  0  0  0
  151.0717  144.6488  160.7155 H   0  0  0  0  0  0  0  0  0  0  0  0
  152.8617  144.2429  159.9334 H   0  0  0  0  0  0  0  0  0  0  0  0
  153.6755  143.2269  158.7777 H   0  0  0  0  0  0  0  0  0  0  0  0
  152.6517  145.6743  158.4424 H   0  0  0  0  0  0  0  0  0  0  0  0
  151.9382  142.5377  156.6566 H   0  0  0  0  0  0  0  0  0  0  0  0
  150.3603  141.9005  157.2325 H   0  0  0  0  0  0  0  0  0  0  0  0
  149.2158  135.7751  154.9061 H   0  0  0  0  0  0  0  0  0  0  0  0
  150.3616  135.2437  153.6619 H   0  0  0  0  0  0  0  0  0  0  0  0
  150.3992  133.0366  154.4000 H   0  0  0  0  0  0  0  0  0  0  0  0
  147.4694  134.3546  156.2711 H   0  0  0  0  0  0  0  0  0  0  0  0
  147.6296  135.2946  154.8057 H   0  0  0  0  0  0  0  0  0  0  0  0
  145.6220  133.0278  155.2973 H   0  0  0  0  0  0  0  0  0  0  0  0
  145.2593  134.7416  155.2008 H   0  0  0  0  0  0  0  0  0  0  0  0
  146.3821  131.8993  153.2260 H   0  0  0  0  0  0  0  0  0  0  0  0
  146.5176  132.8730  151.7731 H   0  0  0  0  0  0  0  0  0  0  0  0
  148.4032  134.1520  152.7196 H   0  0  0  0  0  0  0  0  0  0  0  0
  148.7458  132.4355  152.7842 H   0  0  0  0  0  0  0  0  0  0  0  0
  1  2  1  0  0  0  0
  1 30  1  0  0  0  0
  1 31  1  0  0  0  0
  1 32  1  0  0  0  0
  2 23  1  0  0  0  0
  2  3  1  0  0  0  0
  2 33  1  0  0  0  0
  3  4  1  0  0  0  0
  3 34  1  0  0  0  0
  3 35  1  0  0  0  0
  4  5  1  0  0  0  0
  4 22  1  0  0  0  0
  5 10  1  0  0  0  0
  5  6  2  0  0  0  0
  6  7  1  0  0  0  0
  7  8  2  0  0  0  0
  7 36  1  0  0  0  0
  8  9  1  0  0  0  0
  9 13  1  0  0  0  0
  9 10  2  0  0  0  0
 10 11  1  0  0  0  0
 11 12  2  0  0  0  0
 12 13  1  0  0  0  0
 12 37  1  0  0  0  0
 13 14  1  0  0  0  0
 14 21  1  0  0  0  0
 14 15  1  0  0  0  0
 14 38  1  0  0  0  0
 15 16  1  0  0  0  0
 15 39  1  0  0  0  0
 15 40  1  0  0  0  0
 16 17  1  0  0  0  0
 16 19  1  0  0  0  0
 16 21  1  0  0  0  0
 17 18  1  0  0  0  0
 17 41  1  0  0  0  0
 17 42  1  0  0  0  0
 18 43  1  0  0  0  0
 19 20  1  0  0  0  0
 19 44  1  0  0  0  0
 19 45  1  0  0  0  0
 20 46  1  0  0  0  0
 21 47  1  0  0  0  0
 21 48  1  0  0  0  0
 22 23  1  0  0  0  0
 22 49  1  0  0  0  0
 22 50  1  0  0  0  0
 23 24  1  0  0  0  0
 23 51  1  0  0  0  0
 24 29  1  0  0  0  0
 24 25  1  0  0  0  0
 25 26  1  0  0  0  0
 25 52  1  0  0  0  0
 25 53  1  0  0  0  0
 26 27  1  0  0  0  0
 26 54  1  0  0  0  0
 26 55  1  0  0  0  0
 27 28  1  0  0  0  0
 28 29  1  0  0  0  0
 28 56  1  0  0  0  0
 28 57  1  0  0  0  0
 29 58  1  0  0  0  0
 29 59  1  0  0  0  0
M  END
> <s_m_source_file>
AV-unprocessed.smi

> <i_m_source_file_index>
149

> <i_lp_mmshare_version>
43012

> <i_f3d_flags>
0

> <s_epik_input>
W0NIMl0xW0NIMl1PW0NIMl1bQ0gyXU4xW0NAQEhdMltDSDJdTihbQ0gyXVtDQEhdMltDSDNdKWMobltjSF1uMyljKGMzNCluW2NIXW40W0NIXShbQ0gyXTUpW0NIMl1DNShbQ0gyXVtPSF0pW0NIMl1bT0hd

> <s_epik_cmdline>
J2VwaWtfcHl0aG9uJywgJy1waCcsICc3LjAnLCAnLXRuJywgJzgnLCAnLW1hJywgJzIwMCcsICctbWV0YWxfYmluZGluZycsICctaW1hZScsICc8aW5maWxlLm1hZT4nLCAnLW9tYWUnLCAnPG91dGZpbGUubWFlPic=

> <r_lp_tautomer_probability>
1

> <r_epik_Ionization_Penalty>
0.41918

> <r_epik_Ionization_Penalty_Charging>
0

> <r_epik_Ionization_Penalty_Neutral>
0.41918

> <r_epik_State_Penalty>
0.654916

> <r_epik_Charging_Adjusted_Penalty>
0.654916

> <i_epik_Tot_Q>
0

> <i_epik_Tot_abs_Q>
0

> <r_epik_Metal_State_Penalty>
0.653217

> <b_epik_Metal_Only>
0

> <s_lp_Force_Field>
OPLS_2005

> <r_lp_Energy>
73.5543

> <b_lp_Chiralities_Consistent>
1

> <s_lp_Variant>
AV-unprocessed.smi:149-8

> <Gold.Version>
5.8.1

> <Gold.Id.Protein>
6NUR|6NUR_protein|mol2

> <Gold.PLP.Fitness>
42.6850

> <Gold.PLP.PLP>
-38.9083

> <Gold.PLP.part.hbond>
-4.0000

> <Gold.PLP.part.metal>
0.0000

> <Gold.PLP.part.buried>
-4.7074

> <Gold.PLP.part.nonpolar>
-32.6730

> <Gold.PLP.part.repulsive>
0.3280

> <Gold.PLP.ligand.clash>
0.0000

> <Gold.PLP.ligand.torsion>
0.9137

> <Gold.PLP.Chemscore.Hbond>
1.5776

> <Gold.PLP.Chemscore.CHOScore>
0.0000

> <Gold.PLP.Chemscore.Metal>
0.0000

> <Gold.Chemscore.Hbonds>
donor molecule, donor type, donor heavy atom, donor atom, acceptor molecule, acceptor atom, score
      P1  H  7997  8008       L1     8  1.00
      P1  H 10752 10765       L1     6  0.59

> <Gold.PLP.Chemscore.Internal.Correction>
0.8714

> <Gold.Rescore>
     Score         DG    S(hbond)    S(metal)    S(lipo)     H(rot)  DE(clash)    DE(int)     intcor
      9.72     -11.83       1.09        0.00      96.21       3.34       1.08       1.02       ----

> <Gold.Chemscore.Fitness>
9.7220

> <Gold.Chemscore.DG>
-11.8295

> <Gold.Chemscore.ZeroCoef>
-5.4800

> <Gold.Chemscore.Hbond>
1.0921

> <Gold.Chemscore.Metal>
0.0000

> <Gold.Chemscore.Lipo>
96.2094

> <Gold.Chemscore.Internal_Hbond>
0.0000

> <Gold.Chemscore.DEClash>
1.0837

> <Gold.Chemscore.DEInternal>
1.0238

> <Gold.Chemscore.Rot>
3.3416

> <Gold.Chemscore.Internal.Correction>
   9.000000E+99

> <Gold.Chemscore.Hbonds>
donor molecule, donor type, donor heavy atom, donor atom, acceptor molecule, acceptor atom, score
      P1  H  7997  8008       L1     8  0.68
      P1  H 10752 10765       L1     6  0.13

> <Gold.Chemscore.Hbond.Weighted>
-3.6475

> <Gold.Chemscore.Metal.Weighted>
-0.0000

> <Gold.Chemscore.Lipo.Weighted>
-11.2565

> <Gold.Chemscore.Internal_Hbond.Weighted>
0.0000

> <Gold.Chemscore.DEClash.Weighted>
1.0837

> <Gold.Chemscore.DEInternal.Weighted>
1.0238

> <Gold.Chemscore.Rot.Weighted>
8.5545

> <Gold.Chemscore.Internal.Correction.Weighted>
   9.000000E+99

> <Gold.Protein.RotatedTorsions>
[ 6907 6896 6895 6894 ] final -125.37 input  -60.11 | X-H torsion
[ 7974 7965 7964 7962 ] final -139.04 input  175.53 | X-H torsion
[ 8008 7997 7996 7995 ] final  -11.75 input   59.86 | X-H torsion
[ 10167 10162 10161 10158 ] final  -21.71 input  -65.29 | X-H torsion
[ 10718 10713 10712 10709 ] final  -70.06 input   66.30 | X-H torsion
[ 10763 10752 10751 10750 ] final  142.92 input  -60.55 | X-H torsion
[ 11005 11000 10999 10996 ] final  173.21 input  -57.11 | X-H torsion

> <Gold.Protein.ActiveResidues>
 VAL166  LYS551  ARG553  GLY616  TRP617  ASP618  TYR619  PRO620  LYS621  CYS622 
 ASP623  PHE694  ASN695  SER759  ASP760  ASP761  ALA762  ILE779  LEU786  VAL792 
 PHE793  MET794  SER795  GLU796  ALA797  LYS798  CYS799  TRP800  GLU811  SER814 

> <Gold.Protein.RotatedAtoms>
  150.8861  133.7306  159.2917 H   0  0  0  0  0  0  0  0  0  0  0  0  # atno 6907 bound_to 6896
  151.4872  135.1054  159.9803 H   0  0  0  0  0  0  0  0  0  0  0  0  # atno 6908 bound_to 6896
  152.4791  133.8163  159.7085 H   0  0  0  0  0  0  0  0  0  0  0  0  # atno 6909 bound_to 6896
  144.8709  140.6365  143.5267 H   0  0  0  0  0  0  0  0  0  0  0  0  # atno 7974 bound_to 7965
  154.5437  140.2294  155.8598 H   0  0  0  0  0  0  0  0  0  0  0  0  # atno 8008 bound_to 7997
  156.1883  140.3083  155.9243 H   0  0  0  0  0  0  0  0  0  0  0  0  # atno 8009 bound_to 7997
  155.3207  140.0440  157.3029 H   0  0  0  0  0  0  0  0  0  0  0  0  # atno 8010 bound_to 7997
  140.7283  143.4602  151.0390 H   0  0  0  0  0  0  0  0  0  0  0  0  # atno 10167 bound_to 10162
  156.0425  130.4324  150.2239 H   0  0  0  0  0  0  0  0  0  0  0  0  # atno 10718 bound_to 10713
  153.9637  135.2957  155.3432 H   0  0  0  0  0  0  0  0  0  0  0  0  # atno 10763 bound_to 10752
  154.7361  135.5046  153.9046 H   0  0  0  0  0  0  0  0  0  0  0  0  # atno 10764 bound_to 10752
  153.0934  135.6714  153.9921 H   0  0  0  0  0  0  0  0  0  0  0  0  # atno 10765 bound_to 10752
  140.3380  134.7301  157.4182 H   0  0  0  0  0  0  0  0  0  0  0  0  # atno 11005 bound_to 11000
  145.4132  139.1576  143.4114 LP  0  0  0  0  0  0  0  0  0  0  0  0  # atno 17320 bound_to 7965
  146.2929  140.4238  142.8732 LP  0  0  0  0  0  0  0  0  0  0  0  0  # atno 17321 bound_to 7965
  139.8286  143.7721  152.3179 LP  0  0  0  0  0  0  0  0  0  0  0  0  # atno 17342 bound_to 10162
  139.7829  144.7438  151.0063 LP  0  0  0  0  0  0  0  0  0  0  0  0  # atno 17343 bound_to 10162
  157.0333  131.0014  151.3306 LP  0  0  0  0  0  0  0  0  0  0  0  0  # atno 17370 bound_to 10713
  157.5262  130.8029  149.7864 LP  0  0  0  0  0  0  0  0  0  0  0  0  # atno 17371 bound_to 10713
  140.0805  134.5738  155.8546 LP  0  0  0  0  0  0  0  0  0  0  0  0  # atno 17394 bound_to 11000
  141.2046  133.6640  156.6131 LP  0  0  0  0  0  0  0  0  0  0  0  0  # atno 17395 bound_to 11000

$$$$
