AV-unprocessed.smi:692|AV-procd|sdf|3371|dock1
  -GOLD-   22720 0353D 1   1.00000     0.00000
 Structure written by MMmdl.
 36 37  0  0  0  0  0  0  0  0  2 V2000
  153.5457  141.4000  161.5209 C   0  0  0  0  0  0  0  0  0  0  0  0
  152.8452  142.5897  162.1865 C   0  0  0  0  0  0  0  0  0  0  0  0
  152.2572  143.5371  161.1854 C   0  0  0  0  0  0  0  0  0  0  0  0
  151.7568  144.7894  161.4305 C   0  0  0  0  0  0  0  0  0  0  0  0
  151.1634  145.5406  159.9769 S   0  0  0  0  0  0  0  0  0  0  0  0
  151.6299  144.1069  159.0590 C   0  0  0  0  0  0  0  0  0  0  0  0
  151.4546  143.9479  157.7372 N   0  5  0  0  0  0  0  0  0  0  0  0
  151.2899  142.7083  157.2219 C   0  0  0  0  0  0  0  0  0  0  0  0
  151.7995  141.6676  157.6439 O   0  0  0  0  0  0  0  0  0  0  0  0
  150.4868  142.6729  156.1487 N   0  0  0  0  0  0  0  0  0  0  0  0
  150.1300  141.4819  155.3828 C   0  0  1  0  0  0  0  0  0  0  0  0
  149.7767  140.3392  156.3361 C   0  0  0  0  0  0  0  0  0  0  0  0
  149.4398  139.0689  155.5463 C   0  0  0  0  0  0  0  0  0  0  0  0
  148.4622  139.3059  154.3850 C   0  0  0  0  0  0  0  0  0  0  0  0
  147.8643  138.3334  153.9229 O   0  0  0  0  0  0  0  0  0  0  0  0
  148.3115  140.5572  153.8872 N   0  0  0  0  0  0  0  0  0  0  0  0
  147.4120  140.7999  152.7580 C   0  0  0  0  0  0  0  0  0  0  0  0
  148.9376  141.7647  154.4480 C   0  0  0  0  0  0  0  0  0  0  0  0
  152.1718  143.1665  159.8407 N   0  0  0  0  0  0  0  0  0  0  0  0
  153.9627  140.7258  162.2692 H   0  0  0  0  0  0  0  0  0  0  0  0
  154.3629  141.7321  160.8799 H   0  0  0  0  0  0  0  0  0  0  0  0
  152.8494  140.8281  160.9068 H   0  0  0  0  0  0  0  0  0  0  0  0
  152.0656  142.2196  162.8530 H   0  0  0  0  0  0  0  0  0  0  0  0
  153.5574  143.1160  162.8232 H   0  0  0  0  0  0  0  0  0  0  0  0
  151.6983  145.3131  162.3729 H   0  0  0  0  0  0  0  0  0  0  0  0
  150.0916  143.5490  155.8399 H   0  0  0  0  0  0  0  0  0  0  0  0
  150.9900  141.1718  154.7858 H   0  0  0  0  0  0  0  0  0  0  0  0
  150.6102  140.1395  157.0106 H   0  0  0  0  0  0  0  0  0  0  0  0
  148.9295  140.6206  156.9635 H   0  0  0  0  0  0  0  0  0  0  0  0
  150.3545  138.6494  155.1259 H   0  0  0  0  0  0  0  0  0  0  0  0
  149.0305  138.3130  156.2171 H   0  0  0  0  0  0  0  0  0  0  0  0
  147.7717  140.2845  151.8664 H   0  0  0  0  0  0  0  0  0  0  0  0
  147.3303  141.8605  152.5168 H   0  0  0  0  0  0  0  0  0  0  0  0
  146.4061  140.4399  152.9795 H   0  0  0  0  0  0  0  0  0  0  0  0
  148.1640  142.3070  154.9941 H   0  0  0  0  0  0  0  0  0  0  0  0
  149.2635  142.4205  153.6392 H   0  0  0  0  0  0  0  0  0  0  0  0
  1  2  1  0  0  0  0
  1 20  1  0  0  0  0
  1 21  1  0  0  0  0
  1 22  1  0  0  0  0
  2  3  1  0  0  0  0
  2 23  1  0  0  0  0
  2 24  1  0  0  0  0
  3 19  1  0  0  0  0
  3  4  2  0  0  0  0
  4  5  1  0  0  0  0
  4 25  1  0  0  0  0
  5  6  1  0  0  0  0
  6  7  1  0  0  0  0
  6 19  2  0  0  0  0
  7  8  1  0  0  0  0
  8  9  2  0  0  0  0
  8 10  1  0  0  0  0
 10 11  1  0  0  0  0
 10 26  1  0  0  0  0
 11 18  1  0  0  0  0
 11 12  1  0  0  0  0
 11 27  1  0  0  0  0
 12 13  1  0  0  0  0
 12 28  1  0  0  0  0
 12 29  1  0  0  0  0
 13 14  1  0  0  0  0
 13 30  1  0  0  0  0
 13 31  1  0  0  0  0
 14 15  2  0  0  0  0
 14 16  1  0  0  0  0
 16 17  1  0  0  0  0
 16 18  1  0  0  0  0
 17 32  1  0  0  0  0
 17 33  1  0  0  0  0
 17 34  1  0  0  0  0
 18 35  1  0  0  0  0
 18 36  1  0  0  0  0
M  CHG  1   7  -1
M  END
> <s_m_source_file>
AV-unprocessed.smi

> <i_m_source_file_index>
692

> <i_lp_mmshare_version>
43012

> <i_f3d_flags>
0

> <s_epik_input>
W0NIM11bQ0gyXWMxW2NIXXNjKG4xKVtOSF1DKD1PKVtOSF1bQ0BASF0yW0NIMl1bQ0gyXUMoPU8pTihbQ0gzXSlbQ0gyXTI=

> <s_epik_cmdline>
J2VwaWtfcHl0aG9uJywgJy1waCcsICc3LjAnLCAnLXRuJywgJzgnLCAnLW1hJywgJzIwMCcsICctbWV0YWxfYmluZGluZycsICctaW1hZScsICc8aW5maWxlLm1hZT4nLCAnLW9tYWUnLCAnPG91dGZpbGUubWFlPic=

> <r_lp_tautomer_probability>
1

> <r_epik_Ionization_Penalty>
7.06728

> <r_epik_Ionization_Penalty_Charging>
5.78908

> <r_epik_Ionization_Penalty_Neutral>
1.2782

> <r_epik_State_Penalty>
5.78905

> <r_epik_Charging_Adjusted_Penalty>
11.5781

> <i_epik_Tot_Q>
-1

> <i_epik_Tot_abs_Q>
1

> <r_epik_Metal_State_Penalty>
1.76044

> <b_epik_Metal_Only>
1

> <s_lp_Force_Field>
OPLS_2005

> <r_lp_Energy>
4.22105

> <b_lp_Chiralities_Consistent>
1

> <s_lp_Variant>
AV-unprocessed.smi:692-4

> <Gold.Version>
5.8.1

> <Gold.Id.Protein>
6NUR|6NUR_protein|mol2

> <Gold.PLP.Fitness>
40.8178

> <Gold.PLP.PLP>
-39.0854

> <Gold.PLP.part.hbond>
-1.0000

> <Gold.PLP.part.metal>
0.0000

> <Gold.PLP.part.buried>
-3.7647

> <Gold.PLP.part.nonpolar>
-34.2205

> <Gold.PLP.part.repulsive>
0.3922

> <Gold.PLP.ligand.clash>
0.0000

> <Gold.PLP.ligand.torsion>
0.6789

> <Gold.PLP.Chemscore.Hbond>
1.0000

> <Gold.PLP.Chemscore.CHOScore>
0.0000

> <Gold.PLP.Chemscore.Metal>
0.0000

> <Gold.Chemscore.Hbonds>
donor molecule, donor type, donor heavy atom, donor atom, acceptor molecule, acceptor atom, score
      L1  H    10    26       P1  8028  1.00

> <Gold.PLP.Chemscore.Internal.Correction>
0.0902

> <Gold.Rescore>
     Score         DG    S(hbond)    S(metal)    S(lipo)     H(rot)  DE(clash)    DE(int)     intcor
     12.20     -15.51       1.00        0.00      84.03       1.23       0.06       3.25       ----

> <Gold.Chemscore.Fitness>
12.1982

> <Gold.Chemscore.DG>
-15.5060

> <Gold.Chemscore.ZeroCoef>
-5.4800

> <Gold.Chemscore.Hbond>
0.9974

> <Gold.Chemscore.Metal>
0.0000

> <Gold.Chemscore.Lipo>
84.0258

> <Gold.Chemscore.Internal_Hbond>
0.0000

> <Gold.Chemscore.DEClash>
0.0584

> <Gold.Chemscore.DEInternal>
3.2494

> <Gold.Chemscore.Rot>
1.2251

> <Gold.Chemscore.Internal.Correction>
   9.000000E+99

> <Gold.Chemscore.Hbonds>
donor molecule, donor type, donor heavy atom, donor atom, acceptor molecule, acceptor atom, score
      L1  H    10    26       P1  8028  0.99

> <Gold.Chemscore.Hbond.Weighted>
-3.3312

> <Gold.Chemscore.Metal.Weighted>
-0.0000

> <Gold.Chemscore.Lipo.Weighted>
-9.8310

> <Gold.Chemscore.Internal_Hbond.Weighted>
0.0000

> <Gold.Chemscore.DEClash.Weighted>
0.0584

> <Gold.Chemscore.DEInternal.Weighted>
3.2494

> <Gold.Chemscore.Rot.Weighted>
3.1362

> <Gold.Chemscore.Internal.Correction.Weighted>
   9.000000E+99

> <Gold.Protein.RotatedTorsions>
[ 6907 6896 6895 6894 ] final  130.18 input  -60.11 | X-H torsion
[ 7974 7965 7964 7962 ] final  164.26 input  175.53 | X-H torsion
[ 8008 7997 7996 7995 ] final  -57.36 input   59.86 | X-H torsion
[ 10167 10162 10161 10158 ] final -144.91 input  -65.29 | X-H torsion
[ 10718 10713 10712 10709 ] final -156.02 input   66.30 | X-H torsion
[ 10763 10752 10751 10750 ] final  161.44 input  -60.55 | X-H torsion
[ 11005 11000 10999 10996 ] final -103.74 input  -57.11 | X-H torsion

> <Gold.Protein.ActiveResidues>
 VAL166  LYS551  ARG553  GLY616  TRP617  ASP618  TYR619  PRO620  LYS621  CYS622 
 ASP623  PHE694  ASN695  SER759  ASP760  ASP761  ALA762  ILE779  LEU786  VAL792 
 PHE793  MET794  SER795  GLU796  ALA797  LYS798  CYS799  TRP800  GLU811  SER814 

> <Gold.Protein.RotatedAtoms>
  152.3551  133.6227  159.5973 H   0  0  0  0  0  0  0  0  0  0  0  0  # atno 6907 bound_to 6896
  150.7563  133.9513  159.3495 H   0  0  0  0  0  0  0  0  0  0  0  0  # atno 6908 bound_to 6896
  151.7359  135.0866  160.0359 H   0  0  0  0  0  0  0  0  0  0  0  0  # atno 6909 bound_to 6896
  144.7553  139.8300  143.6352 H   0  0  0  0  0  0  0  0  0  0  0  0  # atno 7974 bound_to 7965
  154.4265  140.1108  156.5785 H   0  0  0  0  0  0  0  0  0  0  0  0  # atno 8008 bound_to 7997
  155.6137  140.3494  155.4611 H   0  0  0  0  0  0  0  0  0  0  0  0  # atno 8009 bound_to 7997
  156.0079  140.1213  157.0473 H   0  0  0  0  0  0  0  0  0  0  0  0  # atno 8010 bound_to 7997
  139.7855  143.8040  152.2644 H   0  0  0  0  0  0  0  0  0  0  0  0  # atno 10167 bound_to 10162
  156.5208  130.8477  151.2681 H   0  0  0  0  0  0  0  0  0  0  0  0  # atno 10718 bound_to 10713
  154.2630  135.2768  155.2770 H   0  0  0  0  0  0  0  0  0  0  0  0  # atno 10763 bound_to 10752
  154.5367  135.5714  153.6808 H   0  0  0  0  0  0  0  0  0  0  0  0  # atno 10764 bound_to 10752
  152.9959  135.6241  154.2781 H   0  0  0  0  0  0  0  0  0  0  0  0  # atno 10765 bound_to 10752
  141.1132  133.8665  157.1523 H   0  0  0  0  0  0  0  0  0  0  0  0  # atno 11005 bound_to 11000
  146.1555  139.4652  143.0021 LP  0  0  0  0  0  0  0  0  0  0  0  0  # atno 17320 bound_to 7965
  145.6801  141.0193  143.1611 LP  0  0  0  0  0  0  0  0  0  0  0  0  # atno 17321 bound_to 7965
  139.8116  144.7333  150.9690 LP  0  0  0  0  0  0  0  0  0  0  0  0  # atno 17342 bound_to 10162
  140.7819  143.4245  151.0789 LP  0  0  0  0  0  0  0  0  0  0  0  0  # atno 17343 bound_to 10162
  157.7437  130.9918  150.2613 LP  0  0  0  0  0  0  0  0  0  0  0  0  # atno 17370 bound_to 10713
  156.3151  130.3777  149.7625 LP  0  0  0  0  0  0  0  0  0  0  0  0  # atno 17371 bound_to 10713
  140.0038  135.0017  157.0248 LP  0  0  0  0  0  0  0  0  0  0  0  0  # atno 17394 bound_to 11000
  140.4718  134.1379  155.7204 LP  0  0  0  0  0  0  0  0  0  0  0  0  # atno 17395 bound_to 11000

$$$$
