AV-unprocessed.smi:96|AV-procd|sdf|860|dock3
  -GOLD-   2262017303D 1   1.00000     0.00000
 Structure written by MMmdl.
 43 46  0  0  0  0  0  0  0  0  1 V2000
  151.6409  137.0483  159.5436 O   0  0  0  0  0  0  0  0  0  0  0  0
  151.2293  137.4812  158.4661 C   0  0  0  0  0  0  0  0  0  0  0  0
  152.1429  138.3277  157.5652 C   0  0  0  0  0  0  0  0  0  0  0  0
  151.6846  139.7256  157.4073 N   0  0  0  0  0  0  0  0  0  0  0  0
  150.8818  140.0603  156.2887 C   0  0  0  0  0  0  0  0  0  0  0  0
  150.5557  139.2101  155.4592 O   0  0  0  0  0  0  0  0  0  0  0  0
  150.4860  141.4611  156.1943 C   0  0  0  0  0  0  0  0  0  0  0  0
  149.7120  141.8663  155.1730 F   0  0  0  0  0  0  0  0  0  0  0  0
  150.8843  142.3604  157.1176 C   0  0  0  0  0  0  0  0  0  0  0  0
  151.6836  142.0228  158.1954 N   0  0  0  0  0  0  0  0  0  0  0  0
  152.1318  143.0456  159.2183 C   0  0  1  0  0  0  0  0  0  0  0  0
  152.7468  144.2749  158.5220 C   0  0  0  0  0  0  0  0  0  0  0  0
  151.9940  145.4291  159.1530 C   0  0  0  0  0  0  0  0  0  0  0  0
  150.6546  144.7877  159.4832 C   0  0  0  0  0  0  0  0  0  0  0  0
  151.0302  143.4995  159.9526 O   0  0  0  0  0  0  0  0  0  0  0  0
  152.0971  140.6836  158.3638 C   0  0  0  0  0  0  0  0  0  0  0  0
  152.8077  140.3616  159.3189 O   0  0  0  0  0  0  0  0  0  0  0  0
  149.9867  137.2794  157.9916 N   0  0  0  0  0  0  0  0  0  0  0  0
  148.9236  136.5545  158.5930 C   0  0  0  0  0  0  0  0  0  0  0  0
  148.0111  135.7534  157.8476 C   0  0  0  0  0  0  0  0  0  0  0  0
  146.9587  135.0651  158.4926 C   0  0  0  0  0  0  0  0  0  0  0  0
  146.8385  135.2054  159.8841 C   0  0  0  0  0  0  0  0  0  0  0  0
  147.7081  135.9928  160.6088 C   0  0  0  0  0  0  0  0  0  0  0  0
  148.7606  136.6890  159.9926 C   0  0  0  0  0  0  0  0  0  0  0  0
  147.3654  135.9588  161.9217 O   0  0  0  0  0  0  0  0  0  0  0  0
  146.2456  135.1154  162.0046 C   0  0  0  0  0  0  0  0  0  0  0  0
  145.9222  134.6522  160.7189 O   0  0  0  0  0  0  0  0  0  0  0  0
  153.1548  138.2849  157.9705 H   0  0  0  0  0  0  0  0  0  0  0  0
  152.2285  137.8415  156.5917 H   0  0  0  0  0  0  0  0  0  0  0  0
  150.5545  143.3798  156.9901 H   0  0  0  0  0  0  0  0  0  0  0  0
  152.8178  142.5179  159.8834 H   0  0  0  0  0  0  0  0  0  0  0  0
  153.8234  144.3211  158.6876 H   0  0  0  0  0  0  0  0  0  0  0  0
  152.5543  144.2376  157.4483 H   0  0  0  0  0  0  0  0  0  0  0  0
  152.4925  145.7468  160.0698 H   0  0  0  0  0  0  0  0  0  0  0  0
  151.9037  146.2926  158.4936 H   0  0  0  0  0  0  0  0  0  0  0  0
  150.0943  145.3420  160.2364 H   0  0  0  0  0  0  0  0  0  0  0  0
  150.0363  144.6986  158.5889 H   0  0  0  0  0  0  0  0  0  0  0  0
  149.7518  137.7714  157.1418 H   0  0  0  0  0  0  0  0  0  0  0  0
  148.0952  135.6654  156.7751 H   0  0  0  0  0  0  0  0  0  0  0  0
  146.2659  134.4547  157.9324 H   0  0  0  0  0  0  0  0  0  0  0  0
  149.4298  137.3020  160.5787 H   0  0  0  0  0  0  0  0  0  0  0  0
  146.4735  134.2676  162.6516 H   0  0  0  0  0  0  0  0  0  0  0  0
  145.4015  135.6686  162.4172 H   0  0  0  0  0  0  0  0  0  0  0  0
  1  2  2  0  0  0  0
  2  3  1  0  0  0  0
  2 18  1  0  0  0  0
  3  4  1  0  0  0  0
  3 28  1  0  0  0  0
  3 29  1  0  0  0  0
  4 16  1  0  0  0  0
  4  5  1  0  0  0  0
  5  6  2  0  0  0  0
  5  7  1  0  0  0  0
  7  8  1  0  0  0  0
  7  9  2  0  0  0  0
  9 10  1  0  0  0  0
  9 30  1  0  0  0  0
 10 11  1  0  0  0  0
 10 16  1  0  0  0  0
 11 15  1  0  0  0  0
 11 12  1  0  0  0  0
 11 31  1  0  0  0  0
 12 13  1  0  0  0  0
 12 32  1  0  0  0  0
 12 33  1  0  0  0  0
 13 14  1  0  0  0  0
 13 34  1  0  0  0  0
 13 35  1  0  0  0  0
 14 15  1  0  0  0  0
 14 36  1  0  0  0  0
 14 37  1  0  0  0  0
 16 17  2  0  0  0  0
 18 19  1  0  0  0  0
 18 38  1  0  0  0  0
 19 24  1  0  0  0  0
 19 20  2  0  0  0  0
 20 21  1  0  0  0  0
 20 39  1  0  0  0  0
 21 22  2  0  0  0  0
 21 40  1  0  0  0  0
 22 27  1  0  0  0  0
 22 23  1  0  0  0  0
 23 24  2  0  0  0  0
 23 25  1  0  0  0  0
 24 41  1  0  0  0  0
 25 26  1  0  0  0  0
 26 27  1  0  0  0  0
 26 42  1  0  0  0  0
 26 43  1  0  0  0  0
M  END
> <s_m_source_file>
AV-unprocessed.smi

> <i_m_source_file_index>
96

> <i_lp_mmshare_version>
43012

> <i_f3d_flags>
0

> <s_epik_input>
TzFbQ0gyXU9jKGMxMilbY0hdYyhbY0hdW2NIXTIpW05IXUMoPU8pW0NIMl1uM2MoPU8pYyhGKVtjSF1uKGMzPU8pW0NAQEhdNFtDSDJdW0NIMl1bQ0gyXU80

> <s_epik_cmdline>
J2VwaWtfcHl0aG9uJywgJy1waCcsICc3LjAnLCAnLXRuJywgJzgnLCAnLW1hJywgJzIwMCcsICctbWV0YWxfYmluZGluZycsICctaW1hZScsICc8aW5maWxlLm1hZT4nLCAnLW9tYWUnLCAnPG91dGZpbGUubWFlPic=

> <r_lp_tautomer_probability>
1

> <r_epik_Ionization_Penalty>
1.04778e-05

> <r_epik_Ionization_Penalty_Charging>
3.88729e-08

> <r_epik_Ionization_Penalty_Neutral>
1.04389e-05

> <r_epik_State_Penalty>
-0

> <r_epik_Charging_Adjusted_Penalty>
3.88729e-08

> <i_epik_Tot_Q>
0

> <i_epik_Tot_abs_Q>
0

> <r_epik_Metal_State_Penalty>
-0

> <b_epik_Metal_Only>
0

> <s_epik_Chemistry_Notes>
This compound contains an acetal/aminal-like group ( X-CH(R)-Y where X, Y are N, S, or O) that may be acid/base labile, releasing an aldehyde.

> <s_lp_Force_Field>
OPLS_2005

> <r_lp_Energy>
46.4939

> <b_lp_Chiralities_Consistent>
1

> <s_lp_Variant>
AV-unprocessed.smi:96-2

> <Gold.Version>
5.8.1

> <Gold.Id.Protein>
6NUR|6NUR_protein|mol2

> <Gold.PLP.Fitness>
51.4310

> <Gold.PLP.PLP>
-47.0206

> <Gold.PLP.part.hbond>
-1.3328

> <Gold.PLP.part.metal>
0.0000

> <Gold.PLP.part.buried>
-5.3414

> <Gold.PLP.part.nonpolar>
-40.8338

> <Gold.PLP.part.repulsive>
0.1769

> <Gold.PLP.ligand.clash>
0.0000

> <Gold.PLP.ligand.torsion>
0.8197

> <Gold.PLP.Chemscore.Hbond>
1.0000

> <Gold.PLP.Chemscore.CHOScore>
0.9995

> <Gold.PLP.Chemscore.Metal>
0.0000

> <Gold.Chemscore.Hbonds>
donor molecule, donor type, donor heavy atom, donor atom, acceptor molecule, acceptor atom, score
      P1  H  6896  6908       L1     1  1.00
      L1  C     9    30       P1  8028  1.00

> <Gold.PLP.Chemscore.Internal.Correction>
0.0514

> <Gold.Rescore>
     Score         DG    S(hbond)    S(metal)    S(lipo)     H(rot)  DE(clash)    DE(int)     intcor
     11.79     -13.83       0.99        0.00      83.49       1.85       0.12       1.92       ----

> <Gold.Chemscore.Fitness>
11.7881

> <Gold.Chemscore.DG>
-13.8296

> <Gold.Chemscore.ZeroCoef>
-5.4800

> <Gold.Chemscore.Hbond>
0.9931

> <Gold.Chemscore.Metal>
0.0000

> <Gold.Chemscore.Lipo>
83.4864

> <Gold.Chemscore.Internal_Hbond>
0.0000

> <Gold.Chemscore.DEClash>
0.1204

> <Gold.Chemscore.DEInternal>
1.9211

> <Gold.Chemscore.Rot>
1.8497

> <Gold.Chemscore.Internal.Correction>
   9.000000E+99

> <Gold.Chemscore.Hbonds>
donor molecule, donor type, donor heavy atom, donor atom, acceptor molecule, acceptor atom, score
      P1  H  6896  6908       L1     1  0.97

> <Gold.Chemscore.Hbond.Weighted>
-3.3170

> <Gold.Chemscore.Metal.Weighted>
-0.0000

> <Gold.Chemscore.Lipo.Weighted>
-9.7679

> <Gold.Chemscore.Internal_Hbond.Weighted>
0.0000

> <Gold.Chemscore.DEClash.Weighted>
0.1204

> <Gold.Chemscore.DEInternal.Weighted>
1.9211

> <Gold.Chemscore.Rot.Weighted>
4.7354

> <Gold.Chemscore.Internal.Correction.Weighted>
   9.000000E+99

> <Gold.Protein.RotatedTorsions>
[ 6907 6896 6895 6894 ] final -109.41 input  -60.11 | X-H torsion
[ 7974 7965 7964 7962 ] final  151.45 input  175.53 | X-H torsion
[ 8008 7997 7996 7995 ] final   17.04 input   59.86 | X-H torsion
[ 10167 10162 10161 10158 ] final -135.87 input  -65.29 | X-H torsion
[ 10718 10713 10712 10709 ] final   49.42 input   66.30 | X-H torsion
[ 10763 10752 10751 10750 ] final -167.88 input  -60.55 | X-H torsion
[ 11005 11000 10999 10996 ] final  -12.76 input  -57.11 | X-H torsion

> <Gold.Protein.ActiveResidues>
 VAL166  LYS551  ARG553  GLY616  TRP617  ASP618  TYR619  PRO620  LYS621  CYS622 
 ASP623  PHE694  ASN695  SER759  ASP760  ASP761  ALA762  ILE779  LEU786  VAL792 
 PHE793  MET794  SER795  GLU796  ALA797  LYS798  CYS799  TRP800  GLU811  SER814 

> <Gold.Protein.RotatedAtoms>
  150.7560  133.9533  159.3492 H   0  0  0  0  0  0  0  0  0  0  0  0  # atno 6907 bound_to 6896
  151.7452  135.0843  160.0331 H   0  0  0  0  0  0  0  0  0  0  0  0  # atno 6908 bound_to 6896
  152.3502  133.6133  159.5975 H   0  0  0  0  0  0  0  0  0  0  0  0  # atno 6909 bound_to 6896
  144.8291  139.6540  143.6067 H   0  0  0  0  0  0  0  0  0  0  0  0  # atno 7974 bound_to 7965
  154.8856  140.2979  155.5400 H   0  0  0  0  0  0  0  0  0  0  0  0  # atno 8008 bound_to 7997
  156.3021  140.2434  156.3799 H   0  0  0  0  0  0  0  0  0  0  0  0  # atno 8009 bound_to 7997
  154.8672  140.0403  157.1691 H   0  0  0  0  0  0  0  0  0  0  0  0  # atno 8010 bound_to 7997
  139.8735  143.6928  152.2637 H   0  0  0  0  0  0  0  0  0  0  0  0  # atno 10167 bound_to 10162
  157.4785  130.8300  149.8066 H   0  0  0  0  0  0  0  0  0  0  0  0  # atno 10718 bound_to 10713
  154.6687  135.2936  154.9771 H   0  0  0  0  0  0  0  0  0  0  0  0  # atno 10763 bound_to 10752
  154.0806  135.6605  153.4841 H   0  0  0  0  0  0  0  0  0  0  0  0  # atno 10764 bound_to 10752
  153.0473  135.5196  154.7672 H   0  0  0  0  0  0  0  0  0  0  0  0  # atno 10765 bound_to 10752
  140.7691  133.8453  155.9191 H   0  0  0  0  0  0  0  0  0  0  0  0  # atno 11005 bound_to 11000
  146.2595  139.6378  142.9372 LP  0  0  0  0  0  0  0  0  0  0  0  0  # atno 17320 bound_to 7965
  145.4934  141.0438  143.2580 LP  0  0  0  0  0  0  0  0  0  0  0  0  # atno 17321 bound_to 7965
  139.7262  144.7592  151.0875 LP  0  0  0  0  0  0  0  0  0  0  0  0  # atno 17342 bound_to 10162
  140.7757  143.5145  150.9611 LP  0  0  0  0  0  0  0  0  0  0  0  0  # atno 17343 bound_to 10162
  156.0109  130.3834  150.2268 LP  0  0  0  0  0  0  0  0  0  0  0  0  # atno 17370 bound_to 10713
  157.0453  131.0047  151.3271 LP  0  0  0  0  0  0  0  0  0  0  0  0  # atno 17371 bound_to 10713
  140.9591  134.1679  157.4668 LP  0  0  0  0  0  0  0  0  0  0  0  0  # atno 17394 bound_to 11000
  139.8758  134.9938  156.5662 LP  0  0  0  0  0  0  0  0  0  0  0  0  # atno 17395 bound_to 11000

$$$$
