AV-unprocessed.smi:1424|AV-procd|sdf|5800|dock4
  -GOLD-   22720 5453D 1   1.00000     0.00000
 Structure written by MMmdl.
 45 47  0  0  0  0  0  0  0  0  1 V2000
  149.0800  132.7393  155.5540 O   0  0  0  0  0  0  0  0  0  0  0  0
  148.8173  133.6286  154.7447 C   0  0  0  0  0  0  0  0  0  0  0  0
  149.3520  134.8553  154.8006 N   0  0  0  0  0  0  0  0  0  0  0  0
  150.2891  135.2963  155.8260 C   0  0  0  0  0  0  0  0  0  0  0  0
  150.2357  136.8224  156.0121 C   0  0  1  0  0  0  0  0  0  0  0  0
  150.7257  137.2603  157.4061 C   0  0  0  0  0  0  0  0  0  0  0  0
  150.8945  138.7824  157.4081 C   0  0  0  0  0  0  0  0  0  0  0  0
  151.4692  139.2131  155.7242 S   0  0  0  0  0  0  0  0  0  0  0  0
  150.5961  140.2603  155.1727 O   0  0  0  0  0  0  0  0  0  0  0  0
  152.9313  139.3725  155.7319 O   0  0  0  0  0  0  0  0  0  0  0  0
  151.0516  137.5978  154.9620 C   0  0  0  0  0  0  0  0  0  0  0  0
  147.9867  133.5088  153.6952 N   0  0  0  0  0  0  0  0  0  0  0  0
  147.2279  132.3765  153.2784 C   0  0  0  0  0  0  0  0  0  0  0  0
  147.5609  131.0461  153.6337 C   0  0  0  0  0  0  0  0  0  0  0  0
  146.7406  129.9919  153.1929 C   0  0  0  0  0  0  0  0  0  0  0  0
  145.6094  130.3032  152.4179 C   0  0  0  0  0  0  0  0  0  0  0  0
  145.2699  131.5642  152.0820 N   0  0  0  0  0  0  0  0  0  0  0  0
  146.0569  132.5840  152.5041 C   0  0  0  0  0  0  0  0  0  0  0  0
  145.6796  133.8903  152.1447 N   0  0  0  0  0  0  0  0  0  0  0  0
  145.4868  134.1214  150.7231 C   0  0  0  0  0  0  0  0  0  0  0  0
  144.7568  135.4624  150.6310 C   0  0  0  0  0  0  0  0  0  0  0  0
  144.0521  135.6182  151.9845 C   0  0  0  0  0  0  0  0  0  0  0  0
  144.4864  134.3974  152.8020 C   0  0  0  0  0  0  0  0  0  0  0  0
  149.0927  135.5270  154.0928 H   0  0  0  0  0  0  0  0  0  0  0  0
  150.0467  134.8007  156.7674 H   0  0  0  0  0  0  0  0  0  0  0  0
  151.2979  134.9840  155.5514 H   0  0  0  0  0  0  0  0  0  0  0  0
  149.1967  137.1441  155.9227 H   0  0  0  0  0  0  0  0  0  0  0  0
  150.0461  136.9351  158.1945 H   0  0  0  0  0  0  0  0  0  0  0  0
  151.6934  136.7988  157.6087 H   0  0  0  0  0  0  0  0  0  0  0  0
  149.9373  139.2766  157.5747 H   0  0  0  0  0  0  0  0  0  0  0  0
  151.6061  139.1355  158.1544 H   0  0  0  0  0  0  0  0  0  0  0  0
  151.9877  137.0864  154.7349 H   0  0  0  0  0  0  0  0  0  0  0  0
  150.5081  137.7534  154.0301 H   0  0  0  0  0  0  0  0  0  0  0  0
  147.9402  134.3043  153.0752 H   0  0  0  0  0  0  0  0  0  0  0  0
  148.4173  130.8124  154.2462 H   0  0  0  0  0  0  0  0  0  0  0  0
  146.9711  128.9682  153.4480 H   0  0  0  0  0  0  0  0  0  0  0  0
  144.9563  129.5196  152.0633 H   0  0  0  0  0  0  0  0  0  0  0  0
  146.4405  134.1450  150.1950 H   0  0  0  0  0  0  0  0  0  0  0  0
  144.8761  133.3317  150.2833 H   0  0  0  0  0  0  0  0  0  0  0  0
  145.4747  136.2718  150.4927 H   0  0  0  0  0  0  0  0  0  0  0  0
  144.0614  135.4879  149.7916 H   0  0  0  0  0  0  0  0  0  0  0  0
  144.3751  136.5399  152.4699 H   0  0  0  0  0  0  0  0  0  0  0  0
  142.9674  135.6596  151.8816 H   0  0  0  0  0  0  0  0  0  0  0  0
  143.6974  133.6439  152.8001 H   0  0  0  0  0  0  0  0  0  0  0  0
  144.6948  134.6630  153.8388 H   0  0  0  0  0  0  0  0  0  0  0  0
  1  2  2  0  0  0  0
  2  3  1  0  0  0  0
  2 12  1  0  0  0  0
  3  4  1  0  0  0  0
  3 24  1  0  0  0  0
  4  5  1  0  0  0  0
  4 25  1  0  0  0  0
  4 26  1  0  0  0  0
  5 11  1  0  0  0  0
  5  6  1  0  0  0  0
  5 27  1  0  0  0  0
  6  7  1  0  0  0  0
  6 28  1  0  0  0  0
  6 29  1  0  0  0  0
  7  8  1  0  0  0  0
  7 30  1  0  0  0  0
  7 31  1  0  0  0  0
  8  9  2  0  0  0  0
  8 10  2  0  0  0  0
  8 11  1  0  0  0  0
 11 32  1  0  0  0  0
 11 33  1  0  0  0  0
 12 13  1  0  0  0  0
 12 34  1  0  0  0  0
 13 18  1  0  0  0  0
 13 14  2  0  0  0  0
 14 15  1  0  0  0  0
 14 35  1  0  0  0  0
 15 16  2  0  0  0  0
 15 36  1  0  0  0  0
 16 17  1  0  0  0  0
 16 37  1  0  0  0  0
 17 18  2  0  0  0  0
 18 19  1  0  0  0  0
 19 23  1  0  0  0  0
 19 20  1  0  0  0  0
 20 21  1  0  0  0  0
 20 38  1  0  0  0  0
 20 39  1  0  0  0  0
 21 22  1  0  0  0  0
 21 40  1  0  0  0  0
 21 41  1  0  0  0  0
 22 23  1  0  0  0  0
 22 42  1  0  0  0  0
 22 43  1  0  0  0  0
 23 44  1  0  0  0  0
 23 45  1  0  0  0  0
M  END
> <s_m_source_file>
AV-unprocessed.smi

> <i_m_source_file_index>
1424

> <i_lp_mmshare_version>
43012

> <i_f3d_flags>
0

> <s_epik_input>
Tz1TMSg9TylbQ0gyXVtDSDJdW0NASF0oW0NIMl0xKVtDSDJdW05IXUMoPU8pW05IXWMyW2NIXVtjSF1bY0hdbmMyTjNbQ0gyXVtDSDJdW0NIMl1bQ0gyXTM=

> <s_epik_cmdline>
J2VwaWtfcHl0aG9uJywgJy1waCcsICc3LjAnLCAnLXRuJywgJzgnLCAnLW1hJywgJzIwMCcsICctbWV0YWxfYmluZGluZycsICctaW1hZScsICc8aW5maWxlLm1hZT4nLCAnLW9tYWUnLCAnPG91dGZpbGUubWFlPic=

> <r_lp_tautomer_probability>
1

> <r_epik_Ionization_Penalty>
0.0965651

> <r_epik_Ionization_Penalty_Charging>
0

> <r_epik_Ionization_Penalty_Neutral>
0.0965651

> <r_epik_State_Penalty>
0.0861592

> <r_epik_Charging_Adjusted_Penalty>
0.0861592

> <i_epik_Tot_Q>
0

> <i_epik_Tot_abs_Q>
0

> <r_epik_Metal_State_Penalty>
0.0740444

> <b_epik_Metal_Only>
0

> <s_lp_Force_Field>
OPLS_2005

> <r_lp_Energy>
37.4342

> <b_lp_Chiralities_Consistent>
1

> <s_lp_Variant>
AV-unprocessed.smi:1424-2

> <Gold.Version>
5.8.1

> <Gold.Id.Protein>
6NUR|6NUR_protein|mol2

> <Gold.PLP.Fitness>
45.8953

> <Gold.PLP.PLP>
-36.7604

> <Gold.PLP.part.hbond>
-3.9828

> <Gold.PLP.part.metal>
0.0000

> <Gold.PLP.part.buried>
-4.6187

> <Gold.PLP.part.nonpolar>
-28.2915

> <Gold.PLP.part.repulsive>
0.3978

> <Gold.PLP.ligand.clash>
0.0000

> <Gold.PLP.ligand.torsion>
0.6510

> <Gold.PLP.Chemscore.Hbond>
3.4680

> <Gold.PLP.Chemscore.CHOScore>
0.0000

> <Gold.PLP.Chemscore.Metal>
0.0000

> <Gold.Chemscore.Hbonds>
donor molecule, donor type, donor heavy atom, donor atom, acceptor molecule, acceptor atom, score
      L1  H     3    24       P1  7948  0.28
      P1  H  7989  7998       L1     9  0.93
      P1  H  7997  8008       L1    10  1.00

> <Gold.PLP.Chemscore.Internal.Correction>
0.0329

> <Gold.Rescore>
     Score         DG    S(hbond)    S(metal)    S(lipo)     H(rot)  DE(clash)    DE(int)     intcor
     16.71     -18.77       2.63        0.00      70.63       1.47       0.27       1.78       ----

> <Gold.Chemscore.Fitness>
16.7141

> <Gold.Chemscore.DG>
-18.7651

> <Gold.Chemscore.ZeroCoef>
-5.4800

> <Gold.Chemscore.Hbond>
2.6336

> <Gold.Chemscore.Metal>
0.0000

> <Gold.Chemscore.Lipo>
70.6282

> <Gold.Chemscore.Internal_Hbond>
0.0000

> <Gold.Chemscore.DEClash>
0.2696

> <Gold.Chemscore.DEInternal>
1.7814

> <Gold.Chemscore.Rot>
1.4744

> <Gold.Chemscore.Internal.Correction>
   9.000000E+99

> <Gold.Chemscore.Hbonds>
donor molecule, donor type, donor heavy atom, donor atom, acceptor molecule, acceptor atom, score
      L1  H     3    24       P1  7948  0.22
      L1  H    12    34       P1  7948  0.03
      P1  H  7989  7998       L1     9  0.35
      P1  H  7997  8008       L1    10  1.00

> <Gold.Chemscore.Hbond.Weighted>
-8.7961

> <Gold.Chemscore.Metal.Weighted>
-0.0000

> <Gold.Chemscore.Lipo.Weighted>
-8.2635

> <Gold.Chemscore.Internal_Hbond.Weighted>
0.0000

> <Gold.Chemscore.DEClash.Weighted>
0.2696

> <Gold.Chemscore.DEInternal.Weighted>
1.7814

> <Gold.Chemscore.Rot.Weighted>
3.7744

> <Gold.Chemscore.Internal.Correction.Weighted>
   9.000000E+99

> <Gold.Protein.RotatedTorsions>
[ 6907 6896 6895 6894 ] final  175.23 input  -60.11 | X-H torsion
[ 7974 7965 7964 7962 ] final   56.56 input  175.53 | X-H torsion
[ 8008 7997 7996 7995 ] final  -33.43 input   59.86 | X-H torsion
[ 10167 10162 10161 10158 ] final   16.52 input  -65.29 | X-H torsion
[ 10718 10713 10712 10709 ] final   92.82 input   66.30 | X-H torsion
[ 10763 10752 10751 10750 ] final -164.37 input  -60.55 | X-H torsion
[ 11005 11000 10999 10996 ] final  178.49 input  -57.11 | X-H torsion

> <Gold.Protein.ActiveResidues>
 VAL166  LYS551  ARG553  GLY616  TRP617  ASP618  TYR619  PRO620  LYS621  CYS622 
 ASP623  PHE694  ASN695  SER759  ASP760  ASP761  ALA762  ILE779  LEU786  VAL792 
 PHE793  MET794  SER795  GLU796  ALA797  LYS798  CYS799  TRP800  GLU811  SER814 

> <Gold.Protein.RotatedAtoms>
  151.7395  133.3321  159.3361 H   0  0  0  0  0  0  0  0  0  0  0  0  # atno 6907 bound_to 6896
  150.7579  134.6291  159.6186 H   0  0  0  0  0  0  0  0  0  0  0  0  # atno 6908 bound_to 6896
  152.3540  134.6968  160.0279 H   0  0  0  0  0  0  0  0  0  0  0  0  # atno 6909 bound_to 6896
  145.9385  139.3868  143.0378 H   0  0  0  0  0  0  0  0  0  0  0  0  # atno 7974 bound_to 7965
  154.4149  140.1711  156.1886 H   0  0  0  0  0  0  0  0  0  0  0  0  # atno 8008 bound_to 7997
  155.9622  140.3392  155.6477 H   0  0  0  0  0  0  0  0  0  0  0  0  # atno 8009 bound_to 7997
  155.6734  140.0714  157.2502 H   0  0  0  0  0  0  0  0  0  0  0  0  # atno 8010 bound_to 7997
  140.5792  143.9014  150.6775 H   0  0  0  0  0  0  0  0  0  0  0  0  # atno 10167 bound_to 10162
  157.6957  131.0457  150.3941 H   0  0  0  0  0  0  0  0  0  0  0  0  # atno 10718 bound_to 10713
  154.7035  135.2992  154.9306 H   0  0  0  0  0  0  0  0  0  0  0  0  # atno 10763 bound_to 10752
  154.0230  135.6680  153.4778 H   0  0  0  0  0  0  0  0  0  0  0  0  # atno 10764 bound_to 10752
  153.0699  135.5067  154.8192 H   0  0  0  0  0  0  0  0  0  0  0  0  # atno 10765 bound_to 10752
  140.3957  134.6822  157.4533 H   0  0  0  0  0  0  0  0  0  0  0  0  # atno 11005 bound_to 11000
  145.8332  140.9620  143.0838 LP  0  0  0  0  0  0  0  0  0  0  0  0  # atno 17320 bound_to 7965
  144.6775  140.0189  143.7484 LP  0  0  0  0  0  0  0  0  0  0  0  0  # atno 17321 bound_to 7965
  140.2509  143.3594  152.1406 LP  0  0  0  0  0  0  0  0  0  0  0  0  # atno 17342 bound_to 10162
  139.5160  144.6971  151.5600 LP  0  0  0  0  0  0  0  0  0  0  0  0  # atno 17343 bound_to 10162
  156.4341  130.3978  149.6741 LP  0  0  0  0  0  0  0  0  0  0  0  0  # atno 17370 bound_to 10713
  156.3947  130.7645  151.2648 LP  0  0  0  0  0  0  0  0  0  0  0  0  # atno 17371 bound_to 10713
  140.0373  134.6318  155.9026 LP  0  0  0  0  0  0  0  0  0  0  0  0  # atno 17394 bound_to 11000
  141.1875  133.6560  156.5284 LP  0  0  0  0  0  0  0  0  0  0  0  0  # atno 17395 bound_to 11000

$$$$
