AV-unprocessed.smi:1453|AV-procd|sdf|5911|dock4
  -GOLD-   22720 5593D 1   1.00000     0.00000
 Structure written by MMmdl.
 43 44  0  0  0  0  0  0  0  0  1 V2000
  149.3659  133.6953  155.0505 C   0  0  0  0  0  0  0  0  0  0  0  0
  149.2042  135.0668  155.7249 C   0  0  2  0  0  0  0  0  0  0  0  0
  150.3006  136.0450  155.2837 C   0  0  0  0  0  0  0  0  0  0  0  0
  151.4851  135.8003  155.5135 O   0  0  0  0  0  0  0  0  0  0  0  0
  149.8917  137.1559  154.6504 N   0  0  0  0  0  0  0  0  0  0  0  0
  150.7738  138.2193  154.1827 C   0  0  0  0  0  0  0  0  0  0  0  0
  151.0964  139.2398  155.2606 C   0  0  0  0  0  0  0  0  0  0  0  0
  150.3118  140.3981  155.4279 C   0  0  0  0  0  0  0  0  0  0  0  0
  150.6466  141.3082  156.4482 C   0  0  0  0  0  0  0  0  0  0  0  0
  151.7628  141.0382  157.2758 C   0  0  0  0  0  0  0  0  0  0  0  0
  152.1141  141.9338  158.3094 N   0  0  0  0  0  0  0  0  0  0  0  0
  151.2054  143.0609  158.5058 C   0  0  0  0  0  0  0  0  0  0  0  0
  151.8445  144.1101  159.4321 C   0  0  0  0  0  0  0  0  0  0  0  0
  152.2388  143.4981  160.6556 O   0  0  0  0  0  0  0  0  0  0  0  0
  153.2101  142.4782  160.4481 C   0  0  0  0  0  0  0  0  0  0  0  0
  152.6161  141.3706  159.5618 C   0  0  0  0  0  0  0  0  0  0  0  0
  152.5229  139.9285  157.1001 N   0  0  0  0  0  0  0  0  0  0  0  0
  152.1959  139.0574  156.1227 C   0  0  0  0  0  0  0  0  0  0  0  0
  149.2280  134.8680  157.5688 S   0  0  0  0  0  0  0  0  0  0  0  0
  149.5191  133.0627  157.7924 C   0  0  0  0  0  0  0  0  0  0  0  0
  150.4011  135.5890  158.0860 O   0  0  0  0  0  0  0  0  0  0  0  0
  147.8951  135.1852  158.1042 O   0  0  0  0  0  0  0  0  0  0  0  0
  149.3670  133.7855  153.9635 H   0  0  0  0  0  0  0  0  0  0  0  0
  148.5463  133.0303  155.3233 H   0  0  0  0  0  0  0  0  0  0  0  0
  150.2960  133.2088  155.3479 H   0  0  0  0  0  0  0  0  0  0  0  0
  148.2275  135.4739  155.4606 H   0  0  0  0  0  0  0  0  0  0  0  0
  148.9024  137.2796  154.4909 H   0  0  0  0  0  0  0  0  0  0  0  0
  151.6920  137.7943  153.7734 H   0  0  0  0  0  0  0  0  0  0  0  0
  150.2800  138.7345  153.3586 H   0  0  0  0  0  0  0  0  0  0  0  0
  149.4638  140.5880  154.7863 H   0  0  0  0  0  0  0  0  0  0  0  0
  150.0557  142.2031  156.5737 H   0  0  0  0  0  0  0  0  0  0  0  0
  150.9409  143.5371  157.5630 H   0  0  0  0  0  0  0  0  0  0  0  0
  150.2779  142.6919  158.9456 H   0  0  0  0  0  0  0  0  0  0  0  0
  152.7058  144.5782  158.9525 H   0  0  0  0  0  0  0  0  0  0  0  0
  151.1302  144.9045  159.6478 H   0  0  0  0  0  0  0  0  0  0  0  0
  154.1071  142.9016  159.9931 H   0  0  0  0  0  0  0  0  0  0  0  0
  153.5060  142.0677  161.4137 H   0  0  0  0  0  0  0  0  0  0  0  0
  151.7997  140.8711  160.0858 H   0  0  0  0  0  0  0  0  0  0  0  0
  153.3823  140.6210  159.3596 H   0  0  0  0  0  0  0  0  0  0  0  0
  152.8295  138.1873  156.0321 H   0  0  0  0  0  0  0  0  0  0  0  0
  149.6647  132.8509  158.8513 H   0  0  0  0  0  0  0  0  0  0  0  0
  150.4077  132.7614  157.2384 H   0  0  0  0  0  0  0  0  0  0  0  0
  148.6549  132.5034  157.4362 H   0  0  0  0  0  0  0  0  0  0  0  0
  1  2  1  0  0  0  0
  1 23  1  0  0  0  0
  1 24  1  0  0  0  0
  1 25  1  0  0  0  0
  2  3  1  0  0  0  0
  2 19  1  0  0  0  0
  2 26  1  0  0  0  0
  3  4  2  0  0  0  0
  3  5  1  0  0  0  0
  5  6  1  0  0  0  0
  5 27  1  0  0  0  0
  6  7  1  0  0  0  0
  6 28  1  0  0  0  0
  6 29  1  0  0  0  0
  7 18  1  0  0  0  0
  7  8  2  0  0  0  0
  8  9  1  0  0  0  0
  8 30  1  0  0  0  0
  9 10  2  0  0  0  0
  9 31  1  0  0  0  0
 10 11  1  0  0  0  0
 10 17  1  0  0  0  0
 11 16  1  0  0  0  0
 11 12  1  0  0  0  0
 12 13  1  0  0  0  0
 12 32  1  0  0  0  0
 12 33  1  0  0  0  0
 13 14  1  0  0  0  0
 13 34  1  0  0  0  0
 13 35  1  0  0  0  0
 14 15  1  0  0  0  0
 15 16  1  0  0  0  0
 15 36  1  0  0  0  0
 15 37  1  0  0  0  0
 16 38  1  0  0  0  0
 16 39  1  0  0  0  0
 17 18  2  0  0  0  0
 18 40  1  0  0  0  0
 19 20  1  0  0  0  0
 19 21  2  0  0  0  0
 19 22  2  0  0  0  0
 20 41  1  0  0  0  0
 20 42  1  0  0  0  0
 20 43  1  0  0  0  0
M  END
> <s_m_source_file>
AV-unprocessed.smi

> <i_m_source_file_index>
1453

> <i_lp_mmshare_version>
43012

> <i_f3d_flags>
0

> <s_epik_input>
W0NIM11TKD1PKSg9TylbQ0BIXShbQ0gzXSlDKD1PKVtOSF1bQ0gyXWMxW2NIXVtjSF1jKG5bY0hdMSlOMltDSDJdW0NIMl1PW0NIMl1bQ0gyXTI=

> <s_epik_cmdline>
J2VwaWtfcHl0aG9uJywgJy1waCcsICc3LjAnLCAnLXRuJywgJzgnLCAnLW1hJywgJzIwMCcsICctbWV0YWxfYmluZGluZycsICctaW1hZScsICc8aW5maWxlLm1hZT4nLCAnLW9tYWUnLCAnPG91dGZpbGUubWFlPic=

> <r_lp_tautomer_probability>
1

> <r_epik_Ionization_Penalty>
0.00349781

> <r_epik_Ionization_Penalty_Charging>
0

> <r_epik_Ionization_Penalty_Neutral>
0.00349781

> <r_epik_State_Penalty>
0.00248024

> <r_epik_Charging_Adjusted_Penalty>
0.00248024

> <i_epik_Tot_Q>
0

> <i_epik_Tot_abs_Q>
0

> <r_epik_Metal_State_Penalty>
-0

> <b_epik_Metal_Only>
0

> <s_lp_Force_Field>
OPLS_2005

> <r_lp_Energy>
14.1024

> <b_lp_Chiralities_Consistent>
1

> <s_lp_Variant>
AV-unprocessed.smi:1453-1

> <Gold.Version>
5.8.1

> <Gold.Id.Protein>
6NUR|6NUR_protein|mol2

> <Gold.PLP.Fitness>
45.7352

> <Gold.PLP.PLP>
-38.6103

> <Gold.PLP.part.hbond>
-4.0000

> <Gold.PLP.part.metal>
0.0000

> <Gold.PLP.part.buried>
-5.0701

> <Gold.PLP.part.nonpolar>
-29.8539

> <Gold.PLP.part.repulsive>
0.1842

> <Gold.PLP.ligand.clash>
0.0000

> <Gold.PLP.ligand.torsion>
0.9582

> <Gold.PLP.Chemscore.Hbond>
2.8480

> <Gold.PLP.Chemscore.CHOScore>
0.0000

> <Gold.PLP.Chemscore.Metal>
0.0000

> <Gold.Chemscore.Hbonds>
donor molecule, donor type, donor heavy atom, donor atom, acceptor molecule, acceptor atom, score
      P1  H  6896  6907       L1    21  0.62
      P1  H  7997  8009       L1    17  1.00
      P1  H 10752 10763       L1     4  1.00

> <Gold.PLP.Chemscore.Internal.Correction>
0.4973

> <Gold.Rescore>
     Score         DG    S(hbond)    S(metal)    S(lipo)     H(rot)  DE(clash)    DE(int)     intcor
     15.32     -17.84       2.22        0.00      87.72       2.08       0.00       2.53       ----

> <Gold.Chemscore.Fitness>
15.3160

> <Gold.Chemscore.DG>
-17.8442

> <Gold.Chemscore.ZeroCoef>
-5.4800

> <Gold.Chemscore.Hbond>
2.2205

> <Gold.Chemscore.Metal>
0.0000

> <Gold.Chemscore.Lipo>
87.7208

> <Gold.Chemscore.Internal_Hbond>
0.0000

> <Gold.Chemscore.DEClash>
0.0000

> <Gold.Chemscore.DEInternal>
2.5282

> <Gold.Chemscore.Rot>
2.0764

> <Gold.Chemscore.Internal.Correction>
   9.000000E+99

> <Gold.Chemscore.Hbonds>
donor molecule, donor type, donor heavy atom, donor atom, acceptor molecule, acceptor atom, score
      P1  H  6896  6907       L1    21  0.12
      P1  H  7997  8009       L1    17  0.28
      P1  H 10752 10763       L1     4  0.99

> <Gold.Chemscore.Hbond.Weighted>
-7.4164

> <Gold.Chemscore.Metal.Weighted>
-0.0000

> <Gold.Chemscore.Lipo.Weighted>
-10.2633

> <Gold.Chemscore.Internal_Hbond.Weighted>
0.0000

> <Gold.Chemscore.DEClash.Weighted>
0.0000

> <Gold.Chemscore.DEInternal.Weighted>
2.5282

> <Gold.Chemscore.Rot.Weighted>
5.3155

> <Gold.Chemscore.Internal.Correction.Weighted>
   9.000000E+99

> <Gold.Protein.RotatedTorsions>
[ 6907 6896 6895 6894 ] final  -72.54 input  -60.11 | X-H torsion
[ 7974 7965 7964 7962 ] final  -56.72 input  175.53 | X-H torsion
[ 8008 7997 7996 7995 ] final  166.94 input   59.86 | X-H torsion
[ 10167 10162 10161 10158 ] final  167.02 input  -65.29 | X-H torsion
[ 10718 10713 10712 10709 ] final  -11.68 input   66.30 | X-H torsion
[ 10763 10752 10751 10750 ] final   58.24 input  -60.55 | X-H torsion
[ 11005 11000 10999 10996 ] final -163.98 input  -57.11 | X-H torsion

> <Gold.Protein.ActiveResidues>
 VAL166  LYS551  ARG553  GLY616  TRP617  ASP618  TYR619  PRO620  LYS621  CYS622 
 ASP623  PHE694  ASN695  SER759  ASP760  ASP761  ALA762  ILE779  LEU786  VAL792 
 PHE793  MET794  SER795  GLU796  ALA797  LYS798  CYS799  TRP800  GLU811  SER814 

> <Gold.Protein.RotatedAtoms>
  150.7166  134.5148  159.5624 H   0  0  0  0  0  0  0  0  0  0  0  0  # atno 6907 bound_to 6896
  152.2716  134.7923  160.0422 H   0  0  0  0  0  0  0  0  0  0  0  0  # atno 6908 bound_to 6896
  151.8601  133.3420  159.3738 H   0  0  0  0  0  0  0  0  0  0  0  0  # atno 6909 bound_to 6896
  145.8594  140.8296  142.9945 H   0  0  0  0  0  0  0  0  0  0  0  0  # atno 7974 bound_to 7965
  156.1676  140.1630  156.8504 H   0  0  0  0  0  0  0  0  0  0  0  0  # atno 8008 bound_to 7997
  154.5224  140.0775  156.8230 H   0  0  0  0  0  0  0  0  0  0  0  0  # atno 8009 bound_to 7997
  155.3579  140.3393  155.4242 H   0  0  0  0  0  0  0  0  0  0  0  0  # atno 8010 bound_to 7997
  139.4936  144.3966  151.9457 H   0  0  0  0  0  0  0  0  0  0  0  0  # atno 10167 bound_to 10162
  156.6556  130.4967  149.6047 H   0  0  0  0  0  0  0  0  0  0  0  0  # atno 10718 bound_to 10713
  152.9866  135.5613  154.5520 H   0  0  0  0  0  0  0  0  0  0  0  0  # atno 10763 bound_to 10752
  154.4956  135.2795  155.1464 H   0  0  0  0  0  0  0  0  0  0  0  0  # atno 10764 bound_to 10752
  154.2916  135.6325  153.5440 H   0  0  0  0  0  0  0  0  0  0  0  0  # atno 10765 bound_to 10752
  140.5920  134.5035  157.5194 H   0  0  0  0  0  0  0  0  0  0  0  0  # atno 11005 bound_to 11000
  144.6727  140.1073  143.7457 LP  0  0  0  0  0  0  0  0  0  0  0  0  # atno 17320 bound_to 7965
  145.9266  139.2579  143.1350 LP  0  0  0  0  0  0  0  0  0  0  0  0  # atno 17321 bound_to 7965
  140.3405  144.3209  150.5968 LP  0  0  0  0  0  0  0  0  0  0  0  0  # atno 17342 bound_to 10162
  140.5570  143.2197  151.7830 LP  0  0  0  0  0  0  0  0  0  0  0  0  # atno 17343 bound_to 10162
  156.2050  130.6644  151.1209 LP  0  0  0  0  0  0  0  0  0  0  0  0  # atno 17370 bound_to 10713
  157.7126  131.0726  150.6443 LP  0  0  0  0  0  0  0  0  0  0  0  0  # atno 17371 bound_to 10713
  139.9270  134.8037  156.1041 LP  0  0  0  0  0  0  0  0  0  0  0  0  # atno 17394 bound_to 11000
  141.0928  133.6707  156.2579 LP  0  0  0  0  0  0  0  0  0  0  0  0  # atno 17395 bound_to 11000

$$$$
