AV-unprocessed.smi:3163|AV-procd|sdf|12071|dock4
  -GOLD-   2272017503D 1   1.00000     0.00000
 Structure written by MMmdl.
 36 37  0  0  0  0  0  0  0  0  2 V2000
  144.3245  141.0118  156.0448 C   0  0  0  0  0  0  0  0  0  0  0  0
  145.1558  141.2153  154.8400 N   0  3  1  0  0  0  0  0  0  0  0  0
  145.3375  142.6333  154.4502 C   0  0  0  0  0  0  0  0  0  0  0  0
  146.8363  142.8303  154.1957 C   0  0  0  0  0  0  0  0  0  0  0  0
  147.3712  141.4151  153.9696 C   0  0  1  0  0  0  0  0  0  0  0  0
  148.8814  141.2340  154.2140 C   0  0  0  0  0  0  0  0  0  0  0  0
  149.3930  142.1842  155.1971 N   0  0  0  0  0  0  0  0  0  0  0  0
  150.2308  141.8885  156.2017 C   0  0  0  0  0  0  0  0  0  0  0  0
  150.6593  140.7544  156.4142 O   0  0  0  0  0  0  0  0  0  0  0  0
  150.5075  142.9784  156.9386 N   0  0  0  0  0  0  0  0  0  0  0  0
  151.3514  143.0942  158.0768 C   0  0  0  0  0  0  0  0  0  0  0  0
  152.0387  141.9387  158.5025 C   0  0  0  0  0  0  0  0  0  0  0  0
  152.8694  142.0211  159.6378 C   0  0  0  0  0  0  0  0  0  0  0  0
  153.0379  143.1533  160.3527 N   0  0  0  0  0  0  0  0  0  0  0  0
  152.3686  144.2550  159.9526 C   0  0  0  0  0  0  0  0  0  0  0  0
  151.5147  144.2811  158.8316 C   0  0  0  0  0  0  0  0  0  0  0  0
  146.4939  140.5928  154.9134 C   0  0  0  0  0  0  0  0  0  0  0  0
  144.7765  141.4817  156.9192 H   0  0  0  0  0  0  0  0  0  0  0  0
  144.2055  139.9474  156.2496 H   0  0  0  0  0  0  0  0  0  0  0  0
  143.3324  141.4401  155.8990 H   0  0  0  0  0  0  0  0  0  0  0  0
  144.7636  142.8165  153.5415 H   0  0  0  0  0  0  0  0  0  0  0  0
  144.9778  143.3259  155.2126 H   0  0  0  0  0  0  0  0  0  0  0  0
  147.0347  143.4975  153.3565 H   0  0  0  0  0  0  0  0  0  0  0  0
  147.2993  143.2654  155.0827 H   0  0  0  0  0  0  0  0  0  0  0  0
  147.1386  141.1195  152.9450 H   0  0  0  0  0  0  0  0  0  0  0  0
  149.1036  140.2080  154.5126 H   0  0  0  0  0  0  0  0  0  0  0  0
  149.4222  141.4016  153.2822 H   0  0  0  0  0  0  0  0  0  0  0  0
  149.0890  143.1424  155.1017 H   0  0  0  0  0  0  0  0  0  0  0  0
  150.0153  143.8214  156.6826 H   0  0  0  0  0  0  0  0  0  0  0  0
  151.9387  141.0040  157.9700 H   0  0  0  0  0  0  0  0  0  0  0  0
  153.4111  141.1525  159.9820 H   0  0  0  0  0  0  0  0  0  0  0  0
  152.5131  145.1439  160.5488 H   0  0  0  0  0  0  0  0  0  0  0  0
  151.0004  145.1973  158.5867 H   0  0  0  0  0  0  0  0  0  0  0  0
  146.8780  140.6639  155.9329 H   0  0  0  0  0  0  0  0  0  0  0  0
  146.4587  139.5377  154.6403 H   0  0  0  0  0  0  0  0  0  0  0  0
  144.6780  140.7728  154.0678 H   0  0  0  0  0  0  0  0  0  0  0  0
  1  2  1  0  0  0  0
  1 18  1  0  0  0  0
  1 19  1  0  0  0  0
  1 20  1  0  0  0  0
  2 17  1  0  0  0  0
  2  3  1  0  0  0  0
  2 36  1  0  0  0  0
  3  4  1  0  0  0  0
  3 21  1  0  0  0  0
  3 22  1  0  0  0  0
  4  5  1  0  0  0  0
  4 23  1  0  0  0  0
  4 24  1  0  0  0  0
  5  6  1  0  0  0  0
  5 17  1  0  0  0  0
  5 25  1  0  0  0  0
  6  7  1  0  0  0  0
  6 26  1  0  0  0  0
  6 27  1  0  0  0  0
  7  8  1  0  0  0  0
  7 28  1  0  0  0  0
  8  9  2  0  0  0  0
  8 10  1  0  0  0  0
 10 11  1  0  0  0  0
 10 29  1  0  0  0  0
 11 16  1  0  0  0  0
 11 12  2  0  0  0  0
 12 13  1  0  0  0  0
 12 30  1  0  0  0  0
 13 14  2  0  0  0  0
 13 31  1  0  0  0  0
 14 15  1  0  0  0  0
 15 16  2  0  0  0  0
 15 32  1  0  0  0  0
 16 33  1  0  0  0  0
 17 34  1  0  0  0  0
 17 35  1  0  0  0  0
M  CHG  1   2   1
M  END
> <s_m_source_file>
AV-unprocessed.smi

> <i_m_source_file_index>
3163

> <i_lp_mmshare_version>
43012

> <i_f3d_flags>
0

> <s_epik_input>
W0NIM11OMVtDSDJdW0NIMl1bQ0BIXShbQ0gyXTEpW0NIMl1bTkhdQyg9TylbTkhdYzJbY0hdW2NIXW5bY0hdW2NIXTI=

> <s_epik_cmdline>
J2VwaWtfcHl0aG9uJywgJy1waCcsICc3LjAnLCAnLXRuJywgJzgnLCAnLW1hJywgJzIwMCcsICctbWV0YWxfYmluZGluZycsICctaW1hZScsICc8aW5maWxlLm1hZT4nLCAnLW9tYWUnLCAnPG91dGZpbGUubWFlPic=

> <r_epik_Ionization_Penalty>
0.103936

> <r_epik_Ionization_Penalty_Charging>
0.0012301

> <r_epik_Ionization_Penalty_Neutral>
0.102706

> <r_epik_State_Penalty>
0.0926275

> <r_epik_Charging_Adjusted_Penalty>
0.0938576

> <i_epik_Tot_Q>
1

> <i_epik_Tot_abs_Q>
1

> <r_epik_Metal_State_Penalty>
0.0788376

> <b_epik_Metal_Only>
0

> <s_lp_Force_Field>
OPLS_2005

> <r_lp_Energy>
32.4174

> <b_lp_Chiralities_Consistent>
1

> <s_lp_Variant>
AV-unprocessed.smi:3163-1

> <Gold.Version>
5.8.1

> <Gold.Id.Protein>
6NUR|6NUR_protein|mol2

> <Gold.PLP.Fitness>
46.7591

> <Gold.PLP.PLP>
-35.7244

> <Gold.PLP.part.hbond>
-3.0000

> <Gold.PLP.part.metal>
0.0000

> <Gold.PLP.part.buried>
-5.6179

> <Gold.PLP.part.nonpolar>
-29.0943

> <Gold.PLP.part.repulsive>
0.2538

> <Gold.PLP.ligand.clash>
0.0000

> <Gold.PLP.ligand.torsion>
0.4846

> <Gold.PLP.Chemscore.Hbond>
4.0000

> <Gold.PLP.Chemscore.CHOScore>
0.0000

> <Gold.PLP.Chemscore.Metal>
0.0000

> <Gold.Chemscore.Hbonds>
donor molecule, donor type, donor heavy atom, donor atom, acceptor molecule, acceptor atom, score
      L1  H     2    36       P1 10175  2.00
      L1  H     7    28       P1  8028  1.00
      L1  H    10    29       P1  8028  1.00

> <Gold.PLP.Chemscore.Internal.Correction>
0.0039

> <Gold.Rescore>
     Score         DG    S(hbond)    S(metal)    S(lipo)     H(rot)  DE(clash)    DE(int)     intcor
     20.55     -22.51       2.94        0.00      89.09       1.26       0.02       1.94       ----

> <Gold.Chemscore.Fitness>
20.5545

> <Gold.Chemscore.DG>
-22.5146

> <Gold.Chemscore.ZeroCoef>
-5.4800

> <Gold.Chemscore.Hbond>
2.9419

> <Gold.Chemscore.Metal>
0.0000

> <Gold.Chemscore.Lipo>
89.0912

> <Gold.Chemscore.Internal_Hbond>
0.0000

> <Gold.Chemscore.DEClash>
0.0155

> <Gold.Chemscore.DEInternal>
1.9446

> <Gold.Chemscore.Rot>
1.2559

> <Gold.Chemscore.Internal.Correction>
   9.000000E+99

> <Gold.Chemscore.Hbonds>
donor molecule, donor type, donor heavy atom, donor atom, acceptor molecule, acceptor atom, score
      L1  H     2    36       P1 10175  0.97
      L1  H     7    28       P1  8028  0.98
      L1  H    10    29       P1  8028  0.97

> <Gold.Chemscore.Hbond.Weighted>
-9.8260

> <Gold.Chemscore.Metal.Weighted>
-0.0000

> <Gold.Chemscore.Lipo.Weighted>
-10.4237

> <Gold.Chemscore.Internal_Hbond.Weighted>
0.0000

> <Gold.Chemscore.DEClash.Weighted>
0.0155

> <Gold.Chemscore.DEInternal.Weighted>
1.9446

> <Gold.Chemscore.Rot.Weighted>
3.2151

> <Gold.Chemscore.Internal.Correction.Weighted>
   9.000000E+99

> <Gold.Protein.RotatedTorsions>
[ 6907 6896 6895 6894 ] final -176.33 input  -60.11 | X-H torsion
[ 7974 7965 7964 7962 ] final  106.48 input  175.53 | X-H torsion
[ 8008 7997 7996 7995 ] final   87.50 input   59.86 | X-H torsion
[ 10167 10162 10161 10158 ] final  -15.59 input  -65.29 | X-H torsion
[ 10718 10713 10712 10709 ] final  160.25 input   66.30 | X-H torsion
[ 10763 10752 10751 10750 ] final  -58.19 input  -60.55 | X-H torsion
[ 11005 11000 10999 10996 ] final  -21.24 input  -57.11 | X-H torsion

> <Gold.Protein.ActiveResidues>
 VAL166  LYS551  ARG553  GLY616  TRP617  ASP618  TYR619  PRO620  LYS621  CYS622 
 ASP623  PHE694  ASN695  SER759  ASP760  ASP761  ALA762  ILE779  LEU786  VAL792 
 PHE793  MET794  SER795  GLU796  ALA797  LYS798  CYS799  TRP800  GLU811  SER814 

> <Gold.Protein.RotatedAtoms>
  151.6030  133.3354  159.3051 H   0  0  0  0  0  0  0  0  0  0  0  0  # atno 6907 bound_to 6896
  150.8197  134.7402  159.6773 H   0  0  0  0  0  0  0  0  0  0  0  0  # atno 6908 bound_to 6896
  152.4291  134.5817  160.0001 H   0  0  0  0  0  0  0  0  0  0  0  0  # atno 6909 bound_to 6896
  145.3060  139.2554  143.3788 H   0  0  0  0  0  0  0  0  0  0  0  0  # atno 7974 bound_to 7965
  155.9761  140.3381  155.6620 H   0  0  0  0  0  0  0  0  0  0  0  0  # atno 8008 bound_to 7997
  155.6610  140.0716  157.2572 H   0  0  0  0  0  0  0  0  0  0  0  0  # atno 8009 bound_to 7997
  154.4179  140.1708  156.1764 H   0  0  0  0  0  0  0  0  0  0  0  0  # atno 8010 bound_to 7997
  140.7221  143.5202  150.9642 H   0  0  0  0  0  0  0  0  0  0  0  0  # atno 10167 bound_to 10162
  157.1530  131.0568  151.2271 H   0  0  0  0  0  0  0  0  0  0  0  0  # atno 10718 bound_to 10713
  154.2342  135.6355  153.5185 H   0  0  0  0  0  0  0  0  0  0  0  0  # atno 10763 bound_to 10752
  152.9943  135.5527  154.5979 H   0  0  0  0  0  0  0  0  0  0  0  0  # atno 10764 bound_to 10752
  154.5470  135.2899  155.1018 H   0  0  0  0  0  0  0  0  0  0  0  0  # atno 10765 bound_to 10752
  140.8542  133.7835  156.0000 H   0  0  0  0  0  0  0  0  0  0  0  0  # atno 11005 bound_to 11000
  146.3135  140.3586  142.8662 LP  0  0  0  0  0  0  0  0  0  0  0  0  # atno 17320 bound_to 7965
  144.9054  140.7693  143.5841 LP  0  0  0  0  0  0  0  0  0  0  0  0  # atno 17321 bound_to 7965
  139.8919  143.6942  152.3144 LP  0  0  0  0  0  0  0  0  0  0  0  0  # atno 17342 bound_to 10162
  139.7261  144.7592  151.0877 LP  0  0  0  0  0  0  0  0  0  0  0  0  # atno 17343 bound_to 10162
  157.4203  130.7434  149.6908 LP  0  0  0  0  0  0  0  0  0  0  0  0  # atno 17370 bound_to 10713
  155.9767  130.4072  150.3761 LP  0  0  0  0  0  0  0  0  0  0  0  0  # atno 17371 bound_to 10713
  140.8756  134.2673  157.5169 LP  0  0  0  0  0  0  0  0  0  0  0  0  # atno 17394 bound_to 11000
  139.8705  134.9589  156.4316 LP  0  0  0  0  0  0  0  0  0  0  0  0  # atno 17395 bound_to 11000

$$$$
