AV-unprocessed.smi:842|AV-procd|sdf|3918|dock2
  -GOLD-   22720 1383D 1   1.00000     0.00000
 Structure written by MMmdl.
 42 43  0  0  0  0  0  0  0  0  1 V2000
  144.1169  135.6269  151.1219 C   0  0  0  0  0  0  0  0  0  0  0  0
  145.5531  136.1505  151.2656 C   0  0  0  0  0  0  0  0  0  0  0  0
  145.6616  137.4397  152.1072 C   0  0  1  0  0  0  0  0  0  0  0  0
  144.7057  137.4762  153.3160 C   0  0  0  0  0  0  0  0  0  0  0  0
  143.4111  137.9093  152.9493 O   0  0  0  0  0  0  0  0  0  0  0  0
  147.0356  137.6710  152.5542 N   0  0  0  0  0  0  0  0  0  0  0  0
  147.4272  138.5539  153.4848 C   0  0  0  0  0  0  0  0  0  0  0  0
  146.6534  139.2889  154.0976 O   0  0  0  0  0  0  0  0  0  0  0  0
  148.7588  138.5095  153.6626 N   0  0  0  0  0  0  0  0  0  0  0  0
  149.5621  139.2985  154.5302 C   0  0  0  0  0  0  0  0  0  0  0  0
  150.9612  139.1453  154.6799 C   0  0  0  0  0  0  0  0  0  0  0  0
  151.6436  139.9753  155.5896 C   0  0  0  0  0  0  0  0  0  0  0  0
  150.9109  140.9293  156.3248 C   0  0  0  0  0  0  0  0  0  0  0  0
  151.5957  141.7530  157.2311 N   0  0  0  0  0  0  0  0  0  0  0  0
  151.3898  143.1826  157.0661 C   0  0  0  0  0  0  0  0  0  0  0  0
  151.9053  143.8185  158.3594 C   0  0  0  0  0  0  0  0  0  0  0  0
  151.8537  142.6918  159.3987 C   0  0  0  0  0  0  0  0  0  0  0  0
  151.3322  141.4727  158.6324 C   0  0  0  0  0  0  0  0  0  0  0  0
  149.5701  141.0717  156.1967 N   0  0  0  0  0  0  0  0  0  0  0  0
  148.9211  140.2712  155.3249 C   0  0  0  0  0  0  0  0  0  0  0  0
  144.1009  134.6924  150.5610 H   0  0  0  0  0  0  0  0  0  0  0  0
  143.4819  136.3383  150.5937 H   0  0  0  0  0  0  0  0  0  0  0  0
  143.6682  135.4367  152.0970 H   0  0  0  0  0  0  0  0  0  0  0  0
  146.1622  135.3722  151.7267 H   0  0  0  0  0  0  0  0  0  0  0  0
  145.9702  136.3141  150.2712 H   0  0  0  0  0  0  0  0  0  0  0  0
  145.3559  138.2632  151.4597 H   0  0  0  0  0  0  0  0  0  0  0  0
  144.6404  136.4963  153.7906 H   0  0  0  0  0  0  0  0  0  0  0  0
  145.0886  138.1656  154.0690 H   0  0  0  0  0  0  0  0  0  0  0  0
  143.4808  138.7663  152.5571 H   0  0  0  0  0  0  0  0  0  0  0  0
  147.7464  137.1055  152.1136 H   0  0  0  0  0  0  0  0  0  0  0  0
  149.2512  137.7931  153.1492 H   0  0  0  0  0  0  0  0  0  0  0  0
  151.5202  138.4036  154.1313 H   0  0  0  0  0  0  0  0  0  0  0  0
  152.7113  139.8769  155.7211 H   0  0  0  0  0  0  0  0  0  0  0  0
  151.9240  143.5579  156.1928 H   0  0  0  0  0  0  0  0  0  0  0  0
  150.3304  143.4080  156.9356 H   0  0  0  0  0  0  0  0  0  0  0  0
  152.9344  144.1566  158.2304 H   0  0  0  0  0  0  0  0  0  0  0  0
  151.3055  144.6814  158.6500 H   0  0  0  0  0  0  0  0  0  0  0  0
  152.8548  142.4978  159.7856 H   0  0  0  0  0  0  0  0  0  0  0  0
  151.2116  142.9374  160.2449 H   0  0  0  0  0  0  0  0  0  0  0  0
  150.2611  141.3522  158.8024 H   0  0  0  0  0  0  0  0  0  0  0  0
  151.8294  140.5558  158.9504 H   0  0  0  0  0  0  0  0  0  0  0  0
  147.8526  140.4169  155.2581 H   0  0  0  0  0  0  0  0  0  0  0  0
  1  2  1  0  0  0  0
  1 21  1  0  0  0  0
  1 22  1  0  0  0  0
  1 23  1  0  0  0  0
  2  3  1  0  0  0  0
  2 24  1  0  0  0  0
  2 25  1  0  0  0  0
  3  4  1  0  0  0  0
  3  6  1  0  0  0  0
  3 26  1  0  0  0  0
  4  5  1  0  0  0  0
  4 27  1  0  0  0  0
  4 28  1  0  0  0  0
  5 29  1  0  0  0  0
  6  7  1  0  0  0  0
  6 30  1  0  0  0  0
  7  8  2  0  0  0  0
  7  9  1  0  0  0  0
  9 10  1  0  0  0  0
  9 31  1  0  0  0  0
 10 20  1  0  0  0  0
 10 11  2  0  0  0  0
 11 12  1  0  0  0  0
 11 32  1  0  0  0  0
 12 13  2  0  0  0  0
 12 33  1  0  0  0  0
 13 14  1  0  0  0  0
 13 19  1  0  0  0  0
 14 18  1  0  0  0  0
 14 15  1  0  0  0  0
 15 16  1  0  0  0  0
 15 34  1  0  0  0  0
 15 35  1  0  0  0  0
 16 17  1  0  0  0  0
 16 36  1  0  0  0  0
 16 37  1  0  0  0  0
 17 18  1  0  0  0  0
 17 38  1  0  0  0  0
 17 39  1  0  0  0  0
 18 40  1  0  0  0  0
 18 41  1  0  0  0  0
 19 20  2  0  0  0  0
 20 42  1  0  0  0  0
M  END
> <s_m_source_file>
AV-unprocessed.smi

> <i_m_source_file_index>
842

> <i_lp_mmshare_version>
43012

> <i_f3d_flags>
0

> <s_epik_input>
W0NIM11bQ0gyXVtDQEhdKFtDSDJdW09IXSlbTkhdQyg9TylbTkhdYzFbY0hdW2NIXWMobltjSF0xKU4yW0NIMl1bQ0gyXVtDSDJdW0NIMl0y

> <s_epik_cmdline>
J2VwaWtfcHl0aG9uJywgJy1waCcsICc3LjAnLCAnLXRuJywgJzgnLCAnLW1hJywgJzIwMCcsICctbWV0YWxfYmluZGluZycsICctaW1hZScsICc8aW5maWxlLm1hZT4nLCAnLW9tYWUnLCAnPG91dGZpbGUubWFlPic=

> <r_lp_tautomer_probability>
1

> <r_epik_Ionization_Penalty>
0.0996525

> <r_epik_Ionization_Penalty_Charging>
0

> <r_epik_Ionization_Penalty_Neutral>
0.0996525

> <r_epik_State_Penalty>
0.0891422

> <r_epik_Charging_Adjusted_Penalty>
0.0891422

> <i_epik_Tot_Q>
0

> <i_epik_Tot_abs_Q>
0

> <r_epik_Metal_State_Penalty>
0.07624

> <b_epik_Metal_Only>
0

> <s_lp_Force_Field>
OPLS_2005

> <r_lp_Energy>
38.339

> <b_lp_Chiralities_Consistent>
1

> <s_lp_Variant>
AV-unprocessed.smi:842-2

> <Gold.Version>
5.8.1

> <Gold.Id.Protein>
6NUR|6NUR_protein|mol2

> <Gold.PLP.Fitness>
41.4738

> <Gold.PLP.PLP>
-34.3842

> <Gold.PLP.part.hbond>
-3.7454

> <Gold.PLP.part.metal>
0.0000

> <Gold.PLP.part.buried>
-2.5087

> <Gold.PLP.part.nonpolar>
-29.6554

> <Gold.PLP.part.repulsive>
0.3145

> <Gold.PLP.ligand.clash>
0.0000

> <Gold.PLP.ligand.torsion>
0.8304

> <Gold.PLP.Chemscore.Hbond>
2.8882

> <Gold.PLP.Chemscore.CHOScore>
0.0000

> <Gold.PLP.Chemscore.Metal>
0.0000

> <Gold.Chemscore.Hbonds>
donor molecule, donor type, donor heavy atom, donor atom, acceptor molecule, acceptor atom, score
      L1  H     5    29       P1 10175  1.00
      L1  H     6    30       P1  7948  0.91
      L1  H     9    31       P1  7948  0.86

> <Gold.PLP.Chemscore.Internal.Correction>
0.0860

> <Gold.Rescore>
     Score         DG    S(hbond)    S(metal)    S(lipo)     H(rot)  DE(clash)    DE(int)     intcor
     15.64     -19.20       2.81        0.00      85.87       2.23       0.15       3.41       ----

> <Gold.Chemscore.Fitness>
15.6434

> <Gold.Chemscore.DG>
-19.1975

> <Gold.Chemscore.ZeroCoef>
-5.4800

> <Gold.Chemscore.Hbond>
2.8063

> <Gold.Chemscore.Metal>
0.0000

> <Gold.Chemscore.Lipo>
85.8702

> <Gold.Chemscore.Internal_Hbond>
0.0000

> <Gold.Chemscore.DEClash>
0.1454

> <Gold.Chemscore.DEInternal>
3.4087

> <Gold.Chemscore.Rot>
2.2274

> <Gold.Chemscore.Internal.Correction>
   9.000000E+99

> <Gold.Chemscore.Hbonds>
donor molecule, donor type, donor heavy atom, donor atom, acceptor molecule, acceptor atom, score
      L1  H     5    29       P1 10175  0.99
      L1  H     6    30       P1  7948  0.87
      L1  H     9    31       P1  7948  0.79

> <Gold.Chemscore.Hbond.Weighted>
-9.3729

> <Gold.Chemscore.Metal.Weighted>
-0.0000

> <Gold.Chemscore.Lipo.Weighted>
-10.0468

> <Gold.Chemscore.Internal_Hbond.Weighted>
0.0000

> <Gold.Chemscore.DEClash.Weighted>
0.1454

> <Gold.Chemscore.DEInternal.Weighted>
3.4087

> <Gold.Chemscore.Rot.Weighted>
5.7022

> <Gold.Chemscore.Internal.Correction.Weighted>
   9.000000E+99

> <Gold.Protein.RotatedTorsions>
[ 6907 6896 6895 6894 ] final  -66.38 input  -60.11 | X-H torsion
[ 7974 7965 7964 7962 ] final   55.63 input  175.53 | X-H torsion
[ 8008 7997 7996 7995 ] final -140.14 input   59.86 | X-H torsion
[ 10167 10162 10161 10158 ] final  161.87 input  -65.29 | X-H torsion
[ 10718 10713 10712 10709 ] final    6.80 input   66.30 | X-H torsion
[ 10763 10752 10751 10750 ] final -122.19 input  -60.55 | X-H torsion
[ 11005 11000 10999 10996 ] final   50.71 input  -57.11 | X-H torsion

> <Gold.Protein.ActiveResidues>
 VAL166  LYS551  ARG553  GLY616  TRP617  ASP618  TYR619  PRO620  LYS621  CYS622 
 ASP623  PHE694  ASN695  SER759  ASP760  ASP761  ALA762  ILE779  LEU786  VAL792 
 PHE793  MET794  SER795  GLU796  ALA797  LYS798  CYS799  TRP800  GLU811  SER814 

> <Gold.Protein.RotatedAtoms>
  150.7469  134.6029  159.6045 H   0  0  0  0  0  0  0  0  0  0  0  0  # atno 6907 bound_to 6896
  152.3385  134.7162  160.0279 H   0  0  0  0  0  0  0  0  0  0  0  0  # atno 6908 bound_to 6896
  151.7622  133.3298  159.3457 H   0  0  0  0  0  0  0  0  0  0  0  0  # atno 6909 bound_to 6896
  145.9484  139.3950  143.0321 H   0  0  0  0  0  0  0  0  0  0  0  0  # atno 7974 bound_to 7965
  155.4565  140.0542  157.2995 H   0  0  0  0  0  0  0  0  0  0  0  0  # atno 8008 bound_to 7997
  154.4755  140.2059  155.9844 H   0  0  0  0  0  0  0  0  0  0  0  0  # atno 8009 bound_to 7997
  156.1125  140.3202  155.8097 H   0  0  0  0  0  0  0  0  0  0  0  0  # atno 8010 bound_to 7997
  139.4854  144.4494  151.8850 H   0  0  0  0  0  0  0  0  0  0  0  0  # atno 10167 bound_to 10162
  156.9275  130.5813  149.5649 H   0  0  0  0  0  0  0  0  0  0  0  0  # atno 10718 bound_to 10713
  154.8684  135.4141  154.2741 H   0  0  0  0  0  0  0  0  0  0  0  0  # atno 10763 bound_to 10752
  153.3646  135.7005  153.6691 H   0  0  0  0  0  0  0  0  0  0  0  0  # atno 10764 bound_to 10752
  153.5578  135.3616  155.2759 H   0  0  0  0  0  0  0  0  0  0  0  0  # atno 10765 bound_to 10752
  140.0995  134.5101  155.8776 H   0  0  0  0  0  0  0  0  0  0  0  0  # atno 11005 bound_to 11000
  145.8205  140.9681  143.0901 LP  0  0  0  0  0  0  0  0  0  0  0  0  # atno 17320 bound_to 7965
  144.6791  140.0035  143.7484 LP  0  0  0  0  0  0  0  0  0  0  0  0  # atno 17321 bound_to 7965
  140.3950  144.2567  150.5897 LP  0  0  0  0  0  0  0  0  0  0  0  0  # atno 17342 bound_to 10162
  140.5111  143.2290  151.8534 LP  0  0  0  0  0  0  0  0  0  0  0  0  # atno 17343 bound_to 10162
  156.0462  130.5538  150.8886 LP  0  0  0  0  0  0  0  0  0  0  0  0  # atno 17370 bound_to 10713
  157.5868  131.0945  150.9183 LP  0  0  0  0  0  0  0  0  0  0  0  0  # atno 17371 bound_to 10713
  141.2101  133.6691  156.6489 LP  0  0  0  0  0  0  0  0  0  0  0  0  # atno 17394 bound_to 11000
  140.3240  134.7984  157.4275 LP  0  0  0  0  0  0  0  0  0  0  0  0  # atno 17395 bound_to 11000

$$$$
