AV-unprocessed.smi:3185|AV-procd|sdf|12172|dock1
  -GOLD-   2272018 13D 1   1.00000     0.00000
 Structure written by MMmdl.
 37 38  0  0  0  0  0  0  0  0  1 V2000
  153.7794  139.1832  154.7015 N   0  0  0  0  0  0  0  0  0  0  0  0
  152.7301  138.7022  154.7785 C   0  0  0  0  0  0  0  0  0  0  0  0
  151.3964  138.0908  154.8772 C   0  0  0  0  0  0  0  0  0  0  0  0
  151.0749  137.6092  156.2978 C   0  0  0  0  0  0  0  0  0  0  0  0
  150.6664  138.7487  157.2406 C   0  0  0  0  0  0  0  0  0  0  0  0
  151.8572  139.3709  157.8008 N   0  0  0  0  0  0  0  0  0  0  0  0
  151.5831  140.7029  158.3334 C   0  0  1  0  0  0  0  0  0  0  0  0
  152.7272  141.1488  159.2728 C   0  0  0  0  0  0  0  0  0  0  0  0
  152.5308  142.5924  159.7606 C   0  0  0  0  0  0  0  0  0  0  0  0
  152.3892  143.5646  158.5814 C   0  0  0  0  0  0  0  0  0  0  0  0
  151.2414  143.1389  157.6551 C   0  0  0  0  0  0  0  0  0  0  0  0
  151.4301  141.6936  157.1492 C   0  0  2  0  0  0  0  0  0  0  0  0
  150.3448  141.3168  156.2507 N   0  0  0  0  0  0  0  0  0  0  0  0
  148.9866  141.4166  156.4713 C   0  0  0  0  0  0  0  0  0  0  0  0
  148.3549  140.9485  155.3551 C   0  0  0  0  0  0  0  0  0  0  0  0
  149.4238  140.5760  154.4936 C   0  0  0  0  0  0  0  0  0  0  0  0
  150.6123  140.7976  155.0306 N   0  0  0  0  0  0  0  0  0  0  0  0
  150.6643  138.8283  154.5478 H   0  0  0  0  0  0  0  0  0  0  0  0
  151.3614  137.2608  154.1712 H   0  0  0  0  0  0  0  0  0  0  0  0
  150.2923  136.8497  156.2678 H   0  0  0  0  0  0  0  0  0  0  0  0
  151.9578  137.1169  156.7065 H   0  0  0  0  0  0  0  0  0  0  0  0
  150.1041  139.4944  156.6773 H   0  0  0  0  0  0  0  0  0  0  0  0
  150.0128  138.3718  158.0269 H   0  0  0  0  0  0  0  0  0  0  0  0
  152.5457  139.4571  157.0664 H   0  0  0  0  0  0  0  0  0  0  0  0
  150.6452  140.6831  158.8908 H   0  0  0  0  0  0  0  0  0  0  0  0
  152.7936  140.4934  160.1406 H   0  0  0  0  0  0  0  0  0  0  0  0
  153.6840  141.0719  158.7541 H   0  0  0  0  0  0  0  0  0  0  0  0
  151.6412  142.6473  160.3891 H   0  0  0  0  0  0  0  0  0  0  0  0
  153.3712  142.8902  160.3881 H   0  0  0  0  0  0  0  0  0  0  0  0
  152.2121  144.5748  158.9520 H   0  0  0  0  0  0  0  0  0  0  0  0
  153.3230  143.5994  158.0187 H   0  0  0  0  0  0  0  0  0  0  0  0
  150.2969  143.2277  158.1938 H   0  0  0  0  0  0  0  0  0  0  0  0
  151.1801  143.8249  156.8096 H   0  0  0  0  0  0  0  0  0  0  0  0
  152.3514  141.6689  156.5639 H   0  0  0  0  0  0  0  0  0  0  0  0
  148.5860  141.8104  157.3939 H   0  0  0  0  0  0  0  0  0  0  0  0
  147.2911  140.8816  155.1810 H   0  0  0  0  0  0  0  0  0  0  0  0
  149.3720  140.1548  153.5005 H   0  0  0  0  0  0  0  0  0  0  0  0
  1  2  3  0  0  0  0
  2  3  1  0  0  0  0
  3  4  1  0  0  0  0
  3 18  1  0  0  0  0
  3 19  1  0  0  0  0
  4  5  1  0  0  0  0
  4 20  1  0  0  0  0
  4 21  1  0  0  0  0
  5  6  1  0  0  0  0
  5 22  1  0  0  0  0
  5 23  1  0  0  0  0
  6  7  1  0  0  0  0
  6 24  1  0  0  0  0
  7 12  1  0  0  0  0
  7  8  1  0  0  0  0
  7 25  1  0  0  0  0
  8  9  1  0  0  0  0
  8 26  1  0  0  0  0
  8 27  1  0  0  0  0
  9 10  1  0  0  0  0
  9 28  1  0  0  0  0
  9 29  1  0  0  0  0
 10 11  1  0  0  0  0
 10 30  1  0  0  0  0
 10 31  1  0  0  0  0
 11 12  1  0  0  0  0
 11 32  1  0  0  0  0
 11 33  1  0  0  0  0
 12 13  1  0  0  0  0
 12 34  1  0  0  0  0
 13 17  1  0  0  0  0
 13 14  1  0  0  0  0
 14 15  2  0  0  0  0
 14 35  1  0  0  0  0
 15 16  1  0  0  0  0
 15 36  1  0  0  0  0
 16 17  2  0  0  0  0
 16 37  1  0  0  0  0
M  END
> <s_m_source_file>
AV-unprocessed.smi

> <i_m_source_file_index>
3185

> <i_lp_mmshare_version>
43012

> <i_f3d_flags>
0

> <s_epik_input>
TiNDW0NIMl1bQ0gyXVtDSDJdW05IXVtDQEBIXTFbQ0gyXVtDSDJdW0NIMl1bQ0gyXVtDQEhdMW4yW2NIXVtjSF1bY0hdbjI=

> <s_epik_cmdline>
J2VwaWtfcHl0aG9uJywgJy1waCcsICc3LjAnLCAnLXRuJywgJzgnLCAnLW1hJywgJzIwMCcsICctbWV0YWxfYmluZGluZycsICctaW1hZScsICc8aW5maWxlLm1hZT4nLCAnLW9tYWUnLCAnPG91dGZpbGUubWFlPic=

> <r_lp_tautomer_probability>
1

> <r_epik_Ionization_Penalty>
2.21326

> <r_epik_Ionization_Penalty_Charging>
0

> <r_epik_Ionization_Penalty_Neutral>
2.21326

> <r_epik_State_Penalty>
2.35651

> <r_epik_Charging_Adjusted_Penalty>
2.35651

> <i_epik_Tot_Q>
0

> <i_epik_Tot_abs_Q>
0

> <r_epik_Metal_State_Penalty>
2.3555

> <b_epik_Metal_Only>
0

> <s_lp_Force_Field>
OPLS_2005

> <r_lp_Energy>
16.6477

> <b_lp_Chiralities_Consistent>
1

> <s_lp_Variant>
AV-unprocessed.smi:3185-8

> <Gold.Version>
5.8.1

> <Gold.Id.Protein>
6NUR|6NUR_protein|mol2

> <Gold.PLP.Fitness>
41.8009

> <Gold.PLP.PLP>
-34.4174

> <Gold.PLP.part.hbond>
-2.0000

> <Gold.PLP.part.metal>
0.0000

> <Gold.PLP.part.buried>
-4.5957

> <Gold.PLP.part.nonpolar>
-27.8480

> <Gold.PLP.part.repulsive>
0.0930

> <Gold.PLP.ligand.clash>
0.0000

> <Gold.PLP.ligand.torsion>
0.6378

> <Gold.PLP.Chemscore.Hbond>
1.8480

> <Gold.PLP.Chemscore.CHOScore>
1.0000

> <Gold.PLP.Chemscore.Metal>
0.0000

> <Gold.Chemscore.Hbonds>
donor molecule, donor type, donor heavy atom, donor atom, acceptor molecule, acceptor atom, score
      P1  H  7989  7998       L1    17  0.85
      P1  H  7997  8008       L1     1  1.00
      L1  C    16    37       P1  7957  1.00

> <Gold.PLP.Chemscore.Internal.Correction>
0.1150

> <Gold.Rescore>
     Score         DG    S(hbond)    S(metal)    S(lipo)     H(rot)  DE(clash)    DE(int)     intcor
     14.71     -16.52       1.65        0.00      87.03       1.81       0.02       1.79       ----

> <Gold.Chemscore.Fitness>
14.7106

> <Gold.Chemscore.DG>
-16.5202

> <Gold.Chemscore.ZeroCoef>
-5.4800

> <Gold.Chemscore.Hbond>
1.6451

> <Gold.Chemscore.Metal>
0.0000

> <Gold.Chemscore.Lipo>
87.0252

> <Gold.Chemscore.Internal_Hbond>
0.0000

> <Gold.Chemscore.DEClash>
0.0186

> <Gold.Chemscore.DEInternal>
1.7911

> <Gold.Chemscore.Rot>
1.8110

> <Gold.Chemscore.Internal.Correction>
   9.000000E+99

> <Gold.Chemscore.Hbonds>
donor molecule, donor type, donor heavy atom, donor atom, acceptor molecule, acceptor atom, score
      P1  H  7989  7998       L1    17  0.21
      P1  H  7997  8008       L1     1  0.96

> <Gold.Chemscore.Hbond.Weighted>
-5.4945

> <Gold.Chemscore.Metal.Weighted>
-0.0000

> <Gold.Chemscore.Lipo.Weighted>
-10.1819

> <Gold.Chemscore.Internal_Hbond.Weighted>
0.0000

> <Gold.Chemscore.DEClash.Weighted>
0.0186

> <Gold.Chemscore.DEInternal.Weighted>
1.7911

> <Gold.Chemscore.Rot.Weighted>
4.6362

> <Gold.Chemscore.Internal.Correction.Weighted>
   9.000000E+99

> <Gold.Protein.RotatedTorsions>
[ 6907 6896 6895 6894 ] final  105.41 input  -60.11 | X-H torsion
[ 7974 7965 7964 7962 ] final  -98.63 input  175.53 | X-H torsion
[ 8008 7997 7996 7995 ] final  -12.22 input   59.86 | X-H torsion
[ 10167 10162 10161 10158 ] final -114.46 input  -65.29 | X-H torsion
[ 10718 10713 10712 10709 ] final  133.86 input   66.30 | X-H torsion
[ 10763 10752 10751 10750 ] final  157.63 input  -60.55 | X-H torsion
[ 11005 11000 10999 10996 ] final  -48.52 input  -57.11 | X-H torsion

> <Gold.Protein.ActiveResidues>
 VAL166  LYS551  ARG553  GLY616  TRP617  ASP618  TYR619  PRO620  LYS621  CYS622 
 ASP623  PHE694  ASN695  SER759  ASP760  ASP761  ALA762  ILE779  LEU786  VAL792 
 PHE793  MET794  SER795  GLU796  ALA797  LYS798  CYS799  TRP800  GLU811  SER814 

> <Gold.Protein.RotatedAtoms>
  152.5231  133.9532  159.7681 H   0  0  0  0  0  0  0  0  0  0  0  0  # atno 6907 bound_to 6896
  150.9838  133.6210  159.2725 H   0  0  0  0  0  0  0  0  0  0  0  0  # atno 6908 bound_to 6896
  151.3378  135.0862  159.9414 H   0  0  0  0  0  0  0  0  0  0  0  0  # atno 6909 bound_to 6896
  145.3181  140.9415  143.2731 H   0  0  0  0  0  0  0  0  0  0  0  0  # atno 7974 bound_to 7965
  154.5396  140.2282  155.8663 H   0  0  0  0  0  0  0  0  0  0  0  0  # atno 8008 bound_to 7997
  156.1846  140.3092  155.9175 H   0  0  0  0  0  0  0  0  0  0  0  0  # atno 8009 bound_to 7997
  155.3284  140.0444  157.3032 H   0  0  0  0  0  0  0  0  0  0  0  0  # atno 8010 bound_to 7997
  140.1007  143.4615  152.1813 H   0  0  0  0  0  0  0  0  0  0  0  0  # atno 10167 bound_to 10162
  157.4731  131.1081  150.9778 H   0  0  0  0  0  0  0  0  0  0  0  0  # atno 10718 bound_to 10713
  154.2032  135.2789  155.2983 H   0  0  0  0  0  0  0  0  0  0  0  0  # atno 10763 bound_to 10752
  154.5837  135.5581  153.7214 H   0  0  0  0  0  0  0  0  0  0  0  0  # atno 10764 bound_to 10752
  153.0082  135.6351  154.2171 H   0  0  0  0  0  0  0  0  0  0  0  0  # atno 10765 bound_to 10752
  141.0705  133.6680  156.3453 H   0  0  0  0  0  0  0  0  0  0  0  0  # atno 11005 bound_to 11000
  144.8961  139.4710  143.6654 LP  0  0  0  0  0  0  0  0  0  0  0  0  # atno 17320 bound_to 7965
  146.3093  139.7688  142.9032 LP  0  0  0  0  0  0  0  0  0  0  0  0  # atno 17321 bound_to 7965
  139.5673  144.7442  151.3988 LP  0  0  0  0  0  0  0  0  0  0  0  0  # atno 17342 bound_to 10162
  140.6979  143.7704  150.7356 LP  0  0  0  0  0  0  0  0  0  0  0  0  # atno 17343 bound_to 10162
  157.0536  130.5797  149.5374 LP  0  0  0  0  0  0  0  0  0  0  0  0  # atno 17370 bound_to 10713
  156.0083  130.5172  150.7904 LP  0  0  0  0  0  0  0  0  0  0  0  0  # atno 17371 bound_to 10713
  140.5683  134.5866  157.5451 LP  0  0  0  0  0  0  0  0  0  0  0  0  # atno 17394 bound_to 11000
  139.9519  134.7602  156.0429 LP  0  0  0  0  0  0  0  0  0  0  0  0  # atno 17395 bound_to 11000

$$$$
