AV-unprocessed.smi:1765|AV-procd|sdf|7134|dock9
  -GOLD-   22720 8373D 1   1.00000     0.00000
 Structure written by MMmdl.
 39 40  0  0  0  0  0  0  0  0  1 V2000
  146.7418  140.6472  153.4836 C   0  0  0  0  0  0  0  0  0  0  0  0
  148.0118  140.3169  154.1123 N   0  0  0  0  0  0  0  0  0  0  0  0
  148.2945  140.5199  155.4098 C   0  0  0  0  0  0  0  0  0  0  0  0
  147.4721  141.0181  156.1804 O   0  0  0  0  0  0  0  0  0  0  0  0
  149.6426  140.0956  155.7956 C   0  0  0  0  0  0  0  0  0  0  0  0
  150.5641  139.4414  154.8783 C   0  0  0  0  0  0  0  0  0  0  0  0
  151.7951  139.0766  155.2875 C   0  0  0  0  0  0  0  0  0  0  0  0
  152.2563  139.3177  156.6575 C   0  0  0  0  0  0  0  0  0  0  0  0
  153.3806  138.9873  157.0357 O   0  0  0  0  0  0  0  0  0  0  0  0
  151.3588  139.9302  157.4879 N   0  0  0  0  0  0  0  0  0  0  0  0
  151.7094  140.2222  158.8881 C   0  0  0  0  0  0  0  0  0  0  0  0
  151.6783  141.7209  159.2190 C   0  0  0  0  0  0  0  0  0  0  0  0
  150.6129  142.2917  159.4561 O   0  0  0  0  0  0  0  0  0  0  0  0
  152.8681  142.3396  159.2533 N   0  0  0  0  0  0  0  0  0  0  0  0
  153.0741  143.7550  159.5485 C   0  0  0  0  0  0  0  0  0  0  0  0
  152.4149  144.1363  160.8885 C   0  0  0  0  0  0  0  0  0  0  0  0
  151.5868  145.3926  160.6129 C   0  0  0  0  0  0  0  0  0  0  0  0
  151.1931  145.2728  159.1443 C   0  0  0  0  0  0  0  0  0  0  0  0
  152.4221  144.6534  158.4790 C   0  0  0  0  0  0  0  0  0  0  0  0
  150.0741  140.3123  157.0538 C   0  0  0  0  0  0  0  0  0  0  0  0
  146.7622  140.3612  152.4321 H   0  0  0  0  0  0  0  0  0  0  0  0
  146.5466  141.7187  153.5420 H   0  0  0  0  0  0  0  0  0  0  0  0
  145.9199  140.1159  153.9651 H   0  0  0  0  0  0  0  0  0  0  0  0
  148.7229  139.9043  153.5265 H   0  0  0  0  0  0  0  0  0  0  0  0
  150.2874  139.2351  153.8550 H   0  0  0  0  0  0  0  0  0  0  0  0
  152.4620  138.5935  154.5884 H   0  0  0  0  0  0  0  0  0  0  0  0
  151.0281  139.7121  159.5702 H   0  0  0  0  0  0  0  0  0  0  0  0
  152.6967  139.8168  159.1182 H   0  0  0  0  0  0  0  0  0  0  0  0
  153.6925  141.7917  159.0539 H   0  0  0  0  0  0  0  0  0  0  0  0
  154.1438  143.9677  159.5991 H   0  0  0  0  0  0  0  0  0  0  0  0
  151.7513  143.3414  161.2330 H   0  0  0  0  0  0  0  0  0  0  0  0
  153.1510  144.3021  161.6755 H   0  0  0  0  0  0  0  0  0  0  0  0
  150.7245  145.4805  161.2745 H   0  0  0  0  0  0  0  0  0  0  0  0
  152.2067  146.2790  160.7539 H   0  0  0  0  0  0  0  0  0  0  0  0
  150.3416  144.5983  159.0454 H   0  0  0  0  0  0  0  0  0  0  0  0
  150.9143  146.2303  158.7035 H   0  0  0  0  0  0  0  0  0  0  0  0
  153.1194  145.4462  158.2052 H   0  0  0  0  0  0  0  0  0  0  0  0
  152.1662  144.1235  157.5606 H   0  0  0  0  0  0  0  0  0  0  0  0
  149.4738  140.7954  157.8121 H   0  0  0  0  0  0  0  0  0  0  0  0
  1  2  1  0  0  0  0
  1 21  1  0  0  0  0
  1 22  1  0  0  0  0
  1 23  1  0  0  0  0
  2  3  1  0  0  0  0
  2 24  1  0  0  0  0
  3  4  2  0  0  0  0
  3  5  1  0  0  0  0
  5 20  2  0  0  0  0
  5  6  1  0  0  0  0
  6  7  2  0  0  0  0
  6 25  1  0  0  0  0
  7  8  1  0  0  0  0
  7 26  1  0  0  0  0
  8  9  2  0  0  0  0
  8 10  1  0  0  0  0
 10 11  1  0  0  0  0
 10 20  1  0  0  0  0
 11 12  1  0  0  0  0
 11 27  1  0  0  0  0
 11 28  1  0  0  0  0
 12 13  2  0  0  0  0
 12 14  1  0  0  0  0
 14 15  1  0  0  0  0
 14 29  1  0  0  0  0
 15 19  1  0  0  0  0
 15 16  1  0  0  0  0
 15 30  1  0  0  0  0
 16 17  1  0  0  0  0
 16 31  1  0  0  0  0
 16 32  1  0  0  0  0
 17 18  1  0  0  0  0
 17 33  1  0  0  0  0
 17 34  1  0  0  0  0
 18 19  1  0  0  0  0
 18 35  1  0  0  0  0
 18 36  1  0  0  0  0
 19 37  1  0  0  0  0
 19 38  1  0  0  0  0
 20 39  1  0  0  0  0
M  END
> <s_m_source_file>
AV-unprocessed.smi

> <i_m_source_file_index>
1765

> <i_lp_mmshare_version>
43012

> <i_f3d_flags>
0

> <s_epik_input>
W0NIM11bTkhdQyg9TyljMVtjSF1bY0hdYyg9TyluKFtjSF0xKVtDSDJdQyg9TylbTkhdW0NIXTJbQ0gyXVtDSDJdW0NIMl1bQ0gyXTI=

> <s_epik_cmdline>
J2VwaWtfcHl0aG9uJywgJy1waCcsICc3LjAnLCAnLXRuJywgJzgnLCAnLW1hJywgJzIwMCcsICctbWV0YWxfYmluZGluZycsICctaW1hZScsICc8aW5maWxlLm1hZT4nLCAnLW9tYWUnLCAnPG91dGZpbGUubWFlPic=

> <r_lp_tautomer_probability>
1

> <r_epik_Ionization_Penalty>
3.69544e-07

> <r_epik_Ionization_Penalty_Charging>
4.98828e-08

> <r_epik_Ionization_Penalty_Neutral>
3.19661e-07

> <r_epik_State_Penalty>
-0

> <r_epik_Charging_Adjusted_Penalty>
4.98828e-08

> <i_epik_Tot_Q>
0

> <i_epik_Tot_abs_Q>
0

> <r_epik_Metal_State_Penalty>
-0

> <b_epik_Metal_Only>
0

> <s_lp_Force_Field>
OPLS_2005

> <r_lp_Energy>
30.5558

> <b_lp_Chiralities_Consistent>
1

> <s_lp_Variant>
AV-unprocessed.smi:1765-1

> <Gold.Version>
5.8.1

> <Gold.Id.Protein>
6NUR|6NUR_protein|mol2

> <Gold.PLP.Fitness>
48.3239

> <Gold.PLP.PLP>
-43.6536

> <Gold.PLP.part.hbond>
-2.5165

> <Gold.PLP.part.metal>
0.0000

> <Gold.PLP.part.buried>
-3.9612

> <Gold.PLP.part.nonpolar>
-37.0080

> <Gold.PLP.part.repulsive>
0.2804

> <Gold.PLP.ligand.clash>
0.0000

> <Gold.PLP.ligand.torsion>
0.3092

> <Gold.PLP.Chemscore.Hbond>
1.7600

> <Gold.PLP.Chemscore.CHOScore>
0.0000

> <Gold.PLP.Chemscore.Metal>
0.0000

> <Gold.Chemscore.Hbonds>
donor molecule, donor type, donor heavy atom, donor atom, acceptor molecule, acceptor atom, score
      P1  H  7997  8009       L1     9  0.98

> <Gold.PLP.Chemscore.Internal.Correction>
0.0087

> <Gold.Rescore>
     Score         DG    S(hbond)    S(metal)    S(lipo)     H(rot)  DE(clash)    DE(int)     intcor
     13.97     -16.75       0.94        0.00     102.85       1.52       0.05       2.73       ----

> <Gold.Chemscore.Fitness>
13.9734

> <Gold.Chemscore.DG>
-16.7508

> <Gold.Chemscore.ZeroCoef>
-5.4800

> <Gold.Chemscore.Hbond>
0.9404

> <Gold.Chemscore.Metal>
0.0000

> <Gold.Chemscore.Lipo>
102.8522

> <Gold.Chemscore.Internal_Hbond>
0.0000

> <Gold.Chemscore.DEClash>
0.0497

> <Gold.Chemscore.DEInternal>
2.7277

> <Gold.Chemscore.Rot>
1.5250

> <Gold.Chemscore.Internal.Correction>
   9.000000E+99

> <Gold.Chemscore.Hbonds>
donor molecule, donor type, donor heavy atom, donor atom, acceptor molecule, acceptor atom, score
      P1  H  7997  8009       L1     9  0.82

> <Gold.Chemscore.Hbond.Weighted>
-3.1410

> <Gold.Chemscore.Metal.Weighted>
-0.0000

> <Gold.Chemscore.Lipo.Weighted>
-12.0337

> <Gold.Chemscore.Internal_Hbond.Weighted>
0.0000

> <Gold.Chemscore.DEClash.Weighted>
0.0497

> <Gold.Chemscore.DEInternal.Weighted>
2.7277

> <Gold.Chemscore.Rot.Weighted>
3.9039

> <Gold.Chemscore.Internal.Correction.Weighted>
   9.000000E+99

> <Gold.Protein.RotatedTorsions>
[ 6907 6896 6895 6894 ] final  145.03 input  -60.11 | X-H torsion
[ 7974 7965 7964 7962 ] final  -82.29 input  175.53 | X-H torsion
[ 8008 7997 7996 7995 ] final  168.18 input   59.86 | X-H torsion
[ 10167 10162 10161 10158 ] final  122.73 input  -65.29 | X-H torsion
[ 10718 10713 10712 10709 ] final  -53.64 input   66.30 | X-H torsion
[ 10763 10752 10751 10750 ] final -168.67 input  -60.55 | X-H torsion
[ 11005 11000 10999 10996 ] final  162.88 input  -57.11 | X-H torsion

> <Gold.Protein.ActiveResidues>
 VAL166  LYS551  ARG553  GLY616  TRP617  ASP618  TYR619  PRO620  LYS621  CYS622 
 ASP623  PHE694  ASN695  SER759  ASP760  ASP761  ALA762  ILE779  LEU786  VAL792 
 PHE793  MET794  SER795  GLU796  ALA797  LYS798  CYS799  TRP800  GLU811  SER814 

> <Gold.Protein.RotatedAtoms>
  152.1861  133.4741  159.4983 H   0  0  0  0  0  0  0  0  0  0  0  0  # atno 6907 bound_to 6896
  150.6943  134.1772  159.4243 H   0  0  0  0  0  0  0  0  0  0  0  0  # atno 6908 bound_to 6896
  151.9685  135.0088  160.0602 H   0  0  0  0  0  0  0  0  0  0  0  0  # atno 6909 bound_to 6896
  145.5353  140.9516  143.1581 H   0  0  0  0  0  0  0  0  0  0  0  0  # atno 7974 bound_to 7965
  156.1569  140.1597  156.8677 H   0  0  0  0  0  0  0  0  0  0  0  0  # atno 8008 bound_to 7997
  154.5123  140.0798  156.8051 H   0  0  0  0  0  0  0  0  0  0  0  0  # atno 8009 bound_to 7997
  155.3785  140.3404  155.4248 H   0  0  0  0  0  0  0  0  0  0  0  0  # atno 8010 bound_to 7997
  139.5841  144.6999  151.3453 H   0  0  0  0  0  0  0  0  0  0  0  0  # atno 10167 bound_to 10162
  156.1518  130.4151  149.9933 H   0  0  0  0  0  0  0  0  0  0  0  0  # atno 10718 bound_to 10713
  154.6604  135.2924  154.9874 H   0  0  0  0  0  0  0  0  0  0  0  0  # atno 10763 bound_to 10752
  154.0936  135.6587  153.4860 H   0  0  0  0  0  0  0  0  0  0  0  0  # atno 10764 bound_to 10752
  153.0426  135.5226  154.7552 H   0  0  0  0  0  0  0  0  0  0  0  0  # atno 10765 bound_to 10752
  140.2302  134.8130  157.3309 H   0  0  0  0  0  0  0  0  0  0  0  0  # atno 11005 bound_to 11000
  144.7605  139.6969  143.7236 LP  0  0  0  0  0  0  0  0  0  0  0  0  # atno 17320 bound_to 7965
  146.2017  139.5316  142.9739 LP  0  0  0  0  0  0  0  0  0  0  0  0  # atno 17321 bound_to 7965
  140.7115  143.7377  150.7576 LP  0  0  0  0  0  0  0  0  0  0  0  0  # atno 17342 bound_to 10162
  140.0917  143.4871  152.2475 LP  0  0  0  0  0  0  0  0  0  0  0  0  # atno 17343 bound_to 10162
  156.7789  130.9214  151.3645 LP  0  0  0  0  0  0  0  0  0  0  0  0  # atno 17370 bound_to 10713
  157.6663  130.9010  149.9939 LP  0  0  0  0  0  0  0  0  0  0  0  0  # atno 17371 bound_to 10713
  140.1758  134.4551  155.7802 LP  0  0  0  0  0  0  0  0  0  0  0  0  # atno 17394 bound_to 11000
  141.2218  133.6962  156.7785 LP  0  0  0  0  0  0  0  0  0  0  0  0  # atno 17395 bound_to 11000

$$$$
