AV-unprocessed.smi:2066|AV-procd|sdf|8421|dock5
  -GOLD-   2272011113D 1   1.00000     0.00000
 Structure written by MMmdl.
 38 39  0  0  0  0  0  0  0  0  2 V2000
  147.7314  138.1317  155.0807 C   0  0  0  0  0  0  0  0  0  0  0  0
  148.5186  139.2104  155.8631 C   0  0  0  0  0  0  0  0  0  0  0  0
  148.1974  140.5793  155.2111 C   0  0  0  0  0  0  0  0  0  0  0  0
  147.9236  139.2602  157.2995 C   0  0  0  0  0  0  0  0  0  0  0  0
  147.9587  137.9580  157.9595 N   0  0  0  0  0  0  0  0  0  0  0  0
  148.9175  137.5386  158.7945 C   0  0  0  0  0  0  0  0  0  0  0  0
  149.8762  138.2724  159.0461 O   0  0  0  0  0  0  0  0  0  0  0  0
  148.7051  136.2977  159.2887 N   0  5  0  0  0  0  0  0  0  0  0  0
  148.1528  136.1438  160.5029 C   0  0  0  0  0  0  0  0  0  0  0  0
  147.8265  137.1738  161.2921 N   0  0  0  0  0  0  0  0  0  0  0  0
  147.2710  136.7842  162.5120 C   0  0  0  0  0  0  0  0  0  0  0  0
  147.1824  135.4253  162.6600 C   0  0  0  0  0  0  0  0  0  0  0  0
  147.7955  134.5896  161.2616 S   0  0  0  0  0  0  0  0  0  0  0  0
  149.9872  138.9599  155.8834 N   0  0  0  0  0  0  0  0  0  0  0  0
  150.7698  139.9173  156.6728 C   0  0  0  0  0  0  0  0  0  0  0  0
  152.2551  139.5243  156.7505 C   0  0  0  0  0  0  0  0  0  0  0  0
  152.7893  139.4025  155.4378 O   0  0  0  0  0  0  0  0  0  0  0  0
  152.0942  138.4366  154.6583 C   0  0  0  0  0  0  0  0  0  0  0  0
  150.6086  138.8212  154.5611 C   0  0  0  0  0  0  0  0  0  0  0  0
  146.6621  138.3467  155.0883 H   0  0  0  0  0  0  0  0  0  0  0  0
  147.8540  137.1391  155.5134 H   0  0  0  0  0  0  0  0  0  0  0  0
  148.0331  138.0781  154.0351 H   0  0  0  0  0  0  0  0  0  0  0  0
  147.1488  140.8488  155.3417 H   0  0  0  0  0  0  0  0  0  0  0  0
  148.3780  140.5789  154.1363 H   0  0  0  0  0  0  0  0  0  0  0  0
  148.7947  141.3818  155.6457 H   0  0  0  0  0  0  0  0  0  0  0  0
  148.4791  139.9693  157.9156 H   0  0  0  0  0  0  0  0  0  0  0  0
  146.8995  139.6351  157.2853 H   0  0  0  0  0  0  0  0  0  0  0  0
  147.1860  137.3335  157.7800 H   0  0  0  0  0  0  0  0  0  0  0  0
  146.9676  137.5429  163.2179 H   0  0  0  0  0  0  0  0  0  0  0  0
  146.7970  134.8676  163.5001 H   0  0  0  0  0  0  0  0  0  0  0  0
  150.6925  140.9147  156.2401 H   0  0  0  0  0  0  0  0  0  0  0  0
  150.3917  139.9825  157.6914 H   0  0  0  0  0  0  0  0  0  0  0  0
  152.8189  140.2816  157.2950 H   0  0  0  0  0  0  0  0  0  0  0  0
  152.3779  138.5839  157.2903 H   0  0  0  0  0  0  0  0  0  0  0  0
  152.5402  138.3931  153.6648 H   0  0  0  0  0  0  0  0  0  0  0  0
  152.2076  137.4470  155.1039 H   0  0  0  0  0  0  0  0  0  0  0  0
  150.1082  138.0531  153.9740 H   0  0  0  0  0  0  0  0  0  0  0  0
  150.5218  139.7538  154.0036 H   0  0  0  0  0  0  0  0  0  0  0  0
  1  2  1  0  0  0  0
  1 20  1  0  0  0  0
  1 21  1  0  0  0  0
  1 22  1  0  0  0  0
  2  3  1  0  0  0  0
  2  4  1  0  0  0  0
  2 14  1  0  0  0  0
  3 23  1  0  0  0  0
  3 24  1  0  0  0  0
  3 25  1  0  0  0  0
  4  5  1  0  0  0  0
  4 26  1  0  0  0  0
  4 27  1  0  0  0  0
  5  6  1  0  0  0  0
  5 28  1  0  0  0  0
  6  7  2  0  0  0  0
  6  8  1  0  0  0  0
  8  9  1  0  0  0  0
  9 13  1  0  0  0  0
  9 10  2  0  0  0  0
 10 11  1  0  0  0  0
 11 12  2  0  0  0  0
 11 29  1  0  0  0  0
 12 13  1  0  0  0  0
 12 30  1  0  0  0  0
 14 19  1  0  0  0  0
 14 15  1  0  0  0  0
 15 16  1  0  0  0  0
 15 31  1  0  0  0  0
 15 32  1  0  0  0  0
 16 17  1  0  0  0  0
 16 33  1  0  0  0  0
 16 34  1  0  0  0  0
 17 18  1  0  0  0  0
 18 19  1  0  0  0  0
 18 35  1  0  0  0  0
 18 36  1  0  0  0  0
 19 37  1  0  0  0  0
 19 38  1  0  0  0  0
M  CHG  1   8  -1
M  END
> <s_m_source_file>
AV-unprocessed.smi

> <i_m_source_file_index>
2066

> <i_lp_mmshare_version>
43012

> <i_f3d_flags>
0

> <s_epik_input>
W0NIMl0xW0NIMl1PW0NIMl1bQ0gyXU4xQyhbQ0gzXSkoW0NIM10pW0NIMl1bTkhdQyg9TylbTkhdYzJuW2NIXVtjSF1zMg==

> <s_epik_cmdline>
J2VwaWtfcHl0aG9uJywgJy1waCcsICc3LjAnLCAnLXRuJywgJzgnLCAnLW1hJywgJzIwMCcsICctbWV0YWxfYmluZGluZycsICctaW1hZScsICc8aW5maWxlLm1hZT4nLCAnLW9tYWUnLCAnPG91dGZpbGUubWFlPic=

> <r_lp_tautomer_probability>
0.999

> <r_epik_Ionization_Penalty>
7.22375

> <r_epik_Ionization_Penalty_Charging>
5.82415

> <r_epik_Ionization_Penalty_Neutral>
1.39959

> <r_epik_State_Penalty>
6.03347

> <r_epik_Charging_Adjusted_Penalty>
11.8576

> <i_epik_Tot_Q>
-1

> <i_epik_Tot_abs_Q>
1

> <r_epik_Metal_State_Penalty>
2.0104

> <b_epik_Metal_Only>
1

> <s_lp_Force_Field>
OPLS_2005

> <r_lp_Energy>
36.7798

> <b_lp_Chiralities_Consistent>
1

> <s_lp_Variant>
AV-unprocessed.smi:2066-3

> <Gold.Version>
5.8.1

> <Gold.Id.Protein>
6NUR|6NUR_protein|mol2

> <Gold.PLP.Fitness>
36.5334

> <Gold.PLP.PLP>
-29.9000

> <Gold.PLP.part.hbond>
-3.9322

> <Gold.PLP.part.metal>
0.0000

> <Gold.PLP.part.buried>
-4.7702

> <Gold.PLP.part.nonpolar>
-21.6136

> <Gold.PLP.part.repulsive>
0.0957

> <Gold.PLP.ligand.clash>
0.0000

> <Gold.PLP.ligand.torsion>
0.9755

> <Gold.PLP.Chemscore.Hbond>
2.8400

> <Gold.PLP.Chemscore.CHOScore>
0.0000

> <Gold.PLP.Chemscore.Metal>
0.0000

> <Gold.Chemscore.Hbonds>
donor molecule, donor type, donor heavy atom, donor atom, acceptor molecule, acceptor atom, score
      P1  H  6931  6943       L1    10  0.90
      P1  H  6934  6947       L1    10  0.77
      P1  H  7997  8008       L1    17  0.85

> <Gold.PLP.Chemscore.Internal.Correction>
0.0644

> <Gold.Rescore>
     Score         DG    S(hbond)    S(metal)    S(lipo)     H(rot)  DE(clash)    DE(int)     intcor
     14.14     -15.26       2.13        0.00      56.67       1.55       0.02       1.09       ----

> <Gold.Chemscore.Fitness>
14.1442

> <Gold.Chemscore.DG>
-15.2551

> <Gold.Chemscore.ZeroCoef>
-5.4800

> <Gold.Chemscore.Hbond>
2.1291

> <Gold.Chemscore.Metal>
0.0000

> <Gold.Chemscore.Lipo>
56.6726

> <Gold.Chemscore.Internal_Hbond>
0.0000

> <Gold.Chemscore.DEClash>
0.0245

> <Gold.Chemscore.DEInternal>
1.0864

> <Gold.Chemscore.Rot>
1.5495

> <Gold.Chemscore.Internal.Correction>
   9.000000E+99

> <Gold.Chemscore.Hbonds>
donor molecule, donor type, donor heavy atom, donor atom, acceptor molecule, acceptor atom, score
      P1  H  6931  6943       L1    10  0.17
      P1  H  6934  6947       L1    10  0.46
      P1  H  7997  8008       L1    17  0.14

> <Gold.Chemscore.Hbond.Weighted>
-7.1111

> <Gold.Chemscore.Metal.Weighted>
-0.0000

> <Gold.Chemscore.Lipo.Weighted>
-6.6307

> <Gold.Chemscore.Internal_Hbond.Weighted>
0.0000

> <Gold.Chemscore.DEClash.Weighted>
0.0245

> <Gold.Chemscore.DEInternal.Weighted>
1.0864

> <Gold.Chemscore.Rot.Weighted>
3.9666

> <Gold.Chemscore.Internal.Correction.Weighted>
   9.000000E+99

> <Gold.Protein.RotatedTorsions>
[ 6907 6896 6895 6894 ] final  -80.46 input  -60.11 | X-H torsion
[ 7974 7965 7964 7962 ] final -109.57 input  175.53 | X-H torsion
[ 8008 7997 7996 7995 ] final   -8.07 input   59.86 | X-H torsion
[ 10167 10162 10161 10158 ] final -131.78 input  -65.29 | X-H torsion
[ 10718 10713 10712 10709 ] final  -89.00 input   66.30 | X-H torsion
[ 10763 10752 10751 10750 ] final  148.58 input  -60.55 | X-H torsion
[ 11005 11000 10999 10996 ] final  -47.97 input  -57.11 | X-H torsion

> <Gold.Protein.ActiveResidues>
 VAL166  LYS551  ARG553  GLY616  TRP617  ASP618  TYR619  PRO620  LYS621  CYS622 
 ASP623  PHE694  ASN695  SER759  ASP760  ASP761  ALA762  ILE779  LEU786  VAL792 
 PHE793  MET794  SER795  GLU796  ALA797  LYS798  CYS799  TRP800  GLU811  SER814 

> <Gold.Protein.RotatedAtoms>
  150.6929  134.3966  159.5099 H   0  0  0  0  0  0  0  0  0  0  0  0  # atno 6907 bound_to 6896
  152.1746  134.8802  160.0540 H   0  0  0  0  0  0  0  0  0  0  0  0  # atno 6908 bound_to 6896
  151.9816  133.3725  159.4146 H   0  0  0  0  0  0  0  0  0  0  0  0  # atno 6909 bound_to 6896
  145.1789  140.8961  143.3492 H   0  0  0  0  0  0  0  0  0  0  0  0  # atno 7974 bound_to 7965
  154.5777  140.2390  155.8099 H   0  0  0  0  0  0  0  0  0  0  0  0  # atno 8008 bound_to 7997
  156.2155  140.3013  155.9787 H   0  0  0  0  0  0  0  0  0  0  0  0  # atno 8009 bound_to 7997
  155.2597  140.0414  157.2986 H   0  0  0  0  0  0  0  0  0  0  0  0  # atno 8010 bound_to 7997
  139.9154  143.6445  152.2566 H   0  0  0  0  0  0  0  0  0  0  0  0  # atno 10167 bound_to 10162
  155.9984  130.4856  150.5105 H   0  0  0  0  0  0  0  0  0  0  0  0  # atno 10718 bound_to 10713
  154.0571  135.2877  155.3331 H   0  0  0  0  0  0  0  0  0  0  0  0  # atno 10763 bound_to 10752
  154.6832  135.5255  153.8294 H   0  0  0  0  0  0  0  0  0  0  0  0  # atno 10764 bound_to 10752
  153.0537  135.6587  154.0763 H   0  0  0  0  0  0  0  0  0  0  0  0  # atno 10765 bound_to 10752
  141.0673  133.6690  156.3374 H   0  0  0  0  0  0  0  0  0  0  0  0  # atno 11005 bound_to 11000
  145.0157  139.3470  143.6098 LP  0  0  0  0  0  0  0  0  0  0  0  0  # atno 17320 bound_to 7965
  146.3456  139.9437  142.8737 LP  0  0  0  0  0  0  0  0  0  0  0  0  # atno 17321 bound_to 7965
  139.6907  144.7647  151.1444 LP  0  0  0  0  0  0  0  0  0  0  0  0  # atno 17342 bound_to 10162
  140.7675  143.5593  150.9117 LP  0  0  0  0  0  0  0  0  0  0  0  0  # atno 17343 bound_to 10162
  157.3079  131.0658  151.2022 LP  0  0  0  0  0  0  0  0  0  0  0  0  # atno 17370 bound_to 10713
  157.2978  130.6828  149.6148 LP  0  0  0  0  0  0  0  0  0  0  0  0  # atno 17371 bound_to 10713
  140.5747  134.5805  157.5466 LP  0  0  0  0  0  0  0  0  0  0  0  0  # atno 17394 bound_to 11000
  139.9488  134.7653  156.0497 LP  0  0  0  0  0  0  0  0  0  0  0  0  # atno 17395 bound_to 11000

$$$$
