AV-unprocessed.smi:187|AV-procd|sdf|1469|dock8
  -GOLD-   2262019283D 1   1.00000     0.00000
 Structure written by MMmdl.
 53 56  0  0  0  0  0  0  0  0  1 V2000
  151.5558  129.9284  154.5436 C   0  0  0  0  0  0  0  0  0  0  0  0
  150.4418  129.5416  155.5391 C   0  0  1  0  0  0  0  0  0  0  0  0
  151.0780  128.8881  156.7844 C   0  0  0  0  0  0  0  0  0  0  0  0
  150.0336  128.5596  157.8643 C   0  0  0  0  0  0  0  0  0  0  0  0
  149.1680  129.7834  158.2288 C   0  0  1  0  0  0  0  0  0  0  0  0
  149.9241  130.8123  159.0917 C   0  0  0  0  0  0  0  0  0  0  0  0
  149.5212  130.9514  160.3574 N   0  0  0  0  0  0  0  0  0  0  0  0
  150.8463  131.4825  158.6308 O   0  0  0  0  0  0  0  0  0  0  0  0
  148.5853  130.4060  156.9426 C   0  0  0  0  0  0  0  0  0  0  0  0
  149.6109  130.6888  155.9364 N   0  0  0  0  0  0  0  0  0  0  0  0
  149.0902  131.4523  154.9480 C   0  0  0  0  0  0  0  0  0  0  0  0
  149.5822  132.6974  154.7104 N   0  0  0  0  0  0  0  0  0  0  0  0
  149.0729  133.4374  153.7205 C   0  0  0  0  0  0  0  0  0  0  0  0
  148.0989  133.1274  152.8612 N   0  0  0  0  0  0  0  0  0  0  0  0
  147.6158  131.8722  153.0911 C   0  0  0  0  0  0  0  0  0  0  0  0
  148.0514  130.9766  154.1062 C   0  0  0  0  0  0  0  0  0  0  0  0
  147.3254  129.7945  154.0450 N   0  0  0  0  0  0  0  0  0  0  0  0
  146.4978  129.9845  153.0536 C   0  0  0  0  0  0  0  0  0  0  0  0
  146.6202  131.1960  152.4088 N   0  0  0  0  0  0  0  0  0  0  0  0
  145.8291  131.6824  151.3170 C   0  0  0  0  0  0  0  0  0  0  0  0
  146.1522  133.0018  150.6113 C   0  0  0  0  0  0  0  0  0  0  0  0
  144.6433  133.2261  150.3599 C   0  0  0  0  0  0  0  0  0  0  0  0
  144.1437  134.6654  150.5694 C   0  0  0  0  0  0  0  0  0  0  0  0
  144.6752  135.5399  149.5947 O   0  0  0  0  0  0  0  0  0  0  0  0
  144.1119  132.6979  149.0119 C   0  0  0  0  0  0  0  0  0  0  0  0
  142.8396  132.1002  149.1570 O   0  0  0  0  0  0  0  0  0  0  0  0
  144.4407  132.2763  151.5614 C   0  0  0  0  0  0  0  0  0  0  0  0
  152.1815  129.0673  154.3081 H   0  0  0  0  0  0  0  0  0  0  0  0
  152.2025  130.7033  154.9569 H   0  0  0  0  0  0  0  0  0  0  0  0
  151.1583  130.2972  153.5983 H   0  0  0  0  0  0  0  0  0  0  0  0
  149.7924  128.8043  155.0648 H   0  0  0  0  0  0  0  0  0  0  0  0
  151.6005  127.9751  156.4972 H   0  0  0  0  0  0  0  0  0  0  0  0
  151.8391  129.5490  157.2002 H   0  0  0  0  0  0  0  0  0  0  0  0
  149.3851  127.7616  157.5004 H   0  0  0  0  0  0  0  0  0  0  0  0
  150.5294  128.1633  158.7514 H   0  0  0  0  0  0  0  0  0  0  0  0
  148.3265  129.4267  158.8251 H   0  0  0  0  0  0  0  0  0  0  0  0
  149.9843  131.6104  160.9659 H   0  0  0  0  0  0  0  0  0  0  0  0
  148.7536  130.3929  160.7014 H   0  0  0  0  0  0  0  0  0  0  0  0
  147.8502  129.7244  156.5114 H   0  0  0  0  0  0  0  0  0  0  0  0
  148.0455  131.3212  157.1937 H   0  0  0  0  0  0  0  0  0  0  0  0
  149.5101  134.4173  153.5976 H   0  0  0  0  0  0  0  0  0  0  0  0
  145.7750  129.2360  152.7633 H   0  0  0  0  0  0  0  0  0  0  0  0
  145.7773  130.8639  150.5969 H   0  0  0  0  0  0  0  0  0  0  0  0
  146.5836  133.7440  151.2857 H   0  0  0  0  0  0  0  0  0  0  0  0
  146.7623  132.8920  149.7143 H   0  0  0  0  0  0  0  0  0  0  0  0
  143.0566  134.7122  150.4994 H   0  0  0  0  0  0  0  0  0  0  0  0
  144.4017  135.0405  151.5601 H   0  0  0  0  0  0  0  0  0  0  0  0
  145.0082  135.0230  148.8768 H   0  0  0  0  0  0  0  0  0  0  0  0
  144.0201  133.5009  148.2805 H   0  0  0  0  0  0  0  0  0  0  0  0
  144.7933  131.9686  148.5729 H   0  0  0  0  0  0  0  0  0  0  0  0
  142.1877  132.7839  149.1794 H   0  0  0  0  0  0  0  0  0  0  0  0
  143.6200  131.5665  151.4526 H   0  0  0  0  0  0  0  0  0  0  0  0
  144.3761  132.8033  152.5154 H   0  0  0  0  0  0  0  0  0  0  0  0
  1  2  1  0  0  0  0
  1 28  1  0  0  0  0
  1 29  1  0  0  0  0
  1 30  1  0  0  0  0
  2 10  1  0  0  0  0
  2  3  1  0  0  0  0
  2 31  1  0  0  0  0
  3  4  1  0  0  0  0
  3 32  1  0  0  0  0
  3 33  1  0  0  0  0
  4  5  1  0  0  0  0
  4 34  1  0  0  0  0
  4 35  1  0  0  0  0
  5  6  1  0  0  0  0
  5  9  1  0  0  0  0
  5 36  1  0  0  0  0
  6  7  1  0  0  0  0
  6  8  2  0  0  0  0
  7 37  1  0  0  0  0
  7 38  1  0  0  0  0
  9 10  1  0  0  0  0
  9 39  1  0  0  0  0
  9 40  1  0  0  0  0
 10 11  1  0  0  0  0
 11 16  1  0  0  0  0
 11 12  2  0  0  0  0
 12 13  1  0  0  0  0
 13 14  2  0  0  0  0
 13 41  1  0  0  0  0
 14 15  1  0  0  0  0
 15 19  1  0  0  0  0
 15 16  2  0  0  0  0
 16 17  1  0  0  0  0
 17 18  2  0  0  0  0
 18 19  1  0  0  0  0
 18 42  1  0  0  0  0
 19 20  1  0  0  0  0
 20 27  1  0  0  0  0
 20 21  1  0  0  0  0
 20 43  1  0  0  0  0
 21 22  1  0  0  0  0
 21 44  1  0  0  0  0
 21 45  1  0  0  0  0
 22 23  1  0  0  0  0
 22 25  1  0  0  0  0
 22 27  1  0  0  0  0
 23 24  1  0  0  0  0
 23 46  1  0  0  0  0
 23 47  1  0  0  0  0
 24 48  1  0  0  0  0
 25 26  1  0  0  0  0
 25 49  1  0  0  0  0
 25 50  1  0  0  0  0
 26 51  1  0  0  0  0
 27 52  1  0  0  0  0
 27 53  1  0  0  0  0
M  END
> <s_m_source_file>
AV-unprocessed.smi

> <i_m_source_file_index>
187

> <i_lp_mmshare_version>
43012

> <i_f3d_flags>
0

> <s_epik_input>
W0NIM11bQ0BASF0xW0NIMl1bQ0gyXVtDQEBIXShDKD1PKVtOSDJdKVtDSDJdTjFjKG5bY0hdbjIpYyhjMjMpbltjSF1uM1tDSF0oW0NIMl00KVtDSDJdQzQoW0NIMl1bT0hdKVtDSDJdW09IXQ==

> <s_epik_cmdline>
J2VwaWtfcHl0aG9uJywgJy1waCcsICc3LjAnLCAnLXRuJywgJzgnLCAnLW1hJywgJzIwMCcsICctbWV0YWxfYmluZGluZycsICctaW1hZScsICc8aW5maWxlLm1hZT4nLCAnLW9tYWUnLCAnPG91dGZpbGUubWFlPic=

> <r_lp_tautomer_probability>
1

> <r_epik_Ionization_Penalty>
0.0017711

> <r_epik_Ionization_Penalty_Charging>
0

> <r_epik_Ionization_Penalty_Neutral>
0.0017711

> <r_epik_State_Penalty>
0.00107211

> <r_epik_Charging_Adjusted_Penalty>
0.00107211

> <i_epik_Tot_Q>
0

> <i_epik_Tot_abs_Q>
0

> <r_epik_Metal_State_Penalty>
-0

> <b_epik_Metal_Only>
0

> <s_lp_Force_Field>
OPLS_2005

> <r_lp_Energy>
37.2201

> <b_lp_Chiralities_Consistent>
1

> <s_lp_Variant>
AV-unprocessed.smi:187-2

> <Gold.Version>
5.8.1

> <Gold.Id.Protein>
6NUR|6NUR_protein|mol2

> <Gold.PLP.Fitness>
50.2290

> <Gold.PLP.PLP>
-38.8654

> <Gold.PLP.part.hbond>
-5.6845

> <Gold.PLP.part.metal>
0.0000

> <Gold.PLP.part.buried>
-6.1240

> <Gold.PLP.part.nonpolar>
-27.4591

> <Gold.PLP.part.repulsive>
0.3834

> <Gold.PLP.ligand.clash>
0.0000

> <Gold.PLP.ligand.torsion>
1.1867

> <Gold.PLP.Chemscore.Hbond>
3.9745

> <Gold.PLP.Chemscore.CHOScore>
0.3619

> <Gold.PLP.Chemscore.Metal>
0.0000

> <Gold.Chemscore.Hbonds>
donor molecule, donor type, donor heavy atom, donor atom, acceptor molecule, acceptor atom, score
      L1  H    24    48       P1  7921  0.98
      L1  H    26    51       P1 10186  0.98
      P1  H  6896  6909       L1     8  1.00
      P1  H 10785 10796       L1    26  0.99
      L1  C    13    41       P1  7948  0.35

> <Gold.PLP.Chemscore.Internal.Correction>
0.7278

> <Gold.Rescore>
     Score         DG    S(hbond)    S(metal)    S(lipo)     H(rot)  DE(clash)    DE(int)     intcor
     11.65     -14.19       3.31        0.00      67.16       3.99       0.28       2.26       ----

> <Gold.Chemscore.Fitness>
11.6507

> <Gold.Chemscore.DG>
-14.1854

> <Gold.Chemscore.ZeroCoef>
-5.4800

> <Gold.Chemscore.Hbond>
3.3120

> <Gold.Chemscore.Metal>
0.0000

> <Gold.Chemscore.Lipo>
67.1630

> <Gold.Chemscore.Internal_Hbond>
0.0000

> <Gold.Chemscore.DEClash>
0.2770

> <Gold.Chemscore.DEInternal>
2.2577

> <Gold.Chemscore.Rot>
3.9902

> <Gold.Chemscore.Internal.Correction>
   9.000000E+99

> <Gold.Chemscore.Hbonds>
donor molecule, donor type, donor heavy atom, donor atom, acceptor molecule, acceptor atom, score
      L1  H    24    48       P1  7921  0.93
      L1  H    26    51       P1 10186  0.92
      P1  H  6896  6909       L1     8  0.94
      P1  H 10785 10796       L1    26  0.37

> <Gold.Chemscore.Hbond.Weighted>
-11.0621

> <Gold.Chemscore.Metal.Weighted>
-0.0000

> <Gold.Chemscore.Lipo.Weighted>
-7.8581

> <Gold.Chemscore.Internal_Hbond.Weighted>
0.0000

> <Gold.Chemscore.DEClash.Weighted>
0.2770

> <Gold.Chemscore.DEInternal.Weighted>
2.2577

> <Gold.Chemscore.Rot.Weighted>
10.2148

> <Gold.Chemscore.Internal.Correction.Weighted>
   9.000000E+99

> <Gold.Protein.RotatedTorsions>
[ 6907 6896 6895 6894 ] final  -41.43 input  -60.11 | X-H torsion
[ 7974 7965 7964 7962 ] final -166.35 input  175.53 | X-H torsion
[ 8008 7997 7996 7995 ] final   19.00 input   59.86 | X-H torsion
[ 10167 10162 10161 10158 ] final  -60.95 input  -65.29 | X-H torsion
[ 10718 10713 10712 10709 ] final   31.76 input   66.30 | X-H torsion
[ 10763 10752 10751 10750 ] final -156.95 input  -60.55 | X-H torsion
[ 11005 11000 10999 10996 ] final   13.08 input  -57.11 | X-H torsion

> <Gold.Protein.ActiveResidues>
 VAL166  LYS551  ARG553  GLY616  TRP617  ASP618  TYR619  PRO620  LYS621  CYS622 
 ASP623  PHE694  ASN695  SER759  ASP760  ASP761  ALA762  ILE779  LEU786  VAL792 
 PHE793  MET794  SER795  GLU796  ALA797  LYS798  CYS799  TRP800  GLU811  SER814 

> <Gold.Protein.RotatedAtoms>
  150.9669  134.9048  159.7763 H   0  0  0  0  0  0  0  0  0  0  0  0  # atno 6907 bound_to 6896
  152.5176  134.3595  159.9290 H   0  0  0  0  0  0  0  0  0  0  0  0  # atno 6908 bound_to 6896
  151.3605  133.3850  159.2724 H   0  0  0  0  0  0  0  0  0  0  0  0  # atno 6909 bound_to 6896
  144.7247  140.2679  143.6255 H   0  0  0  0  0  0  0  0  0  0  0  0  # atno 7974 bound_to 7965
  154.9142  140.3018  155.5250 H   0  0  0  0  0  0  0  0  0  0  0  0  # atno 8008 bound_to 7997
  156.3013  140.2383  156.4121 H   0  0  0  0  0  0  0  0  0  0  0  0  # atno 8009 bound_to 7997
  154.8394  140.0414  157.1520 H   0  0  0  0  0  0  0  0  0  0  0  0  # atno 8010 bound_to 7997
  140.6038  143.2368  151.5869 H   0  0  0  0  0  0  0  0  0  0  0  0  # atno 10167 bound_to 10162
  157.2766  130.7234  149.6533 H   0  0  0  0  0  0  0  0  0  0  0  0  # atno 10718 bound_to 10713
  154.7673  135.3135  154.8259 H   0  0  0  0  0  0  0  0  0  0  0  0  # atno 10763 bound_to 10752
  153.9004  135.6816  153.4760 H   0  0  0  0  0  0  0  0  0  0  0  0  # atno 10764 bound_to 10752
  153.1281  135.4792  154.9239 H   0  0  0  0  0  0  0  0  0  0  0  0  # atno 10765 bound_to 10752
  140.4848  134.0899  155.7758 H   0  0  0  0  0  0  0  0  0  0  0  0  # atno 11005 bound_to 11000
  145.8072  139.1988  143.2014 LP  0  0  0  0  0  0  0  0  0  0  0  0  # atno 17320 bound_to 7965
  146.0627  140.7953  142.9727 LP  0  0  0  0  0  0  0  0  0  0  0  0  # atno 17321 bound_to 7965
  139.5310  144.2917  152.1147 LP  0  0  0  0  0  0  0  0  0  0  0  0  # atno 17342 bound_to 10162
  140.2103  144.4570  150.6389 LP  0  0  0  0  0  0  0  0  0  0  0  0  # atno 17343 bound_to 10162
  155.9664  130.4351  150.5077 LP  0  0  0  0  0  0  0  0  0  0  0  0  # atno 17370 bound_to 10713
  157.3013  131.0645  151.2066 LP  0  0  0  0  0  0  0  0  0  0  0  0  # atno 17371 bound_to 10713
  141.1513  133.8963  157.2090 LP  0  0  0  0  0  0  0  0  0  0  0  0  # atno 17394 bound_to 11000
  139.9804  135.0100  156.9736 LP  0  0  0  0  0  0  0  0  0  0  0  0  # atno 17395 bound_to 11000

$$$$
