AV-unprocessed.smi:3184|AV-procd|sdf|12164|dock5
  -GOLD-   2272018 03D 1   1.00000     0.00000
 Structure written by MMmdl.
 34 35  0  0  0  0  0  0  0  0  1 V2000
  147.3344  142.0104  155.7375 C   0  0  0  0  0  0  0  0  0  0  0  0
  148.7180  141.3474  155.6856 C   0  0  1  0  0  0  0  0  0  0  0  0
  149.2009  141.1448  154.2367 C   0  0  0  0  0  0  0  0  0  0  0  0
  150.1822  140.0803  154.1308 N   0  0  0  0  0  0  0  0  0  0  0  0
  150.1265  138.9683  153.3014 C   0  0  0  0  0  0  0  0  0  0  0  0
  151.2636  138.2339  153.5520 C   0  0  0  0  0  0  0  0  0  0  0  0
  152.0296  138.8723  154.5246 N   0  0  0  0  0  0  0  0  0  0  0  0
  151.3267  139.9587  154.8175 C   0  0  0  0  0  0  0  0  0  0  0  0
  149.6805  142.1653  156.4207 N   0  0  0  0  0  0  0  0  0  0  0  0
  150.5837  141.7151  157.3084 C   0  0  0  0  0  0  0  0  0  0  0  0
  150.6581  140.5350  157.6528 O   0  0  0  0  0  0  0  0  0  0  0  0
  151.4139  142.6716  157.7779 N   0  0  0  0  0  0  0  0  0  0  0  0
  151.4221  144.0862  157.3922 C   0  0  0  0  0  0  0  0  0  0  0  0
  152.4006  144.7721  158.3459 C   0  0  0  0  0  0  0  0  0  0  0  0
  153.3411  143.6573  158.7806 C   0  0  0  0  0  0  0  0  0  0  0  0
  152.4703  142.4012  158.7515 C   0  0  0  0  0  0  0  0  0  0  0  0
  146.5933  141.4113  155.2076 H   0  0  0  0  0  0  0  0  0  0  0  0
  147.3500  143.0006  155.2810 H   0  0  0  0  0  0  0  0  0  0  0  0
  146.9907  142.1227  156.7665 H   0  0  0  0  0  0  0  0  0  0  0  0
  148.6327  140.3628  156.1491 H   0  0  0  0  0  0  0  0  0  0  0  0
  148.3589  140.8923  153.5909 H   0  0  0  0  0  0  0  0  0  0  0  0
  149.6341  142.0649  153.8414 H   0  0  0  0  0  0  0  0  0  0  0  0
  149.3035  138.7947  152.6241 H   0  0  0  0  0  0  0  0  0  0  0  0
  151.5865  137.3022  153.1114 H   0  0  0  0  0  0  0  0  0  0  0  0
  151.6488  140.6797  155.5546 H   0  0  0  0  0  0  0  0  0  0  0  0
  149.6910  143.1520  156.2068 H   0  0  0  0  0  0  0  0  0  0  0  0
  151.7706  144.1717  156.3617 H   0  0  0  0  0  0  0  0  0  0  0  0
  150.4315  144.5388  157.4570 H   0  0  0  0  0  0  0  0  0  0  0  0
  152.9224  145.6114  157.8853 H   0  0  0  0  0  0  0  0  0  0  0  0
  151.8600  145.1509  159.2144 H   0  0  0  0  0  0  0  0  0  0  0  0
  154.1492  143.5587  158.0546 H   0  0  0  0  0  0  0  0  0  0  0  0
  153.7900  143.8381  159.7578 H   0  0  0  0  0  0  0  0  0  0  0  0
  152.0156  142.2268  159.7276 H   0  0  0  0  0  0  0  0  0  0  0  0
  153.0571  141.5196  158.4884 H   0  0  0  0  0  0  0  0  0  0  0  0
  1  2  1  0  0  0  0
  1 17  1  0  0  0  0
  1 18  1  0  0  0  0
  1 19  1  0  0  0  0
  2  3  1  0  0  0  0
  2  9  1  0  0  0  0
  2 20  1  0  0  0  0
  3  4  1  0  0  0  0
  3 21  1  0  0  0  0
  3 22  1  0  0  0  0
  4  8  1  0  0  0  0
  4  5  1  0  0  0  0
  5  6  2  0  0  0  0
  5 23  1  0  0  0  0
  6  7  1  0  0  0  0
  6 24  1  0  0  0  0
  7  8  2  0  0  0  0
  8 25  1  0  0  0  0
  9 10  1  0  0  0  0
  9 26  1  0  0  0  0
 10 11  2  0  0  0  0
 10 12  1  0  0  0  0
 12 16  1  0  0  0  0
 12 13  1  0  0  0  0
 13 14  1  0  0  0  0
 13 27  1  0  0  0  0
 13 28  1  0  0  0  0
 14 15  1  0  0  0  0
 14 29  1  0  0  0  0
 14 30  1  0  0  0  0
 15 16  1  0  0  0  0
 15 31  1  0  0  0  0
 15 32  1  0  0  0  0
 16 33  1  0  0  0  0
 16 34  1  0  0  0  0
M  END
> <s_m_source_file>
AV-unprocessed.smi

> <i_m_source_file_index>
3184

> <i_lp_mmshare_version>
43012

> <i_f3d_flags>
0

> <s_epik_input>
W2NIXTFuW2NIXVtjSF1uMVtDSDJdW0NAQEhdKFtDSDNdKVtOSF1DKD1PKU4yW0NIMl1bQ0gyXVtDSDJdW0NIMl0y

> <s_epik_cmdline>
J2VwaWtfcHl0aG9uJywgJy1waCcsICc3LjAnLCAnLXRuJywgJzgnLCAnLW1hJywgJzIwMCcsICctbWV0YWxfYmluZGluZycsICctaW1hZScsICc8aW5maWxlLm1hZT4nLCAnLW9tYWUnLCAnPG91dGZpbGUubWFlPic=

> <r_lp_tautomer_probability>
1

> <r_epik_Ionization_Penalty>
0.625774

> <r_epik_Ionization_Penalty_Charging>
0.625709

> <r_epik_Ionization_Penalty_Neutral>
6.46152e-05

> <r_epik_State_Penalty>
0.642123

> <r_epik_Charging_Adjusted_Penalty>
1.26783

> <i_epik_Tot_Q>
0

> <i_epik_Tot_abs_Q>
0

> <r_epik_Metal_State_Penalty>
0.307922

> <b_epik_Metal_Only>
0

> <s_lp_Force_Field>
OPLS_2005

> <r_lp_Energy>
35.7196

> <b_lp_Chiralities_Consistent>
1

> <s_lp_Variant>
AV-unprocessed.smi:3184-4

> <Gold.Version>
5.8.1

> <Gold.Id.Protein>
6NUR|6NUR_protein|mol2

> <Gold.PLP.Fitness>
44.5699

> <Gold.PLP.PLP>
-35.2344

> <Gold.PLP.part.hbond>
-1.0000

> <Gold.PLP.part.metal>
0.0000

> <Gold.PLP.part.buried>
1.5113

> <Gold.PLP.part.nonpolar>
-35.7210

> <Gold.PLP.part.repulsive>
0.0605

> <Gold.PLP.ligand.clash>
0.0000

> <Gold.PLP.ligand.torsion>
0.4669

> <Gold.PLP.Chemscore.Hbond>
0.9920

> <Gold.PLP.Chemscore.CHOScore>
2.4258

> <Gold.PLP.Chemscore.Metal>
0.0000

> <Gold.Chemscore.Hbonds>
donor molecule, donor type, donor heavy atom, donor atom, acceptor molecule, acceptor atom, score
      L1  H     9    26       P1  8028  1.00
      L1  C     5    23       P1  7948  0.49
      L1  C     5    23       P1  7957  0.38
      L1  C     6    24       P1  7949  1.00

> <Gold.PLP.Chemscore.Internal.Correction>
0.0159

> <Gold.Rescore>
     Score         DG    S(hbond)    S(metal)    S(lipo)     H(rot)  DE(clash)    DE(int)     intcor
     13.67     -14.28       0.97        0.00      82.49       1.60       0.21       0.40       ----

> <Gold.Chemscore.Fitness>
13.6662

> <Gold.Chemscore.DG>
-14.2763

> <Gold.Chemscore.ZeroCoef>
-5.4800

> <Gold.Chemscore.Hbond>
0.9709

> <Gold.Chemscore.Metal>
0.0000

> <Gold.Chemscore.Lipo>
82.4937

> <Gold.Chemscore.Internal_Hbond>
0.0000

> <Gold.Chemscore.DEClash>
0.2145

> <Gold.Chemscore.DEInternal>
0.3956

> <Gold.Chemscore.Rot>
1.6009

> <Gold.Chemscore.Internal.Correction>
   9.000000E+99

> <Gold.Chemscore.Hbonds>
donor molecule, donor type, donor heavy atom, donor atom, acceptor molecule, acceptor atom, score
      L1  H     9    26       P1  8028  0.97

> <Gold.Chemscore.Hbond.Weighted>
-3.2429

> <Gold.Chemscore.Metal.Weighted>
-0.0000

> <Gold.Chemscore.Lipo.Weighted>
-9.6518

> <Gold.Chemscore.Internal_Hbond.Weighted>
0.0000

> <Gold.Chemscore.DEClash.Weighted>
0.2145

> <Gold.Chemscore.DEInternal.Weighted>
0.3956

> <Gold.Chemscore.Rot.Weighted>
4.0983

> <Gold.Chemscore.Internal.Correction.Weighted>
   9.000000E+99

> <Gold.Protein.RotatedTorsions>
[ 6907 6896 6895 6894 ] final  129.65 input  -60.11 | X-H torsion
[ 7974 7965 7964 7962 ] final  126.32 input  175.53 | X-H torsion
[ 8008 7997 7996 7995 ] final  -48.37 input   59.86 | X-H torsion
[ 10167 10162 10161 10158 ] final  -27.52 input  -65.29 | X-H torsion
[ 10718 10713 10712 10709 ] final   86.04 input   66.30 | X-H torsion
[ 10763 10752 10751 10750 ] final -137.96 input  -60.55 | X-H torsion
[ 11005 11000 10999 10996 ] final  -47.79 input  -57.11 | X-H torsion

> <Gold.Protein.ActiveResidues>
 VAL166  LYS551  ARG553  GLY616  TRP617  ASP618  TYR619  PRO620  LYS621  CYS622 
 ASP623  PHE694  ASN695  SER759  ASP760  ASP761  ALA762  ILE779  LEU786  VAL792 
 PHE793  MET794  SER795  GLU796  ALA797  LYS798  CYS799  TRP800  GLU811  SER814 

> <Gold.Protein.RotatedAtoms>
  152.3603  133.6289  159.6009 H   0  0  0  0  0  0  0  0  0  0  0  0  # atno 6907 bound_to 6896
  150.7597  133.9434  159.3472 H   0  0  0  0  0  0  0  0  0  0  0  0  # atno 6908 bound_to 6896
  151.7273  135.0883  160.0345 H   0  0  0  0  0  0  0  0  0  0  0  0  # atno 6909 bound_to 6896
  145.0630  139.3790  143.4996 H   0  0  0  0  0  0  0  0  0  0  0  0  # atno 7974 bound_to 7965
  154.4028  140.1323  156.4328 H   0  0  0  0  0  0  0  0  0  0  0  0  # atno 8008 bound_to 7997
  155.7534  140.3487  155.5141 H   0  0  0  0  0  0  0  0  0  0  0  0  # atno 8009 bound_to 7997
  155.8928  140.1006  157.1397 H   0  0  0  0  0  0  0  0  0  0  0  0  # atno 8010 bound_to 7997
  140.7276  143.4086  151.1143 H   0  0  0  0  0  0  0  0  0  0  0  0  # atno 10167 bound_to 10162
  157.6923  131.0199  150.2913 H   0  0  0  0  0  0  0  0  0  0  0  0  # atno 10718 bound_to 10713
  154.8649  135.3626  154.5308 H   0  0  0  0  0  0  0  0  0  0  0  0  # atno 10763 bound_to 10752
  153.5933  135.7015  153.5419 H   0  0  0  0  0  0  0  0  0  0  0  0  # atno 10764 bound_to 10752
  153.3354  135.4113  155.1491 H   0  0  0  0  0  0  0  0  0  0  0  0  # atno 10765 bound_to 10752
  141.0662  133.6693  156.3347 H   0  0  0  0  0  0  0  0  0  0  0  0  # atno 11005 bound_to 11000
  146.3525  140.0338  142.8648 LP  0  0  0  0  0  0  0  0  0  0  0  0  # atno 17320 bound_to 7965
  145.1385  140.9558  143.4502 LP  0  0  0  0  0  0  0  0  0  0  0  0  # atno 17321 bound_to 7965
  139.7717  143.8485  152.3121 LP  0  0  0  0  0  0  0  0  0  0  0  0  # atno 17342 bound_to 10162
  139.8405  144.7212  150.9336 LP  0  0  0  0  0  0  0  0  0  0  0  0  # atno 17343 bound_to 10162
  156.3444  130.3820  149.7382 LP  0  0  0  0  0  0  0  0  0  0  0  0  # atno 17370 bound_to 10713
  156.4880  130.8072  151.3083 LP  0  0  0  0  0  0  0  0  0  0  0  0  # atno 17371 bound_to 10713
  140.5769  134.5784  157.5470 LP  0  0  0  0  0  0  0  0  0  0  0  0  # atno 17394 bound_to 11000
  139.9478  134.7670  156.0519 LP  0  0  0  0  0  0  0  0  0  0  0  0  # atno 17395 bound_to 11000

$$$$
