AV-unprocessed.smi:2649|AV-procd|sdf|10290|dock6
  -GOLD-   2272014303D 1   1.00000     0.00000
 Structure written by MMmdl.
 34 35  0  0  0  0  0  0  0  0  1 V2000
  154.9236  139.0500  159.7543 C   0  0  0  0  0  0  0  0  0  0  0  0
  155.8826  139.7982  161.0997 S   0  0  0  0  0  0  0  0  0  0  0  0
  154.5554  140.2929  162.2404 C   0  0  0  0  0  0  0  0  0  0  0  0
  153.6958  141.3903  161.6333 C   0  0  0  0  0  0  0  0  0  0  0  0
  153.2637  141.1577  160.3738 N   0  0  0  0  0  0  0  0  0  0  0  0
  152.4985  142.0832  159.7457 C   0  0  0  0  0  0  0  0  0  0  0  0
  152.0054  141.9284  158.4235 N   0  0  0  0  0  0  0  0  0  0  0  0
  152.1435  140.8734  157.5969 C   0  0  0  0  0  0  0  0  0  0  0  0
  152.7821  139.8568  157.8733 O   0  0  0  0  0  0  0  0  0  0  0  0
  151.4726  141.0022  156.2204 C   0  0  1  0  0  0  0  0  0  0  0  0
  151.5480  139.6952  155.3971 C   0  0  0  0  0  0  0  0  0  0  0  0
  150.8751  139.8775  154.1581 O   0  0  0  0  0  0  0  0  0  0  0  0
  149.5095  140.2161  154.3542 C   0  0  0  0  0  0  0  0  0  0  0  0
  149.4321  141.5241  155.1574 C   0  0  0  0  0  0  0  0  0  0  0  0
  150.0990  141.3436  156.3994 O   0  0  0  0  0  0  0  0  0  0  0  0
  152.1327  143.2869  160.3866 C   0  0  0  0  0  0  0  0  0  0  0  0
  152.5745  143.5324  161.7005 C   0  0  0  0  0  0  0  0  0  0  0  0
  153.3730  142.5689  162.3436 C   0  0  0  0  0  0  0  0  0  0  0  0
  153.9244  142.8492  163.9574 Cl  0  0  0  0  0  0  0  0  0  0  0  0
  155.5952  138.6094  159.0175 H   0  0  0  0  0  0  0  0  0  0  0  0
  154.3114  139.7989  159.2520 H   0  0  0  0  0  0  0  0  0  0  0  0
  154.2712  138.2665  160.1403 H   0  0  0  0  0  0  0  0  0  0  0  0
  153.9483  139.4194  162.4828 H   0  0  0  0  0  0  0  0  0  0  0  0
  154.9938  140.6390  163.1767 H   0  0  0  0  0  0  0  0  0  0  0  0
  151.4738  142.7068  158.0616 H   0  0  0  0  0  0  0  0  0  0  0  0
  151.9766  141.8070  155.6823 H   0  0  0  0  0  0  0  0  0  0  0  0
  152.5843  139.4298  155.1860 H   0  0  0  0  0  0  0  0  0  0  0  0
  151.1063  138.8588  155.9418 H   0  0  0  0  0  0  0  0  0  0  0  0
  149.0294  140.3379  153.3831 H   0  0  0  0  0  0  0  0  0  0  0  0
  148.9897  139.4085  154.8720 H   0  0  0  0  0  0  0  0  0  0  0  0
  149.8819  142.3493  154.6034 H   0  0  0  0  0  0  0  0  0  0  0  0
  148.3927  141.7919  155.3469 H   0  0  0  0  0  0  0  0  0  0  0  0
  151.5201  144.0187  159.8803 H   0  0  0  0  0  0  0  0  0  0  0  0
  152.3039  144.4477  162.2058 H   0  0  0  0  0  0  0  0  0  0  0  0
  1  2  1  0  0  0  0
  1 20  1  0  0  0  0
  1 21  1  0  0  0  0
  1 22  1  0  0  0  0
  2  3  1  0  0  0  0
  3  4  1  0  0  0  0
  3 23  1  0  0  0  0
  3 24  1  0  0  0  0
  4 18  1  0  0  0  0
  4  5  2  0  0  0  0
  5  6  1  0  0  0  0
  6  7  1  0  0  0  0
  6 16  2  0  0  0  0
  7  8  1  0  0  0  0
  7 25  1  0  0  0  0
  8  9  2  0  0  0  0
  8 10  1  0  0  0  0
 10 15  1  0  0  0  0
 10 11  1  0  0  0  0
 10 26  1  0  0  0  0
 11 12  1  0  0  0  0
 11 27  1  0  0  0  0
 11 28  1  0  0  0  0
 12 13  1  0  0  0  0
 13 14  1  0  0  0  0
 13 29  1  0  0  0  0
 13 30  1  0  0  0  0
 14 15  1  0  0  0  0
 14 31  1  0  0  0  0
 14 32  1  0  0  0  0
 16 17  1  0  0  0  0
 16 33  1  0  0  0  0
 17 18  2  0  0  0  0
 17 34  1  0  0  0  0
 18 19  1  0  0  0  0
M  END
> <s_m_source_file>
AV-unprocessed.smi

> <i_m_source_file_index>
2649

> <i_lp_mmshare_version>
43012

> <i_f3d_flags>
0

> <s_epik_input>
W0NIM11TW0NIMl1jMW5jKFtjSF1bY0hdYzFDbClbTkhdQyg9TylbQ0BASF0yW0NIMl1PW0NIMl1bQ0gyXU8y

> <s_epik_cmdline>
J2VwaWtfcHl0aG9uJywgJy1waCcsICc3LjAnLCAnLXRuJywgJzgnLCAnLW1hJywgJzIwMCcsICctbWV0YWxfYmluZGluZycsICctaW1hZScsICc8aW5maWxlLm1hZT4nLCAnLW9tYWUnLCAnPG91dGZpbGUubWFlPic=

> <r_lp_tautomer_probability>
1

> <r_epik_Ionization_Penalty>
9.71596e-06

> <r_epik_Ionization_Penalty_Charging>
0

> <r_epik_Ionization_Penalty_Neutral>
9.71596e-06

> <r_epik_State_Penalty>
-0

> <r_epik_Charging_Adjusted_Penalty>
0

> <i_epik_Tot_Q>
0

> <i_epik_Tot_abs_Q>
0

> <r_epik_Metal_State_Penalty>
-0

> <b_epik_Metal_Only>
0

> <s_lp_Force_Field>
OPLS_2005

> <r_lp_Energy>
11.632

> <b_lp_Chiralities_Consistent>
1

> <s_lp_Variant>
AV-unprocessed.smi:2649-2

> <Gold.Version>
5.8.1

> <Gold.Id.Protein>
6NUR|6NUR_protein|mol2

> <Gold.PLP.Fitness>
48.3227

> <Gold.PLP.PLP>
-42.7440

> <Gold.PLP.part.hbond>
-2.0000

> <Gold.PLP.part.metal>
0.0000

> <Gold.PLP.part.buried>
-4.8451

> <Gold.PLP.part.nonpolar>
-34.8787

> <Gold.PLP.part.repulsive>
0.2916

> <Gold.PLP.ligand.clash>
0.0000

> <Gold.PLP.ligand.torsion>
0.2212

> <Gold.PLP.Chemscore.Hbond>
2.0000

> <Gold.PLP.Chemscore.CHOScore>
0.0000

> <Gold.PLP.Chemscore.Metal>
0.0000

> <Gold.Chemscore.Hbonds>
donor molecule, donor type, donor heavy atom, donor atom, acceptor molecule, acceptor atom, score
      P1  H  7989  7998       L1    12  0.70
      P1  H  7997  8009       L1     9  1.00

> <Gold.PLP.Chemscore.Internal.Correction>
0.0210

> <Gold.Rescore>
     Score         DG    S(hbond)    S(metal)    S(lipo)     H(rot)  DE(clash)    DE(int)     intcor
     16.62     -18.18       1.25        0.00     102.20       1.34       0.00       1.56       ----

> <Gold.Chemscore.Fitness>
16.6242

> <Gold.Chemscore.DG>
-18.1846

> <Gold.Chemscore.ZeroCoef>
-5.4800

> <Gold.Chemscore.Hbond>
1.2515

> <Gold.Chemscore.Metal>
0.0000

> <Gold.Chemscore.Lipo>
102.2012

> <Gold.Chemscore.Internal_Hbond>
0.0000

> <Gold.Chemscore.DEClash>
0.0045

> <Gold.Chemscore.DEInternal>
1.5558

> <Gold.Chemscore.Rot>
1.3410

> <Gold.Chemscore.Internal.Correction>
   9.000000E+99

> <Gold.Chemscore.Hbonds>
donor molecule, donor type, donor heavy atom, donor atom, acceptor molecule, acceptor atom, score
      P1  H  7989  7998       L1    12  0.30
      P1  H  7997  8009       L1     9  0.28

> <Gold.Chemscore.Hbond.Weighted>
-4.1801

> <Gold.Chemscore.Metal.Weighted>
-0.0000

> <Gold.Chemscore.Lipo.Weighted>
-11.9575

> <Gold.Chemscore.Internal_Hbond.Weighted>
0.0000

> <Gold.Chemscore.DEClash.Weighted>
0.0045

> <Gold.Chemscore.DEInternal.Weighted>
1.5558

> <Gold.Chemscore.Rot.Weighted>
3.4331

> <Gold.Chemscore.Internal.Correction.Weighted>
   9.000000E+99

> <Gold.Protein.RotatedTorsions>
[ 6907 6896 6895 6894 ] final  140.04 input  -60.11 | X-H torsion
[ 7974 7965 7964 7962 ] final  -88.81 input  175.53 | X-H torsion
[ 8008 7997 7996 7995 ] final  178.82 input   59.86 | X-H torsion
[ 10167 10162 10161 10158 ] final   36.55 input  -65.29 | X-H torsion
[ 10718 10713 10712 10709 ] final -110.61 input   66.30 | X-H torsion
[ 10763 10752 10751 10750 ] final  -26.39 input  -60.55 | X-H torsion
[ 11005 11000 10999 10996 ] final -111.49 input  -57.11 | X-H torsion

> <Gold.Protein.ActiveResidues>
 VAL166  LYS551  ARG553  GLY616  TRP617  ASP618  TYR619  PRO620  LYS621  CYS622 
 ASP623  PHE694  ASN695  SER759  ASP760  ASP761  ALA762  ILE779  LEU786  VAL792 
 PHE793  MET794  SER795  GLU796  ALA797  LYS798  CYS799  TRP800  GLU811  SER814 

> <Gold.Protein.RotatedAtoms>
  152.2478  133.5189  159.5307 H   0  0  0  0  0  0  0  0  0  0  0  0  # atno 6907 bound_to 6896
  150.7084  134.1002  159.3972 H   0  0  0  0  0  0  0  0  0  0  0  0  # atno 6908 bound_to 6896
  151.8922  135.0412  160.0549 H   0  0  0  0  0  0  0  0  0  0  0  0  # atno 6909 bound_to 6896
  145.4481  140.9560  143.2037 H   0  0  0  0  0  0  0  0  0  0  0  0  # atno 7974 bound_to 7965
  156.0504  140.1324  157.0057 H   0  0  0  0  0  0  0  0  0  0  0  0  # atno 8008 bound_to 7997
  154.4432  140.1012  156.6438 H   0  0  0  0  0  0  0  0  0  0  0  0  # atno 8009 bound_to 7997
  155.5532  140.3463  155.4476 H   0  0  0  0  0  0  0  0  0  0  0  0  # atno 8010 bound_to 7997
  140.4117  144.1583  150.6140 H   0  0  0  0  0  0  0  0  0  0  0  0  # atno 10167 bound_to 10162
  156.0600  130.5824  150.8260 H   0  0  0  0  0  0  0  0  0  0  0  0  # atno 10718 bound_to 10713
  153.7151  135.6948  153.5027 H   0  0  0  0  0  0  0  0  0  0  0  0  # atno 10763 bound_to 10752
  153.2244  135.4359  155.0524 H   0  0  0  0  0  0  0  0  0  0  0  0  # atno 10764 bound_to 10752
  154.8302  135.3468  154.6687 H   0  0  0  0  0  0  0  0  0  0  0  0  # atno 10765 bound_to 10752
  141.0731  133.9346  157.2444 H   0  0  0  0  0  0  0  0  0  0  0  0  # atno 11005 bound_to 11000
  144.8078  139.6018  143.7043 LP  0  0  0  0  0  0  0  0  0  0  0  0  # atno 17320 bound_to 7965
  146.2519  139.6218  142.9421 LP  0  0  0  0  0  0  0  0  0  0  0  0  # atno 17321 bound_to 7965
  140.4630  143.2441  151.9193 LP  0  0  0  0  0  0  0  0  0  0  0  0  # atno 17342 bound_to 10162
  139.4782  144.5448  151.8475 LP  0  0  0  0  0  0  0  0  0  0  0  0  # atno 17343 bound_to 10162
  157.5601  131.0945  150.9571 LP  0  0  0  0  0  0  0  0  0  0  0  0  # atno 17370 bound_to 10713
  156.9811  130.5527  149.5296 LP  0  0  0  0  0  0  0  0  0  0  0  0  # atno 17371 bound_to 10713
  139.9544  135.0169  156.9086 LP  0  0  0  0  0  0  0  0  0  0  0  0  # atno 17394 bound_to 11000
  140.5630  134.0516  155.7405 LP  0  0  0  0  0  0  0  0  0  0  0  0  # atno 17395 bound_to 11000

$$$$
