AV-unprocessed.smi:137|AV-procd|sdf|1176|dock10
  -GOLD-   2262018323D 1   1.00000     0.00000
 Structure written by MMmdl.
 51 54  0  0  0  0  0  0  0  0  1 V2000
  151.6691  145.1337  158.5957 C   0  0  0  0  0  0  0  0  0  0  0  0
  151.8020  143.8453  159.4219 C   0  0  1  0  0  0  0  0  0  0  0  0
  152.4781  142.7475  158.5690 C   0  0  0  0  0  0  0  0  0  0  0  0
  152.2066  141.4002  159.0698 N   0  0  0  0  0  0  0  0  0  0  0  0
  151.3369  140.6108  158.3740 C   0  0  0  0  0  0  0  0  0  0  0  0
  151.0375  139.3779  158.8670 N   0  0  0  0  0  0  0  0  0  0  0  0
  150.2009  138.5634  158.2197 C   0  0  0  0  0  0  0  0  0  0  0  0
  149.5492  138.7769  157.0774 N   0  0  0  0  0  0  0  0  0  0  0  0
  149.8276  140.0129  156.5752 C   0  0  0  0  0  0  0  0  0  0  0  0
  150.7047  140.9816  157.1468 C   0  0  0  0  0  0  0  0  0  0  0  0
  150.7311  142.1116  156.3356 N   0  0  0  0  0  0  0  0  0  0  0  0
  149.9350  141.8236  155.3436 C   0  0  0  0  0  0  0  0  0  0  0  0
  149.3252  140.5935  155.4236 N   0  0  0  0  0  0  0  0  0  0  0  0
  148.4373  140.0105  154.4606 C   0  0  0  0  0  0  0  0  0  0  0  0
  147.0170  139.5860  154.8421 C   0  0  0  0  0  0  0  0  0  0  0  0
  147.0942  138.4346  153.8132 C   0  0  0  0  0  0  0  0  0  0  0  0
  146.5002  137.0928  154.2724 C   0  0  0  0  0  0  0  0  0  0  0  0
  146.9984  136.0200  153.4990 O   0  0  0  0  0  0  0  0  0  0  0  0
  146.5584  138.7701  152.4065 C   0  0  0  0  0  0  0  0  0  0  0  0
  147.1427  137.9427  151.4212 O   0  0  0  0  0  0  0  0  0  0  0  0
  148.6236  138.5685  153.9821 C   0  0  0  0  0  0  0  0  0  0  0  0
  153.1513  140.7528  159.9866 C   0  0  0  0  0  0  0  0  0  0  0  0
  153.8122  141.6922  161.0083 C   0  0  0  0  0  0  0  0  0  0  0  0
  152.5078  142.6853  161.8783 S   0  0  1  0  0  0  0  0  0  0  0  0
  153.1056  143.1364  163.2121 O   0  0  0  0  0  0  0  0  0  0  0  0
  152.5360  144.1560  160.7430 C   0  0  0  0  0  0  0  0  0  0  0  0
  152.6466  145.5228  158.3088 H   0  0  0  0  0  0  0  0  0  0  0  0
  151.1520  145.9119  159.1578 H   0  0  0  0  0  0  0  0  0  0  0  0
  151.0987  144.9598  157.6827 H   0  0  0  0  0  0  0  0  0  0  0  0
  150.7899  143.5235  159.6694 H   0  0  0  0  0  0  0  0  0  0  0  0
  152.1533  142.8212  157.5309 H   0  0  0  0  0  0  0  0  0  0  0  0
  153.5545  142.9153  158.5307 H   0  0  0  0  0  0  0  0  0  0  0  0
  150.0282  137.6039  158.6842 H   0  0  0  0  0  0  0  0  0  0  0  0
  149.7651  142.5098  154.5267 H   0  0  0  0  0  0  0  0  0  0  0  0
  148.4195  140.6990  153.6141 H   0  0  0  0  0  0  0  0  0  0  0  0
  146.9504  139.2314  155.8725 H   0  0  0  0  0  0  0  0  0  0  0  0
  146.2537  140.3382  154.6406 H   0  0  0  0  0  0  0  0  0  0  0  0
  146.7523  136.8950  155.3146 H   0  0  0  0  0  0  0  0  0  0  0  0
  145.4115  137.0951  154.2177 H   0  0  0  0  0  0  0  0  0  0  0  0
  147.8073  136.2924  153.0930 H   0  0  0  0  0  0  0  0  0  0  0  0
  145.4778  138.6380  152.3532 H   0  0  0  0  0  0  0  0  0  0  0  0
  146.7465  139.8118  152.1453 H   0  0  0  0  0  0  0  0  0  0  0  0
  147.0627  137.0432  151.6995 H   0  0  0  0  0  0  0  0  0  0  0  0
  149.1969  138.4682  153.0601 H   0  0  0  0  0  0  0  0  0  0  0  0
  149.0245  137.9190  154.7627 H   0  0  0  0  0  0  0  0  0  0  0  0
  152.6216  139.9793  160.5447 H   0  0  0  0  0  0  0  0  0  0  0  0
  153.9235  140.2474  159.4055 H   0  0  0  0  0  0  0  0  0  0  0  0
  154.3428  141.0932  161.7482 H   0  0  0  0  0  0  0  0  0  0  0  0
  154.5519  142.3481  160.5496 H   0  0  0  0  0  0  0  0  0  0  0  0
  153.5616  144.4841  160.5723 H   0  0  0  0  0  0  0  0  0  0  0  0
  152.0257  144.9702  161.2583 H   0  0  0  0  0  0  0  0  0  0  0  0
  1  2  1  0  0  0  0
  1 27  1  0  0  0  0
  1 28  1  0  0  0  0
  1 29  1  0  0  0  0
  2 26  1  0  0  0  0
  2  3  1  0  0  0  0
  2 30  1  0  0  0  0
  3  4  1  0  0  0  0
  3 31  1  0  0  0  0
  3 32  1  0  0  0  0
  4  5  1  0  0  0  0
  4 22  1  0  0  0  0
  5 10  1  0  0  0  0
  5  6  2  0  0  0  0
  6  7  1  0  0  0  0
  7  8  2  0  0  0  0
  7 33  1  0  0  0  0
  8  9  1  0  0  0  0
  9 13  1  0  0  0  0
  9 10  2  0  0  0  0
 10 11  1  0  0  0  0
 11 12  2  0  0  0  0
 12 13  1  0  0  0  0
 12 34  1  0  0  0  0
 13 14  1  0  0  0  0
 14 21  1  0  0  0  0
 14 15  1  0  0  0  0
 14 35  1  0  0  0  0
 15 16  1  0  0  0  0
 15 36  1  0  0  0  0
 15 37  1  0  0  0  0
 16 17  1  0  0  0  0
 16 19  1  0  0  0  0
 16 21  1  0  0  0  0
 17 18  1  0  0  0  0
 17 38  1  0  0  0  0
 17 39  1  0  0  0  0
 18 40  1  0  0  0  0
 19 20  1  0  0  0  0
 19 41  1  0  0  0  0
 19 42  1  0  0  0  0
 20 43  1  0  0  0  0
 21 44  1  0  0  0  0
 21 45  1  0  0  0  0
 22 23  1  0  0  0  0
 22 46  1  0  0  0  0
 22 47  1  0  0  0  0
 23 24  1  0  0  0  0
 23 48  1  0  0  0  0
 23 49  1  0  0  0  0
 24 25  2  0  0  0  0
 24 26  1  0  0  0  0
 26 50  1  0  0  0  0
 26 51  1  0  0  0  0
M  END
> <s_m_source_file>
AV-unprocessed.smi

> <i_m_source_file_index>
137

> <i_lp_mmshare_version>
43012

> <i_f3d_flags>
0

> <s_epik_input>
Tz1bU0BAXShbQ0gyXTEpW0NIMl1bQ0gyXU4oW0NIMl1bQ0BIXTFbQ0gzXSljKG5bY0hdbjIpYyhjMjMpbltjSF1uM1tDSF0oW0NIMl00KVtDSDJdQzQoW0NIMl1bT0hdKVtDSDJdW09IXQ==

> <s_epik_cmdline>
J2VwaWtfcHl0aG9uJywgJy1waCcsICc3LjAnLCAnLXRuJywgJzgnLCAnLW1hJywgJzIwMCcsICctbWV0YWxfYmluZGluZycsICctaW1hZScsICc8aW5maWxlLm1hZT4nLCAnLW9tYWUnLCAnPG91dGZpbGUubWFlPic=

> <r_lp_tautomer_probability>
1

> <r_epik_Ionization_Penalty>
0.000811024

> <r_epik_Ionization_Penalty_Charging>
0

> <r_epik_Ionization_Penalty_Neutral>
0.000811024

> <r_epik_State_Penalty>
0.000429598

> <r_epik_Charging_Adjusted_Penalty>
0.000429598

> <i_epik_Tot_Q>
0

> <i_epik_Tot_abs_Q>
0

> <r_epik_Metal_State_Penalty>
-0

> <b_epik_Metal_Only>
0

> <s_lp_Force_Field>
OPLS_2005

> <r_lp_Energy>
40.014

> <b_lp_Chiralities_Consistent>
1

> <s_lp_Variant>
AV-unprocessed.smi:137-2

> <Gold.Version>
5.8.1

> <Gold.Id.Protein>
6NUR|6NUR_protein|mol2

> <Gold.PLP.Fitness>
54.3621

> <Gold.PLP.PLP>
-46.4819

> <Gold.PLP.part.hbond>
-3.2390

> <Gold.PLP.part.metal>
0.0000

> <Gold.PLP.part.buried>
-7.3189

> <Gold.PLP.part.nonpolar>
-36.8174

> <Gold.PLP.part.repulsive>
0.2320

> <Gold.PLP.ligand.clash>
0.0000

> <Gold.PLP.ligand.torsion>
0.5937

> <Gold.PLP.Chemscore.Hbond>
2.2480

> <Gold.PLP.Chemscore.CHOScore>
0.5787

> <Gold.PLP.Chemscore.Metal>
0.0000

> <Gold.Chemscore.Hbonds>
donor molecule, donor type, donor heavy atom, donor atom, acceptor molecule, acceptor atom, score
      L1  H    18    40       P1  7948  1.00
      L1  H    20    43       P1  7948  0.16
      P1  H  7954  7966       L1    20  1.00
      L1  C    12    34       P1  8028  0.40

> <Gold.PLP.Chemscore.Internal.Correction>
0.5875

> <Gold.Rescore>
     Score         DG    S(hbond)    S(metal)    S(lipo)     H(rot)  DE(clash)    DE(int)     intcor
     14.38     -16.26       1.96        0.00      98.86       2.87       0.10       1.78       ----

> <Gold.Chemscore.Fitness>
14.3790

> <Gold.Chemscore.DG>
-16.2557

> <Gold.Chemscore.ZeroCoef>
-5.4800

> <Gold.Chemscore.Hbond>
1.9649

> <Gold.Chemscore.Metal>
0.0000

> <Gold.Chemscore.Lipo>
98.8590

> <Gold.Chemscore.Internal_Hbond>
0.0000

> <Gold.Chemscore.DEClash>
0.0994

> <Gold.Chemscore.DEInternal>
1.7773

> <Gold.Chemscore.Rot>
2.8725

> <Gold.Chemscore.Internal.Correction>
   9.000000E+99

> <Gold.Chemscore.Hbonds>
donor molecule, donor type, donor heavy atom, donor atom, acceptor molecule, acceptor atom, score
      L1  H    18    40       P1  7948  0.96
      L1  H    20    43       P1  7948  0.16
      P1  H  7954  7966       L1    20  0.50

> <Gold.Chemscore.Hbond.Weighted>
-6.5628

> <Gold.Chemscore.Metal.Weighted>
-0.0000

> <Gold.Chemscore.Lipo.Weighted>
-11.5665

> <Gold.Chemscore.Internal_Hbond.Weighted>
0.0000

> <Gold.Chemscore.DEClash.Weighted>
0.0994

> <Gold.Chemscore.DEInternal.Weighted>
1.7773

> <Gold.Chemscore.Rot.Weighted>
7.3535

> <Gold.Chemscore.Internal.Correction.Weighted>
   9.000000E+99

> <Gold.Protein.RotatedTorsions>
[ 6907 6896 6895 6894 ] final -172.24 input  -60.11 | X-H torsion
[ 7974 7965 7964 7962 ] final    2.00 input  175.53 | X-H torsion
[ 8008 7997 7996 7995 ] final  -79.66 input   59.86 | X-H torsion
[ 10167 10162 10161 10158 ] final -131.74 input  -65.29 | X-H torsion
[ 10718 10713 10712 10709 ] final  140.11 input   66.30 | X-H torsion
[ 10763 10752 10751 10750 ] final -106.89 input  -60.55 | X-H torsion
[ 11005 11000 10999 10996 ] final    8.95 input  -57.11 | X-H torsion

> <Gold.Protein.ActiveResidues>
 VAL166  LYS551  ARG553  GLY616  TRP617  ASP618  TYR619  PRO620  LYS621  CYS622 
 ASP623  PHE694  ASN695  SER759  ASP760  ASP761  ALA762  ILE779  LEU786  VAL792 
 PHE793  MET794  SER795  GLU796  ALA797  LYS798  CYS799  TRP800  GLU811  SER814 

> <Gold.Protein.RotatedAtoms>
  151.5368  133.3439  159.2927 H   0  0  0  0  0  0  0  0  0  0  0  0  # atno 6907 bound_to 6896
  150.8560  134.7901  159.7057 H   0  0  0  0  0  0  0  0  0  0  0  0  # atno 6908 bound_to 6896
  152.4593  134.5229  159.9839 H   0  0  0  0  0  0  0  0  0  0  0  0  # atno 6909 bound_to 6896
  146.2442  140.0903  142.8352 H   0  0  0  0  0  0  0  0  0  0  0  0  # atno 7974 bound_to 7965
  154.5806  140.0675  156.9099 H   0  0  0  0  0  0  0  0  0  0  0  0  # atno 8008 bound_to 7997
  155.2469  140.3349  155.4268 H   0  0  0  0  0  0  0  0  0  0  0  0  # atno 8009 bound_to 7997
  156.2187  140.1789  156.7514 H   0  0  0  0  0  0  0  0  0  0  0  0  # atno 8010 bound_to 7997
  139.9157  143.6441  152.2565 H   0  0  0  0  0  0  0  0  0  0  0  0  # atno 10167 bound_to 10162
  157.4069  131.1023  151.0494 H   0  0  0  0  0  0  0  0  0  0  0  0  # atno 10718 bound_to 10713
  154.8041  135.4695  154.0347 H   0  0  0  0  0  0  0  0  0  0  0  0  # atno 10763 bound_to 10752
  153.1830  135.6843  153.8459 H   0  0  0  0  0  0  0  0  0  0  0  0  # atno 10764 bound_to 10752
  153.8003  135.3231  155.3367 H   0  0  0  0  0  0  0  0  0  0  0  0  # atno 10765 bound_to 10752
  140.5312  134.0464  155.7874 H   0  0  0  0  0  0  0  0  0  0  0  0  # atno 11005 bound_to 11000
  145.0656  140.9119  143.4912 LP  0  0  0  0  0  0  0  0  0  0  0  0  # atno 17320 bound_to 7965
  145.1027  139.2811  143.5678 LP  0  0  0  0  0  0  0  0  0  0  0  0  # atno 17321 bound_to 7965
  139.6904  144.7647  151.1449 LP  0  0  0  0  0  0  0  0  0  0  0  0  # atno 17342 bound_to 10162
  140.7674  143.5597  150.9112 LP  0  0  0  0  0  0  0  0  0  0  0  0  # atno 17343 bound_to 10162
  157.1473  130.6169  149.5572 LP  0  0  0  0  0  0  0  0  0  0  0  0  # atno 17370 bound_to 10713
  155.9839  130.4861  150.6956 LP  0  0  0  0  0  0  0  0  0  0  0  0  # atno 17371 bound_to 10713
  141.1280  133.9350  157.2595 LP  0  0  0  0  0  0  0  0  0  0  0  0  # atno 17394 bound_to 11000
  139.9553  135.0167  156.9110 LP  0  0  0  0  0  0  0  0  0  0  0  0  # atno 17395 bound_to 11000

$$$$
