AV-unprocessed.smi:2093|AV-procd|sdf|8548|dock10
  -GOLD-   2272011273D 1   1.00000     0.00000
 Structure written by MMmdl.
 30 31  0  0  0  0  0  0  0  0  2 V2000
  154.2750  141.3090  160.9026 C   0  0  0  0  0  0  0  0  0  0  0  0
  152.8759  141.7814  160.4672 C   0  0  2  0  0  0  0  0  0  0  0  0
  152.4900  141.1054  159.2301 N   0  0  0  0  0  0  0  0  0  0  0  0
  151.2927  141.1720  158.6301 C   0  0  0  0  0  0  0  0  0  0  0  0
  150.3882  141.8436  159.1319 O   0  0  0  0  0  0  0  0  0  0  0  0
  151.2174  140.4551  157.4855 N   0  5  0  0  0  0  0  0  0  0  0  0
  150.1497  140.5824  156.6810 C   0  0  0  0  0  0  0  0  0  0  0  0
  150.1856  140.3010  155.3736 N   0  0  0  0  0  0  0  0  0  0  0  0
  148.9662  140.5103  154.7270 C   0  0  0  0  0  0  0  0  0  0  0  0
  147.9810  140.9707  155.5595 C   0  0  0  0  0  0  0  0  0  0  0  0
  148.5593  141.1568  157.1906 S   0  0  0  0  0  0  0  0  0  0  0  0
  152.8170  143.3060  160.2484 C   0  0  2  0  0  0  0  0  0  0  0  0
  151.4641  143.9448  160.5647 C   0  0  0  0  0  0  0  0  0  0  0  0
  151.5248  145.2143  159.7469 C   0  0  0  0  0  0  0  0  0  0  0  0
  152.2485  144.7461  158.4876 C   0  0  0  0  0  0  0  0  0  0  0  0
  153.0381  143.6246  158.8758 O   0  0  0  0  0  0  0  0  0  0  0  0
  154.5714  141.7613  161.8490 H   0  0  0  0  0  0  0  0  0  0  0  0
  155.0293  141.5670  160.1585 H   0  0  0  0  0  0  0  0  0  0  0  0
  154.3025  140.2277  161.0416 H   0  0  0  0  0  0  0  0  0  0  0  0
  152.1600  141.5231  161.2496 H   0  0  0  0  0  0  0  0  0  0  0  0
  153.1996  140.5467  158.7792 H   0  0  0  0  0  0  0  0  0  0  0  0
  148.8903  140.3064  153.6694 H   0  0  0  0  0  0  0  0  0  0  0  0
  146.9577  141.2119  155.3155 H   0  0  0  0  0  0  0  0  0  0  0  0
  153.5925  143.8031  160.8343 H   0  0  0  0  0  0  0  0  0  0  0  0
  150.6477  143.3128  160.2125 H   0  0  0  0  0  0  0  0  0  0  0  0
  151.3188  144.1327  161.6288 H   0  0  0  0  0  0  0  0  0  0  0  0
  150.5427  145.6405  159.5408 H   0  0  0  0  0  0  0  0  0  0  0  0
  152.1221  145.9648  160.2668 H   0  0  0  0  0  0  0  0  0  0  0  0
  151.5330  144.4191  157.7323 H   0  0  0  0  0  0  0  0  0  0  0  0
  152.8652  145.5326  158.0519 H   0  0  0  0  0  0  0  0  0  0  0  0
  1  2  1  0  0  0  0
  1 17  1  0  0  0  0
  1 18  1  0  0  0  0
  1 19  1  0  0  0  0
  2  3  1  0  0  0  0
  2 12  1  0  0  0  0
  2 20  1  0  0  0  0
  3  4  1  0  0  0  0
  3 21  1  0  0  0  0
  4  5  2  0  0  0  0
  4  6  1  0  0  0  0
  6  7  1  0  0  0  0
  7 11  1  0  0  0  0
  7  8  2  0  0  0  0
  8  9  1  0  0  0  0
  9 10  2  0  0  0  0
  9 22  1  0  0  0  0
 10 11  1  0  0  0  0
 10 23  1  0  0  0  0
 12 16  1  0  0  0  0
 12 13  1  0  0  0  0
 12 24  1  0  0  0  0
 13 14  1  0  0  0  0
 13 25  1  0  0  0  0
 13 26  1  0  0  0  0
 14 15  1  0  0  0  0
 14 27  1  0  0  0  0
 14 28  1  0  0  0  0
 15 16  1  0  0  0  0
 15 29  1  0  0  0  0
 15 30  1  0  0  0  0
M  CHG  1   6  -1
M  END
> <s_m_source_file>
AV-unprocessed.smi

> <i_m_source_file_index>
2093

> <i_lp_mmshare_version>
43012

> <i_f3d_flags>
0

> <s_epik_input>
TzFbQ0gyXVtDSDJdW0NIMl1bQ0BIXTFbQ0BIXShbQ0gzXSlbTkhdQyg9TylbTkhdYzJuW2NIXVtjSF1zMg==

> <s_epik_cmdline>
J2VwaWtfcHl0aG9uJywgJy1waCcsICc3LjAnLCAnLXRuJywgJzgnLCAnLW1hJywgJzIwMCcsICctbWV0YWxfYmluZGluZycsICctaW1hZScsICc8aW5maWxlLm1hZT4nLCAnLW9tYWUnLCAnPG91dGZpbGUubWFlPic=

> <r_lp_tautomer_probability>
0.999

> <r_epik_Ionization_Penalty>
8.26346

> <r_epik_Ionization_Penalty_Charging>
6.6559

> <r_epik_Ionization_Penalty_Neutral>
1.60756

> <r_epik_State_Penalty>
6.65607

> <r_epik_Charging_Adjusted_Penalty>
13.312

> <i_epik_Tot_Q>
-1

> <i_epik_Tot_abs_Q>
1

> <r_epik_Metal_State_Penalty>
2.5789

> <b_epik_Metal_Only>
1

> <s_lp_Force_Field>
OPLS_2005

> <r_lp_Energy>
13.8271

> <b_lp_Chiralities_Consistent>
1

> <s_lp_Variant>
AV-unprocessed.smi:2093-5

> <Gold.Version>
5.8.1

> <Gold.Id.Protein>
6NUR|6NUR_protein|mol2

> <Gold.PLP.Fitness>
40.8179

> <Gold.PLP.PLP>
-37.5058

> <Gold.PLP.part.hbond>
-1.5942

> <Gold.PLP.part.metal>
0.0000

> <Gold.PLP.part.buried>
-6.2118

> <Gold.PLP.part.nonpolar>
-31.1691

> <Gold.PLP.part.repulsive>
0.2197

> <Gold.PLP.ligand.clash>
0.0000

> <Gold.PLP.ligand.torsion>
1.0002

> <Gold.PLP.Chemscore.Hbond>
0.7616

> <Gold.PLP.Chemscore.CHOScore>
1.0000

> <Gold.PLP.Chemscore.Metal>
0.0000

> <Gold.Chemscore.Hbonds>
donor molecule, donor type, donor heavy atom, donor atom, acceptor molecule, acceptor atom, score
      L1  C     9    22       P1  7957  0.77

> <Gold.PLP.Chemscore.Internal.Correction>
0.0276

> <Gold.Rescore>
     Score         DG    S(hbond)    S(metal)    S(lipo)     H(rot)  DE(clash)    DE(int)     intcor
     11.51     -14.40       0.78        0.00      81.86       1.28       0.02       2.86       ----

> <Gold.Chemscore.Fitness>
11.5124

> <Gold.Chemscore.DG>
-14.4019

> <Gold.Chemscore.ZeroCoef>
-5.4800

> <Gold.Chemscore.Hbond>
0.7832

> <Gold.Chemscore.Metal>
0.0000

> <Gold.Chemscore.Lipo>
81.8558

> <Gold.Chemscore.Internal_Hbond>
0.0000

> <Gold.Chemscore.DEClash>
0.0249

> <Gold.Chemscore.DEInternal>
2.8646

> <Gold.Chemscore.Rot>
1.2778

> <Gold.Chemscore.Internal.Correction>
   9.000000E+99

> <Gold.Chemscore.Hbonds>
donor molecule, donor type, donor heavy atom, donor atom, acceptor molecule, acceptor atom, score
      P1  H  7989  7998       L1     8  0.01

> <Gold.Chemscore.Hbond.Weighted>
-2.6159

> <Gold.Chemscore.Metal.Weighted>
-0.0000

> <Gold.Chemscore.Lipo.Weighted>
-9.5771

> <Gold.Chemscore.Internal_Hbond.Weighted>
0.0000

> <Gold.Chemscore.DEClash.Weighted>
0.0249

> <Gold.Chemscore.DEInternal.Weighted>
2.8646

> <Gold.Chemscore.Rot.Weighted>
3.2711

> <Gold.Chemscore.Internal.Correction.Weighted>
   9.000000E+99

> <Gold.Protein.RotatedTorsions>
[ 6907 6896 6895 6894 ] final  110.67 input  -60.11 | X-H torsion
[ 7974 7965 7964 7962 ] final   33.58 input  175.53 | X-H torsion
[ 8008 7997 7996 7995 ] final   31.71 input   59.86 | X-H torsion
[ 10167 10162 10161 10158 ] final   38.81 input  -65.29 | X-H torsion
[ 10718 10713 10712 10709 ] final  -30.17 input   66.30 | X-H torsion
[ 10763 10752 10751 10750 ] final  -46.41 input  -60.55 | X-H torsion
[ 11005 11000 10999 10996 ] final  -74.44 input  -57.11 | X-H torsion

> <Gold.Protein.ActiveResidues>
 VAL166  LYS551  ARG553  GLY616  TRP617  ASP618  TYR619  PRO620  LYS621  CYS622 
 ASP623  PHE694  ASN695  SER759  ASP760  ASP761  ALA762  ILE779  LEU786  VAL792 
 PHE793  MET794  SER795  GLU796  ALA797  LYS798  CYS799  TRP800  GLU811  SER814 

> <Gold.Protein.RotatedAtoms>
  152.5008  133.8767  159.7325 H   0  0  0  0  0  0  0  0  0  0  0  0  # atno 6907 bound_to 6896
  150.9239  133.6838  159.2832 H   0  0  0  0  0  0  0  0  0  0  0  0  # atno 6908 bound_to 6896
  151.4205  135.1001  159.9665 H   0  0  0  0  0  0  0  0  0  0  0  0  # atno 6909 bound_to 6896
  146.1411  139.6379  142.9162 H   0  0  0  0  0  0  0  0  0  0  0  0  # atno 7974 bound_to 7965
  155.1107  140.3238  155.4522 H   0  0  0  0  0  0  0  0  0  0  0  0  # atno 8008 bound_to 7997
  156.2691  140.2044  156.6179 H   0  0  0  0  0  0  0  0  0  0  0  0  # atno 8009 bound_to 7997
  154.6758  140.0531  157.0201 H   0  0  0  0  0  0  0  0  0  0  0  0  # atno 8010 bound_to 7997
  140.3901  144.1864  150.6131 H   0  0  0  0  0  0  0  0  0  0  0  0  # atno 10167 bound_to 10162
  156.4031  130.4394  149.7307 H   0  0  0  0  0  0  0  0  0  0  0  0  # atno 10718 bound_to 10713
  154.0445  135.6639  153.4793 H   0  0  0  0  0  0  0  0  0  0  0  0  # atno 10763 bound_to 10752
  153.0488  135.5097  154.7811 H   0  0  0  0  0  0  0  0  0  0  0  0  # atno 10764 bound_to 10752
  154.6797  135.3043  154.9596 H   0  0  0  0  0  0  0  0  0  0  0  0  # atno 10765 bound_to 10752
  141.1635  133.6912  156.7365 H   0  0  0  0  0  0  0  0  0  0  0  0  # atno 11005 bound_to 11000
  145.5044  141.0437  143.2522 LP  0  0  0  0  0  0  0  0  0  0  0  0  # atno 17320 bound_to 7965
  144.7794  139.6560  143.7161 LP  0  0  0  0  0  0  0  0  0  0  0  0  # atno 17321 bound_to 7965
  140.4849  143.2366  151.8902 LP  0  0  0  0  0  0  0  0  0  0  0  0  # atno 17342 bound_to 10162
  139.4789  144.5229  151.8775 LP  0  0  0  0  0  0  0  0  0  0  0  0  # atno 17343 bound_to 10162
  156.4315  130.7817  151.2837 LP  0  0  0  0  0  0  0  0  0  0  0  0  # atno 17370 bound_to 10713
  157.7504  131.0152  150.3496 LP  0  0  0  0  0  0  0  0  0  0  0  0  # atno 17371 bound_to 10713
  140.2706  134.8395  157.3844 LP  0  0  0  0  0  0  0  0  0  0  0  0  # atno 17394 bound_to 11000
  140.1525  134.4832  155.7951 LP  0  0  0  0  0  0  0  0  0  0  0  0  # atno 17395 bound_to 11000

$$$$
