AV-unprocessed.smi:3336|AV-procd|sdf|12854|dock2
  -GOLD-   2272019243D 1   1.00000     0.00000
 Structure written by MMmdl.
 42 43  0  0  0  0  0  0  0  0  2 V2000
  149.8436  142.9300  158.6592 C   0  0  0  0  0  0  0  0  0  0  0  0
  151.0341  142.9250  157.6811 C   0  0  1  0  0  0  0  0  0  0  0  0
  152.1692  141.9890  158.1448 C   0  0  0  0  0  0  0  0  0  0  0  0
  152.7126  142.3514  159.4418 N   0  0  0  0  0  0  0  0  0  0  0  0
  153.8329  141.8539  160.0741 C   0  0  0  0  0  0  0  0  0  0  0  0
  153.9488  142.5065  161.2679 C   0  0  0  0  0  0  0  0  0  0  0  0
  152.8432  143.4026  161.2725 C   0  0  0  0  0  0  0  0  0  0  0  0
  152.1071  143.3092  160.1767 N   0  0  0  0  0  0  0  0  0  0  0  0
  150.5981  142.5262  156.3217 N   0  3  0  0  0  0  0  0  0  0  0  0
  149.6926  141.3530  156.2415 C   0  0  2  0  0  0  0  0  0  0  0  0
  150.5384  140.0691  156.2007 C   0  0  0  0  0  0  0  0  0  0  0  0
  148.7728  141.4280  155.0028 C   0  0  0  0  0  0  0  0  0  0  0  0
  149.3024  141.4134  153.8899 O   0  0  0  0  0  0  0  0  0  0  0  0
  147.4264  141.5024  155.1533 N   0  0  0  0  0  0  0  0  0  0  0  0
  146.7735  141.5001  156.4672 C   0  0  0  0  0  0  0  0  0  0  0  0
  146.0464  142.8421  156.6579 C   0  0  0  0  0  0  0  0  0  0  0  0
  145.0995  143.0229  155.6088 O   0  0  0  0  0  0  0  0  0  0  0  0
  145.6949  143.0091  154.3146 C   0  0  0  0  0  0  0  0  0  0  0  0
  146.4281  141.6733  154.0905 C   0  0  0  0  0  0  0  0  0  0  0  0
  150.1445  143.2701  159.6504 H   0  0  0  0  0  0  0  0  0  0  0  0
  149.4178  141.9320  158.7676 H   0  0  0  0  0  0  0  0  0  0  0  0
  149.0471  143.5951  158.3271 H   0  0  0  0  0  0  0  0  0  0  0  0
  151.4411  143.9358  157.6299 H   0  0  0  0  0  0  0  0  0  0  0  0
  151.8127  140.9591  158.1964 H   0  0  0  0  0  0  0  0  0  0  0  0
  152.9862  141.9998  157.4217 H   0  0  0  0  0  0  0  0  0  0  0  0
  154.4470  141.0846  159.6290 H   0  0  0  0  0  0  0  0  0  0  0  0
  154.7095  142.3680  162.0218 H   0  0  0  0  0  0  0  0  0  0  0  0
  152.5567  144.1140  162.0332 H   0  0  0  0  0  0  0  0  0  0  0  0
  150.1057  143.3052  155.9070 H   0  0  0  0  0  0  0  0  0  0  0  0
  149.0953  141.3531  157.1510 H   0  0  0  0  0  0  0  0  0  0  0  0
  149.9175  139.1736  156.1753 H   0  0  0  0  0  0  0  0  0  0  0  0
  151.1748  139.9949  157.0830 H   0  0  0  0  0  0  0  0  0  0  0  0
  151.1862  140.0453  155.3233 H   0  0  0  0  0  0  0  0  0  0  0  0
  146.0597  140.6763  156.5135 H   0  0  0  0  0  0  0  0  0  0  0  0
  147.4683  141.3409  157.2927 H   0  0  0  0  0  0  0  0  0  0  0  0
  145.5221  142.8551  157.6134 H   0  0  0  0  0  0  0  0  0  0  0  0
  146.7556  143.6713  156.6694 H   0  0  0  0  0  0  0  0  0  0  0  0
  144.9136  143.1414  153.5659 H   0  0  0  0  0  0  0  0  0  0  0  0
  146.3800  143.8521  154.2124 H   0  0  0  0  0  0  0  0  0  0  0  0
  146.8383  141.6647  153.0839 H   0  0  0  0  0  0  0  0  0  0  0  0
  145.7177  140.8463  154.1301 H   0  0  0  0  0  0  0  0  0  0  0  0
  151.4245  142.3416  155.7716 H   0  0  0  0  0  0  0  0  0  0  0  0
  1  2  1  0  0  0  0
  1 20  1  0  0  0  0
  1 21  1  0  0  0  0
  1 22  1  0  0  0  0
  2  3  1  0  0  0  0
  2  9  1  0  0  0  0
  2 23  1  0  0  0  0
  3  4  1  0  0  0  0
  3 24  1  0  0  0  0
  3 25  1  0  0  0  0
  4  8  1  0  0  0  0
  4  5  1  0  0  0  0
  5  6  2  0  0  0  0
  5 26  1  0  0  0  0
  6  7  1  0  0  0  0
  6 27  1  0  0  0  0
  7  8  2  0  0  0  0
  7 28  1  0  0  0  0
  9 10  1  0  0  0  0
  9 29  1  0  0  0  0
  9 42  1  0  0  0  0
 10 11  1  0  0  0  0
 10 12  1  0  0  0  0
 10 30  1  0  0  0  0
 11 31  1  0  0  0  0
 11 32  1  0  0  0  0
 11 33  1  0  0  0  0
 12 13  2  0  0  0  0
 12 14  1  0  0  0  0
 14 19  1  0  0  0  0
 14 15  1  0  0  0  0
 15 16  1  0  0  0  0
 15 34  1  0  0  0  0
 15 35  1  0  0  0  0
 16 17  1  0  0  0  0
 16 36  1  0  0  0  0
 16 37  1  0  0  0  0
 17 18  1  0  0  0  0
 18 19  1  0  0  0  0
 18 38  1  0  0  0  0
 18 39  1  0  0  0  0
 19 40  1  0  0  0  0
 19 41  1  0  0  0  0
M  CHG  1   9   1
M  END
> <s_m_source_file>
AV-unprocessed.smi

> <i_m_source_file_index>
3336

> <i_lp_mmshare_version>
43012

> <i_f3d_flags>
0

> <s_epik_input>
bjFbY0hdW2NIXVtjSF1uMVtDSDJdW0NAQEhdKFtDSDNdKVtOSF1bQ0BIXShbQ0gzXSlDKD1PKU4yW0NIMl1bQ0gyXU9bQ0gyXVtDSDJdMg==

> <s_epik_cmdline>
J2VwaWtfcHl0aG9uJywgJy1waCcsICc3LjAnLCAnLXRuJywgJzgnLCAnLW1hJywgJzIwMCcsICctbWV0YWxfYmluZGluZycsICctaW1hZScsICc8aW5maWxlLm1hZT4nLCAnLW9tYWUnLCAnPG91dGZpbGUubWFlPic=

> <r_lp_tautomer_probability>
1

> <r_epik_Ionization_Penalty>
0.200288

> <r_epik_Ionization_Penalty_Charging>
0.200285

> <r_epik_Ionization_Penalty_Neutral>
3.37705e-06

> <r_epik_State_Penalty>
0.190126

> <r_epik_Charging_Adjusted_Penalty>
0.39041

> <i_epik_Tot_Q>
1

> <i_epik_Tot_abs_Q>
1

> <r_epik_Metal_State_Penalty>
0.190133

> <b_epik_Metal_Only>
0

> <s_lp_Force_Field>
OPLS_2005

> <r_lp_Energy>
27.5118

> <b_lp_Chiralities_Consistent>
1

> <s_lp_Variant>
AV-unprocessed.smi:3336-2

> <Gold.Version>
5.8.1

> <Gold.Id.Protein>
6NUR|6NUR_protein|mol2

> <Gold.PLP.Fitness>
48.4349

> <Gold.PLP.PLP>
-40.4804

> <Gold.PLP.part.hbond>
-3.1790

> <Gold.PLP.part.metal>
0.0000

> <Gold.PLP.part.buried>
-6.2819

> <Gold.PLP.part.nonpolar>
-32.6199

> <Gold.PLP.part.repulsive>
1.6093

> <Gold.PLP.ligand.clash>
0.0000

> <Gold.PLP.ligand.torsion>
0.5505

> <Gold.PLP.Chemscore.Hbond>
2.9529

> <Gold.PLP.Chemscore.CHOScore>
0.0000

> <Gold.PLP.Chemscore.Metal>
0.0000

> <Gold.Chemscore.Hbonds>
donor molecule, donor type, donor heavy atom, donor atom, acceptor molecule, acceptor atom, score
      L1  H     9    29       P1  8028  2.00
      P1  H  7989  7998       L1    13  0.03
      P1  H  8011  8017       L1    13  0.77

> <Gold.PLP.Chemscore.Internal.Correction>
0.1968

> <Gold.Rescore>
     Score         DG    S(hbond)    S(metal)    S(lipo)     H(rot)  DE(clash)    DE(int)     intcor
     14.17     -16.16       1.76        0.00      81.75       1.85       0.10       1.89       ----

> <Gold.Chemscore.Fitness>
14.1698

> <Gold.Chemscore.DG>
-16.1632

> <Gold.Chemscore.ZeroCoef>
-5.4800

> <Gold.Chemscore.Hbond>
1.7561

> <Gold.Chemscore.Metal>
0.0000

> <Gold.Chemscore.Lipo>
81.7452

> <Gold.Chemscore.Internal_Hbond>
0.0000

> <Gold.Chemscore.DEClash>
0.1024

> <Gold.Chemscore.DEInternal>
1.8910

> <Gold.Chemscore.Rot>
1.8541

> <Gold.Chemscore.Internal.Correction>
   9.000000E+99

> <Gold.Chemscore.Hbonds>
donor molecule, donor type, donor heavy atom, donor atom, acceptor molecule, acceptor atom, score
      L1  H     9    29       P1  8028  1.00
      P1  H  7989  7998       L1    13  0.03
      P1  H  8011  8017       L1    13  0.76

> <Gold.Chemscore.Hbond.Weighted>
-5.8655

> <Gold.Chemscore.Metal.Weighted>
-0.0000

> <Gold.Chemscore.Lipo.Weighted>
-9.5642

> <Gold.Chemscore.Internal_Hbond.Weighted>
0.0000

> <Gold.Chemscore.DEClash.Weighted>
0.1024

> <Gold.Chemscore.DEInternal.Weighted>
1.8910

> <Gold.Chemscore.Rot.Weighted>
4.7465

> <Gold.Chemscore.Internal.Correction.Weighted>
   9.000000E+99

> <Gold.Protein.RotatedTorsions>
[ 6907 6896 6895 6894 ] final  155.19 input  -60.11 | X-H torsion
[ 7974 7965 7964 7962 ] final   34.39 input  175.53 | X-H torsion
[ 8008 7997 7996 7995 ] final  179.11 input   59.86 | X-H torsion
[ 10167 10162 10161 10158 ] final   40.87 input  -65.29 | X-H torsion
[ 10718 10713 10712 10709 ] final  -95.30 input   66.30 | X-H torsion
[ 10763 10752 10751 10750 ] final   84.32 input  -60.55 | X-H torsion
[ 11005 11000 10999 10996 ] final   20.88 input  -57.11 | X-H torsion

> <Gold.Protein.ActiveResidues>
 VAL166  LYS551  ARG553  GLY616  TRP617  ASP618  TYR619  PRO620  LYS621  CYS622 
 ASP623  PHE694  ASN695  SER759  ASP760  ASP761  ALA762  ILE779  LEU786  VAL792 
 PHE793  MET794  SER795  GLU796  ALA797  LYS798  CYS799  TRP800  GLU811  SER814 

> <Gold.Protein.RotatedAtoms>
  152.0477  133.4005  159.4363 H   0  0  0  0  0  0  0  0  0  0  0  0  # atno 6907 bound_to 6896
  150.6872  134.3343  159.4849 H   0  0  0  0  0  0  0  0  0  0  0  0  # atno 6908 bound_to 6896
  152.1149  134.9247  160.0616 H   0  0  0  0  0  0  0  0  0  0  0  0  # atno 6909 bound_to 6896
  146.1356  139.6275  142.9197 H   0  0  0  0  0  0  0  0  0  0  0  0  # atno 7974 bound_to 7965
  156.0471  140.1316  157.0092 H   0  0  0  0  0  0  0  0  0  0  0  0  # atno 8008 bound_to 7997
  154.4417  140.1018  156.6392 H   0  0  0  0  0  0  0  0  0  0  0  0  # atno 8009 bound_to 7997
  155.5580  140.3464  155.4486 H   0  0  0  0  0  0  0  0  0  0  0  0  # atno 8010 bound_to 7997
  140.3700  144.2118  150.6133 H   0  0  0  0  0  0  0  0  0  0  0  0  # atno 10167 bound_to 10162
  156.0041  130.5103  150.6056 H   0  0  0  0  0  0  0  0  0  0  0  0  # atno 10718 bound_to 10713
  153.1371  135.4658  154.9439 H   0  0  0  0  0  0  0  0  0  0  0  0  # atno 10763 bound_to 10752
  154.7715  135.3160  154.8182 H   0  0  0  0  0  0  0  0  0  0  0  0  # atno 10764 bound_to 10752
  153.8712  135.6903  153.4828 H   0  0  0  0  0  0  0  0  0  0  0  0  # atno 10765 bound_to 10752
  140.3978  134.1751  155.7663 H   0  0  0  0  0  0  0  0  0  0  0  0  # atno 11005 bound_to 11000
  145.5163  141.0433  143.2460 LP  0  0  0  0  0  0  0  0  0  0  0  0  # atno 17320 bound_to 7965
  144.7736  139.6679  143.7184 LP  0  0  0  0  0  0  0  0  0  0  0  0  # atno 17321 bound_to 7965
  140.5043  143.2309  151.8631 LP  0  0  0  0  0  0  0  0  0  0  0  0  # atno 17342 bound_to 10162
  139.4805  144.5023  151.9043 LP  0  0  0  0  0  0  0  0  0  0  0  0  # atno 17343 bound_to 10162
  157.3897  131.0794  151.1404 LP  0  0  0  0  0  0  0  0  0  0  0  0  # atno 17370 bound_to 10713
  157.2100  130.6433  149.5770 LP  0  0  0  0  0  0  0  0  0  0  0  0  # atno 17371 bound_to 10713
  141.1868  133.8295  157.1056 LP  0  0  0  0  0  0  0  0  0  0  0  0  # atno 17394 bound_to 11000
  140.0359  134.9878  157.0870 LP  0  0  0  0  0  0  0  0  0  0  0  0  # atno 17395 bound_to 11000

$$$$
