AV-unprocessed.smi:1426|AV-procd|sdf|5806|dock4
  -GOLD-   22720 5463D 1   1.00000     0.00000
 Structure written by MMmdl.
 43 45  0  0  0  0  0  0  0  0  1 V2000
  149.8747  133.3826  155.3981 O   0  0  0  0  0  0  0  0  0  0  0  0
  149.5295  134.1481  154.4979 C   0  0  0  0  0  0  0  0  0  0  0  0
  149.8907  135.4377  154.4403 N   0  0  0  0  0  0  0  0  0  0  0  0
  150.7061  136.1338  155.4307 C   0  0  0  0  0  0  0  0  0  0  0  0
  150.5185  137.6605  155.3499 C   0  0  1  0  0  0  0  0  0  0  0  0
  151.3691  138.4693  156.3107 C   0  0  0  0  0  0  0  0  0  0  0  0
  151.3307  139.8566  155.6774 C   0  0  0  0  0  0  0  0  0  0  0  0
  151.1963  139.6426  154.2751 O   0  0  0  0  0  0  0  0  0  0  0  0
  150.9424  138.2659  154.0125 C   0  0  0  0  0  0  0  0  0  0  0  0
  148.7300  133.8237  153.4684 N   0  0  0  0  0  0  0  0  0  0  0  0
  148.0829  132.5809  153.2150 C   0  0  0  0  0  0  0  0  0  0  0  0
  148.7004  131.3348  153.4817 C   0  0  0  0  0  0  0  0  0  0  0  0
  148.0032  130.1478  153.1947 C   0  0  0  0  0  0  0  0  0  0  0  0
  146.7148  130.2479  152.6413 C   0  0  0  0  0  0  0  0  0  0  0  0
  146.1205  131.4260  152.3642 N   0  0  0  0  0  0  0  0  0  0  0  0
  146.7831  132.5757  152.6417 C   0  0  0  0  0  0  0  0  0  0  0  0
  146.1523  133.7918  152.3078 N   0  0  0  0  0  0  0  0  0  0  0  0
  145.9646  133.9685  150.8703 C   0  0  0  0  0  0  0  0  0  0  0  0
  144.6111  134.6588  150.6907 C   0  0  0  0  0  0  0  0  0  0  0  0
  143.8318  134.2110  151.9210 C   0  0  0  0  0  0  0  0  0  0  0  0
  144.9159  134.1598  152.9960 C   0  0  0  0  0  0  0  0  0  0  0  0
  149.5561  135.9878  153.6628 H   0  0  0  0  0  0  0  0  0  0  0  0
  150.4918  135.7712  156.4377 H   0  0  0  0  0  0  0  0  0  0  0  0
  151.7493  135.8854  155.2346 H   0  0  0  0  0  0  0  0  0  0  0  0
  149.4691  137.9059  155.5227 H   0  0  0  0  0  0  0  0  0  0  0  0
  150.9911  138.4621  157.3335 H   0  0  0  0  0  0  0  0  0  0  0  0
  152.3927  138.0919  156.3225 H   0  0  0  0  0  0  0  0  0  0  0  0
  150.4587  140.4099  156.0280 H   0  0  0  0  0  0  0  0  0  0  0  0
  152.2196  140.4439  155.9085 H   0  0  0  0  0  0  0  0  0  0  0  0
  151.8665  137.8085  153.6563 H   0  0  0  0  0  0  0  0  0  0  0  0
  150.1845  138.1420  153.2388 H   0  0  0  0  0  0  0  0  0  0  0  0
  148.4589  134.5822  152.8600 H   0  0  0  0  0  0  0  0  0  0  0  0
  149.6986  131.2691  153.8868 H   0  0  0  0  0  0  0  0  0  0  0  0
  148.4486  129.1836  153.3898 H   0  0  0  0  0  0  0  0  0  0  0  0
  146.1498  129.3583  152.4052 H   0  0  0  0  0  0  0  0  0  0  0  0
  146.7728  134.5601  150.4392 H   0  0  0  0  0  0  0  0  0  0  0  0
  145.9569  132.9992  150.3682 H   0  0  0  0  0  0  0  0  0  0  0  0
  144.7408  135.7420  150.7111 H   0  0  0  0  0  0  0  0  0  0  0  0
  144.1207  134.3939  149.7535 H   0  0  0  0  0  0  0  0  0  0  0  0
  143.0108  134.8813  152.1768 H   0  0  0  0  0  0  0  0  0  0  0  0
  143.4205  133.2135  151.7586 H   0  0  0  0  0  0  0  0  0  0  0  0
  144.6437  133.4965  153.8174 H   0  0  0  0  0  0  0  0  0  0  0  0
  145.0595  135.1517  153.4255 H   0  0  0  0  0  0  0  0  0  0  0  0
  1  2  2  0  0  0  0
  2  3  1  0  0  0  0
  2 10  1  0  0  0  0
  3  4  1  0  0  0  0
  3 22  1  0  0  0  0
  4  5  1  0  0  0  0
  4 23  1  0  0  0  0
  4 24  1  0  0  0  0
  5  9  1  0  0  0  0
  5  6  1  0  0  0  0
  5 25  1  0  0  0  0
  6  7  1  0  0  0  0
  6 26  1  0  0  0  0
  6 27  1  0  0  0  0
  7  8  1  0  0  0  0
  7 28  1  0  0  0  0
  7 29  1  0  0  0  0
  8  9  1  0  0  0  0
  9 30  1  0  0  0  0
  9 31  1  0  0  0  0
 10 11  1  0  0  0  0
 10 32  1  0  0  0  0
 11 16  1  0  0  0  0
 11 12  2  0  0  0  0
 12 13  1  0  0  0  0
 12 33  1  0  0  0  0
 13 14  2  0  0  0  0
 13 34  1  0  0  0  0
 14 15  1  0  0  0  0
 14 35  1  0  0  0  0
 15 16  2  0  0  0  0
 16 17  1  0  0  0  0
 17 21  1  0  0  0  0
 17 18  1  0  0  0  0
 18 19  1  0  0  0  0
 18 36  1  0  0  0  0
 18 37  1  0  0  0  0
 19 20  1  0  0  0  0
 19 38  1  0  0  0  0
 19 39  1  0  0  0  0
 20 21  1  0  0  0  0
 20 40  1  0  0  0  0
 20 41  1  0  0  0  0
 21 42  1  0  0  0  0
 21 43  1  0  0  0  0
M  END
> <s_m_source_file>
AV-unprocessed.smi

> <i_m_source_file_index>
1426

> <i_lp_mmshare_version>
43012

> <i_f3d_flags>
0

> <s_epik_input>
W0NIMl0xT1tDSDJdW0NIMl1bQ0BIXTFbQ0gyXVtOSF1DKD1PKVtOSF1jMltjSF1bY0hdW2NIXW5jMk4zW0NIMl1bQ0gyXVtDSDJdW0NIMl0z

> <s_epik_cmdline>
J2VwaWtfcHl0aG9uJywgJy1waCcsICc3LjAnLCAnLXRuJywgJzgnLCAnLW1hJywgJzIwMCcsICctbWV0YWxfYmluZGluZycsICctaW1hZScsICc8aW5maWxlLm1hZT4nLCAnLW9tYWUnLCAnPG91dGZpbGUubWFlPic=

> <r_lp_tautomer_probability>
1

> <r_epik_Ionization_Penalty>
0.0999657

> <r_epik_Ionization_Penalty_Charging>
0

> <r_epik_Ionization_Penalty_Neutral>
0.0999657

> <r_epik_State_Penalty>
0.0894442

> <r_epik_Charging_Adjusted_Penalty>
0.0894442

> <i_epik_Tot_Q>
0

> <i_epik_Tot_abs_Q>
0

> <r_epik_Metal_State_Penalty>
0.076486

> <b_epik_Metal_Only>
0

> <s_lp_Force_Field>
OPLS_2005

> <r_lp_Energy>
46.9111

> <b_lp_Chiralities_Consistent>
1

> <s_lp_Variant>
AV-unprocessed.smi:1426-2

> <Gold.Version>
5.8.1

> <Gold.Id.Protein>
6NUR|6NUR_protein|mol2

> <Gold.PLP.Fitness>
41.9646

> <Gold.PLP.PLP>
-33.8183

> <Gold.PLP.part.hbond>
-3.0000

> <Gold.PLP.part.metal>
0.0000

> <Gold.PLP.part.buried>
-3.2118

> <Gold.PLP.part.nonpolar>
-25.8686

> <Gold.PLP.part.repulsive>
0.4591

> <Gold.PLP.ligand.clash>
0.0000

> <Gold.PLP.ligand.torsion>
0.4738

> <Gold.PLP.Chemscore.Hbond>
2.9920

> <Gold.PLP.Chemscore.CHOScore>
0.0000

> <Gold.PLP.Chemscore.Metal>
0.0000

> <Gold.Chemscore.Hbonds>
donor molecule, donor type, donor heavy atom, donor atom, acceptor molecule, acceptor atom, score
      L1  H     3    22       P1  7948  1.00
      L1  H    10    32       P1  7948  0.98
      P1  H  7989  7998       L1     8  0.94

> <Gold.PLP.Chemscore.Internal.Correction>
0.1180

> <Gold.Rescore>
     Score         DG    S(hbond)    S(metal)    S(lipo)     H(rot)  DE(clash)    DE(int)     intcor
     16.42     -17.82       2.29        0.00      70.30       1.38       0.08       1.32       ----

> <Gold.Chemscore.Fitness>
16.4222

> <Gold.Chemscore.DG>
-17.8209

> <Gold.Chemscore.ZeroCoef>
-5.4800

> <Gold.Chemscore.Hbond>
2.2897

> <Gold.Chemscore.Metal>
0.0000

> <Gold.Chemscore.Lipo>
70.2988

> <Gold.Chemscore.Internal_Hbond>
0.0000

> <Gold.Chemscore.DEClash>
0.0811

> <Gold.Chemscore.DEInternal>
1.3177

> <Gold.Chemscore.Rot>
1.3796

> <Gold.Chemscore.Internal.Correction>
   9.000000E+99

> <Gold.Chemscore.Hbonds>
donor molecule, donor type, donor heavy atom, donor atom, acceptor molecule, acceptor atom, score
      L1  H     3    22       P1  7948  0.38
      L1  H    10    32       P1  7948  0.23
      P1  H  7989  7998       L1     8  0.74

> <Gold.Chemscore.Hbond.Weighted>
-7.6476

> <Gold.Chemscore.Metal.Weighted>
-0.0000

> <Gold.Chemscore.Lipo.Weighted>
-8.2250

> <Gold.Chemscore.Internal_Hbond.Weighted>
0.0000

> <Gold.Chemscore.DEClash.Weighted>
0.0811

> <Gold.Chemscore.DEInternal.Weighted>
1.3177

> <Gold.Chemscore.Rot.Weighted>
3.5317

> <Gold.Chemscore.Internal.Correction.Weighted>
   9.000000E+99

> <Gold.Protein.RotatedTorsions>
[ 6907 6896 6895 6894 ] final  -52.17 input  -60.11 | X-H torsion
[ 7974 7965 7964 7962 ] final  156.76 input  175.53 | X-H torsion
[ 8008 7997 7996 7995 ] final  145.79 input   59.86 | X-H torsion
[ 10167 10162 10161 10158 ] final  134.15 input  -65.29 | X-H torsion
[ 10718 10713 10712 10709 ] final  -75.19 input   66.30 | X-H torsion
[ 10763 10752 10751 10750 ] final  159.51 input  -60.55 | X-H torsion
[ 11005 11000 10999 10996 ] final   70.91 input  -57.11 | X-H torsion

> <Gold.Protein.ActiveResidues>
 VAL166  LYS551  ARG553  GLY616  TRP617  ASP618  TYR619  PRO620  LYS621  CYS622 
 ASP623  PHE694  ASN695  SER759  ASP760  ASP761  ALA762  ILE779  LEU786  VAL792 
 PHE793  MET794  SER795  GLU796  ALA797  LYS798  CYS799  TRP800  GLU811  SER814 

> <Gold.Protein.RotatedAtoms>
  150.8543  134.7877  159.7032 H   0  0  0  0  0  0  0  0  0  0  0  0  # atno 6907 bound_to 6896
  152.4599  134.5205  159.9791 H   0  0  0  0  0  0  0  0  0  0  0  0  # atno 6908 bound_to 6896
  151.5320  133.3409  159.2955 H   0  0  0  0  0  0  0  0  0  0  0  0  # atno 6909 bound_to 6896
  144.7943  139.7248  143.6208 H   0  0  0  0  0  0  0  0  0  0  0  0  # atno 7974 bound_to 7965
  156.2873  140.2199  156.5273 H   0  0  0  0  0  0  0  0  0  0  0  0  # atno 8008 bound_to 7997
  154.7479  140.0482  157.0889 H   0  0  0  0  0  0  0  0  0  0  0  0  # atno 8009 bound_to 7997
  155.0148  140.3117  155.4819 H   0  0  0  0  0  0  0  0  0  0  0  0  # atno 8010 bound_to 7997
  139.5268  144.6581  151.5098 H   0  0  0  0  0  0  0  0  0  0  0  0  # atno 10167 bound_to 10162
  156.0216  130.4435  150.3006 H   0  0  0  0  0  0  0  0  0  0  0  0  # atno 10718 bound_to 10713
  154.2329  135.2777  155.2883 H   0  0  0  0  0  0  0  0  0  0  0  0  # atno 10763 bound_to 10752
  154.5609  135.5647  153.7010 H   0  0  0  0  0  0  0  0  0  0  0  0  # atno 10764 bound_to 10752
  153.0016  135.6297  154.2471 H   0  0  0  0  0  0  0  0  0  0  0  0  # atno 10765 bound_to 10752
  139.9572  134.7123  156.0726 H   0  0  0  0  0  0  0  0  0  0  0  0  # atno 11005 bound_to 11000
  146.2206  139.5629  142.9621 LP  0  0  0  0  0  0  0  0  0  0  0  0  # atno 17320 bound_to 7965
  145.5713  141.0394  143.2173 LP  0  0  0  0  0  0  0  0  0  0  0  0  # atno 17321 bound_to 7965
  140.6417  143.8876  150.6698 LP  0  0  0  0  0  0  0  0  0  0  0  0  # atno 17342 bound_to 10162
  140.2213  143.3807  152.1641 LP  0  0  0  0  0  0  0  0  0  0  0  0  # atno 17343 bound_to 10162
  157.1109  131.0221  151.3048 LP  0  0  0  0  0  0  0  0  0  0  0  0  # atno 17370 bound_to 10713
  157.4705  130.7706  149.7319 LP  0  0  0  0  0  0  0  0  0  0  0  0  # atno 17371 bound_to 10713
  141.1245  133.6603  156.3301 LP  0  0  0  0  0  0  0  0  0  0  0  0  # atno 17394 bound_to 11000
  140.5582  134.5960  157.5426 LP  0  0  0  0  0  0  0  0  0  0  0  0  # atno 17395 bound_to 11000

$$$$
