AV-unprocessed.smi:1076|AV-procd|sdf|4700|dock3
  -GOLD-   22720 3223D 1   1.00000     0.00000
 Structure written by MMmdl.
 44 45  0  0  0  0  0  0  0  0  1 V2000
  143.8408  132.3363  149.1196 C   0  0  0  0  0  0  0  0  0  0  0  0
  144.8149  132.8602  150.1350 C   0  0  0  0  0  0  0  0  0  0  0  0
  144.5989  133.8801  151.1048 C   0  0  0  0  0  0  0  0  0  0  0  0
  145.6623  134.1069  151.8585 N   0  0  0  0  0  0  0  0  0  0  0  0
  146.5943  133.2479  151.3938 N   0  0  0  0  0  0  0  0  0  0  0  0
  147.9132  133.2121  152.0022 C   0  0  0  0  0  0  0  0  0  0  0  0
  147.8634  133.2700  153.5427 C   0  0  1  0  0  0  0  0  0  0  0  0
  148.3190  131.9340  154.1563 C   0  0  0  0  0  0  0  0  0  0  0  0
  148.7300  134.3505  154.0019 N   0  0  0  0  0  0  0  0  0  0  0  0
  148.1930  135.0145  155.1844 C   0  0  0  0  0  0  0  0  0  0  0  0
  149.3176  135.6268  156.0453 C   0  0  0  0  0  0  0  0  0  0  0  0
  150.5695  136.0789  155.2660 C   0  0  0  0  0  0  0  0  0  0  0  0
  151.5232  135.3053  155.1636 O   0  0  0  0  0  0  0  0  0  0  0  0
  150.5899  137.3179  154.7173 N   0  0  0  0  0  0  0  0  0  0  0  0
  151.7294  137.8361  153.9541 C   0  0  0  0  0  0  0  0  0  0  0  0
  152.3365  139.0215  154.7247 C   0  0  0  0  0  0  0  0  0  0  0  0
  151.3403  140.0214  154.9226 O   0  0  0  0  0  0  0  0  0  0  0  0
  150.2078  139.5436  155.6439 C   0  0  0  0  0  0  0  0  0  0  0  0
  149.5715  138.3593  154.8933 C   0  0  0  0  0  0  0  0  0  0  0  0
  146.1079  132.4791  150.3577 C   0  0  0  0  0  0  0  0  0  0  0  0
  143.3472  133.1450  148.5808 H   0  0  0  0  0  0  0  0  0  0  0  0
  143.0592  131.7370  149.5866 H   0  0  0  0  0  0  0  0  0  0  0  0
  144.3284  131.7060  148.3758 H   0  0  0  0  0  0  0  0  0  0  0  0
  143.7039  134.4576  151.2836 H   0  0  0  0  0  0  0  0  0  0  0  0
  148.4045  132.2936  151.6780 H   0  0  0  0  0  0  0  0  0  0  0  0
  148.5066  134.0368  151.6043 H   0  0  0  0  0  0  0  0  0  0  0  0
  146.8353  133.4725  153.8470 H   0  0  0  0  0  0  0  0  0  0  0  0
  147.7103  131.1096  153.7842 H   0  0  0  0  0  0  0  0  0  0  0  0
  148.2310  131.9291  155.2422 H   0  0  0  0  0  0  0  0  0  0  0  0
  149.3579  131.7162  153.9055 H   0  0  0  0  0  0  0  0  0  0  0  0
  148.8218  135.0344  153.2642 H   0  0  0  0  0  0  0  0  0  0  0  0
  147.5092  135.8025  154.8674 H   0  0  0  0  0  0  0  0  0  0  0  0
  147.6127  134.3165  155.7875 H   0  0  0  0  0  0  0  0  0  0  0  0
  148.9078  136.4780  156.5906 H   0  0  0  0  0  0  0  0  0  0  0  0
  149.6291  134.8922  156.7887 H   0  0  0  0  0  0  0  0  0  0  0  0
  152.4977  137.0842  153.7702 H   0  0  0  0  0  0  0  0  0  0  0  0
  151.3865  138.1624  152.9713 H   0  0  0  0  0  0  0  0  0  0  0  0
  152.7369  138.6964  155.6863 H   0  0  0  0  0  0  0  0  0  0  0  0
  153.1642  139.4536  154.1627 H   0  0  0  0  0  0  0  0  0  0  0  0
  150.5051  139.2503  156.6519 H   0  0  0  0  0  0  0  0  0  0  0  0
  149.4883  140.3560  155.7466 H   0  0  0  0  0  0  0  0  0  0  0  0
  149.2181  138.6832  153.9135 H   0  0  0  0  0  0  0  0  0  0  0  0
  148.6877  138.0276  155.4352 H   0  0  0  0  0  0  0  0  0  0  0  0
  146.7166  131.7324  149.8688 H   0  0  0  0  0  0  0  0  0  0  0  0
  1  2  1  0  0  0  0
  1 21  1  0  0  0  0
  1 22  1  0  0  0  0
  1 23  1  0  0  0  0
  2 20  2  0  0  0  0
  2  3  1  0  0  0  0
  3  4  2  0  0  0  0
  3 24  1  0  0  0  0
  4  5  1  0  0  0  0
  5  6  1  0  0  0  0
  5 20  1  0  0  0  0
  6  7  1  0  0  0  0
  6 25  1  0  0  0  0
  6 26  1  0  0  0  0
  7  8  1  0  0  0  0
  7  9  1  0  0  0  0
  7 27  1  0  0  0  0
  8 28  1  0  0  0  0
  8 29  1  0  0  0  0
  8 30  1  0  0  0  0
  9 10  1  0  0  0  0
  9 31  1  0  0  0  0
 10 11  1  0  0  0  0
 10 32  1  0  0  0  0
 10 33  1  0  0  0  0
 11 12  1  0  0  0  0
 11 34  1  0  0  0  0
 11 35  1  0  0  0  0
 12 13  2  0  0  0  0
 12 14  1  0  0  0  0
 14 19  1  0  0  0  0
 14 15  1  0  0  0  0
 15 16  1  0  0  0  0
 15 36  1  0  0  0  0
 15 37  1  0  0  0  0
 16 17  1  0  0  0  0
 16 38  1  0  0  0  0
 16 39  1  0  0  0  0
 17 18  1  0  0  0  0
 18 19  1  0  0  0  0
 18 40  1  0  0  0  0
 18 41  1  0  0  0  0
 19 42  1  0  0  0  0
 19 43  1  0  0  0  0
 20 44  1  0  0  0  0
M  END
> <s_m_source_file>
AV-unprocessed.smi

> <i_m_source_file_index>
1076

> <i_lp_mmshare_version>
43012

> <i_f3d_flags>
0

> <s_epik_input>
W0NIM11jMVtjSF1ubihbY0hdMSlbQ0gyXVtDQEhdKFtDSDNdKVtOSF1bQ0gyXVtDSDJdQyg9TylOMltDSDJdW0NIMl1PW0NIMl1bQ0gyXTI=

> <s_epik_cmdline>
J2VwaWtfcHl0aG9uJywgJy1waCcsICc3LjAnLCAnLXRuJywgJzgnLCAnLW1hJywgJzIwMCcsICctbWV0YWxfYmluZGluZycsICctaW1hZScsICc8aW5maWxlLm1hZT4nLCAnLW9tYWUnLCAnPG91dGZpbGUubWFlPic=

> <r_lp_tautomer_probability>
1

> <r_epik_Ionization_Penalty>
2.55707

> <r_epik_Ionization_Penalty_Charging>
0

> <r_epik_Ionization_Penalty_Neutral>
2.55707

> <r_epik_State_Penalty>
2.726

> <r_epik_Charging_Adjusted_Penalty>
2.726

> <i_epik_Tot_Q>
0

> <i_epik_Tot_abs_Q>
0

> <r_epik_Metal_State_Penalty>
2.72594

> <b_epik_Metal_Only>
0

> <s_lp_Force_Field>
OPLS_2005

> <r_lp_Energy>
22.7086

> <b_lp_Chiralities_Consistent>
1

> <s_lp_Variant>
AV-unprocessed.smi:1076-4

> <Gold.Version>
5.8.1

> <Gold.Id.Protein>
6NUR|6NUR_protein|mol2

> <Gold.PLP.Fitness>
43.0699

> <Gold.PLP.PLP>
-35.2086

> <Gold.PLP.part.hbond>
-3.0000

> <Gold.PLP.part.metal>
0.0000

> <Gold.PLP.part.buried>
-3.9692

> <Gold.PLP.part.nonpolar>
-28.7690

> <Gold.PLP.part.repulsive>
0.2566

> <Gold.PLP.ligand.clash>
0.0000

> <Gold.PLP.ligand.torsion>
2.1086

> <Gold.PLP.Chemscore.Hbond>
3.0000

> <Gold.PLP.Chemscore.CHOScore>
1.0000

> <Gold.PLP.Chemscore.Metal>
0.0000

> <Gold.Chemscore.Hbonds>
donor molecule, donor type, donor heavy atom, donor atom, acceptor molecule, acceptor atom, score
      L1  H     9    31       P1  7948  1.00
      P1  H  7989  7998       L1    17  0.80
      P1  H 10752 10765       L1    13  0.97
      L1  C    20    44       P1 10747  1.00

> <Gold.PLP.Chemscore.Internal.Correction>
0.0785

> <Gold.Rescore>
     Score         DG    S(hbond)    S(metal)    S(lipo)     H(rot)  DE(clash)    DE(int)     intcor
     17.20     -19.38       2.62        0.00      85.69       1.91       0.06       2.12       ----

> <Gold.Chemscore.Fitness>
17.1994

> <Gold.Chemscore.DG>
-19.3783

> <Gold.Chemscore.ZeroCoef>
-5.4800

> <Gold.Chemscore.Hbond>
2.6232

> <Gold.Chemscore.Metal>
0.0000

> <Gold.Chemscore.Lipo>
85.6922

> <Gold.Chemscore.Internal_Hbond>
0.0000

> <Gold.Chemscore.DEClash>
0.0604

> <Gold.Chemscore.DEInternal>
2.1185

> <Gold.Chemscore.Rot>
1.9098

> <Gold.Chemscore.Internal.Correction>
   9.000000E+99

> <Gold.Chemscore.Hbonds>
donor molecule, donor type, donor heavy atom, donor atom, acceptor molecule, acceptor atom, score
      L1  H     9    31       P1  7948  0.45
      P1  H  7989  7998       L1    17  0.12
      P1  H 10752 10765       L1    13  0.86

> <Gold.Chemscore.Hbond.Weighted>
-8.7614

> <Gold.Chemscore.Metal.Weighted>
-0.0000

> <Gold.Chemscore.Lipo.Weighted>
-10.0260

> <Gold.Chemscore.Internal_Hbond.Weighted>
0.0000

> <Gold.Chemscore.DEClash.Weighted>
0.0604

> <Gold.Chemscore.DEInternal.Weighted>
2.1185

> <Gold.Chemscore.Rot.Weighted>
4.8891

> <Gold.Chemscore.Internal.Correction.Weighted>
   9.000000E+99

> <Gold.Protein.RotatedTorsions>
[ 6907 6896 6895 6894 ] final  157.23 input  -60.11 | X-H torsion
[ 7974 7965 7964 7962 ] final   75.80 input  175.53 | X-H torsion
[ 8008 7997 7996 7995 ] final  147.58 input   59.86 | X-H torsion
[ 10167 10162 10161 10158 ] final  119.26 input  -65.29 | X-H torsion
[ 10718 10713 10712 10709 ] final  -58.93 input   66.30 | X-H torsion
[ 10763 10752 10751 10750 ] final -170.33 input  -60.55 | X-H torsion
[ 11005 11000 10999 10996 ] final   15.77 input  -57.11 | X-H torsion

> <Gold.Protein.ActiveResidues>
 VAL166  LYS551  ARG553  GLY616  TRP617  ASP618  TYR619  PRO620  LYS621  CYS622 
 ASP623  PHE694  ASN695  SER759  ASP760  ASP761  ALA762  ILE779  LEU786  VAL792 
 PHE793  MET794  SER795  GLU796  ALA797  LYS798  CYS799  TRP800  GLU811  SER814 

> <Gold.Protein.RotatedAtoms>
  152.0181  133.3888  159.4246 H   0  0  0  0  0  0  0  0  0  0  0  0  # atno 6907 bound_to 6896
  150.6893  134.3656  159.4979 H   0  0  0  0  0  0  0  0  0  0  0  0  # atno 6908 bound_to 6896
  152.1426  134.9050  160.0603 H   0  0  0  0  0  0  0  0  0  0  0  0  # atno 6909 bound_to 6896
  145.7109  139.2614  143.1651 H   0  0  0  0  0  0  0  0  0  0  0  0  # atno 7974 bound_to 7965
  156.2820  140.2152  156.5560 H   0  0  0  0  0  0  0  0  0  0  0  0  # atno 8008 bound_to 7997
  154.7252  140.0500  157.0698 H   0  0  0  0  0  0  0  0  0  0  0  0  # atno 8009 bound_to 7997
  155.0426  140.3147  155.4722 H   0  0  0  0  0  0  0  0  0  0  0  0  # atno 8010 bound_to 7997
  139.6058  144.7069  151.2958 H   0  0  0  0  0  0  0  0  0  0  0  0  # atno 10167 bound_to 10162
  156.1099  130.4176  150.0645 H   0  0  0  0  0  0  0  0  0  0  0  0  # atno 10718 bound_to 10713
  154.6426  135.2900  155.0085 H   0  0  0  0  0  0  0  0  0  0  0  0  # atno 10763 bound_to 10752
  154.1206  135.6548  153.4906 H   0  0  0  0  0  0  0  0  0  0  0  0  # atno 10764 bound_to 10752
  153.0334  135.5287  154.7300 H   0  0  0  0  0  0  0  0  0  0  0  0  # atno 10765 bound_to 10752
  140.4546  134.1189  155.7707 H   0  0  0  0  0  0  0  0  0  0  0  0  # atno 11005 bound_to 11000
  146.0713  140.7866  142.9687 LP  0  0  0  0  0  0  0  0  0  0  0  0  # atno 17320 bound_to 7965
  144.6942  140.3346  143.7210 LP  0  0  0  0  0  0  0  0  0  0  0  0  # atno 17321 bound_to 7965
  140.7283  143.6938  150.7900 LP  0  0  0  0  0  0  0  0  0  0  0  0  # atno 17342 bound_to 10162
  140.0524  143.5237  152.2667 LP  0  0  0  0  0  0  0  0  0  0  0  0  # atno 17343 bound_to 10162
  156.8611  130.9492  151.3618 LP  0  0  0  0  0  0  0  0  0  0  0  0  # atno 17370 bound_to 10713
  157.6279  130.8706  149.9221 LP  0  0  0  0  0  0  0  0  0  0  0  0  # atno 17371 bound_to 10713
  141.1649  133.8723  157.1744 LP  0  0  0  0  0  0  0  0  0  0  0  0  # atno 17394 bound_to 11000
  139.9984  135.0037  157.0135 LP  0  0  0  0  0  0  0  0  0  0  0  0  # atno 17395 bound_to 11000

$$$$
