AV-unprocessed.smi:99|AV-procd|sdf|871|dock3
  -GOLD-   2262017333D 1   1.00000     0.00000
 Structure written by MMmdl.
 53 56  0  0  0  0  0  0  0  0  1 V2000
  153.2404  140.2564  157.9916 O   0  0  0  0  0  0  0  0  0  0  0  0
  152.1306  140.7257  157.7309 C   0  0  0  0  0  0  0  0  0  0  0  0
  151.1193  140.0027  157.2108 O   0  0  0  0  0  0  0  0  0  0  0  0
  151.1566  138.5867  157.2725 C   0  0  0  0  0  0  0  0  0  0  0  0
  149.7354  138.0353  157.1229 C   0  0  2  0  0  0  0  0  0  0  0  0
  149.1345  138.5573  155.9490 O   0  0  0  0  0  0  0  0  0  0  0  0
  147.7497  138.5124  156.0852 C   0  0  2  0  0  0  0  0  0  0  0  0
  147.1821  139.7425  155.4109 N   0  0  0  0  0  0  0  0  0  0  0  0
  148.0115  140.8022  155.0700 C   0  0  0  0  0  0  0  0  0  0  0  0
  147.5647  141.9228  154.4554 C   0  0  0  0  0  0  0  0  0  0  0  0
  146.1528  142.0663  154.1150 C   0  0  0  0  0  0  0  0  0  0  0  0
  145.6539  143.0408  153.5562 O   0  0  0  0  0  0  0  0  0  0  0  0
  145.3545  140.9777  154.4794 N   0  0  0  0  0  0  0  0  0  0  0  0
  145.8028  139.8189  155.1162 C   0  0  0  0  0  0  0  0  0  0  0  0
  145.0038  138.9276  155.4011 O   0  0  0  0  0  0  0  0  0  0  0  0
  147.4188  138.4282  157.5928 C   0  0  2  0  0  0  0  0  0  0  0  0
  146.5927  139.4698  158.0816 O   0  0  0  0  0  0  0  0  0  0  0  0
  148.7971  138.4866  158.2427 C   0  0  1  0  0  0  0  0  0  0  0  0
  148.8824  137.5725  159.3293 O   0  0  0  0  0  0  0  0  0  0  0  0
  148.5805  136.2675  159.1578 C   0  0  0  0  0  0  0  0  0  0  0  0
  148.7369  135.6643  158.0945 O   0  0  0  0  0  0  0  0  0  0  0  0
  148.0428  135.6291  160.3934 C   0  0  0  0  0  0  0  0  0  0  0  0
  147.9445  136.3919  161.5804 C   0  0  0  0  0  0  0  0  0  0  0  0
  147.4349  135.8186  162.7615 C   0  0  0  0  0  0  0  0  0  0  0  0
  147.0159  134.4755  162.7698 C   0  0  0  0  0  0  0  0  0  0  0  0
  147.1083  133.7058  161.5955 C   0  0  0  0  0  0  0  0  0  0  0  0
  147.6191  134.2772  160.4134 C   0  0  0  0  0  0  0  0  0  0  0  0
  151.7670  142.1545  157.9577 C   0  0  0  0  0  0  0  0  0  0  0  0
  150.4023  142.5169  158.0426 C   0  0  0  0  0  0  0  0  0  0  0  0
  150.0281  143.8580  158.2552 C   0  0  0  0  0  0  0  0  0  0  0  0
  151.0139  144.8535  158.3847 C   0  0  0  0  0  0  0  0  0  0  0  0
  152.3749  144.5061  158.3016 C   0  0  0  0  0  0  0  0  0  0  0  0
  152.7511  143.1654  158.0893 C   0  0  0  0  0  0  0  0  0  0  0  0
  144.3692  141.0364  154.2671 H   0  0  0  0  0  0  0  0  0  0  0  0
  151.7860  138.2148  156.4628 H   0  0  0  0  0  0  0  0  0  0  0  0
  151.5968  138.2528  158.2132 H   0  0  0  0  0  0  0  0  0  0  0  0
  149.7420  136.9454  157.0572 H   0  0  0  0  0  0  0  0  0  0  0  0
  147.3968  137.6380  155.5367 H   0  0  0  0  0  0  0  0  0  0  0  0
  149.0636  140.7407  155.3099 H   0  0  0  0  0  0  0  0  0  0  0  0
  148.2555  142.7181  154.2148 H   0  0  0  0  0  0  0  0  0  0  0  0
  146.9392  137.4655  157.7754 H   0  0  0  0  0  0  0  0  0  0  0  0
  147.0169  140.2968  157.9090 H   0  0  0  0  0  0  0  0  0  0  0  0
  149.0481  139.5096  158.5293 H   0  0  0  0  0  0  0  0  0  0  0  0
  148.2589  137.4257  161.5987 H   0  0  0  0  0  0  0  0  0  0  0  0
  147.3648  136.4112  163.6618 H   0  0  0  0  0  0  0  0  0  0  0  0
  146.6235  134.0366  163.6754 H   0  0  0  0  0  0  0  0  0  0  0  0
  146.7856  132.6752  161.6006 H   0  0  0  0  0  0  0  0  0  0  0  0
  147.6736  133.6592  159.5292 H   0  0  0  0  0  0  0  0  0  0  0  0
  149.6270  141.7703  157.9461 H   0  0  0  0  0  0  0  0  0  0  0  0
  148.9829  144.1228  158.3187 H   0  0  0  0  0  0  0  0  0  0  0  0
  150.7269  145.8819  158.5474 H   0  0  0  0  0  0  0  0  0  0  0  0
  153.1324  145.2696  158.4005 H   0  0  0  0  0  0  0  0  0  0  0  0
  153.8045  142.9335  158.0296 H   0  0  0  0  0  0  0  0  0  0  0  0
  1  2  2  0  0  0  0
  2  3  1  0  0  0  0
  2 28  1  0  0  0  0
  3  4  1  0  0  0  0
  4  5  1  0  0  0  0
  4 35  1  0  0  0  0
  4 36  1  0  0  0  0
  5 18  1  0  0  0  0
  5  6  1  0  0  0  0
  5 37  1  0  0  0  0
  6  7  1  0  0  0  0
  7  8  1  0  0  0  0
  7 16  1  0  0  0  0
  7 38  1  0  0  0  0
  8 14  1  0  0  0  0
  8  9  1  0  0  0  0
  9 10  2  0  0  0  0
  9 39  1  0  0  0  0
 10 11  1  0  0  0  0
 10 40  1  0  0  0  0
 11 12  2  0  0  0  0
 11 13  1  0  0  0  0
 13 34  1  0  0  0  0
 13 14  1  0  0  0  0
 14 15  2  0  0  0  0
 16 17  1  0  0  0  0
 16 18  1  0  0  0  0
 16 41  1  0  0  0  0
 17 42  1  0  0  0  0
 18 19  1  0  0  0  0
 18 43  1  0  0  0  0
 19 20  1  0  0  0  0
 20 21  2  0  0  0  0
 20 22  1  0  0  0  0
 22 27  1  0  0  0  0
 22 23  2  0  0  0  0
 23 24  1  0  0  0  0
 23 44  1  0  0  0  0
 24 25  2  0  0  0  0
 24 45  1  0  0  0  0
 25 26  1  0  0  0  0
 25 46  1  0  0  0  0
 26 27  2  0  0  0  0
 26 47  1  0  0  0  0
 27 48  1  0  0  0  0
 28 33  1  0  0  0  0
 28 29  2  0  0  0  0
 29 30  1  0  0  0  0
 29 49  1  0  0  0  0
 30 31  2  0  0  0  0
 30 50  1  0  0  0  0
 31 32  1  0  0  0  0
 31 51  1  0  0  0  0
 32 33  2  0  0  0  0
 32 52  1  0  0  0  0
 33 53  1  0  0  0  0
M  END
> <s_m_source_file>
AV-unprocessed.smi

> <i_m_source_file_index>
99

> <i_lp_mmshare_version>
43012

> <i_f3d_flags>
0

> <s_epik_input>
W2NIXTFbY0hdW2NIXVtjSF1bY0hdYzFDKD1PKU9bQ0gyXVtDQEBIXTJPW0NAQEhdKG4zW2NIXVtjSF1jKD1PKVtuSF1jMz1PKVtDQEBIXShbT0hdKVtDQEhdMk9DKD1PKWM0W2NIXVtjSF1bY0hdW2NIXVtjSF00

> <s_epik_cmdline>
J2VwaWtfcHl0aG9uJywgJy1waCcsICc3LjAnLCAnLXRuJywgJzgnLCAnLW1hJywgJzIwMCcsICctbWV0YWxfYmluZGluZycsICctaW1hZScsICc8aW5maWxlLm1hZT4nLCAnLW9tYWUnLCAnPG91dGZpbGUubWFlPic=

> <r_lp_tautomer_probability>
1

> <r_epik_Ionization_Penalty>
0.00454555

> <r_epik_Ionization_Penalty_Charging>
0.0045191

> <r_epik_Ionization_Penalty_Neutral>
2.64449e-05

> <r_epik_State_Penalty>
-0

> <r_epik_Charging_Adjusted_Penalty>
0.0045191

> <i_epik_Tot_Q>
0

> <i_epik_Tot_abs_Q>
0

> <r_epik_Metal_State_Penalty>
1.27877

> <b_epik_Metal_Only>
0

> <s_epik_Chemistry_Notes>
This compound has an ester and may undergo hydrolysis at high or low pH. This compound contains an acetal/aminal-like group ( X-CH(R)-Y where X, Y are N, S, or O) that may be acid/base labile, releasing an aldehyde.

> <s_lp_Force_Field>
OPLS_2005

> <r_lp_Energy>
38.4241

> <b_lp_Chiralities_Consistent>
1

> <s_lp_Variant>
AV-unprocessed.smi:99-7

> <Gold.Version>
5.8.1

> <Gold.Id.Protein>
6NUR|6NUR_protein|mol2

> <Gold.PLP.Fitness>
56.4259

> <Gold.PLP.PLP>
-52.2526

> <Gold.PLP.part.hbond>
-4.4816

> <Gold.PLP.part.metal>
0.0000

> <Gold.PLP.part.buried>
-4.7283

> <Gold.PLP.part.nonpolar>
-44.0256

> <Gold.PLP.part.repulsive>
0.2613

> <Gold.PLP.ligand.clash>
0.0000

> <Gold.PLP.ligand.torsion>
1.2780

> <Gold.PLP.Chemscore.Hbond>
2.0883

> <Gold.PLP.Chemscore.CHOScore>
0.0000

> <Gold.PLP.Chemscore.Metal>
0.0000

> <Gold.Chemscore.Hbonds>
donor molecule, donor type, donor heavy atom, donor atom, acceptor molecule, acceptor atom, score
      L1  H    13    34       P1 10175  0.43
      P1  H  7997  8009       L1     1  0.77

> <Gold.PLP.Chemscore.Internal.Correction>
0.4644

> <Gold.Rescore>
     Score         DG    S(hbond)    S(metal)    S(lipo)     H(rot)  DE(clash)    DE(int)     intcor
     14.78     -18.24       1.85        0.00     126.13       3.19       0.33       3.13       ----

> <Gold.Chemscore.Fitness>
14.7791

> <Gold.Chemscore.DG>
-18.2407

> <Gold.Chemscore.ZeroCoef>
-5.4800

> <Gold.Chemscore.Hbond>
1.8474

> <Gold.Chemscore.Metal>
0.0000

> <Gold.Chemscore.Lipo>
126.1312

> <Gold.Chemscore.Internal_Hbond>
0.0000

> <Gold.Chemscore.DEClash>
0.3328

> <Gold.Chemscore.DEInternal>
3.1287

> <Gold.Chemscore.Rot>
3.1903

> <Gold.Chemscore.Internal.Correction>
   9.000000E+99

> <Gold.Chemscore.Hbonds>
donor molecule, donor type, donor heavy atom, donor atom, acceptor molecule, acceptor atom, score
      L1  H    13    34       P1 10175  0.38
      P1  H  7997  8009       L1     1  0.78

> <Gold.Chemscore.Hbond.Weighted>
-6.1704

> <Gold.Chemscore.Metal.Weighted>
-0.0000

> <Gold.Chemscore.Lipo.Weighted>
-14.7574

> <Gold.Chemscore.Internal_Hbond.Weighted>
0.0000

> <Gold.Chemscore.DEClash.Weighted>
0.3328

> <Gold.Chemscore.DEInternal.Weighted>
3.1287

> <Gold.Chemscore.Rot.Weighted>
8.1671

> <Gold.Chemscore.Internal.Correction.Weighted>
   9.000000E+99

> <Gold.Protein.RotatedTorsions>
[ 6907 6896 6895 6894 ] final  150.60 input  -60.11 | X-H torsion
[ 7974 7965 7964 7962 ] final -131.15 input  175.53 | X-H torsion
[ 8008 7997 7996 7995 ] final  143.11 input   59.86 | X-H torsion
[ 10167 10162 10161 10158 ] final   40.45 input  -65.29 | X-H torsion
[ 10718 10713 10712 10709 ] final  -57.39 input   66.30 | X-H torsion
[ 10763 10752 10751 10750 ] final   58.99 input  -60.55 | X-H torsion
[ 11005 11000 10999 10996 ] final  -29.47 input  -57.11 | X-H torsion

> <Gold.Protein.ActiveResidues>
 VAL166  LYS551  ARG553  GLY616  TRP617  ASP618  TYR619  PRO620  LYS621  CYS622 
 ASP623  PHE694  ASN695  SER759  ASP760  ASP761  ALA762  ILE779  LEU786  VAL792 
 PHE793  MET794  SER795  GLU796  ALA797  LYS798  CYS799  TRP800  GLU811  SER814 

> <Gold.Protein.RotatedAtoms>
  152.1122  133.4307  159.4636 H   0  0  0  0  0  0  0  0  0  0  0  0  # atno 6907 bound_to 6896
  150.6868  134.2634  159.4568 H   0  0  0  0  0  0  0  0  0  0  0  0  # atno 6908 bound_to 6896
  152.0504  134.9656  160.0625 H   0  0  0  0  0  0  0  0  0  0  0  0  # atno 6909 bound_to 6896
  144.9406  140.7234  143.4849 H   0  0  0  0  0  0  0  0  0  0  0  0  # atno 7974 bound_to 7965
  156.2937  140.2271  156.4837 H   0  0  0  0  0  0  0  0  0  0  0  0  # atno 8008 bound_to 7997
  154.7831  140.0459  157.1163 H   0  0  0  0  0  0  0  0  0  0  0  0  # atno 8009 bound_to 7997
  154.9735  140.3069  155.4981 H   0  0  0  0  0  0  0  0  0  0  0  0  # atno 8010 bound_to 7997
  140.3741  144.2066  150.6132 H   0  0  0  0  0  0  0  0  0  0  0  0  # atno 10167 bound_to 10162
  156.1214  130.4166  150.0434 H   0  0  0  0  0  0  0  0  0  0  0  0  # atno 10718 bound_to 10713
  152.9884  135.5587  154.5642 H   0  0  0  0  0  0  0  0  0  0  0  0  # atno 10763 bound_to 10752
  154.5055  135.2799  155.1388 H   0  0  0  0  0  0  0  0  0  0  0  0  # atno 10764 bound_to 10752
  154.2801  135.6346  153.5396 H   0  0  0  0  0  0  0  0  0  0  0  0  # atno 10765 bound_to 10752
  140.9299  133.7345  156.0921 H   0  0  0  0  0  0  0  0  0  0  0  0  # atno 11005 bound_to 11000
  145.2997  139.1855  143.4696 LP  0  0  0  0  0  0  0  0  0  0  0  0  # atno 17320 bound_to 7965
  146.3284  140.2986  142.8619 LP  0  0  0  0  0  0  0  0  0  0  0  0  # atno 17321 bound_to 7965
  140.5004  143.2320  151.8687 LP  0  0  0  0  0  0  0  0  0  0  0  0  # atno 17342 bound_to 10162
  139.4801  144.5066  151.8989 LP  0  0  0  0  0  0  0  0  0  0  0  0  # atno 17343 bound_to 10162
  156.8371  130.9413  151.3634 LP  0  0  0  0  0  0  0  0  0  0  0  0  # atno 17370 bound_to 10713
  157.6398  130.8796  149.9426 LP  0  0  0  0  0  0  0  0  0  0  0  0  # atno 17371 bound_to 10713
  140.7876  134.3654  157.5472 LP  0  0  0  0  0  0  0  0  0  0  0  0  # atno 17394 bound_to 11000
  139.8794  134.9120  156.3051 LP  0  0  0  0  0  0  0  0  0  0  0  0  # atno 17395 bound_to 11000

$$$$
