AV-unprocessed.smi:787|AV-procd|sdf|3726|dock5
  -GOLD-   22720 1153D 1   1.00000     0.00000
 Structure written by MMmdl.
 47 49  0  0  0  0  0  0  0  0  2 V2000
  147.4327  141.7112  157.3488 C   0  0  0  0  0  0  0  0  0  0  0  0
  148.6975  142.2662  156.8940 N   0  0  0  0  0  0  0  0  0  0  0  0
  149.9142  141.7672  157.3810 C   0  0  0  0  0  0  0  0  0  0  0  0
  150.3891  142.1866  158.5762 N   0  0  0  0  0  0  0  0  0  0  0  0
  151.5534  141.6771  159.0007 C   0  0  0  0  0  0  0  0  0  0  0  0
  152.3533  140.7813  158.4010 N   0  0  0  0  0  0  0  0  0  0  0  0
  151.8925  140.3615  157.2150 C   0  0  0  0  0  0  0  0  0  0  0  0
  152.5078  139.4457  156.3785 N   0  0  0  0  0  0  0  0  0  0  0  0
  151.6532  139.3905  155.3598 C   0  0  0  0  0  0  0  0  0  0  0  0
  150.5539  140.1672  155.4291 N   0  0  0  0  0  0  0  0  0  0  0  0
  149.4973  140.2742  154.4396 C   0  0  0  0  0  0  0  0  0  0  0  0
  148.4949  139.1040  154.5265 C   0  0  1  0  0  0  0  0  0  0  0  0
  147.8249  139.1575  155.7693 O   0  0  0  0  0  0  0  0  0  0  0  0
  147.4402  139.1449  153.4056 C   0  0  0  0  0  0  0  0  0  0  0  0
  147.0140  137.7793  152.9993 N   0  3  1  0  0  0  0  0  0  0  0  0
  146.5951  136.9444  154.1487 C   0  0  0  0  0  0  0  0  0  0  0  0
  146.0088  137.7696  151.9084 C   0  0  0  0  0  0  0  0  0  0  0  0
  145.3824  136.3963  151.7376 C   0  0  0  0  0  0  0  0  0  0  0  0
  146.0458  135.4100  150.9773 C   0  0  0  0  0  0  0  0  0  0  0  0
  145.4628  134.1399  150.8026 C   0  0  0  0  0  0  0  0  0  0  0  0
  144.2168  133.8497  151.3907 C   0  0  0  0  0  0  0  0  0  0  0  0
  143.5535  134.8299  152.1538 C   0  0  0  0  0  0  0  0  0  0  0  0
  144.1352  136.1006  152.3282 C   0  0  0  0  0  0  0  0  0  0  0  0
  150.6675  140.8274  156.6502 C   0  0  0  0  0  0  0  0  0  0  0  0
  146.6038  142.2262  156.8633 H   0  0  0  0  0  0  0  0  0  0  0  0
  147.3243  141.8304  158.4274 H   0  0  0  0  0  0  0  0  0  0  0  0
  147.3654  140.6505  157.1047 H   0  0  0  0  0  0  0  0  0  0  0  0
  148.6940  143.0177  156.2217 H   0  0  0  0  0  0  0  0  0  0  0  0
  151.8961  142.0374  159.9594 H   0  0  0  0  0  0  0  0  0  0  0  0
  151.8406  138.7504  154.5097 H   0  0  0  0  0  0  0  0  0  0  0  0
  148.9847  141.2287  154.5705 H   0  0  0  0  0  0  0  0  0  0  0  0
  149.9641  140.3136  153.4553 H   0  0  0  0  0  0  0  0  0  0  0  0
  149.0282  138.1542  154.4950 H   0  0  0  0  0  0  0  0  0  0  0  0
  146.8953  139.2218  155.6096 H   0  0  0  0  0  0  0  0  0  0  0  0
  146.5637  139.7153  153.7186 H   0  0  0  0  0  0  0  0  0  0  0  0
  147.8613  139.6906  152.5611 H   0  0  0  0  0  0  0  0  0  0  0  0
  145.6805  137.3313  154.5998 H   0  0  0  0  0  0  0  0  0  0  0  0
  147.3664  136.9119  154.9179 H   0  0  0  0  0  0  0  0  0  0  0  0
  146.4108  135.9176  153.8307 H   0  0  0  0  0  0  0  0  0  0  0  0
  145.2045  138.4704  152.1380 H   0  0  0  0  0  0  0  0  0  0  0  0
  146.4630  138.1097  150.9761 H   0  0  0  0  0  0  0  0  0  0  0  0
  147.0011  135.6261  150.5214 H   0  0  0  0  0  0  0  0  0  0  0  0
  145.9714  133.3875  150.2177 H   0  0  0  0  0  0  0  0  0  0  0  0
  143.7703  132.8750  151.2581 H   0  0  0  0  0  0  0  0  0  0  0  0
  142.5982  134.6065  152.6058 H   0  0  0  0  0  0  0  0  0  0  0  0
  143.6181  136.8468  152.9140 H   0  0  0  0  0  0  0  0  0  0  0  0
  147.8313  137.3340  152.6080 H   0  0  0  0  0  0  0  0  0  0  0  0
  1  2  1  0  0  0  0
  1 25  1  0  0  0  0
  1 26  1  0  0  0  0
  1 27  1  0  0  0  0
  2  3  1  0  0  0  0
  2 28  1  0  0  0  0
  3 24  1  0  0  0  0
  3  4  2  0  0  0  0
  4  5  1  0  0  0  0
  5  6  2  0  0  0  0
  5 29  1  0  0  0  0
  6  7  1  0  0  0  0
  7 24  2  0  0  0  0
  7  8  1  0  0  0  0
  8  9  2  0  0  0  0
  9 10  1  0  0  0  0
  9 30  1  0  0  0  0
 10 11  1  0  0  0  0
 10 24  1  0  0  0  0
 11 12  1  0  0  0  0
 11 31  1  0  0  0  0
 11 32  1  0  0  0  0
 12 13  1  0  0  0  0
 12 14  1  0  0  0  0
 12 33  1  0  0  0  0
 13 34  1  0  0  0  0
 14 15  1  0  0  0  0
 14 35  1  0  0  0  0
 14 36  1  0  0  0  0
 15 16  1  0  0  0  0
 15 17  1  0  0  0  0
 15 47  1  0  0  0  0
 16 37  1  0  0  0  0
 16 38  1  0  0  0  0
 16 39  1  0  0  0  0
 17 18  1  0  0  0  0
 17 40  1  0  0  0  0
 17 41  1  0  0  0  0
 18 23  1  0  0  0  0
 18 19  2  0  0  0  0
 19 20  1  0  0  0  0
 19 42  1  0  0  0  0
 20 21  2  0  0  0  0
 20 43  1  0  0  0  0
 21 22  1  0  0  0  0
 21 44  1  0  0  0  0
 22 23  2  0  0  0  0
 22 45  1  0  0  0  0
 23 46  1  0  0  0  0
M  CHG  1  15   1
M  END
> <s_m_source_file>
AV-unprocessed.smi

> <i_m_source_file_index>
787

> <i_lp_mmshare_version>
43012

> <i_f3d_flags>
0

> <s_epik_input>
bjFbY0hdbmMoW05IXVtDSDNdKWMoYzEyKW4oW2NIXW4yKVtDSDJdW0NASF0oW09IXSlbQ0gyXU4oW0NIM10pW0NIMl1jM1tjSF1bY0hdW2NIXVtjSF1bY0hdMw==

> <s_epik_cmdline>
J2VwaWtfcHl0aG9uJywgJy1waCcsICc3LjAnLCAnLXRuJywgJzgnLCAnLW1hJywgJzIwMCcsICctbWV0YWxfYmluZGluZycsICctaW1hZScsICc8aW5maWxlLm1hZT4nLCAnLW9tYWUnLCAnPG91dGZpbGUubWFlPic=

> <r_lp_tautomer_probability>
0.999987

> <r_epik_Ionization_Penalty>
0.0526284

> <r_epik_Ionization_Penalty_Charging>
0.0475377

> <r_epik_Ionization_Penalty_Neutral>
0.00509065

> <r_epik_State_Penalty>
0.0404888

> <r_epik_Charging_Adjusted_Penalty>
0.0880265

> <i_epik_Tot_Q>
1

> <i_epik_Tot_abs_Q>
1

> <r_epik_Metal_State_Penalty>
0.040507

> <b_epik_Metal_Only>
0

> <s_lp_Force_Field>
OPLS_2005

> <r_lp_Energy>
14.3877

> <b_lp_Chiralities_Consistent>
1

> <s_lp_Variant>
AV-unprocessed.smi:787-2

> <Gold.Version>
5.8.1

> <Gold.Id.Protein>
6NUR|6NUR_protein|mol2

> <Gold.PLP.Fitness>
47.2565

> <Gold.PLP.PLP>
-38.8952

> <Gold.PLP.part.hbond>
-3.0000

> <Gold.PLP.part.metal>
0.0000

> <Gold.PLP.part.buried>
-3.4222

> <Gold.PLP.part.nonpolar>
-32.9463

> <Gold.PLP.part.repulsive>
0.0887

> <Gold.PLP.ligand.clash>
0.0000

> <Gold.PLP.ligand.torsion>
1.9249

> <Gold.PLP.Chemscore.Hbond>
4.0000

> <Gold.PLP.Chemscore.CHOScore>
0.0000

> <Gold.PLP.Chemscore.Metal>
0.0000

> <Gold.Chemscore.Hbonds>
donor molecule, donor type, donor heavy atom, donor atom, acceptor molecule, acceptor atom, score
      L1  H     2    28       P1  8028  1.00
      L1  H    15    47       P1  7948  2.00
      P1  H  7997  8010       L1     8  0.95

> <Gold.PLP.Chemscore.Internal.Correction>
0.2111

> <Gold.Rescore>
     Score         DG    S(hbond)    S(metal)    S(lipo)     H(rot)  DE(clash)    DE(int)     intcor
     10.00     -12.81       2.33        0.00      65.99       3.19       0.10       2.71       ----

> <Gold.Chemscore.Fitness>
10.0024

> <Gold.Chemscore.DG>
-12.8077

> <Gold.Chemscore.ZeroCoef>
-5.4800

> <Gold.Chemscore.Hbond>
2.3294

> <Gold.Chemscore.Metal>
0.0000

> <Gold.Chemscore.Lipo>
65.9934

> <Gold.Chemscore.Internal_Hbond>
0.0000

> <Gold.Chemscore.DEClash>
0.0982

> <Gold.Chemscore.DEInternal>
2.7070

> <Gold.Chemscore.Rot>
3.1928

> <Gold.Chemscore.Internal.Correction>
   9.000000E+99

> <Gold.Chemscore.Hbonds>
donor molecule, donor type, donor heavy atom, donor atom, acceptor molecule, acceptor atom, score
      L1  H     2    28       P1  8028  0.97
      L1  H    15    47       P1  7948  1.00
      P1  H  7997  8010       L1     8  0.46

> <Gold.Chemscore.Hbond.Weighted>
-7.7801

> <Gold.Chemscore.Metal.Weighted>
-0.0000

> <Gold.Chemscore.Lipo.Weighted>
-7.7212

> <Gold.Chemscore.Internal_Hbond.Weighted>
0.0000

> <Gold.Chemscore.DEClash.Weighted>
0.0982

> <Gold.Chemscore.DEInternal.Weighted>
2.7070

> <Gold.Chemscore.Rot.Weighted>
8.1736

> <Gold.Chemscore.Internal.Correction.Weighted>
   9.000000E+99

> <Gold.Protein.RotatedTorsions>
[ 6907 6896 6895 6894 ] final  -57.00 input  -60.11 | X-H torsion
[ 7974 7965 7964 7962 ] final  -83.21 input  175.53 | X-H torsion
[ 8008 7997 7996 7995 ] final   96.04 input   59.86 | X-H torsion
[ 10167 10162 10161 10158 ] final   38.91 input  -65.29 | X-H torsion
[ 10718 10713 10712 10709 ] final  103.49 input   66.30 | X-H torsion
[ 10763 10752 10751 10750 ] final  107.68 input  -60.55 | X-H torsion
[ 11005 11000 10999 10996 ] final -143.58 input  -57.11 | X-H torsion

> <Gold.Protein.ActiveResidues>
 VAL166  LYS551  ARG553  GLY616  TRP617  ASP618  TYR619  PRO620  LYS621  CYS622 
 ASP623  PHE694  ASN695  SER759  ASP760  ASP761  ALA762  ILE779  LEU786  VAL792 
 PHE793  MET794  SER795  GLU796  ALA797  LYS798  CYS799  TRP800  GLU811  SER814 

> <Gold.Protein.RotatedAtoms>
  150.8121  134.7282  159.6697 H   0  0  0  0  0  0  0  0  0  0  0  0  # atno 6907 bound_to 6896
  152.4241  134.5898  159.9981 H   0  0  0  0  0  0  0  0  0  0  0  0  # atno 6908 bound_to 6896
  151.6105  133.3310  159.3102 H   0  0  0  0  0  0  0  0  0  0  0  0  # atno 6909 bound_to 6896
  145.5230  140.9529  143.1644 H   0  0  0  0  0  0  0  0  0  0  0  0  # atno 7974 bound_to 7965
  156.0753  140.3278  155.7626 H   0  0  0  0  0  0  0  0  0  0  0  0  # atno 8008 bound_to 7997
  155.5239  140.0587  157.2919 H   0  0  0  0  0  0  0  0  0  0  0  0  # atno 8009 bound_to 7997
  154.4552  140.1939  156.0417 H   0  0  0  0  0  0  0  0  0  0  0  0  # atno 8010 bound_to 7997
  140.3890  144.1878  150.6130 H   0  0  0  0  0  0  0  0  0  0  0  0  # atno 10167 bound_to 10162
  157.6771  131.0780  150.5563 H   0  0  0  0  0  0  0  0  0  0  0  0  # atno 10718 bound_to 10713
  153.4101  135.3836  155.2045 H   0  0  0  0  0  0  0  0  0  0  0  0  # atno 10763 bound_to 10752
  154.8737  135.3792  154.4511 H   0  0  0  0  0  0  0  0  0  0  0  0  # atno 10764 bound_to 10752
  153.5019  135.7088  153.5889 H   0  0  0  0  0  0  0  0  0  0  0  0  # atno 10765 bound_to 10752
  140.8111  134.2744  157.4940 H   0  0  0  0  0  0  0  0  0  0  0  0  # atno 11005 bound_to 11000
  144.7666  139.6832  143.7212 LP  0  0  0  0  0  0  0  0  0  0  0  0  # atno 17320 bound_to 7965
  146.2093  139.5439  142.9691 LP  0  0  0  0  0  0  0  0  0  0  0  0  # atno 17321 bound_to 7965
  140.4859  143.2363  151.8888 LP  0  0  0  0  0  0  0  0  0  0  0  0  # atno 17342 bound_to 10162
  139.4790  144.5219  151.8789 LP  0  0  0  0  0  0  0  0  0  0  0  0  # atno 17343 bound_to 10162
  156.5866  130.4318  149.5954 LP  0  0  0  0  0  0  0  0  0  0  0  0  # atno 17370 bound_to 10713
  156.2617  130.6966  151.1737 LP  0  0  0  0  0  0  0  0  0  0  0  0  # atno 17371 bound_to 10713
  139.8714  134.9483  156.3993 LP  0  0  0  0  0  0  0  0  0  0  0  0  # atno 17394 bound_to 11000
  140.9197  133.7654  155.9891 LP  0  0  0  0  0  0  0  0  0  0  0  0  # atno 17395 bound_to 11000

$$$$
