AV-unprocessed.smi:155|AV-procd|sdf|1273|dock3
  -GOLD-   2262018533D 1   1.00000     0.00000
 Structure written by MMmdl.
 63 66  0  0  0  0  0  0  0  0  2 V2000
  152.9651  142.7306  160.2347 C   0  0  0  0  0  0  0  0  0  0  0  0
  152.0510  142.8444  159.1033 N   0  0  0  0  0  0  0  0  0  0  0  0
  151.3834  144.1361  159.1869 C   0  0  0  0  0  0  0  0  0  0  0  0
  151.0501  141.7768  159.1168 C   0  0  0  0  0  0  0  0  0  0  0  0
  149.9514  142.0066  158.0578 C   0  0  0  0  0  0  0  0  0  0  0  0
  150.1015  141.0925  156.8954 N   0  3  2  0  0  0  0  0  0  0  0  0
  151.5245  140.8339  156.5267 C   0  0  0  0  0  0  0  0  0  0  0  0
  151.7096  140.0450  155.2131 C   0  0  0  0  0  0  0  0  0  0  0  0
  150.8882  138.7438  155.1368 C   0  0  0  0  0  0  0  0  0  0  0  0
  149.4490  138.9680  155.3117 N   0  0  0  0  0  0  0  0  0  0  0  0
  148.7328  138.0958  156.0745 C   0  0  0  0  0  0  0  0  0  0  0  0
  147.5162  137.6995  155.6148 N   0  0  0  0  0  0  0  0  0  0  0  0
  146.7701  136.8378  156.3103 C   0  0  0  0  0  0  0  0  0  0  0  0
  147.0449  136.2501  157.4744 N   0  0  0  0  0  0  0  0  0  0  0  0
  148.2627  136.6384  157.9473 C   0  0  0  0  0  0  0  0  0  0  0  0
  149.1627  137.5502  157.3226 C   0  0  0  0  0  0  0  0  0  0  0  0
  150.3033  137.6816  158.1083 N   0  0  0  0  0  0  0  0  0  0  0  0
  150.0828  136.9134  159.1388 C   0  0  0  0  0  0  0  0  0  0  0  0
  148.8793  136.2493  159.1235 N   0  0  0  0  0  0  0  0  0  0  0  0
  148.3726  135.3382  160.1364 C   0  0  0  0  0  0  0  0  0  0  0  0
  149.2345  135.2821  161.4181 C   0  0  1  0  0  0  0  0  0  0  0  0
  148.9869  136.4084  162.2379 O   0  0  0  0  0  0  0  0  0  0  0  0
  149.1095  133.9778  162.2398 C   0  0  1  0  0  0  0  0  0  0  0  0
  147.7674  133.7550  162.9501 C   0  0  0  0  0  0  0  0  0  0  0  0
  147.5778  132.2432  162.9177 C   0  0  0  0  0  0  0  0  0  0  0  0
  148.8474  131.7163  162.2501 C   0  0  0  0  0  0  0  0  0  0  0  0
  149.2887  132.8054  161.4582 O   0  0  0  0  0  0  0  0  0  0  0  0
  148.8601  140.2299  154.8561 C   0  0  0  0  0  0  0  0  0  0  0  0
  149.2256  141.4492  155.7441 C   0  0  0  0  0  0  0  0  0  0  0  0
  153.5348  141.8031  160.1981 H   0  0  0  0  0  0  0  0  0  0  0  0
  152.4305  142.7654  161.1851 H   0  0  0  0  0  0  0  0  0  0  0  0
  153.6854  143.5494  160.2229 H   0  0  0  0  0  0  0  0  0  0  0  0
  150.7104  144.2766  158.3403 H   0  0  0  0  0  0  0  0  0  0  0  0
  152.1127  144.9469  159.1635 H   0  0  0  0  0  0  0  0  0  0  0  0
  150.8015  144.2254  160.1057 H   0  0  0  0  0  0  0  0  0  0  0  0
  151.5386  140.8153  158.9508 H   0  0  0  0  0  0  0  0  0  0  0  0
  150.5931  141.7095  160.1040 H   0  0  0  0  0  0  0  0  0  0  0  0
  148.9723  141.8875  158.5202 H   0  0  0  0  0  0  0  0  0  0  0  0
  149.9826  143.0388  157.7072 H   0  0  0  0  0  0  0  0  0  0  0  0
  152.0561  141.7824  156.4408 H   0  0  0  0  0  0  0  0  0  0  0  0
  152.0032  140.2796  157.3335 H   0  0  0  0  0  0  0  0  0  0  0  0
  151.4822  140.6823  154.3581 H   0  0  0  0  0  0  0  0  0  0  0  0
  152.7655  139.7969  155.1016 H   0  0  0  0  0  0  0  0  0  0  0  0
  151.0514  138.2565  154.1754 H   0  0  0  0  0  0  0  0  0  0  0  0
  151.2673  138.0641  155.9011 H   0  0  0  0  0  0  0  0  0  0  0  0
  145.8178  136.5812  155.8701 H   0  0  0  0  0  0  0  0  0  0  0  0
  150.7961  136.8092  159.9432 H   0  0  0  0  0  0  0  0  0  0  0  0
  147.3563  135.6392  160.3929 H   0  0  0  0  0  0  0  0  0  0  0  0
  148.2907  134.3453  159.6923 H   0  0  0  0  0  0  0  0  0  0  0  0
  150.2759  135.3674  161.1056 H   0  0  0  0  0  0  0  0  0  0  0  0
  148.7152  136.1050  163.0903 H   0  0  0  0  0  0  0  0  0  0  0  0
  149.8976  133.9757  162.9955 H   0  0  0  0  0  0  0  0  0  0  0  0
  147.7882  134.1474  163.9674 H   0  0  0  0  0  0  0  0  0  0  0  0
  146.9413  134.2385  162.4281 H   0  0  0  0  0  0  0  0  0  0  0  0
  147.4305  131.8153  163.9096 H   0  0  0  0  0  0  0  0  0  0  0  0
  146.7054  131.9941  162.3126 H   0  0  0  0  0  0  0  0  0  0  0  0
  149.6090  131.4794  162.9947 H   0  0  0  0  0  0  0  0  0  0  0  0
  148.6693  130.8265  161.6464 H   0  0  0  0  0  0  0  0  0  0  0  0
  149.2092  140.4124  153.8392 H   0  0  0  0  0  0  0  0  0  0  0  0
  147.7783  140.1348  154.7604 H   0  0  0  0  0  0  0  0  0  0  0  0
  148.2892  141.8735  156.1069 H   0  0  0  0  0  0  0  0  0  0  0  0
  149.6940  142.2363  155.1519 H   0  0  0  0  0  0  0  0  0  0  0  0
  149.7324  140.2084  157.2170 H   0  0  0  0  0  0  0  0  0  0  0  0
  1  2  1  0  0  0  0
  1 30  1  0  0  0  0
  1 31  1  0  0  0  0
  1 32  1  0  0  0  0
  2  3  1  0  0  0  0
  2  4  1  0  0  0  0
  3 33  1  0  0  0  0
  3 34  1  0  0  0  0
  3 35  1  0  0  0  0
  4  5  1  0  0  0  0
  4 36  1  0  0  0  0
  4 37  1  0  0  0  0
  5  6  1  0  0  0  0
  5 38  1  0  0  0  0
  5 39  1  0  0  0  0
  6 29  1  0  0  0  0
  6  7  1  0  0  0  0
  6 63  1  0  0  0  0
  7  8  1  0  0  0  0
  7 40  1  0  0  0  0
  7 41  1  0  0  0  0
  8  9  1  0  0  0  0
  8 42  1  0  0  0  0
  8 43  1  0  0  0  0
  9 10  1  0  0  0  0
  9 44  1  0  0  0  0
  9 45  1  0  0  0  0
 10 11  1  0  0  0  0
 10 28  1  0  0  0  0
 11 16  1  0  0  0  0
 11 12  2  0  0  0  0
 12 13  1  0  0  0  0
 13 14  2  0  0  0  0
 13 46  1  0  0  0  0
 14 15  1  0  0  0  0
 15 19  1  0  0  0  0
 15 16  2  0  0  0  0
 16 17  1  0  0  0  0
 17 18  2  0  0  0  0
 18 19  1  0  0  0  0
 18 47  1  0  0  0  0
 19 20  1  0  0  0  0
 20 21  1  0  0  0  0
 20 48  1  0  0  0  0
 20 49  1  0  0  0  0
 21 22  1  0  0  0  0
 21 23  1  0  0  0  0
 21 50  1  0  0  0  0
 22 51  1  0  0  0  0
 23 27  1  0  0  0  0
 23 24  1  0  0  0  0
 23 52  1  0  0  0  0
 24 25  1  0  0  0  0
 24 53  1  0  0  0  0
 24 54  1  0  0  0  0
 25 26  1  0  0  0  0
 25 55  1  0  0  0  0
 25 56  1  0  0  0  0
 26 27  1  0  0  0  0
 26 57  1  0  0  0  0
 26 58  1  0  0  0  0
 28 29  1  0  0  0  0
 28 59  1  0  0  0  0
 28 60  1  0  0  0  0
 29 61  1  0  0  0  0
 29 62  1  0  0  0  0
M  CHG  1   6   1
M  END
> <s_m_source_file>
AV-unprocessed.smi

> <i_m_source_file_index>
155

> <i_lp_mmshare_version>
43012

> <i_f3d_flags>
0

> <s_epik_input>
W0NIM11OKFtDSDNdKVtDSDJdW0NIMl1OMVtDSDJdW0NIMl1bQ0gyXU4oW0NIMl1bQ0gyXTEpYyhuW2NIXW4yKWMoYzIzKW5bY0hdbjNbQ0gyXVtDQEhdKFtPSF0pW0NAQEhdNFtDSDJdW0NIMl1bQ0gyXU80

> <s_epik_cmdline>
J2VwaWtfcHl0aG9uJywgJy1waCcsICc3LjAnLCAnLXRuJywgJzgnLCAnLW1hJywgJzIwMCcsICctbWV0YWxfYmluZGluZycsICctaW1hZScsICc8aW5maWxlLm1hZT4nLCAnLW9tYWUnLCAnPG91dGZpbGUubWFlPic=

> <r_epik_Ionization_Penalty>
0.0619615

> <r_epik_Ionization_Penalty_Charging>
0.0161638

> <r_epik_Ionization_Penalty_Neutral>
0.0457976

> <r_epik_State_Penalty>
0.403408

> <r_epik_Charging_Adjusted_Penalty>
0.419572

> <i_epik_Tot_Q>
1

> <i_epik_Tot_abs_Q>
1

> <r_epik_Metal_State_Penalty>
0.404222

> <b_epik_Metal_Only>
0

> <s_lp_Force_Field>
OPLS_2005

> <r_lp_Energy>
55.0815

> <b_lp_Chiralities_Consistent>
1

> <s_lp_Variant>
AV-unprocessed.smi:155-7

> <Gold.Version>
5.8.1

> <Gold.Id.Protein>
6NUR|6NUR_protein|mol2

> <Gold.PLP.Fitness>
49.2661

> <Gold.PLP.PLP>
-47.5139

> <Gold.PLP.part.hbond>
-2.0000

> <Gold.PLP.part.metal>
0.0000

> <Gold.PLP.part.buried>
-3.8342

> <Gold.PLP.part.nonpolar>
-39.6808

> <Gold.PLP.part.repulsive>
0.1083

> <Gold.PLP.ligand.clash>
0.0000

> <Gold.PLP.ligand.torsion>
1.6541

> <Gold.PLP.Chemscore.Hbond>
1.5788

> <Gold.PLP.Chemscore.CHOScore>
0.0000

> <Gold.PLP.Chemscore.Metal>
0.0000

> <Gold.Chemscore.Hbonds>
donor molecule, donor type, donor heavy atom, donor atom, acceptor molecule, acceptor atom, score
      P1  H  6931  6943       L1    22  1.00

> <Gold.PLP.Chemscore.Internal.Correction>
0.3242

> <Gold.Rescore>
     Score         DG    S(hbond)    S(metal)    S(lipo)     H(rot)  DE(clash)    DE(int)     intcor
     15.30     -16.93       1.43        0.00     114.67       2.63       0.03       1.60       ----

> <Gold.Chemscore.Fitness>
15.2975

> <Gold.Chemscore.DG>
-16.9293

> <Gold.Chemscore.ZeroCoef>
-5.4800

> <Gold.Chemscore.Hbond>
1.4285

> <Gold.Chemscore.Metal>
0.0000

> <Gold.Chemscore.Lipo>
114.6738

> <Gold.Chemscore.Internal_Hbond>
0.0000

> <Gold.Chemscore.DEClash>
0.0344

> <Gold.Chemscore.DEInternal>
1.5974

> <Gold.Chemscore.Rot>
2.6324

> <Gold.Chemscore.Internal.Correction>
   9.000000E+99

> <Gold.Chemscore.Hbonds>
donor molecule, donor type, donor heavy atom, donor atom, acceptor molecule, acceptor atom, score
      P1  H  6931  6943       L1    22  0.94

> <Gold.Chemscore.Hbond.Weighted>
-4.7713

> <Gold.Chemscore.Metal.Weighted>
-0.0000

> <Gold.Chemscore.Lipo.Weighted>
-13.4168

> <Gold.Chemscore.Internal_Hbond.Weighted>
0.0000

> <Gold.Chemscore.DEClash.Weighted>
0.0344

> <Gold.Chemscore.DEInternal.Weighted>
1.5974

> <Gold.Chemscore.Rot.Weighted>
6.7389

> <Gold.Chemscore.Internal.Correction.Weighted>
   9.000000E+99

> <Gold.Protein.RotatedTorsions>
[ 6907 6896 6895 6894 ] final   76.40 input  -60.11 | X-H torsion
[ 7974 7965 7964 7962 ] final  -59.29 input  175.53 | X-H torsion
[ 8008 7997 7996 7995 ] final -139.17 input   59.86 | X-H torsion
[ 10167 10162 10161 10158 ] final  160.57 input  -65.29 | X-H torsion
[ 10718 10713 10712 10709 ] final  159.93 input   66.30 | X-H torsion
[ 10763 10752 10751 10750 ] final  168.41 input  -60.55 | X-H torsion
[ 11005 11000 10999 10996 ] final   42.47 input  -57.11 | X-H torsion

> <Gold.Protein.ActiveResidues>
 VAL166  LYS551  ARG553  GLY616  TRP617  ASP618  TYR619  PRO620  LYS621  CYS622 
 ASP623  PHE694  ASN695  SER759  ASP760  ASP761  ALA762  ILE779  LEU786  VAL792 
 PHE793  MET794  SER795  GLU796  ALA797  LYS798  CYS799  TRP800  GLU811  SER814 

> <Gold.Protein.RotatedAtoms>
  152.5071  134.3974  159.9404 H   0  0  0  0  0  0  0  0  0  0  0  0  # atno 6907 bound_to 6896
  151.3937  133.3774  159.2731 H   0  0  0  0  0  0  0  0  0  0  0  0  # atno 6908 bound_to 6896
  150.9413  134.8843  159.7673 H   0  0  0  0  0  0  0  0  0  0  0  0  # atno 6909 bound_to 6896
  145.8292  140.8491  143.0092 H   0  0  0  0  0  0  0  0  0  0  0  0  # atno 7974 bound_to 7965
  155.4405  140.0531  157.3011 H   0  0  0  0  0  0  0  0  0  0  0  0  # atno 8008 bound_to 7997
  154.4820  140.2085  155.9698 H   0  0  0  0  0  0  0  0  0  0  0  0  # atno 8009 bound_to 7997
  156.1220  140.3187  155.8226 H   0  0  0  0  0  0  0  0  0  0  0  0  # atno 8010 bound_to 7997
  139.4841  144.4621  151.8691 H   0  0  0  0  0  0  0  0  0  0  0  0  # atno 10167 bound_to 10162
  157.1575  131.0579  151.2249 H   0  0  0  0  0  0  0  0  0  0  0  0  # atno 10718 bound_to 10713
  154.3681  135.2753  155.2282 H   0  0  0  0  0  0  0  0  0  0  0  0  # atno 10763 bound_to 10752
  154.4441  135.5947  153.6152 H   0  0  0  0  0  0  0  0  0  0  0  0  # atno 10764 bound_to 10752
  152.9840  135.6026  154.3909 H   0  0  0  0  0  0  0  0  0  0  0  0  # atno 10765 bound_to 10752
  140.1736  134.4191  155.8242 H   0  0  0  0  0  0  0  0  0  0  0  0  # atno 11005 bound_to 11000
  144.6741  140.0647  143.7475 LP  0  0  0  0  0  0  0  0  0  0  0  0  # atno 17320 bound_to 7965
  145.9590  139.2787  143.1167 LP  0  0  0  0  0  0  0  0  0  0  0  0  # atno 17321 bound_to 7965
  140.4084  144.2402  150.5890 LP  0  0  0  0  0  0  0  0  0  0  0  0  # atno 17342 bound_to 10162
  140.4990  143.2323  151.8706 LP  0  0  0  0  0  0  0  0  0  0  0  0  # atno 17343 bound_to 10162
  157.4164  130.7413  149.6878 LP  0  0  0  0  0  0  0  0  0  0  0  0  # atno 17370 bound_to 10713
  155.9759  130.4082  150.3813 LP  0  0  0  0  0  0  0  0  0  0  0  0  # atno 17371 bound_to 10713
  141.2219  133.6967  156.7807 LP  0  0  0  0  0  0  0  0  0  0  0  0  # atno 17394 bound_to 11000
  140.2348  134.8658  157.3514 LP  0  0  0  0  0  0  0  0  0  0  0  0  # atno 17395 bound_to 11000

$$$$
