AV-unprocessed.smi:212|AV-procd|sdf|1625|dock9
  -GOLD-   2262019573D 1   1.00000     0.00000
 Structure written by MMmdl.
 65 68  0  0  0  0  0  0  0  0  2 V2000
  149.4682  132.3179  153.1893 C   0  0  0  0  0  0  0  0  0  0  0  0
  148.0407  132.8640  153.3909 C   0  0  2  0  0  0  0  0  0  0  0  0
  147.4452  133.4470  152.0931 C   0  0  0  0  0  0  0  0  0  0  0  0
  146.0493  133.9062  152.3099 N   0  3  2  0  0  0  0  0  0  0  0  0
  145.3802  134.3640  151.0638 C   0  0  0  0  0  0  0  0  0  0  0  0
  144.8716  133.1848  150.2038 C   0  0  0  0  0  0  0  0  0  0  0  0
  146.0606  132.4152  149.6045 C   0  0  0  0  0  0  0  0  0  0  0  0
  143.9597  132.2256  150.9910 C   0  0  0  0  0  0  0  0  0  0  0  0
  144.1342  133.7087  149.1162 O   0  0  0  0  0  0  0  0  0  0  0  0
  145.9379  134.8797  153.4254 C   0  0  0  0  0  0  0  0  0  0  0  0
  146.5692  134.3277  154.7199 C   0  0  0  0  0  0  0  0  0  0  0  0
  147.9198  133.8162  154.5001 N   0  0  0  0  0  0  0  0  0  0  0  0
  148.9100  134.7253  154.6619 C   0  0  0  0  0  0  0  0  0  0  0  0
  150.1808  134.3184  154.9151 N   0  0  0  0  0  0  0  0  0  0  0  0
  151.1481  135.2236  155.0918 C   0  0  0  0  0  0  0  0  0  0  0  0
  151.0605  136.5552  155.0622 N   0  0  0  0  0  0  0  0  0  0  0  0
  149.7838  136.9639  154.8107 C   0  0  0  0  0  0  0  0  0  0  0  0
  148.6592  136.1204  154.5948 C   0  0  0  0  0  0  0  0  0  0  0  0
  147.5232  136.8846  154.3640 N   0  0  0  0  0  0  0  0  0  0  0  0
  147.9511  138.1155  154.4412 C   0  0  0  0  0  0  0  0  0  0  0  0
  149.2910  138.2549  154.7285 N   0  0  0  0  0  0  0  0  0  0  0  0
  150.0167  139.5027  154.8756 C   0  0  0  0  0  0  0  0  0  0  0  0
  149.4612  140.4432  155.9822 C   0  0  2  0  0  0  0  0  0  0  0  0
  148.2826  141.2722  155.4254 C   0  0  0  0  0  0  0  0  0  0  0  0
  148.7358  142.2704  154.5337 O   0  0  0  0  0  0  0  0  0  0  0  0
  150.4885  141.3897  156.6726 C   0  0  1  0  0  0  0  0  0  0  0  0
  149.9947  142.2903  157.7913 C   0  0  0  0  0  0  0  0  0  0  0  0
  151.3110  142.7881  158.3804 C   0  0  0  0  0  0  0  0  0  0  0  0
  152.2473  141.7281  158.1989 O   0  0  0  0  0  0  0  0  0  0  0  0
  151.7158  140.7419  157.3176 C   0  0  0  0  0  0  0  0  0  0  0  0
  149.4799  131.5351  152.4308 H   0  0  0  0  0  0  0  0  0  0  0  0
  149.8575  131.8846  154.1111 H   0  0  0  0  0  0  0  0  0  0  0  0
  150.1613  133.0950  152.8643 H   0  0  0  0  0  0  0  0  0  0  0  0
  147.4236  132.0099  153.6733 H   0  0  0  0  0  0  0  0  0  0  0  0
  148.0518  134.2775  151.7295 H   0  0  0  0  0  0  0  0  0  0  0  0
  147.4556  132.6850  151.3127 H   0  0  0  0  0  0  0  0  0  0  0  0
  144.5440  135.0221  151.3079 H   0  0  0  0  0  0  0  0  0  0  0  0
  146.0639  134.9777  150.4748 H   0  0  0  0  0  0  0  0  0  0  0  0
  146.6811  131.9775  150.3872 H   0  0  0  0  0  0  0  0  0  0  0  0
  146.6982  133.0678  149.0065 H   0  0  0  0  0  0  0  0  0  0  0  0
  145.7260  131.6024  148.9586 H   0  0  0  0  0  0  0  0  0  0  0  0
  144.4787  131.8112  151.8560 H   0  0  0  0  0  0  0  0  0  0  0  0
  143.6371  131.3885  150.3705 H   0  0  0  0  0  0  0  0  0  0  0  0
  143.0597  132.7234  151.3533 H   0  0  0  0  0  0  0  0  0  0  0  0
  144.7401  133.9749  148.4408 H   0  0  0  0  0  0  0  0  0  0  0  0
  146.4163  135.8158  153.1361 H   0  0  0  0  0  0  0  0  0  0  0  0
  144.8871  135.1096  153.6049 H   0  0  0  0  0  0  0  0  0  0  0  0
  146.5746  135.0959  155.4949 H   0  0  0  0  0  0  0  0  0  0  0  0
  145.9590  133.5094  155.1039 H   0  0  0  0  0  0  0  0  0  0  0  0
  152.1328  134.8255  155.2882 H   0  0  0  0  0  0  0  0  0  0  0  0
  147.2946  138.9624  154.3028 H   0  0  0  0  0  0  0  0  0  0  0  0
  151.0714  139.2867  155.0450 H   0  0  0  0  0  0  0  0  0  0  0  0
  149.9743  140.0012  153.9068 H   0  0  0  0  0  0  0  0  0  0  0  0
  149.0486  139.8155  156.7733 H   0  0  0  0  0  0  0  0  0  0  0  0
  147.5865  140.6390  154.8745 H   0  0  0  0  0  0  0  0  0  0  0  0
  147.7187  141.7380  156.2341 H   0  0  0  0  0  0  0  0  0  0  0  0
  148.6927  143.1073  154.9710 H   0  0  0  0  0  0  0  0  0  0  0  0
  150.8596  142.0729  155.9065 H   0  0  0  0  0  0  0  0  0  0  0  0
  149.3564  143.1006  157.4382 H   0  0  0  0  0  0  0  0  0  0  0  0
  149.4540  141.7449  158.5590 H   0  0  0  0  0  0  0  0  0  0  0  0
  151.6664  143.6614  157.8323 H   0  0  0  0  0  0  0  0  0  0  0  0
  151.2186  143.0633  159.4314 H   0  0  0  0  0  0  0  0  0  0  0  0
  151.4494  139.8742  157.9179 H   0  0  0  0  0  0  0  0  0  0  0  0
  152.4563  140.4279  156.5818 H   0  0  0  0  0  0  0  0  0  0  0  0
  145.5321  133.0918  152.6096 H   0  0  0  0  0  0  0  0  0  0  0  0
  1  2  1  0  0  0  0
  1 31  1  0  0  0  0
  1 32  1  0  0  0  0
  1 33  1  0  0  0  0
  2 12  1  0  0  0  0
  2  3  1  0  0  0  0
  2 34  1  0  0  0  0
  3  4  1  0  0  0  0
  3 35  1  0  0  0  0
  3 36  1  0  0  0  0
  4  5  1  0  0  0  0
  4 10  1  0  0  0  0
  4 65  1  0  0  0  0
  5  6  1  0  0  0  0
  5 37  1  0  0  0  0
  5 38  1  0  0  0  0
  6  7  1  0  0  0  0
  6  8  1  0  0  0  0
  6  9  1  0  0  0  0
  7 39  1  0  0  0  0
  7 40  1  0  0  0  0
  7 41  1  0  0  0  0
  8 42  1  0  0  0  0
  8 43  1  0  0  0  0
  8 44  1  0  0  0  0
  9 45  1  0  0  0  0
 10 11  1  0  0  0  0
 10 46  1  0  0  0  0
 10 47  1  0  0  0  0
 11 12  1  0  0  0  0
 11 48  1  0  0  0  0
 11 49  1  0  0  0  0
 12 13  1  0  0  0  0
 13 18  1  0  0  0  0
 13 14  2  0  0  0  0
 14 15  1  0  0  0  0
 15 16  2  0  0  0  0
 15 50  1  0  0  0  0
 16 17  1  0  0  0  0
 17 21  1  0  0  0  0
 17 18  2  0  0  0  0
 18 19  1  0  0  0  0
 19 20  2  0  0  0  0
 20 21  1  0  0  0  0
 20 51  1  0  0  0  0
 21 22  1  0  0  0  0
 22 23  1  0  0  0  0
 22 52  1  0  0  0  0
 22 53  1  0  0  0  0
 23 24  1  0  0  0  0
 23 26  1  0  0  0  0
 23 54  1  0  0  0  0
 24 25  1  0  0  0  0
 24 55  1  0  0  0  0
 24 56  1  0  0  0  0
 25 57  1  0  0  0  0
 26 30  1  0  0  0  0
 26 27  1  0  0  0  0
 26 58  1  0  0  0  0
 27 28  1  0  0  0  0
 27 59  1  0  0  0  0
 27 60  1  0  0  0  0
 28 29  1  0  0  0  0
 28 61  1  0  0  0  0
 28 62  1  0  0  0  0
 29 30  1  0  0  0  0
 30 63  1  0  0  0  0
 30 64  1  0  0  0  0
M  CHG  1   4   1
M  END
> <s_m_source_file>
AV-unprocessed.smi

> <i_m_source_file_index>
212

> <i_lp_mmshare_version>
43012

> <i_f3d_flags>
0

> <s_epik_input>
W0NIM11bQ0BASF0xW0NIMl1OKFtDSDJdQyhbQ0gzXSkoW0NIM10pW09IXSlbQ0gyXVtDSDJdTjFjKG5bY0hdbjIpYyhjMjMpbltjSF1uM1tDSDJdW0NASF0oW0NIMl1bT0hdKVtDQEBIXTRbQ0gyXVtDSDJdT1tDSDJdNA==

> <s_epik_cmdline>
J2VwaWtfcHl0aG9uJywgJy1waCcsICc3LjAnLCAnLXRuJywgJzgnLCAnLW1hJywgJzIwMCcsICctbWV0YWxfYmluZGluZycsICctaW1hZScsICc8aW5maWxlLm1hZT4nLCAnLW9tYWUnLCAnPG91dGZpbGUubWFlPic=

> <r_lp_tautomer_probability>
1

> <r_epik_Ionization_Penalty>
0.00182193

> <r_epik_Ionization_Penalty_Charging>
0.00173996

> <r_epik_Ionization_Penalty_Neutral>
8.19718e-05

> <r_epik_State_Penalty>
-0

> <r_epik_Charging_Adjusted_Penalty>
0.00173996

> <i_epik_Tot_Q>
1

> <i_epik_Tot_abs_Q>
1

> <r_epik_Metal_State_Penalty>
-0

> <b_epik_Metal_Only>
0

> <s_lp_Force_Field>
OPLS_2005

> <r_lp_Energy>
61.8926

> <b_lp_Chiralities_Consistent>
1

> <s_lp_Variant>
AV-unprocessed.smi:212-9

> <Gold.Version>
5.8.1

> <Gold.Id.Protein>
6NUR|6NUR_protein|mol2

> <Gold.PLP.Fitness>
45.6391

> <Gold.PLP.PLP>
-41.1629

> <Gold.PLP.part.hbond>
-3.5925

> <Gold.PLP.part.metal>
0.0000

> <Gold.PLP.part.buried>
-5.9019

> <Gold.PLP.part.nonpolar>
-32.8649

> <Gold.PLP.part.repulsive>
0.6948

> <Gold.PLP.ligand.clash>
1.4794

> <Gold.PLP.ligand.torsion>
0.9646

> <Gold.PLP.Chemscore.Hbond>
2.2761

> <Gold.PLP.Chemscore.CHOScore>
0.0000

> <Gold.PLP.Chemscore.Metal>
0.0000

> <Gold.Chemscore.Hbonds>
donor molecule, donor type, donor heavy atom, donor atom, acceptor molecule, acceptor atom, score
      L1  H     9    45       P1  7921  1.00
      L1  H    25    57       P1  8028  1.00

> <Gold.PLP.Chemscore.Internal.Correction>
1.0565

> <Gold.Rescore>
     Score         DG    S(hbond)    S(metal)    S(lipo)     H(rot)  DE(clash)    DE(int)     intcor
      7.86     -14.79       2.16        0.00      98.40       3.68       0.55       6.38       ----

> <Gold.Chemscore.Fitness>
7.8585

> <Gold.Chemscore.DG>
-14.7853

> <Gold.Chemscore.ZeroCoef>
-5.4800

> <Gold.Chemscore.Hbond>
2.1605

> <Gold.Chemscore.Metal>
0.0000

> <Gold.Chemscore.Lipo>
98.4016

> <Gold.Chemscore.Internal_Hbond>
0.0000

> <Gold.Chemscore.DEClash>
0.5455

> <Gold.Chemscore.DEInternal>
6.3813

> <Gold.Chemscore.Rot>
3.6812

> <Gold.Chemscore.Internal.Correction>
   9.000000E+99

> <Gold.Chemscore.Hbonds>
donor molecule, donor type, donor heavy atom, donor atom, acceptor molecule, acceptor atom, score
      L1  H     9    45       P1  7921  1.00
      L1  H    25    57       P1  8028  1.00
      P1  H  8011  8017       L1    25  0.01

> <Gold.Chemscore.Hbond.Weighted>
-7.2162

> <Gold.Chemscore.Metal.Weighted>
-0.0000

> <Gold.Chemscore.Lipo.Weighted>
-11.5130

> <Gold.Chemscore.Internal_Hbond.Weighted>
0.0000

> <Gold.Chemscore.DEClash.Weighted>
0.5455

> <Gold.Chemscore.DEInternal.Weighted>
6.3813

> <Gold.Chemscore.Rot.Weighted>
9.4239

> <Gold.Chemscore.Internal.Correction.Weighted>
   9.000000E+99

> <Gold.Protein.RotatedTorsions>
[ 6907 6896 6895 6894 ] final   37.53 input  -60.11 | X-H torsion
[ 7974 7965 7964 7962 ] final   54.36 input  175.53 | X-H torsion
[ 8008 7997 7996 7995 ] final -127.12 input   59.86 | X-H torsion
[ 10167 10162 10161 10158 ] final  115.67 input  -65.29 | X-H torsion
[ 10718 10713 10712 10709 ] final   92.62 input   66.30 | X-H torsion
[ 10763 10752 10751 10750 ] final  111.11 input  -60.55 | X-H torsion
[ 11005 11000 10999 10996 ] final -145.44 input  -57.11 | X-H torsion

> <Gold.Protein.ActiveResidues>
 VAL166  LYS551  ARG553  GLY616  TRP617  ASP618  TYR619  PRO620  LYS621  CYS622 
 ASP623  PHE694  ASN695  SER759  ASP760  ASP761  ALA762  ILE779  LEU786  VAL792 
 PHE793  MET794  SER795  GLU796  ALA797  LYS798  CYS799  TRP800  GLU811  SER814 

> <Gold.Protein.RotatedAtoms>
  152.1444  134.9037  160.0551 H   0  0  0  0  0  0  0  0  0  0  0  0  # atno 6907 bound_to 6896
  152.0093  133.3850  159.4221 H   0  0  0  0  0  0  0  0  0  0  0  0  # atno 6908 bound_to 6896
  150.6868  134.3670  159.5019 H   0  0  0  0  0  0  0  0  0  0  0  0  # atno 6909 bound_to 6896
  145.9616  139.4064  143.0244 H   0  0  0  0  0  0  0  0  0  0  0  0  # atno 7974 bound_to 7965
  155.2410  140.0428  157.2975 H   0  0  0  0  0  0  0  0  0  0  0  0  # atno 8008 bound_to 7997
  154.5828  140.2405  155.7999 H   0  0  0  0  0  0  0  0  0  0  0  0  # atno 8009 bound_to 7997
  156.2205  140.2971  155.9950 H   0  0  0  0  0  0  0  0  0  0  0  0  # atno 8010 bound_to 7997
  139.6300  144.7113  151.2451 H   0  0  0  0  0  0  0  0  0  0  0  0  # atno 10167 bound_to 10162
  157.6958  131.0449  150.3909 H   0  0  0  0  0  0  0  0  0  0  0  0  # atno 10718 bound_to 10713
  153.4586  135.3727  155.2325 H   0  0  0  0  0  0  0  0  0  0  0  0  # atno 10763 bound_to 10752
  154.8757  135.3903  154.3952 H   0  0  0  0  0  0  0  0  0  0  0  0  # atno 10764 bound_to 10752
  153.4522  135.7085  153.6166 H   0  0  0  0  0  0  0  0  0  0  0  0  # atno 10765 bound_to 10752
  140.7922  134.2955  157.5009 H   0  0  0  0  0  0  0  0  0  0  0  0  # atno 11005 bound_to 11000
  145.8032  140.9761  143.0988 LP  0  0  0  0  0  0  0  0  0  0  0  0  # atno 17320 bound_to 7965
  144.6816  139.9827  143.7483 LP  0  0  0  0  0  0  0  0  0  0  0  0  # atno 17321 bound_to 7965
  140.7434  143.6497  150.8260 LP  0  0  0  0  0  0  0  0  0  0  0  0  # atno 17342 bound_to 10162
  140.0120  143.5632  152.2835 LP  0  0  0  0  0  0  0  0  0  0  0  0  # atno 17343 bound_to 10162
  156.4313  130.3972  149.6758 LP  0  0  0  0  0  0  0  0  0  0  0  0  # atno 17370 bound_to 10713
  156.3975  130.7658  151.2663 LP  0  0  0  0  0  0  0  0  0  0  0  0  # atno 17371 bound_to 10713
  139.8730  134.9381  156.3705 LP  0  0  0  0  0  0  0  0  0  0  0  0  # atno 17394 bound_to 11000
  140.9378  133.7535  156.0108 LP  0  0  0  0  0  0  0  0  0  0  0  0  # atno 17395 bound_to 11000

$$$$
