AV-unprocessed.smi:678|AV-procd|sdf|3314|dock3
  -GOLD-   22720 0283D 1   1.00000     0.00000
 Structure written by MMmdl.
 51 52  0  0  0  0  0  0  0  0  2 V2000
  154.0798  141.6624  160.3061 C   0  0  0  0  0  0  0  0  0  0  0  0
  152.9899  142.1062  159.3460 C   0  0  0  0  0  0  0  0  0  0  0  0
  152.4259  143.3302  159.4380 C   0  0  0  0  0  0  0  0  0  0  0  0
  151.3793  143.7391  158.5329 C   0  0  0  0  0  0  0  0  0  0  0  0
  150.9745  142.8687  157.5971 C   0  0  0  0  0  0  0  0  0  0  0  0
  151.5449  141.5877  157.4793 N   0  0  0  0  0  0  0  0  0  0  0  0
  151.0170  140.7128  156.4185 C   0  0  0  0  0  0  0  0  0  0  0  0
  149.8897  139.8026  156.9222 C   0  0  0  0  0  0  0  0  0  0  0  0
  148.7659  140.2598  157.1320 O   0  0  0  0  0  0  0  0  0  0  0  0
  150.2121  138.5162  157.1229 N   0  0  0  0  0  0  0  0  0  0  0  0
  149.3338  137.5016  157.6960 C   0  0  0  0  0  0  0  0  0  0  0  0
  149.2469  136.2513  156.7998 C   0  0  1  0  0  0  0  0  0  0  0  0
  149.1429  136.5779  155.2891 C   0  0  0  0  0  0  0  0  0  0  0  0
  149.1770  135.3513  154.4526 N   0  3  2  0  0  0  0  0  0  0  0  0
  147.8908  134.6048  154.3995 C   0  0  0  0  0  0  0  0  0  0  0  0
  147.7966  133.6707  153.1738 C   0  0  0  0  0  0  0  0  0  0  0  0
  146.3516  133.1954  152.9634 C   0  0  0  0  0  0  0  0  0  0  0  0
  148.7482  132.4695  153.2941 C   0  0  0  0  0  0  0  0  0  0  0  0
  150.3459  134.5113  154.8082 C   0  0  0  0  0  0  0  0  0  0  0  0
  150.3949  134.2381  156.3212 C   0  0  0  0  0  0  0  0  0  0  0  0
  150.4195  135.4755  157.0224 O   0  0  0  0  0  0  0  0  0  0  0  0
  152.5466  141.1560  158.3087 C   0  0  0  0  0  0  0  0  0  0  0  0
  153.0414  140.0330  158.1882 O   0  0  0  0  0  0  0  0  0  0  0  0
  154.3853  142.4766  160.9641 H   0  0  0  0  0  0  0  0  0  0  0  0
  154.9613  141.3235  159.7605 H   0  0  0  0  0  0  0  0  0  0  0  0
  153.7234  140.8426  160.9299 H   0  0  0  0  0  0  0  0  0  0  0  0
  152.7531  144.0179  160.2040 H   0  0  0  0  0  0  0  0  0  0  0  0
  150.9301  144.7183  158.6110 H   0  0  0  0  0  0  0  0  0  0  0  0
  150.1917  143.0943  156.8876 H   0  0  0  0  0  0  0  0  0  0  0  0
  150.6323  141.2965  155.5812 H   0  0  0  0  0  0  0  0  0  0  0  0
  151.8276  140.1117  156.0012 H   0  0  0  0  0  0  0  0  0  0  0  0
  151.1556  138.2283  156.9059 H   0  0  0  0  0  0  0  0  0  0  0  0
  149.6420  137.2338  158.7082 H   0  0  0  0  0  0  0  0  0  0  0  0
  148.3439  137.9493  157.7883 H   0  0  0  0  0  0  0  0  0  0  0  0
  148.3822  135.6685  157.1204 H   0  0  0  0  0  0  0  0  0  0  0  0
  148.2442  137.1527  155.0739 H   0  0  0  0  0  0  0  0  0  0  0  0
  149.9831  137.2095  154.9980 H   0  0  0  0  0  0  0  0  0  0  0  0
  147.7795  133.9979  155.2991 H   0  0  0  0  0  0  0  0  0  0  0  0
  147.0551  135.3044  154.4094 H   0  0  0  0  0  0  0  0  0  0  0  0
  148.0780  134.2233  152.2791 H   0  0  0  0  0  0  0  0  0  0  0  0
  145.9875  132.6350  153.8252 H   0  0  0  0  0  0  0  0  0  0  0  0
  146.2722  132.5488  152.0891 H   0  0  0  0  0  0  0  0  0  0  0  0
  145.6798  134.0399  152.8056 H   0  0  0  0  0  0  0  0  0  0  0  0
  148.5147  131.8627  154.1696 H   0  0  0  0  0  0  0  0  0  0  0  0
  149.7867  132.7900  153.3779 H   0  0  0  0  0  0  0  0  0  0  0  0
  148.6781  131.8258  152.4166 H   0  0  0  0  0  0  0  0  0  0  0  0
  150.3396  133.5788  154.2428 H   0  0  0  0  0  0  0  0  0  0  0  0
  151.2512  135.0419  154.5107 H   0  0  0  0  0  0  0  0  0  0  0  0
  149.5454  133.6341  156.6438 H   0  0  0  0  0  0  0  0  0  0  0  0
  151.2952  133.6762  156.5700 H   0  0  0  0  0  0  0  0  0  0  0  0
  149.3390  135.6542  153.5027 H   0  0  0  0  0  0  0  0  0  0  0  0
  1  2  1  0  0  0  0
  1 24  1  0  0  0  0
  1 25  1  0  0  0  0
  1 26  1  0  0  0  0
  2 22  1  0  0  0  0
  2  3  2  0  0  0  0
  3  4  1  0  0  0  0
  3 27  1  0  0  0  0
  4  5  2  0  0  0  0
  4 28  1  0  0  0  0
  5  6  1  0  0  0  0
  5 29  1  0  0  0  0
  6  7  1  0  0  0  0
  6 22  1  0  0  0  0
  7  8  1  0  0  0  0
  7 30  1  0  0  0  0
  7 31  1  0  0  0  0
  8  9  2  0  0  0  0
  8 10  1  0  0  0  0
 10 11  1  0  0  0  0
 10 32  1  0  0  0  0
 11 12  1  0  0  0  0
 11 33  1  0  0  0  0
 11 34  1  0  0  0  0
 12 21  1  0  0  0  0
 12 13  1  0  0  0  0
 12 35  1  0  0  0  0
 13 14  1  0  0  0  0
 13 36  1  0  0  0  0
 13 37  1  0  0  0  0
 14 15  1  0  0  0  0
 14 19  1  0  0  0  0
 14 51  1  0  0  0  0
 15 16  1  0  0  0  0
 15 38  1  0  0  0  0
 15 39  1  0  0  0  0
 16 17  1  0  0  0  0
 16 18  1  0  0  0  0
 16 40  1  0  0  0  0
 17 41  1  0  0  0  0
 17 42  1  0  0  0  0
 17 43  1  0  0  0  0
 18 44  1  0  0  0  0
 18 45  1  0  0  0  0
 18 46  1  0  0  0  0
 19 20  1  0  0  0  0
 19 47  1  0  0  0  0
 19 48  1  0  0  0  0
 20 21  1  0  0  0  0
 20 49  1  0  0  0  0
 20 50  1  0  0  0  0
 22 23  2  0  0  0  0
M  CHG  1  14   1
M  END
> <s_m_source_file>
AV-unprocessed.smi

> <i_m_source_file_index>
678

> <i_lp_mmshare_version>
43012

> <i_f3d_flags>
0

> <s_epik_input>
W0NIM11jMVtjSF1bY0hdW2NIXW4oYzE9TylbQ0gyXUMoPU8pW05IXVtDSDJdW0NAQEhdMltDSDJdTihbQ0gyXVtDSDJdTzIpW0NIMl1bQ0hdKFtDSDNdKVtDSDNd

> <s_epik_cmdline>
J2VwaWtfcHl0aG9uJywgJy1waCcsICc3LjAnLCAnLXRuJywgJzgnLCAnLW1hJywgJzIwMCcsICctbWV0YWxfYmluZGluZycsICctaW1hZScsICc8aW5maWxlLm1hZT4nLCAnLW9tYWUnLCAnPG91dGZpbGUubWFlPic=

> <r_lp_tautomer_probability>
1

> <r_epik_Ionization_Penalty>
0.0975937

> <r_epik_Ionization_Penalty_Charging>
0.0975937

> <r_epik_Ionization_Penalty_Neutral>
6.27044e-08

> <r_epik_State_Penalty>
0.0877056

> <r_epik_Charging_Adjusted_Penalty>
0.185299

> <i_epik_Tot_Q>
1

> <i_epik_Tot_abs_Q>
1

> <r_epik_Metal_State_Penalty>
0.0877109

> <b_epik_Metal_Only>
0

> <s_lp_Force_Field>
OPLS_2005

> <r_lp_Energy>
27.4135

> <b_lp_Chiralities_Consistent>
1

> <s_lp_Variant>
AV-unprocessed.smi:678-2

> <Gold.Version>
5.8.1

> <Gold.Id.Protein>
6NUR|6NUR_protein|mol2

> <Gold.PLP.Fitness>
47.7597

> <Gold.PLP.PLP>
-37.5558

> <Gold.PLP.part.hbond>
-2.3464

> <Gold.PLP.part.metal>
0.0000

> <Gold.PLP.part.buried>
-4.1411

> <Gold.PLP.part.nonpolar>
-29.8059

> <Gold.PLP.part.repulsive>
0.0387

> <Gold.PLP.ligand.clash>
0.0000

> <Gold.PLP.ligand.torsion>
0.9652

> <Gold.PLP.Chemscore.Hbond>
3.0000

> <Gold.PLP.Chemscore.CHOScore>
1.0000

> <Gold.PLP.Chemscore.Metal>
0.0000

> <Gold.Chemscore.Hbonds>
donor molecule, donor type, donor heavy atom, donor atom, acceptor molecule, acceptor atom, score
      L1  H    14    51       P1  7948  2.00
      P1  H  7997  8008       L1    23  1.00
      L1  C     5    29       P1  8028  1.00

> <Gold.PLP.Chemscore.Internal.Correction>
0.1342

> <Gold.Rescore>
     Score         DG    S(hbond)    S(metal)    S(lipo)     H(rot)  DE(clash)    DE(int)     intcor
     16.18     -17.36       1.81        0.00      91.22       1.89       0.01       1.17       ----

> <Gold.Chemscore.Fitness>
16.1802

> <Gold.Chemscore.DG>
-17.3604

> <Gold.Chemscore.ZeroCoef>
-5.4800

> <Gold.Chemscore.Hbond>
1.8079

> <Gold.Chemscore.Metal>
0.0000

> <Gold.Chemscore.Lipo>
91.2217

> <Gold.Chemscore.Internal_Hbond>
0.0000

> <Gold.Chemscore.DEClash>
0.0069

> <Gold.Chemscore.DEInternal>
1.1733

> <Gold.Chemscore.Rot>
1.8871

> <Gold.Chemscore.Internal.Correction>
   9.000000E+99

> <Gold.Chemscore.Hbonds>
donor molecule, donor type, donor heavy atom, donor atom, acceptor molecule, acceptor atom, score
      L1  H    14    51       P1  7948  0.39
      P1  H  7997  8008       L1    23  0.78

> <Gold.Chemscore.Hbond.Weighted>
-6.0384

> <Gold.Chemscore.Metal.Weighted>
-0.0000

> <Gold.Chemscore.Lipo.Weighted>
-10.6729

> <Gold.Chemscore.Internal_Hbond.Weighted>
0.0000

> <Gold.Chemscore.DEClash.Weighted>
0.0069

> <Gold.Chemscore.DEInternal.Weighted>
1.1733

> <Gold.Chemscore.Rot.Weighted>
4.8309

> <Gold.Chemscore.Internal.Correction.Weighted>
   9.000000E+99

> <Gold.Protein.RotatedTorsions>
[ 6907 6896 6895 6894 ] final  -91.84 input  -60.11 | X-H torsion
[ 7974 7965 7964 7962 ] final  142.43 input  175.53 | X-H torsion
[ 8008 7997 7996 7995 ] final  -88.96 input   59.86 | X-H torsion
[ 10167 10162 10161 10158 ] final -121.31 input  -65.29 | X-H torsion
[ 10718 10713 10712 10709 ] final   17.15 input   66.30 | X-H torsion
[ 10763 10752 10751 10750 ] final  150.01 input  -60.55 | X-H torsion
[ 11005 11000 10999 10996 ] final -163.59 input  -57.11 | X-H torsion

> <Gold.Protein.ActiveResidues>
 VAL166  LYS551  ARG553  GLY616  TRP617  ASP618  TYR619  PRO620  LYS621  CYS622 
 ASP623  PHE694  ASN695  SER759  ASP760  ASP761  ALA762  ILE779  LEU786  VAL792 
 PHE793  MET794  SER795  GLU796  ALA797  LYS798  CYS799  TRP800  GLU811  SER814 

> <Gold.Protein.RotatedAtoms>
  150.6898  134.2215  159.4398 H   0  0  0  0  0  0  0  0  0  0  0  0  # atno 6907 bound_to 6896
  152.0171  134.9841  160.0579 H   0  0  0  0  0  0  0  0  0  0  0  0  # atno 6908 bound_to 6896
  152.1433  133.4442  159.4814 H   0  0  0  0  0  0  0  0  0  0  0  0  # atno 6909 bound_to 6896
  144.9008  139.5426  143.5754 H   0  0  0  0  0  0  0  0  0  0  0  0  # atno 7974 bound_to 7965
  154.6809  140.0547  157.0265 H   0  0  0  0  0  0  0  0  0  0  0  0  # atno 8008 bound_to 7997
  155.0953  140.3223  155.4543 H   0  0  0  0  0  0  0  0  0  0  0  0  # atno 8009 bound_to 7997
  156.2694  140.2041  156.6079 H   0  0  0  0  0  0  0  0  0  0  0  0  # atno 8010 bound_to 7997
  140.0264  143.5292  152.2197 H   0  0  0  0  0  0  0  0  0  0  0  0  # atno 10167 bound_to 10162
  157.0780  130.6376  149.5820 H   0  0  0  0  0  0  0  0  0  0  0  0  # atno 10718 bound_to 10713
  154.0805  135.2860  155.3291 H   0  0  0  0  0  0  0  0  0  0  0  0  # atno 10763 bound_to 10752
  154.6687  135.5307  153.8113 H   0  0  0  0  0  0  0  0  0  0  0  0  # atno 10764 bound_to 10752
  153.0450  135.6552  154.0981 H   0  0  0  0  0  0  0  0  0  0  0  0  # atno 10765 bound_to 10752
  140.5964  134.4992  157.5200 H   0  0  0  0  0  0  0  0  0  0  0  0  # atno 11005 bound_to 11000
  146.3107  139.7736  142.9022 LP  0  0  0  0  0  0  0  0  0  0  0  0  # atno 17320 bound_to 7965
  145.3620  141.0327  143.3279 LP  0  0  0  0  0  0  0  0  0  0  0  0  # atno 17321 bound_to 7965
  139.6105  144.7607  151.2962 LP  0  0  0  0  0  0  0  0  0  0  0  0  # atno 17342 bound_to 10162
  140.7321  143.6833  150.7982 LP  0  0  0  0  0  0  0  0  0  0  0  0  # atno 17343 bound_to 10162
  155.9931  130.4991  150.7369 LP  0  0  0  0  0  0  0  0  0  0  0  0  # atno 17370 bound_to 10713
  157.4823  131.0903  151.0522 LP  0  0  0  0  0  0  0  0  0  0  0  0  # atno 17371 bound_to 10713
  139.9251  134.8071  156.1092 LP  0  0  0  0  0  0  0  0  0  0  0  0  # atno 17394 bound_to 11000
  141.0901  133.6718  156.2522 LP  0  0  0  0  0  0  0  0  0  0  0  0  # atno 17395 bound_to 11000

$$$$
