AV-unprocessed.smi:3316|AV-procd|sdf|12760|dock2
  -GOLD-   2272019 93D 1   1.00000     0.00000
 Structure written by MMmdl.
 41 43  0  0  0  0  0  0  0  0  2 V2000
  144.4911  136.3953  151.0584 C   0  0  0  0  0  0  0  0  0  0  0  0
  145.6195  135.3904  151.3371 C   0  0  1  0  0  0  0  0  0  0  0  0
  146.0628  135.4330  152.8126 C   0  0  0  0  0  0  0  0  0  0  0  0
  146.9825  136.5609  153.0642 N   0  3  0  0  0  0  0  0  0  0  0  0
  147.1663  136.8895  154.4903 C   0  0  0  0  0  0  0  0  0  0  0  0
  147.6840  135.6685  155.2734 C   0  0  1  0  0  0  0  0  0  0  0  0
  149.1071  135.1983  154.8425 C   0  0  0  0  0  0  0  0  0  0  0  0
  149.8822  135.1637  156.1803 C   0  0  1  0  0  0  0  0  0  0  0  0
  150.0441  136.5917  156.6558 C   0  0  0  0  0  0  0  0  0  0  0  0
  148.8389  137.0241  157.0296 C   0  0  0  0  0  0  0  0  0  0  0  0
  147.8614  135.8884  156.8011 C   0  0  2  0  0  0  0  0  0  0  0  0
  148.7682  134.6945  157.1216 C   0  0  0  0  0  0  0  0  0  0  0  0
  145.2257  133.9833  150.9021 C   0  0  0  0  0  0  0  0  0  0  0  0
  143.9249  133.7189  150.4233 C   0  0  0  0  0  0  0  0  0  0  0  0
  143.6086  132.4071  150.0165 C   0  0  0  0  0  0  0  0  0  0  0  0
  144.4903  131.3857  150.0575 N   0  0  0  0  0  0  0  0  0  0  0  0
  145.7327  131.6421  150.5186 C   0  0  0  0  0  0  0  0  0  0  0  0
  146.1501  132.9171  150.9500 C   0  0  0  0  0  0  0  0  0  0  0  0
  144.2190  136.3946  150.0024 H   0  0  0  0  0  0  0  0  0  0  0  0
  144.7954  137.4097  151.3179 H   0  0  0  0  0  0  0  0  0  0  0  0
  143.5939  136.1631  151.6330 H   0  0  0  0  0  0  0  0  0  0  0  0
  146.4732  135.6970  150.7305 H   0  0  0  0  0  0  0  0  0  0  0  0
  145.1945  135.5357  153.4644 H   0  0  0  0  0  0  0  0  0  0  0  0
  146.5543  134.4981  153.0858 H   0  0  0  0  0  0  0  0  0  0  0  0
  147.8855  136.3167  152.6829 H   0  0  0  0  0  0  0  0  0  0  0  0
  147.8773  137.7123  154.5731 H   0  0  0  0  0  0  0  0  0  0  0  0
  146.2242  137.2458  154.9086 H   0  0  0  0  0  0  0  0  0  0  0  0
  146.9875  134.8420  155.1193 H   0  0  0  0  0  0  0  0  0  0  0  0
  149.0639  134.2072  154.3891 H   0  0  0  0  0  0  0  0  0  0  0  0
  149.5771  135.8707  154.1231 H   0  0  0  0  0  0  0  0  0  0  0  0
  150.7955  134.5685  156.1968 H   0  0  0  0  0  0  0  0  0  0  0  0
  150.9732  137.1426  156.6504 H   0  0  0  0  0  0  0  0  0  0  0  0
  148.5707  138.0052  157.3933 H   0  0  0  0  0  0  0  0  0  0  0  0
  146.9465  135.9457  157.3916 H   0  0  0  0  0  0  0  0  0  0  0  0
  148.3410  133.7261  156.8531 H   0  0  0  0  0  0  0  0  0  0  0  0
  149.0792  134.6634  158.1680 H   0  0  0  0  0  0  0  0  0  0  0  0
  143.1799  134.4989  150.3662 H   0  0  0  0  0  0  0  0  0  0  0  0
  142.6217  132.1730  149.6459 H   0  0  0  0  0  0  0  0  0  0  0  0
  146.4166  130.8066  150.5426 H   0  0  0  0  0  0  0  0  0  0  0  0
  147.1579  133.0659  151.3085 H   0  0  0  0  0  0  0  0  0  0  0  0
  146.6403  137.3790  152.5809 H   0  0  0  0  0  0  0  0  0  0  0  0
  1  2  1  0  0  0  0
  1 19  1  0  0  0  0
  1 20  1  0  0  0  0
  1 21  1  0  0  0  0
  2  3  1  0  0  0  0
  2 13  1  0  0  0  0
  2 22  1  0  0  0  0
  3  4  1  0  0  0  0
  3 23  1  0  0  0  0
  3 24  1  0  0  0  0
  4  5  1  0  0  0  0
  4 25  1  0  0  0  0
  4 41  1  0  0  0  0
  5  6  1  0  0  0  0
  5 26  1  0  0  0  0
  5 27  1  0  0  0  0
  6 11  1  0  0  0  0
  6  7  1  0  0  0  0
  6 28  1  0  0  0  0
  7  8  1  0  0  0  0
  7 29  1  0  0  0  0
  7 30  1  0  0  0  0
  8 12  1  0  0  0  0
  8  9  1  0  0  0  0
  8 31  1  0  0  0  0
  9 10  2  0  0  0  0
  9 32  1  0  0  0  0
 10 11  1  0  0  0  0
 10 33  1  0  0  0  0
 11 12  1  0  0  0  0
 11 34  1  0  0  0  0
 12 35  1  0  0  0  0
 12 36  1  0  0  0  0
 13 18  1  0  0  0  0
 13 14  2  0  0  0  0
 14 15  1  0  0  0  0
 14 37  1  0  0  0  0
 15 16  2  0  0  0  0
 15 38  1  0  0  0  0
 16 17  1  0  0  0  0
 17 18  2  0  0  0  0
 17 39  1  0  0  0  0
 18 40  1  0  0  0  0
M  CHG  1   4   1
M  END
> <s_m_source_file>
AV-unprocessed.smi

> <i_m_source_file_index>
3316

> <i_lp_mmshare_version>
43012

> <i_f3d_flags>
0

> <s_epik_input>
W2NIXTFbY0hdbltjSF1bY0hdYzFbQ0BIXShbQ0gzXSlbQ0gyXVtOSF1bQ0gyXVtDQEhdKFtDSDJdW0NASF0yMylbQ0BIXShbQ0gyXTMpW0NIXT1bQ0hdMg==

> <s_epik_cmdline>
J2VwaWtfcHl0aG9uJywgJy1waCcsICc3LjAnLCAnLXRuJywgJzgnLCAnLW1hJywgJzIwMCcsICctbWV0YWxfYmluZGluZycsICctaW1hZScsICc8aW5maWxlLm1hZT4nLCAnLW9tYWUnLCAnPG91dGZpbGUubWFlPic=

> <r_lp_tautomer_probability>
1

> <r_epik_Ionization_Penalty>
0.00280406

> <r_epik_Ionization_Penalty_Charging>
0.000446589

> <r_epik_Ionization_Penalty_Neutral>
0.00235747

> <r_epik_State_Penalty>
-0

> <r_epik_Charging_Adjusted_Penalty>
0.000446589

> <i_epik_Tot_Q>
1

> <i_epik_Tot_abs_Q>
1

> <r_epik_Metal_State_Penalty>
-0

> <b_epik_Metal_Only>
0

> <s_lp_Force_Field>
OPLS_2005

> <r_lp_Energy>
65.5471

> <b_lp_Chiralities_Consistent>
1

> <s_lp_Variant>
AV-unprocessed.smi:3316-8

> <Gold.Version>
5.8.1

> <Gold.Id.Protein>
6NUR|6NUR_protein|mol2

> <Gold.PLP.Fitness>
40.3670

> <Gold.PLP.PLP>
-26.8699

> <Gold.PLP.part.hbond>
-1.9702

> <Gold.PLP.part.metal>
0.0000

> <Gold.PLP.part.buried>
-2.9924

> <Gold.PLP.part.nonpolar>
-23.1843

> <Gold.PLP.part.repulsive>
0.1417

> <Gold.PLP.ligand.clash>
0.0000

> <Gold.PLP.ligand.torsion>
0.3380

> <Gold.PLP.Chemscore.Hbond>
2.3385

> <Gold.PLP.Chemscore.CHOScore>
2.3565

> <Gold.PLP.Chemscore.Metal>
0.0000

> <Gold.Chemscore.Hbonds>
donor molecule, donor type, donor heavy atom, donor atom, acceptor molecule, acceptor atom, score
      L1  H     4    25       P1  7948  1.07
      P1  H 10785 10796       L1    16  0.16
      L1  C    15    38       P1 10186  0.27
      L1  C    15    38       P1 10952  0.93
      L1  C    17    39       P1 10747  0.89

> <Gold.PLP.Chemscore.Internal.Correction>
0.0882

> <Gold.Rescore>
     Score         DG    S(hbond)    S(metal)    S(lipo)     H(rot)  DE(clash)    DE(int)     intcor
     14.96     -15.34       1.17        0.00      80.79       1.36       0.10       0.28       ----

> <Gold.Chemscore.Fitness>
14.9576

> <Gold.Chemscore.DG>
-15.3400

> <Gold.Chemscore.ZeroCoef>
-5.4800

> <Gold.Chemscore.Hbond>
1.1677

> <Gold.Chemscore.Metal>
0.0000

> <Gold.Chemscore.Lipo>
80.7855

> <Gold.Chemscore.Internal_Hbond>
0.0000

> <Gold.Chemscore.DEClash>
0.0998

> <Gold.Chemscore.DEInternal>
0.2827

> <Gold.Chemscore.Rot>
1.3640

> <Gold.Chemscore.Internal.Correction>
   9.000000E+99

> <Gold.Chemscore.Hbonds>
donor molecule, donor type, donor heavy atom, donor atom, acceptor molecule, acceptor atom, score
      L1  H     4    25       P1  7948  0.54
      P1  H 10785 10796       L1    16  0.01

> <Gold.Chemscore.Hbond.Weighted>
-3.9000

> <Gold.Chemscore.Metal.Weighted>
-0.0000

> <Gold.Chemscore.Lipo.Weighted>
-9.4519

> <Gold.Chemscore.Internal_Hbond.Weighted>
0.0000

> <Gold.Chemscore.DEClash.Weighted>
0.0998

> <Gold.Chemscore.DEInternal.Weighted>
0.2827

> <Gold.Chemscore.Rot.Weighted>
3.4919

> <Gold.Chemscore.Internal.Correction.Weighted>
   9.000000E+99

> <Gold.Protein.RotatedTorsions>
[ 6907 6896 6895 6894 ] final  -33.13 input  -60.11 | X-H torsion
[ 7974 7965 7964 7962 ] final   40.07 input  175.53 | X-H torsion
[ 8008 7997 7996 7995 ] final  155.22 input   59.86 | X-H torsion
[ 10167 10162 10161 10158 ] final   67.01 input  -65.29 | X-H torsion
[ 10718 10713 10712 10709 ] final  -99.26 input   66.30 | X-H torsion
[ 10763 10752 10751 10750 ] final -157.68 input  -60.55 | X-H torsion
[ 11005 11000 10999 10996 ] final  -17.86 input  -57.11 | X-H torsion

> <Gold.Protein.ActiveResidues>
 VAL166  LYS551  ARG553  GLY616  TRP617  ASP618  TYR619  PRO620  LYS621  CYS622 
 ASP623  PHE694  ASN695  SER759  ASP760  ASP761  ALA762  ILE779  LEU786  VAL792 
 PHE793  MET794  SER795  GLU796  ALA797  LYS798  CYS799  TRP800  GLU811  SER814 

> <Gold.Protein.RotatedAtoms>
  151.0696  134.9790  159.8301 H   0  0  0  0  0  0  0  0  0  0  0  0  # atno 6907 bound_to 6896
  152.5406  134.2316  159.8837 H   0  0  0  0  0  0  0  0  0  0  0  0  # atno 6908 bound_to 6896
  151.2340  133.4392  159.2638 H   0  0  0  0  0  0  0  0  0  0  0  0  # atno 6909 bound_to 6896
  146.0934  139.5576  142.9461 H   0  0  0  0  0  0  0  0  0  0  0  0  # atno 7974 bound_to 7965
  156.2489  140.1945  156.6768 H   0  0  0  0  0  0  0  0  0  0  0  0  # atno 8008 bound_to 7997
  154.6351  140.0590  156.9805 H   0  0  0  0  0  0  0  0  0  0  0  0  # atno 8009 bound_to 7997
  155.1649  140.3263  155.4406 H   0  0  0  0  0  0  0  0  0  0  0  0  # atno 8010 bound_to 7997
  140.0942  144.4961  150.7079 H   0  0  0  0  0  0  0  0  0  0  0  0  # atno 10167 bound_to 10162
  156.0129  130.5274  150.6644 H   0  0  0  0  0  0  0  0  0  0  0  0  # atno 10718 bound_to 10713
  154.7617  135.3119  154.8366 H   0  0  0  0  0  0  0  0  0  0  0  0  # atno 10763 bound_to 10752
  153.9125  135.6804  153.4754 H   0  0  0  0  0  0  0  0  0  0  0  0  # atno 10764 bound_to 10752
  153.1218  135.4819  154.9139 H   0  0  0  0  0  0  0  0  0  0  0  0  # atno 10765 bound_to 10752
  140.8211  133.8068  155.9660 H   0  0  0  0  0  0  0  0  0  0  0  0  # atno 11005 bound_to 11000
  145.5995  141.0357  143.2026 LP  0  0  0  0  0  0  0  0  0  0  0  0  # atno 17320 bound_to 7965
  144.7377  139.7538  143.7323 LP  0  0  0  0  0  0  0  0  0  0  0  0  # atno 17321 bound_to 7965
  140.7012  143.2436  151.4858 LP  0  0  0  0  0  0  0  0  0  0  0  0  # atno 17342 bound_to 10162
  139.5707  144.1935  152.1832 LP  0  0  0  0  0  0  0  0  0  0  0  0  # atno 17343 bound_to 10162
  157.4379  131.0857  151.0973 LP  0  0  0  0  0  0  0  0  0  0  0  0  # atno 17370 bound_to 10713
  157.1526  130.6190  149.5587 LP  0  0  0  0  0  0  0  0  0  0  0  0  # atno 17371 bound_to 10713
  140.9098  134.2275  157.4992 LP  0  0  0  0  0  0  0  0  0  0  0  0  # atno 17394 bound_to 11000
  139.8708  134.9745  156.4848 LP  0  0  0  0  0  0  0  0  0  0  0  0  # atno 17395 bound_to 11000

$$$$
