AV-unprocessed.smi:1677|AV-procd|sdf|6725|dock2
  -GOLD-   22720 7473D 1   1.00000     0.00000
 Structure written by MMmdl.
 36 37  0  0  0  0  0  0  0  0  1 V2000
  150.3914  138.5007  158.5390 C   0  0  0  0  0  0  0  0  0  0  0  0
  151.8852  138.8645  158.5523 C   0  0  1  0  0  0  0  0  0  0  0  0
  152.6473  138.3523  157.3107 C   0  0  0  0  0  0  0  0  0  0  0  0
  151.9174  138.5684  156.0759 N   0  0  0  0  0  0  0  0  0  0  0  0
  151.4682  137.5974  155.1907 C   0  0  0  0  0  0  0  0  0  0  0  0
  150.8306  138.2629  154.1681 C   0  0  0  0  0  0  0  0  0  0  0  0
  150.8805  139.6357  154.3988 N   0  0  0  0  0  0  0  0  0  0  0  0
  151.5420  139.7401  155.5441 C   0  0  0  0  0  0  0  0  0  0  0  0
  152.0217  140.3140  158.6618 N   0  0  0  0  0  0  0  0  0  0  0  0
  152.8298  140.9592  159.5178 C   0  0  0  0  0  0  0  0  0  0  0  0
  153.5665  140.3807  160.3172 O   0  0  0  0  0  0  0  0  0  0  0  0
  152.8000  142.4927  159.4626 C   0  0  2  0  0  0  0  0  0  0  0  0
  152.2435  143.0925  160.7749 C   0  0  0  0  0  0  0  0  0  0  0  0
  151.9669  144.5808  160.6521 C   0  0  0  0  0  0  0  0  0  0  0  0
  151.8834  145.2225  159.4739 C   0  0  0  0  0  0  0  0  0  0  0  0
  152.0512  144.5315  158.1323 C   0  0  0  0  0  0  0  0  0  0  0  0
  151.9870  142.9970  158.2533 C   0  0  0  0  0  0  0  0  0  0  0  0
  150.2417  137.4210  158.5550 H   0  0  0  0  0  0  0  0  0  0  0  0
  149.8967  138.8927  157.6497 H   0  0  0  0  0  0  0  0  0  0  0  0
  149.8809  138.9090  159.4117 H   0  0  0  0  0  0  0  0  0  0  0  0
  152.3221  138.4060  159.4417 H   0  0  0  0  0  0  0  0  0  0  0  0
  153.6170  138.8461  157.2316 H   0  0  0  0  0  0  0  0  0  0  0  0
  152.8479  137.2838  157.3996 H   0  0  0  0  0  0  0  0  0  0  0  0
  151.6328  136.5433  155.3596 H   0  0  0  0  0  0  0  0  0  0  0  0
  150.3450  137.8624  153.2902 H   0  0  0  0  0  0  0  0  0  0  0  0
  151.7525  140.6918  156.0098 H   0  0  0  0  0  0  0  0  0  0  0  0
  151.4522  140.8710  158.0416 H   0  0  0  0  0  0  0  0  0  0  0  0
  153.8254  142.8476  159.3401 H   0  0  0  0  0  0  0  0  0  0  0  0
  151.3152  142.6037  161.0739 H   0  0  0  0  0  0  0  0  0  0  0  0
  152.9584  142.9375  161.5838 H   0  0  0  0  0  0  0  0  0  0  0  0
  151.8207  145.1271  161.5724 H   0  0  0  0  0  0  0  0  0  0  0  0
  151.6973  146.2863  159.4536 H   0  0  0  0  0  0  0  0  0  0  0  0
  151.2792  144.8824  157.4472 H   0  0  0  0  0  0  0  0  0  0  0  0
  153.0106  144.8365  157.7134 H   0  0  0  0  0  0  0  0  0  0  0  0
  152.3447  142.5424  157.3287 H   0  0  0  0  0  0  0  0  0  0  0  0
  150.9450  142.6916  158.3621 H   0  0  0  0  0  0  0  0  0  0  0  0
  1  2  1  0  0  0  0
  1 18  1  0  0  0  0
  1 19  1  0  0  0  0
  1 20  1  0  0  0  0
  2  3  1  0  0  0  0
  2  9  1  0  0  0  0
  2 21  1  0  0  0  0
  3  4  1  0  0  0  0
  3 22  1  0  0  0  0
  3 23  1  0  0  0  0
  4  8  1  0  0  0  0
  4  5  1  0  0  0  0
  5  6  2  0  0  0  0
  5 24  1  0  0  0  0
  6  7  1  0  0  0  0
  6 25  1  0  0  0  0
  7  8  2  0  0  0  0
  8 26  1  0  0  0  0
  9 10  1  0  0  0  0
  9 27  1  0  0  0  0
 10 11  2  0  0  0  0
 10 12  1  0  0  0  0
 12 17  1  0  0  0  0
 12 13  1  0  0  0  0
 12 28  1  0  0  0  0
 13 14  1  0  0  0  0
 13 29  1  0  0  0  0
 13 30  1  0  0  0  0
 14 15  2  0  0  0  0
 14 31  1  0  0  0  0
 15 16  1  0  0  0  0
 15 32  1  0  0  0  0
 16 17  1  0  0  0  0
 16 33  1  0  0  0  0
 16 34  1  0  0  0  0
 17 35  1  0  0  0  0
 17 36  1  0  0  0  0
M  END
> <s_m_source_file>
AV-unprocessed.smi

> <i_m_source_file_index>
1677

> <i_lp_mmshare_version>
43012

> <i_f3d_flags>
0

> <s_epik_input>
W2NIXTFuW2NIXVtjSF1uMVtDSDJdW0NAQEhdKFtDSDNdKVtOSF1DKD1PKVtDQEBIXTJbQ0gyXVtDSF09W0NIXVtDSDJdW0NIMl0y

> <s_epik_cmdline>
J2VwaWtfcHl0aG9uJywgJy1waCcsICc3LjAnLCAnLXRuJywgJzgnLCAnLW1hJywgJzIwMCcsICctbWV0YWxfYmluZGluZycsICctaW1hZScsICc8aW5maWxlLm1hZT4nLCAnLW9tYWUnLCAnPG91dGZpbGUubWFlPic=

> <r_lp_tautomer_probability>
1

> <r_epik_Ionization_Penalty>
0.640435

> <r_epik_Ionization_Penalty_Charging>
0.640435

> <r_epik_Ionization_Penalty_Neutral>
2.11108e-08

> <r_epik_State_Penalty>
0.658069

> <r_epik_Charging_Adjusted_Penalty>
1.2985

> <i_epik_Tot_Q>
0

> <i_epik_Tot_abs_Q>
0

> <r_epik_Metal_State_Penalty>
0.311689

> <b_epik_Metal_Only>
0

> <s_lp_Force_Field>
OPLS_2005

> <r_lp_Energy>
10.0444

> <b_lp_Chiralities_Consistent>
1

> <s_lp_Variant>
AV-unprocessed.smi:1677-6

> <Gold.Version>
5.8.1

> <Gold.Id.Protein>
6NUR|6NUR_protein|mol2

> <Gold.PLP.Fitness>
45.6347

> <Gold.PLP.PLP>
-41.6383

> <Gold.PLP.part.hbond>
-1.0000

> <Gold.PLP.part.metal>
0.0000

> <Gold.PLP.part.buried>
-6.5082

> <Gold.PLP.part.nonpolar>
-35.3721

> <Gold.PLP.part.repulsive>
0.2360

> <Gold.PLP.ligand.clash>
1.2932

> <Gold.PLP.ligand.torsion>
0.4342

> <Gold.PLP.Chemscore.Hbond>
1.0000

> <Gold.PLP.Chemscore.CHOScore>
1.0346

> <Gold.PLP.Chemscore.Metal>
0.0000

> <Gold.Chemscore.Hbonds>
donor molecule, donor type, donor heavy atom, donor atom, acceptor molecule, acceptor atom, score
      P1  H  7989  7998       L1     7  1.00
      L1  C     6    25       P1  7948  0.86
      L1  C     6    25       P1  7949  0.21

> <Gold.PLP.Chemscore.Internal.Correction>
0.0541

> <Gold.Rescore>
     Score         DG    S(hbond)    S(metal)    S(lipo)     H(rot)  DE(clash)    DE(int)     intcor
     15.87     -16.24       0.99        0.00     102.05       1.75       0.06       0.31       ----

> <Gold.Chemscore.Fitness>
15.8723

> <Gold.Chemscore.DG>
-16.2390

> <Gold.Chemscore.ZeroCoef>
-5.4800

> <Gold.Chemscore.Hbond>
0.9857

> <Gold.Chemscore.Metal>
0.0000

> <Gold.Chemscore.Lipo>
102.0537

> <Gold.Chemscore.Internal_Hbond>
0.0000

> <Gold.Chemscore.DEClash>
0.0584

> <Gold.Chemscore.DEInternal>
0.3083

> <Gold.Chemscore.Rot>
1.7475

> <Gold.Chemscore.Internal.Correction>
   9.000000E+99

> <Gold.Chemscore.Hbonds>
donor molecule, donor type, donor heavy atom, donor atom, acceptor molecule, acceptor atom, score
      P1  H  7989  7998       L1     7  0.30

> <Gold.Chemscore.Hbond.Weighted>
-3.2922

> <Gold.Chemscore.Metal.Weighted>
-0.0000

> <Gold.Chemscore.Lipo.Weighted>
-11.9403

> <Gold.Chemscore.Internal_Hbond.Weighted>
0.0000

> <Gold.Chemscore.DEClash.Weighted>
0.0584

> <Gold.Chemscore.DEInternal.Weighted>
0.3083

> <Gold.Chemscore.Rot.Weighted>
4.4735

> <Gold.Chemscore.Internal.Correction.Weighted>
   9.000000E+99

> <Gold.Protein.RotatedTorsions>
[ 6907 6896 6895 6894 ] final  163.14 input  -60.11 | X-H torsion
[ 7974 7965 7964 7962 ] final   18.27 input  175.53 | X-H torsion
[ 8008 7997 7996 7995 ] final   37.81 input   59.86 | X-H torsion
[ 10167 10162 10161 10158 ] final -148.61 input  -65.29 | X-H torsion
[ 10718 10713 10712 10709 ] final   13.35 input   66.30 | X-H torsion
[ 10763 10752 10751 10750 ] final  -59.20 input  -60.55 | X-H torsion
[ 11005 11000 10999 10996 ] final -125.83 input  -57.11 | X-H torsion

> <Gold.Protein.ActiveResidues>
 VAL166  LYS551  ARG553  GLY616  TRP617  ASP618  TYR619  PRO620  LYS621  CYS622 
 ASP623  PHE694  ASN695  SER759  ASP760  ASP761  ALA762  ILE779  LEU786  VAL792 
 PHE793  MET794  SER795  GLU796  ALA797  LYS798  CYS799  TRP800  GLU811  SER814 

> <Gold.Protein.RotatedAtoms>
  151.9297  133.3608  159.3926 H   0  0  0  0  0  0  0  0  0  0  0  0  # atno 6907 bound_to 6896
  150.7019  134.4550  159.5363 H   0  0  0  0  0  0  0  0  0  0  0  0  # atno 6908 bound_to 6896
  152.2188  134.8432  160.0539 H   0  0  0  0  0  0  0  0  0  0  0  0  # atno 6909 bound_to 6896
  146.2190  139.8481  142.8628 H   0  0  0  0  0  0  0  0  0  0  0  0  # atno 7974 bound_to 7965
  155.2099  140.3322  155.4330 H   0  0  0  0  0  0  0  0  0  0  0  0  # atno 8008 bound_to 7997
  156.2374  140.1879  156.7130 H   0  0  0  0  0  0  0  0  0  0  0  0  # atno 8009 bound_to 7997
  154.6085  140.0612  156.9448 H   0  0  0  0  0  0  0  0  0  0  0  0  # atno 8010 bound_to 7997
  139.7516  143.8509  152.2588 H   0  0  0  0  0  0  0  0  0  0  0  0  # atno 10167 bound_to 10162
  157.0233  130.6163  149.5724 H   0  0  0  0  0  0  0  0  0  0  0  0  # atno 10718 bound_to 10713
  154.2500  135.6328  153.5237 H   0  0  0  0  0  0  0  0  0  0  0  0  # atno 10763 bound_to 10752
  152.9914  135.5562  154.5818 H   0  0  0  0  0  0  0  0  0  0  0  0  # atno 10764 bound_to 10752
  154.5343  135.2890  155.1127 H   0  0  0  0  0  0  0  0  0  0  0  0  # atno 10765 bound_to 10752
  140.9730  134.0779  157.3849 H   0  0  0  0  0  0  0  0  0  0  0  0  # atno 11005 bound_to 11000
  145.2829  141.0144  143.3707 LP  0  0  0  0  0  0  0  0  0  0  0  0  # atno 17320 bound_to 7965
  144.9136  139.4498  143.6575 LP  0  0  0  0  0  0  0  0  0  0  0  0  # atno 17321 bound_to 7965
  139.8489  144.7174  150.9238 LP  0  0  0  0  0  0  0  0  0  0  0  0  # atno 17342 bound_to 10162
  140.7798  143.3917  151.1299 LP  0  0  0  0  0  0  0  0  0  0  0  0  # atno 17343 bound_to 10162
  156.0094  130.5185  150.7940 LP  0  0  0  0  0  0  0  0  0  0  0  0  # atno 17370 bound_to 10713
  157.5233  131.0932  151.0050 LP  0  0  0  0  0  0  0  0  0  0  0  0  # atno 17371 bound_to 10713
  139.8919  135.0122  156.6819 LP  0  0  0  0  0  0  0  0  0  0  0  0  # atno 17394 bound_to 11000
  140.7300  133.9067  155.8205 LP  0  0  0  0  0  0  0  0  0  0  0  0  # atno 17395 bound_to 11000

$$$$
