AV-unprocessed.smi:2962|AV-procd|sdf|11316|dock6
  -GOLD-   2272016223D 1   1.00000     0.00000
 Structure written by MMmdl.
 36 37  0  0  0  0  0  0  0  0  1 V2000
  153.5332  137.2580  160.7597 C   0  0  0  0  0  0  0  0  0  0  0  0
  152.5581  137.0229  159.7599 O   0  0  0  0  0  0  0  0  0  0  0  0
  151.9216  138.2146  159.3288 C   0  0  0  0  0  0  0  0  0  0  0  0
  152.8545  138.9905  158.3893 C   0  0  0  0  0  0  0  0  0  0  0  0
  152.3045  140.2883  158.0243 N   0  0  0  0  0  0  0  0  0  0  0  0
  151.6813  140.6483  156.8742 C   0  0  0  0  0  0  0  0  0  0  0  0
  151.4128  139.5181  155.5495 S   0  0  0  0  0  0  0  0  0  0  0  0
  149.6245  139.7724  155.3346 C   0  0  1  0  0  0  0  0  0  0  0  0
  149.3232  141.1498  154.7162 C   0  0  0  0  0  0  0  0  0  0  0  0
  149.0029  138.6234  154.5315 C   0  0  0  0  0  0  0  0  0  0  0  0
  149.3300  138.5470  153.2385 N   0  0  0  0  0  0  0  0  0  0  0  0
  148.2400  137.8151  155.0587 O   0  0  0  0  0  0  0  0  0  0  0  0
  151.2907  141.9204  156.8017 N   0  0  0  0  0  0  0  0  0  0  0  0
  151.6916  142.4329  158.0196 C   0  0  0  0  0  0  0  0  0  0  0  0
  151.5626  143.7338  158.5564 C   0  0  0  0  0  0  0  0  0  0  0  0
  152.0608  144.0275  159.8427 C   0  0  0  0  0  0  0  0  0  0  0  0
  152.6942  143.0273  160.6085 C   0  0  0  0  0  0  0  0  0  0  0  0
  152.8326  141.7244  160.0925 C   0  0  0  0  0  0  0  0  0  0  0  0
  152.3315  141.4363  158.8089 C   0  0  0  0  0  0  0  0  0  0  0  0
  153.9941  136.3140  161.0505 H   0  0  0  0  0  0  0  0  0  0  0  0
  153.0858  137.7029  161.6495 H   0  0  0  0  0  0  0  0  0  0  0  0
  154.3207  137.9190  160.3954 H   0  0  0  0  0  0  0  0  0  0  0  0
  150.9929  137.9747  158.8095 H   0  0  0  0  0  0  0  0  0  0  0  0
  151.6631  138.8322  160.1905 H   0  0  0  0  0  0  0  0  0  0  0  0
  153.8320  139.1193  158.8522 H   0  0  0  0  0  0  0  0  0  0  0  0
  153.0240  138.4185  157.4765 H   0  0  0  0  0  0  0  0  0  0  0  0
  149.1645  139.7481  156.3231 H   0  0  0  0  0  0  0  0  0  0  0  0
  148.2568  141.2756  154.5241 H   0  0  0  0  0  0  0  0  0  0  0  0
  149.8513  141.2875  153.7718 H   0  0  0  0  0  0  0  0  0  0  0  0
  149.6255  141.9563  155.3838 H   0  0  0  0  0  0  0  0  0  0  0  0
  148.9562  137.8041  152.6663 H   0  0  0  0  0  0  0  0  0  0  0  0
  149.9591  139.2294  152.8410 H   0  0  0  0  0  0  0  0  0  0  0  0
  151.0803  144.5069  157.9768 H   0  0  0  0  0  0  0  0  0  0  0  0
  151.9577  145.0254  160.2434 H   0  0  0  0  0  0  0  0  0  0  0  0
  153.0743  143.2611  161.5922 H   0  0  0  0  0  0  0  0  0  0  0  0
  153.3179  140.9561  160.6756 H   0  0  0  0  0  0  0  0  0  0  0  0
  1  2  1  0  0  0  0
  1 20  1  0  0  0  0
  1 21  1  0  0  0  0
  1 22  1  0  0  0  0
  2  3  1  0  0  0  0
  3  4  1  0  0  0  0
  3 23  1  0  0  0  0
  3 24  1  0  0  0  0
  4  5  1  0  0  0  0
  4 25  1  0  0  0  0
  4 26  1  0  0  0  0
  5 19  1  0  0  0  0
  5  6  1  0  0  0  0
  6  7  1  0  0  0  0
  6 13  2  0  0  0  0
  7  8  1  0  0  0  0
  8  9  1  0  0  0  0
  8 10  1  0  0  0  0
  8 27  1  0  0  0  0
  9 28  1  0  0  0  0
  9 29  1  0  0  0  0
  9 30  1  0  0  0  0
 10 11  1  0  0  0  0
 10 12  2  0  0  0  0
 11 31  1  0  0  0  0
 11 32  1  0  0  0  0
 13 14  1  0  0  0  0
 14 19  2  0  0  0  0
 14 15  1  0  0  0  0
 15 16  2  0  0  0  0
 15 33  1  0  0  0  0
 16 17  1  0  0  0  0
 16 34  1  0  0  0  0
 17 18  2  0  0  0  0
 17 35  1  0  0  0  0
 18 19  1  0  0  0  0
 18 36  1  0  0  0  0
M  END
> <s_m_source_file>
AV-unprocessed.smi

> <i_m_source_file_index>
2962

> <i_lp_mmshare_version>
43012

> <i_f3d_flags>
0

> <s_epik_input>
W2NIXTFbY0hdW2NIXVtjSF1jKGMxMiluKFtDSDJdW0NIMl1PW0NIM10pYyhuMilTW0NASF0oW0NIM10pQyg9TylbTkgyXQ==

> <s_epik_cmdline>
J2VwaWtfcHl0aG9uJywgJy1waCcsICc3LjAnLCAnLXRuJywgJzgnLCAnLW1hJywgJzIwMCcsICctbWV0YWxfYmluZGluZycsICctaW1hZScsICc8aW5maWxlLm1hZT4nLCAnLW9tYWUnLCAnPG91dGZpbGUubWFlPic=

> <r_epik_Ionization_Penalty>
0.0199986

> <r_epik_Ionization_Penalty_Charging>
0

> <r_epik_Ionization_Penalty_Neutral>
0.0199986

> <r_epik_State_Penalty>
0.0160044

> <r_epik_Charging_Adjusted_Penalty>
0.0160044

> <i_epik_Tot_Q>
0

> <i_epik_Tot_abs_Q>
0

> <r_epik_Metal_State_Penalty>
0.015472

> <b_epik_Metal_Only>
0

> <s_lp_Force_Field>
OPLS_2005

> <r_lp_Energy>
4.7896

> <b_lp_Chiralities_Consistent>
1

> <s_lp_Variant>
AV-unprocessed.smi:2962-2

> <Gold.Version>
5.8.1

> <Gold.Id.Protein>
6NUR|6NUR_protein|mol2

> <Gold.PLP.Fitness>
45.5572

> <Gold.PLP.PLP>
-39.4288

> <Gold.PLP.part.hbond>
-2.8980

> <Gold.PLP.part.metal>
0.0000

> <Gold.PLP.part.buried>
-4.1761

> <Gold.PLP.part.nonpolar>
-32.8425

> <Gold.PLP.part.repulsive>
0.2435

> <Gold.PLP.ligand.clash>
0.0000

> <Gold.PLP.ligand.torsion>
0.5964

> <Gold.PLP.Chemscore.Hbond>
2.4160

> <Gold.PLP.Chemscore.CHOScore>
0.0000

> <Gold.PLP.Chemscore.Metal>
0.0000

> <Gold.Chemscore.Hbonds>
donor molecule, donor type, donor heavy atom, donor atom, acceptor molecule, acceptor atom, score
      L1  H    11    31       P1  7948  1.00
      L1  H    11    32       P1  7957  0.43
      P1  H  6896  6907       L1     2  0.98

> <Gold.PLP.Chemscore.Internal.Correction>
0.0732

> <Gold.Rescore>
     Score         DG    S(hbond)    S(metal)    S(lipo)     H(rot)  DE(clash)    DE(int)     intcor
     17.12     -18.51       2.42        0.00      96.93       2.50       0.00       1.38       ----

> <Gold.Chemscore.Fitness>
17.1243

> <Gold.Chemscore.DG>
-18.5086

> <Gold.Chemscore.ZeroCoef>
-5.4800

> <Gold.Chemscore.Hbond>
2.4238

> <Gold.Chemscore.Metal>
0.0000

> <Gold.Chemscore.Lipo>
96.9257

> <Gold.Chemscore.Internal_Hbond>
0.0000

> <Gold.Chemscore.DEClash>
0.0025

> <Gold.Chemscore.DEInternal>
1.3818

> <Gold.Chemscore.Rot>
2.5027

> <Gold.Chemscore.Internal.Correction>
   9.000000E+99

> <Gold.Chemscore.Hbonds>
donor molecule, donor type, donor heavy atom, donor atom, acceptor molecule, acceptor atom, score
      L1  H    11    31       P1  7948  0.98
      L1  H    11    32       P1  7957  0.41
      P1  H  6896  6907       L1     2  0.55

> <Gold.Chemscore.Hbond.Weighted>
-8.0954

> <Gold.Chemscore.Metal.Weighted>
-0.0000

> <Gold.Chemscore.Lipo.Weighted>
-11.3403

> <Gold.Chemscore.Internal_Hbond.Weighted>
0.0000

> <Gold.Chemscore.DEClash.Weighted>
0.0025

> <Gold.Chemscore.DEInternal.Weighted>
1.3818

> <Gold.Chemscore.Rot.Weighted>
6.4070

> <Gold.Chemscore.Internal.Correction.Weighted>
   9.000000E+99

> <Gold.Protein.RotatedTorsions>
[ 6907 6896 6895 6894 ] final   17.95 input  -60.11 | X-H torsion
[ 7974 7965 7964 7962 ] final -173.31 input  175.53 | X-H torsion
[ 8008 7997 7996 7995 ] final -121.54 input   59.86 | X-H torsion
[ 10167 10162 10161 10158 ] final  154.68 input  -65.29 | X-H torsion
[ 10718 10713 10712 10709 ] final   32.79 input   66.30 | X-H torsion
[ 10763 10752 10751 10750 ] final  174.73 input  -60.55 | X-H torsion
[ 11005 11000 10999 10996 ] final -160.06 input  -57.11 | X-H torsion

> <Gold.Protein.ActiveResidues>
 VAL166  LYS551  ARG553  GLY616  TRP617  ASP618  TYR619  PRO620  LYS621  CYS622 
 ASP623  PHE694  ASN695  SER759  ASP760  ASP761  ALA762  ILE779  LEU786  VAL792 
 PHE793  MET794  SER795  GLU796  ALA797  LYS798  CYS799  TRP800  GLU811  SER814 

> <Gold.Protein.RotatedAtoms>
  151.8576  135.0535  160.0465 H   0  0  0  0  0  0  0  0  0  0  0  0  # atno 6907 bound_to 6896
  152.2688  133.5359  159.5435 H   0  0  0  0  0  0  0  0  0  0  0  0  # atno 6908 bound_to 6896
  150.7144  134.0643  159.3884 H   0  0  0  0  0  0  0  0  0  0  0  0  # atno 6909 bound_to 6896
  144.7139  140.1642  143.6373 H   0  0  0  0  0  0  0  0  0  0  0  0  # atno 7974 bound_to 7965
  155.1496  140.0403  157.2818 H   0  0  0  0  0  0  0  0  0  0  0  0  # atno 8008 bound_to 7997
  154.6413  140.2547  155.7292 H   0  0  0  0  0  0  0  0  0  0  0  0  # atno 8009 bound_to 7997
  156.2534  140.2855  156.0808 H   0  0  0  0  0  0  0  0  0  0  0  0  # atno 8010 bound_to 7997
  139.4822  144.5165  151.7943 H   0  0  0  0  0  0  0  0  0  0  0  0  # atno 10167 bound_to 10162
  157.2896  130.7296  149.6603 H   0  0  0  0  0  0  0  0  0  0  0  0  # atno 10718 bound_to 10713
  154.4579  135.2767  155.1734 H   0  0  0  0  0  0  0  0  0  0  0  0  # atno 10763 bound_to 10752
  154.3533  135.6145  153.5657 H   0  0  0  0  0  0  0  0  0  0  0  0  # atno 10764 bound_to 10752
  152.9852  135.5817  154.4936 H   0  0  0  0  0  0  0  0  0  0  0  0  # atno 10765 bound_to 10752
  140.6357  134.4604  157.5231 H   0  0  0  0  0  0  0  0  0  0  0  0  # atno 11005 bound_to 11000
  145.9003  139.2426  143.1497 LP  0  0  0  0  0  0  0  0  0  0  0  0  # atno 17320 bound_to 7965
  145.9817  140.8677  143.0111 LP  0  0  0  0  0  0  0  0  0  0  0  0  # atno 17321 bound_to 7965
  140.4674  144.1635  150.5913 LP  0  0  0  0  0  0  0  0  0  0  0  0  # atno 17342 bound_to 10162
  140.4419  143.2523  151.9462 LP  0  0  0  0  0  0  0  0  0  0  0  0  # atno 17343 bound_to 10162
  155.9666  130.4313  150.4913 LP  0  0  0  0  0  0  0  0  0  0  0  0  # atno 17370 bound_to 10713
  157.2873  131.0619  151.2157 LP  0  0  0  0  0  0  0  0  0  0  0  0  # atno 17371 bound_to 10713
  139.9099  134.8368  156.1567 LP  0  0  0  0  0  0  0  0  0  0  0  0  # atno 17394 bound_to 11000
  141.0643  133.6827  156.2013 LP  0  0  0  0  0  0  0  0  0  0  0  0  # atno 17395 bound_to 11000

$$$$
