AV-unprocessed.smi:2032|AV-procd|sdf|8243|dock1
  -GOLD-   2272010513D 1   1.00000     0.00000
 Structure written by MMmdl.
 43 44  0  0  0  0  0  0  0  0  2 V2000
  152.7995  138.5535  154.6790 C   0  0  0  0  0  0  0  0  0  0  0  0
  151.5606  137.6938  154.4037 C   0  0  2  0  0  0  0  0  0  0  0  0
  150.2523  138.4896  154.5671 C   0  0  0  0  0  0  0  0  0  0  0  0
  149.0529  137.6270  154.3714 N   0  3  2  0  0  0  0  0  0  0  0  0
  147.7536  138.3712  154.5024 C   0  0  1  0  0  0  0  0  0  0  0  0
  147.6840  139.5664  153.5196 C   0  0  0  0  0  0  0  0  0  0  0  0
  146.5210  137.4398  154.3252 C   0  0  0  0  0  0  0  0  0  0  0  0
  146.6485  136.5154  153.2002 N   0  0  0  0  0  0  0  0  0  0  0  0
  145.7214  135.6242  152.8182 C   0  0  0  0  0  0  0  0  0  0  0  0
  144.6484  135.4691  153.4022 O   0  0  0  0  0  0  0  0  0  0  0  0
  146.1256  134.9343  151.7374 N   0  0  0  0  0  0  0  0  0  0  0  0
  145.4356  133.9047  151.0451 C   0  0  0  0  0  0  0  0  0  0  0  0
  145.9933  133.1081  150.1259 N   0  0  0  0  0  0  0  0  0  0  0  0
  145.0813  132.1831  149.6109 C   0  0  0  0  0  0  0  0  0  0  0  0
  143.8243  132.2921  150.1519 C   0  0  0  0  0  0  0  0  0  0  0  0
  143.7355  133.5677  151.3372 S   0  0  0  0  0  0  0  0  0  0  0  0
  149.1570  136.4240  155.2454 C   0  0  0  0  0  0  0  0  0  0  0  0
  150.5053  135.7008  155.0658 C   0  0  2  0  0  0  0  0  0  0  0  0
  150.6562  134.5143  156.0244 C   0  0  0  0  0  0  0  0  0  0  0  0
  151.5629  136.6120  155.3226 O   0  0  0  0  0  0  0  0  0  0  0  0
  152.8560  139.3945  153.9876 H   0  0  0  0  0  0  0  0  0  0  0  0
  153.7123  137.9685  154.5643 H   0  0  0  0  0  0  0  0  0  0  0  0
  152.7869  138.9539  155.6932 H   0  0  0  0  0  0  0  0  0  0  0  0
  151.6312  137.3056  153.3857 H   0  0  0  0  0  0  0  0  0  0  0  0
  150.2113  138.9482  155.5566 H   0  0  0  0  0  0  0  0  0  0  0  0
  150.2758  139.2967  153.8376 H   0  0  0  0  0  0  0  0  0  0  0  0
  147.7120  138.7754  155.5152 H   0  0  0  0  0  0  0  0  0  0  0  0
  146.7344  140.0956  153.5841 H   0  0  0  0  0  0  0  0  0  0  0  0
  147.8065  139.2378  152.4873 H   0  0  0  0  0  0  0  0  0  0  0  0
  148.4357  140.3259  153.7269 H   0  0  0  0  0  0  0  0  0  0  0  0
  146.3150  136.9051  155.2541 H   0  0  0  0  0  0  0  0  0  0  0  0
  145.6278  138.0198  154.0976 H   0  0  0  0  0  0  0  0  0  0  0  0
  147.5021  136.5689  152.6636 H   0  0  0  0  0  0  0  0  0  0  0  0
  147.0332  135.1718  151.3653 H   0  0  0  0  0  0  0  0  0  0  0  0
  145.4130  131.4813  148.8600 H   0  0  0  0  0  0  0  0  0  0  0  0
  142.9491  131.7014  149.9259 H   0  0  0  0  0  0  0  0  0  0  0  0
  149.0212  136.7201  156.2871 H   0  0  0  0  0  0  0  0  0  0  0  0
  148.3783  135.7021  155.0057 H   0  0  0  0  0  0  0  0  0  0  0  0
  150.5902  135.3287  154.0431 H   0  0  0  0  0  0  0  0  0  0  0  0
  149.8757  133.7718  155.8563 H   0  0  0  0  0  0  0  0  0  0  0  0
  150.5943  134.8356  157.0646 H   0  0  0  0  0  0  0  0  0  0  0  0
  151.6184  134.0206  155.8853 H   0  0  0  0  0  0  0  0  0  0  0  0
  149.0943  137.2889  153.4203 H   0  0  0  0  0  0  0  0  0  0  0  0
  1  2  1  0  0  0  0
  1 21  1  0  0  0  0
  1 22  1  0  0  0  0
  1 23  1  0  0  0  0
  2 20  1  0  0  0  0
  2  3  1  0  0  0  0
  2 24  1  0  0  0  0
  3  4  1  0  0  0  0
  3 25  1  0  0  0  0
  3 26  1  0  0  0  0
  4  5  1  0  0  0  0
  4 17  1  0  0  0  0
  4 43  1  0  0  0  0
  5  6  1  0  0  0  0
  5  7  1  0  0  0  0
  5 27  1  0  0  0  0
  6 28  1  0  0  0  0
  6 29  1  0  0  0  0
  6 30  1  0  0  0  0
  7  8  1  0  0  0  0
  7 31  1  0  0  0  0
  7 32  1  0  0  0  0
  8  9  1  0  0  0  0
  8 33  1  0  0  0  0
  9 10  2  0  0  0  0
  9 11  1  0  0  0  0
 11 12  1  0  0  0  0
 11 34  1  0  0  0  0
 12 16  1  0  0  0  0
 12 13  2  0  0  0  0
 13 14  1  0  0  0  0
 14 15  2  0  0  0  0
 14 35  1  0  0  0  0
 15 16  1  0  0  0  0
 15 36  1  0  0  0  0
 17 18  1  0  0  0  0
 17 37  1  0  0  0  0
 17 38  1  0  0  0  0
 18 19  1  0  0  0  0
 18 20  1  0  0  0  0
 18 39  1  0  0  0  0
 19 40  1  0  0  0  0
 19 41  1  0  0  0  0
 19 42  1  0  0  0  0
M  CHG  1   4   1
M  END
> <s_m_source_file>
AV-unprocessed.smi

> <i_m_source_file_index>
2032

> <i_lp_mmshare_version>
43012

> <i_f3d_flags>
0

> <s_epik_input>
W0NIM11bQ0BASF0xW0NIMl1OKFtDSDJdW0NASF0oTzEpW0NIM10pW0NASF0oW0NIM10pW0NIMl1bTkhdQyg9TylbTkhdYzJuW2NIXVtjSF1zMg==

> <s_epik_cmdline>
J2VwaWtfcHl0aG9uJywgJy1waCcsICc3LjAnLCAnLXRuJywgJzgnLCAnLW1hJywgJzIwMCcsICctbWV0YWxfYmluZGluZycsICctaW1hZScsICc8aW5maWxlLm1hZT4nLCAnLW9tYWUnLCAnPG91dGZpbGUubWFlPic=

> <r_lp_tautomer_probability>
0.999

> <r_epik_Ionization_Penalty>
0.695838

> <r_epik_Ionization_Penalty_Charging>
0.695697

> <r_epik_Ionization_Penalty_Neutral>
0.000141198

> <r_epik_State_Penalty>
0.717972

> <r_epik_Charging_Adjusted_Penalty>
1.41367

> <i_epik_Tot_Q>
1

> <i_epik_Tot_abs_Q>
1

> <r_epik_Metal_State_Penalty>
0.756405

> <b_epik_Metal_Only>
0

> <s_lp_Force_Field>
OPLS_2005

> <r_lp_Energy>
18.3762

> <b_lp_Chiralities_Consistent>
1

> <s_lp_Variant>
AV-unprocessed.smi:2032-13

> <Gold.Version>
5.8.1

> <Gold.Id.Protein>
6NUR|6NUR_protein|mol2

> <Gold.PLP.Fitness>
49.2300

> <Gold.PLP.PLP>
-33.4569

> <Gold.PLP.part.hbond>
-3.8806

> <Gold.PLP.part.metal>
0.0000

> <Gold.PLP.part.buried>
-5.8848

> <Gold.PLP.part.nonpolar>
-25.6303

> <Gold.PLP.part.repulsive>
0.5313

> <Gold.PLP.ligand.clash>
0.0000

> <Gold.PLP.ligand.torsion>
0.2132

> <Gold.PLP.Chemscore.Hbond>
4.4533

> <Gold.PLP.Chemscore.CHOScore>
0.9231

> <Gold.PLP.Chemscore.Metal>
0.0000

> <Gold.Chemscore.Hbonds>
donor molecule, donor type, donor heavy atom, donor atom, acceptor molecule, acceptor atom, score
      L1  H     4    43       P1  7948  2.00
      L1  H     8    33       P1  7948  1.00
      L1  H    11    34       P1  7948  0.52
      P1  H 10752 10765       L1    20  0.95
      L1  C    15    36       P1 10952  0.96

> <Gold.PLP.Chemscore.Internal.Correction>
0.0701

> <Gold.Rescore>
     Score         DG    S(hbond)    S(metal)    S(lipo)     H(rot)  DE(clash)    DE(int)     intcor
     17.79     -19.30       2.67        0.00      76.99       1.61       0.09       1.42       ----

> <Gold.Chemscore.Fitness>
17.7879

> <Gold.Chemscore.DG>
-19.2957

> <Gold.Chemscore.ZeroCoef>
-5.4800

> <Gold.Chemscore.Hbond>
2.6744

> <Gold.Chemscore.Metal>
0.0000

> <Gold.Chemscore.Lipo>
76.9863

> <Gold.Chemscore.Internal_Hbond>
0.0000

> <Gold.Chemscore.DEClash>
0.0894

> <Gold.Chemscore.DEInternal>
1.4184

> <Gold.Chemscore.Rot>
1.6110

> <Gold.Chemscore.Internal.Correction>
   9.000000E+99

> <Gold.Chemscore.Hbonds>
donor molecule, donor type, donor heavy atom, donor atom, acceptor molecule, acceptor atom, score
      L1  H     4    43       P1  7948  1.00
      L1  H     8    33       P1  7948  1.00
      L1  H    11    34       P1  7948  0.45
      P1  H 10752 10765       L1    20  0.11

> <Gold.Chemscore.Hbond.Weighted>
-8.9325

> <Gold.Chemscore.Metal.Weighted>
-0.0000

> <Gold.Chemscore.Lipo.Weighted>
-9.0074

> <Gold.Chemscore.Internal_Hbond.Weighted>
0.0000

> <Gold.Chemscore.DEClash.Weighted>
0.0894

> <Gold.Chemscore.DEInternal.Weighted>
1.4184

> <Gold.Chemscore.Rot.Weighted>
4.1242

> <Gold.Chemscore.Internal.Correction.Weighted>
   9.000000E+99

> <Gold.Protein.RotatedTorsions>
[ 6907 6896 6895 6894 ] final  105.15 input  -60.11 | X-H torsion
[ 7974 7965 7964 7962 ] final -117.04 input  175.53 | X-H torsion
[ 8008 7997 7996 7995 ] final  141.51 input   59.86 | X-H torsion
[ 10167 10162 10161 10158 ] final  -70.65 input  -65.29 | X-H torsion
[ 10718 10713 10712 10709 ] final  -93.87 input   66.30 | X-H torsion
[ 10763 10752 10751 10750 ] final -165.92 input  -60.55 | X-H torsion
[ 11005 11000 10999 10996 ] final -165.62 input  -57.11 | X-H torsion

> <Gold.Protein.ActiveResidues>
 VAL166  LYS551  ARG553  GLY616  TRP617  ASP618  TYR619  PRO620  LYS621  CYS622 
 ASP623  PHE694  ASN695  SER759  ASP760  ASP761  ALA762  ILE779  LEU786  VAL792 
 PHE793  MET794  SER795  GLU796  ALA797  LYS798  CYS799  TRP800  GLU811  SER814 

> <Gold.Protein.RotatedAtoms>
  152.5240  133.9571  159.7698 H   0  0  0  0  0  0  0  0  0  0  0  0  # atno 6907 bound_to 6896
  150.9869  133.6181  159.2721 H   0  0  0  0  0  0  0  0  0  0  0  0  # atno 6908 bound_to 6896
  151.3338  135.0854  159.9401 H   0  0  0  0  0  0  0  0  0  0  0  0  # atno 6909 bound_to 6896
  145.0898  140.8482  143.3989 H   0  0  0  0  0  0  0  0  0  0  0  0  # atno 7974 bound_to 7965
  156.2964  140.2313  156.4576 H   0  0  0  0  0  0  0  0  0  0  0  0  # atno 8008 bound_to 7997
  154.8047  140.0446  157.1319 H   0  0  0  0  0  0  0  0  0  0  0  0  # atno 8009 bound_to 7997
  154.9493  140.3040  155.5086 H   0  0  0  0  0  0  0  0  0  0  0  0  # atno 8010 bound_to 7997
  140.5336  143.2319  151.7218 H   0  0  0  0  0  0  0  0  0  0  0  0  # atno 10167 bound_to 10162
  156.0019  130.5044  150.5841 H   0  0  0  0  0  0  0  0  0  0  0  0  # atno 10718 bound_to 10713
  154.6885  135.2966  154.9514 H   0  0  0  0  0  0  0  0  0  0  0  0  # atno 10763 bound_to 10752
  154.0485  135.6648  153.4801 H   0  0  0  0  0  0  0  0  0  0  0  0  # atno 10764 bound_to 10752
  153.0595  135.5124  154.7964 H   0  0  0  0  0  0  0  0  0  0  0  0  # atno 10765 bound_to 10752
  140.5737  134.5212  157.5166 H   0  0  0  0  0  0  0  0  0  0  0  0  # atno 11005 bound_to 11000
  145.1080  139.2777  143.5652 LP  0  0  0  0  0  0  0  0  0  0  0  0  # atno 17320 bound_to 7965
  146.3531  140.0667  142.8626 LP  0  0  0  0  0  0  0  0  0  0  0  0  # atno 17321 bound_to 7965
  139.4963  144.4077  152.0114 LP  0  0  0  0  0  0  0  0  0  0  0  0  # atno 17342 bound_to 10162
  140.3181  144.3460  150.6016 LP  0  0  0  0  0  0  0  0  0  0  0  0  # atno 17343 bound_to 10162
  157.3716  131.0766  151.1553 LP  0  0  0  0  0  0  0  0  0  0  0  0  # atno 17370 bound_to 10713
  157.2304  130.6522  149.5847 LP  0  0  0  0  0  0  0  0  0  0  0  0  # atno 17371 bound_to 10713
  139.9350  134.7893  156.0828 LP  0  0  0  0  0  0  0  0  0  0  0  0  # atno 17394 bound_to 11000
  141.1040  133.6667  156.2820 LP  0  0  0  0  0  0  0  0  0  0  0  0  # atno 17395 bound_to 11000

$$$$
