AV-unprocessed.smi:3031|AV-procd|sdf|11553|dock8
  -GOLD-   2272016513D 1   1.00000     0.00000
 Structure written by MMmdl.
 46 47  0  0  0  0  0  0  0  0  1 V2000
  144.0318  132.8745  150.2692 C   0  0  0  0  0  0  0  0  0  0  0  0
  144.7236  133.9929  150.9936 C   0  0  0  0  0  0  0  0  0  0  0  0
  145.6645  133.8928  152.0574 C   0  0  0  0  0  0  0  0  0  0  0  0
  146.0923  135.0716  152.4788 N   0  0  0  0  0  0  0  0  0  0  0  0
  145.4445  135.9633  151.6996 N   0  0  0  0  0  0  0  0  0  0  0  0
  145.6778  137.3853  151.8806 C   0  0  0  0  0  0  0  0  0  0  0  0
  146.2049  137.7235  153.2894 C   0  0  2  0  0  0  0  0  0  0  0  0
  145.4121  136.9559  154.3628 C   0  0  0  0  0  0  0  0  0  0  0  0
  146.1557  139.1733  153.5096 N   0  0  0  0  0  0  0  0  0  0  0  0
  147.1919  139.9497  152.8291 C   0  0  0  0  0  0  0  0  0  0  0  0
  148.4074  140.1840  153.7422 C   0  0  2  0  0  0  0  0  0  0  0  0
  149.0806  141.3529  153.3247 O   0  0  0  0  0  0  0  0  0  0  0  0
  149.4396  139.0372  153.8742 C   0  0  0  0  0  0  0  0  0  0  0  0
  150.7625  139.3865  154.4070 N   0  0  0  0  0  0  0  0  0  0  0  0
  151.6488  138.2280  154.5304 C   0  0  0  0  0  0  0  0  0  0  0  0
  153.0194  138.6090  155.1158 C   0  0  0  0  0  0  0  0  0  0  0  0
  152.8410  139.2330  156.3824 O   0  0  0  0  0  0  0  0  0  0  0  0
  152.0138  140.3889  156.3105 C   0  0  0  0  0  0  0  0  0  0  0  0
  150.6437  140.0054  155.7247 C   0  0  0  0  0  0  0  0  0  0  0  0
  144.6091  135.3401  150.7972 C   0  0  0  0  0  0  0  0  0  0  0  0
  144.7362  132.2731  149.6945 H   0  0  0  0  0  0  0  0  0  0  0  0
  143.2811  133.2450  149.5707 H   0  0  0  0  0  0  0  0  0  0  0  0
  143.5230  132.2023  150.9603 H   0  0  0  0  0  0  0  0  0  0  0  0
  146.0476  133.0020  152.5329 H   0  0  0  0  0  0  0  0  0  0  0  0
  146.3792  137.7256  151.1172 H   0  0  0  0  0  0  0  0  0  0  0  0
  144.7380  137.9067  151.6931 H   0  0  0  0  0  0  0  0  0  0  0  0
  147.2430  137.3926  153.3430 H   0  0  0  0  0  0  0  0  0  0  0  0
  145.4102  135.8861  154.1520 H   0  0  0  0  0  0  0  0  0  0  0  0
  144.3735  137.2859  154.4012 H   0  0  0  0  0  0  0  0  0  0  0  0
  145.8422  137.0792  155.3563 H   0  0  0  0  0  0  0  0  0  0  0  0
  145.2422  139.5220  153.2366 H   0  0  0  0  0  0  0  0  0  0  0  0
  147.5049  139.4761  151.9009 H   0  0  0  0  0  0  0  0  0  0  0  0
  146.7817  140.9190  152.5426 H   0  0  0  0  0  0  0  0  0  0  0  0
  148.0282  140.3949  154.7430 H   0  0  0  0  0  0  0  0  0  0  0  0
  149.5614  141.6965  154.0624 H   0  0  0  0  0  0  0  0  0  0  0  0
  148.9808  138.2975  154.5324 H   0  0  0  0  0  0  0  0  0  0  0  0
  149.5516  138.5257  152.9171 H   0  0  0  0  0  0  0  0  0  0  0  0
  151.1857  137.4740  155.1688 H   0  0  0  0  0  0  0  0  0  0  0  0
  151.8113  137.7538  153.5680 H   0  0  0  0  0  0  0  0  0  0  0  0
  153.6382  137.7204  155.2405 H   0  0  0  0  0  0  0  0  0  0  0  0
  153.5540  139.2807  154.4424 H   0  0  0  0  0  0  0  0  0  0  0  0
  151.8958  140.8057  157.3109 H   0  0  0  0  0  0  0  0  0  0  0  0
  152.4956  141.1530  155.6986 H   0  0  0  0  0  0  0  0  0  0  0  0
  150.0241  140.9005  155.6585 H   0  0  0  0  0  0  0  0  0  0  0  0
  150.1356  139.3245  156.4096 H   0  0  0  0  0  0  0  0  0  0  0  0
  144.0115  135.9014  150.0940 H   0  0  0  0  0  0  0  0  0  0  0  0
  1  2  1  0  0  0  0
  1 21  1  0  0  0  0
  1 22  1  0  0  0  0
  1 23  1  0  0  0  0
  2 20  2  0  0  0  0
  2  3  1  0  0  0  0
  3  4  2  0  0  0  0
  3 24  1  0  0  0  0
  4  5  1  0  0  0  0
  5  6  1  0  0  0  0
  5 20  1  0  0  0  0
  6  7  1  0  0  0  0
  6 25  1  0  0  0  0
  6 26  1  0  0  0  0
  7  8  1  0  0  0  0
  7  9  1  0  0  0  0
  7 27  1  0  0  0  0
  8 28  1  0  0  0  0
  8 29  1  0  0  0  0
  8 30  1  0  0  0  0
  9 10  1  0  0  0  0
  9 31  1  0  0  0  0
 10 11  1  0  0  0  0
 10 32  1  0  0  0  0
 10 33  1  0  0  0  0
 11 12  1  0  0  0  0
 11 13  1  0  0  0  0
 11 34  1  0  0  0  0
 12 35  1  0  0  0  0
 13 14  1  0  0  0  0
 13 36  1  0  0  0  0
 13 37  1  0  0  0  0
 14 19  1  0  0  0  0
 14 15  1  0  0  0  0
 15 16  1  0  0  0  0
 15 38  1  0  0  0  0
 15 39  1  0  0  0  0
 16 17  1  0  0  0  0
 16 40  1  0  0  0  0
 16 41  1  0  0  0  0
 17 18  1  0  0  0  0
 18 19  1  0  0  0  0
 18 42  1  0  0  0  0
 18 43  1  0  0  0  0
 19 44  1  0  0  0  0
 19 45  1  0  0  0  0
 20 46  1  0  0  0  0
M  END
> <s_m_source_file>
AV-unprocessed.smi

> <i_m_source_file_index>
3031

> <i_lp_mmshare_version>
43012

> <i_f3d_flags>
0

> <s_epik_input>
W0NIM11jMVtjSF1ubihbY0hdMSlbQ0gyXVtDQEhdKFtDSDNdKVtOSF1bQ0gyXVtDQEhdKFtPSF0pW0NIMl1OMltDSDJdW0NIMl1PW0NIMl1bQ0gyXTI=

> <s_epik_cmdline>
J2VwaWtfcHl0aG9uJywgJy1waCcsICc3LjAnLCAnLXRuJywgJzgnLCAnLW1hJywgJzIwMCcsICctbWV0YWxfYmluZGluZycsICctaW1hZScsICc8aW5maWxlLm1hZT4nLCAnLW9tYWUnLCAnPG91dGZpbGUubWFlPic=

> <r_lp_tautomer_probability>
1

> <r_epik_Ionization_Penalty>
2.8101

> <r_epik_Ionization_Penalty_Charging>
0

> <r_epik_Ionization_Penalty_Neutral>
2.8101

> <r_epik_State_Penalty>
2.12351

> <r_epik_Charging_Adjusted_Penalty>
2.12351

> <i_epik_Tot_Q>
0

> <i_epik_Tot_abs_Q>
0

> <r_epik_Metal_State_Penalty>
2.12345

> <b_epik_Metal_Only>
0

> <s_lp_Force_Field>
OPLS_2005

> <r_lp_Energy>
35.4854

> <b_lp_Chiralities_Consistent>
1

> <s_lp_Variant>
AV-unprocessed.smi:3031-13

> <Gold.Version>
5.8.1

> <Gold.Id.Protein>
6NUR|6NUR_protein|mol2

> <Gold.PLP.Fitness>
48.3267

> <Gold.PLP.PLP>
-36.3801

> <Gold.PLP.part.hbond>
-6.0000

> <Gold.PLP.part.metal>
0.0000

> <Gold.PLP.part.buried>
1.6673

> <Gold.PLP.part.nonpolar>
-33.2117

> <Gold.PLP.part.repulsive>
1.2899

> <Gold.PLP.ligand.clash>
0.0000

> <Gold.PLP.ligand.torsion>
1.2144

> <Gold.PLP.Chemscore.Hbond>
3.7600

> <Gold.PLP.Chemscore.CHOScore>
0.9899

> <Gold.PLP.Chemscore.Metal>
0.0000

> <Gold.Chemscore.Hbonds>
donor molecule, donor type, donor heavy atom, donor atom, acceptor molecule, acceptor atom, score
      L1  H     9    31       P1 10175  1.00
      P1  H  7989  7998       L1    14  0.90
      P1  H  7997  8009       L1    17  0.74
      P1  H  8011  8017       L1    12  0.55
      L1  C    20    46       P1 10171  0.62

> <Gold.PLP.Chemscore.Internal.Correction>
0.1257

> <Gold.Rescore>
     Score         DG    S(hbond)    S(metal)    S(lipo)     H(rot)  DE(clash)    DE(int)     intcor
     10.63     -14.94       1.66        0.00      89.01       2.53       3.08       1.22       ----

> <Gold.Chemscore.Fitness>
10.6313

> <Gold.Chemscore.DG>
-14.9408

> <Gold.Chemscore.ZeroCoef>
-5.4800

> <Gold.Chemscore.Hbond>
1.6561

> <Gold.Chemscore.Metal>
0.0000

> <Gold.Chemscore.Lipo>
89.0126

> <Gold.Chemscore.Internal_Hbond>
0.0000

> <Gold.Chemscore.DEClash>
3.0848

> <Gold.Chemscore.DEInternal>
1.2247

> <Gold.Chemscore.Rot>
2.5333

> <Gold.Chemscore.Internal.Correction>
   9.000000E+99

> <Gold.Chemscore.Hbonds>
donor molecule, donor type, donor heavy atom, donor atom, acceptor molecule, acceptor atom, score
      L1  H     9    31       P1 10175  0.97
      P1  H  7989  7998       L1    14  0.12
      P1  H  7997  8009       L1    17  0.12
      P1  H  8011  8017       L1    12  0.03

> <Gold.Chemscore.Hbond.Weighted>
-5.5315

> <Gold.Chemscore.Metal.Weighted>
-0.0000

> <Gold.Chemscore.Lipo.Weighted>
-10.4145

> <Gold.Chemscore.Internal_Hbond.Weighted>
0.0000

> <Gold.Chemscore.DEClash.Weighted>
3.0848

> <Gold.Chemscore.DEInternal.Weighted>
1.2247

> <Gold.Chemscore.Rot.Weighted>
6.4852

> <Gold.Chemscore.Internal.Correction.Weighted>
   9.000000E+99

> <Gold.Protein.RotatedTorsions>
[ 6907 6896 6895 6894 ] final  128.99 input  -60.11 | X-H torsion
[ 7974 7965 7964 7962 ] final  -76.02 input  175.53 | X-H torsion
[ 8008 7997 7996 7995 ] final  161.88 input   59.86 | X-H torsion
[ 10167 10162 10161 10158 ] final -137.12 input  -65.29 | X-H torsion
[ 10718 10713 10712 10709 ] final -149.74 input   66.30 | X-H torsion
[ 10763 10752 10751 10750 ] final  133.19 input  -60.55 | X-H torsion
[ 11005 11000 10999 10996 ] final -176.81 input  -57.11 | X-H torsion

> <Gold.Protein.ActiveResidues>
 VAL166  LYS551  ARG553  GLY616  TRP617  ASP618  TYR619  PRO620  LYS621  CYS622 
 ASP623  PHE694  ASN695  SER759  ASP760  ASP761  ALA762  ILE779  LEU786  VAL792 
 PHE793  MET794  SER795  GLU796  ALA797  LYS798  CYS799  TRP800  GLU811  SER814 

> <Gold.Protein.RotatedAtoms>
  152.3667  133.6365  159.6055 H   0  0  0  0  0  0  0  0  0  0  0  0  # atno 6907 bound_to 6896
  150.7639  133.9337  159.3443 H   0  0  0  0  0  0  0  0  0  0  0  0  # atno 6908 bound_to 6896
  151.7167  135.0903  160.0328 H   0  0  0  0  0  0  0  0  0  0  0  0  # atno 6909 bound_to 6896
  145.6183  140.9369  143.1152 H   0  0  0  0  0  0  0  0  0  0  0  0  # atno 7974 bound_to 7965
  156.2071  140.1765  156.7776 H   0  0  0  0  0  0  0  0  0  0  0  0  # atno 8008 bound_to 7997
  154.5670  140.0689  156.8937 H   0  0  0  0  0  0  0  0  0  0  0  0  # atno 8009 bound_to 7997
  155.2742  140.3344  155.4265 H   0  0  0  0  0  0  0  0  0  0  0  0  # atno 8010 bound_to 7997
  139.8609  143.7078  152.2650 H   0  0  0  0  0  0  0  0  0  0  0  0  # atno 10167 bound_to 10162
  156.4371  130.8104  151.2332 H   0  0  0  0  0  0  0  0  0  0  0  0  # atno 10718 bound_to 10713
  153.8031  135.3139  155.3392 H   0  0  0  0  0  0  0  0  0  0  0  0  # atno 10763 bound_to 10752
  154.8081  135.4685  154.0447 H   0  0  0  0  0  0  0  0  0  0  0  0  # atno 10764 bound_to 10752
  153.1802  135.6892  153.8576 H   0  0  0  0  0  0  0  0  0  0  0  0  # atno 10765 bound_to 10752
  140.4479  134.6370  157.4788 H   0  0  0  0  0  0  0  0  0  0  0  0  # atno 11005 bound_to 11000
  144.7241  139.7932  143.7371 LP  0  0  0  0  0  0  0  0  0  0  0  0  # atno 17320 bound_to 7965
  146.1451  139.4518  143.0084 LP  0  0  0  0  0  0  0  0  0  0  0  0  # atno 17321 bound_to 7965
  139.7374  144.7568  151.0706 LP  0  0  0  0  0  0  0  0  0  0  0  0  # atno 17342 bound_to 10162
  140.7775  143.5014  150.9767 LP  0  0  0  0  0  0  0  0  0  0  0  0  # atno 17343 bound_to 10162
  157.7507  131.0180  150.3607 LP  0  0  0  0  0  0  0  0  0  0  0  0  # atno 17370 bound_to 10713
  156.3957  130.3906  149.6996 LP  0  0  0  0  0  0  0  0  0  0  0  0  # atno 17371 bound_to 10713
  140.0026  134.6813  155.9506 LP  0  0  0  0  0  0  0  0  0  0  0  0  # atno 17394 bound_to 11000
  141.1677  133.6537  156.4538 LP  0  0  0  0  0  0  0  0  0  0  0  0  # atno 17395 bound_to 11000

$$$$
