AV-unprocessed.smi:370|AV-procd|sdf|2436|dock6
  -GOLD-   2262022373D 1   1.00000     0.00000
 Structure written by MMmdl.
 42 43  0  0  0  0  0  0  0  0  1 V2000
  146.8695  133.7907  162.4742 C   0  0  0  0  0  0  0  0  0  0  0  0
  147.3252  134.9790  161.6991 C   0  0  0  0  0  0  0  0  0  0  0  0
  147.9553  135.1171  160.4947 C   0  0  0  0  0  0  0  0  0  0  0  0
  148.0893  136.5302  160.3647 C   0  0  0  0  0  0  0  0  0  0  0  0
  148.6931  137.2205  159.2823 N   0  0  0  0  0  0  0  0  0  0  0  0
  149.3868  136.7112  158.2505 C   0  0  0  0  0  0  0  0  0  0  0  0
  149.5947  135.5141  158.0535 O   0  0  0  0  0  0  0  0  0  0  0  0
  149.8242  137.6835  157.4379 N   0  0  0  0  0  0  0  0  0  0  0  0
  150.5863  137.4924  156.2039 C   0  0  0  0  0  0  0  0  0  0  0  0
  150.7590  138.8111  155.3940 C   0  0  0  0  0  0  0  0  0  0  0  0
  151.5926  139.7782  156.2692 C   0  0  0  0  0  0  0  0  0  0  0  0
  151.6226  138.4579  154.1562 C   0  0  0  0  0  0  0  0  0  0  0  0
  149.4442  139.3814  154.9848 N   0  0  0  0  0  0  0  0  0  0  0  0
  149.5078  140.7310  154.4111 C   0  0  0  0  0  0  0  0  0  0  0  0
  148.1097  141.3055  154.1276 C   0  0  0  0  0  0  0  0  0  0  0  0
  147.4000  140.4297  153.2606 O   0  0  0  0  0  0  0  0  0  0  0  0
  147.2624  139.1229  153.8049 C   0  0  0  0  0  0  0  0  0  0  0  0
  148.6526  138.5294  154.0900 C   0  0  0  0  0  0  0  0  0  0  0  0
  147.5925  137.1854  161.3979 N   0  0  0  0  0  0  0  0  0  0  0  0
  147.0971  136.1980  162.2575 O   0  0  0  0  0  0  0  0  0  0  0  0
  146.9438  132.8830  161.8749 H   0  0  0  0  0  0  0  0  0  0  0  0
  145.8311  133.9058  162.7853 H   0  0  0  0  0  0  0  0  0  0  0  0
  147.4786  133.6564  163.3682 H   0  0  0  0  0  0  0  0  0  0  0  0
  148.2653  134.3250  159.8302 H   0  0  0  0  0  0  0  0  0  0  0  0
  148.5788  138.2233  159.2940 H   0  0  0  0  0  0  0  0  0  0  0  0
  149.5924  138.6367  157.6759 H   0  0  0  0  0  0  0  0  0  0  0  0
  151.5541  137.0706  156.4739 H   0  0  0  0  0  0  0  0  0  0  0  0
  150.1236  136.7256  155.5799 H   0  0  0  0  0  0  0  0  0  0  0  0
  152.5500  139.3320  156.5407 H   0  0  0  0  0  0  0  0  0  0  0  0
  151.0881  140.0282  157.2021 H   0  0  0  0  0  0  0  0  0  0  0  0
  151.8185  140.7115  155.7540 H   0  0  0  0  0  0  0  0  0  0  0  0
  152.5023  137.8766  154.4351 H   0  0  0  0  0  0  0  0  0  0  0  0
  151.9956  139.3454  153.6452 H   0  0  0  0  0  0  0  0  0  0  0  0
  151.0628  137.8700  153.4281 H   0  0  0  0  0  0  0  0  0  0  0  0
  150.0160  141.4178  155.0852 H   0  0  0  0  0  0  0  0  0  0  0  0
  150.0774  140.7196  153.4818 H   0  0  0  0  0  0  0  0  0  0  0  0
  147.5528  141.4421  155.0561 H   0  0  0  0  0  0  0  0  0  0  0  0
  148.1906  142.2848  153.6559 H   0  0  0  0  0  0  0  0  0  0  0  0
  146.6646  139.1614  154.7168 H   0  0  0  0  0  0  0  0  0  0  0  0
  146.7222  138.4970  153.0947 H   0  0  0  0  0  0  0  0  0  0  0  0
  149.1746  138.3889  153.1434 H   0  0  0  0  0  0  0  0  0  0  0  0
  148.5072  137.5411  154.5222 H   0  0  0  0  0  0  0  0  0  0  0  0
  1  2  1  0  0  0  0
  1 21  1  0  0  0  0
  1 22  1  0  0  0  0
  1 23  1  0  0  0  0
  2 20  1  0  0  0  0
  2  3  2  0  0  0  0
  3  4  1  0  0  0  0
  3 24  1  0  0  0  0
  4  5  1  0  0  0  0
  4 19  2  0  0  0  0
  5  6  1  0  0  0  0
  5 25  1  0  0  0  0
  6  7  2  0  0  0  0
  6  8  1  0  0  0  0
  8  9  1  0  0  0  0
  8 26  1  0  0  0  0
  9 10  1  0  0  0  0
  9 27  1  0  0  0  0
  9 28  1  0  0  0  0
 10 11  1  0  0  0  0
 10 12  1  0  0  0  0
 10 13  1  0  0  0  0
 11 29  1  0  0  0  0
 11 30  1  0  0  0  0
 11 31  1  0  0  0  0
 12 32  1  0  0  0  0
 12 33  1  0  0  0  0
 12 34  1  0  0  0  0
 13 18  1  0  0  0  0
 13 14  1  0  0  0  0
 14 15  1  0  0  0  0
 14 35  1  0  0  0  0
 14 36  1  0  0  0  0
 15 16  1  0  0  0  0
 15 37  1  0  0  0  0
 15 38  1  0  0  0  0
 16 17  1  0  0  0  0
 17 18  1  0  0  0  0
 17 39  1  0  0  0  0
 17 40  1  0  0  0  0
 18 41  1  0  0  0  0
 18 42  1  0  0  0  0
 19 20  1  0  0  0  0
M  END
> <s_m_source_file>
AV-unprocessed.smi

> <i_m_source_file_index>
370

> <i_lp_mmshare_version>
43012

> <i_f3d_flags>
0

> <s_epik_input>
W0NIM11jMVtjSF1jKG5vMSlbTkhdQyg9TylbTkhdW0NIMl1DKFtDSDNdKShbQ0gzXSlOMltDSDJdW0NIMl1PW0NIMl1bQ0gyXTI=

> <s_epik_cmdline>
J2VwaWtfcHl0aG9uJywgJy1waCcsICc3LjAnLCAnLXRuJywgJzgnLCAnLW1hJywgJzIwMCcsICctbWV0YWxfYmluZGluZycsICctaW1hZScsICc8aW5maWxlLm1hZT4nLCAnLW9tYWUnLCAnPG91dGZpbGUubWFlPic=

> <r_epik_Ionization_Penalty>
0.214074

> <r_epik_Ionization_Penalty_Charging>
0

> <r_epik_Ionization_Penalty_Neutral>
0.214074

> <r_epik_State_Penalty>
0.204211

> <r_epik_Charging_Adjusted_Penalty>
0.204211

> <i_epik_Tot_Q>
0

> <i_epik_Tot_abs_Q>
0

> <r_epik_Metal_State_Penalty>
0.217151

> <b_epik_Metal_Only>
0

> <s_lp_Force_Field>
OPLS_2005

> <r_lp_Energy>
40.6457

> <b_lp_Chiralities_Consistent>
1

> <s_lp_Variant>
AV-unprocessed.smi:370-1

> <Gold.Version>
5.8.1

> <Gold.Id.Protein>
6NUR|6NUR_protein|mol2

> <Gold.PLP.Fitness>
39.1677

> <Gold.PLP.PLP>
-31.0017

> <Gold.PLP.part.hbond>
-3.0000

> <Gold.PLP.part.metal>
0.0000

> <Gold.PLP.part.buried>
-3.9244

> <Gold.PLP.part.nonpolar>
-24.4050

> <Gold.PLP.part.repulsive>
0.9513

> <Gold.PLP.ligand.clash>
0.0000

> <Gold.PLP.ligand.torsion>
0.1427

> <Gold.PLP.Chemscore.Hbond>
2.7993

> <Gold.PLP.Chemscore.CHOScore>
0.0000

> <Gold.PLP.Chemscore.Metal>
0.0000

> <Gold.Chemscore.Hbonds>
donor molecule, donor type, donor heavy atom, donor atom, acceptor molecule, acceptor atom, score
      P1  H  6896  6907       L1     7  0.93
      P1  H  6931  6943       L1    19  0.96
      P1  H  6934  6947       L1    19  0.85

> <Gold.PLP.Chemscore.Internal.Correction>
0.0536

> <Gold.Rescore>
     Score         DG    S(hbond)    S(metal)    S(lipo)     H(rot)  DE(clash)    DE(int)     intcor
     14.81     -16.54       1.97        0.00      72.40       1.55       0.49       1.24       ----

> <Gold.Chemscore.Fitness>
14.8148

> <Gold.Chemscore.DG>
-16.5431

> <Gold.Chemscore.ZeroCoef>
-5.4800

> <Gold.Chemscore.Hbond>
1.9678

> <Gold.Chemscore.Metal>
0.0000

> <Gold.Chemscore.Lipo>
72.3994

> <Gold.Chemscore.Internal_Hbond>
0.0000

> <Gold.Chemscore.DEClash>
0.4869

> <Gold.Chemscore.DEInternal>
1.2414

> <Gold.Chemscore.Rot>
1.5548

> <Gold.Chemscore.Internal.Correction>
   9.000000E+99

> <Gold.Chemscore.Hbonds>
donor molecule, donor type, donor heavy atom, donor atom, acceptor molecule, acceptor atom, score
      P1  H  6896  6907       L1     7  0.82
      P1  H  6931  6943       L1    19  0.31
      P1  H  6934  6947       L1    19  0.68

> <Gold.Chemscore.Hbond.Weighted>
-6.5726

> <Gold.Chemscore.Metal.Weighted>
-0.0000

> <Gold.Chemscore.Lipo.Weighted>
-8.4707

> <Gold.Chemscore.Internal_Hbond.Weighted>
0.0000

> <Gold.Chemscore.DEClash.Weighted>
0.4869

> <Gold.Chemscore.DEInternal.Weighted>
1.2414

> <Gold.Chemscore.Rot.Weighted>
3.9802

> <Gold.Chemscore.Internal.Correction.Weighted>
   9.000000E+99

> <Gold.Protein.RotatedTorsions>
[ 6907 6896 6895 6894 ] final  -75.05 input  -60.11 | X-H torsion
[ 7974 7965 7964 7962 ] final  159.91 input  175.53 | X-H torsion
[ 8008 7997 7996 7995 ] final -107.71 input   59.86 | X-H torsion
[ 10167 10162 10161 10158 ] final -145.46 input  -65.29 | X-H torsion
[ 10718 10713 10712 10709 ] final   -4.30 input   66.30 | X-H torsion
[ 10763 10752 10751 10750 ] final  -47.54 input  -60.55 | X-H torsion
[ 11005 11000 10999 10996 ] final   56.56 input  -57.11 | X-H torsion

> <Gold.Protein.ActiveResidues>
 VAL166  LYS551  ARG553  GLY616  TRP617  ASP618  TYR619  PRO620  LYS621  CYS622 
 ASP623  PHE694  ASN695  SER759  ASP760  ASP761  ALA762  ILE779  LEU786  VAL792 
 PHE793  MET794  SER795  GLU796  ALA797  LYS798  CYS799  TRP800  GLU811  SER814 

> <Gold.Protein.RotatedAtoms>
  150.7072  134.4779  159.5455 H   0  0  0  0  0  0  0  0  0  0  0  0  # atno 6907 bound_to 6896
  152.2422  134.8214  160.0467 H   0  0  0  0  0  0  0  0  0  0  0  0  # atno 6908 bound_to 6896
  151.8992  133.3499  159.3861 H   0  0  0  0  0  0  0  0  0  0  0  0  # atno 6909 bound_to 6896
  144.7765  139.7684  143.6277 H   0  0  0  0  0  0  0  0  0  0  0  0  # atno 7974 bound_to 7965
  154.9335  140.0404  157.2060 H   0  0  0  0  0  0  0  0  0  0  0  0  # atno 8008 bound_to 7997
  154.8138  140.2872  155.5813 H   0  0  0  0  0  0  0  0  0  0  0  0  # atno 8009 bound_to 7997
  156.2974  140.2532  156.3032 H   0  0  0  0  0  0  0  0  0  0  0  0  # atno 8010 bound_to 7997
  139.7803  143.8110  152.2638 H   0  0  0  0  0  0  0  0  0  0  0  0  # atno 10167 bound_to 10162
  156.7634  130.5277  149.5781 H   0  0  0  0  0  0  0  0  0  0  0  0  # atno 10718 bound_to 10713
  154.0631  135.6615  153.4814 H   0  0  0  0  0  0  0  0  0  0  0  0  # atno 10763 bound_to 10752
  153.0419  135.5139  154.7639 H   0  0  0  0  0  0  0  0  0  0  0  0  # atno 10764 bound_to 10752
  154.6682  135.3025  154.9744 H   0  0  0  0  0  0  0  0  0  0  0  0  # atno 10765 bound_to 10752
  140.0519  134.5724  155.9253 H   0  0  0  0  0  0  0  0  0  0  0  0  # atno 11005 bound_to 11000
  146.1947  139.5206  142.9782 LP  0  0  0  0  0  0  0  0  0  0  0  0  # atno 17320 bound_to 7965
  145.6172  141.0329  143.1934 LP  0  0  0  0  0  0  0  0  0  0  0  0  # atno 17321 bound_to 7965
  139.8171  144.7312  150.9621 LP  0  0  0  0  0  0  0  0  0  0  0  0  # atno 17342 bound_to 10162
  140.7818  143.4195  151.0864 LP  0  0  0  0  0  0  0  0  0  0  0  0  # atno 17343 bound_to 10162
  156.1324  130.6187  151.0353 LP  0  0  0  0  0  0  0  0  0  0  0  0  # atno 17370 bound_to 10713
  157.6724  131.0858  150.7579 LP  0  0  0  0  0  0  0  0  0  0  0  0  # atno 17371 bound_to 10713
  141.1934  133.6579  156.5548 LP  0  0  0  0  0  0  0  0  0  0  0  0  # atno 17394 bound_to 11000
  140.3904  134.7445  157.4718 LP  0  0  0  0  0  0  0  0  0  0  0  0  # atno 17395 bound_to 11000

$$$$
