AV-unprocessed.smi:1410|AV-procd|sdf|5731|dock6
  -GOLD-   22720 5363D 1   1.00000     0.00000
 Structure written by MMmdl.
 40 41  0  0  0  0  0  0  0  0  2 V2000
  142.7754  133.0334  151.1725 N   0  0  0  0  0  0  0  0  0  0  0  0
  143.8454  132.6763  150.4584 C   0  0  0  0  0  0  0  0  0  0  0  0
  143.8039  131.7758  149.6219 O   0  0  0  0  0  0  0  0  0  0  0  0
  145.1397  133.4568  150.7115 C   0  0  0  0  0  0  0  0  0  0  0  0
  144.9841  134.5203  151.7370 N   0  3  2  0  0  0  0  0  0  0  0  0
  145.3290  135.8750  151.2295 C   0  0  0  0  0  0  0  0  0  0  0  0
  145.0056  136.9556  152.2756 C   0  0  0  0  0  0  0  0  0  0  0  0
  145.7118  136.6868  153.6201 C   0  0  2  0  0  0  0  0  0  0  0  0
  147.1558  136.9063  153.5330 N   0  0  0  0  0  0  0  0  0  0  0  0
  147.8500  137.7887  154.2674 C   0  0  0  0  0  0  0  0  0  0  0  0
  147.3293  138.5302  155.0998 O   0  0  0  0  0  0  0  0  0  0  0  0
  149.1577  137.7587  153.9552 N   0  0  0  0  0  0  0  0  0  0  0  0
  150.2231  138.5377  154.4854 C   0  0  0  0  0  0  0  0  0  0  0  0
  151.5368  138.0618  154.2938 C   0  0  0  0  0  0  0  0  0  0  0  0
  152.6134  138.8051  154.8180 C   0  0  0  0  0  0  0  0  0  0  0  0
  152.4549  139.9548  155.5063 N   0  0  0  0  0  0  0  0  0  0  0  0
  151.1968  140.4030  155.7002 C   0  0  0  0  0  0  0  0  0  0  0  0
  150.0516  139.7370  155.2187 C   0  0  0  0  0  0  0  0  0  0  0  0
  145.4093  135.2520  154.0868 C   0  0  0  0  0  0  0  0  0  0  0  0
  145.7099  134.2084  152.9945 C   0  0  0  0  0  0  0  0  0  0  0  0
  141.8990  132.5491  151.0369 H   0  0  0  0  0  0  0  0  0  0  0  0
  142.8385  133.7859  151.8432 H   0  0  0  0  0  0  0  0  0  0  0  0
  145.8806  132.7294  151.0461 H   0  0  0  0  0  0  0  0  0  0  0  0
  145.5191  133.8853  149.7820 H   0  0  0  0  0  0  0  0  0  0  0  0
  146.3870  135.9096  150.9651 H   0  0  0  0  0  0  0  0  0  0  0  0
  144.7720  136.0876  150.3167 H   0  0  0  0  0  0  0  0  0  0  0  0
  145.2700  137.9406  151.8894 H   0  0  0  0  0  0  0  0  0  0  0  0
  143.9272  136.9789  152.4378 H   0  0  0  0  0  0  0  0  0  0  0  0
  145.3153  137.3749  154.3691 H   0  0  0  0  0  0  0  0  0  0  0  0
  147.6657  136.3344  152.8757 H   0  0  0  0  0  0  0  0  0  0  0  0
  149.4178  137.1346  153.2058 H   0  0  0  0  0  0  0  0  0  0  0  0
  151.7231  137.1462  153.7516 H   0  0  0  0  0  0  0  0  0  0  0  0
  153.6292  138.4651  154.6810 H   0  0  0  0  0  0  0  0  0  0  0  0
  151.0976  141.3197  156.2624 H   0  0  0  0  0  0  0  0  0  0  0  0
  149.0796  140.1534  155.4317 H   0  0  0  0  0  0  0  0  0  0  0  0
  145.9716  135.0211  154.9925 H   0  0  0  0  0  0  0  0  0  0  0  0
  144.3553  135.1825  154.3605 H   0  0  0  0  0  0  0  0  0  0  0  0
  145.4126  133.2229  153.3554 H   0  0  0  0  0  0  0  0  0  0  0  0
  146.7817  134.1614  152.7957 H   0  0  0  0  0  0  0  0  0  0  0  0
  144.0018  134.5368  151.9731 H   0  0  0  0  0  0  0  0  0  0  0  0
  1  2  1  0  0  0  0
  1 21  1  0  0  0  0
  1 22  1  0  0  0  0
  2  3  2  0  0  0  0
  2  4  1  0  0  0  0
  4  5  1  0  0  0  0
  4 23  1  0  0  0  0
  4 24  1  0  0  0  0
  5 20  1  0  0  0  0
  5  6  1  0  0  0  0
  5 40  1  0  0  0  0
  6  7  1  0  0  0  0
  6 25  1  0  0  0  0
  6 26  1  0  0  0  0
  7  8  1  0  0  0  0
  7 27  1  0  0  0  0
  7 28  1  0  0  0  0
  8  9  1  0  0  0  0
  8 19  1  0  0  0  0
  8 29  1  0  0  0  0
  9 10  1  0  0  0  0
  9 30  1  0  0  0  0
 10 11  2  0  0  0  0
 10 12  1  0  0  0  0
 12 13  1  0  0  0  0
 12 31  1  0  0  0  0
 13 18  1  0  0  0  0
 13 14  2  0  0  0  0
 14 15  1  0  0  0  0
 14 32  1  0  0  0  0
 15 16  2  0  0  0  0
 15 33  1  0  0  0  0
 16 17  1  0  0  0  0
 17 18  2  0  0  0  0
 17 34  1  0  0  0  0
 18 35  1  0  0  0  0
 19 20  1  0  0  0  0
 19 36  1  0  0  0  0
 19 37  1  0  0  0  0
 20 38  1  0  0  0  0
 20 39  1  0  0  0  0
M  CHG  1   5   1
M  END
> <s_m_source_file>
AV-unprocessed.smi

> <i_m_source_file_index>
1410

> <i_lp_mmshare_version>
43012

> <i_f3d_flags>
0

> <s_epik_input>
W05IMl1DKD1PKVtDSDJdTjFbQ0gyXVtDSDJdW0NIXShbQ0gyXVtDSDJdMSlbTkhdQyg9TylbTkhdYzJbY0hdW2NIXW5bY0hdW2NIXTI=

> <s_epik_cmdline>
J2VwaWtfcHl0aG9uJywgJy1waCcsICc3LjAnLCAnLXRuJywgJzgnLCAnLW1hJywgJzIwMCcsICctbWV0YWxfYmluZGluZycsICctaW1hZScsICc8aW5maWxlLm1hZT4nLCAnLW9tYWUnLCAnPG91dGZpbGUubWFlPic=

> <r_epik_Ionization_Penalty>
0.938358

> <r_epik_Ionization_Penalty_Charging>
0.838844

> <r_epik_Ionization_Penalty_Neutral>
0.0995144

> <r_epik_State_Penalty>
0.957795

> <r_epik_Charging_Adjusted_Penalty>
1.79664

> <i_epik_Tot_Q>
1

> <i_epik_Tot_abs_Q>
1

> <r_epik_Metal_State_Penalty>
0.97276

> <b_epik_Metal_Only>
0

> <s_lp_Force_Field>
OPLS_2005

> <r_lp_Energy>
18.9404

> <b_lp_Chiralities_Consistent>
1

> <s_lp_Variant>
AV-unprocessed.smi:1410-3

> <Gold.Version>
5.8.1

> <Gold.Id.Protein>
6NUR|6NUR_protein|mol2

> <Gold.PLP.Fitness>
42.9333

> <Gold.PLP.PLP>
-33.0818

> <Gold.PLP.part.hbond>
-5.7394

> <Gold.PLP.part.metal>
0.0000

> <Gold.PLP.part.buried>
-3.8370

> <Gold.PLP.part.nonpolar>
-23.9654

> <Gold.PLP.part.repulsive>
0.2873

> <Gold.PLP.ligand.clash>
0.0000

> <Gold.PLP.ligand.torsion>
0.7993

> <Gold.PLP.Chemscore.Hbond>
3.8080

> <Gold.PLP.Chemscore.CHOScore>
0.0000

> <Gold.PLP.Chemscore.Metal>
0.0000

> <Gold.Chemscore.Hbonds>
donor molecule, donor type, donor heavy atom, donor atom, acceptor molecule, acceptor atom, score
      L1  H     9    30       P1  7948  0.94
      L1  H    12    31       P1  7948  1.00
      P1  H  7997  8010       L1    16  0.85
      P1  H 10785 10796       L1     3  0.85

> <Gold.PLP.Chemscore.Internal.Correction>
0.0260

> <Gold.Rescore>
     Score         DG    S(hbond)    S(metal)    S(lipo)     H(rot)  DE(clash)    DE(int)     intcor
     16.63     -18.60       3.25        0.00      62.22       1.96       0.08       1.89       ----

> <Gold.Chemscore.Fitness>
16.6340

> <Gold.Chemscore.DG>
-18.6026

> <Gold.Chemscore.ZeroCoef>
-5.4800

> <Gold.Chemscore.Hbond>
3.2549

> <Gold.Chemscore.Metal>
0.0000

> <Gold.Chemscore.Lipo>
62.2176

> <Gold.Chemscore.Internal_Hbond>
0.0000

> <Gold.Chemscore.DEClash>
0.0811

> <Gold.Chemscore.DEInternal>
1.8875

> <Gold.Chemscore.Rot>
1.9642

> <Gold.Chemscore.Internal.Correction>
   9.000000E+99

> <Gold.Chemscore.Hbonds>
donor molecule, donor type, donor heavy atom, donor atom, acceptor molecule, acceptor atom, score
      L1  H     9    30       P1  7948  0.91
      L1  H    12    31       P1  7948  0.85
      P1  H  7997  8010       L1    16  0.14
      P1  H 10785 10796       L1     3  0.82

> <Gold.Chemscore.Hbond.Weighted>
-10.8715

> <Gold.Chemscore.Metal.Weighted>
-0.0000

> <Gold.Chemscore.Lipo.Weighted>
-7.2795

> <Gold.Chemscore.Internal_Hbond.Weighted>
0.0000

> <Gold.Chemscore.DEClash.Weighted>
0.0811

> <Gold.Chemscore.DEInternal.Weighted>
1.8875

> <Gold.Chemscore.Rot.Weighted>
5.0283

> <Gold.Chemscore.Internal.Correction.Weighted>
   9.000000E+99

> <Gold.Protein.RotatedTorsions>
[ 6907 6896 6895 6894 ] final  -24.25 input  -60.11 | X-H torsion
[ 7974 7965 7964 7962 ] final  -87.02 input  175.53 | X-H torsion
[ 8008 7997 7996 7995 ] final   92.39 input   59.86 | X-H torsion
[ 10167 10162 10161 10158 ] final  121.91 input  -65.29 | X-H torsion
[ 10718 10713 10712 10709 ] final -102.80 input   66.30 | X-H torsion
[ 10763 10752 10751 10750 ] final -155.96 input  -60.55 | X-H torsion
[ 11005 11000 10999 10996 ] final -137.69 input  -57.11 | X-H torsion

> <Gold.Protein.ActiveResidues>
 VAL166  LYS551  ARG553  GLY616  TRP617  ASP618  TYR619  PRO620  LYS621  CYS622 
 ASP623  PHE694  ASN695  SER759  ASP760  ASP761  ALA762  ILE779  LEU786  VAL792 
 PHE793  MET794  SER795  GLU796  ALA797  LYS798  CYS799  TRP800  GLU811  SER814 

> <Gold.Protein.RotatedAtoms>
  151.1922  135.0407  159.8836 H   0  0  0  0  0  0  0  0  0  0  0  0  # atno 6907 bound_to 6896
  152.5438  134.0944  159.8301 H   0  0  0  0  0  0  0  0  0  0  0  0  # atno 6908 bound_to 6896
  151.1074  133.5151  159.2639 H   0  0  0  0  0  0  0  0  0  0  0  0  # atno 6909 bound_to 6896
  145.4721  140.9559  143.1911 H   0  0  0  0  0  0  0  0  0  0  0  0  # atno 7974 bound_to 7965
  156.0348  140.3326  155.7179 H   0  0  0  0  0  0  0  0  0  0  0  0  # atno 8008 bound_to 7997
  155.5832  140.0639  157.2795 H   0  0  0  0  0  0  0  0  0  0  0  0  # atno 8009 bound_to 7997
  154.4368  140.1840  156.0986 H   0  0  0  0  0  0  0  0  0  0  0  0  # atno 8010 bound_to 7997
  139.5891  144.7018  151.3335 H   0  0  0  0  0  0  0  0  0  0  0  0  # atno 10167 bound_to 10162
  156.0242  130.5437  150.7160 H   0  0  0  0  0  0  0  0  0  0  0  0  # atno 10718 bound_to 10713
  154.7749  135.3156  154.8114 H   0  0  0  0  0  0  0  0  0  0  0  0  # atno 10763 bound_to 10752
  153.8840  135.6832  153.4769 H   0  0  0  0  0  0  0  0  0  0  0  0  # atno 10764 bound_to 10752
  153.1370  135.4755  154.9373 H   0  0  0  0  0  0  0  0  0  0  0  0  # atno 10765 bound_to 10752
  140.8687  134.2078  157.4664 H   0  0  0  0  0  0  0  0  0  0  0  0  # atno 11005 bound_to 11000
  144.7939  139.6273  143.7101 LP  0  0  0  0  0  0  0  0  0  0  0  0  # atno 17320 bound_to 7965
  146.2391  139.5964  142.9504 LP  0  0  0  0  0  0  0  0  0  0  0  0  # atno 17321 bound_to 7965
  140.7157  143.7272  150.7651 LP  0  0  0  0  0  0  0  0  0  0  0  0  # atno 17342 bound_to 10162
  140.0824  143.4956  152.2523 LP  0  0  0  0  0  0  0  0  0  0  0  0  # atno 17343 bound_to 10162
  157.4787  131.0900  151.0560 LP  0  0  0  0  0  0  0  0  0  0  0  0  # atno 17370 bound_to 10713
  157.1000  130.5978  149.5458 LP  0  0  0  0  0  0  0  0  0  0  0  0  # atno 17371 bound_to 10713
  139.8711  134.9764  156.4919 LP  0  0  0  0  0  0  0  0  0  0  0  0  # atno 17394 bound_to 11000
  140.8599  133.8068  155.9254 LP  0  0  0  0  0  0  0  0  0  0  0  0  # atno 17395 bound_to 11000

$$$$
