AV-unprocessed.smi:40|AV-procd|sdf|376|dock10
  -GOLD-   2262016223D 1   1.00000     0.00000
 Structure written by MMmdl.
 47 48  0  0  0  0  0  0  0  0  1 V2000
  152.1668  143.5260  159.8982 C   0  0  0  0  0  0  0  0  0  0  0  0
  152.7567  142.3371  160.6653 C   0  0  0  0  0  0  0  0  0  0  0  0
  153.3752  141.2858  159.7339 C   0  0  0  0  0  0  0  0  0  0  0  0
  153.6268  139.9413  160.4373 C   0  0  0  0  0  0  0  0  0  0  0  0
  154.4231  138.9503  159.5761 C   0  0  0  0  0  0  0  0  0  0  0  0
  153.6811  138.6656  158.4029 O   0  0  0  0  0  0  0  0  0  0  0  0
  152.8936  137.5778  158.3274 C   0  0  0  0  0  0  0  0  0  0  0  0
  152.7503  136.7647  159.2398 O   0  0  0  0  0  0  0  0  0  0  0  0
  152.2100  137.5126  157.0460 N   0  0  0  0  0  0  0  0  0  0  0  0
  151.3414  136.5685  156.6091 C   0  0  0  0  0  0  0  0  0  0  0  0
  150.9260  135.5843  157.3891 N   0  0  0  0  0  0  0  0  0  0  0  0
  150.0508  134.6086  156.9994 C   0  0  0  0  0  0  0  0  0  0  0  0
  149.7453  133.7181  157.7876 O   0  0  0  0  0  0  0  0  0  0  0  0
  149.5277  134.6864  155.6818 N   0  0  0  0  0  0  0  0  0  0  0  0
  148.6137  133.6187  155.0977 C   0  0  1  0  0  0  0  0  0  0  0  0
  147.3731  133.6848  155.7309 O   0  0  0  0  0  0  0  0  0  0  0  0
  146.3936  134.2660  154.8824 C   0  0  2  0  0  0  0  0  0  0  0  0
  145.0207  133.6597  155.1947 C   0  0  0  0  0  0  0  0  0  0  0  0
  146.8787  133.9947  153.4500 C   0  0  1  0  0  0  0  0  0  0  0  0
  146.6416  135.1302  152.6424 O   0  0  0  0  0  0  0  0  0  0  0  0
  148.3824  133.7263  153.5756 C   0  0  2  0  0  0  0  0  0  0  0  0
  148.7047  132.5114  152.9281 O   0  0  0  0  0  0  0  0  0  0  0  0
  149.9480  135.7195  154.8544 C   0  0  0  0  0  0  0  0  0  0  0  0
  150.8216  136.6646  155.2640 C   0  0  0  0  0  0  0  0  0  0  0  0
  151.2021  137.6550  154.4382 F   0  0  0  0  0  0  0  0  0  0  0  0
  149.0831  132.6719  155.3676 H   0  0  0  0  0  0  0  0  0  0  0  0
  146.3574  135.3348  155.0909 H   0  0  0  0  0  0  0  0  0  0  0  0
  146.3594  133.1330  153.0269 H   0  0  0  0  0  0  0  0  0  0  0  0
  149.0004  134.5115  153.1399 H   0  0  0  0  0  0  0  0  0  0  0  0
  151.7347  144.2544  160.5848 H   0  0  0  0  0  0  0  0  0  0  0  0
  151.3784  143.2028  159.2173 H   0  0  0  0  0  0  0  0  0  0  0  0
  152.9310  144.0348  159.3100 H   0  0  0  0  0  0  0  0  0  0  0  0
  153.5107  142.6955  161.3668 H   0  0  0  0  0  0  0  0  0  0  0  0
  151.9704  141.8766  161.2646 H   0  0  0  0  0  0  0  0  0  0  0  0
  152.7079  141.1356  158.8855 H   0  0  0  0  0  0  0  0  0  0  0  0
  154.3119  141.6645  159.3234 H   0  0  0  0  0  0  0  0  0  0  0  0
  154.1676  140.1177  161.3676 H   0  0  0  0  0  0  0  0  0  0  0  0
  152.6750  139.4887  160.7176 H   0  0  0  0  0  0  0  0  0  0  0  0
  155.3951  139.3678  159.3106 H   0  0  0  0  0  0  0  0  0  0  0  0
  154.5997  138.0300  160.1346 H   0  0  0  0  0  0  0  0  0  0  0  0
  152.4378  138.2642  156.4118 H   0  0  0  0  0  0  0  0  0  0  0  0
  144.2517  134.0820  154.5474 H   0  0  0  0  0  0  0  0  0  0  0  0
  144.7331  133.8592  156.2272 H   0  0  0  0  0  0  0  0  0  0  0  0
  145.0234  132.5788  155.0522 H   0  0  0  0  0  0  0  0  0  0  0  0
  147.4615  135.5857  152.5208 H   0  0  0  0  0  0  0  0  0  0  0  0
  148.0007  131.8983  153.0742 H   0  0  0  0  0  0  0  0  0  0  0  0
  149.5748  135.7875  153.8426 H   0  0  0  0  0  0  0  0  0  0  0  0
  1  2  1  0  0  0  0
  1 30  1  0  0  0  0
  1 31  1  0  0  0  0
  1 32  1  0  0  0  0
  2  3  1  0  0  0  0
  2 33  1  0  0  0  0
  2 34  1  0  0  0  0
  3  4  1  0  0  0  0
  3 35  1  0  0  0  0
  3 36  1  0  0  0  0
  4  5  1  0  0  0  0
  4 37  1  0  0  0  0
  4 38  1  0  0  0  0
  5  6  1  0  0  0  0
  5 39  1  0  0  0  0
  5 40  1  0  0  0  0
  6  7  1  0  0  0  0
  7  8  2  0  0  0  0
  7  9  1  0  0  0  0
  9 10  1  0  0  0  0
  9 41  1  0  0  0  0
 10 24  1  0  0  0  0
 10 11  2  0  0  0  0
 11 12  1  0  0  0  0
 12 13  2  0  0  0  0
 12 14  1  0  0  0  0
 14 15  1  0  0  0  0
 14 23  1  0  0  0  0
 15 26  1  0  0  0  0
 15 21  1  0  0  0  0
 15 16  1  0  0  0  0
 16 17  1  0  0  0  0
 17 27  1  0  0  0  0
 17 18  1  0  0  0  0
 17 19  1  0  0  0  0
 18 42  1  0  0  0  0
 18 43  1  0  0  0  0
 18 44  1  0  0  0  0
 19 28  1  0  0  0  0
 19 20  1  0  0  0  0
 19 21  1  0  0  0  0
 20 45  1  0  0  0  0
 21 29  1  0  0  0  0
 21 22  1  0  0  0  0
 22 46  1  0  0  0  0
 23 24  2  0  0  0  0
 23 47  1  0  0  0  0
 24 25  1  0  0  0  0
M  END
> <s_m_source_file>
AV-unprocessed.smi

> <i_m_source_file_index>
40

> <i_lp_mmshare_version>
43012

> <i_f3d_flags>
0

> <s_epik_input>
W0NIM11bQ0gyXVtDSDJdW0NIMl1bQ0gyXU9DKD1PKVtOSF1jMW5jKD1PKW4oW2NIXWMxRilbQ0BASF0yT1tDQEhdKFtDSDNdKVtDQEBIXShbT0hdKVtDQEhdMltPSF0=

> <s_epik_cmdline>
J2VwaWtfcHl0aG9uJywgJy1waCcsICc3LjAnLCAnLXRuJywgJzgnLCAnLW1hJywgJzIwMCcsICctbWV0YWxfYmluZGluZycsICctaW1hZScsICc8aW5maWxlLm1hZT4nLCAnLW9tYWUnLCAnPG91dGZpbGUubWFlPic=

> <r_lp_tautomer_probability>
1

> <r_epik_Ionization_Penalty>
2.29506e-06

> <r_epik_Ionization_Penalty_Charging>
8.26867e-09

> <r_epik_Ionization_Penalty_Neutral>
2.2868e-06

> <r_epik_State_Penalty>
-0

> <r_epik_Charging_Adjusted_Penalty>
8.26867e-09

> <i_epik_Tot_Q>
0

> <i_epik_Tot_abs_Q>
0

> <r_epik_Metal_State_Penalty>
-0

> <b_epik_Metal_Only>
0

> <s_epik_Chemistry_Notes>
This compound has an ester and may undergo hydrolysis at high or low pH. This compound contains an acetal/aminal-like group ( X-CH(R)-Y where X, Y are N, S, or O) that may be acid/base labile, releasing an aldehyde.

> <s_lp_Force_Field>
OPLS_2005

> <r_lp_Energy>
21.8092

> <b_lp_Chiralities_Consistent>
1

> <s_lp_Variant>
AV-unprocessed.smi:40-10

> <Gold.Version>
5.8.1

> <Gold.Id.Protein>
6NUR|6NUR_protein|mol2

> <Gold.PLP.Fitness>
43.3997

> <Gold.PLP.PLP>
-32.2874

> <Gold.PLP.part.hbond>
-4.8066

> <Gold.PLP.part.metal>
0.0000

> <Gold.PLP.part.buried>
-2.2828

> <Gold.PLP.part.nonpolar>
-26.7701

> <Gold.PLP.part.repulsive>
0.1269

> <Gold.PLP.ligand.clash>
0.0000

> <Gold.PLP.ligand.torsion>
0.4728

> <Gold.PLP.Chemscore.Hbond>
3.0000

> <Gold.PLP.Chemscore.CHOScore>
1.0000

> <Gold.PLP.Chemscore.Metal>
0.0000

> <Gold.Chemscore.Hbonds>
donor molecule, donor type, donor heavy atom, donor atom, acceptor molecule, acceptor atom, score
      L1  H    20    45       P1  7948  1.00
      P1  H  6896  6908       L1    13  1.00
      P1  H  6896  6909       L1     8  1.00
      L1  C    23    47       P1  7948  1.00

> <Gold.PLP.Chemscore.Internal.Correction>
0.0580

> <Gold.Rescore>
     Score         DG    S(hbond)    S(metal)    S(lipo)     H(rot)  DE(clash)    DE(int)     intcor
     10.07     -12.04       2.43        0.00      67.67       3.70       0.23       1.73       ----

> <Gold.Chemscore.Fitness>
10.0720

> <Gold.Chemscore.DG>
-12.0391

> <Gold.Chemscore.ZeroCoef>
-5.4800

> <Gold.Chemscore.Hbond>
2.4258

> <Gold.Chemscore.Metal>
0.0000

> <Gold.Chemscore.Lipo>
67.6748

> <Gold.Chemscore.Internal_Hbond>
0.0000

> <Gold.Chemscore.DEClash>
0.2333

> <Gold.Chemscore.DEInternal>
1.7338

> <Gold.Chemscore.Rot>
3.6957

> <Gold.Chemscore.Internal.Correction>
   9.000000E+99

> <Gold.Chemscore.Hbonds>
donor molecule, donor type, donor heavy atom, donor atom, acceptor molecule, acceptor atom, score
      L1  H    20    45       P1  7948  1.00
      P1  H  6896  6908       L1    13  0.60
      P1  H  6896  6909       L1     8  0.88

> <Gold.Chemscore.Hbond.Weighted>
-8.1022

> <Gold.Chemscore.Metal.Weighted>
-0.0000

> <Gold.Chemscore.Lipo.Weighted>
-7.9179

> <Gold.Chemscore.Internal_Hbond.Weighted>
0.0000

> <Gold.Chemscore.DEClash.Weighted>
0.2333

> <Gold.Chemscore.DEInternal.Weighted>
1.7338

> <Gold.Chemscore.Rot.Weighted>
9.4610

> <Gold.Chemscore.Internal.Correction.Weighted>
   9.000000E+99

> <Gold.Protein.RotatedTorsions>
[ 6907 6896 6895 6894 ] final  136.17 input  -60.11 | X-H torsion
[ 7974 7965 7964 7962 ] final   40.76 input  175.53 | X-H torsion
[ 8008 7997 7996 7995 ] final -115.23 input   59.86 | X-H torsion
[ 10167 10162 10161 10158 ] final -118.83 input  -65.29 | X-H torsion
[ 10718 10713 10712 10709 ] final -149.12 input   66.30 | X-H torsion
[ 10763 10752 10751 10750 ] final -150.59 input  -60.55 | X-H torsion
[ 11005 11000 10999 10996 ] final  149.34 input  -57.11 | X-H torsion

> <Gold.Protein.ActiveResidues>
 VAL166  LYS551  ARG553  GLY616  TRP617  ASP618  TYR619  PRO620  LYS621  CYS622 
 ASP623  PHE694  ASN695  SER759  ASP760  ASP761  ALA762  ILE779  LEU786  VAL792 
 PHE793  MET794  SER795  GLU796  ALA797  LYS798  CYS799  TRP800  GLU811  SER814 

> <Gold.Protein.RotatedAtoms>
  152.2923  133.5573  159.5565 H   0  0  0  0  0  0  0  0  0  0  0  0  # atno 6907 bound_to 6896
  150.7241  134.0411  159.3775 H   0  0  0  0  0  0  0  0  0  0  0  0  # atno 6908 bound_to 6896
  151.8316  135.0620  160.0488 H   0  0  0  0  0  0  0  0  0  0  0  0  # atno 6909 bound_to 6896
  146.0879  139.5495  142.9495 H   0  0  0  0  0  0  0  0  0  0  0  0  # atno 7974 bound_to 7965
  155.0488  140.0393  157.2536 H   0  0  0  0  0  0  0  0  0  0  0  0  # atno 8008 bound_to 7997
  154.7155  140.2701  155.6566 H   0  0  0  0  0  0  0  0  0  0  0  0  # atno 8009 bound_to 7997
  156.2802  140.2713  156.1810 H   0  0  0  0  0  0  0  0  0  0  0  0  # atno 8010 bound_to 7997
  140.0532  143.5039  152.2071 H   0  0  0  0  0  0  0  0  0  0  0  0  # atno 10167 bound_to 10162
  156.4291  130.8066  151.2293 H   0  0  0  0  0  0  0  0  0  0  0  0  # atno 10718 bound_to 10713
  154.8109  135.3280  154.7306 H   0  0  0  0  0  0  0  0  0  0  0  0  # atno 10763 bound_to 10752
  153.7955  135.6907  153.4868 H   0  0  0  0  0  0  0  0  0  0  0  0  # atno 10764 bound_to 10752
  153.1888  135.4559  155.0069 H   0  0  0  0  0  0  0  0  0  0  0  0  # atno 10765 bound_to 10752
  140.1036  134.8968  157.1833 H   0  0  0  0  0  0  0  0  0  0  0  0  # atno 11005 bound_to 11000
  145.6096  141.0342  143.1974 LP  0  0  0  0  0  0  0  0  0  0  0  0  # atno 17320 bound_to 7965
  144.7338  139.7645  143.7337 LP  0  0  0  0  0  0  0  0  0  0  0  0  # atno 17321 bound_to 7965
  139.5940  144.7560  151.3332 LP  0  0  0  0  0  0  0  0  0  0  0  0  # atno 17342 bound_to 10162
  140.7207  143.7144  150.7744 LP  0  0  0  0  0  0  0  0  0  0  0  0  # atno 17343 bound_to 10162
  157.7508  131.0204  150.3707 LP  0  0  0  0  0  0  0  0  0  0  0  0  # atno 17370 bound_to 10713
  156.4040  130.3921  149.6939 LP  0  0  0  0  0  0  0  0  0  0  0  0  # atno 17371 bound_to 10713
  140.3186  134.2942  155.7251 LP  0  0  0  0  0  0  0  0  0  0  0  0  # atno 17394 bound_to 11000
  141.2112  133.7695  156.9879 LP  0  0  0  0  0  0  0  0  0  0  0  0  # atno 17395 bound_to 11000

$$$$
