AV-unprocessed.smi:3249|AV-procd|sdf|12419|dock6
  -GOLD-   2272018303D 1   1.00000     0.00000
 Structure written by MMmdl.
 44 45  0  0  0  0  0  0  0  0  2 V2000
  151.0536  142.6521  158.2985 C   0  0  0  0  0  0  0  0  0  0  0  0
  150.7663  141.8887  157.0378 C   0  0  0  0  0  0  0  0  0  0  0  0
  151.5622  140.8799  156.4254 C   0  0  0  0  0  0  0  0  0  0  0  0
  151.0168  140.3952  155.3220 N   0  0  0  0  0  0  0  0  0  0  0  0
  149.8650  141.0858  155.1784 N   0  0  0  0  0  0  0  0  0  0  0  0
  148.9762  140.7821  154.0618 C   0  0  2  0  0  0  0  0  0  0  0  0
  147.7169  141.6655  154.1432 C   0  0  0  0  0  0  0  0  0  0  0  0
  148.6668  139.2632  154.0066 C   0  0  1  0  0  0  0  0  0  0  0  0
  147.7596  138.8008  155.1627 C   0  0  0  0  0  0  0  0  0  0  0  0
  148.0362  138.9282  152.7078 N   0  3  0  0  0  0  0  0  0  0  0  0
  146.5600  138.9946  152.6818 C   0  0  0  0  0  0  0  0  0  0  0  0
  145.9410  137.5932  152.5683 C   0  0  2  0  0  0  0  0  0  0  0  0
  145.9866  137.0363  151.1300 C   0  0  0  0  0  0  0  0  0  0  0  0
  145.2700  135.6833  151.0531 C   0  0  0  0  0  0  0  0  0  0  0  0
  143.8573  135.8127  151.6319 C   0  0  0  0  0  0  0  0  0  0  0  0
  143.9105  136.4345  153.0360 C   0  0  0  0  0  0  0  0  0  0  0  0
  144.5815  137.6902  152.9859 O   0  0  0  0  0  0  0  0  0  0  0  0
  149.6851  141.9869  156.2091 C   0  0  0  0  0  0  0  0  0  0  0  0
  152.0836  142.5165  158.6290 H   0  0  0  0  0  0  0  0  0  0  0  0
  150.4087  142.3322  159.1170 H   0  0  0  0  0  0  0  0  0  0  0  0
  150.8982  143.7229  158.1657 H   0  0  0  0  0  0  0  0  0  0  0  0
  152.5122  140.4831  156.7523 H   0  0  0  0  0  0  0  0  0  0  0  0
  149.4990  141.0556  153.1430 H   0  0  0  0  0  0  0  0  0  0  0  0
  147.1181  141.5981  153.2353 H   0  0  0  0  0  0  0  0  0  0  0  0
  147.9850  142.7154  154.2669 H   0  0  0  0  0  0  0  0  0  0  0  0
  147.0817  141.3837  154.9836 H   0  0  0  0  0  0  0  0  0  0  0  0
  149.6146  138.7261  154.0742 H   0  0  0  0  0  0  0  0  0  0  0  0
  148.2340  138.9518  156.1317 H   0  0  0  0  0  0  0  0  0  0  0  0
  147.5297  137.7378  155.0940 H   0  0  0  0  0  0  0  0  0  0  0  0
  146.8140  139.3439  155.1657 H   0  0  0  0  0  0  0  0  0  0  0  0
  148.4155  139.5322  151.9927 H   0  0  0  0  0  0  0  0  0  0  0  0
  146.2203  139.4622  153.6070 H   0  0  0  0  0  0  0  0  0  0  0  0
  146.2180  139.6258  151.8615 H   0  0  0  0  0  0  0  0  0  0  0  0
  146.4661  136.9182  153.2470 H   0  0  0  0  0  0  0  0  0  0  0  0
  145.5083  137.7398  150.4473 H   0  0  0  0  0  0  0  0  0  0  0  0
  147.0177  136.9259  150.7930 H   0  0  0  0  0  0  0  0  0  0  0  0
  145.2285  135.3317  150.0218 H   0  0  0  0  0  0  0  0  0  0  0  0
  145.8313  134.9371  151.6169 H   0  0  0  0  0  0  0  0  0  0  0  0
  143.2491  136.4404  150.9796 H   0  0  0  0  0  0  0  0  0  0  0  0
  143.3728  134.8367  151.6686 H   0  0  0  0  0  0  0  0  0  0  0  0
  142.9003  136.5906  153.4145 H   0  0  0  0  0  0  0  0  0  0  0  0
  144.4136  135.7681  153.7384 H   0  0  0  0  0  0  0  0  0  0  0  0
  148.8096  142.6166  156.2700 H   0  0  0  0  0  0  0  0  0  0  0  0
  148.2941  137.9762  152.4875 H   0  0  0  0  0  0  0  0  0  0  0  0
  1  2  1  0  0  0  0
  1 19  1  0  0  0  0
  1 20  1  0  0  0  0
  1 21  1  0  0  0  0
  2 18  2  0  0  0  0
  2  3  1  0  0  0  0
  3  4  2  0  0  0  0
  3 22  1  0  0  0  0
  4  5  1  0  0  0  0
  5  6  1  0  0  0  0
  5 18  1  0  0  0  0
  6  7  1  0  0  0  0
  6  8  1  0  0  0  0
  6 23  1  0  0  0  0
  7 24  1  0  0  0  0
  7 25  1  0  0  0  0
  7 26  1  0  0  0  0
  8  9  1  0  0  0  0
  8 10  1  0  0  0  0
  8 27  1  0  0  0  0
  9 28  1  0  0  0  0
  9 29  1  0  0  0  0
  9 30  1  0  0  0  0
 10 11  1  0  0  0  0
 10 31  1  0  0  0  0
 10 44  1  0  0  0  0
 11 12  1  0  0  0  0
 11 32  1  0  0  0  0
 11 33  1  0  0  0  0
 12 17  1  0  0  0  0
 12 13  1  0  0  0  0
 12 34  1  0  0  0  0
 13 14  1  0  0  0  0
 13 35  1  0  0  0  0
 13 36  1  0  0  0  0
 14 15  1  0  0  0  0
 14 37  1  0  0  0  0
 14 38  1  0  0  0  0
 15 16  1  0  0  0  0
 15 39  1  0  0  0  0
 15 40  1  0  0  0  0
 16 17  1  0  0  0  0
 16 41  1  0  0  0  0
 16 42  1  0  0  0  0
 18 43  1  0  0  0  0
M  CHG  1  10   1
M  END
> <s_m_source_file>
AV-unprocessed.smi

> <i_m_source_file_index>
3249

> <i_lp_mmshare_version>
43012

> <i_f3d_flags>
0

> <s_epik_input>
W0NIM11jMVtjSF1ubihbY0hdMSlbQ0BIXShbQ0gzXSlbQ0BIXShbQ0gzXSlbTkhdW0NIMl1bQ0BASF0yW0NIMl1bQ0gyXVtDSDJdW0NIMl1PMg==

> <s_epik_cmdline>
J2VwaWtfcHl0aG9uJywgJy1waCcsICc3LjAnLCAnLXRuJywgJzgnLCAnLW1hJywgJzIwMCcsICctbWV0YWxfYmluZGluZycsICctaW1hZScsICc8aW5maWxlLm1hZT4nLCAnLW9tYWUnLCAnPG91dGZpbGUubWFlPic=

> <r_lp_tautomer_probability>
1

> <r_epik_Ionization_Penalty>
0.00659207

> <r_epik_Ionization_Penalty_Charging>
0.00656881

> <r_epik_Ionization_Penalty_Neutral>
2.32662e-05

> <r_epik_State_Penalty>
0.0048654

> <r_epik_Charging_Adjusted_Penalty>
0.0114342

> <i_epik_Tot_Q>
1

> <i_epik_Tot_abs_Q>
1

> <r_epik_Metal_State_Penalty>
-0

> <b_epik_Metal_Only>
0

> <s_lp_Force_Field>
OPLS_2005

> <r_lp_Energy>
18.0919

> <b_lp_Chiralities_Consistent>
1

> <s_lp_Variant>
AV-unprocessed.smi:3249-3

> <Gold.Version>
5.8.1

> <Gold.Id.Protein>
6NUR|6NUR_protein|mol2

> <Gold.PLP.Fitness>
43.7467

> <Gold.PLP.PLP>
-32.7613

> <Gold.PLP.part.hbond>
-2.8441

> <Gold.PLP.part.metal>
0.0000

> <Gold.PLP.part.buried>
0.2306

> <Gold.PLP.part.nonpolar>
-30.5134

> <Gold.PLP.part.repulsive>
0.4923

> <Gold.PLP.ligand.clash>
0.0000

> <Gold.PLP.ligand.torsion>
1.0133

> <Gold.PLP.Chemscore.Hbond>
3.4000

> <Gold.PLP.Chemscore.CHOScore>
0.9068

> <Gold.PLP.Chemscore.Metal>
0.0000

> <Gold.Chemscore.Hbonds>
donor molecule, donor type, donor heavy atom, donor atom, acceptor molecule, acceptor atom, score
      L1  H    10    31       P1  7957  0.98
      L1  H    10    44       P1  7948  2.00
      P1  H  7989  7998       L1     4  0.65
      L1  C    18    43       P1  8028  0.83

> <Gold.PLP.Chemscore.Internal.Correction>
0.0917

> <Gold.Rescore>
     Score         DG    S(hbond)    S(metal)    S(lipo)     H(rot)  DE(clash)    DE(int)     intcor
     15.98     -17.55       1.99        0.00      79.77       1.53       0.03       1.54       ----

> <Gold.Chemscore.Fitness>
15.9761

> <Gold.Chemscore.DG>
-17.5499

> <Gold.Chemscore.ZeroCoef>
-5.4800

> <Gold.Chemscore.Hbond>
1.9947

> <Gold.Chemscore.Metal>
0.0000

> <Gold.Chemscore.Lipo>
79.7686

> <Gold.Chemscore.Internal_Hbond>
0.0000

> <Gold.Chemscore.DEClash>
0.0321

> <Gold.Chemscore.DEInternal>
1.5416

> <Gold.Chemscore.Rot>
1.5333

> <Gold.Chemscore.Internal.Correction>
   9.000000E+99

> <Gold.Chemscore.Hbonds>
donor molecule, donor type, donor heavy atom, donor atom, acceptor molecule, acceptor atom, score
      L1  H    10    31       P1  7957  0.87
      L1  H    10    44       P1  7948  0.99
      P1  H  7989  7998       L1     4  0.05

> <Gold.Chemscore.Hbond.Weighted>
-6.6622

> <Gold.Chemscore.Metal.Weighted>
-0.0000

> <Gold.Chemscore.Lipo.Weighted>
-9.3329

> <Gold.Chemscore.Internal_Hbond.Weighted>
0.0000

> <Gold.Chemscore.DEClash.Weighted>
0.0321

> <Gold.Chemscore.DEInternal.Weighted>
1.5416

> <Gold.Chemscore.Rot.Weighted>
3.9252

> <Gold.Chemscore.Internal.Correction.Weighted>
   9.000000E+99

> <Gold.Protein.RotatedTorsions>
[ 6907 6896 6895 6894 ] final -155.50 input  -60.11 | X-H torsion
[ 7974 7965 7964 7962 ] final  -61.29 input  175.53 | X-H torsion
[ 8008 7997 7996 7995 ] final  -28.66 input   59.86 | X-H torsion
[ 10167 10162 10161 10158 ] final  175.88 input  -65.29 | X-H torsion
[ 10718 10713 10712 10709 ] final -157.49 input   66.30 | X-H torsion
[ 10763 10752 10751 10750 ] final   94.29 input  -60.55 | X-H torsion
[ 11005 11000 10999 10996 ] final  128.01 input  -57.11 | X-H torsion

> <Gold.Protein.ActiveResidues>
 VAL166  LYS551  ARG553  GLY616  TRP617  ASP618  TYR619  PRO620  LYS621  CYS622 
 ASP623  PHE694  ASN695  SER759  ASP760  ASP761  ALA762  ILE779  LEU786  VAL792 
 PHE793  MET794  SER795  GLU796  ALA797  LYS798  CYS799  TRP800  GLU811  SER814 

> <Gold.Protein.RotatedAtoms>
  151.2734  133.4244  159.2622 H   0  0  0  0  0  0  0  0  0  0  0  0  # atno 6907 bound_to 6896
  151.0425  134.9617  159.8179 H   0  0  0  0  0  0  0  0  0  0  0  0  # atno 6908 bound_to 6896
  152.5368  134.2691  159.9017 H   0  0  0  0  0  0  0  0  0  0  0  0  # atno 6909 bound_to 6896
  145.8052  140.8631  143.0210 H   0  0  0  0  0  0  0  0  0  0  0  0  # atno 7974 bound_to 7965
  154.4323  140.1839  156.1124 H   0  0  0  0  0  0  0  0  0  0  0  0  # atno 8008 bound_to 7997
  156.0207  140.3341  155.7010 H   0  0  0  0  0  0  0  0  0  0  0  0  # atno 8009 bound_to 7997
  155.5980  140.0637  157.2731 H   0  0  0  0  0  0  0  0  0  0  0  0  # atno 8010 bound_to 7997
  139.5194  144.2979  152.0405 H   0  0  0  0  0  0  0  0  0  0  0  0  # atno 10167 bound_to 10162
  156.5411  130.8563  151.2749 H   0  0  0  0  0  0  0  0  0  0  0  0  # atno 10718 bound_to 10713
  153.2400  135.4295  155.0687 H   0  0  0  0  0  0  0  0  0  0  0  0  # atno 10763 bound_to 10752
  154.8336  135.3400  154.6663 H   0  0  0  0  0  0  0  0  0  0  0  0  # atno 10764 bound_to 10752
  153.7087  135.7024  153.5100 H   0  0  0  0  0  0  0  0  0  0  0  0  # atno 10765 bound_to 10752
  139.9538  134.9617  156.8939 H   0  0  0  0  0  0  0  0  0  0  0  0  # atno 11005 bound_to 11000
  144.6764  140.0317  143.7482 LP  0  0  0  0  0  0  0  0  0  0  0  0  # atno 17320 bound_to 7965
  145.9835  139.2960  143.1027 LP  0  0  0  0  0  0  0  0  0  0  0  0  # atno 17321 bound_to 7965
  140.2428  144.4251  150.6253 LP  0  0  0  0  0  0  0  0  0  0  0  0  # atno 17342 bound_to 10162
  140.6279  143.2183  151.6558 LP  0  0  0  0  0  0  0  0  0  0  0  0  # atno 17343 bound_to 10162
  157.7405  130.9852  150.2383 LP  0  0  0  0  0  0  0  0  0  0  0  0  # atno 17370 bound_to 10713
  156.2971  130.3753  149.7786 LP  0  0  0  0  0  0  0  0  0  0  0  0  # atno 17371 bound_to 10713
  140.5657  134.0491  155.7413 LP  0  0  0  0  0  0  0  0  0  0  0  0  # atno 17394 bound_to 11000
  141.1205  133.9468  157.2738 LP  0  0  0  0  0  0  0  0  0  0  0  0  # atno 17395 bound_to 11000

$$$$
