AV-unprocessed.smi:281|AV-procd|sdf|2106|dock2
  -GOLD-   2262021393D 1   1.00000     0.00000
 Structure written by MMmdl.
 55 59  0  0  0  0  0  0  0  0  1 V2000
  148.1808  137.4223  158.7891 C   0  0  0  0  0  0  0  0  0  0  0  0
  148.6544  137.3612  157.3334 C   0  0  1  0  0  0  0  0  0  0  0  0
  147.4791  137.2169  156.3505 C   0  0  0  0  0  0  0  0  0  0  0  0
  147.9707  137.2722  154.9814 N   0  0  0  0  0  0  0  0  0  0  0  0
  147.0392  136.9832  154.0497 C   0  0  0  0  0  0  0  0  0  0  0  0
  146.5987  138.0079  153.2802 N   0  0  0  0  0  0  0  0  0  0  0  0
  145.6737  137.7864  152.3411 C   0  0  0  0  0  0  0  0  0  0  0  0
  145.0708  136.6407  152.0159 N   0  0  0  0  0  0  0  0  0  0  0  0
  145.5098  135.6092  152.7935 C   0  0  0  0  0  0  0  0  0  0  0  0
  146.4876  135.6904  153.8242 C   0  0  0  0  0  0  0  0  0  0  0  0
  146.6840  134.4373  154.3919 N   0  0  0  0  0  0  0  0  0  0  0  0
  145.8691  133.6593  153.7333 C   0  0  0  0  0  0  0  0  0  0  0  0
  145.1170  134.2821  152.7620 N   0  0  0  0  0  0  0  0  0  0  0  0
  144.1366  133.6613  151.8836 C   0  0  0  0  0  0  0  0  0  0  0  0
  144.5854  133.5794  150.4039 C   0  0  1  0  0  0  0  0  0  0  0  0
  144.4815  134.8639  149.8174 O   0  0  0  0  0  0  0  0  0  0  0  0
  146.0254  133.0811  150.2599 C   0  0  0  0  0  0  0  0  0  0  0  0
  145.8653  131.6804  149.6817 C   0  0  0  0  0  0  0  0  0  0  0  0
  144.7335  131.8195  148.8421 O   0  0  0  0  0  0  0  0  0  0  0  0
  143.7714  132.5742  149.5643 C   0  0  0  0  0  0  0  0  0  0  0  0
  148.7159  138.4922  154.7043 C   0  0  0  0  0  0  0  0  0  0  0  0
  149.8777  138.6598  155.7156 C   0  0  1  0  0  0  0  0  0  0  0  0
  151.0143  137.6695  155.4816 C   0  0  0  0  0  0  0  0  0  0  0  0
  151.8488  138.3502  154.4025 C   0  0  0  0  0  0  0  0  0  0  0  0
  151.6855  139.7474  154.6151 O   0  0  0  0  0  0  0  0  0  0  0  0
  150.6538  139.9831  155.5696 C   0  0  1  0  0  0  0  0  0  0  0  0
  149.8375  141.2300  155.1985 C   0  0  0  0  0  0  0  0  0  0  0  0
  149.3682  138.5655  157.0500 O   0  0  0  0  0  0  0  0  0  0  0  0
  147.6380  136.5176  159.0637 H   0  0  0  0  0  0  0  0  0  0  0  0
  147.5192  138.2733  158.9532 H   0  0  0  0  0  0  0  0  0  0  0  0
  149.0266  137.5220  159.4697 H   0  0  0  0  0  0  0  0  0  0  0  0
  149.3246  136.5069  157.2279 H   0  0  0  0  0  0  0  0  0  0  0  0
  146.9616  136.2716  156.5200 H   0  0  0  0  0  0  0  0  0  0  0  0
  146.7561  138.0164  156.5168 H   0  0  0  0  0  0  0  0  0  0  0  0
  145.3718  138.6514  151.7692 H   0  0  0  0  0  0  0  0  0  0  0  0
  145.7942  132.6023  153.9426 H   0  0  0  0  0  0  0  0  0  0  0  0
  143.9173  132.6639  152.2673 H   0  0  0  0  0  0  0  0  0  0  0  0
  143.2074  134.2275  151.9608 H   0  0  0  0  0  0  0  0  0  0  0  0
  144.7471  134.8021  148.9124 H   0  0  0  0  0  0  0  0  0  0  0  0
  146.5841  133.6949  149.5510 H   0  0  0  0  0  0  0  0  0  0  0  0
  146.5813  133.0797  151.1982 H   0  0  0  0  0  0  0  0  0  0  0  0
  146.7436  131.3492  149.1275 H   0  0  0  0  0  0  0  0  0  0  0  0
  145.6550  130.9530  150.4675 H   0  0  0  0  0  0  0  0  0  0  0  0
  143.2256  131.8792  150.2029 H   0  0  0  0  0  0  0  0  0  0  0  0
  143.0486  133.0447  148.8961 H   0  0  0  0  0  0  0  0  0  0  0  0
  149.0908  138.4791  153.6800 H   0  0  0  0  0  0  0  0  0  0  0  0
  148.0306  139.3363  154.7814 H   0  0  0  0  0  0  0  0  0  0  0  0
  151.6116  137.5696  156.3891 H   0  0  0  0  0  0  0  0  0  0  0  0
  150.6830  136.6720  155.1908 H   0  0  0  0  0  0  0  0  0  0  0  0
  152.8990  138.0609  154.4463 H   0  0  0  0  0  0  0  0  0  0  0  0
  151.4707  138.1009  153.4104 H   0  0  0  0  0  0  0  0  0  0  0  0
  151.1637  140.1795  156.5143 H   0  0  0  0  0  0  0  0  0  0  0  0
  149.0281  141.3943  155.9102 H   0  0  0  0  0  0  0  0  0  0  0  0
  149.4033  141.1464  154.2021 H   0  0  0  0  0  0  0  0  0  0  0  0
  150.4688  142.1186  155.2042 H   0  0  0  0  0  0  0  0  0  0  0  0
  1  2  1  0  0  0  0
  1 29  1  0  0  0  0
  1 30  1  0  0  0  0
  1 31  1  0  0  0  0
  2 28  1  0  0  0  0
  2  3  1  0  0  0  0
  2 32  1  0  0  0  0
  3  4  1  0  0  0  0
  3 33  1  0  0  0  0
  3 34  1  0  0  0  0
  4  5  1  0  0  0  0
  4 21  1  0  0  0  0
  5 10  1  0  0  0  0
  5  6  2  0  0  0  0
  6  7  1  0  0  0  0
  7  8  2  0  0  0  0
  7 35  1  0  0  0  0
  8  9  1  0  0  0  0
  9 13  1  0  0  0  0
  9 10  2  0  0  0  0
 10 11  1  0  0  0  0
 11 12  2  0  0  0  0
 12 13  1  0  0  0  0
 12 36  1  0  0  0  0
 13 14  1  0  0  0  0
 14 15  1  0  0  0  0
 14 37  1  0  0  0  0
 14 38  1  0  0  0  0
 15 20  1  0  0  0  0
 15 16  1  0  0  0  0
 15 17  1  0  0  0  0
 16 39  1  0  0  0  0
 17 18  1  0  0  0  0
 17 40  1  0  0  0  0
 17 41  1  0  0  0  0
 18 19  1  0  0  0  0
 18 42  1  0  0  0  0
 18 43  1  0  0  0  0
 19 20  1  0  0  0  0
 20 44  1  0  0  0  0
 20 45  1  0  0  0  0
 21 22  1  0  0  0  0
 21 46  1  0  0  0  0
 21 47  1  0  0  0  0
 22 26  1  0  0  0  0
 22 23  1  0  0  0  0
 22 28  1  0  0  0  0
 23 24  1  0  0  0  0
 23 48  1  0  0  0  0
 23 49  1  0  0  0  0
 24 25  1  0  0  0  0
 24 50  1  0  0  0  0
 24 51  1  0  0  0  0
 25 26  1  0  0  0  0
 26 27  1  0  0  0  0
 26 52  1  0  0  0  0
 27 53  1  0  0  0  0
 27 54  1  0  0  0  0
 27 55  1  0  0  0  0
M  END
> <s_m_source_file>
AV-unprocessed.smi

> <i_m_source_file_index>
281

> <i_lp_mmshare_version>
43012

> <i_f3d_flags>
0

> <s_epik_input>
W0NIM11bQ0BASF0xT1tDSDJdW0NIMl1bQ0BAXTEyW0NIMl1OKFtDSDJdW0NASF0oTzIpW0NIM10pYyhuW2NIXW4zKWMoYzM0KW5bY0hdbjRbQ0gyXVtDQEBdNShbT0hdKVtDSDJdW0NIMl1PW0NIMl01

> <s_epik_cmdline>
J2VwaWtfcHl0aG9uJywgJy1waCcsICc3LjAnLCAnLXRuJywgJzgnLCAnLW1hJywgJzIwMCcsICctbWV0YWxfYmluZGluZycsICctaW1hZScsICc8aW5maWxlLm1hZT4nLCAnLW9tYWUnLCAnPG91dGZpbGUubWFlPic=

> <r_lp_tautomer_probability>
1

> <r_epik_Ionization_Penalty>
0.00571331

> <r_epik_Ionization_Penalty_Charging>
0

> <r_epik_Ionization_Penalty_Neutral>
0.00571331

> <r_epik_State_Penalty>
0.00399586

> <r_epik_Charging_Adjusted_Penalty>
0.00399586

> <i_epik_Tot_Q>
0

> <i_epik_Tot_abs_Q>
0

> <r_epik_Metal_State_Penalty>
-0

> <b_epik_Metal_Only>
0

> <s_lp_Force_Field>
OPLS_2005

> <r_lp_Energy>
56.3854

> <b_lp_Chiralities_Consistent>
1

> <s_lp_Variant>
AV-unprocessed.smi:281-6

> <Gold.Version>
5.8.1

> <Gold.Id.Protein>
6NUR|6NUR_protein|mol2

> <Gold.PLP.Fitness>
44.3795

> <Gold.PLP.PLP>
-33.9617

> <Gold.PLP.part.hbond>
-3.2576

> <Gold.PLP.part.metal>
0.0000

> <Gold.PLP.part.buried>
-3.0731

> <Gold.PLP.part.nonpolar>
-27.8441

> <Gold.PLP.part.repulsive>
0.8493

> <Gold.PLP.ligand.clash>
0.0000

> <Gold.PLP.ligand.torsion>
0.6772

> <Gold.PLP.Chemscore.Hbond>
2.0107

> <Gold.PLP.Chemscore.CHOScore>
1.8724

> <Gold.PLP.Chemscore.Metal>
0.0000

> <Gold.Chemscore.Hbonds>
donor molecule, donor type, donor heavy atom, donor atom, acceptor molecule, acceptor atom, score
      L1  H    16    39       P1  7921  0.99
      P1  H  7989  7998       L1    25  1.00
      P1  H 10785 10796       L1    19  0.06
      L1  C     7    35       P1 10171  0.91
      L1  C     7    35       P1 10175  0.88

> <Gold.PLP.Chemscore.Internal.Correction>
0.1228

> <Gold.Rescore>
     Score         DG    S(hbond)    S(metal)    S(lipo)     H(rot)  DE(clash)    DE(int)     intcor
     15.68     -16.30       1.95        0.00      82.75       2.09       0.12       0.50       ----

> <Gold.Chemscore.Fitness>
15.6821

> <Gold.Chemscore.DG>
-16.3028

> <Gold.Chemscore.ZeroCoef>
-5.4800

> <Gold.Chemscore.Hbond>
1.9455

> <Gold.Chemscore.Metal>
0.0000

> <Gold.Chemscore.Lipo>
82.7544

> <Gold.Chemscore.Internal_Hbond>
0.0000

> <Gold.Chemscore.DEClash>
0.1202

> <Gold.Chemscore.DEInternal>
0.5005

> <Gold.Chemscore.Rot>
2.0927

> <Gold.Chemscore.Internal.Correction>
   9.000000E+99

> <Gold.Chemscore.Hbonds>
donor molecule, donor type, donor heavy atom, donor atom, acceptor molecule, acceptor atom, score
      L1  H    16    39       P1  7921  0.93
      P1  H  7989  7998       L1    25  0.71

> <Gold.Chemscore.Hbond.Weighted>
-6.4979

> <Gold.Chemscore.Metal.Weighted>
-0.0000

> <Gold.Chemscore.Lipo.Weighted>
-9.6823

> <Gold.Chemscore.Internal_Hbond.Weighted>
0.0000

> <Gold.Chemscore.DEClash.Weighted>
0.1202

> <Gold.Chemscore.DEInternal.Weighted>
0.5005

> <Gold.Chemscore.Rot.Weighted>
5.3573

> <Gold.Chemscore.Internal.Correction.Weighted>
   9.000000E+99

> <Gold.Protein.RotatedTorsions>
[ 6907 6896 6895 6894 ] final -109.35 input  -60.11 | X-H torsion
[ 7974 7965 7964 7962 ] final  -47.46 input  175.53 | X-H torsion
[ 8008 7997 7996 7995 ] final -108.43 input   59.86 | X-H torsion
[ 10167 10162 10161 10158 ] final  -17.56 input  -65.29 | X-H torsion
[ 10718 10713 10712 10709 ] final  -88.93 input   66.30 | X-H torsion
[ 10763 10752 10751 10750 ] final   46.12 input  -60.55 | X-H torsion
[ 11005 11000 10999 10996 ] final   68.78 input  -57.11 | X-H torsion

> <Gold.Protein.ActiveResidues>
 VAL166  LYS551  ARG553  GLY616  TRP617  ASP618  TYR619  PRO620  LYS621  CYS622 
 ASP623  PHE694  ASN695  SER759  ASP760  ASP761  ALA762  ILE779  LEU786  VAL792 
 PHE793  MET794  SER795  GLU796  ALA797  LYS798  CYS799  TRP800  GLU811  SER814 

> <Gold.Protein.RotatedAtoms>
  150.7556  133.9542  159.3495 H   0  0  0  0  0  0  0  0  0  0  0  0  # atno 6907 bound_to 6896
  151.7463  135.0841  160.0333 H   0  0  0  0  0  0  0  0  0  0  0  0  # atno 6908 bound_to 6896
  152.3496  133.6126  159.5971 H   0  0  0  0  0  0  0  0  0  0  0  0  # atno 6909 bound_to 6896
  145.9614  140.7476  142.9456 H   0  0  0  0  0  0  0  0  0  0  0  0  # atno 7974 bound_to 7965
  154.9441  140.0402  157.2111 H   0  0  0  0  0  0  0  0  0  0  0  0  # atno 8008 bound_to 7997
  154.8041  140.2856  155.5878 H   0  0  0  0  0  0  0  0  0  0  0  0  # atno 8009 bound_to 7997
  156.2964  140.2549  156.2915 H   0  0  0  0  0  0  0  0  0  0  0  0  # atno 8010 bound_to 7997
  140.7248  143.5004  150.9877 H   0  0  0  0  0  0  0  0  0  0  0  0  # atno 10167 bound_to 10162
  155.9984  130.4854  150.5094 H   0  0  0  0  0  0  0  0  0  0  0  0  # atno 10718 bound_to 10713
  152.9815  135.6018  154.3548 H   0  0  0  0  0  0  0  0  0  0  0  0  # atno 10763 bound_to 10752
  154.3234  135.2769  155.2510 H   0  0  0  0  0  0  0  0  0  0  0  0  # atno 10764 bound_to 10752
  154.4666  135.5952  153.6348 H   0  0  0  0  0  0  0  0  0  0  0  0  # atno 10765 bound_to 10752
  139.9692  134.6929  156.0482 H   0  0  0  0  0  0  0  0  0  0  0  0  # atno 11005 bound_to 11000
  144.6816  140.2597  143.7320 LP  0  0  0  0  0  0  0  0  0  0  0  0  # atno 17320 bound_to 7965
  145.8035  139.1974  143.2034 LP  0  0  0  0  0  0  0  0  0  0  0  0  # atno 17321 bound_to 7965
  139.8713  143.7189  152.3166 LP  0  0  0  0  0  0  0  0  0  0  0  0  # atno 17342 bound_to 10162
  139.7439  144.7552  151.0610 LP  0  0  0  0  0  0  0  0  0  0  0  0  # atno 17343 bound_to 10162
  157.3069  131.0656  151.2028 LP  0  0  0  0  0  0  0  0  0  0  0  0  # atno 17370 bound_to 10713
  157.2988  130.6832  149.6153 LP  0  0  0  0  0  0  0  0  0  0  0  0  # atno 17371 bound_to 10713
  141.1371  133.6572  156.3626 LP  0  0  0  0  0  0  0  0  0  0  0  0  # atno 17394 bound_to 11000
  140.5331  134.6194  157.5356 LP  0  0  0  0  0  0  0  0  0  0  0  0  # atno 17395 bound_to 11000

$$$$
