AV-unprocessed.smi:2017|AV-procd|sdf|8168|dock8
  -GOLD-   2272010413D 1   1.00000     0.00000
 Structure written by MMmdl.
 44 45  0  0  0  0  0  0  0  0  2 V2000
  155.5035  137.3866  164.2282 O   0  0  0  0  0  0  0  0  0  0  0  0
  154.4931  137.4872  163.5305 C   0  0  0  0  0  0  0  0  0  0  0  0
  153.2943  136.5534  163.7468 C   0  0  0  0  0  0  0  0  0  0  0  0
  153.6239  135.1354  163.5295 N   0  0  0  0  0  0  0  0  0  0  0  0
  153.1925  134.2078  164.4940 C   0  0  0  0  0  0  0  0  0  0  0  0
  153.4449  132.8904  164.3757 C   0  0  0  0  0  0  0  0  0  0  0  0
  154.1879  132.4323  163.2083 C   0  0  0  0  0  0  0  0  0  0  0  0
  154.4325  131.2336  163.0863 O   0  0  0  0  0  0  0  0  0  0  0  0
  154.5804  133.3704  162.2975 N   0  5  0  0  0  0  0  0  0  0  0  0
  154.3139  134.7070  162.4297 C   0  0  0  0  0  0  0  0  0  0  0  0
  154.6749  135.5365  161.5939 O   0  0  0  0  0  0  0  0  0  0  0  0
  154.3755  138.3768  162.5332 N   0  0  0  0  0  0  0  0  0  0  0  0
  155.3943  139.3479  162.1525 C   0  0  0  0  0  0  0  0  0  0  0  0
  155.0561  140.0287  160.8152 C   0  0  0  0  0  0  0  0  0  0  0  0
  154.1702  141.2679  160.9884 C   0  0  0  0  0  0  0  0  0  0  0  0
  153.7900  141.7528  159.7081 O   0  0  0  0  0  0  0  0  0  0  0  0
  153.4018  143.1204  159.6857 C   0  0  0  0  0  0  0  0  0  0  0  0
  152.2330  143.3796  160.6601 C   0  0  0  0  0  0  0  0  0  0  0  0
  151.7169  144.8235  160.5439 C   0  0  0  0  0  0  0  0  0  0  0  0
  151.3137  145.1595  159.0996 C   0  0  0  0  0  0  0  0  0  0  0  0
  152.4732  144.8998  158.1252 C   0  0  0  0  0  0  0  0  0  0  0  0
  152.9835  143.4546  158.2429 C   0  0  0  0  0  0  0  0  0  0  0  0
  152.8916  136.6945  164.7518 H   0  0  0  0  0  0  0  0  0  0  0  0
  152.4962  136.8660  163.0723 H   0  0  0  0  0  0  0  0  0  0  0  0
  152.6433  134.6286  165.3234 H   0  0  0  0  0  0  0  0  0  0  0  0
  153.1038  132.1902  165.1239 H   0  0  0  0  0  0  0  0  0  0  0  0
  153.5129  138.3888  162.0084 H   0  0  0  0  0  0  0  0  0  0  0  0
  155.4597  140.0937  162.9451 H   0  0  0  0  0  0  0  0  0  0  0  0
  156.3716  138.8650  162.1009 H   0  0  0  0  0  0  0  0  0  0  0  0
  155.9790  140.3273  160.3165 H   0  0  0  0  0  0  0  0  0  0  0  0
  154.5633  139.3190  160.1496 H   0  0  0  0  0  0  0  0  0  0  0  0
  153.2978  141.0171  161.5920 H   0  0  0  0  0  0  0  0  0  0  0  0
  154.7255  142.0402  161.5225 H   0  0  0  0  0  0  0  0  0  0  0  0
  154.2515  143.7526  159.9503 H   0  0  0  0  0  0  0  0  0  0  0  0
  151.4197  142.6845  160.4483 H   0  0  0  0  0  0  0  0  0  0  0  0
  152.5385  143.1921  161.6889 H   0  0  0  0  0  0  0  0  0  0  0  0
  150.8662  144.9687  161.2102 H   0  0  0  0  0  0  0  0  0  0  0  0
  152.4913  145.5155  160.8769 H   0  0  0  0  0  0  0  0  0  0  0  0
  150.4518  144.5564  158.8110 H   0  0  0  0  0  0  0  0  0  0  0  0
  150.9988  146.2013  159.0339 H   0  0  0  0  0  0  0  0  0  0  0  0
  152.1518  145.0990  157.1026 H   0  0  0  0  0  0  0  0  0  0  0  0
  153.2887  145.5935  158.3338 H   0  0  0  0  0  0  0  0  0  0  0  0
  153.8267  143.3052  157.5679 H   0  0  0  0  0  0  0  0  0  0  0  0
  152.2023  142.7661  157.9179 H   0  0  0  0  0  0  0  0  0  0  0  0
  1  2  2  0  0  0  0
  2  3  1  0  0  0  0
  2 12  1  0  0  0  0
  3  4  1  0  0  0  0
  3 23  1  0  0  0  0
  3 24  1  0  0  0  0
  4 10  1  0  0  0  0
  4  5  1  0  0  0  0
  5  6  2  0  0  0  0
  5 25  1  0  0  0  0
  6  7  1  0  0  0  0
  6 26  1  0  0  0  0
  7  8  2  0  0  0  0
  7  9  1  0  0  0  0
  9 10  1  0  0  0  0
 10 11  2  0  0  0  0
 12 13  1  0  0  0  0
 12 27  1  0  0  0  0
 13 14  1  0  0  0  0
 13 28  1  0  0  0  0
 13 29  1  0  0  0  0
 14 15  1  0  0  0  0
 14 30  1  0  0  0  0
 14 31  1  0  0  0  0
 15 16  1  0  0  0  0
 15 32  1  0  0  0  0
 15 33  1  0  0  0  0
 16 17  1  0  0  0  0
 17 22  1  0  0  0  0
 17 18  1  0  0  0  0
 17 34  1  0  0  0  0
 18 19  1  0  0  0  0
 18 35  1  0  0  0  0
 18 36  1  0  0  0  0
 19 20  1  0  0  0  0
 19 37  1  0  0  0  0
 19 38  1  0  0  0  0
 20 21  1  0  0  0  0
 20 39  1  0  0  0  0
 20 40  1  0  0  0  0
 21 22  1  0  0  0  0
 21 41  1  0  0  0  0
 21 42  1  0  0  0  0
 22 43  1  0  0  0  0
 22 44  1  0  0  0  0
M  CHG  1   9  -1
M  END
> <s_m_source_file>
AV-unprocessed.smi

> <i_m_source_file_index>
2017

> <i_lp_mmshare_version>
43012

> <i_f3d_flags>
0

> <s_epik_input>
Tz1jMVtuSF1jKD1PKVtjSF1bY0hdbjFbQ0gyXUMoPU8pW05IXVtDSDJdW0NIMl1bQ0gyXU9bQ0hdMltDSDJdW0NIMl1bQ0gyXVtDSDJdW0NIMl0y

> <s_epik_cmdline>
J2VwaWtfcHl0aG9uJywgJy1waCcsICc3LjAnLCAnLXRuJywgJzgnLCAnLW1hJywgJzIwMCcsICctbWV0YWxfYmluZGluZycsICctaW1hZScsICc8aW5maWxlLm1hZT4nLCAnLW9tYWUnLCAnPG91dGZpbGUubWFlPic=

> <r_lp_tautomer_probability>
0.999537

> <r_epik_Ionization_Penalty>
3.07707

> <r_epik_Ionization_Penalty_Charging>
2.73667e-08

> <r_epik_Ionization_Penalty_Neutral>
3.07707

> <r_epik_State_Penalty>
3.07611

> <r_epik_Charging_Adjusted_Penalty>
3.07611

> <i_epik_Tot_Q>
-1

> <i_epik_Tot_abs_Q>
1

> <r_epik_Metal_State_Penalty>
0.459703

> <b_epik_Metal_Only>
1

> <s_lp_Force_Field>
OPLS_2005

> <r_lp_Energy>
18.9634

> <b_lp_Chiralities_Consistent>
1

> <s_lp_Variant>
AV-unprocessed.smi:2017-2

> <Gold.Version>
5.8.1

> <Gold.Id.Protein>
6NUR|6NUR_protein|mol2

> <Gold.PLP.Fitness>
47.3241

> <Gold.PLP.PLP>
-48.2315

> <Gold.PLP.part.hbond>
0.0000

> <Gold.PLP.part.metal>
0.0000

> <Gold.PLP.part.buried>
-2.7985

> <Gold.PLP.part.nonpolar>
-45.5364

> <Gold.PLP.part.repulsive>
0.0261

> <Gold.PLP.ligand.clash>
0.0000

> <Gold.PLP.ligand.torsion>
0.4863

> <Gold.PLP.Chemscore.Hbond>
0.0000

> <Gold.PLP.Chemscore.CHOScore>
0.0000

> <Gold.PLP.Chemscore.Metal>
0.0000

> <Gold.PLP.Chemscore.Internal.Correction>
0.0651

> <Gold.Rescore>
     Score         DG    S(hbond)    S(metal)    S(lipo)     H(rot)  DE(clash)    DE(int)     intcor
     11.20     -13.19       0.00        0.00     124.01       2.66       0.15       1.84       ----

> <Gold.Chemscore.Fitness>
11.1975

> <Gold.Chemscore.DG>
-13.1868

> <Gold.Chemscore.ZeroCoef>
-5.4800

> <Gold.Chemscore.Hbond>
0.0000

> <Gold.Chemscore.Metal>
0.0000

> <Gold.Chemscore.Lipo>
124.0105

> <Gold.Chemscore.Internal_Hbond>
0.0000

> <Gold.Chemscore.DEClash>
0.1488

> <Gold.Chemscore.DEInternal>
1.8404

> <Gold.Chemscore.Rot>
2.6572

> <Gold.Chemscore.Internal.Correction>
   9.000000E+99

> <Gold.Chemscore.Hbond.Weighted>
-0.0000

> <Gold.Chemscore.Metal.Weighted>
-0.0000

> <Gold.Chemscore.Lipo.Weighted>
-14.5092

> <Gold.Chemscore.Internal_Hbond.Weighted>
0.0000

> <Gold.Chemscore.DEClash.Weighted>
0.1488

> <Gold.Chemscore.DEInternal.Weighted>
1.8404

> <Gold.Chemscore.Rot.Weighted>
6.8024

> <Gold.Chemscore.Internal.Correction.Weighted>
   9.000000E+99

> <Gold.Protein.RotatedTorsions>
[ 6907 6896 6895 6894 ] final   12.88 input  -60.11 | X-H torsion
[ 7974 7965 7964 7962 ] final -110.39 input  175.53 | X-H torsion
[ 8008 7997 7996 7995 ] final  129.94 input   59.86 | X-H torsion
[ 10167 10162 10161 10158 ] final  -83.92 input  -65.29 | X-H torsion
[ 10718 10713 10712 10709 ] final  144.56 input   66.30 | X-H torsion
[ 10763 10752 10751 10750 ] final  104.41 input  -60.55 | X-H torsion
[ 11005 11000 10999 10996 ] final   69.35 input  -57.11 | X-H torsion

> <Gold.Protein.ActiveResidues>
 VAL166  LYS551  ARG553  GLY616  TRP617  ASP618  TYR619  PRO620  LYS621  CYS622 
 ASP623  PHE694  ASN695  SER759  ASP760  ASP761  ALA762  ILE779  LEU786  VAL792 
 PHE793  MET794  SER795  GLU796  ALA797  LYS798  CYS799  TRP800  GLU811  SER814 

> <Gold.Protein.RotatedAtoms>
  151.7775  135.0770  160.0368 H   0  0  0  0  0  0  0  0  0  0  0  0  # atno 6907 bound_to 6896
  152.3246  133.5887  159.5776 H   0  0  0  0  0  0  0  0  0  0  0  0  # atno 6908 bound_to 6896
  150.7388  133.9875  159.3638 H   0  0  0  0  0  0  0  0  0  0  0  0  # atno 6909 bound_to 6896
  145.1688  140.8915  143.3547 H   0  0  0  0  0  0  0  0  0  0  0  0  # atno 7974 bound_to 7965
  156.2945  140.2608  156.2680 H   0  0  0  0  0  0  0  0  0  0  0  0  # atno 8008 bound_to 7997
  154.9723  140.0391  157.2258 H   0  0  0  0  0  0  0  0  0  0  0  0  # atno 8009 bound_to 7997
  154.7847  140.2801  155.6041 H   0  0  0  0  0  0  0  0  0  0  0  0  # atno 8010 bound_to 7997
  140.4181  143.2595  151.8927 H   0  0  0  0  0  0  0  0  0  0  0  0  # atno 10167 bound_to 10162
  157.3558  131.0957  151.0960 H   0  0  0  0  0  0  0  0  0  0  0  0  # atno 10718 bound_to 10713
  153.3656  135.3944  155.1751 H   0  0  0  0  0  0  0  0  0  0  0  0  # atno 10763 bound_to 10752
  154.8686  135.3690  154.5043 H   0  0  0  0  0  0  0  0  0  0  0  0  # atno 10764 bound_to 10752
  153.5506  135.7083  153.5653 H   0  0  0  0  0  0  0  0  0  0  0  0  # atno 10765 bound_to 10752
  139.9659  134.6982  156.0547 H   0  0  0  0  0  0  0  0  0  0  0  0  # atno 11005 bound_to 11000
  145.0254  139.3387  143.6051 LP  0  0  0  0  0  0  0  0  0  0  0  0  # atno 17320 bound_to 7965
  146.3471  139.9571  142.8722 LP  0  0  0  0  0  0  0  0  0  0  0  0  # atno 17321 bound_to 7965
  139.4782  144.5466  151.8449 LP  0  0  0  0  0  0  0  0  0  0  0  0  # atno 17342 bound_to 10162
  140.4564  144.1784  150.5902 LP  0  0  0  0  0  0  0  0  0  0  0  0  # atno 17343 bound_to 10162
  157.2118  130.6441  149.5777 LP  0  0  0  0  0  0  0  0  0  0  0  0  # atno 17370 bound_to 10713
  155.9729  130.4657  150.6264 LP  0  0  0  0  0  0  0  0  0  0  0  0  # atno 17371 bound_to 10713
  141.1338  133.6580  156.3537 LP  0  0  0  0  0  0  0  0  0  0  0  0  # atno 17394 bound_to 11000
  140.5398  134.6131  157.5376 LP  0  0  0  0  0  0  0  0  0  0  0  0  # atno 17395 bound_to 11000

$$$$
