AV-unprocessed.smi:3253|AV-procd|sdf|12449|dock10
  -GOLD-   2272018343D 1   1.00000     0.00000
 Structure written by MMmdl.
 36 37  0  0  0  0  0  0  0  0  1 V2000
  145.5686  142.0080  155.8067 C   0  0  0  0  0  0  0  0  0  0  0  0
  146.3109  142.2227  157.1391 C   0  0  2  0  0  0  0  0  0  0  0  0
  145.7801  143.4294  157.9381 C   0  0  0  0  0  0  0  0  0  0  0  0
  146.2126  143.4218  159.3230 N   0  0  0  0  0  0  0  0  0  0  0  0
  145.4721  143.0369  160.4333 C   0  0  0  0  0  0  0  0  0  0  0  0
  146.2910  143.2015  161.5277 C   0  0  0  0  0  0  0  0  0  0  0  0
  147.5296  143.6889  161.1175 N   0  0  0  0  0  0  0  0  0  0  0  0
  147.4072  143.7962  159.8010 C   0  0  0  0  0  0  0  0  0  0  0  0
  147.7402  142.4018  156.8989 N   0  0  0  0  0  0  0  0  0  0  0  0
  148.7080  141.5638  157.3026 C   0  0  0  0  0  0  0  0  0  0  0  0
  148.4864  140.5257  157.9268 O   0  0  0  0  0  0  0  0  0  0  0  0
  150.1496  141.9596  156.9463 C   0  0  2  0  0  0  0  0  0  0  0  0
  150.8839  140.8162  156.2167 C   0  0  0  0  0  0  0  0  0  0  0  0
  151.9530  140.3761  157.2030 C   0  0  0  0  0  0  0  0  0  0  0  0
  152.6854  139.4077  157.0067 O   0  0  0  0  0  0  0  0  0  0  0  0
  151.9667  141.1685  158.2782 N   0  0  0  0  0  0  0  0  0  0  0  0
  152.8524  141.0302  159.4263 C   0  0  0  0  0  0  0  0  0  0  0  0
  151.0065  142.2559  158.1973 C   0  0  0  0  0  0  0  0  0  0  0  0
  144.5096  141.8054  155.9673 H   0  0  0  0  0  0  0  0  0  0  0  0
  145.9768  141.1582  155.2587 H   0  0  0  0  0  0  0  0  0  0  0  0
  145.6459  142.8856  155.1646 H   0  0  0  0  0  0  0  0  0  0  0  0
  146.1730  141.3306  157.7534 H   0  0  0  0  0  0  0  0  0  0  0  0
  146.1182  144.3619  157.4837 H   0  0  0  0  0  0  0  0  0  0  0  0
  144.6894  143.4488  157.9167 H   0  0  0  0  0  0  0  0  0  0  0  0
  144.4542  142.6845  160.3556 H   0  0  0  0  0  0  0  0  0  0  0  0
  146.0854  143.0097  162.5706 H   0  0  0  0  0  0  0  0  0  0  0  0
  148.2065  144.1537  159.1683 H   0  0  0  0  0  0  0  0  0  0  0  0
  148.0151  143.2294  156.3899 H   0  0  0  0  0  0  0  0  0  0  0  0
  150.1268  142.8451  156.3083 H   0  0  0  0  0  0  0  0  0  0  0  0
  150.2384  139.9760  155.9537 H   0  0  0  0  0  0  0  0  0  0  0  0
  151.3580  141.1742  155.3023 H   0  0  0  0  0  0  0  0  0  0  0  0
  153.8962  141.0608  159.1121 H   0  0  0  0  0  0  0  0  0  0  0  0
  152.6730  140.0816  159.9336 H   0  0  0  0  0  0  0  0  0  0  0  0
  152.6930  141.8342  160.1456 H   0  0  0  0  0  0  0  0  0  0  0  0
  151.5401  143.2008  158.0864 H   0  0  0  0  0  0  0  0  0  0  0  0
  150.4187  142.3161  159.1153 H   0  0  0  0  0  0  0  0  0  0  0  0
  1  2  1  0  0  0  0
  1 19  1  0  0  0  0
  1 20  1  0  0  0  0
  1 21  1  0  0  0  0
  2  3  1  0  0  0  0
  2  9  1  0  0  0  0
  2 22  1  0  0  0  0
  3  4  1  0  0  0  0
  3 23  1  0  0  0  0
  3 24  1  0  0  0  0
  4  8  1  0  0  0  0
  4  5  1  0  0  0  0
  5  6  2  0  0  0  0
  5 25  1  0  0  0  0
  6  7  1  0  0  0  0
  6 26  1  0  0  0  0
  7  8  2  0  0  0  0
  8 27  1  0  0  0  0
  9 10  1  0  0  0  0
  9 28  1  0  0  0  0
 10 11  2  0  0  0  0
 10 12  1  0  0  0  0
 12 18  1  0  0  0  0
 12 13  1  0  0  0  0
 12 29  1  0  0  0  0
 13 14  1  0  0  0  0
 13 30  1  0  0  0  0
 13 31  1  0  0  0  0
 14 15  2  0  0  0  0
 14 16  1  0  0  0  0
 16 17  1  0  0  0  0
 16 18  1  0  0  0  0
 17 32  1  0  0  0  0
 17 33  1  0  0  0  0
 17 34  1  0  0  0  0
 18 35  1  0  0  0  0
 18 36  1  0  0  0  0
M  END
> <s_m_source_file>
AV-unprocessed.smi

> <i_m_source_file_index>
3253

> <i_lp_mmshare_version>
43012

> <i_f3d_flags>
0

> <s_epik_input>
W2NIXTFuW2NIXVtjSF1uMVtDSDJdW0NAQEhdKFtDSDNdKVtOSF1DKD1PKVtDQEBIXTJbQ0gyXUMoPU8pTihbQ0gzXSlbQ0gyXTI=

> <s_epik_cmdline>
J2VwaWtfcHl0aG9uJywgJy1waCcsICc3LjAnLCAnLXRuJywgJzgnLCAnLW1hJywgJzIwMCcsICctbWV0YWxfYmluZGluZycsICctaW1hZScsICc8aW5maWxlLm1hZT4nLCAnLW9tYWUnLCAnPG91dGZpbGUubWFlPic=

> <r_lp_tautomer_probability>
1

> <r_epik_Ionization_Penalty>
0.628884

> <r_epik_Ionization_Penalty_Charging>
0.628884

> <r_epik_Ionization_Penalty_Neutral>
2.35084e-08

> <r_epik_State_Penalty>
0.64556

> <r_epik_Charging_Adjusted_Penalty>
1.27444

> <i_epik_Tot_Q>
0

> <i_epik_Tot_abs_Q>
0

> <r_epik_Metal_State_Penalty>
0.308736

> <b_epik_Metal_Only>
0

> <s_lp_Force_Field>
OPLS_2005

> <r_lp_Energy>
13.4006

> <b_lp_Chiralities_Consistent>
1

> <s_lp_Variant>
AV-unprocessed.smi:3253-5

> <Gold.Version>
5.8.1

> <Gold.Id.Protein>
6NUR|6NUR_protein|mol2

> <Gold.PLP.Fitness>
38.9695

> <Gold.PLP.PLP>
-28.0559

> <Gold.PLP.part.hbond>
-3.7112

> <Gold.PLP.part.metal>
0.0000

> <Gold.PLP.part.buried>
-5.4323

> <Gold.PLP.part.nonpolar>
-19.5884

> <Gold.PLP.part.repulsive>
0.1125

> <Gold.PLP.ligand.clash>
0.0000

> <Gold.PLP.ligand.torsion>
0.4445

> <Gold.PLP.Chemscore.Hbond>
3.0000

> <Gold.PLP.Chemscore.CHOScore>
0.9215

> <Gold.PLP.Chemscore.Metal>
0.0000

> <Gold.Chemscore.Hbonds>
donor molecule, donor type, donor heavy atom, donor atom, acceptor molecule, acceptor atom, score
      L1  H     9    28       P1  8028  0.95
      P1  H  6933  6944       L1     7  1.00
      P1  H  7997  8010       L1    15  1.00
      L1  C     8    27       P1  8029  0.67

> <Gold.PLP.Chemscore.Internal.Correction>
0.0381

> <Gold.Rescore>
     Score         DG    S(hbond)    S(metal)    S(lipo)     H(rot)  DE(clash)    DE(int)     intcor
     13.27     -13.48       2.34        0.00      44.71       1.97       0.01       0.21       ----

> <Gold.Chemscore.Fitness>
13.2655

> <Gold.Chemscore.DG>
-13.4843

> <Gold.Chemscore.ZeroCoef>
-5.4800

> <Gold.Chemscore.Hbond>
2.3379

> <Gold.Chemscore.Metal>
0.0000

> <Gold.Chemscore.Lipo>
44.7091

> <Gold.Chemscore.Internal_Hbond>
0.0000

> <Gold.Chemscore.DEClash>
0.0126

> <Gold.Chemscore.DEInternal>
0.2061

> <Gold.Chemscore.Rot>
1.9669

> <Gold.Chemscore.Internal.Correction>
   9.000000E+99

> <Gold.Chemscore.Hbonds>
donor molecule, donor type, donor heavy atom, donor atom, acceptor molecule, acceptor atom, score
      L1  H     9    28       P1  8028  0.22
      P1  H  6933  6944       L1     7  0.18
      P1  H  7997  8010       L1    15  0.60

> <Gold.Chemscore.Hbond.Weighted>
-7.8085

> <Gold.Chemscore.Metal.Weighted>
-0.0000

> <Gold.Chemscore.Lipo.Weighted>
-5.2310

> <Gold.Chemscore.Internal_Hbond.Weighted>
0.0000

> <Gold.Chemscore.DEClash.Weighted>
0.0126

> <Gold.Chemscore.DEInternal.Weighted>
0.2061

> <Gold.Chemscore.Rot.Weighted>
5.0352

> <Gold.Chemscore.Internal.Correction.Weighted>
   9.000000E+99

> <Gold.Protein.RotatedTorsions>
[ 6907 6896 6895 6894 ] final   86.43 input  -60.11 | X-H torsion
[ 7974 7965 7964 7962 ] final   77.43 input  175.53 | X-H torsion
[ 8008 7997 7996 7995 ] final   61.53 input   59.86 | X-H torsion
[ 10167 10162 10161 10158 ] final  114.69 input  -65.29 | X-H torsion
[ 10718 10713 10712 10709 ] final  -81.15 input   66.30 | X-H torsion
[ 10763 10752 10751 10750 ] final   83.34 input  -60.55 | X-H torsion
[ 11005 11000 10999 10996 ] final -126.16 input  -57.11 | X-H torsion

> <Gold.Protein.ActiveResidues>
 VAL166  LYS551  ARG553  GLY616  TRP617  ASP618  TYR619  PRO620  LYS621  CYS622 
 ASP623  PHE694  ASN695  SER759  ASP760  ASP761  ALA762  ILE779  LEU786  VAL792 
 PHE793  MET794  SER795  GLU796  ALA797  LYS798  CYS799  TRP800  GLU811  SER814 

> <Gold.Protein.RotatedAtoms>
  152.5394  134.2432  159.8869 H   0  0  0  0  0  0  0  0  0  0  0  0  # atno 6907 bound_to 6896
  151.2398  133.4399  159.2614 H   0  0  0  0  0  0  0  0  0  0  0  0  # atno 6908 bound_to 6896
  151.0637  134.9767  159.8329 H   0  0  0  0  0  0  0  0  0  0  0  0  # atno 6909 bound_to 6896
  145.6901  139.2550  143.1765 H   0  0  0  0  0  0  0  0  0  0  0  0  # atno 7974 bound_to 7965
  155.5998  140.3494  155.4590 H   0  0  0  0  0  0  0  0  0  0  0  0  # atno 8008 bound_to 7997
  156.0237  140.1259  157.0355 H   0  0  0  0  0  0  0  0  0  0  0  0  # atno 8009 bound_to 7997
  154.4325  140.1057  156.5986 H   0  0  0  0  0  0  0  0  0  0  0  0  # atno 8010 bound_to 7997
  139.6371  144.7121  151.2313 H   0  0  0  0  0  0  0  0  0  0  0  0  # atno 10167 bound_to 10162
  156.0056  130.4595  150.3908 H   0  0  0  0  0  0  0  0  0  0  0  0  # atno 10718 bound_to 10713
  153.1283  135.4695  154.9307 H   0  0  0  0  0  0  0  0  0  0  0  0  # atno 10763 bound_to 10752
  154.7640  135.3139  154.8325 H   0  0  0  0  0  0  0  0  0  0  0  0  # atno 10764 bound_to 10752
  153.8873  135.6888  153.4817 H   0  0  0  0  0  0  0  0  0  0  0  0  # atno 10765 bound_to 10752
  140.9704  134.0813  157.3875 H   0  0  0  0  0  0  0  0  0  0  0  0  # atno 11005 bound_to 11000
  146.0889  140.7678  142.9605 LP  0  0  0  0  0  0  0  0  0  0  0  0  # atno 17320 bound_to 7965
  144.6999  140.3606  143.7164 LP  0  0  0  0  0  0  0  0  0  0  0  0  # atno 17321 bound_to 7965
  140.7471  143.6377  150.8363 LP  0  0  0  0  0  0  0  0  0  0  0  0  # atno 17342 bound_to 10162
  140.0010  143.5744  152.2875 LP  0  0  0  0  0  0  0  0  0  0  0  0  # atno 17343 bound_to 10162
  157.1983  131.0432  151.2664 LP  0  0  0  0  0  0  0  0  0  0  0  0  # atno 17370 bound_to 10713
  157.3999  130.7327  149.6759 LP  0  0  0  0  0  0  0  0  0  0  0  0  # atno 17371 bound_to 10713
  139.8910  135.0116  156.6768 LP  0  0  0  0  0  0  0  0  0  0  0  0  # atno 17394 bound_to 11000
  140.7337  133.9037  155.8229 LP  0  0  0  0  0  0  0  0  0  0  0  0  # atno 17395 bound_to 11000

$$$$
