AV-unprocessed.smi:2776|AV-procd|sdf|10706|dock9
  -GOLD-   2272015143D 1   1.00000     0.00000
 Structure written by MMmdl.
 26 27  0  0  0  0  0  0  0  0  2 V2000
  151.9163  139.6055  154.7265 O   0  0  0  0  0  0  0  0  0  0  0  0
  151.1956  139.1069  155.8375 C   0  0  2  0  0  0  0  0  0  0  0  0
  151.6946  139.7786  157.1337 C   0  0  0  0  0  0  0  0  0  0  0  0
  151.3553  141.2076  157.2030 N   0  0  0  0  0  0  0  0  0  0  0  0
  150.7347  141.9977  156.2853 C   0  0  0  0  0  0  0  0  0  0  0  0
  150.6492  143.2510  156.8113 N   0  3  0  0  0  0  0  0  0  0  0  0
  151.2250  143.2629  158.0837 C   0  0  0  0  0  0  0  0  0  0  0  0
  151.3788  144.2946  159.0042 C   0  0  0  0  0  0  0  0  0  0  0  0
  152.0182  143.9718  160.2193 C   0  0  0  0  0  0  0  0  0  0  0  0
  152.1943  144.9391  161.1502 F   0  0  0  0  0  0  0  0  0  0  0  0
  152.4775  142.6636  160.4817 C   0  0  0  0  0  0  0  0  0  0  0  0
  153.0886  142.3965  161.6601 F   0  0  0  0  0  0  0  0  0  0  0  0
  152.3143  141.6257  159.5407 C   0  0  0  0  0  0  0  0  0  0  0  0
  151.6808  141.9532  158.3426 C   0  0  0  0  0  0  0  0  0  0  0  0
  151.3208  137.5715  155.8717 C   0  0  0  0  0  0  0  0  0  0  0  0
  150.5216  137.0699  156.8135 F   0  0  0  0  0  0  0  0  0  0  0  0
  151.0067  137.0407  154.6894 F   0  0  0  0  0  0  0  0  0  0  0  0
  152.5749  137.2347  156.1720 F   0  0  0  0  0  0  0  0  0  0  0  0
  152.8403  139.5173  154.9067 H   0  0  0  0  0  0  0  0  0  0  0  0
  150.1471  139.3678  155.6871 H   0  0  0  0  0  0  0  0  0  0  0  0
  151.2370  139.3001  158.0001 H   0  0  0  0  0  0  0  0  0  0  0  0
  152.7714  139.6588  157.2544 H   0  0  0  0  0  0  0  0  0  0  0  0
  150.3755  141.6868  155.3147 H   0  0  0  0  0  0  0  0  0  0  0  0
  151.0302  145.2975  158.8068 H   0  0  0  0  0  0  0  0  0  0  0  0
  152.6753  140.6299  159.7510 H   0  0  0  0  0  0  0  0  0  0  0  0
  150.2293  144.0385  156.3338 H   0  0  0  0  0  0  0  0  0  0  0  0
  1  2  1  0  0  0  0
  1 19  1  0  0  0  0
  2  3  1  0  0  0  0
  2 15  1  0  0  0  0
  2 20  1  0  0  0  0
  3  4  1  0  0  0  0
  3 21  1  0  0  0  0
  3 22  1  0  0  0  0
  4 14  1  0  0  0  0
  4  5  1  0  0  0  0
  5  6  2  0  0  0  0
  5 23  1  0  0  0  0
  6  7  1  0  0  0  0
  6 26  1  0  0  0  0
  7 14  2  0  0  0  0
  7  8  1  0  0  0  0
  8  9  2  0  0  0  0
  8 24  1  0  0  0  0
  9 10  1  0  0  0  0
  9 11  1  0  0  0  0
 11 12  1  0  0  0  0
 11 13  2  0  0  0  0
 13 14  1  0  0  0  0
 13 25  1  0  0  0  0
 15 16  1  0  0  0  0
 15 17  1  0  0  0  0
 15 18  1  0  0  0  0
M  CHG  1   6   1
M  END
> <s_m_source_file>
AV-unprocessed.smi

> <i_m_source_file_index>
2776

> <i_lp_mmshare_version>
43012

> <i_f3d_flags>
0

> <s_epik_input>
RkMoRikoRilbQ0BIXShbT0hdKVtDSDJdbihbY0hdbjEpYyhjMTIpW2NIXWMoRiljKEYpW2NIXTI=

> <s_epik_cmdline>
J2VwaWtfcHl0aG9uJywgJy1waCcsICc3LjAnLCAnLXRuJywgJzgnLCAnLW1hJywgJzIwMCcsICctbWV0YWxfYmluZGluZycsICctaW1hZScsICc8aW5maWxlLm1hZT4nLCAnLW9tYWUnLCAnPG91dGZpbGUubWFlPic=

> <r_epik_Ionization_Penalty>
2.38424

> <r_epik_Ionization_Penalty_Charging>
2.37244

> <r_epik_Ionization_Penalty_Neutral>
0.0117937

> <r_epik_State_Penalty>
2.52832

> <r_epik_Charging_Adjusted_Penalty>
4.90076

> <i_epik_Tot_Q>
1

> <i_epik_Tot_abs_Q>
1

> <r_epik_Metal_State_Penalty>
6.61271

> <b_epik_Metal_Only>
0

> <s_lp_Force_Field>
OPLS_2005

> <r_lp_Energy>
13.8942

> <b_lp_Chiralities_Consistent>
1

> <s_lp_Variant>
AV-unprocessed.smi:2776-3

> <Gold.Version>
5.8.1

> <Gold.Id.Protein>
6NUR|6NUR_protein|mol2

> <Gold.PLP.Fitness>
45.8894

> <Gold.PLP.PLP>
-37.2090

> <Gold.PLP.part.hbond>
-2.0000

> <Gold.PLP.part.metal>
0.0000

> <Gold.PLP.part.buried>
-3.6020

> <Gold.PLP.part.nonpolar>
-32.4638

> <Gold.PLP.part.repulsive>
0.0346

> <Gold.PLP.ligand.clash>
0.0000

> <Gold.PLP.ligand.torsion>
0.1300

> <Gold.PLP.Chemscore.Hbond>
2.9760

> <Gold.PLP.Chemscore.CHOScore>
0.0000

> <Gold.PLP.Chemscore.Metal>
0.0000

> <Gold.Chemscore.Hbonds>
donor molecule, donor type, donor heavy atom, donor atom, acceptor molecule, acceptor atom, score
      L1  H     6    26       P1  8028  1.98
      P1  H  7989  7998       L1     1  0.96

> <Gold.PLP.Chemscore.Internal.Correction>
0.0122

> <Gold.Rescore>
     Score         DG    S(hbond)    S(metal)    S(lipo)     H(rot)  DE(clash)    DE(int)     intcor
     14.53     -14.98       1.78        0.00      76.74       2.12       0.28       0.17       ----

> <Gold.Chemscore.Fitness>
14.5285

> <Gold.Chemscore.DG>
-14.9820

> <Gold.Chemscore.ZeroCoef>
-5.4800

> <Gold.Chemscore.Hbond>
1.7794

> <Gold.Chemscore.Metal>
0.0000

> <Gold.Chemscore.Lipo>
76.7435

> <Gold.Chemscore.Internal_Hbond>
0.0000

> <Gold.Chemscore.DEClash>
0.2800

> <Gold.Chemscore.DEInternal>
0.1734

> <Gold.Chemscore.Rot>
2.1173

> <Gold.Chemscore.Internal.Correction>
   9.000000E+99

> <Gold.Chemscore.Hbonds>
donor molecule, donor type, donor heavy atom, donor atom, acceptor molecule, acceptor atom, score
      L1  H     6    26       P1  8028  0.94
      P1  H  7989  7998       L1     1  0.65

> <Gold.Chemscore.Hbond.Weighted>
-5.9432

> <Gold.Chemscore.Metal.Weighted>
-0.0000

> <Gold.Chemscore.Lipo.Weighted>
-8.9790

> <Gold.Chemscore.Internal_Hbond.Weighted>
0.0000

> <Gold.Chemscore.DEClash.Weighted>
0.2800

> <Gold.Chemscore.DEInternal.Weighted>
0.1734

> <Gold.Chemscore.Rot.Weighted>
5.4202

> <Gold.Chemscore.Internal.Correction.Weighted>
   9.000000E+99

> <Gold.Protein.RotatedTorsions>
[ 6907 6896 6895 6894 ] final  -12.60 input  -60.11 | X-H torsion
[ 7974 7965 7964 7962 ] final  106.37 input  175.53 | X-H torsion
[ 8008 7997 7996 7995 ] final    6.71 input   59.86 | X-H torsion
[ 10167 10162 10161 10158 ] final   14.83 input  -65.29 | X-H torsion
[ 10718 10713 10712 10709 ] final -109.17 input   66.30 | X-H torsion
[ 10763 10752 10751 10750 ] final -128.07 input  -60.55 | X-H torsion
[ 11005 11000 10999 10996 ] final   38.10 input  -57.11 | X-H torsion

> <Gold.Protein.ActiveResidues>
 VAL166  LYS551  ARG553  GLY616  TRP617  ASP618  TYR619  PRO620  LYS621  CYS622 
 ASP623  PHE694  ASN695  SER759  ASP760  ASP761  ALA762  ILE779  LEU786  VAL792 
 PHE793  MET794  SER795  GLU796  ALA797  LYS798  CYS799  TRP800  GLU811  SER814 

> <Gold.Protein.RotatedAtoms>
  151.3681  135.0917  159.9456 H   0  0  0  0  0  0  0  0  0  0  0  0  # atno 6907 bound_to 6896
  152.5143  133.9192  159.7536 H   0  0  0  0  0  0  0  0  0  0  0  0  # atno 6908 bound_to 6896
  150.9600  133.6401  159.2785 H   0  0  0  0  0  0  0  0  0  0  0  0  # atno 6909 bound_to 6896
  145.3075  139.2550  143.3780 H   0  0  0  0  0  0  0  0  0  0  0  0  # atno 7974 bound_to 7965
  154.7444  140.2755  155.6345 H   0  0  0  0  0  0  0  0  0  0  0  0  # atno 8008 bound_to 7997
  156.2881  140.2690  156.2107 H   0  0  0  0  0  0  0  0  0  0  0  0  # atno 8009 bound_to 7997
  155.0216  140.0371  157.2429 H   0  0  0  0  0  0  0  0  0  0  0  0  # atno 8010 bound_to 7997
  140.5909  143.8797  150.6873 H   0  0  0  0  0  0  0  0  0  0  0  0  # atno 10167 bound_to 10162
  156.0523  130.5750  150.8063 H   0  0  0  0  0  0  0  0  0  0  0  0  # atno 10718 bound_to 10713
  154.8755  135.3940  154.3697 H   0  0  0  0  0  0  0  0  0  0  0  0  # atno 10763 bound_to 10752
  153.4458  135.7027  153.6145 H   0  0  0  0  0  0  0  0  0  0  0  0  # atno 10764 bound_to 10752
  153.4706  135.3791  155.2358 H   0  0  0  0  0  0  0  0  0  0  0  0  # atno 10765 bound_to 10752
  140.2159  134.3699  155.8027 H   0  0  0  0  0  0  0  0  0  0  0  0  # atno 11005 bound_to 11000
  146.3130  140.3604  142.8664 LP  0  0  0  0  0  0  0  0  0  0  0  0  # atno 17320 bound_to 7965
  144.9042  140.7680  143.5848 LP  0  0  0  0  0  0  0  0  0  0  0  0  # atno 17321 bound_to 7965
  140.2320  143.3729  152.1558 LP  0  0  0  0  0  0  0  0  0  0  0  0  # atno 17342 bound_to 10162
  139.5227  144.7062  151.5347 LP  0  0  0  0  0  0  0  0  0  0  0  0  # atno 17343 bound_to 10162
  157.5461  131.0942  150.9760 LP  0  0  0  0  0  0  0  0  0  0  0  0  # atno 17370 bound_to 10713
  157.0031  130.5607  149.5313 LP  0  0  0  0  0  0  0  0  0  0  0  0  # atno 17371 bound_to 10713
  141.2225  133.7168  156.8496 LP  0  0  0  0  0  0  0  0  0  0  0  0  # atno 17394 bound_to 11000
  140.1901  134.8972  157.3050 LP  0  0  0  0  0  0  0  0  0  0  0  0  # atno 17395 bound_to 11000

$$$$
