AV-unprocessed.smi:2342|AV-procd|sdf|9355|dock7
  -GOLD-   2272012573D 1   1.00000     0.00000
 Structure written by MMmdl.
 38 38  0  0  0  0  0  0  0  0  2 V2000
  150.0704  141.2774  156.8732 C   0  0  0  0  0  0  0  0  0  0  0  0
  151.3838  140.4713  156.9618 C   0  0  1  0  0  0  0  0  0  0  0  0
  151.3134  139.3196  157.9971 C   0  0  0  0  0  0  0  0  0  0  0  0
  150.4648  138.2242  157.5424 N   0  0  0  0  0  0  0  0  0  0  0  0
  150.1483  137.1344  158.2585 C   0  0  0  0  0  0  0  0  0  0  0  0
  150.6197  136.8871  159.3684 O   0  0  0  0  0  0  0  0  0  0  0  0
  149.1240  136.1873  157.6316 C   0  0  0  0  0  0  0  0  0  0  0  0
  148.7029  135.1560  158.6387 C   0  0  0  0  0  0  0  0  0  0  0  0
  148.9867  133.8140  158.6121 C   0  0  0  0  0  0  0  0  0  0  0  0
  148.3413  132.9874  160.0017 S   0  0  0  0  0  0  0  0  0  0  0  0
  147.6845  134.5211  160.5854 C   0  0  0  0  0  0  0  0  0  0  0  0
  146.9245  134.7040  161.8769 C   0  0  0  0  0  0  0  0  0  0  0  0
  145.5540  135.3466  161.5872 C   0  0  0  0  0  0  0  0  0  0  0  0
  147.6830  135.6350  162.8472 C   0  0  0  0  0  0  0  0  0  0  0  0
  146.7493  133.3437  162.5795 C   0  0  0  0  0  0  0  0  0  0  0  0
  147.9516  135.5358  159.7557 N   0  0  0  0  0  0  0  0  0  0  0  0
  151.7871  139.9670  155.5621 C   0  0  0  0  0  0  0  0  0  0  0  0
  152.9527  139.5449  155.3902 O   0  0  0  0  0  0  0  0  0  0  0  0
  150.9117  140.0174  154.6698 O   0  5  0  0  0  0  0  0  0  0  0  0
  150.1193  142.0565  156.1119 H   0  0  0  0  0  0  0  0  0  0  0  0
  149.8509  141.7770  157.8165 H   0  0  0  0  0  0  0  0  0  0  0  0
  149.2242  140.6321  156.6362 H   0  0  0  0  0  0  0  0  0  0  0  0
  152.1728  141.1575  157.2725 H   0  0  0  0  0  0  0  0  0  0  0  0
  152.3086  138.9088  158.1717 H   0  0  0  0  0  0  0  0  0  0  0  0
  150.9541  139.6840  158.9613 H   0  0  0  0  0  0  0  0  0  0  0  0
  150.0258  138.3379  156.6403 H   0  0  0  0  0  0  0  0  0  0  0  0
  148.2670  136.7633  157.2797 H   0  0  0  0  0  0  0  0  0  0  0  0
  149.5600  135.7117  156.7522 H   0  0  0  0  0  0  0  0  0  0  0  0
  149.5483  133.2670  157.8692 H   0  0  0  0  0  0  0  0  0  0  0  0
  144.9837  135.4999  162.5041 H   0  0  0  0  0  0  0  0  0  0  0  0
  144.9491  134.7209  160.9296 H   0  0  0  0  0  0  0  0  0  0  0  0
  145.6657  136.3174  161.1028 H   0  0  0  0  0  0  0  0  0  0  0  0
  147.8278  136.6290  162.4218 H   0  0  0  0  0  0  0  0  0  0  0  0
  148.6651  135.2355  163.1028 H   0  0  0  0  0  0  0  0  0  0  0  0
  147.1354  135.7637  163.7817 H   0  0  0  0  0  0  0  0  0  0  0  0
  146.2167  133.4500  163.5251 H   0  0  0  0  0  0  0  0  0  0  0  0
  147.7135  132.8811  162.7941 H   0  0  0  0  0  0  0  0  0  0  0  0
  146.1801  132.6461  161.9642 H   0  0  0  0  0  0  0  0  0  0  0  0
  1  2  1  0  0  0  0
  1 20  1  0  0  0  0
  1 21  1  0  0  0  0
  1 22  1  0  0  0  0
  2  3  1  0  0  0  0
  2 17  1  0  0  0  0
  2 23  1  0  0  0  0
  3  4  1  0  0  0  0
  3 24  1  0  0  0  0
  3 25  1  0  0  0  0
  4  5  1  0  0  0  0
  4 26  1  0  0  0  0
  5  6  2  0  0  0  0
  5  7  1  0  0  0  0
  7  8  1  0  0  0  0
  7 27  1  0  0  0  0
  7 28  1  0  0  0  0
  8 16  1  0  0  0  0
  8  9  2  0  0  0  0
  9 10  1  0  0  0  0
  9 29  1  0  0  0  0
 10 11  1  0  0  0  0
 11 12  1  0  0  0  0
 11 16  2  0  0  0  0
 12 13  1  0  0  0  0
 12 14  1  0  0  0  0
 12 15  1  0  0  0  0
 13 30  1  0  0  0  0
 13 31  1  0  0  0  0
 13 32  1  0  0  0  0
 14 33  1  0  0  0  0
 14 34  1  0  0  0  0
 14 35  1  0  0  0  0
 15 36  1  0  0  0  0
 15 37  1  0  0  0  0
 15 38  1  0  0  0  0
 17 18  2  0  0  0  0
 17 19  1  0  0  0  0
M  CHG  1  19  -1
M  END
> <s_m_source_file>
AV-unprocessed.smi

> <i_m_source_file_index>
2342

> <i_lp_mmshare_version>
43012

> <i_f3d_flags>
0

> <s_epik_input>
Tz1DKFtPSF0pW0NASF0oW0NIM10pW0NIMl1bTkhdQyg9TylbQ0gyXWMxW2NIXXNjKG4xKUMoW0NIM10pKFtDSDNdKVtDSDNd

> <s_epik_cmdline>
J2VwaWtfcHl0aG9uJywgJy1waCcsICc3LjAnLCAnLXRuJywgJzgnLCAnLW1hJywgJzIwMCcsICctbWV0YWxfYmluZGluZycsICctaW1hZScsICc8aW5maWxlLm1hZT4nLCAnLW9tYWUnLCAnPG91dGZpbGUubWFlPic=

> <r_epik_Ionization_Penalty>
0.00120065

> <r_epik_Ionization_Penalty_Charging>
0.00115909

> <r_epik_Ionization_Penalty_Neutral>
4.15663e-05

> <r_epik_State_Penalty>
0.00076313

> <r_epik_Charging_Adjusted_Penalty>
0.00192222

> <i_epik_Tot_Q>
-1

> <i_epik_Tot_abs_Q>
1

> <r_epik_Metal_State_Penalty>
-0

> <b_epik_Metal_Only>
0

> <s_lp_Force_Field>
OPLS_2005

> <r_lp_Energy>
-2.08659

> <b_lp_Chiralities_Consistent>
1

> <s_lp_Variant>
AV-unprocessed.smi:2342-2

> <Gold.Version>
5.8.1

> <Gold.Id.Protein>
6NUR|6NUR_protein|mol2

> <Gold.PLP.Fitness>
43.1735

> <Gold.PLP.PLP>
-32.1000

> <Gold.PLP.part.hbond>
-2.9612

> <Gold.PLP.part.metal>
0.0000

> <Gold.PLP.part.buried>
-4.0524

> <Gold.PLP.part.nonpolar>
-25.4923

> <Gold.PLP.part.repulsive>
0.1014

> <Gold.PLP.ligand.clash>
0.0000

> <Gold.PLP.ligand.torsion>
0.4935

> <Gold.PLP.Chemscore.Hbond>
3.9913

> <Gold.PLP.Chemscore.CHOScore>
0.0000

> <Gold.PLP.Chemscore.Metal>
0.0000

> <Gold.Chemscore.Hbonds>
donor molecule, donor type, donor heavy atom, donor atom, acceptor molecule, acceptor atom, score
      P1  H  6896  6908       L1     6  1.00
      P1  H  7989  7998       L1    19  1.00
      P1  H  7997  8010       L1    18  2.00

> <Gold.PLP.Chemscore.Internal.Correction>
0.0868

> <Gold.Rescore>
     Score         DG    S(hbond)    S(metal)    S(lipo)     H(rot)  DE(clash)    DE(int)     intcor
     14.45     -15.50       2.57        0.00      64.29       2.38       0.02       1.03       ----

> <Gold.Chemscore.Fitness>
14.4503

> <Gold.Chemscore.DG>
-15.4976

> <Gold.Chemscore.ZeroCoef>
-5.4800

> <Gold.Chemscore.Hbond>
2.5723

> <Gold.Chemscore.Metal>
0.0000

> <Gold.Chemscore.Lipo>
64.2896

> <Gold.Chemscore.Internal_Hbond>
0.0000

> <Gold.Chemscore.DEClash>
0.0222

> <Gold.Chemscore.DEInternal>
1.0251

> <Gold.Chemscore.Rot>
2.3812

> <Gold.Chemscore.Internal.Correction>
   9.000000E+99

> <Gold.Chemscore.Hbonds>
donor molecule, donor type, donor heavy atom, donor atom, acceptor molecule, acceptor atom, score
      P1  H  6896  6908       L1     6  0.97
      P1  H  7989  7998       L1    19  0.39
      P1  H  7997  8010       L1    18  0.96

> <Gold.Chemscore.Hbond.Weighted>
-8.5916

> <Gold.Chemscore.Metal.Weighted>
-0.0000

> <Gold.Chemscore.Lipo.Weighted>
-7.5219

> <Gold.Chemscore.Internal_Hbond.Weighted>
0.0000

> <Gold.Chemscore.DEClash.Weighted>
0.0222

> <Gold.Chemscore.DEInternal.Weighted>
1.0251

> <Gold.Chemscore.Rot.Weighted>
6.0959

> <Gold.Chemscore.Internal.Correction.Weighted>
   9.000000E+99

> <Gold.Protein.RotatedTorsions>
[ 6907 6896 6895 6894 ] final -150.10 input  -60.11 | X-H torsion
[ 7974 7965 7964 7962 ] final  -79.47 input  175.53 | X-H torsion
[ 8008 7997 7996 7995 ] final  115.50 input   59.86 | X-H torsion
[ 10167 10162 10161 10158 ] final  -24.66 input  -65.29 | X-H torsion
[ 10718 10713 10712 10709 ] final   73.50 input   66.30 | X-H torsion
[ 10763 10752 10751 10750 ] final  141.17 input  -60.55 | X-H torsion
[ 11005 11000 10999 10996 ] final -166.84 input  -57.11 | X-H torsion

> <Gold.Protein.ActiveResidues>
 VAL166  LYS551  ARG553  GLY616  TRP617  ASP618  TYR619  PRO620  LYS621  CYS622 
 ASP623  PHE694  ASN695  SER759  ASP760  ASP761  ALA762  ILE779  LEU786  VAL792 
 PHE793  MET794  SER795  GLU796  ALA797  LYS798  CYS799  TRP800  GLU811  SER814 

> <Gold.Protein.RotatedAtoms>
  151.1937  133.4652  159.2594 H   0  0  0  0  0  0  0  0  0  0  0  0  # atno 6907 bound_to 6896
  151.1138  135.0041  159.8516 H   0  0  0  0  0  0  0  0  0  0  0  0  # atno 6908 bound_to 6896
  152.5452  134.1854  159.8705 H   0  0  0  0  0  0  0  0  0  0  0  0  # atno 6909 bound_to 6896
  145.5727  140.9463  143.1386 H   0  0  0  0  0  0  0  0  0  0  0  0  # atno 7974 bound_to 7965
  156.2385  140.2937  156.0379 H   0  0  0  0  0  0  0  0  0  0  0  0  # atno 8008 bound_to 7997
  155.2021  140.0410  157.2936 H   0  0  0  0  0  0  0  0  0  0  0  0  # atno 8009 bound_to 7997
  154.6123  140.2455  155.7660 H   0  0  0  0  0  0  0  0  0  0  0  0  # atno 8010 bound_to 7997
  140.7288  143.4333  151.0768 H   0  0  0  0  0  0  0  0  0  0  0  0  # atno 10167 bound_to 10162
  157.6551  130.9632  150.1079 H   0  0  0  0  0  0  0  0  0  0  0  0  # atno 10718 bound_to 10713
  153.9348  135.2986  155.3444 H   0  0  0  0  0  0  0  0  0  0  0  0  # atno 10763 bound_to 10752
  154.7508  135.4981  153.9288 H   0  0  0  0  0  0  0  0  0  0  0  0  # atno 10764 bound_to 10752
  153.1073  135.6750  153.9669 H   0  0  0  0  0  0  0  0  0  0  0  0  # atno 10765 bound_to 10752
  140.5600  134.5343  157.5141 H   0  0  0  0  0  0  0  0  0  0  0  0  # atno 11005 bound_to 11000
  144.7430  139.7396  143.7303 LP  0  0  0  0  0  0  0  0  0  0  0  0  # atno 17320 bound_to 7965
  146.1772  139.4948  142.9889 LP  0  0  0  0  0  0  0  0  0  0  0  0  # atno 17321 bound_to 7965
  139.7992  143.8107  152.3161 LP  0  0  0  0  0  0  0  0  0  0  0  0  # atno 17342 bound_to 10162
  139.8118  144.7332  150.9687 LP  0  0  0  0  0  0  0  0  0  0  0  0  # atno 17343 bound_to 10162
  156.1983  130.3658  149.8820 LP  0  0  0  0  0  0  0  0  0  0  0  0  # atno 17370 bound_to 10713
  156.6730  130.8828  151.3565 LP  0  0  0  0  0  0  0  0  0  0  0  0  # atno 17371 bound_to 10713
  139.9413  134.7783  156.0673 LP  0  0  0  0  0  0  0  0  0  0  0  0  # atno 17394 bound_to 11000
  141.1120  133.6640  156.3002 LP  0  0  0  0  0  0  0  0  0  0  0  0  # atno 17395 bound_to 11000

$$$$
