AV-unprocessed.smi:2047|AV-procd|sdf|8319|dock9
  -GOLD-   2272010583D 1   1.00000     0.00000
 Structure written by MMmdl.
 42 44  0  0  0  0  0  0  0  0  3 V2000
  147.8349  132.8830  152.9026 O   0  0  0  0  0  0  0  0  0  0  0  0
  146.9647  133.5580  153.4645 C   0  0  0  0  0  0  0  0  0  0  0  0
  145.8012  133.8175  152.8440 N   0  0  0  0  0  0  0  0  0  0  0  0
  145.3690  133.4139  151.5492 C   0  0  0  0  0  0  0  0  0  0  0  0
  146.0577  132.4227  150.8054 C   0  0  0  0  0  0  0  0  0  0  0  0
  145.5973  132.0637  149.5241 C   0  0  0  0  0  0  0  0  0  0  0  0
  144.4625  132.7092  149.0018 C   0  0  0  0  0  0  0  0  0  0  0  0
  143.8415  133.6626  149.7271 N   0  3  0  0  0  0  0  0  0  0  0  0
  144.2389  134.0486  150.9652 C   0  0  0  0  0  0  0  0  0  0  0  0
  143.5284  135.0772  151.6206 N   0  0  0  0  0  0  0  0  0  0  0  0
  142.6397  134.6140  152.6836 C   0  0  0  0  0  0  0  0  0  0  0  0
  142.7030  135.6663  153.7932 C   0  0  0  0  0  0  0  0  0  0  0  0
  144.0754  136.2980  153.5960 C   0  0  0  0  0  0  0  0  0  0  0  0
  144.2326  136.2740  152.0772 C   0  0  0  0  0  0  0  0  0  0  0  0
  147.0076  134.1010  154.7103 N   0  5  0  0  0  0  0  0  0  0  0  0
  148.0667  133.8592  155.6941 C   0  0  2  0  0  0  0  0  0  0  0  0
  149.4285  134.3502  155.1642 C   0  0  0  0  0  0  0  0  0  0  0  0
  150.5394  133.7675  156.0494 C   0  0  0  0  0  0  0  0  0  0  0  0
  149.9247  132.1313  156.6074 S   0  0  0  0  0  0  0  0  0  0  0  0
  150.5695  131.0691  155.8196 O   0  0  0  0  0  0  0  0  0  0  0  0
  149.9390  132.0909  158.0782 O   0  0  0  0  0  0  0  0  0  0  0  0
  148.2038  132.3612  156.0094 C   0  0  0  0  0  0  0  0  0  0  0  0
  145.1067  134.2788  153.4127 H   0  0  0  0  0  0  0  0  0  0  0  0
  146.9410  131.9402  151.1957 H   0  0  0  0  0  0  0  0  0  0  0  0
  146.1117  131.3073  148.9498 H   0  0  0  0  0  0  0  0  0  0  0  0
  144.0409  132.5011  148.0291 H   0  0  0  0  0  0  0  0  0  0  0  0
  141.6201  134.4876  152.3189 H   0  0  0  0  0  0  0  0  0  0  0  0
  142.9809  133.6496  153.0641 H   0  0  0  0  0  0  0  0  0  0  0  0
  141.9269  136.4168  153.6360 H   0  0  0  0  0  0  0  0  0  0  0  0
  142.5658  135.2424  154.7882 H   0  0  0  0  0  0  0  0  0  0  0  0
  144.1495  137.3015  154.0157 H   0  0  0  0  0  0  0  0  0  0  0  0
  144.8419  135.6763  154.0608 H   0  0  0  0  0  0  0  0  0  0  0  0
  145.2789  136.3311  151.7782 H   0  0  0  0  0  0  0  0  0  0  0  0
  143.7322  137.1384  151.6395 H   0  0  0  0  0  0  0  0  0  0  0  0
  147.8802  134.3836  156.6328 H   0  0  0  0  0  0  0  0  0  0  0  0
  149.5731  133.9903  154.1443 H   0  0  0  0  0  0  0  0  0  0  0  0
  149.4798  135.4388  155.1277 H   0  0  0  0  0  0  0  0  0  0  0  0
  151.4844  133.6533  155.5188 H   0  0  0  0  0  0  0  0  0  0  0  0
  150.7103  134.3866  156.9314 H   0  0  0  0  0  0  0  0  0  0  0  0
  147.4935  132.0203  156.7626 H   0  0  0  0  0  0  0  0  0  0  0  0
  148.0806  131.7528  155.1128 H   0  0  0  0  0  0  0  0  0  0  0  0
  143.0287  134.1233  149.3181 H   0  0  0  0  0  0  0  0  0  0  0  0
  1  2  2  0  0  0  0
  2  3  1  0  0  0  0
  2 15  1  0  0  0  0
  3  4  1  0  0  0  0
  3 23  1  0  0  0  0
  4  9  1  0  0  0  0
  4  5  2  0  0  0  0
  5  6  1  0  0  0  0
  5 24  1  0  0  0  0
  6  7  2  0  0  0  0
  6 25  1  0  0  0  0
  7  8  1  0  0  0  0
  7 26  1  0  0  0  0
  8  9  2  0  0  0  0
  8 42  1  0  0  0  0
  9 10  1  0  0  0  0
 10 14  1  0  0  0  0
 10 11  1  0  0  0  0
 11 12  1  0  0  0  0
 11 27  1  0  0  0  0
 11 28  1  0  0  0  0
 12 13  1  0  0  0  0
 12 29  1  0  0  0  0
 12 30  1  0  0  0  0
 13 14  1  0  0  0  0
 13 31  1  0  0  0  0
 13 32  1  0  0  0  0
 14 33  1  0  0  0  0
 14 34  1  0  0  0  0
 15 16  1  0  0  0  0
 16 22  1  0  0  0  0
 16 17  1  0  0  0  0
 16 35  1  0  0  0  0
 17 18  1  0  0  0  0
 17 36  1  0  0  0  0
 17 37  1  0  0  0  0
 18 19  1  0  0  0  0
 18 38  1  0  0  0  0
 18 39  1  0  0  0  0
 19 20  2  0  0  0  0
 19 21  2  0  0  0  0
 19 22  1  0  0  0  0
 22 40  1  0  0  0  0
 22 41  1  0  0  0  0
M  CHG  1   8   1
M  CHG  1  15  -1
M  END
> <s_m_source_file>
AV-unprocessed.smi

> <i_m_source_file_index>
2047

> <i_lp_mmshare_version>
43012

> <i_f3d_flags>
0

> <s_epik_input>
Tz1TMSg9TylbQ0gyXVtDSDJdW0NASF0oW0NIMl0xKVtOSF1DKD1PKVtOSF1jMltjSF1bY0hdW2NIXW5jMk4zW0NIMl1bQ0gyXVtDSDJdW0NIMl0z

> <s_epik_cmdline>
J2VwaWtfcHl0aG9uJywgJy1waCcsICc3LjAnLCAnLXRuJywgJzgnLCAnLW1hJywgJzIwMCcsICctbWV0YWxfYmluZGluZycsICctaW1hZScsICc8aW5maWxlLm1hZT4nLCAnLW9tYWUnLCAnPG91dGZpbGUubWFlPic=

> <r_lp_tautomer_probability>
0.999994

> <r_epik_Ionization_Penalty>
8.27033

> <r_epik_Ionization_Penalty_Charging>
8.27033

> <r_epik_Ionization_Penalty_Neutral>
3.23223e-06

> <r_epik_State_Penalty>
7.90314

> <r_epik_Charging_Adjusted_Penalty>
16.1735

> <i_epik_Tot_Q>
0

> <i_epik_Tot_abs_Q>
2

> <r_epik_Metal_State_Penalty>
3.89381

> <b_epik_Metal_Only>
1

> <s_lp_Force_Field>
OPLS_2005

> <r_lp_Energy>
38.7939

> <b_lp_Chiralities_Consistent>
1

> <s_lp_Variant>
AV-unprocessed.smi:2047-5

> <Gold.Version>
5.8.1

> <Gold.Id.Protein>
6NUR|6NUR_protein|mol2

> <Gold.PLP.Fitness>
39.6856

> <Gold.PLP.PLP>
-31.0933

> <Gold.PLP.part.hbond>
-2.0000

> <Gold.PLP.part.metal>
0.0000

> <Gold.PLP.part.buried>
-5.6201

> <Gold.PLP.part.nonpolar>
-23.3589

> <Gold.PLP.part.repulsive>
0.5428

> <Gold.PLP.ligand.clash>
0.0000

> <Gold.PLP.ligand.torsion>
0.2846

> <Gold.PLP.Chemscore.Hbond>
3.0000

> <Gold.PLP.Chemscore.CHOScore>
0.0000

> <Gold.PLP.Chemscore.Metal>
0.0000

> <Gold.Chemscore.Hbonds>
donor molecule, donor type, donor heavy atom, donor atom, acceptor molecule, acceptor atom, score
      L1  H     8    42       P1 10186  1.69
      P1  H  6896  6908       L1    21  0.76

> <Gold.PLP.Chemscore.Internal.Correction>
0.1616

> <Gold.Rescore>
     Score         DG    S(hbond)    S(metal)    S(lipo)     H(rot)  DE(clash)    DE(int)     intcor
     16.06     -17.73       1.99        0.00      75.29       1.25       0.12       1.55       ----

> <Gold.Chemscore.Fitness>
16.0649

> <Gold.Chemscore.DG>
-17.7284

> <Gold.Chemscore.ZeroCoef>
-5.4800

> <Gold.Chemscore.Hbond>
1.9864

> <Gold.Chemscore.Metal>
0.0000

> <Gold.Chemscore.Lipo>
75.2891

> <Gold.Chemscore.Internal_Hbond>
0.0000

> <Gold.Chemscore.DEClash>
0.1153

> <Gold.Chemscore.DEInternal>
1.5481

> <Gold.Chemscore.Rot>
1.2480

> <Gold.Chemscore.Internal.Correction>
   9.000000E+99

> <Gold.Chemscore.Hbonds>
donor molecule, donor type, donor heavy atom, donor atom, acceptor molecule, acceptor atom, score
      L1  H     8    42       P1 10186  0.78
      P1  H  6896  6908       L1    21  0.76

> <Gold.Chemscore.Hbond.Weighted>
-6.6344

> <Gold.Chemscore.Metal.Weighted>
-0.0000

> <Gold.Chemscore.Lipo.Weighted>
-8.8088

> <Gold.Chemscore.Internal_Hbond.Weighted>
0.0000

> <Gold.Chemscore.DEClash.Weighted>
0.1153

> <Gold.Chemscore.DEInternal.Weighted>
1.5481

> <Gold.Chemscore.Rot.Weighted>
3.1948

> <Gold.Chemscore.Internal.Correction.Weighted>
   9.000000E+99

> <Gold.Protein.RotatedTorsions>
[ 6907 6896 6895 6894 ] final   93.97 input  -60.11 | X-H torsion
[ 7974 7965 7964 7962 ] final  -14.89 input  175.53 | X-H torsion
[ 8008 7997 7996 7995 ] final   18.03 input   59.86 | X-H torsion
[ 10167 10162 10161 10158 ] final  127.68 input  -65.29 | X-H torsion
[ 10718 10713 10712 10709 ] final -128.35 input   66.30 | X-H torsion
[ 10763 10752 10751 10750 ] final   -6.23 input  -60.55 | X-H torsion
[ 11005 11000 10999 10996 ] final   22.43 input  -57.11 | X-H torsion

> <Gold.Protein.ActiveResidues>
 VAL166  LYS551  ARG553  GLY616  TRP617  ASP618  TYR619  PRO620  LYS621  CYS622 
 ASP623  PHE694  ASN695  SER759  ASP760  ASP761  ALA762  ILE779  LEU786  VAL792 
 PHE793  MET794  SER795  GLU796  ALA797  LYS798  CYS799  TRP800  GLU811  SER814 

> <Gold.Protein.RotatedAtoms>
  152.5451  134.1265  159.8420 H   0  0  0  0  0  0  0  0  0  0  0  0  # atno 6907 bound_to 6896
  151.1315  133.5026  159.2606 H   0  0  0  0  0  0  0  0  0  0  0  0  # atno 6908 bound_to 6896
  151.1670  135.0310  159.8789 H   0  0  0  0  0  0  0  0  0  0  0  0  # atno 6909 bound_to 6896
  146.2055  140.3414  142.8408 H   0  0  0  0  0  0  0  0  0  0  0  0  # atno 7974 bound_to 7965
  154.9000  140.2999  155.5323 H   0  0  0  0  0  0  0  0  0  0  0  0  # atno 8008 bound_to 7997
  156.3019  140.2408  156.3962 H   0  0  0  0  0  0  0  0  0  0  0  0  # atno 8009 bound_to 7997
  154.8531  140.0408  157.1606 H   0  0  0  0  0  0  0  0  0  0  0  0  # atno 8010 bound_to 7997
  139.5566  144.6853  151.4165 H   0  0  0  0  0  0  0  0  0  0  0  0  # atno 10167 bound_to 10162
  156.1943  130.6815  151.0462 H   0  0  0  0  0  0  0  0  0  0  0  0  # atno 10718 bound_to 10713
  153.4094  135.7007  153.6370 H   0  0  0  0  0  0  0  0  0  0  0  0  # atno 10763 bound_to 10752
  153.4870  135.3681  155.2472 H   0  0  0  0  0  0  0  0  0  0  0  0  # atno 10764 bound_to 10752
  154.8716  135.4079  154.3444 H   0  0  0  0  0  0  0  0  0  0  0  0  # atno 10765 bound_to 10752
  140.3807  134.1923  155.7664 H   0  0  0  0  0  0  0  0  0  0  0  0  # atno 11005 bound_to 11000
  144.8783  140.7366  143.6003 LP  0  0  0  0  0  0  0  0  0  0  0  0  # atno 17320 bound_to 7965
  145.3333  139.1753  143.4525 LP  0  0  0  0  0  0  0  0  0  0  0  0  # atno 17321 bound_to 7965
  140.6840  143.8018  150.7160 LP  0  0  0  0  0  0  0  0  0  0  0  0  # atno 17342 bound_to 10162
  140.1479  143.4383  152.2150 LP  0  0  0  0  0  0  0  0  0  0  0  0  # atno 17343 bound_to 10162
  157.6948  131.0798  150.7002 LP  0  0  0  0  0  0  0  0  0  0  0  0  # atno 17370 bound_to 10713
  156.7059  130.4637  149.5560 LP  0  0  0  0  0  0  0  0  0  0  0  0  # atno 17371 bound_to 10713
  141.1924  133.8173  157.0840 LP  0  0  0  0  0  0  0  0  0  0  0  0  # atno 17394 bound_to 11000
  140.0481  134.9820  157.1085 LP  0  0  0  0  0  0  0  0  0  0  0  0  # atno 17395 bound_to 11000

$$$$
