AV-unprocessed.smi:833|AV-procd|sdf|3881|dock2
  -GOLD-   22720 1333D 1   1.00000     0.00000
 Structure written by MMmdl.
 39 40  0  0  0  0  0  0  0  0  1 V2000
  144.2184  133.5476  150.7366 C   0  0  0  0  0  0  0  0  0  0  0  0
  145.1891  134.7314  150.8448 C   0  0  1  0  0  0  0  0  0  0  0  0
  144.7421  135.7113  149.9303 O   0  0  0  0  0  0  0  0  0  0  0  0
  145.2093  135.3346  152.2642 C   0  0  0  0  0  0  0  0  0  0  0  0
  146.3501  136.2218  152.4635 N   0  0  0  0  0  0  0  0  0  0  0  0
  146.2925  137.4401  153.0178 C   0  0  0  0  0  0  0  0  0  0  0  0
  145.2514  137.9544  153.4260 O   0  0  0  0  0  0  0  0  0  0  0  0
  147.5039  138.0194  153.0442 N   0  0  0  0  0  0  0  0  0  0  0  0
  147.8377  139.3272  153.4957 C   0  0  0  0  0  0  0  0  0  0  0  0
  146.9206  140.4009  153.3867 C   0  0  0  0  0  0  0  0  0  0  0  0
  147.2653  141.6587  153.9102 C   0  0  0  0  0  0  0  0  0  0  0  0
  148.5123  141.7960  154.5414 C   0  0  0  0  0  0  0  0  0  0  0  0
  149.3908  140.7810  154.6655 N   0  0  0  0  0  0  0  0  0  0  0  0
  149.0794  139.5650  154.1524 C   0  0  0  0  0  0  0  0  0  0  0  0
  150.0471  138.5441  154.2979 N   0  0  0  0  0  0  0  0  0  0  0  0
  151.4116  138.9337  154.6428 C   0  0  0  0  0  0  0  0  0  0  0  0
  151.9510  137.8456  155.5772 C   0  0  0  0  0  0  0  0  0  0  0  0
  151.0584  136.6434  155.2854 C   0  0  0  0  0  0  0  0  0  0  0  0
  149.7146  137.3013  154.9861 C   0  0  0  0  0  0  0  0  0  0  0  0
  144.5167  132.7351  151.3995 H   0  0  0  0  0  0  0  0  0  0  0  0
  144.1940  133.1495  149.7214 H   0  0  0  0  0  0  0  0  0  0  0  0
  143.2025  133.8400  151.0048 H   0  0  0  0  0  0  0  0  0  0  0  0
  146.1869  134.3987  150.5552 H   0  0  0  0  0  0  0  0  0  0  0  0
  145.2151  135.6016  149.1187 H   0  0  0  0  0  0  0  0  0  0  0  0
  144.2676  135.8302  152.5085 H   0  0  0  0  0  0  0  0  0  0  0  0
  145.3252  134.5343  152.9955 H   0  0  0  0  0  0  0  0  0  0  0  0
  147.2489  135.8817  152.1547 H   0  0  0  0  0  0  0  0  0  0  0  0
  148.2497  137.5167  152.5859 H   0  0  0  0  0  0  0  0  0  0  0  0
  145.9502  140.2737  152.9313 H   0  0  0  0  0  0  0  0  0  0  0  0
  146.5840  142.4938  153.8413 H   0  0  0  0  0  0  0  0  0  0  0  0
  148.8113  142.7439  154.9635 H   0  0  0  0  0  0  0  0  0  0  0  0
  152.0083  138.9673  153.7311 H   0  0  0  0  0  0  0  0  0  0  0  0
  151.4533  139.9178  155.1119 H   0  0  0  0  0  0  0  0  0  0  0  0
  153.0100  137.6389  155.4203 H   0  0  0  0  0  0  0  0  0  0  0  0
  151.8193  138.1549  156.6149 H   0  0  0  0  0  0  0  0  0  0  0  0
  151.4213  136.1149  154.4028 H   0  0  0  0  0  0  0  0  0  0  0  0
  151.0104  135.9341  156.1120 H   0  0  0  0  0  0  0  0  0  0  0  0
  149.1946  137.5043  155.9231 H   0  0  0  0  0  0  0  0  0  0  0  0
  149.0785  136.6639  154.3715 H   0  0  0  0  0  0  0  0  0  0  0  0
  1  2  1  0  0  0  0
  1 20  1  0  0  0  0
  1 21  1  0  0  0  0
  1 22  1  0  0  0  0
  2  3  1  0  0  0  0
  2  4  1  0  0  0  0
  2 23  1  0  0  0  0
  3 24  1  0  0  0  0
  4  5  1  0  0  0  0
  4 25  1  0  0  0  0
  4 26  1  0  0  0  0
  5  6  1  0  0  0  0
  5 27  1  0  0  0  0
  6  7  2  0  0  0  0
  6  8  1  0  0  0  0
  8  9  1  0  0  0  0
  8 28  1  0  0  0  0
  9 14  1  0  0  0  0
  9 10  2  0  0  0  0
 10 11  1  0  0  0  0
 10 29  1  0  0  0  0
 11 12  2  0  0  0  0
 11 30  1  0  0  0  0
 12 13  1  0  0  0  0
 12 31  1  0  0  0  0
 13 14  2  0  0  0  0
 14 15  1  0  0  0  0
 15 19  1  0  0  0  0
 15 16  1  0  0  0  0
 16 17  1  0  0  0  0
 16 32  1  0  0  0  0
 16 33  1  0  0  0  0
 17 18  1  0  0  0  0
 17 34  1  0  0  0  0
 17 35  1  0  0  0  0
 18 19  1  0  0  0  0
 18 36  1  0  0  0  0
 18 37  1  0  0  0  0
 19 38  1  0  0  0  0
 19 39  1  0  0  0  0
M  END
> <s_m_source_file>
AV-unprocessed.smi

> <i_m_source_file_index>
833

> <i_lp_mmshare_version>
43012

> <i_f3d_flags>
0

> <s_epik_input>
W0NIM11bQ0BIXShbT0hdKVtDSDJdW05IXUMoPU8pW05IXWMxW2NIXVtjSF1bY0hdbmMxTjJbQ0gyXVtDSDJdW0NIMl1bQ0gyXTI=

> <s_epik_cmdline>
J2VwaWtfcHl0aG9uJywgJy1waCcsICc3LjAnLCAnLXRuJywgJzgnLCAnLW1hJywgJzIwMCcsICctbWV0YWxfYmluZGluZycsICctaW1hZScsICc8aW5maWxlLm1hZT4nLCAnLW9tYWUnLCAnPG91dGZpbGUubWFlPic=

> <r_lp_tautomer_probability>
1

> <r_epik_Ionization_Penalty>
0.0986749

> <r_epik_Ionization_Penalty_Charging>
0

> <r_epik_Ionization_Penalty_Neutral>
0.0986749

> <r_epik_State_Penalty>
0.0881977

> <r_epik_Charging_Adjusted_Penalty>
0.0881977

> <i_epik_Tot_Q>
0

> <i_epik_Tot_abs_Q>
0

> <r_epik_Metal_State_Penalty>
0.0755487

> <b_epik_Metal_Only>
0

> <s_lp_Force_Field>
OPLS_2005

> <r_lp_Energy>
30.9988

> <b_lp_Chiralities_Consistent>
1

> <s_lp_Variant>
AV-unprocessed.smi:833-2

> <Gold.Version>
5.8.1

> <Gold.Id.Protein>
6NUR|6NUR_protein|mol2

> <Gold.PLP.Fitness>
41.7609

> <Gold.PLP.PLP>
-30.7617

> <Gold.PLP.part.hbond>
-4.1218

> <Gold.PLP.part.metal>
0.0000

> <Gold.PLP.part.buried>
-2.3226

> <Gold.PLP.part.nonpolar>
-25.7127

> <Gold.PLP.part.repulsive>
1.2006

> <Gold.PLP.ligand.clash>
0.0000

> <Gold.PLP.ligand.torsion>
0.6310

> <Gold.PLP.Chemscore.Hbond>
2.9760

> <Gold.PLP.Chemscore.CHOScore>
1.0000

> <Gold.PLP.Chemscore.Metal>
0.0000

> <Gold.Chemscore.Hbonds>
donor molecule, donor type, donor heavy atom, donor atom, acceptor molecule, acceptor atom, score
      L1  H     3    24       P1  7921  1.00
      L1  H     5    27       P1  7948  0.98
      L1  H     8    28       P1  7948  1.00
      L1  C    12    31       P1  8028  1.00

> <Gold.PLP.Chemscore.Internal.Correction>
0.3332

> <Gold.Rescore>
     Score         DG    S(hbond)    S(metal)    S(lipo)     H(rot)  DE(clash)    DE(int)     intcor
     15.56     -17.91       2.91        0.00      67.68       2.03       0.28       2.07       ----

> <Gold.Chemscore.Fitness>
15.5566

> <Gold.Chemscore.DG>
-17.9138

> <Gold.Chemscore.ZeroCoef>
-5.4800

> <Gold.Chemscore.Hbond>
2.9082

> <Gold.Chemscore.Metal>
0.0000

> <Gold.Chemscore.Lipo>
67.6808

> <Gold.Chemscore.Internal_Hbond>
0.0000

> <Gold.Chemscore.DEClash>
0.2840

> <Gold.Chemscore.DEInternal>
2.0732

> <Gold.Chemscore.Rot>
2.0306

> <Gold.Chemscore.Internal.Correction>
   9.000000E+99

> <Gold.Chemscore.Hbonds>
donor molecule, donor type, donor heavy atom, donor atom, acceptor molecule, acceptor atom, score
      L1  H     3    24       P1  7921  1.00
      L1  H     5    27       P1  7948  0.93
      L1  H     8    28       P1  7948  0.98

> <Gold.Chemscore.Hbond.Weighted>
-9.7135

> <Gold.Chemscore.Metal.Weighted>
-0.0000

> <Gold.Chemscore.Lipo.Weighted>
-7.9186

> <Gold.Chemscore.Internal_Hbond.Weighted>
0.0000

> <Gold.Chemscore.DEClash.Weighted>
0.2840

> <Gold.Chemscore.DEInternal.Weighted>
2.0732

> <Gold.Chemscore.Rot.Weighted>
5.1984

> <Gold.Chemscore.Internal.Correction.Weighted>
   9.000000E+99

> <Gold.Protein.RotatedTorsions>
[ 6907 6896 6895 6894 ] final   42.79 input  -60.11 | X-H torsion
[ 7974 7965 7964 7962 ] final   21.11 input  175.53 | X-H torsion
[ 8008 7997 7996 7995 ] final   -0.52 input   59.86 | X-H torsion
[ 10167 10162 10161 10158 ] final   28.44 input  -65.29 | X-H torsion
[ 10718 10713 10712 10709 ] final   26.91 input   66.30 | X-H torsion
[ 10763 10752 10751 10750 ] final   77.36 input  -60.55 | X-H torsion
[ 11005 11000 10999 10996 ] final   43.43 input  -57.11 | X-H torsion

> <Gold.Protein.ActiveResidues>
 VAL166  LYS551  ARG553  GLY616  TRP617  ASP618  TYR619  PRO620  LYS621  CYS622 
 ASP623  PHE694  ASN695  SER759  ASP760  ASP761  ALA762  ILE779  LEU786  VAL792 
 PHE793  MET794  SER795  GLU796  ALA797  LYS798  CYS799  TRP800  GLU811  SER814 

> <Gold.Protein.RotatedAtoms>
  152.2122  134.8491  160.0495 H   0  0  0  0  0  0  0  0  0  0  0  0  # atno 6907 bound_to 6896
  151.9305  133.3605  159.3937 H   0  0  0  0  0  0  0  0  0  0  0  0  # atno 6908 bound_to 6896
  150.6979  134.4467  159.5361 H   0  0  0  0  0  0  0  0  0  0  0  0  # atno 6909 bound_to 6896
  146.2085  139.8074  142.8707 H   0  0  0  0  0  0  0  0  0  0  0  0  # atno 7974 bound_to 7965
  154.6571  140.2582  155.7149 H   0  0  0  0  0  0  0  0  0  0  0  0  # atno 8008 bound_to 7997
  156.2602  140.2856  156.0950 H   0  0  0  0  0  0  0  0  0  0  0  0  # atno 8009 bound_to 7997
  155.1364  140.0379  157.2778 H   0  0  0  0  0  0  0  0  0  0  0  0  # atno 8010 bound_to 7997
  140.4853  144.0553  150.6278 H   0  0  0  0  0  0  0  0  0  0  0  0  # atno 10167 bound_to 10162
  157.2131  130.6943  149.6237 H   0  0  0  0  0  0  0  0  0  0  0  0  # atno 10718 bound_to 10713
  153.0793  135.4917  154.8469 H   0  0  0  0  0  0  0  0  0  0  0  0  # atno 10763 bound_to 10752
  154.7129  135.3023  154.9171 H   0  0  0  0  0  0  0  0  0  0  0  0  # atno 10764 bound_to 10752
  153.9859  135.6784  153.4805 H   0  0  0  0  0  0  0  0  0  0  0  0  # atno 10765 bound_to 10752
  140.1645  134.4299  155.8296 H   0  0  0  0  0  0  0  0  0  0  0  0  # atno 11005 bound_to 11000
  145.3232  141.0249  143.3489 LP  0  0  0  0  0  0  0  0  0  0  0  0  # atno 17320 bound_to 7965
  144.8852  139.4849  143.6704 LP  0  0  0  0  0  0  0  0  0  0  0  0  # atno 17321 bound_to 7965
  140.3806  143.2805  152.0174 LP  0  0  0  0  0  0  0  0  0  0  0  0  # atno 17342 bound_to 10162
  139.4841  144.6158  151.7350 LP  0  0  0  0  0  0  0  0  0  0  0  0  # atno 17343 bound_to 10162
  155.9689  130.4544  150.5850 LP  0  0  0  0  0  0  0  0  0  0  0  0  # atno 17370 bound_to 10713
  157.3652  131.0756  151.1604 LP  0  0  0  0  0  0  0  0  0  0  0  0  # atno 17371 bound_to 10713
  141.2212  133.6928  156.7654 LP  0  0  0  0  0  0  0  0  0  0  0  0  # atno 17394 bound_to 11000
  140.2450  134.8585  157.3611 LP  0  0  0  0  0  0  0  0  0  0  0  0  # atno 17395 bound_to 11000

$$$$
