AV-unprocessed.smi:210|AV-procd|sdf|1614|dock3
  -GOLD-   2262019543D 1   1.00000     0.00000
 Structure written by MMmdl.
 57 61  0  0  0  0  0  0  0  0  1 V2000
  152.3676  139.7248  157.7127 C   0  0  0  0  0  0  0  0  0  0  0  0
  151.9539  140.6195  156.6951 O   0  0  0  0  0  0  0  0  0  0  0  0
  150.5825  140.4695  156.3634 C   0  0  1  0  0  0  0  0  0  0  0  0
  150.0426  141.5234  155.3879 C   0  0  0  0  0  0  0  0  0  0  0  0
  149.2576  140.4001  154.6805 C   0  0  2  0  0  0  0  0  0  0  0  0
  147.9005  140.2549  155.2282 N   0  0  0  0  0  0  0  0  0  0  0  0
  146.9444  141.3000  154.8758 C   0  0  0  0  0  0  0  0  0  0  0  0
  147.3344  139.0416  155.0420 C   0  0  0  0  0  0  0  0  0  0  0  0
  147.1986  138.1838  156.0881 N   0  0  0  0  0  0  0  0  0  0  0  0
  146.6343  136.9872  155.8979 C   0  0  0  0  0  0  0  0  0  0  0  0
  146.1477  136.4626  154.7706 N   0  0  0  0  0  0  0  0  0  0  0  0
  146.2878  137.3227  153.7207 C   0  0  0  0  0  0  0  0  0  0  0  0
  146.8763  138.6166  153.7679 C   0  0  0  0  0  0  0  0  0  0  0  0
  146.8618  139.1962  152.5063 N   0  0  0  0  0  0  0  0  0  0  0  0
  146.2975  138.2922  151.7522 C   0  0  0  0  0  0  0  0  0  0  0  0
  145.8928  137.1491  152.4057 N   0  0  0  0  0  0  0  0  0  0  0  0
  145.2790  135.9938  151.8195 C   0  0  0  0  0  0  0  0  0  0  0  0
  145.2935  134.6369  152.5318 C   0  0  0  0  0  0  0  0  0  0  0  0
  145.3658  133.9301  151.1583 C   0  0  0  0  0  0  0  0  0  0  0  0
  146.2817  132.6935  151.0669 C   0  0  0  0  0  0  0  0  0  0  0  0
  147.5369  132.8990  151.6841 O   0  0  0  0  0  0  0  0  0  0  0  0
  143.9942  133.5250  150.5851 C   0  0  0  0  0  0  0  0  0  0  0  0
  144.0170  133.4666  149.1731 O   0  0  0  0  0  0  0  0  0  0  0  0
  145.9313  135.2714  150.6370 C   0  0  0  0  0  0  0  0  0  0  0  0
  150.3149  139.4238  155.2659 C   0  0  0  0  0  0  0  0  0  0  0  0
  151.4723  138.9358  154.3752 C   0  0  0  0  0  0  0  0  0  0  0  0
  151.5304  137.6710  155.2365 C   0  0  0  0  0  0  0  0  0  0  0  0
  150.0733  137.9435  155.6182 C   0  0  0  0  0  0  0  0  0  0  0  0
  153.4246  139.8793  157.9283 H   0  0  0  0  0  0  0  0  0  0  0  0
  152.2355  138.6877  157.4016 H   0  0  0  0  0  0  0  0  0  0  0  0
  151.8093  139.8874  158.6353 H   0  0  0  0  0  0  0  0  0  0  0  0
  149.9363  140.3202  157.2312 H   0  0  0  0  0  0  0  0  0  0  0  0
  149.4570  142.3119  155.8594 H   0  0  0  0  0  0  0  0  0  0  0  0
  150.8240  141.9449  154.7533 H   0  0  0  0  0  0  0  0  0  0  0  0
  149.2913  140.4814  153.5932 H   0  0  0  0  0  0  0  0  0  0  0  0
  145.9154  141.0003  155.0827 H   0  0  0  0  0  0  0  0  0  0  0  0
  147.0187  141.5488  153.8167 H   0  0  0  0  0  0  0  0  0  0  0  0
  147.1358  142.2039  155.4530 H   0  0  0  0  0  0  0  0  0  0  0  0
  146.5586  136.3616  156.7750 H   0  0  0  0  0  0  0  0  0  0  0  0
  146.1526  138.4418  150.6920 H   0  0  0  0  0  0  0  0  0  0  0  0
  144.2577  136.2893  151.5731 H   0  0  0  0  0  0  0  0  0  0  0  0
  146.1865  134.5012  153.1438 H   0  0  0  0  0  0  0  0  0  0  0  0
  144.3939  134.4235  153.1100 H   0  0  0  0  0  0  0  0  0  0  0  0
  145.8147  131.8295  151.5407 H   0  0  0  0  0  0  0  0  0  0  0  0
  146.4698  132.4201  150.0282 H   0  0  0  0  0  0  0  0  0  0  0  0
  148.0957  132.1649  151.4799 H   0  0  0  0  0  0  0  0  0  0  0  0
  143.6794  132.5545  150.9702 H   0  0  0  0  0  0  0  0  0  0  0  0
  143.2183  134.2335  150.8755 H   0  0  0  0  0  0  0  0  0  0  0  0
  144.8093  133.8811  148.8675 H   0  0  0  0  0  0  0  0  0  0  0  0
  145.5578  135.5827  149.6609 H   0  0  0  0  0  0  0  0  0  0  0  0
  147.0206  135.3292  150.6693 H   0  0  0  0  0  0  0  0  0  0  0  0
  151.1552  138.7300  153.3517 H   0  0  0  0  0  0  0  0  0  0  0  0
  152.3747  139.5472  154.3962 H   0  0  0  0  0  0  0  0  0  0  0  0
  151.6938  136.7466  154.6820 H   0  0  0  0  0  0  0  0  0  0  0  0
  152.2144  137.7651  156.0815 H   0  0  0  0  0  0  0  0  0  0  0  0
  149.8291  137.7525  156.6635 H   0  0  0  0  0  0  0  0  0  0  0  0
  149.3862  137.4327  154.9435 H   0  0  0  0  0  0  0  0  0  0  0  0
  1  2  1  0  0  0  0
  1 29  1  0  0  0  0
  1 30  1  0  0  0  0
  1 31  1  0  0  0  0
  2  3  1  0  0  0  0
  3 25  1  0  0  0  0
  3  4  1  0  0  0  0
  3 32  1  0  0  0  0
  4  5  1  0  0  0  0
  4 33  1  0  0  0  0
  4 34  1  0  0  0  0
  5  6  1  0  0  0  0
  5 25  1  0  0  0  0
  5 35  1  0  0  0  0
  6  7  1  0  0  0  0
  6  8  1  0  0  0  0
  7 36  1  0  0  0  0
  7 37  1  0  0  0  0
  7 38  1  0  0  0  0
  8 13  1  0  0  0  0
  8  9  2  0  0  0  0
  9 10  1  0  0  0  0
 10 11  2  0  0  0  0
 10 39  1  0  0  0  0
 11 12  1  0  0  0  0
 12 16  1  0  0  0  0
 12 13  2  0  0  0  0
 13 14  1  0  0  0  0
 14 15  2  0  0  0  0
 15 16  1  0  0  0  0
 15 40  1  0  0  0  0
 16 17  1  0  0  0  0
 17 24  1  0  0  0  0
 17 18  1  0  0  0  0
 17 41  1  0  0  0  0
 18 19  1  0  0  0  0
 18 42  1  0  0  0  0
 18 43  1  0  0  0  0
 19 20  1  0  0  0  0
 19 22  1  0  0  0  0
 19 24  1  0  0  0  0
 20 21  1  0  0  0  0
 20 44  1  0  0  0  0
 20 45  1  0  0  0  0
 21 46  1  0  0  0  0
 22 23  1  0  0  0  0
 22 47  1  0  0  0  0
 22 48  1  0  0  0  0
 23 49  1  0  0  0  0
 24 50  1  0  0  0  0
 24 51  1  0  0  0  0
 25 28  1  0  0  0  0
 25 26  1  0  0  0  0
 26 27  1  0  0  0  0
 26 52  1  0  0  0  0
 26 53  1  0  0  0  0
 27 28  1  0  0  0  0
 27 54  1  0  0  0  0
 27 55  1  0  0  0  0
 28 56  1  0  0  0  0
 28 57  1  0  0  0  0
M  END
> <s_m_source_file>
AV-unprocessed.smi

> <i_m_source_file_index>
210

> <i_lp_mmshare_version>
43012

> <i_f3d_flags>
0

> <s_epik_input>
W0NIMl0xW0NIMl1bQ0gyXUMxMltDQEhdKE9bQ0gzXSlbQ0gyXVtDQEhdMk4oW0NIM10pYyhuW2NIXW4zKWMoYzM0KW5bY0hdbjRbQ0hdKFtDSDJdNSlbQ0gyXUM1KFtDSDJdW09IXSlbQ0gyXVtPSF0=

> <s_epik_cmdline>
J2VwaWtfcHl0aG9uJywgJy1waCcsICc3LjAnLCAnLXRuJywgJzgnLCAnLW1hJywgJzIwMCcsICctbWV0YWxfYmluZGluZycsICctaW1hZScsICc8aW5maWxlLm1hZT4nLCAnLW9tYWUnLCAnPG91dGZpbGUubWFlPic=

> <r_lp_tautomer_probability>
1

> <r_epik_Ionization_Penalty>
0.00313676

> <r_epik_Ionization_Penalty_Charging>
0

> <r_epik_Ionization_Penalty_Neutral>
0.00313676

> <r_epik_State_Penalty>
0.00199132

> <r_epik_Charging_Adjusted_Penalty>
0.00199132

> <i_epik_Tot_Q>
0

> <i_epik_Tot_abs_Q>
0

> <r_epik_Metal_State_Penalty>
-0

> <b_epik_Metal_Only>
0

> <s_lp_Force_Field>
OPLS_2005

> <r_lp_Energy>
61.1908

> <b_lp_Chiralities_Consistent>
1

> <s_lp_Variant>
AV-unprocessed.smi:210-4

> <Gold.Version>
5.8.1

> <Gold.Id.Protein>
6NUR|6NUR_protein|mol2

> <Gold.PLP.Fitness>
44.0933

> <Gold.PLP.PLP>
-36.8816

> <Gold.PLP.part.hbond>
-2.8067

> <Gold.PLP.part.metal>
0.0000

> <Gold.PLP.part.buried>
-2.9911

> <Gold.PLP.part.nonpolar>
-31.0591

> <Gold.PLP.part.repulsive>
0.5559

> <Gold.PLP.ligand.clash>
0.0000

> <Gold.PLP.ligand.torsion>
1.0860

> <Gold.PLP.Chemscore.Hbond>
2.0000

> <Gold.PLP.Chemscore.CHOScore>
0.7618

> <Gold.PLP.Chemscore.Metal>
0.0000

> <Gold.Chemscore.Hbonds>
donor molecule, donor type, donor heavy atom, donor atom, acceptor molecule, acceptor atom, score
      L1  H    21    46       P1 10747  1.00
      L1  H    23    49       P1  7921  1.00
      L1  C    15    40       P1 10171  0.80

> <Gold.PLP.Chemscore.Internal.Correction>
1.0982

> <Gold.Rescore>
     Score         DG    S(hbond)    S(metal)    S(lipo)     H(rot)  DE(clash)    DE(int)     intcor
     10.12     -13.61       1.99        0.00      90.82       3.57       1.49       2.00       ----

> <Gold.Chemscore.Fitness>
10.1177

> <Gold.Chemscore.DG>
-13.6121

> <Gold.Chemscore.ZeroCoef>
-5.4800

> <Gold.Chemscore.Hbond>
1.9906

> <Gold.Chemscore.Metal>
0.0000

> <Gold.Chemscore.Lipo>
90.8185

> <Gold.Chemscore.Internal_Hbond>
0.0000

> <Gold.Chemscore.DEClash>
1.4940

> <Gold.Chemscore.DEInternal>
2.0005

> <Gold.Chemscore.Rot>
3.5712

> <Gold.Chemscore.Internal.Correction>
   9.000000E+99

> <Gold.Chemscore.Hbonds>
donor molecule, donor type, donor heavy atom, donor atom, acceptor molecule, acceptor atom, score
      L1  H    21    46       P1 10747  0.96
      L1  H    23    49       P1  7921  0.92

> <Gold.Chemscore.Hbond.Weighted>
-6.6487

> <Gold.Chemscore.Metal.Weighted>
-0.0000

> <Gold.Chemscore.Lipo.Weighted>
-10.6258

> <Gold.Chemscore.Internal_Hbond.Weighted>
0.0000

> <Gold.Chemscore.DEClash.Weighted>
1.4940

> <Gold.Chemscore.DEInternal.Weighted>
2.0005

> <Gold.Chemscore.Rot.Weighted>
9.1423

> <Gold.Chemscore.Internal.Correction.Weighted>
   9.000000E+99

> <Gold.Protein.RotatedTorsions>
[ 6907 6896 6895 6894 ] final   24.93 input  -60.11 | X-H torsion
[ 7974 7965 7964 7962 ] final   -3.80 input  175.53 | X-H torsion
[ 8008 7997 7996 7995 ] final  -61.52 input   59.86 | X-H torsion
[ 10167 10162 10161 10158 ] final   11.33 input  -65.29 | X-H torsion
[ 10718 10713 10712 10709 ] final  -83.01 input   66.30 | X-H torsion
[ 10763 10752 10751 10750 ] final -134.95 input  -60.55 | X-H torsion
[ 11005 11000 10999 10996 ] final   26.55 input  -57.11 | X-H torsion

> <Gold.Protein.ActiveResidues>
 VAL166  LYS551  ARG553  GLY616  TRP617  ASP618  TYR619  PRO620  LYS621  CYS622 
 ASP623  PHE694  ASN695  SER759  ASP760  ASP761  ALA762  ILE779  LEU786  VAL792 
 PHE793  MET794  SER795  GLU796  ALA797  LYS798  CYS799  TRP800  GLU811  SER814 

> <Gold.Protein.RotatedAtoms>
  151.9650  135.0105  160.0549 H   0  0  0  0  0  0  0  0  0  0  0  0  # atno 6907 bound_to 6896
  152.1835  133.4719  159.4978 H   0  0  0  0  0  0  0  0  0  0  0  0  # atno 6908 bound_to 6896
  150.6921  134.1721  159.4259 H   0  0  0  0  0  0  0  0  0  0  0  0  # atno 6909 bound_to 6896
  146.2383  140.1776  142.8332 H   0  0  0  0  0  0  0  0  0  0  0  0  # atno 7974 bound_to 7965
  154.4452  140.1016  156.6443 H   0  0  0  0  0  0  0  0  0  0  0  0  # atno 8008 bound_to 7997
  155.5467  140.3485  155.4440 H   0  0  0  0  0  0  0  0  0  0  0  0  # atno 8009 bound_to 7997
  156.0558  140.1315  156.9987 H   0  0  0  0  0  0  0  0  0  0  0  0  # atno 8010 bound_to 7997
  140.6138  143.8351  150.7095 H   0  0  0  0  0  0  0  0  0  0  0  0  # atno 10167 bound_to 10162
  156.0024  130.4652  150.4192 H   0  0  0  0  0  0  0  0  0  0  0  0  # atno 10718 bound_to 10713
  154.8711  135.3718  154.4819 H   0  0  0  0  0  0  0  0  0  0  0  0  # atno 10763 bound_to 10752
  153.5472  135.7025  153.5613 H   0  0  0  0  0  0  0  0  0  0  0  0  # atno 10764 bound_to 10752
  153.3748  135.4012  155.1779 H   0  0  0  0  0  0  0  0  0  0  0  0  # atno 10765 bound_to 10752
  140.3358  134.2388  155.7696 H   0  0  0  0  0  0  0  0  0  0  0  0  # atno 11005 bound_to 11000
  144.9960  140.8590  143.5310 LP  0  0  0  0  0  0  0  0  0  0  0  0  # atno 17320 bound_to 7965
  145.1789  139.2363  143.5303 LP  0  0  0  0  0  0  0  0  0  0  0  0  # atno 17321 bound_to 7965
  140.1925  143.4025  152.1852 LP  0  0  0  0  0  0  0  0  0  0  0  0  # atno 17342 bound_to 10162
  139.5382  144.7231  151.4820 LP  0  0  0  0  0  0  0  0  0  0  0  0  # atno 17343 bound_to 10162
  157.2249  131.0491  151.2525 LP  0  0  0  0  0  0  0  0  0  0  0  0  # atno 17370 bound_to 10713
  157.3765  130.7209  149.6601 LP  0  0  0  0  0  0  0  0  0  0  0  0  # atno 17371 bound_to 10713
  141.2051  133.7867  157.0248 LP  0  0  0  0  0  0  0  0  0  0  0  0  # atno 17394 bound_to 11000
  140.0822  134.9641  157.1643 LP  0  0  0  0  0  0  0  0  0  0  0  0  # atno 17395 bound_to 11000

$$$$
