AV-unprocessed.smi:912|AV-procd|sdf|4145|dock6
  -GOLD-   22720 2 53D 1   1.00000     0.00000
 Structure written by MMmdl.
 27 27  0  0  0  0  0  0  0  0  2 V2000
  148.5748  137.0788  155.0529 C   0  0  0  0  0  0  0  0  0  0  0  0
  148.1181  137.4997  153.7299 N   0  0  0  0  0  0  0  0  0  0  0  0
  147.0265  138.4859  153.6337 C   0  0  2  0  0  0  0  0  0  0  0  0
  145.9845  138.0715  154.7051 C   0  0  0  0  0  0  0  0  0  0  0  0
  146.3991  138.4940  152.2127 C   0  0  0  0  0  0  0  0  0  0  0  0
  145.1031  138.1787  152.1075 N   0  0  0  0  0  0  0  0  0  0  0  0
  147.0703  138.7741  151.2210 O   0  0  0  0  0  0  0  0  0  0  0  0
  147.5145  139.9172  153.9438 C   0  0  0  0  0  0  0  0  0  0  0  0
  148.8515  140.1964  154.3331 C   0  0  0  0  0  0  0  0  0  0  0  0
  149.2392  141.5232  154.6104 C   0  0  0  0  0  0  0  0  0  0  0  0
  148.3414  142.5247  154.5050 N   0  3  0  0  0  0  0  0  0  0  0  0
  147.0594  142.3169  154.1401 C   0  0  0  0  0  0  0  0  0  0  0  0
  146.6152  141.0108  153.8526 C   0  0  0  0  0  0  0  0  0  0  0  0
  149.4772  136.4778  154.9426 H   0  0  0  0  0  0  0  0  0  0  0  0
  147.8372  136.4586  155.5622 H   0  0  0  0  0  0  0  0  0  0  0  0
  148.8220  137.9241  155.6938 H   0  0  0  0  0  0  0  0  0  0  0  0
  147.9338  136.7024  153.1389 H   0  0  0  0  0  0  0  0  0  0  0  0
  145.1364  138.7560  154.7393 H   0  0  0  0  0  0  0  0  0  0  0  0
  146.4280  138.0647  155.7017 H   0  0  0  0  0  0  0  0  0  0  0  0
  145.5717  137.0785  154.5278 H   0  0  0  0  0  0  0  0  0  0  0  0
  144.6585  138.1583  151.2016 H   0  0  0  0  0  0  0  0  0  0  0  0
  144.5765  137.9481  152.9380 H   0  0  0  0  0  0  0  0  0  0  0  0
  149.5919  139.4167  154.4292 H   0  0  0  0  0  0  0  0  0  0  0  0
  150.2358  141.8102  154.9125 H   0  0  0  0  0  0  0  0  0  0  0  0
  146.4316  143.1946  154.0889 H   0  0  0  0  0  0  0  0  0  0  0  0
  145.5870  140.8552  153.5594 H   0  0  0  0  0  0  0  0  0  0  0  0
  148.6438  143.4775  154.7102 H   0  0  0  0  0  0  0  0  0  0  0  0
  1  2  1  0  0  0  0
  1 14  1  0  0  0  0
  1 15  1  0  0  0  0
  1 16  1  0  0  0  0
  2  3  1  0  0  0  0
  2 17  1  0  0  0  0
  3  4  1  0  0  0  0
  3  5  1  0  0  0  0
  3  8  1  0  0  0  0
  4 18  1  0  0  0  0
  4 19  1  0  0  0  0
  4 20  1  0  0  0  0
  5  6  1  0  0  0  0
  5  7  2  0  0  0  0
  6 21  1  0  0  0  0
  6 22  1  0  0  0  0
  8 13  1  0  0  0  0
  8  9  2  0  0  0  0
  9 10  1  0  0  0  0
  9 23  1  0  0  0  0
 10 11  2  0  0  0  0
 10 24  1  0  0  0  0
 11 12  1  0  0  0  0
 11 27  1  0  0  0  0
 12 13  2  0  0  0  0
 12 25  1  0  0  0  0
 13 26  1  0  0  0  0
M  CHG  1  11   1
M  END
> <s_m_source_file>
AV-unprocessed.smi

> <i_m_source_file_index>
912

> <i_lp_mmshare_version>
43012

> <i_f3d_flags>
0

> <s_epik_input>
W0NIM11bTkhdW0NAQF0oW0NIM10pKEMoPU8pW05IMl0pYzFbY0hdW2NIXW5bY0hdW2NIXTE=

> <s_epik_cmdline>
J2VwaWtfcHl0aG9uJywgJy1waCcsICc3LjAnLCAnLXRuJywgJzgnLCAnLW1hJywgJzIwMCcsICctbWV0YWxfYmluZGluZycsICctaW1hZScsICc8aW5maWxlLm1hZT4nLCAnLW9tYWUnLCAnPG91dGZpbGUubWFlPic=

> <r_epik_Ionization_Penalty>
0.562542

> <r_epik_Ionization_Penalty_Charging>
0.554844

> <r_epik_Ionization_Penalty_Neutral>
0.00769834

> <r_epik_State_Penalty>
1.39075

> <r_epik_Charging_Adjusted_Penalty>
1.94559

> <i_epik_Tot_Q>
1

> <i_epik_Tot_abs_Q>
1

> <r_epik_Metal_State_Penalty>
1.55563

> <b_epik_Metal_Only>
0

> <s_lp_Force_Field>
OPLS_2005

> <r_lp_Energy>
18.1992

> <b_lp_Chiralities_Consistent>
1

> <s_lp_Variant>
AV-unprocessed.smi:912-6

> <Gold.Version>
5.8.1

> <Gold.Id.Protein>
6NUR|6NUR_protein|mol2

> <Gold.PLP.Fitness>
34.3703

> <Gold.PLP.PLP>
-21.7457

> <Gold.PLP.part.hbond>
-4.8278

> <Gold.PLP.part.metal>
0.0000

> <Gold.PLP.part.buried>
-4.8936

> <Gold.PLP.part.nonpolar>
-16.3709

> <Gold.PLP.part.repulsive>
3.3916

> <Gold.PLP.ligand.clash>
0.1764

> <Gold.PLP.ligand.torsion>
0.2849

> <Gold.PLP.Chemscore.Hbond>
4.4480

> <Gold.PLP.Chemscore.CHOScore>
0.0000

> <Gold.PLP.Chemscore.Metal>
0.0000

> <Gold.Chemscore.Hbonds>
donor molecule, donor type, donor heavy atom, donor atom, acceptor molecule, acceptor atom, score
      L1  H     2    17       P1  7948  0.46
      L1  H     6    21       P1 10171  1.00
      L1  H    11    27       P1  8028  2.00
      P1  H  7954  7966       L1     7  0.96

> <Gold.PLP.Chemscore.Internal.Correction>
0.0268

> <Gold.Rescore>
     Score         DG    S(hbond)    S(metal)    S(lipo)     H(rot)  DE(clash)    DE(int)     intcor
     15.77     -16.28       3.33        0.00      37.04       1.82       0.12       0.38       ----

> <Gold.Chemscore.Fitness>
15.7735

> <Gold.Chemscore.DG>
-16.2763

> <Gold.Chemscore.ZeroCoef>
-5.4800

> <Gold.Chemscore.Hbond>
3.3318

> <Gold.Chemscore.Metal>
0.0000

> <Gold.Chemscore.Lipo>
37.0424

> <Gold.Chemscore.Internal_Hbond>
0.0000

> <Gold.Chemscore.DEClash>
0.1200

> <Gold.Chemscore.DEInternal>
0.3827

> <Gold.Chemscore.Rot>
1.8226

> <Gold.Chemscore.Internal.Correction>
   9.000000E+99

> <Gold.Chemscore.Hbonds>
donor molecule, donor type, donor heavy atom, donor atom, acceptor molecule, acceptor atom, score
      L1  H     2    17       P1  7948  0.46
      L1  H     6    21       P1 10171  1.00
      L1  H    11    27       P1  8028  0.93
      P1  H  7954  7966       L1     7  0.92

> <Gold.Chemscore.Hbond.Weighted>
-11.1282

> <Gold.Chemscore.Metal.Weighted>
-0.0000

> <Gold.Chemscore.Lipo.Weighted>
-4.3340

> <Gold.Chemscore.Internal_Hbond.Weighted>
0.0000

> <Gold.Chemscore.DEClash.Weighted>
0.1200

> <Gold.Chemscore.DEInternal.Weighted>
0.3827

> <Gold.Chemscore.Rot.Weighted>
4.6659

> <Gold.Chemscore.Internal.Correction.Weighted>
   9.000000E+99

> <Gold.Protein.RotatedTorsions>
[ 6907 6896 6895 6894 ] final   67.99 input  -60.11 | X-H torsion
[ 7974 7965 7964 7962 ] final -114.50 input  175.53 | X-H torsion
[ 8008 7997 7996 7995 ] final  -46.56 input   59.86 | X-H torsion
[ 10167 10162 10161 10158 ] final   68.62 input  -65.29 | X-H torsion
[ 10718 10713 10712 10709 ] final   70.18 input   66.30 | X-H torsion
[ 10763 10752 10751 10750 ] final   70.36 input  -60.55 | X-H torsion
[ 11005 11000 10999 10996 ] final  159.89 input  -57.11 | X-H torsion

> <Gold.Protein.ActiveResidues>
 VAL166  LYS551  ARG553  GLY616  TRP617  ASP618  TYR619  PRO620  LYS621  CYS622 
 ASP623  PHE694  ASN695  SER759  ASP760  ASP761  ALA762  ILE779  LEU786  VAL792 
 PHE793  MET794  SER795  GLU796  ALA797  LYS798  CYS799  TRP800  GLU811  SER814 

> <Gold.Protein.RotatedAtoms>
  152.4590  134.5228  159.9787 H   0  0  0  0  0  0  0  0  0  0  0  0  # atno 6907 bound_to 6896
  151.5282  133.3448  159.2921 H   0  0  0  0  0  0  0  0  0  0  0  0  # atno 6908 bound_to 6896
  150.8545  134.7909  159.7097 H   0  0  0  0  0  0  0  0  0  0  0  0  # atno 6909 bound_to 6896
  145.1194  140.8660  143.3823 H   0  0  0  0  0  0  0  0  0  0  0  0  # atno 7974 bound_to 7965
  154.4008  140.1368  156.4031 H   0  0  0  0  0  0  0  0  0  0  0  0  # atno 8008 bound_to 7997
  155.7805  140.3481  155.5274 H   0  0  0  0  0  0  0  0  0  0  0  0  # atno 8009 bound_to 7997
  155.8678  140.0967  157.1561 H   0  0  0  0  0  0  0  0  0  0  0  0  # atno 8010 bound_to 7997
  140.0766  144.5107  150.7190 H   0  0  0  0  0  0  0  0  0  0  0  0  # atno 10167 bound_to 10162
  157.6386  130.9464  150.0616 H   0  0  0  0  0  0  0  0  0  0  0  0  # atno 10718 bound_to 10713
  153.0337  135.5176  154.7429 H   0  0  0  0  0  0  0  0  0  0  0  0  # atno 10763 bound_to 10752
  154.6423  135.2914  155.0091 H   0  0  0  0  0  0  0  0  0  0  0  0  # atno 10764 bound_to 10752
  154.1004  135.6637  153.4920 H   0  0  0  0  0  0  0  0  0  0  0  0  # atno 10765 bound_to 10752
  140.2006  134.8341  157.3013 H   0  0  0  0  0  0  0  0  0  0  0  0  # atno 11005 bound_to 11000
  145.0757  139.2997  143.5809 LP  0  0  0  0  0  0  0  0  0  0  0  0  # atno 17320 bound_to 7965
  146.3522  140.0247  142.8655 LP  0  0  0  0  0  0  0  0  0  0  0  0  # atno 17321 bound_to 7965
  140.7099  143.2496  151.4614 LP  0  0  0  0  0  0  0  0  0  0  0  0  # atno 17342 bound_to 10162
  139.5804  144.1723  152.1960 LP  0  0  0  0  0  0  0  0  0  0  0  0  # atno 17343 bound_to 10162
  156.1647  130.3645  149.9250 LP  0  0  0  0  0  0  0  0  0  0  0  0  # atno 17370 bound_to 10713
  156.7239  130.9017  151.3620 LP  0  0  0  0  0  0  0  0  0  0  0  0  # atno 17371 bound_to 10713
  140.2059  134.4198  155.7638 LP  0  0  0  0  0  0  0  0  0  0  0  0  # atno 17394 bound_to 11000
  141.2227  133.7094  156.8259 LP  0  0  0  0  0  0  0  0  0  0  0  0  # atno 17395 bound_to 11000

$$$$
