AV-unprocessed.smi:2923|AV-procd|sdf|11204|dock6
  -GOLD-   2272016 93D 1   1.00000     0.00000
 Structure written by MMmdl.
 47 49  0  0  0  0  0  0  0  0  2 V2000
  145.3168  132.1062  149.0566 C   0  0  0  0  0  0  0  0  0  0  0  0
  145.0684  132.3220  150.4761 N   0  0  0  0  0  0  0  0  0  0  0  0
  144.7066  131.2031  151.3393 C   0  0  0  0  0  0  0  0  0  0  0  0
  145.1223  133.6288  151.0074 C   0  0  0  0  0  0  0  0  0  0  0  0
  144.9370  133.9159  152.3821 C   0  0  0  0  0  0  0  0  0  0  0  0
  145.0060  135.2490  152.8359 C   0  0  0  0  0  0  0  0  0  0  0  0
  145.2679  136.2900  151.9212 C   0  0  0  0  0  0  0  0  0  0  0  0
  145.3136  137.6187  152.4236 N   0  0  0  0  0  0  0  0  0  0  0  0
  145.8357  138.0579  153.5818 C   0  0  0  0  0  0  0  0  0  0  0  0
  146.3357  137.3465  154.4527 O   0  0  0  0  0  0  0  0  0  0  0  0
  145.7361  139.3897  153.6851 N   0  0  0  0  0  0  0  0  0  0  0  0
  146.2158  140.1648  154.8251 C   0  0  2  0  0  0  0  0  0  0  0  0
  145.1110  141.0237  155.4596 C   0  0  1  0  0  0  0  0  0  0  0  0
  144.6524  140.7378  156.8640 C   0  0  0  0  0  0  0  0  0  0  0  0
  145.4820  141.7163  157.7004 C   0  0  0  0  0  0  0  0  0  0  0  0
  146.6075  142.0245  156.8814 O   0  0  0  0  0  0  0  0  0  0  0  0
  146.1424  142.1391  155.5387 C   0  0  1  0  0  0  0  0  0  0  0  0
  146.9948  141.4523  154.4509 C   0  0  0  0  0  0  0  0  0  0  0  0
  148.5035  141.4239  154.7008 C   0  0  0  0  0  0  0  0  0  0  0  0
  146.7906  142.0222  153.0397 C   0  0  0  0  0  0  0  0  0  0  0  0
  145.4343  135.9544  150.5565 C   0  0  0  0  0  0  0  0  0  0  0  0
  145.3583  134.6641  150.1650 N   0  3  0  0  0  0  0  0  0  0  0  0
  144.5910  132.6522  148.4530 H   0  0  0  0  0  0  0  0  0  0  0  0
  145.2396  131.0504  148.7968 H   0  0  0  0  0  0  0  0  0  0  0  0
  146.3186  132.4423  148.7874 H   0  0  0  0  0  0  0  0  0  0  0  0
  145.4215  131.1033  152.1570 H   0  0  0  0  0  0  0  0  0  0  0  0
  144.6975  130.2626  150.7877 H   0  0  0  0  0  0  0  0  0  0  0  0
  143.7124  131.3515  151.7625 H   0  0  0  0  0  0  0  0  0  0  0  0
  144.7412  133.1339  153.1004 H   0  0  0  0  0  0  0  0  0  0  0  0
  144.8623  135.4662  153.8844 H   0  0  0  0  0  0  0  0  0  0  0  0
  144.8674  138.3166  151.8464 H   0  0  0  0  0  0  0  0  0  0  0  0
  145.3076  139.9031  152.9291 H   0  0  0  0  0  0  0  0  0  0  0  0
  146.7412  139.5668  155.5734 H   0  0  0  0  0  0  0  0  0  0  0  0
  144.3108  141.2685  154.7587 H   0  0  0  0  0  0  0  0  0  0  0  0
  143.5830  140.9016  156.9989 H   0  0  0  0  0  0  0  0  0  0  0  0
  144.8713  139.7065  157.1425 H   0  0  0  0  0  0  0  0  0  0  0  0
  144.9195  142.6321  157.8886 H   0  0  0  0  0  0  0  0  0  0  0  0
  145.7861  141.2989  158.6604 H   0  0  0  0  0  0  0  0  0  0  0  0
  145.7502  143.1273  155.2936 H   0  0  0  0  0  0  0  0  0  0  0  0
  148.9330  142.4256  154.6713 H   0  0  0  0  0  0  0  0  0  0  0  0
  149.0208  140.8190  153.9553 H   0  0  0  0  0  0  0  0  0  0  0  0
  148.7417  140.9993  155.6764 H   0  0  0  0  0  0  0  0  0  0  0  0
  147.1973  143.0304  152.9555 H   0  0  0  0  0  0  0  0  0  0  0  0
  145.7342  142.0821  152.7762 H   0  0  0  0  0  0  0  0  0  0  0  0
  147.2803  141.4097  152.2822 H   0  0  0  0  0  0  0  0  0  0  0  0
  145.6127  136.6582  149.7577 H   0  0  0  0  0  0  0  0  0  0  0  0
  145.4841  134.4582  149.1738 H   0  0  0  0  0  0  0  0  0  0  0  0
  1  2  1  0  0  0  0
  1 23  1  0  0  0  0
  1 24  1  0  0  0  0
  1 25  1  0  0  0  0
  2  3  1  0  0  0  0
  2  4  1  0  0  0  0
  3 26  1  0  0  0  0
  3 27  1  0  0  0  0
  3 28  1  0  0  0  0
  4 22  1  0  0  0  0
  4  5  2  0  0  0  0
  5  6  1  0  0  0  0
  5 29  1  0  0  0  0
  6  7  2  0  0  0  0
  6 30  1  0  0  0  0
  7  8  1  0  0  0  0
  7 21  1  0  0  0  0
  8  9  1  0  0  0  0
  8 31  1  0  0  0  0
  9 10  2  0  0  0  0
  9 11  1  0  0  0  0
 11 12  1  0  0  0  0
 11 32  1  0  0  0  0
 12 18  1  0  0  0  0
 12 13  1  0  0  0  0
 12 33  1  0  0  0  0
 13 17  1  0  0  0  0
 13 14  1  0  0  0  0
 13 34  1  0  0  0  0
 14 15  1  0  0  0  0
 14 35  1  0  0  0  0
 14 36  1  0  0  0  0
 15 16  1  0  0  0  0
 15 37  1  0  0  0  0
 15 38  1  0  0  0  0
 16 17  1  0  0  0  0
 17 18  1  0  0  0  0
 17 39  1  0  0  0  0
 18 19  1  0  0  0  0
 18 20  1  0  0  0  0
 19 40  1  0  0  0  0
 19 41  1  0  0  0  0
 19 42  1  0  0  0  0
 20 43  1  0  0  0  0
 20 44  1  0  0  0  0
 20 45  1  0  0  0  0
 21 22  2  0  0  0  0
 21 46  1  0  0  0  0
 22 47  1  0  0  0  0
M  CHG  1  22   1
M  END
> <s_m_source_file>
AV-unprocessed.smi

> <i_m_source_file_index>
2923

> <i_lp_mmshare_version>
43012

> <i_f3d_flags>
0

> <s_epik_input>
W0NIM11OKFtDSDNdKWMxW2NIXVtjSF1jKFtjSF1uMSlbTkhdQyg9TylbTkhdW0NASF0yQyhbQ0gzXSkoW0NIM10pW0NAQEhdKFtDQEhdMjMpT1tDSDJdW0NIMl0z

> <s_epik_cmdline>
J2VwaWtfcHl0aG9uJywgJy1waCcsICc3LjAnLCAnLXRuJywgJzgnLCAnLW1hJywgJzIwMCcsICctbWV0YWxfYmluZGluZycsICctaW1hZScsICc8aW5maWxlLm1hZT4nLCAnLW9tYWUnLCAnPG91dGZpbGUubWFlPic=

> <r_lp_tautomer_probability>
0.999994

> <r_epik_Ionization_Penalty>
0.252205

> <r_epik_Ionization_Penalty_Charging>
0.252185

> <r_epik_Ionization_Penalty_Neutral>
1.99479e-05

> <r_epik_State_Penalty>
0.243573

> <r_epik_Charging_Adjusted_Penalty>
0.495758

> <i_epik_Tot_Q>
1

> <i_epik_Tot_abs_Q>
1

> <r_epik_Metal_State_Penalty>
0.534372

> <b_epik_Metal_Only>
0

> <s_lp_Force_Field>
OPLS_2005

> <r_lp_Energy>
44.365

> <b_lp_Chiralities_Consistent>
1

> <s_lp_Variant>
AV-unprocessed.smi:2923-3

> <Gold.Version>
5.8.1

> <Gold.Id.Protein>
6NUR|6NUR_protein|mol2

> <Gold.PLP.Fitness>
35.2279

> <Gold.PLP.PLP>
-29.5141

> <Gold.PLP.part.hbond>
-2.8750

> <Gold.PLP.part.metal>
0.0000

> <Gold.PLP.part.buried>
-5.3002

> <Gold.PLP.part.nonpolar>
-22.1708

> <Gold.PLP.part.repulsive>
0.2832

> <Gold.PLP.ligand.clash>
0.0000

> <Gold.PLP.ligand.torsion>
0.4010

> <Gold.PLP.Chemscore.Hbond>
2.1125

> <Gold.PLP.Chemscore.CHOScore>
0.0000

> <Gold.PLP.Chemscore.Metal>
0.0000

> <Gold.Chemscore.Hbonds>
donor molecule, donor type, donor heavy atom, donor atom, acceptor molecule, acceptor atom, score
      L1  H     8    31       P1 10171  0.33
      L1  H    11    32       P1 10175  0.77
      L1  H    22    47       P1  7921  1.00

> <Gold.PLP.Chemscore.Internal.Correction>
0.1783

> <Gold.Rescore>
     Score         DG    S(hbond)    S(metal)    S(lipo)     H(rot)  DE(clash)    DE(int)     intcor
     15.53     -18.74       2.20        0.00      72.52       1.00       1.67       1.54       ----

> <Gold.Chemscore.Fitness>
15.5317

> <Gold.Chemscore.DG>
-18.7421

> <Gold.Chemscore.ZeroCoef>
-5.4800

> <Gold.Chemscore.Hbond>
2.1968

> <Gold.Chemscore.Metal>
0.0000

> <Gold.Chemscore.Lipo>
72.5209

> <Gold.Chemscore.Internal_Hbond>
0.0000

> <Gold.Chemscore.DEClash>
1.6661

> <Gold.Chemscore.DEInternal>
1.5443

> <Gold.Chemscore.Rot>
1.0000

> <Gold.Chemscore.Internal.Correction>
   9.000000E+99

> <Gold.Chemscore.Hbonds>
donor molecule, donor type, donor heavy atom, donor atom, acceptor molecule, acceptor atom, score
      L1  H     8    31       P1 10171  0.33
      L1  H    11    32       P1 10175  0.76
      L1  H    22    47       P1  7921  0.93

> <Gold.Chemscore.Hbond.Weighted>
-7.3372

> <Gold.Chemscore.Metal.Weighted>
-0.0000

> <Gold.Chemscore.Lipo.Weighted>
-8.4849

> <Gold.Chemscore.Internal_Hbond.Weighted>
0.0000

> <Gold.Chemscore.DEClash.Weighted>
1.6661

> <Gold.Chemscore.DEInternal.Weighted>
1.5443

> <Gold.Chemscore.Rot.Weighted>
2.5600

> <Gold.Chemscore.Internal.Correction.Weighted>
   9.000000E+99

> <Gold.Protein.RotatedTorsions>
[ 6907 6896 6895 6894 ] final -105.96 input  -60.11 | X-H torsion
[ 7974 7965 7964 7962 ] final -159.08 input  175.53 | X-H torsion
[ 8008 7997 7996 7995 ] final  121.08 input   59.86 | X-H torsion
[ 10167 10162 10161 10158 ] final   67.42 input  -65.29 | X-H torsion
[ 10718 10713 10712 10709 ] final  154.67 input   66.30 | X-H torsion
[ 10763 10752 10751 10750 ] final  -31.26 input  -60.55 | X-H torsion
[ 11005 11000 10999 10996 ] final   72.37 input  -57.11 | X-H torsion

> <Gold.Protein.ActiveResidues>
 VAL166  LYS551  ARG553  GLY616  TRP617  ASP618  TYR619  PRO620  LYS621  CYS622 
 ASP623  PHE694  ASN695  SER759  ASP760  ASP761  ALA762  ILE779  LEU786  VAL792 
 PHE793  MET794  SER795  GLU796  ALA797  LYS798  CYS799  TRP800  GLU811  SER814 

> <Gold.Protein.RotatedAtoms>
  150.7364  134.0049  159.3650 H   0  0  0  0  0  0  0  0  0  0  0  0  # atno 6907 bound_to 6896
  151.8005  135.0708  160.0409 H   0  0  0  0  0  0  0  0  0  0  0  0  # atno 6908 bound_to 6896
  152.3144  133.5750  159.5738 H   0  0  0  0  0  0  0  0  0  0  0  0  # atno 6909 bound_to 6896
  144.7479  140.3736  143.6070 H   0  0  0  0  0  0  0  0  0  0  0  0  # atno 7974 bound_to 7965
  156.2671  140.2816  156.1252 H   0  0  0  0  0  0  0  0  0  0  0  0  # atno 8008 bound_to 7997
  155.1113  140.0391  157.2742 H   0  0  0  0  0  0  0  0  0  0  0  0  # atno 8009 bound_to 7997
  154.6740  140.2594  155.6983 H   0  0  0  0  0  0  0  0  0  0  0  0  # atno 8010 bound_to 7997
  140.0897  144.4999  150.7107 H   0  0  0  0  0  0  0  0  0  0  0  0  # atno 10167 bound_to 10162
  157.2285  131.0734  151.1868 H   0  0  0  0  0  0  0  0  0  0  0  0  # atno 10718 bound_to 10713
  153.7945  135.6895  153.4866 H   0  0  0  0  0  0  0  0  0  0  0  0  # atno 10763 bound_to 10752
  153.1728  135.4536  154.9924 H   0  0  0  0  0  0  0  0  0  0  0  0  # atno 10764 bound_to 10752
  154.8031  135.3346  154.7438 H   0  0  0  0  0  0  0  0  0  0  0  0  # atno 10765 bound_to 10752
  139.9494  134.7254  156.0899 H   0  0  0  0  0  0  0  0  0  0  0  0  # atno 11005 bound_to 11000
  145.7052  139.1671  143.2570 LP  0  0  0  0  0  0  0  0  0  0  0  0  # atno 17320 bound_to 7965
  146.1387  140.7087  142.9377 LP  0  0  0  0  0  0  0  0  0  0  0  0  # atno 17321 bound_to 7965
  140.7035  143.2451  151.4795 LP  0  0  0  0  0  0  0  0  0  0  0  0  # atno 17342 bound_to 10162
  139.5732  144.1880  152.1866 LP  0  0  0  0  0  0  0  0  0  0  0  0  # atno 17343 bound_to 10162
  157.3503  130.7078  149.6436 LP  0  0  0  0  0  0  0  0  0  0  0  0  # atno 17370 bound_to 10713
  155.9677  130.4254  150.4654 LP  0  0  0  0  0  0  0  0  0  0  0  0  # atno 17371 bound_to 10713
  141.1153  133.6629  156.3079 LP  0  0  0  0  0  0  0  0  0  0  0  0  # atno 17394 bound_to 11000
  140.5755  134.5798  157.5467 LP  0  0  0  0  0  0  0  0  0  0  0  0  # atno 17395 bound_to 11000

$$$$
