AV-unprocessed.smi:120|AV-procd|sdf|1137|dock2
  -GOLD-   2262018263D 1   1.00000     0.00000
 Structure written by MMmdl.
 45 48  0  0  0  0  0  0  0  0  1 V2000
  154.0476  140.9297  160.7231 C   0  0  0  0  0  0  0  0  0  0  0  0
  153.5630  142.2610  160.8251 O   0  0  0  0  0  0  0  0  0  0  0  0
  152.7917  142.7534  159.7939 C   0  0  0  0  0  0  0  0  0  0  0  0
  152.4659  144.1226  159.8363 C   0  0  0  0  0  0  0  0  0  0  0  0
  151.6881  144.7033  158.8195 C   0  0  0  0  0  0  0  0  0  0  0  0
  151.2276  143.9162  157.7486 C   0  0  0  0  0  0  0  0  0  0  0  0
  151.5328  142.5376  157.6768 C   0  0  0  0  0  0  0  0  0  0  0  0
  151.0484  141.7065  156.5530 C   0  0  0  0  0  0  0  0  0  0  0  0
  151.8609  140.9116  155.8682 N   0  0  0  0  0  0  0  0  0  0  0  0
  150.9999  140.3185  154.9323 O   0  0  0  0  0  0  0  0  0  0  0  0
  149.7692  140.8373  155.1729 C   0  0  0  0  0  0  0  0  0  0  0  0
  148.6217  140.3860  154.3195 C   0  0  0  0  0  0  0  0  0  0  0  0
  147.3477  140.7672  154.9091 N   0  0  0  0  0  0  0  0  0  0  0  0
  146.8373  142.0490  154.5887 C   0  0  0  0  0  0  0  0  0  0  0  0
  147.4526  142.8355  153.8668 O   0  0  0  0  0  0  0  0  0  0  0  0
  145.5301  142.3424  155.1662 C   0  0  0  0  0  0  0  0  0  0  0  0
  144.9486  143.5296  154.9248 F   0  0  0  0  0  0  0  0  0  0  0  0
  144.8875  141.4364  155.9343 C   0  0  0  0  0  0  0  0  0  0  0  0
  145.4106  140.1880  156.2281 N   0  0  0  0  0  0  0  0  0  0  0  0
  144.6454  139.1910  157.0704 C   0  0  2  0  0  0  0  0  0  0  0  0
  143.3046  139.7901  157.5112 C   0  0  0  0  0  0  0  0  0  0  0  0
  143.6489  140.3542  158.8721 C   0  0  0  0  0  0  0  0  0  0  0  0
  144.6584  139.3317  159.3803 C   0  0  0  0  0  0  0  0  0  0  0  0
  145.3804  138.9080  158.2266 O   0  0  0  0  0  0  0  0  0  0  0  0
  146.6663  139.8133  155.7024 C   0  0  0  0  0  0  0  0  0  0  0  0
  147.1305  138.6912  155.9172 O   0  0  0  0  0  0  0  0  0  0  0  0
  149.7420  141.7166  156.1741 N   0  0  0  0  0  0  0  0  0  0  0  0
  152.3169  141.9717  158.7107 C   0  0  0  0  0  0  0  0  0  0  0  0
  154.6489  140.6974  161.6020 H   0  0  0  0  0  0  0  0  0  0  0  0
  154.6840  140.8032  159.8461 H   0  0  0  0  0  0  0  0  0  0  0  0
  153.2298  140.2088  160.6835 H   0  0  0  0  0  0  0  0  0  0  0  0
  152.8172  144.7335  160.6549 H   0  0  0  0  0  0  0  0  0  0  0  0
  151.4438  145.7546  158.8608 H   0  0  0  0  0  0  0  0  0  0  0  0
  150.6290  144.3836  156.9806 H   0  0  0  0  0  0  0  0  0  0  0  0
  148.6962  140.8079  153.3168 H   0  0  0  0  0  0  0  0  0  0  0  0
  148.6254  139.3017  154.1948 H   0  0  0  0  0  0  0  0  0  0  0  0
  143.9183  141.7096  156.3242 H   0  0  0  0  0  0  0  0  0  0  0  0
  144.5515  138.2885  156.4643 H   0  0  0  0  0  0  0  0  0  0  0  0
  142.9243  140.5295  156.8052 H   0  0  0  0  0  0  0  0  0  0  0  0
  142.5767  138.9833  157.6050 H   0  0  0  0  0  0  0  0  0  0  0  0
  144.1197  141.3325  158.7672 H   0  0  0  0  0  0  0  0  0  0  0  0
  142.7822  140.4590  159.5251 H   0  0  0  0  0  0  0  0  0  0  0  0
  145.3233  139.7395  160.1421 H   0  0  0  0  0  0  0  0  0  0  0  0
  144.1425  138.4696  159.8052 H   0  0  0  0  0  0  0  0  0  0  0  0
  152.5546  140.9205  158.6547 H   0  0  0  0  0  0  0  0  0  0  0  0
  1  2  1  0  0  0  0
  1 29  1  0  0  0  0
  1 30  1  0  0  0  0
  1 31  1  0  0  0  0
  2  3  1  0  0  0  0
  3 28  1  0  0  0  0
  3  4  2  0  0  0  0
  4  5  1  0  0  0  0
  4 32  1  0  0  0  0
  5  6  2  0  0  0  0
  5 33  1  0  0  0  0
  6  7  1  0  0  0  0
  6 34  1  0  0  0  0
  7  8  1  0  0  0  0
  7 28  2  0  0  0  0
  8 27  1  0  0  0  0
  8  9  2  0  0  0  0
  9 10  1  0  0  0  0
 10 11  1  0  0  0  0
 11 12  1  0  0  0  0
 11 27  2  0  0  0  0
 12 13  1  0  0  0  0
 12 35  1  0  0  0  0
 12 36  1  0  0  0  0
 13 25  1  0  0  0  0
 13 14  1  0  0  0  0
 14 15  2  0  0  0  0
 14 16  1  0  0  0  0
 16 17  1  0  0  0  0
 16 18  2  0  0  0  0
 18 19  1  0  0  0  0
 18 37  1  0  0  0  0
 19 20  1  0  0  0  0
 19 25  1  0  0  0  0
 20 24  1  0  0  0  0
 20 21  1  0  0  0  0
 20 38  1  0  0  0  0
 21 22  1  0  0  0  0
 21 39  1  0  0  0  0
 21 40  1  0  0  0  0
 22 23  1  0  0  0  0
 22 41  1  0  0  0  0
 22 42  1  0  0  0  0
 23 24  1  0  0  0  0
 23 43  1  0  0  0  0
 23 44  1  0  0  0  0
 25 26  2  0  0  0  0
 28 45  1  0  0  0  0
M  END
> <s_m_source_file>
AV-unprocessed.smi

> <i_m_source_file_index>
120

> <i_lp_mmshare_version>
43012

> <i_f3d_flags>
0

> <s_epik_input>
W0NIM11PYzFbY0hdW2NIXVtjSF1jKFtjSF0xKS1jMm5vYyhuMilbQ0gyXW4zYyg9TyljKEYpW2NIXW4oYzM9TylbQ0BASF00W0NIMl1bQ0gyXVtDSDJdTzQ=

> <s_epik_cmdline>
J2VwaWtfcHl0aG9uJywgJy1waCcsICc3LjAnLCAnLXRuJywgJzgnLCAnLW1hJywgJzIwMCcsICctbWV0YWxfYmluZGluZycsICctaW1hZScsICc8aW5maWxlLm1hZT4nLCAnLW9tYWUnLCAnPG91dGZpbGUubWFlPic=

> <r_lp_tautomer_probability>
1

> <r_epik_Ionization_Penalty>
4.93314e-09

> <r_epik_Ionization_Penalty_Charging>
4.92654e-09

> <r_epik_Ionization_Penalty_Neutral>
6.60436e-12

> <r_epik_State_Penalty>
-0

> <r_epik_Charging_Adjusted_Penalty>
4.92654e-09

> <i_epik_Tot_Q>
0

> <i_epik_Tot_abs_Q>
0

> <r_epik_Metal_State_Penalty>
-0

> <b_epik_Metal_Only>
0

> <s_epik_Chemistry_Notes>
This compound contains an acetal/aminal-like group ( X-CH(R)-Y where X, Y are N, S, or O) that may be acid/base labile, releasing an aldehyde.

> <s_lp_Force_Field>
OPLS_2005

> <r_lp_Energy>
37.1389

> <b_lp_Chiralities_Consistent>
1

> <s_lp_Variant>
AV-unprocessed.smi:120-1

> <Gold.Version>
5.8.1

> <Gold.Id.Protein>
6NUR|6NUR_protein|mol2

> <Gold.PLP.Fitness>
43.5343

> <Gold.PLP.PLP>
-41.7602

> <Gold.PLP.part.hbond>
-3.4195

> <Gold.PLP.part.metal>
0.0000

> <Gold.PLP.part.buried>
-1.9168

> <Gold.PLP.part.nonpolar>
-37.9676

> <Gold.PLP.part.repulsive>
1.7204

> <Gold.PLP.ligand.clash>
0.0000

> <Gold.PLP.ligand.torsion>
1.4721

> <Gold.PLP.Chemscore.Hbond>
1.5434

> <Gold.PLP.Chemscore.CHOScore>
0.0000

> <Gold.PLP.Chemscore.Metal>
0.0000

> <Gold.Chemscore.Hbonds>
donor molecule, donor type, donor heavy atom, donor atom, acceptor molecule, acceptor atom, score
      P1  H  7989  7998       L1    10  1.00
      P1  H  8022  8030       L1    15  0.30

> <Gold.PLP.Chemscore.Internal.Correction>
0.0882

> <Gold.Rescore>
     Score         DG    S(hbond)    S(metal)    S(lipo)     H(rot)  DE(clash)    DE(int)     intcor
      9.39     -14.76       1.14        0.00      90.18       1.99       2.87       2.50       ----

> <Gold.Chemscore.Fitness>
9.3895

> <Gold.Chemscore.DG>
-14.7600

> <Gold.Chemscore.ZeroCoef>
-5.4800

> <Gold.Chemscore.Hbond>
1.1431

> <Gold.Chemscore.Metal>
0.0000

> <Gold.Chemscore.Lipo>
90.1786

> <Gold.Chemscore.Internal_Hbond>
0.0000

> <Gold.Chemscore.DEClash>
2.8696

> <Gold.Chemscore.DEInternal>
2.5009

> <Gold.Chemscore.Rot>
1.9879

> <Gold.Chemscore.Internal.Correction>
   9.000000E+99

> <Gold.Chemscore.Hbonds>
donor molecule, donor type, donor heavy atom, donor atom, acceptor molecule, acceptor atom, score
      P1  H  7989  7998       L1    10  0.24
      P1  H  8022  8030       L1    15  0.30

> <Gold.Chemscore.Hbond.Weighted>
-3.8181

> <Gold.Chemscore.Metal.Weighted>
-0.0000

> <Gold.Chemscore.Lipo.Weighted>
-10.5509

> <Gold.Chemscore.Internal_Hbond.Weighted>
0.0000

> <Gold.Chemscore.DEClash.Weighted>
2.8696

> <Gold.Chemscore.DEInternal.Weighted>
2.5009

> <Gold.Chemscore.Rot.Weighted>
5.0890

> <Gold.Chemscore.Internal.Correction.Weighted>
   9.000000E+99

> <Gold.Protein.RotatedTorsions>
[ 6907 6896 6895 6894 ] final  -55.89 input  -60.11 | X-H torsion
[ 7974 7965 7964 7962 ] final  -30.93 input  175.53 | X-H torsion
[ 8008 7997 7996 7995 ] final  -34.48 input   59.86 | X-H torsion
[ 10167 10162 10161 10158 ] final  156.98 input  -65.29 | X-H torsion
[ 10718 10713 10712 10709 ] final -146.11 input   66.30 | X-H torsion
[ 10763 10752 10751 10750 ] final  -75.42 input  -60.55 | X-H torsion
[ 11005 11000 10999 10996 ] final -123.63 input  -57.11 | X-H torsion

> <Gold.Protein.ActiveResidues>
 VAL166  LYS551  ARG553  GLY616  TRP617  ASP618  TYR619  PRO620  LYS621  CYS622 
 ASP623  PHE694  ASN695  SER759  ASP760  ASP761  ALA762  ILE779  LEU786  VAL792 
 PHE793  MET794  SER795  GLU796  ALA797  LYS798  CYS799  TRP800  GLU811  SER814 

> <Gold.Protein.RotatedAtoms>
  150.8213  134.7422  159.6774 H   0  0  0  0  0  0  0  0  0  0  0  0  # atno 6907 bound_to 6896
  152.4329  134.5740  159.9939 H   0  0  0  0  0  0  0  0  0  0  0  0  # atno 6908 bound_to 6896
  151.5924  133.3328  159.3066 H   0  0  0  0  0  0  0  0  0  0  0  0  # atno 6909 bound_to 6896
  146.1106  140.5603  142.8780 H   0  0  0  0  0  0  0  0  0  0  0  0  # atno 7974 bound_to 7965
  154.4120  140.1683  156.2056 H   0  0  0  0  0  0  0  0  0  0  0  0  # atno 8008 bound_to 7997
  155.9487  140.3402  155.6366 H   0  0  0  0  0  0  0  0  0  0  0  0  # atno 8009 bound_to 7997
  155.6897  140.0732  157.2443 H   0  0  0  0  0  0  0  0  0  0  0  0  # atno 8010 bound_to 7997
  139.4822  144.4959  151.8240 H   0  0  0  0  0  0  0  0  0  0  0  0  # atno 10167 bound_to 10162
  156.3908  130.7884  151.2086 H   0  0  0  0  0  0  0  0  0  0  0  0  # atno 10718 bound_to 10713
  154.4863  135.5832  153.6426 H   0  0  0  0  0  0  0  0  0  0  0  0  # atno 10763 bound_to 10752
  152.9855  135.6102  154.3182 H   0  0  0  0  0  0  0  0  0  0  0  0  # atno 10764 bound_to 10752
  154.3078  135.2845  155.2560 H   0  0  0  0  0  0  0  0  0  0  0  0  # atno 10765 bound_to 10752
  140.9904  134.0547  157.3661 H   0  0  0  0  0  0  0  0  0  0  0  0  # atno 11005 bound_to 11000
  144.7508  140.5185  143.6803 LP  0  0  0  0  0  0  0  0  0  0  0  0  # atno 17320 bound_to 7965
  145.5672  139.1482  143.3308 LP  0  0  0  0  0  0  0  0  0  0  0  0  # atno 17321 bound_to 7965
  140.4447  144.1937  150.5893 LP  0  0  0  0  0  0  0  0  0  0  0  0  # atno 17342 bound_to 10162
  140.4646  143.2435  151.9172 LP  0  0  0  0  0  0  0  0  0  0  0  0  # atno 17343 bound_to 10162
  157.7499  131.0316  150.4190 LP  0  0  0  0  0  0  0  0  0  0  0  0  # atno 17370 bound_to 10713
  156.4451  130.3999  149.6672 LP  0  0  0  0  0  0  0  0  0  0  0  0  # atno 17371 bound_to 10713
  139.8990  135.0157  156.7174 LP  0  0  0  0  0  0  0  0  0  0  0  0  # atno 17394 bound_to 11000
  140.7048  133.9274  155.8047 LP  0  0  0  0  0  0  0  0  0  0  0  0  # atno 17395 bound_to 11000

$$$$
