AV-unprocessed.smi:1812|AV-procd|sdf|7337|dock3
  -GOLD-   22720 8593D 1   1.00000     0.00000
 Structure written by MMmdl.
 34 36  0  0  0  0  0  0  0  0  1 V2000
  146.7413  139.6179  153.8362 O   0  0  0  0  0  0  0  0  0  0  0  0
  147.4860  138.8400  153.2390 C   0  0  0  0  0  0  0  0  0  0  0  0
  147.0526  137.9570  152.3282 N   0  0  0  0  0  0  0  0  0  0  0  0
  145.6622  137.7935  151.9189 C   0  0  0  0  0  0  0  0  0  0  0  0
  145.2101  136.3283  152.0246 C   0  0  1  0  0  0  0  0  0  0  0  0
  145.5374  135.4926  150.7919 C   0  0  0  0  0  0  0  0  0  0  0  0
  145.4961  134.0773  151.3358 C   0  0  0  0  0  0  0  0  0  0  0  0
  145.8216  134.2491  152.8233 C   0  0  0  0  0  0  0  0  0  0  0  0
  145.9276  135.6516  153.0456 O   0  0  0  0  0  0  0  0  0  0  0  0
  148.8178  138.7558  153.4047 N   0  0  0  0  0  0  0  0  0  0  0  0
  149.6510  139.5415  154.2445 C   0  0  0  0  0  0  0  0  0  0  0  0
  150.9600  139.3131  154.4186 N   0  0  0  0  0  0  0  0  0  0  0  0
  151.5322  140.2228  155.2966 N   0  0  0  0  0  0  0  0  0  0  0  0
  150.6437  141.1096  155.7606 C   0  0  0  0  0  0  0  0  0  0  0  0
  151.0226  142.1848  156.7243 C   0  0  0  0  0  0  0  0  0  0  0  0
  151.7059  141.8460  158.0292 C   0  0  0  0  0  0  0  0  0  0  0  0
  150.2924  142.3691  158.0366 C   0  0  0  0  0  0  0  0  0  0  0  0
  149.0067  140.9030  155.1456 S   0  0  0  0  0  0  0  0  0  0  0  0
  147.7293  137.3506  151.8886 H   0  0  0  0  0  0  0  0  0  0  0  0
  145.0201  138.4308  152.5291 H   0  0  0  0  0  0  0  0  0  0  0  0
  145.5603  138.1457  150.8922 H   0  0  0  0  0  0  0  0  0  0  0  0
  144.1410  136.2638  152.2361 H   0  0  0  0  0  0  0  0  0  0  0  0
  144.8385  135.6543  149.9707 H   0  0  0  0  0  0  0  0  0  0  0  0
  146.5423  135.7221  150.4344 H   0  0  0  0  0  0  0  0  0  0  0  0
  144.4972  133.6554  151.2189 H   0  0  0  0  0  0  0  0  0  0  0  0
  146.2007  133.4200  150.8256 H   0  0  0  0  0  0  0  0  0  0  0  0
  145.0260  133.8353  153.4438 H   0  0  0  0  0  0  0  0  0  0  0  0
  146.7555  133.7579  153.0977 H   0  0  0  0  0  0  0  0  0  0  0  0
  149.2944  138.0582  152.8527 H   0  0  0  0  0  0  0  0  0  0  0  0
  151.3495  143.0772  156.1946 H   0  0  0  0  0  0  0  0  0  0  0  0
  151.8521  140.7938  158.2654 H   0  0  0  0  0  0  0  0  0  0  0  0
  152.4916  142.5153  158.3736 H   0  0  0  0  0  0  0  0  0  0  0  0
  150.1359  143.3884  158.3833 H   0  0  0  0  0  0  0  0  0  0  0  0
  149.5039  141.6646  158.2922 H   0  0  0  0  0  0  0  0  0  0  0  0
  1  2  2  0  0  0  0
  2  3  1  0  0  0  0
  2 10  1  0  0  0  0
  3  4  1  0  0  0  0
  3 19  1  0  0  0  0
  4  5  1  0  0  0  0
  4 20  1  0  0  0  0
  4 21  1  0  0  0  0
  5  9  1  0  0  0  0
  5  6  1  0  0  0  0
  5 22  1  0  0  0  0
  6  7  1  0  0  0  0
  6 23  1  0  0  0  0
  6 24  1  0  0  0  0
  7  8  1  0  0  0  0
  7 25  1  0  0  0  0
  7 26  1  0  0  0  0
  8  9  1  0  0  0  0
  8 27  1  0  0  0  0
  8 28  1  0  0  0  0
 10 11  1  0  0  0  0
 10 29  1  0  0  0  0
 11 18  1  0  0  0  0
 11 12  2  0  0  0  0
 12 13  1  0  0  0  0
 13 14  2  0  0  0  0
 14 15  1  0  0  0  0
 14 18  1  0  0  0  0
 15 17  1  0  0  0  0
 15 16  1  0  0  0  0
 15 30  1  0  0  0  0
 16 17  1  0  0  0  0
 16 31  1  0  0  0  0
 16 32  1  0  0  0  0
 17 33  1  0  0  0  0
 17 34  1  0  0  0  0
M  END
> <s_m_source_file>
AV-unprocessed.smi

> <i_m_source_file_index>
1812

> <i_lp_mmshare_version>
43012

> <i_f3d_flags>
0

> <s_epik_input>
TzFbQ0gyXVtDSDJdW0NIMl1bQ0BIXTFbQ0gyXVtOSF1DKD1PKVtOSF1jMm5uYyhzMilbQ0hdM1tDSDJdW0NIMl0z

> <s_epik_cmdline>
J2VwaWtfcHl0aG9uJywgJy1waCcsICc3LjAnLCAnLXRuJywgJzgnLCAnLW1hJywgJzIwMCcsICctbWV0YWxfYmluZGluZycsICctaW1hZScsICc8aW5maWxlLm1hZT4nLCAnLW9tYWUnLCAnPG91dGZpbGUubWFlPic=

> <r_lp_tautomer_probability>
1

> <r_epik_Ionization_Penalty>
0.000281817

> <r_epik_Ionization_Penalty_Charging>
0

> <r_epik_Ionization_Penalty_Neutral>
0.000281817

> <r_epik_State_Penalty>
-0

> <r_epik_Charging_Adjusted_Penalty>
0

> <i_epik_Tot_Q>
0

> <i_epik_Tot_abs_Q>
0

> <r_epik_Metal_State_Penalty>
0.157535

> <b_epik_Metal_Only>
0

> <s_lp_Force_Field>
OPLS_2005

> <r_lp_Energy>
14.4176

> <b_lp_Chiralities_Consistent>
1

> <s_lp_Variant>
AV-unprocessed.smi:1812-2

> <Gold.Version>
5.8.1

> <Gold.Id.Protein>
6NUR|6NUR_protein|mol2

> <Gold.PLP.Fitness>
35.3594

> <Gold.PLP.PLP>
-30.7396

> <Gold.PLP.part.hbond>
-5.0000

> <Gold.PLP.part.metal>
0.0000

> <Gold.PLP.part.buried>
-1.6649

> <Gold.PLP.part.nonpolar>
-24.3037

> <Gold.PLP.part.repulsive>
0.5559

> <Gold.PLP.ligand.clash>
0.0000

> <Gold.PLP.ligand.torsion>
0.4417

> <Gold.PLP.Chemscore.Hbond>
1.7862

> <Gold.PLP.Chemscore.CHOScore>
0.0000

> <Gold.PLP.Chemscore.Metal>
0.0000

> <Gold.Chemscore.Hbonds>
donor molecule, donor type, donor heavy atom, donor atom, acceptor molecule, acceptor atom, score
      L1  H     3    19       P1  7948  1.00
      L1  H    10    29       P1  7948  0.79

> <Gold.PLP.Chemscore.Internal.Correction>
0.1444

> <Gold.Rescore>
     Score         DG    S(hbond)    S(metal)    S(lipo)     H(rot)  DE(clash)    DE(int)     intcor
     12.50     -14.63       1.79        0.00      59.46       1.47       0.59       1.53       ----

> <Gold.Chemscore.Fitness>
12.5042

> <Gold.Chemscore.DG>
-14.6329

> <Gold.Chemscore.ZeroCoef>
-5.4800

> <Gold.Chemscore.Hbond>
1.7863

> <Gold.Chemscore.Metal>
0.0000

> <Gold.Chemscore.Lipo>
59.4560

> <Gold.Chemscore.Internal_Hbond>
0.0000

> <Gold.Chemscore.DEClash>
0.5945

> <Gold.Chemscore.DEInternal>
1.5342

> <Gold.Chemscore.Rot>
1.4725

> <Gold.Chemscore.Internal.Correction>
   9.000000E+99

> <Gold.Chemscore.Hbonds>
donor molecule, donor type, donor heavy atom, donor atom, acceptor molecule, acceptor atom, score
      L1  H     3    19       P1  7948  0.98
      L1  H    10    29       P1  7948  0.70

> <Gold.Chemscore.Hbond.Weighted>
-5.9661

> <Gold.Chemscore.Metal.Weighted>
-0.0000

> <Gold.Chemscore.Lipo.Weighted>
-6.9564

> <Gold.Chemscore.Internal_Hbond.Weighted>
0.0000

> <Gold.Chemscore.DEClash.Weighted>
0.5945

> <Gold.Chemscore.DEInternal.Weighted>
1.5342

> <Gold.Chemscore.Rot.Weighted>
3.7695

> <Gold.Chemscore.Internal.Correction.Weighted>
   9.000000E+99

> <Gold.Protein.RotatedTorsions>
[ 6907 6896 6895 6894 ] final   20.29 input  -60.11 | X-H torsion
[ 7974 7965 7964 7962 ] final  129.29 input  175.53 | X-H torsion
[ 8008 7997 7996 7995 ] final -117.01 input   59.86 | X-H torsion
[ 10167 10162 10161 10158 ] final   90.13 input  -65.29 | X-H torsion
[ 10718 10713 10712 10709 ] final   39.33 input   66.30 | X-H torsion
[ 10763 10752 10751 10750 ] final  -40.98 input  -60.55 | X-H torsion
[ 11005 11000 10999 10996 ] final  108.86 input  -57.11 | X-H torsion

> <Gold.Protein.ActiveResidues>
 VAL166  LYS551  ARG553  GLY616  TRP617  ASP618  TYR619  PRO620  LYS621  CYS622 
 ASP623  PHE694  ASN695  SER759  ASP760  ASP761  ALA762  ILE779  LEU786  VAL792 
 PHE793  MET794  SER795  GLU796  ALA797  LYS798  CYS799  TRP800  GLU811  SER814 

> <Gold.Protein.RotatedAtoms>
  151.8940  135.0405  160.0500 H   0  0  0  0  0  0  0  0  0  0  0  0  # atno 6907 bound_to 6896
  152.2412  133.5133  159.5279 H   0  0  0  0  0  0  0  0  0  0  0  0  # atno 6908 bound_to 6896
  150.7054  134.1002  159.4006 H   0  0  0  0  0  0  0  0  0  0  0  0  # atno 6909 bound_to 6896
  145.0303  139.4052  143.5153 H   0  0  0  0  0  0  0  0  0  0  0  0  # atno 7974 bound_to 7965
  155.0770  140.0394  157.2627 H   0  0  0  0  0  0  0  0  0  0  0  0  # atno 8008 bound_to 7997
  154.6937  140.2659  155.6762 H   0  0  0  0  0  0  0  0  0  0  0  0  # atno 8009 bound_to 7997
  156.2737  140.2754  156.1524 H   0  0  0  0  0  0  0  0  0  0  0  0  # atno 8010 bound_to 7997
  139.8503  144.6597  150.9177 H   0  0  0  0  0  0  0  0  0  0  0  0  # atno 10167 bound_to 10162
  157.3693  130.7692  149.7106 H   0  0  0  0  0  0  0  0  0  0  0  0  # atno 10718 bound_to 10713
  153.9550  135.6746  153.4744 H   0  0  0  0  0  0  0  0  0  0  0  0  # atno 10763 bound_to 10752
  153.0866  135.4896  154.8605 H   0  0  0  0  0  0  0  0  0  0  0  0  # atno 10764 bound_to 10752
  154.7304  135.3137  154.8860 H   0  0  0  0  0  0  0  0  0  0  0  0  # atno 10765 bound_to 10752
  139.8851  134.9442  156.6037 H   0  0  0  0  0  0  0  0  0  0  0  0  # atno 11005 bound_to 11000
  146.3497  139.9849  142.8692 LP  0  0  0  0  0  0  0  0  0  0  0  0  # atno 17320 bound_to 7965
  145.1780  140.9753  143.4283 LP  0  0  0  0  0  0  0  0  0  0  0  0  # atno 17321 bound_to 7965
  140.7788  143.3833  151.1438 LP  0  0  0  0  0  0  0  0  0  0  0  0  # atno 17342 bound_to 10162
  139.7472  143.8834  152.3067 LP  0  0  0  0  0  0  0  0  0  0  0  0  # atno 17343 bound_to 10162
  155.9752  130.4092  150.3865 LP  0  0  0  0  0  0  0  0  0  0  0  0  # atno 17370 bound_to 10713
  157.1954  131.0425  151.2678 LP  0  0  0  0  0  0  0  0  0  0  0  0  # atno 17371 bound_to 10713
  140.7864  133.8618  155.8610 LP  0  0  0  0  0  0  0  0  0  0  0  0  # atno 17394 bound_to 11000
  140.9716  134.1524  157.4572 LP  0  0  0  0  0  0  0  0  0  0  0  0  # atno 17395 bound_to 11000

$$$$
