AV-unprocessed.smi:3206|AV-procd|sdf|12257|dock3
  -GOLD-   2272018 93D 1   1.00000     0.00000
 Structure written by MMmdl.
 42 43  0  0  0  0  0  0  0  0  2 V2000
  145.8573  131.8194  149.2281 C   0  0  0  0  0  0  0  0  0  0  0  0
  145.3840  132.5413  150.4976 C   0  0  2  0  0  0  0  0  0  0  0  0
  144.2939  133.5817  150.1813 C   0  0  0  0  0  0  0  0  0  0  0  0
  143.8211  134.3112  151.4516 C   0  0  0  0  0  0  0  0  0  0  0  0
  144.9826  134.9742  152.2226 C   0  0  2  0  0  0  0  0  0  0  0  0
  145.5250  136.2388  151.5124 C   0  0  0  0  0  0  0  0  0  0  0  0
  146.4842  136.9718  152.3632 N   0  3  0  0  0  0  0  0  0  0  0  0
  146.6079  138.4047  152.0320 C   0  0  0  0  0  0  0  0  0  0  0  0
  147.8154  139.0358  152.7452 C   0  0  0  0  0  0  0  0  0  0  0  0
  147.5053  140.3064  153.4823 C   0  0  0  0  0  0  0  0  0  0  0  0
  148.1239  141.4696  153.2958 N   0  0  0  0  0  0  0  0  0  0  0  0
  147.4624  142.2505  154.1983 C   0  0  0  0  0  0  0  0  0  0  0  0
  146.5083  141.6435  154.8981 N   0  0  0  0  0  0  0  0  0  0  0  0
  146.5491  140.3790  154.4201 N   0  0  0  0  0  0  0  0  0  0  0  0
  145.6359  139.3817  154.9453 C   0  0  0  0  0  0  0  0  0  0  0  0
  146.0865  133.9343  152.5106 C   0  0  0  0  0  0  0  0  0  0  0  0
  146.5586  133.2048  151.2399 C   0  0  0  0  0  0  0  0  0  0  0  0
  146.3049  132.5161  148.5185 H   0  0  0  0  0  0  0  0  0  0  0  0
  145.0269  131.3214  148.7269 H   0  0  0  0  0  0  0  0  0  0  0  0
  146.6026  131.0591  149.4634 H   0  0  0  0  0  0  0  0  0  0  0  0
  144.9497  131.7903  151.1593 H   0  0  0  0  0  0  0  0  0  0  0  0
  144.6724  134.3035  149.4568 H   0  0  0  0  0  0  0  0  0  0  0  0
  143.4419  133.0931  149.7068 H   0  0  0  0  0  0  0  0  0  0  0  0
  143.0642  135.0539  151.1964 H   0  0  0  0  0  0  0  0  0  0  0  0
  143.3256  133.5917  152.1046 H   0  0  0  0  0  0  0  0  0  0  0  0
  144.5808  135.2785  153.1905 H   0  0  0  0  0  0  0  0  0  0  0  0
  146.0229  135.9779  150.5777 H   0  0  0  0  0  0  0  0  0  0  0  0
  144.7122  136.9160  151.2471 H   0  0  0  0  0  0  0  0  0  0  0  0
  146.1867  136.8884  153.3250 H   0  0  0  0  0  0  0  0  0  0  0  0
  146.7124  138.5120  150.9513 H   0  0  0  0  0  0  0  0  0  0  0  0
  145.6900  138.9174  152.3235 H   0  0  0  0  0  0  0  0  0  0  0  0
  148.2316  138.3221  153.4573 H   0  0  0  0  0  0  0  0  0  0  0  0
  148.5990  139.2474  152.0167 H   0  0  0  0  0  0  0  0  0  0  0  0
  147.6909  143.2962  154.3432 H   0  0  0  0  0  0  0  0  0  0  0  0
  145.7917  138.4178  154.4620 H   0  0  0  0  0  0  0  0  0  0  0  0
  144.6071  139.6987  154.7719 H   0  0  0  0  0  0  0  0  0  0  0  0
  145.7961  139.2662  156.0177 H   0  0  0  0  0  0  0  0  0  0  0  0
  146.9340  134.4099  153.0052 H   0  0  0  0  0  0  0  0  0  0  0  0
  145.7042  133.1959  153.2164 H   0  0  0  0  0  0  0  0  0  0  0  0
  147.2994  132.4512  151.5098 H   0  0  0  0  0  0  0  0  0  0  0  0
  147.0659  133.9052  150.5756 H   0  0  0  0  0  0  0  0  0  0  0  0
  147.3921  136.5397  152.2666 H   0  0  0  0  0  0  0  0  0  0  0  0
  1  2  1  0  0  0  0
  1 18  1  0  0  0  0
  1 19  1  0  0  0  0
  1 20  1  0  0  0  0
  2 17  1  0  0  0  0
  2  3  1  0  0  0  0
  2 21  1  0  0  0  0
  3  4  1  0  0  0  0
  3 22  1  0  0  0  0
  3 23  1  0  0  0  0
  4  5  1  0  0  0  0
  4 24  1  0  0  0  0
  4 25  1  0  0  0  0
  5  6  1  0  0  0  0
  5 16  1  0  0  0  0
  5 26  1  0  0  0  0
  6  7  1  0  0  0  0
  6 27  1  0  0  0  0
  6 28  1  0  0  0  0
  7  8  1  0  0  0  0
  7 29  1  0  0  0  0
  7 42  1  0  0  0  0
  8  9  1  0  0  0  0
  8 30  1  0  0  0  0
  8 31  1  0  0  0  0
  9 10  1  0  0  0  0
  9 32  1  0  0  0  0
  9 33  1  0  0  0  0
 10 14  1  0  0  0  0
 10 11  2  0  0  0  0
 11 12  1  0  0  0  0
 12 13  2  0  0  0  0
 12 34  1  0  0  0  0
 13 14  1  0  0  0  0
 14 15  1  0  0  0  0
 15 35  1  0  0  0  0
 15 36  1  0  0  0  0
 15 37  1  0  0  0  0
 16 17  1  0  0  0  0
 16 38  1  0  0  0  0
 16 39  1  0  0  0  0
 17 40  1  0  0  0  0
 17 41  1  0  0  0  0
M  CHG  1   7   1
M  END
> <s_m_source_file>
AV-unprocessed.smi

> <i_m_source_file_index>
3206

> <i_lp_mmshare_version>
43012

> <i_f3d_flags>
0

> <s_epik_input>
W0NIM11bQ0BASF0xW0NIMl1bQ0gyXVtDQEhdKFtDSDJdW0NIMl0xKVtDSDJdW05IXVtDSDJdW0NIMl1jMm5bY0hdbm4yW0NIM10=

> <s_epik_cmdline>
J2VwaWtfcHl0aG9uJywgJy1waCcsICc3LjAnLCAnLXRuJywgJzgnLCAnLW1hJywgJzIwMCcsICctbWV0YWxfYmluZGluZycsICctaW1hZScsICc8aW5maWxlLm1hZT4nLCAnLW9tYWUnLCAnPG91dGZpbGUubWFlPic=

> <r_lp_tautomer_probability>
1

> <r_epik_Ionization_Penalty>
0.00114491

> <r_epik_Ionization_Penalty_Charging>
0.00114083

> <r_epik_Ionization_Penalty_Neutral>
4.0852e-06

> <r_epik_State_Penalty>
-0

> <r_epik_Charging_Adjusted_Penalty>
0.00114083

> <i_epik_Tot_Q>
1

> <i_epik_Tot_abs_Q>
1

> <r_epik_Metal_State_Penalty>
-0

> <b_epik_Metal_Only>
0

> <s_lp_Force_Field>
OPLS_2005

> <r_lp_Energy>
20.2126

> <b_lp_Chiralities_Consistent>
1

> <s_lp_Variant>
AV-unprocessed.smi:3206-2

> <Gold.Version>
5.8.1

> <Gold.Id.Protein>
6NUR|6NUR_protein|mol2

> <Gold.PLP.Fitness>
38.1654

> <Gold.PLP.PLP>
-29.3892

> <Gold.PLP.part.hbond>
-2.0000

> <Gold.PLP.part.metal>
0.0000

> <Gold.PLP.part.buried>
2.4046

> <Gold.PLP.part.nonpolar>
-30.6722

> <Gold.PLP.part.repulsive>
0.6167

> <Gold.PLP.ligand.clash>
0.0000

> <Gold.PLP.ligand.torsion>
0.5574

> <Gold.PLP.Chemscore.Hbond>
2.2865

> <Gold.PLP.Chemscore.CHOScore>
1.0000

> <Gold.PLP.Chemscore.Metal>
0.0000

> <Gold.Chemscore.Hbonds>
donor molecule, donor type, donor heavy atom, donor atom, acceptor molecule, acceptor atom, score
      L1  H     7    42       P1  7948  2.00
      P1  H  8011  8017       L1    11  0.50
      L1  C    12    34       P1  8028  1.00

> <Gold.PLP.Chemscore.Internal.Correction>
0.0314

> <Gold.Rescore>
     Score         DG    S(hbond)    S(metal)    S(lipo)     H(rot)  DE(clash)    DE(int)     intcor
     10.57     -12.44       1.00        0.00      75.99       2.05       1.43       0.44       ----

> <Gold.Chemscore.Fitness>
10.5713

> <Gold.Chemscore.DG>
-12.4403

> <Gold.Chemscore.ZeroCoef>
-5.4800

> <Gold.Chemscore.Hbond>
0.9954

> <Gold.Chemscore.Metal>
0.0000

> <Gold.Chemscore.Lipo>
75.9896

> <Gold.Chemscore.Internal_Hbond>
0.0000

> <Gold.Chemscore.DEClash>
1.4308

> <Gold.Chemscore.DEInternal>
0.4382

> <Gold.Chemscore.Rot>
2.0528

> <Gold.Chemscore.Internal.Correction>
   9.000000E+99

> <Gold.Chemscore.Hbonds>
donor molecule, donor type, donor heavy atom, donor atom, acceptor molecule, acceptor atom, score
      L1  H     7    42       P1  7948  0.99
      P1  H  8011  8017       L1    11  0.45

> <Gold.Chemscore.Hbond.Weighted>
-3.3245

> <Gold.Chemscore.Metal.Weighted>
-0.0000

> <Gold.Chemscore.Lipo.Weighted>
-8.8908

> <Gold.Chemscore.Internal_Hbond.Weighted>
0.0000

> <Gold.Chemscore.DEClash.Weighted>
1.4308

> <Gold.Chemscore.DEInternal.Weighted>
0.4382

> <Gold.Chemscore.Rot.Weighted>
5.2551

> <Gold.Chemscore.Internal.Correction.Weighted>
   9.000000E+99

> <Gold.Protein.RotatedTorsions>
[ 6907 6896 6895 6894 ] final  108.50 input  -60.11 | X-H torsion
[ 7974 7965 7964 7962 ] final  -36.17 input  175.53 | X-H torsion
[ 8008 7997 7996 7995 ] final -148.04 input   59.86 | X-H torsion
[ 10167 10162 10161 10158 ] final    8.22 input  -65.29 | X-H torsion
[ 10718 10713 10712 10709 ] final  118.98 input   66.30 | X-H torsion
[ 10763 10752 10751 10750 ] final   15.68 input  -60.55 | X-H torsion
[ 11005 11000 10999 10996 ] final  -55.75 input  -57.11 | X-H torsion

> <Gold.Protein.ActiveResidues>
 VAL166  LYS551  ARG553  GLY616  TRP617  ASP618  TYR619  PRO620  LYS621  CYS622 
 ASP623  PHE694  ASN695  SER759  ASP760  ASP761  ALA762  ILE779  LEU786  VAL792 
 PHE793  MET794  SER795  GLU796  ALA797  LYS798  CYS799  TRP800  GLU811  SER814 

> <Gold.Protein.RotatedAtoms>
  152.5109  133.9080  159.7473 H   0  0  0  0  0  0  0  0  0  0  0  0  # atno 6907 bound_to 6896
  150.9480  133.6572  159.2784 H   0  0  0  0  0  0  0  0  0  0  0  0  # atno 6908 bound_to 6896
  151.3860  135.0953  159.9564 H   0  0  0  0  0  0  0  0  0  0  0  0  # atno 6909 bound_to 6896
  146.0684  140.6246  142.8964 H   0  0  0  0  0  0  0  0  0  0  0  0  # atno 7974 bound_to 7965
  155.5852  140.0647  157.2773 H   0  0  0  0  0  0  0  0  0  0  0  0  # atno 8008 bound_to 7997
  154.4321  140.1845  156.1064 H   0  0  0  0  0  0  0  0  0  0  0  0  # atno 8009 bound_to 7997
  156.0275  140.3310  155.7107 H   0  0  0  0  0  0  0  0  0  0  0  0  # atno 8010 bound_to 7997
  140.6327  143.7957  150.7317 H   0  0  0  0  0  0  0  0  0  0  0  0  # atno 10167 bound_to 10162
  157.5993  131.1053  150.7832 H   0  0  0  0  0  0  0  0  0  0  0  0  # atno 10718 bound_to 10713
  153.1502  135.6777  153.8893 H   0  0  0  0  0  0  0  0  0  0  0  0  # atno 10763 bound_to 10752
  153.8322  135.3116  155.3421 H   0  0  0  0  0  0  0  0  0  0  0  0  # atno 10764 bound_to 10752
  154.7857  135.4864  154.0026 H   0  0  0  0  0  0  0  0  0  0  0  0  # atno 10765 bound_to 10752
  141.1088  133.6611  156.4516 H   0  0  0  0  0  0  0  0  0  0  0  0  # atno 11005 bound_to 11000
  144.7217  140.4393  143.7003 LP  0  0  0  0  0  0  0  0  0  0  0  0  # atno 17320 bound_to 7965
  145.6435  139.1553  143.2902 LP  0  0  0  0  0  0  0  0  0  0  0  0  # atno 17321 bound_to 7965
  140.1572  143.4307  152.2092 LP  0  0  0  0  0  0  0  0  0  0  0  0  # atno 17342 bound_to 10162
  139.5540  144.7359  151.4350 LP  0  0  0  0  0  0  0  0  0  0  0  0  # atno 17343 bound_to 10162
  156.8235  130.4992  149.5340 LP  0  0  0  0  0  0  0  0  0  0  0  0  # atno 17370 bound_to 10713
  156.1063  130.6007  150.9975 LP  0  0  0  0  0  0  0  0  0  0  0  0  # atno 17371 bound_to 10713
  140.4830  134.6647  157.5179 LP  0  0  0  0  0  0  0  0  0  0  0  0  # atno 17394 bound_to 11000
  139.9972  134.6893  155.9590 LP  0  0  0  0  0  0  0  0  0  0  0  0  # atno 17395 bound_to 11000

$$$$
