AV-unprocessed.smi:310|AV-procd|sdf|2295|dock1
  -GOLD-   2262022193D 1   1.00000     0.00000
 Structure written by MMmdl.
 41 43  0  0  0  0  0  0  0  0  1 V2000
  152.7606  143.1842  161.9590 C   0  0  0  0  0  0  0  0  0  0  0  0
  152.1669  143.5033  160.6298 C   0  0  0  0  0  0  0  0  0  0  0  0
  151.6791  142.7259  159.6172 C   0  0  0  0  0  0  0  0  0  0  0  0
  151.2700  143.6812  158.6490 C   0  0  0  0  0  0  0  0  0  0  0  0
  150.6946  143.2704  157.4194 N   0  0  0  0  0  0  0  0  0  0  0  0
  150.6286  142.0238  156.9210 C   0  0  0  0  0  0  0  0  0  0  0  0
  151.0631  141.0143  157.4759 O   0  0  0  0  0  0  0  0  0  0  0  0
  150.0221  142.0092  155.7247 N   0  0  0  0  0  0  0  0  0  0  0  0
  149.7996  140.8201  154.9073 C   0  0  0  0  0  0  0  0  0  0  0  0
  148.7054  139.9437  155.5548 C   0  0  0  0  0  0  0  0  0  0  0  0
  148.5755  138.5955  154.8253 C   0  0  0  0  0  0  0  0  0  0  0  0
  149.8826  137.9247  154.8397 N   0  0  0  0  0  0  0  0  0  0  0  0
  150.2045  136.8167  155.5534 C   0  0  0  0  0  0  0  0  0  0  0  0
  151.3081  136.2769  155.4615 O   0  0  0  0  0  0  0  0  0  0  0  0
  149.1649  136.2810  156.4919 C   0  0  0  0  0  0  0  0  0  0  0  0
  149.4669  136.2764  157.9801 C   0  0  0  0  0  0  0  0  0  0  0  0
  149.4885  134.9848  157.2047 C   0  0  0  0  0  0  0  0  0  0  0  0
  150.8675  138.6687  154.0448 C   0  0  0  0  0  0  0  0  0  0  0  0
  151.1171  140.0323  154.7165 C   0  0  0  0  0  0  0  0  0  0  0  0
  151.4888  144.9288  159.0352 N   0  0  0  0  0  0  0  0  0  0  0  0
  152.0652  144.8210  160.3065 O   0  0  0  0  0  0  0  0  0  0  0  0
  152.7293  142.1119  162.1533 H   0  0  0  0  0  0  0  0  0  0  0  0
  152.2150  143.6882  162.7570 H   0  0  0  0  0  0  0  0  0  0  0  0
  153.8012  143.5058  162.0043 H   0  0  0  0  0  0  0  0  0  0  0  0
  151.6243  141.6481  159.5788 H   0  0  0  0  0  0  0  0  0  0  0  0
  150.2953  144.0062  156.8560 H   0  0  0  0  0  0  0  0  0  0  0  0
  149.6946  142.8861  155.3469 H   0  0  0  0  0  0  0  0  0  0  0  0
  149.4365  141.1244  153.9236 H   0  0  0  0  0  0  0  0  0  0  0  0
  148.9444  139.7615  156.6039 H   0  0  0  0  0  0  0  0  0  0  0  0
  147.7496  140.4684  155.5412 H   0  0  0  0  0  0  0  0  0  0  0  0
  147.7708  138.0020  155.2569 H   0  0  0  0  0  0  0  0  0  0  0  0
  148.2739  138.7655  153.7907 H   0  0  0  0  0  0  0  0  0  0  0  0
  148.1255  136.4688  156.2292 H   0  0  0  0  0  0  0  0  0  0  0  0
  150.4235  136.6581  158.3320 H   0  0  0  0  0  0  0  0  0  0  0  0
  148.6299  136.4528  158.6524 H   0  0  0  0  0  0  0  0  0  0  0  0
  148.6687  134.2847  157.3514 H   0  0  0  0  0  0  0  0  0  0  0  0
  150.4594  134.5266  157.0228 H   0  0  0  0  0  0  0  0  0  0  0  0
  151.8131  138.1371  153.9319 H   0  0  0  0  0  0  0  0  0  0  0  0
  150.4860  138.8119  153.0328 H   0  0  0  0  0  0  0  0  0  0  0  0
  151.8212  140.6145  154.1211 H   0  0  0  0  0  0  0  0  0  0  0  0
  151.5933  139.8692  155.6846 H   0  0  0  0  0  0  0  0  0  0  0  0
  1  2  1  0  0  0  0
  1 22  1  0  0  0  0
  1 23  1  0  0  0  0
  1 24  1  0  0  0  0
  2 21  1  0  0  0  0
  2  3  2  0  0  0  0
  3  4  1  0  0  0  0
  3 25  1  0  0  0  0
  4  5  1  0  0  0  0
  4 20  2  0  0  0  0
  5  6  1  0  0  0  0
  5 26  1  0  0  0  0
  6  7  2  0  0  0  0
  6  8  1  0  0  0  0
  8  9  1  0  0  0  0
  8 27  1  0  0  0  0
  9 19  1  0  0  0  0
  9 10  1  0  0  0  0
  9 28  1  0  0  0  0
 10 11  1  0  0  0  0
 10 29  1  0  0  0  0
 10 30  1  0  0  0  0
 11 12  1  0  0  0  0
 11 31  1  0  0  0  0
 11 32  1  0  0  0  0
 12 13  1  0  0  0  0
 12 18  1  0  0  0  0
 13 14  2  0  0  0  0
 13 15  1  0  0  0  0
 15 17  1  0  0  0  0
 15 16  1  0  0  0  0
 15 33  1  0  0  0  0
 16 17  1  0  0  0  0
 16 34  1  0  0  0  0
 16 35  1  0  0  0  0
 17 36  1  0  0  0  0
 17 37  1  0  0  0  0
 18 19  1  0  0  0  0
 18 38  1  0  0  0  0
 18 39  1  0  0  0  0
 19 40  1  0  0  0  0
 19 41  1  0  0  0  0
 20 21  1  0  0  0  0
M  END
> <s_m_source_file>
AV-unprocessed.smi

> <i_m_source_file_index>
310

> <i_lp_mmshare_version>
43012

> <i_f3d_flags>
0

> <s_epik_input>
W0NIM11jMVtjSF1jKG5vMSlbTkhdQyg9TylbTkhdW0NIXTJbQ0gyXVtDSDJdTihbQ0gyXVtDSDJdMilDKD1PKVtDSF0zW0NIMl1bQ0gyXTM=

> <s_epik_cmdline>
J2VwaWtfcHl0aG9uJywgJy1waCcsICc3LjAnLCAnLXRuJywgJzgnLCAnLW1hJywgJzIwMCcsICctbWV0YWxfYmluZGluZycsICctaW1hZScsICc8aW5maWxlLm1hZT4nLCAnLW9tYWUnLCAnPG91dGZpbGUubWFlPic=

> <r_lp_tautomer_probability>
1

> <r_epik_Ionization_Penalty>
2.91812e-05

> <r_epik_Ionization_Penalty_Charging>
0

> <r_epik_Ionization_Penalty_Neutral>
2.91812e-05

> <r_epik_State_Penalty>
-0

> <r_epik_Charging_Adjusted_Penalty>
0

> <i_epik_Tot_Q>
0

> <i_epik_Tot_abs_Q>
0

> <r_epik_Metal_State_Penalty>
0.00922567

> <b_epik_Metal_Only>
0

> <s_lp_Force_Field>
OPLS_2005

> <r_lp_Energy>
27.9216

> <b_lp_Chiralities_Consistent>
1

> <s_lp_Variant>
AV-unprocessed.smi:310-1

> <Gold.Version>
5.8.1

> <Gold.Id.Protein>
6NUR|6NUR_protein|mol2

> <Gold.PLP.Fitness>
40.3226

> <Gold.PLP.PLP>
-31.5576

> <Gold.PLP.part.hbond>
-3.0000

> <Gold.PLP.part.metal>
0.0000

> <Gold.PLP.part.buried>
-2.4941

> <Gold.PLP.part.nonpolar>
-25.4229

> <Gold.PLP.part.repulsive>
0.4540

> <Gold.PLP.ligand.clash>
0.0000

> <Gold.PLP.ligand.torsion>
0.1799

> <Gold.PLP.Chemscore.Hbond>
3.0000

> <Gold.PLP.Chemscore.CHOScore>
0.0000

> <Gold.PLP.Chemscore.Metal>
0.0000

> <Gold.Chemscore.Hbonds>
donor molecule, donor type, donor heavy atom, donor atom, acceptor molecule, acceptor atom, score
      L1  H     5    26       P1  8028  1.00
      L1  H     8    27       P1  8028  0.99
      P1  H 10752 10764       L1    14  1.00

> <Gold.PLP.Chemscore.Internal.Correction>
0.1249

> <Gold.Rescore>
     Score         DG    S(hbond)    S(metal)    S(lipo)     H(rot)  DE(clash)    DE(int)     intcor
     16.22     -20.22       2.91        0.00      70.60       1.26       1.59       2.41       ----

> <Gold.Chemscore.Fitness>
16.2162

> <Gold.Chemscore.DG>
-20.2231

> <Gold.Chemscore.ZeroCoef>
-5.4800

> <Gold.Chemscore.Hbond>
2.9079

> <Gold.Chemscore.Metal>
0.0000

> <Gold.Chemscore.Lipo>
70.6013

> <Gold.Chemscore.Internal_Hbond>
0.0000

> <Gold.Chemscore.DEClash>
1.5944

> <Gold.Chemscore.DEInternal>
2.4125

> <Gold.Chemscore.Rot>
1.2615

> <Gold.Chemscore.Internal.Correction>
   9.000000E+99

> <Gold.Chemscore.Hbonds>
donor molecule, donor type, donor heavy atom, donor atom, acceptor molecule, acceptor atom, score
      L1  H     5    26       P1  8028  0.95
      L1  H     8    27       P1  8028  0.88
      P1  H 10752 10764       L1    14  0.92

> <Gold.Chemscore.Hbond.Weighted>
-9.7123

> <Gold.Chemscore.Metal.Weighted>
-0.0000

> <Gold.Chemscore.Lipo.Weighted>
-8.2604

> <Gold.Chemscore.Internal_Hbond.Weighted>
0.0000

> <Gold.Chemscore.DEClash.Weighted>
1.5944

> <Gold.Chemscore.DEInternal.Weighted>
2.4125

> <Gold.Chemscore.Rot.Weighted>
3.2295

> <Gold.Chemscore.Internal.Correction.Weighted>
   9.000000E+99

> <Gold.Protein.RotatedTorsions>
[ 6907 6896 6895 6894 ] final   34.38 input  -60.11 | X-H torsion
[ 7974 7965 7964 7962 ] final  -36.59 input  175.53 | X-H torsion
[ 8008 7997 7996 7995 ] final   59.57 input   59.86 | X-H torsion
[ 10167 10162 10161 10158 ] final  136.97 input  -65.29 | X-H torsion
[ 10718 10713 10712 10709 ] final   23.16 input   66.30 | X-H torsion
[ 10763 10752 10751 10750 ] final  -69.68 input  -60.55 | X-H torsion
[ 11005 11000 10999 10996 ] final -132.42 input  -57.11 | X-H torsion

> <Gold.Protein.ActiveResidues>
 VAL166  LYS551  ARG553  GLY616  TRP617  ASP618  TYR619  PRO620  LYS621  CYS622 
 ASP623  PHE694  ASN695  SER759  ASP760  ASP761  ALA762  ILE779  LEU786  VAL792 
 PHE793  MET794  SER795  GLU796  ALA797  LYS798  CYS799  TRP800  GLU811  SER814 

> <Gold.Protein.RotatedAtoms>
  152.1017  134.9337  160.0569 H   0  0  0  0  0  0  0  0  0  0  0  0  # atno 6907 bound_to 6896
  152.0549  133.4031  159.4401 H   0  0  0  0  0  0  0  0  0  0  0  0  # atno 6908 bound_to 6896
  150.6839  134.3186  159.4820 H   0  0  0  0  0  0  0  0  0  0  0  0  # atno 6909 bound_to 6896
  146.0648  140.6296  142.8980 H   0  0  0  0  0  0  0  0  0  0  0  0  # atno 7974 bound_to 7965
  155.5683  140.3489  155.4509 H   0  0  0  0  0  0  0  0  0  0  0  0  # atno 8008 bound_to 7997
  156.0463  140.1307  157.0125 H   0  0  0  0  0  0  0  0  0  0  0  0  # atno 8009 bound_to 7997
  154.4414  140.1014  156.6296 H   0  0  0  0  0  0  0  0  0  0  0  0  # atno 8010 bound_to 7997
  139.5161  144.6436  151.5502 H   0  0  0  0  0  0  0  0  0  0  0  0  # atno 10167 bound_to 10162
  157.1623  130.6722  149.6048 H   0  0  0  0  0  0  0  0  0  0  0  0  # atno 10718 bound_to 10713
  154.4069  135.6018  153.5929 H   0  0  0  0  0  0  0  0  0  0  0  0  # atno 10763 bound_to 10752
  152.9789  135.5920  154.4117 H   0  0  0  0  0  0  0  0  0  0  0  0  # atno 10764 bound_to 10752
  154.3924  135.2842  155.2125 H   0  0  0  0  0  0  0  0  0  0  0  0  # atno 10765 bound_to 10752
  140.9172  134.1491  157.4343 H   0  0  0  0  0  0  0  0  0  0  0  0  # atno 11005 bound_to 11000
  144.7196  140.4329  143.7018 LP  0  0  0  0  0  0  0  0  0  0  0  0  # atno 17320 bound_to 7965
  145.6496  139.1563  143.2870 LP  0  0  0  0  0  0  0  0  0  0  0  0  # atno 17321 bound_to 7965
  140.6212  143.9255  150.6527 LP  0  0  0  0  0  0  0  0  0  0  0  0  # atno 17342 bound_to 10162
  140.2529  143.3580  152.1390 LP  0  0  0  0  0  0  0  0  0  0  0  0  # atno 17343 bound_to 10162
  155.9752  130.4707  150.6441 LP  0  0  0  0  0  0  0  0  0  0  0  0  # atno 17370 bound_to 10713
  157.4121  131.0825  151.1211 LP  0  0  0  0  0  0  0  0  0  0  0  0  # atno 17371 bound_to 10713
  139.8768  134.9958  156.5761 LP  0  0  0  0  0  0  0  0  0  0  0  0  # atno 17394 bound_to 11000
  140.8034  133.8486  155.8747 LP  0  0  0  0  0  0  0  0  0  0  0  0  # atno 17395 bound_to 11000

$$$$
