AV-unprocessed.smi:2270|AV-procd|sdf|9154|dock5
  -GOLD-   2272012363D 1   1.00000     0.00000
 Structure written by MMmdl.
 53 54  0  0  0  0  0  0  0  0  2 V2000
  152.7855  141.4131  160.4269 C   0  0  0  0  0  0  0  0  0  0  0  0
  152.3437  142.6123  159.6149 C   0  0  0  0  0  0  0  0  0  0  0  0
  153.2832  143.5357  159.1171 C   0  0  0  0  0  0  0  0  0  0  0  0
  152.8075  144.6242  158.3651 C   0  0  0  0  0  0  0  0  0  0  0  0
  151.4217  144.7487  158.1491 C   0  0  0  0  0  0  0  0  0  0  0  0
  150.5420  143.7833  158.7025 C   0  0  0  0  0  0  0  0  0  0  0  0
  149.1428  143.8677  158.4756 N   0  0  0  0  0  0  0  0  0  0  0  0
  148.2253  142.8895  158.5696 C   0  0  0  0  0  0  0  0  0  0  0  0
  148.4617  141.7209  158.8766 O   0  0  0  0  0  0  0  0  0  0  0  0
  146.9998  143.3439  158.2722 N   0  0  0  0  0  0  0  0  0  0  0  0
  145.7773  142.5504  158.3077 C   0  0  0  0  0  0  0  0  0  0  0  0
  144.5513  143.3024  157.7043 C   0  0  2  0  0  0  0  0  0  0  0  0
  143.4114  143.5674  158.7494 C   0  0  0  0  0  0  0  0  0  0  0  0
  143.8363  144.5049  159.8945 C   0  0  0  0  0  0  0  0  0  0  0  0
  142.7536  142.2857  159.2939 C   0  0  0  0  0  0  0  0  0  0  0  0
  143.9790  142.6079  156.5247 N   0  0  0  0  0  0  0  0  0  0  0  0
  142.8415  143.2988  155.8904 C   0  0  0  0  0  0  0  0  0  0  0  0
  143.2769  144.5410  155.0822 C   0  0  0  0  0  0  0  0  0  0  0  0
  144.2619  144.1657  154.0432 N   0  3  0  0  0  0  0  0  0  0  0  0
  144.6808  145.3120  153.2093 C   0  0  0  0  0  0  0  0  0  0  0  0
  145.4037  143.4488  154.6528 C   0  0  0  0  0  0  0  0  0  0  0  0
  144.8953  142.2229  155.4403 C   0  0  0  0  0  0  0  0  0  0  0  0
  151.0140  142.7286  159.4066 N   0  0  0  0  0  0  0  0  0  0  0  0
  153.8705  141.3835  160.5307 H   0  0  0  0  0  0  0  0  0  0  0  0
  152.4644  140.4891  159.9452 H   0  0  0  0  0  0  0  0  0  0  0  0
  152.3496  141.4505  161.4256 H   0  0  0  0  0  0  0  0  0  0  0  0
  154.3408  143.4134  159.3001 H   0  0  0  0  0  0  0  0  0  0  0  0
  153.4941  145.3503  157.9557 H   0  0  0  0  0  0  0  0  0  0  0  0
  151.0573  145.5727  157.5542 H   0  0  0  0  0  0  0  0  0  0  0  0
  148.8187  144.7496  158.1073 H   0  0  0  0  0  0  0  0  0  0  0  0
  146.9021  144.3178  158.0250 H   0  0  0  0  0  0  0  0  0  0  0  0
  146.0109  141.6531  157.7370 H   0  0  0  0  0  0  0  0  0  0  0  0
  145.5536  142.2204  159.3236 H   0  0  0  0  0  0  0  0  0  0  0  0
  144.9254  144.2662  157.3618 H   0  0  0  0  0  0  0  0  0  0  0  0
  142.6025  144.1090  158.2667 H   0  0  0  0  0  0  0  0  0  0  0  0
  144.5271  144.0333  160.5910 H   0  0  0  0  0  0  0  0  0  0  0  0
  142.9684  144.8170  160.4759 H   0  0  0  0  0  0  0  0  0  0  0  0
  144.3096  145.4087  159.5100 H   0  0  0  0  0  0  0  0  0  0  0  0
  143.4306  141.7146  159.9289 H   0  0  0  0  0  0  0  0  0  0  0  0
  142.4268  141.6353  158.4821 H   0  0  0  0  0  0  0  0  0  0  0  0
  141.8749  142.5247  159.8937 H   0  0  0  0  0  0  0  0  0  0  0  0
  142.3461  142.5945  155.2205 H   0  0  0  0  0  0  0  0  0  0  0  0
  142.0803  143.5895  156.6102 H   0  0  0  0  0  0  0  0  0  0  0  0
  142.4027  144.9798  154.5996 H   0  0  0  0  0  0  0  0  0  0  0  0
  143.6905  145.3126  155.7321 H   0  0  0  0  0  0  0  0  0  0  0  0
  145.1948  146.0656  153.8077 H   0  0  0  0  0  0  0  0  0  0  0  0
  143.8159  145.7804  152.7385 H   0  0  0  0  0  0  0  0  0  0  0  0
  145.3548  144.9849  152.4171 H   0  0  0  0  0  0  0  0  0  0  0  0
  146.0816  143.1184  153.8652 H   0  0  0  0  0  0  0  0  0  0  0  0
  145.9691  144.1269  155.2931 H   0  0  0  0  0  0  0  0  0  0  0  0
  145.7245  141.6236  155.8143 H   0  0  0  0  0  0  0  0  0  0  0  0
  144.3605  141.5599  154.7586 H   0  0  0  0  0  0  0  0  0  0  0  0
  143.8019  143.5086  153.4292 H   0  0  0  0  0  0  0  0  0  0  0  0
  1  2  1  0  0  0  0
  1 24  1  0  0  0  0
  1 25  1  0  0  0  0
  1 26  1  0  0  0  0
  2 23  1  0  0  0  0
  2  3  2  0  0  0  0
  3  4  1  0  0  0  0
  3 27  1  0  0  0  0
  4  5  2  0  0  0  0
  4 28  1  0  0  0  0
  5  6  1  0  0  0  0
  5 29  1  0  0  0  0
  6  7  1  0  0  0  0
  6 23  2  0  0  0  0
  7  8  1  0  0  0  0
  7 30  1  0  0  0  0
  8  9  2  0  0  0  0
  8 10  1  0  0  0  0
 10 11  1  0  0  0  0
 10 31  1  0  0  0  0
 11 12  1  0  0  0  0
 11 32  1  0  0  0  0
 11 33  1  0  0  0  0
 12 13  1  0  0  0  0
 12 16  1  0  0  0  0
 12 34  1  0  0  0  0
 13 14  1  0  0  0  0
 13 15  1  0  0  0  0
 13 35  1  0  0  0  0
 14 36  1  0  0  0  0
 14 37  1  0  0  0  0
 14 38  1  0  0  0  0
 15 39  1  0  0  0  0
 15 40  1  0  0  0  0
 15 41  1  0  0  0  0
 16 22  1  0  0  0  0
 16 17  1  0  0  0  0
 17 18  1  0  0  0  0
 17 42  1  0  0  0  0
 17 43  1  0  0  0  0
 18 19  1  0  0  0  0
 18 44  1  0  0  0  0
 18 45  1  0  0  0  0
 19 20  1  0  0  0  0
 19 21  1  0  0  0  0
 19 53  1  0  0  0  0
 20 46  1  0  0  0  0
 20 47  1  0  0  0  0
 20 48  1  0  0  0  0
 21 22  1  0  0  0  0
 21 49  1  0  0  0  0
 21 50  1  0  0  0  0
 22 51  1  0  0  0  0
 22 52  1  0  0  0  0
M  CHG  1  19   1
M  END
> <s_m_source_file>
AV-unprocessed.smi

> <i_m_source_file_index>
2270

> <i_lp_mmshare_version>
43012

> <i_f3d_flags>
0

> <s_epik_input>
W0NIM11jMVtjSF1bY0hdW2NIXWMobjEpW05IXUMoPU8pW05IXVtDSDJdW0NASF0oW0NIXShbQ0gzXSlbQ0gzXSlOMltDSDJdW0NIMl1OKFtDSDNdKVtDSDJdW0NIMl0y

> <s_epik_cmdline>
J2VwaWtfcHl0aG9uJywgJy1waCcsICc3LjAnLCAnLXRuJywgJzgnLCAnLW1hJywgJzIwMCcsICctbWV0YWxfYmluZGluZycsICctaW1hZScsICc8aW5maWxlLm1hZT4nLCAnLW9tYWUnLCAnPG91dGZpbGUubWFlPic=

> <r_epik_Ionization_Penalty>
0.0278292

> <r_epik_Ionization_Penalty_Charging>
0.0272987

> <r_epik_Ionization_Penalty_Neutral>
0.000530468

> <r_epik_State_Penalty>
0.0776825

> <r_epik_Charging_Adjusted_Penalty>
0.104981

> <i_epik_Tot_Q>
1

> <i_epik_Tot_abs_Q>
1

> <r_epik_Metal_State_Penalty>
0.0776809

> <b_epik_Metal_Only>
0

> <s_lp_Force_Field>
OPLS_2005

> <r_lp_Energy>
34.9975

> <b_lp_Chiralities_Consistent>
1

> <s_lp_Variant>
AV-unprocessed.smi:2270-1

> <Gold.Version>
5.8.1

> <Gold.Id.Protein>
6NUR|6NUR_protein|mol2

> <Gold.PLP.Fitness>
48.7120

> <Gold.PLP.PLP>
-38.5842

> <Gold.PLP.part.hbond>
-6.2842

> <Gold.PLP.part.metal>
0.0000

> <Gold.PLP.part.buried>
-3.3328

> <Gold.PLP.part.nonpolar>
-29.9093

> <Gold.PLP.part.repulsive>
0.3110

> <Gold.PLP.ligand.clash>
0.0000

> <Gold.PLP.ligand.torsion>
0.9338

> <Gold.PLP.Chemscore.Hbond>
3.9280

> <Gold.PLP.Chemscore.CHOScore>
0.0000

> <Gold.PLP.Chemscore.Metal>
0.0000

> <Gold.Chemscore.Hbonds>
donor molecule, donor type, donor heavy atom, donor atom, acceptor molecule, acceptor atom, score
      L1  H     7    30       P1  8029  1.00
      L1  H    10    31       P1  8029  0.90
      L1  H    19    53       P1 10174  2.00

> <Gold.PLP.Chemscore.Internal.Correction>
0.2113

> <Gold.Rescore>
     Score         DG    S(hbond)    S(metal)    S(lipo)     H(rot)  DE(clash)    DE(int)     intcor
     16.85     -19.38       2.19        0.00      91.53       1.61       0.18       2.35       ----

> <Gold.Chemscore.Fitness>
16.8476

> <Gold.Chemscore.DG>
-19.3776

> <Gold.Chemscore.ZeroCoef>
-5.4800

> <Gold.Chemscore.Hbond>
2.1864

> <Gold.Chemscore.Metal>
0.0000

> <Gold.Chemscore.Lipo>
91.5287

> <Gold.Chemscore.Internal_Hbond>
0.0000

> <Gold.Chemscore.DEClash>
0.1818

> <Gold.Chemscore.DEInternal>
2.3483

> <Gold.Chemscore.Rot>
1.6070

> <Gold.Chemscore.Internal.Correction>
   9.000000E+99

> <Gold.Chemscore.Hbonds>
donor molecule, donor type, donor heavy atom, donor atom, acceptor molecule, acceptor atom, score
      L1  H     7    30       P1  8029  0.35
      L1  H    10    31       P1  8029  0.33
      L1  H    19    53       P1 10174  0.53

> <Gold.Chemscore.Hbond.Weighted>
-7.3027

> <Gold.Chemscore.Metal.Weighted>
-0.0000

> <Gold.Chemscore.Lipo.Weighted>
-10.7089

> <Gold.Chemscore.Internal_Hbond.Weighted>
0.0000

> <Gold.Chemscore.DEClash.Weighted>
0.1818

> <Gold.Chemscore.DEInternal.Weighted>
2.3483

> <Gold.Chemscore.Rot.Weighted>
4.1140

> <Gold.Chemscore.Internal.Correction.Weighted>
   9.000000E+99

> <Gold.Protein.RotatedTorsions>
[ 6907 6896 6895 6894 ] final  125.83 input  -60.11 | X-H torsion
[ 7974 7965 7964 7962 ] final -153.38 input  175.53 | X-H torsion
[ 8008 7997 7996 7995 ] final  175.32 input   59.86 | X-H torsion
[ 10167 10162 10161 10158 ] final   16.97 input  -65.29 | X-H torsion
[ 10718 10713 10712 10709 ] final  -52.91 input   66.30 | X-H torsion
[ 10763 10752 10751 10750 ] final   71.97 input  -60.55 | X-H torsion
[ 11005 11000 10999 10996 ] final  -53.37 input  -57.11 | X-H torsion

> <Gold.Protein.ActiveResidues>
 VAL166  LYS551  ARG553  GLY616  TRP617  ASP618  TYR619  PRO620  LYS621  CYS622 
 ASP623  PHE694  ASN695  SER759  ASP760  ASP761  ALA762  ILE779  LEU786  VAL792 
 PHE793  MET794  SER795  GLU796  ALA797  LYS798  CYS799  TRP800  GLU811  SER814 

> <Gold.Protein.RotatedAtoms>
  152.3957  133.6743  159.6274 H   0  0  0  0  0  0  0  0  0  0  0  0  # atno 6907 bound_to 6896
  150.7857  133.8878  159.3313 H   0  0  0  0  0  0  0  0  0  0  0  0  # atno 6908 bound_to 6896
  151.6655  135.0985  160.0239 H   0  0  0  0  0  0  0  0  0  0  0  0  # atno 6909 bound_to 6896
  144.7744  140.4533  143.5884 H   0  0  0  0  0  0  0  0  0  0  0  0  # atno 7974 bound_to 7965
  156.0882  140.1412  156.9625 H   0  0  0  0  0  0  0  0  0  0  0  0  # atno 8008 bound_to 7997
  154.4626  140.0938  156.6981 H   0  0  0  0  0  0  0  0  0  0  0  0  # atno 8009 bound_to 7997
  155.4963  140.3449  155.4365 H   0  0  0  0  0  0  0  0  0  0  0  0  # atno 8010 bound_to 7997
  140.5759  143.9073  150.6750 H   0  0  0  0  0  0  0  0  0  0  0  0  # atno 10167 bound_to 10162
  156.1580  130.4150  149.9838 H   0  0  0  0  0  0  0  0  0  0  0  0  # atno 10718 bound_to 10713
  153.0430  135.5117  154.7673 H   0  0  0  0  0  0  0  0  0  0  0  0  # atno 10763 bound_to 10752
  154.6595  135.2936  154.9886 H   0  0  0  0  0  0  0  0  0  0  0  0  # atno 10764 bound_to 10752
  154.0742  135.6673  153.4881 H   0  0  0  0  0  0  0  0  0  0  0  0  # atno 10765 bound_to 10752
  141.0972  133.6623  156.4162 H   0  0  0  0  0  0  0  0  0  0  0  0  # atno 11005 bound_to 11000
  145.6230  139.1526  143.3012 LP  0  0  0  0  0  0  0  0  0  0  0  0  # atno 17320 bound_to 7965
  146.1913  140.6339  142.9144 LP  0  0  0  0  0  0  0  0  0  0  0  0  # atno 17321 bound_to 7965
  140.2560  143.3558  152.1364 LP  0  0  0  0  0  0  0  0  0  0  0  0  # atno 17342 bound_to 10162
  139.5143  144.6945  151.5668 LP  0  0  0  0  0  0  0  0  0  0  0  0  # atno 17343 bound_to 10162
  156.7676  130.9174  151.3643 LP  0  0  0  0  0  0  0  0  0  0  0  0  # atno 17370 bound_to 10713
  157.6710  130.9051  150.0041 LP  0  0  0  0  0  0  0  0  0  0  0  0  # atno 17371 bound_to 10713
  140.5110  134.6395  157.5284 LP  0  0  0  0  0  0  0  0  0  0  0  0  # atno 17394 bound_to 11000
  139.9812  134.7134  155.9855 LP  0  0  0  0  0  0  0  0  0  0  0  0  # atno 17395 bound_to 11000

$$$$
