AV-unprocessed.smi:208|AV-procd|sdf|1605|dock3
  -GOLD-   2262019523D 1   1.00000     0.00000
 Structure written by MMmdl.
 50 53  0  0  0  0  0  0  0  0  1 V2000
  151.9942  145.6370  159.0822 C   0  0  0  0  0  0  0  0  0  0  0  0
  152.7950  144.3667  158.7512 C   0  0  0  0  0  0  0  0  0  0  0  0
  152.4214  143.0938  159.5502 C   0  0  2  0  0  0  0  0  0  0  0  0
  152.4639  143.3118  161.0826 C   0  0  0  0  0  0  0  0  0  0  0  0
  151.8114  144.2423  161.5579 O   0  0  0  0  0  0  0  0  0  0  0  0
  153.1981  142.4770  161.8573 N   0  0  0  0  0  0  0  0  0  0  0  0
  153.2331  142.6404  163.3111 C   0  0  0  0  0  0  0  0  0  0  0  0
  153.9815  141.3521  161.3319 C   0  0  0  0  0  0  0  0  0  0  0  0
  154.3749  141.5445  159.8619 C   0  0  0  0  0  0  0  0  0  0  0  0
  153.2132  141.9488  159.0797 N   0  0  0  0  0  0  0  0  0  0  0  0
  152.5521  140.9228  158.4954 C   0  0  0  0  0  0  0  0  0  0  0  0
  153.2295  139.7585  158.3406 N   0  0  0  0  0  0  0  0  0  0  0  0
  152.6281  138.7047  157.7805 C   0  0  0  0  0  0  0  0  0  0  0  0
  151.3788  138.6024  157.3219 N   0  0  0  0  0  0  0  0  0  0  0  0
  150.6912  139.7686  157.4862 C   0  0  0  0  0  0  0  0  0  0  0  0
  151.1957  140.9676  158.0639 C   0  0  0  0  0  0  0  0  0  0  0  0
  150.2014  141.9383  158.0833 N   0  0  0  0  0  0  0  0  0  0  0  0
  149.1707  141.3495  157.5423 C   0  0  0  0  0  0  0  0  0  0  0  0
  149.3796  140.0484  157.1426 N   0  0  0  0  0  0  0  0  0  0  0  0
  148.4058  139.1683  156.5143 C   0  0  0  0  0  0  0  0  0  0  0  0
  148.6856  138.8766  155.0250 C   0  0  0  0  0  0  0  0  0  0  0  0
  150.0477  138.1821  154.8479 C   0  0  0  0  0  0  0  0  0  0  0  0
  150.3827  138.0391  153.4821 O   0  0  0  0  0  0  0  0  0  0  0  0
  147.5389  138.2233  154.2400 C   0  0  0  0  0  0  0  0  0  0  0  0
  147.6273  139.2065  153.1874 O   0  0  0  0  0  0  0  0  0  0  0  0
  148.4255  140.0383  154.0557 C   0  0  0  0  0  0  0  0  0  0  0  0
  152.2688  146.4465  158.4058 H   0  0  0  0  0  0  0  0  0  0  0  0
  152.1970  145.9843  160.0945 H   0  0  0  0  0  0  0  0  0  0  0  0
  150.9203  145.4789  158.9830 H   0  0  0  0  0  0  0  0  0  0  0  0
  152.6799  144.1601  157.6863 H   0  0  0  0  0  0  0  0  0  0  0  0
  153.8568  144.5748  158.8889 H   0  0  0  0  0  0  0  0  0  0  0  0
  151.3697  142.9126  159.3228 H   0  0  0  0  0  0  0  0  0  0  0  0
  153.7817  143.5447  163.5775 H   0  0  0  0  0  0  0  0  0  0  0  0
  153.7162  141.7975  163.8066 H   0  0  0  0  0  0  0  0  0  0  0  0
  152.2249  142.7178  163.7210 H   0  0  0  0  0  0  0  0  0  0  0  0
  154.8849  141.2063  161.9254 H   0  0  0  0  0  0  0  0  0  0  0  0
  153.3866  140.4446  161.4411 H   0  0  0  0  0  0  0  0  0  0  0  0
  155.1422  142.3137  159.7873 H   0  0  0  0  0  0  0  0  0  0  0  0
  154.8256  140.6309  159.4699 H   0  0  0  0  0  0  0  0  0  0  0  0
  153.2347  137.8161  157.6868 H   0  0  0  0  0  0  0  0  0  0  0  0
  148.2242  141.8541  157.4123 H   0  0  0  0  0  0  0  0  0  0  0  0
  148.3777  138.2407  157.0870 H   0  0  0  0  0  0  0  0  0  0  0  0
  147.4177  139.6134  156.6363 H   0  0  0  0  0  0  0  0  0  0  0  0
  150.8458  138.7211  155.3584 H   0  0  0  0  0  0  0  0  0  0  0  0
  150.0290  137.1855  155.2905 H   0  0  0  0  0  0  0  0  0  0  0  0
  149.7781  137.4297  153.0867 H   0  0  0  0  0  0  0  0  0  0  0  0
  147.7543  137.2119  153.8939 H   0  0  0  0  0  0  0  0  0  0  0  0
  146.5711  138.2657  154.7410 H   0  0  0  0  0  0  0  0  0  0  0  0
  147.8401  140.8527  154.4860 H   0  0  0  0  0  0  0  0  0  0  0  0
  149.3216  140.4203  153.5652 H   0  0  0  0  0  0  0  0  0  0  0  0
  1  2  1  0  0  0  0
  1 27  1  0  0  0  0
  1 28  1  0  0  0  0
  1 29  1  0  0  0  0
  2  3  1  0  0  0  0
  2 30  1  0  0  0  0
  2 31  1  0  0  0  0
  3 10  1  0  0  0  0
  3  4  1  0  0  0  0
  3 32  1  0  0  0  0
  4  5  2  0  0  0  0
  4  6  1  0  0  0  0
  6  7  1  0  0  0  0
  6  8  1  0  0  0  0
  7 33  1  0  0  0  0
  7 34  1  0  0  0  0
  7 35  1  0  0  0  0
  8  9  1  0  0  0  0
  8 36  1  0  0  0  0
  8 37  1  0  0  0  0
  9 10  1  0  0  0  0
  9 38  1  0  0  0  0
  9 39  1  0  0  0  0
 10 11  1  0  0  0  0
 11 16  1  0  0  0  0
 11 12  2  0  0  0  0
 12 13  1  0  0  0  0
 13 14  2  0  0  0  0
 13 40  1  0  0  0  0
 14 15  1  0  0  0  0
 15 19  1  0  0  0  0
 15 16  2  0  0  0  0
 16 17  1  0  0  0  0
 17 18  2  0  0  0  0
 18 19  1  0  0  0  0
 18 41  1  0  0  0  0
 19 20  1  0  0  0  0
 20 21  1  0  0  0  0
 20 42  1  0  0  0  0
 20 43  1  0  0  0  0
 21 26  1  0  0  0  0
 21 22  1  0  0  0  0
 21 24  1  0  0  0  0
 22 23  1  0  0  0  0
 22 44  1  0  0  0  0
 22 45  1  0  0  0  0
 23 46  1  0  0  0  0
 24 25  1  0  0  0  0
 24 47  1  0  0  0  0
 24 48  1  0  0  0  0
 25 26  1  0  0  0  0
 26 49  1  0  0  0  0
 26 50  1  0  0  0  0
M  END
> <s_m_source_file>
AV-unprocessed.smi

> <i_m_source_file_index>
208

> <i_lp_mmshare_version>
43012

> <i_f3d_flags>
0

> <s_epik_input>
W0NIM11bQ0gyXVtDQEBIXTFDKD1PKU4oW0NIM10pW0NIMl1bQ0gyXU4xYyhuW2NIXW4yKWMoYzIzKW5bY0hdbjNbQ0gyXUM0KFtDSDJdW09IXSlbQ0gyXU9bQ0gyXTQ=

> <s_epik_cmdline>
J2VwaWtfcHl0aG9uJywgJy1waCcsICc3LjAnLCAnLXRuJywgJzgnLCAnLW1hJywgJzIwMCcsICctbWV0YWxfYmluZGluZycsICctaW1hZScsICc8aW5maWxlLm1hZT4nLCAnLW9tYWUnLCAnPG91dGZpbGUubWFlPic=

> <r_lp_tautomer_probability>
1

> <r_epik_Ionization_Penalty>
0.000581289

> <r_epik_Ionization_Penalty_Charging>
0

> <r_epik_Ionization_Penalty_Neutral>
0.000581289

> <r_epik_State_Penalty>
0.000280365

> <r_epik_Charging_Adjusted_Penalty>
0.000280365

> <i_epik_Tot_Q>
0

> <i_epik_Tot_abs_Q>
0

> <r_epik_Metal_State_Penalty>
-0

> <b_epik_Metal_Only>
0

> <s_lp_Force_Field>
OPLS_2005

> <r_lp_Energy>
41.1811

> <b_lp_Chiralities_Consistent>
1

> <s_lp_Variant>
AV-unprocessed.smi:208-1

> <Gold.Version>
5.8.1

> <Gold.Id.Protein>
6NUR|6NUR_protein|mol2

> <Gold.PLP.Fitness>
54.1304

> <Gold.PLP.PLP>
-48.4006

> <Gold.PLP.part.hbond>
-3.7347

> <Gold.PLP.part.metal>
0.0000

> <Gold.PLP.part.buried>
-6.7055

> <Gold.PLP.part.nonpolar>
-38.7516

> <Gold.PLP.part.repulsive>
0.4704

> <Gold.PLP.ligand.clash>
0.0000

> <Gold.PLP.ligand.torsion>
0.4605

> <Gold.PLP.Chemscore.Hbond>
2.0000

> <Gold.PLP.Chemscore.CHOScore>
0.0000

> <Gold.PLP.Chemscore.Metal>
0.0000

> <Gold.Chemscore.Hbonds>
donor molecule, donor type, donor heavy atom, donor atom, acceptor molecule, acceptor atom, score
      L1  H    23    46       P1  7948  1.00
      P1  H  7997  8010       L1    12  1.00

> <Gold.PLP.Chemscore.Internal.Correction>
0.6508

> <Gold.Rescore>
     Score         DG    S(hbond)    S(metal)    S(lipo)     H(rot)  DE(clash)    DE(int)     intcor
      9.50     -14.79       1.36        0.00      94.53       2.46       0.43       4.86       ----

> <Gold.Chemscore.Fitness>
9.4974

> <Gold.Chemscore.DG>
-14.7919

> <Gold.Chemscore.ZeroCoef>
-5.4800

> <Gold.Chemscore.Hbond>
1.3620

> <Gold.Chemscore.Metal>
0.0000

> <Gold.Chemscore.Lipo>
94.5307

> <Gold.Chemscore.Internal_Hbond>
0.0000

> <Gold.Chemscore.DEClash>
0.4313

> <Gold.Chemscore.DEInternal>
4.8632

> <Gold.Chemscore.Rot>
2.4598

> <Gold.Chemscore.Internal.Correction>
   9.000000E+99

> <Gold.Chemscore.Hbonds>
donor molecule, donor type, donor heavy atom, donor atom, acceptor molecule, acceptor atom, score
      L1  H    23    46       P1  7948  0.50
      P1  H  7997  8010       L1    12  0.29

> <Gold.Chemscore.Hbond.Weighted>
-4.5490

> <Gold.Chemscore.Metal.Weighted>
-0.0000

> <Gold.Chemscore.Lipo.Weighted>
-11.0601

> <Gold.Chemscore.Internal_Hbond.Weighted>
0.0000

> <Gold.Chemscore.DEClash.Weighted>
0.4313

> <Gold.Chemscore.DEInternal.Weighted>
4.8632

> <Gold.Chemscore.Rot.Weighted>
6.2972

> <Gold.Chemscore.Internal.Correction.Weighted>
   9.000000E+99

> <Gold.Protein.RotatedTorsions>
[ 6907 6896 6895 6894 ] final  -15.55 input  -60.11 | X-H torsion
[ 7974 7965 7964 7962 ] final   12.08 input  175.53 | X-H torsion
[ 8008 7997 7996 7995 ] final   20.42 input   59.86 | X-H torsion
[ 10167 10162 10161 10158 ] final  155.89 input  -65.29 | X-H torsion
[ 10718 10713 10712 10709 ] final  -45.04 input   66.30 | X-H torsion
[ 10763 10752 10751 10750 ] final -157.19 input  -60.55 | X-H torsion
[ 11005 11000 10999 10996 ] final   19.58 input  -57.11 | X-H torsion

> <Gold.Protein.ActiveResidues>
 VAL166  LYS551  ARG553  GLY616  TRP617  ASP618  TYR619  PRO620  LYS621  CYS622 
 ASP623  PHE694  ASN695  SER759  ASP760  ASP761  ALA762  ILE779  LEU786  VAL792 
 PHE793  MET794  SER795  GLU796  ALA797  LYS798  CYS799  TRP800  GLU811  SER814 

> <Gold.Protein.RotatedAtoms>
  151.3222  135.0821  159.9309 H   0  0  0  0  0  0  0  0  0  0  0  0  # atno 6907 bound_to 6896
  152.5254  133.9628  159.7735 H   0  0  0  0  0  0  0  0  0  0  0  0  # atno 6908 bound_to 6896
  150.9951  133.6059  159.2733 H   0  0  0  0  0  0  0  0  0  0  0  0  # atno 6909 bound_to 6896
  146.2358  139.9390  142.8486 H   0  0  0  0  0  0  0  0  0  0  0  0  # atno 7974 bound_to 7965
  154.9353  140.3046  155.5147 H   0  0  0  0  0  0  0  0  0  0  0  0  # atno 8008 bound_to 7997
  156.3000  140.2346  156.4354 H   0  0  0  0  0  0  0  0  0  0  0  0  # atno 8009 bound_to 7997
  154.8197  140.0424  157.1391 H   0  0  0  0  0  0  0  0  0  0  0  0  # atno 8010 bound_to 7997
  139.4821  144.5058  151.8100 H   0  0  0  0  0  0  0  0  0  0  0  0  # atno 10167 bound_to 10162
  156.2324  130.4173  149.8859 H   0  0  0  0  0  0  0  0  0  0  0  0  # atno 10718 bound_to 10713
  154.7655  135.3130  154.8294 H   0  0  0  0  0  0  0  0  0  0  0  0  # atno 10763 bound_to 10752
  153.9043  135.6812  153.4758 H   0  0  0  0  0  0  0  0  0  0  0  0  # atno 10764 bound_to 10752
  153.1261  135.4801  154.9207 H   0  0  0  0  0  0  0  0  0  0  0  0  # atno 10765 bound_to 10752
  140.4121  134.1607  155.7668 H   0  0  0  0  0  0  0  0  0  0  0  0  # atno 11005 bound_to 11000
  145.1970  140.9837  143.4177 LP  0  0  0  0  0  0  0  0  0  0  0  0  # atno 17320 bound_to 7965
  144.9806  139.3787  143.6263 LP  0  0  0  0  0  0  0  0  0  0  0  0  # atno 17321 bound_to 7965
  140.4555  144.1795  150.5901 LP  0  0  0  0  0  0  0  0  0  0  0  0  # atno 17342 bound_to 10162
  140.4539  143.2475  151.9310 LP  0  0  0  0  0  0  0  0  0  0  0  0  # atno 17343 bound_to 10162
  156.6469  130.8727  151.3524 LP  0  0  0  0  0  0  0  0  0  0  0  0  # atno 17370 bound_to 10713
  157.7139  130.9473  150.1185 LP  0  0  0  0  0  0  0  0  0  0  0  0  # atno 17371 bound_to 10713
  141.1817  133.8400  157.1234 LP  0  0  0  0  0  0  0  0  0  0  0  0  # atno 17394 bound_to 11000
  140.0260  134.9924  157.0686 LP  0  0  0  0  0  0  0  0  0  0  0  0  # atno 17395 bound_to 11000

$$$$
