AV-unprocessed.smi:1224|AV-procd|sdf|5132|dock5
  -GOLD-   22720 4193D 1   1.00000     0.00000
 Structure written by MMmdl.
 43 45  0  0  0  0  0  0  0  0  1 V2000
  151.4036  144.9067  158.6267 C   0  0  0  0  0  0  0  0  0  0  0  0
  151.5483  143.4283  158.3115 C   0  0  0  0  0  0  0  0  0  0  0  0
  151.1205  142.9489  157.0526 C   0  0  0  0  0  0  0  0  0  0  0  0
  151.2383  141.5816  156.7201 C   0  0  0  0  0  0  0  0  0  0  0  0
  150.8900  140.9039  155.5640 N   0  0  0  0  0  0  0  0  0  0  0  0
  151.2462  139.6585  155.8661 C   0  0  0  0  0  0  0  0  0  0  0  0
  151.7838  139.4492  157.0832 N   0  0  0  0  0  0  0  0  0  0  0  0
  152.2436  138.1872  157.6353 C   0  0  0  0  0  0  0  0  0  0  0  0
  151.5134  137.8135  158.9392 C   0  0  2  0  0  0  0  0  0  0  0  0
  152.1756  136.7162  159.5373 O   0  0  0  0  0  0  0  0  0  0  0  0
  150.0518  137.4144  158.6790 C   0  0  0  0  0  0  0  0  0  0  0  0
  149.3237  137.2285  159.9306 N   0  0  0  0  0  0  0  0  0  0  0  0
  147.9624  136.7422  159.7385 C   0  0  0  0  0  0  0  0  0  0  0  0
  147.5008  135.9165  160.8921 C   0  0  0  0  0  0  0  0  0  0  0  0
  147.3231  136.3167  162.1923 C   0  0  0  0  0  0  0  0  0  0  0  0
  146.8641  135.2694  163.0440 C   0  0  0  0  0  0  0  0  0  0  0  0
  146.6972  134.0820  162.3822 C   0  0  0  0  0  0  0  0  0  0  0  0
  147.1019  134.2286  160.6938 S   0  0  0  0  0  0  0  0  0  0  0  0
  151.7999  140.7000  157.6893 C   0  0  0  0  0  0  0  0  0  0  0  0
  152.2297  141.1646  158.9447 C   0  0  0  0  0  0  0  0  0  0  0  0
  152.1050  142.5337  159.2606 C   0  0  0  0  0  0  0  0  0  0  0  0
  152.5739  143.0261  160.6182 C   0  0  0  0  0  0  0  0  0  0  0  0
  150.9546  145.4494  157.7945 H   0  0  0  0  0  0  0  0  0  0  0  0
  152.3782  145.3512  158.8291 H   0  0  0  0  0  0  0  0  0  0  0  0
  150.7678  145.0507  159.5004 H   0  0  0  0  0  0  0  0  0  0  0  0
  150.6972  143.6297  156.3287 H   0  0  0  0  0  0  0  0  0  0  0  0
  151.1110  138.8508  155.1615 H   0  0  0  0  0  0  0  0  0  0  0  0
  152.0895  137.4138  156.8819 H   0  0  0  0  0  0  0  0  0  0  0  0
  153.3200  138.2487  157.8031 H   0  0  0  0  0  0  0  0  0  0  0  0
  151.5509  138.6636  159.6225 H   0  0  0  0  0  0  0  0  0  0  0  0
  153.0796  136.9554  159.6760 H   0  0  0  0  0  0  0  0  0  0  0  0
  149.5665  138.2060  158.1064 H   0  0  0  0  0  0  0  0  0  0  0  0
  150.0037  136.5154  158.0628 H   0  0  0  0  0  0  0  0  0  0  0  0
  149.2965  138.1100  160.4332 H   0  0  0  0  0  0  0  0  0  0  0  0
  147.2839  137.5841  159.5950 H   0  0  0  0  0  0  0  0  0  0  0  0
  147.9070  136.1446  158.8280 H   0  0  0  0  0  0  0  0  0  0  0  0
  147.5035  137.3169  162.5571 H   0  0  0  0  0  0  0  0  0  0  0  0
  146.6743  135.4216  164.0962 H   0  0  0  0  0  0  0  0  0  0  0  0
  146.3628  133.1354  162.7807 H   0  0  0  0  0  0  0  0  0  0  0  0
  152.6530  140.4719  159.6572 H   0  0  0  0  0  0  0  0  0  0  0  0
  152.9554  142.2070  161.2285 H   0  0  0  0  0  0  0  0  0  0  0  0
  151.7518  143.4927  161.1614 H   0  0  0  0  0  0  0  0  0  0  0  0
  153.3734  143.7581  160.5025 H   0  0  0  0  0  0  0  0  0  0  0  0
  1  2  1  0  0  0  0
  1 23  1  0  0  0  0
  1 24  1  0  0  0  0
  1 25  1  0  0  0  0
  2 21  1  0  0  0  0
  2  3  2  0  0  0  0
  3  4  1  0  0  0  0
  3 26  1  0  0  0  0
  4 19  2  0  0  0  0
  4  5  1  0  0  0  0
  5  6  2  0  0  0  0
  6  7  1  0  0  0  0
  6 27  1  0  0  0  0
  7  8  1  0  0  0  0
  7 19  1  0  0  0  0
  8  9  1  0  0  0  0
  8 28  1  0  0  0  0
  8 29  1  0  0  0  0
  9 10  1  0  0  0  0
  9 11  1  0  0  0  0
  9 30  1  0  0  0  0
 10 31  1  0  0  0  0
 11 12  1  0  0  0  0
 11 32  1  0  0  0  0
 11 33  1  0  0  0  0
 12 13  1  0  0  0  0
 12 34  1  0  0  0  0
 13 14  1  0  0  0  0
 13 35  1  0  0  0  0
 13 36  1  0  0  0  0
 14 18  1  0  0  0  0
 14 15  2  0  0  0  0
 15 16  1  0  0  0  0
 15 37  1  0  0  0  0
 16 17  2  0  0  0  0
 16 38  1  0  0  0  0
 17 18  1  0  0  0  0
 17 39  1  0  0  0  0
 19 20  1  0  0  0  0
 20 21  2  0  0  0  0
 20 40  1  0  0  0  0
 21 22  1  0  0  0  0
 22 41  1  0  0  0  0
 22 42  1  0  0  0  0
 22 43  1  0  0  0  0
M  END
> <s_m_source_file>
AV-unprocessed.smi

> <i_m_source_file_index>
1224

> <i_lp_mmshare_version>
43012

> <i_f3d_flags>
0

> <s_epik_input>
W0NIM11jKFtjSF0xKWMoW0NIM10pW2NIXWMoYzEyKW4oW2NIXW4yKVtDSDJdW0NASF0oW09IXSlbQ0gyXVtOSF1bQ0gyXWMzW2NIXVtjSF1bY0hdczM=

> <s_epik_cmdline>
J2VwaWtfcHl0aG9uJywgJy1waCcsICc3LjAnLCAnLXRuJywgJzgnLCAnLW1hJywgJzIwMCcsICctbWV0YWxfYmluZGluZycsICctaW1hZScsICc8aW5maWxlLm1hZT4nLCAnLW9tYWUnLCAnPG91dGZpbGUubWFlPic=

> <r_epik_Ionization_Penalty>
1.55566

> <r_epik_Ionization_Penalty_Charging>
0

> <r_epik_Ionization_Penalty_Neutral>
1.55566

> <r_epik_State_Penalty>
1.63945

> <r_epik_Charging_Adjusted_Penalty>
1.63945

> <i_epik_Tot_Q>
0

> <i_epik_Tot_abs_Q>
0

> <r_epik_Metal_State_Penalty>
1.52326

> <b_epik_Metal_Only>
0

> <s_lp_Force_Field>
OPLS_2005

> <r_lp_Energy>
13.7285

> <b_lp_Chiralities_Consistent>
1

> <s_lp_Variant>
AV-unprocessed.smi:1224-5

> <Gold.Version>
5.8.1

> <Gold.Id.Protein>
6NUR|6NUR_protein|mol2

> <Gold.PLP.Fitness>
55.8739

> <Gold.PLP.PLP>
-51.4735

> <Gold.PLP.part.hbond>
-3.0000

> <Gold.PLP.part.metal>
0.0000

> <Gold.PLP.part.buried>
-6.5094

> <Gold.PLP.part.nonpolar>
-42.3356

> <Gold.PLP.part.repulsive>
0.0408

> <Gold.PLP.ligand.clash>
0.0000

> <Gold.PLP.ligand.torsion>
0.2863

> <Gold.PLP.Chemscore.Hbond>
1.6240

> <Gold.PLP.Chemscore.CHOScore>
0.0000

> <Gold.PLP.Chemscore.Metal>
0.0000

> <Gold.Chemscore.Hbonds>
donor molecule, donor type, donor heavy atom, donor atom, acceptor molecule, acceptor atom, score
      P1  H  6896  6907       L1    10  1.00
      P1  H  7989  7998       L1     5  0.39

> <Gold.PLP.Chemscore.Internal.Correction>
0.1011

> <Gold.Rescore>
     Score         DG    S(hbond)    S(metal)    S(lipo)     H(rot)  DE(clash)    DE(int)     intcor
     21.34     -21.91       1.87        0.00     137.73       2.32       0.21       0.35       ----

> <Gold.Chemscore.Fitness>
21.3411

> <Gold.Chemscore.DG>
-21.9058

> <Gold.Chemscore.ZeroCoef>
-5.4800

> <Gold.Chemscore.Hbond>
1.8695

> <Gold.Chemscore.Metal>
0.0000

> <Gold.Chemscore.Lipo>
137.7261

> <Gold.Chemscore.Internal_Hbond>
0.0000

> <Gold.Chemscore.DEClash>
0.2133

> <Gold.Chemscore.DEInternal>
0.3514

> <Gold.Chemscore.Rot>
2.3173

> <Gold.Chemscore.Internal.Correction>
   9.000000E+99

> <Gold.Chemscore.Hbonds>
donor molecule, donor type, donor heavy atom, donor atom, acceptor molecule, acceptor atom, score
      P1  H  6896  6907       L1    10  0.73
      P1  H  7989  7998       L1     5  0.07

> <Gold.Chemscore.Hbond.Weighted>
-6.2443

> <Gold.Chemscore.Metal.Weighted>
-0.0000

> <Gold.Chemscore.Lipo.Weighted>
-16.1140

> <Gold.Chemscore.Internal_Hbond.Weighted>
0.0000

> <Gold.Chemscore.DEClash.Weighted>
0.2133

> <Gold.Chemscore.DEInternal.Weighted>
0.3514

> <Gold.Chemscore.Rot.Weighted>
5.9324

> <Gold.Chemscore.Internal.Correction.Weighted>
   9.000000E+99

> <Gold.Protein.RotatedTorsions>
[ 6907 6896 6895 6894 ] final   20.13 input  -60.11 | X-H torsion
[ 7974 7965 7964 7962 ] final  125.96 input  175.53 | X-H torsion
[ 8008 7997 7996 7995 ] final   21.70 input   59.86 | X-H torsion
[ 10167 10162 10161 10158 ] final  -86.04 input  -65.29 | X-H torsion
[ 10718 10713 10712 10709 ] final  177.63 input   66.30 | X-H torsion
[ 10763 10752 10751 10750 ] final  -91.52 input  -60.55 | X-H torsion
[ 11005 11000 10999 10996 ] final  101.64 input  -57.11 | X-H torsion

> <Gold.Protein.ActiveResidues>
 VAL166  LYS551  ARG553  GLY616  TRP617  ASP618  TYR619  PRO620  LYS621  CYS622 
 ASP623  PHE694  ASN695  SER759  ASP760  ASP761  ALA762  ILE779  LEU786  VAL792 
 PHE793  MET794  SER795  GLU796  ALA797  LYS798  CYS799  TRP800  GLU811  SER814 

> <Gold.Protein.RotatedAtoms>
  151.8917  135.0414  160.0498 H   0  0  0  0  0  0  0  0  0  0  0  0  # atno 6907 bound_to 6896
  152.2431  133.5147  159.5290 H   0  0  0  0  0  0  0  0  0  0  0  0  # atno 6908 bound_to 6896
  150.7059  134.0979  159.3997 H   0  0  0  0  0  0  0  0  0  0  0  0  # atno 6909 bound_to 6896
  145.0671  139.3759  143.4976 H   0  0  0  0  0  0  0  0  0  0  0  0  # atno 7974 bound_to 7965
  154.9546  140.3070  155.5059 H   0  0  0  0  0  0  0  0  0  0  0  0  # atno 8008 bound_to 7997
  156.2983  140.2312  156.4565 H   0  0  0  0  0  0  0  0  0  0  0  0  # atno 8009 bound_to 7997
  154.8022  140.0433  157.1270 H   0  0  0  0  0  0  0  0  0  0  0  0  # atno 8010 bound_to 7997
  140.3980  143.2675  151.9179 H   0  0  0  0  0  0  0  0  0  0  0  0  # atno 10167 bound_to 10162
  156.9025  130.9883  151.3033 H   0  0  0  0  0  0  0  0  0  0  0  0  # atno 10718 bound_to 10713
  154.6768  135.5265  153.8211 H   0  0  0  0  0  0  0  0  0  0  0  0  # atno 10763 bound_to 10752
  153.0538  135.6542  154.0638 H   0  0  0  0  0  0  0  0  0  0  0  0  # atno 10764 bound_to 10752
  154.0530  135.2968  155.3317 H   0  0  0  0  0  0  0  0  0  0  0  0  # atno 10765 bound_to 10752
  139.8774  134.9191  156.4937 H   0  0  0  0  0  0  0  0  0  0  0  0  # atno 11005 bound_to 11000
  146.3527  140.0397  142.8644 LP  0  0  0  0  0  0  0  0  0  0  0  0  # atno 17320 bound_to 7965
  145.1338  140.9533  143.4529 LP  0  0  0  0  0  0  0  0  0  0  0  0  # atno 17321 bound_to 7965
  139.4786  144.5662  151.8161 LP  0  0  0  0  0  0  0  0  0  0  0  0  # atno 17342 bound_to 10162
  140.4770  144.1504  150.5926 LP  0  0  0  0  0  0  0  0  0  0  0  0  # atno 17343 bound_to 10162
  157.6017  130.8518  149.8813 LP  0  0  0  0  0  0  0  0  0  0  0  0  # atno 17370 bound_to 10713
  156.0575  130.3706  150.1057 LP  0  0  0  0  0  0  0  0  0  0  0  0  # atno 17371 bound_to 10713
  140.8640  133.8038  155.9295 LP  0  0  0  0  0  0  0  0  0  0  0  0  # atno 17394 bound_to 11000
  140.9020  134.2366  157.5036 LP  0  0  0  0  0  0  0  0  0  0  0  0  # atno 17395 bound_to 11000

$$$$
