AV-unprocessed.smi:1572|AV-procd|sdf|6328|dock2
  -GOLD-   22720 6533D 1   1.00000     0.00000
 Structure written by MMmdl.
 43 44  0  0  0  0  0  0  0  0  2 V2000
  150.7452  140.2312  157.6471 C   0  0  0  0  0  0  0  0  0  0  0  0
  150.6530  141.6313  157.2477 N   0  0  0  0  0  0  0  0  0  0  0  0
  150.5490  141.8188  155.8019 C   0  0  0  0  0  0  0  0  0  0  0  0
  149.1794  141.3681  155.2554 C   0  0  0  0  0  0  0  0  0  0  0  0
  148.0669  142.1104  155.9181 N   0  3  0  0  0  0  0  0  0  0  0  0
  146.6979  141.9026  155.3130 C   0  0  0  0  0  0  0  0  0  0  0  0
  145.6756  142.9236  155.8693 C   0  0  0  0  0  0  0  0  0  0  0  0
  146.7444  142.0723  153.7706 C   0  0  0  0  0  0  0  0  0  0  0  0
  146.2271  140.4505  155.6345 C   0  0  0  0  0  0  0  0  0  0  0  0
  145.0378  140.0266  154.8950 N   0  0  0  0  0  0  0  0  0  0  0  0
  144.2194  139.0238  155.2475 C   0  0  0  0  0  0  0  0  0  0  0  0
  144.3977  138.3225  156.2435 O   0  0  0  0  0  0  0  0  0  0  0  0
  143.2039  138.8935  154.3758 N   0  0  0  0  0  0  0  0  0  0  0  0
  142.1556  137.9355  154.3844 C   0  0  0  0  0  0  0  0  0  0  0  0
  142.1264  136.8715  155.2023 N   0  0  0  0  0  0  0  0  0  0  0  0
  140.9933  136.0938  155.0029 N   0  0  0  0  0  0  0  0  0  0  0  0
  140.2145  136.5997  154.0424 C   0  0  0  0  0  0  0  0  0  0  0  0
  140.7907  138.0749  153.2855 S   0  0  0  0  0  0  0  0  0  0  0  0
  148.1740  141.9243  157.3951 C   0  0  0  0  0  0  0  0  0  0  0  0
  149.5661  142.3487  157.9103 C   0  0  0  0  0  0  0  0  0  0  0  0
  151.6009  139.7575  157.1652 H   0  0  0  0  0  0  0  0  0  0  0  0
  149.8539  139.6599  157.3902 H   0  0  0  0  0  0  0  0  0  0  0  0
  150.8917  140.1572  158.7252 H   0  0  0  0  0  0  0  0  0  0  0  0
  150.7040  142.8743  155.5740 H   0  0  0  0  0  0  0  0  0  0  0  0
  151.3538  141.2746  155.3061 H   0  0  0  0  0  0  0  0  0  0  0  0
  149.1875  141.5433  154.1826 H   0  0  0  0  0  0  0  0  0  0  0  0
  149.0587  140.2934  155.3893 H   0  0  0  0  0  0  0  0  0  0  0  0
  144.7153  142.8411  155.3589 H   0  0  0  0  0  0  0  0  0  0  0  0
  146.0161  143.9504  155.7368 H   0  0  0  0  0  0  0  0  0  0  0  0
  145.4778  142.7717  156.9302 H   0  0  0  0  0  0  0  0  0  0  0  0
  145.7864  141.8494  153.3021 H   0  0  0  0  0  0  0  0  0  0  0  0
  147.4872  141.4142  153.3179 H   0  0  0  0  0  0  0  0  0  0  0  0
  146.9670  143.0964  153.4715 H   0  0  0  0  0  0  0  0  0  0  0  0
  147.0490  139.7491  155.4791 H   0  0  0  0  0  0  0  0  0  0  0  0
  145.9499  140.3497  156.6818 H   0  0  0  0  0  0  0  0  0  0  0  0
  144.8151  140.5462  154.0584 H   0  0  0  0  0  0  0  0  0  0  0  0
  143.1781  139.5545  153.6136 H   0  0  0  0  0  0  0  0  0  0  0  0
  139.2944  136.1000  153.7777 H   0  0  0  0  0  0  0  0  0  0  0  0
  147.4599  142.5511  157.9250 H   0  0  0  0  0  0  0  0  0  0  0  0
  147.9525  140.8925  157.6679 H   0  0  0  0  0  0  0  0  0  0  0  0
  149.6341  142.1985  158.9884 H   0  0  0  0  0  0  0  0  0  0  0  0
  149.7050  143.4175  157.7404 H   0  0  0  0  0  0  0  0  0  0  0  0
  148.2670  143.0891  155.7681 H   0  0  0  0  0  0  0  0  0  0  0  0
  1  2  1  0  0  0  0
  1 21  1  0  0  0  0
  1 22  1  0  0  0  0
  1 23  1  0  0  0  0
  2 20  1  0  0  0  0
  2  3  1  0  0  0  0
  3  4  1  0  0  0  0
  3 24  1  0  0  0  0
  3 25  1  0  0  0  0
  4  5  1  0  0  0  0
  4 26  1  0  0  0  0
  4 27  1  0  0  0  0
  5  6  1  0  0  0  0
  5 19  1  0  0  0  0
  5 43  1  0  0  0  0
  6  7  1  0  0  0  0
  6  8  1  0  0  0  0
  6  9  1  0  0  0  0
  7 28  1  0  0  0  0
  7 29  1  0  0  0  0
  7 30  1  0  0  0  0
  8 31  1  0  0  0  0
  8 32  1  0  0  0  0
  8 33  1  0  0  0  0
  9 10  1  0  0  0  0
  9 34  1  0  0  0  0
  9 35  1  0  0  0  0
 10 11  1  0  0  0  0
 10 36  1  0  0  0  0
 11 12  2  0  0  0  0
 11 13  1  0  0  0  0
 13 14  1  0  0  0  0
 13 37  1  0  0  0  0
 14 18  1  0  0  0  0
 14 15  2  0  0  0  0
 15 16  1  0  0  0  0
 16 17  2  0  0  0  0
 17 18  1  0  0  0  0
 17 38  1  0  0  0  0
 19 20  1  0  0  0  0
 19 39  1  0  0  0  0
 19 40  1  0  0  0  0
 20 41  1  0  0  0  0
 20 42  1  0  0  0  0
M  CHG  1   5   1
M  END
> <s_m_source_file>
AV-unprocessed.smi

> <i_m_source_file_index>
1572

> <i_lp_mmshare_version>
43012

> <i_f3d_flags>
0

> <s_epik_input>
W0NIM11OMVtDSDJdW0NIMl1OKFtDSDJdW0NIMl0xKUMoW0NIM10pKFtDSDNdKVtDSDJdW05IXUMoPU8pW05IXWMybm5bY0hdczI=

> <s_epik_cmdline>
J2VwaWtfcHl0aG9uJywgJy1waCcsICc3LjAnLCAnLXRuJywgJzgnLCAnLW1hJywgJzIwMCcsICctbWV0YWxfYmluZGluZycsICctaW1hZScsICc8aW5maWxlLm1hZT4nLCAnLW9tYWUnLCAnPG91dGZpbGUubWFlPic=

> <r_epik_Ionization_Penalty>
0.104337

> <r_epik_Ionization_Penalty_Charging>
0.0985296

> <r_epik_Ionization_Penalty_Neutral>
0.00580738

> <r_epik_State_Penalty>
1.056

> <r_epik_Charging_Adjusted_Penalty>
1.15453

> <i_epik_Tot_Q>
1

> <i_epik_Tot_abs_Q>
1

> <r_epik_Metal_State_Penalty>
1.38982

> <b_epik_Metal_Only>
0

> <s_lp_Force_Field>
OPLS_2005

> <r_lp_Energy>
26.4424

> <b_lp_Chiralities_Consistent>
1

> <s_lp_Variant>
AV-unprocessed.smi:1572-2

> <Gold.Version>
5.8.1

> <Gold.Id.Protein>
6NUR|6NUR_protein|mol2

> <Gold.PLP.Fitness>
40.3944

> <Gold.PLP.PLP>
-27.6212

> <Gold.PLP.part.hbond>
-3.9726

> <Gold.PLP.part.metal>
0.0000

> <Gold.PLP.part.buried>
-5.8956

> <Gold.PLP.part.nonpolar>
-18.1202

> <Gold.PLP.part.repulsive>
0.1554

> <Gold.PLP.ligand.clash>
0.0000

> <Gold.PLP.ligand.torsion>
0.3505

> <Gold.PLP.Chemscore.Hbond>
4.4560

> <Gold.PLP.Chemscore.CHOScore>
0.0000

> <Gold.PLP.Chemscore.Metal>
0.0000

> <Gold.Chemscore.Hbonds>
donor molecule, donor type, donor heavy atom, donor atom, acceptor molecule, acceptor atom, score
      L1  H     5    43       P1  8028  2.00
      L1  H    10    36       P1 10175  0.83
      L1  H    13    37       P1 10175  0.93
      P1  H 11000 11005       L1    16  0.56

> <Gold.PLP.Chemscore.Internal.Correction>
0.1062

> <Gold.Rescore>
     Score         DG    S(hbond)    S(metal)    S(lipo)     H(rot)  DE(clash)    DE(int)     intcor
     17.47     -19.14       3.43        0.00      56.02       1.70       0.07       1.60       ----

> <Gold.Chemscore.Fitness>
17.4655

> <Gold.Chemscore.DG>
-19.1439

> <Gold.Chemscore.ZeroCoef>
-5.4800

> <Gold.Chemscore.Hbond>
3.4283

> <Gold.Chemscore.Metal>
0.0000

> <Gold.Chemscore.Lipo>
56.0182

> <Gold.Chemscore.Internal_Hbond>
0.0000

> <Gold.Chemscore.DEClash>
0.0743

> <Gold.Chemscore.DEInternal>
1.6041

> <Gold.Chemscore.Rot>
1.6956

> <Gold.Chemscore.Internal.Correction>
   9.000000E+99

> <Gold.Chemscore.Hbonds>
donor molecule, donor type, donor heavy atom, donor atom, acceptor molecule, acceptor atom, score
      L1  H     5    43       P1  8028  0.91
      L1  H    10    36       P1 10175  0.82
      L1  H    13    37       P1 10175  0.88
      P1  H 11000 11005       L1    16  0.43

> <Gold.Chemscore.Hbond.Weighted>
-11.4505

> <Gold.Chemscore.Metal.Weighted>
-0.0000

> <Gold.Chemscore.Lipo.Weighted>
-6.5541

> <Gold.Chemscore.Internal_Hbond.Weighted>
0.0000

> <Gold.Chemscore.DEClash.Weighted>
0.0743

> <Gold.Chemscore.DEInternal.Weighted>
1.6041

> <Gold.Chemscore.Rot.Weighted>
4.3407

> <Gold.Chemscore.Internal.Correction.Weighted>
   9.000000E+99

> <Gold.Protein.RotatedTorsions>
[ 6907 6896 6895 6894 ] final  138.54 input  -60.11 | X-H torsion
[ 7974 7965 7964 7962 ] final -148.84 input  175.53 | X-H torsion
[ 8008 7997 7996 7995 ] final -129.78 input   59.86 | X-H torsion
[ 10167 10162 10161 10158 ] final -148.37 input  -65.29 | X-H torsion
[ 10718 10713 10712 10709 ] final -104.20 input   66.30 | X-H torsion
[ 10763 10752 10751 10750 ] final  -89.85 input  -60.55 | X-H torsion
[ 11005 11000 10999 10996 ] final   50.82 input  -57.11 | X-H torsion

> <Gold.Protein.ActiveResidues>
 VAL166  LYS551  ARG553  GLY616  TRP617  ASP618  TYR619  PRO620  LYS621  CYS622 
 ASP623  PHE694  ASN695  SER759  ASP760  ASP761  ALA762  ILE779  LEU786  VAL792 
 PHE793  MET794  SER795  GLU796  ALA797  LYS798  CYS799  TRP800  GLU811  SER814 

> <Gold.Protein.RotatedAtoms>
  152.2654  133.5334  159.5406 H   0  0  0  0  0  0  0  0  0  0  0  0  # atno 6907 bound_to 6896
  150.7140  134.0772  159.3894 H   0  0  0  0  0  0  0  0  0  0  0  0  # atno 6908 bound_to 6896
  151.8688  135.0497  160.0528 H   0  0  0  0  0  0  0  0  0  0  0  0  # atno 6909 bound_to 6896
  144.8004  140.5144  143.5711 H   0  0  0  0  0  0  0  0  0  0  0  0  # atno 7974 bound_to 7965
  155.2849  140.0445  157.3018 H   0  0  0  0  0  0  0  0  0  0  0  0  # atno 8008 bound_to 7997
  154.5575  140.2336  155.8355 H   0  0  0  0  0  0  0  0  0  0  0  0  # atno 8009 bound_to 7997
  156.2019  140.3023  155.9553 H   0  0  0  0  0  0  0  0  0  0  0  0  # atno 8010 bound_to 7997
  139.7538  143.8479  152.2592 H   0  0  0  0  0  0  0  0  0  0  0  0  # atno 10167 bound_to 10162
  156.0295  130.5504  150.7363 H   0  0  0  0  0  0  0  0  0  0  0  0  # atno 10718 bound_to 10713
  154.6596  135.5326  153.8001 H   0  0  0  0  0  0  0  0  0  0  0  0  # atno 10763 bound_to 10752
  153.0434  135.6502  154.0892 H   0  0  0  0  0  0  0  0  0  0  0  0  # atno 10764 bound_to 10752
  154.0802  135.2947  155.3271 H   0  0  0  0  0  0  0  0  0  0  0  0  # atno 10765 bound_to 10752
  140.0985  134.5113  155.8785 H   0  0  0  0  0  0  0  0  0  0  0  0  # atno 11005 bound_to 11000
  145.5567  139.1478  143.3364 LP  0  0  0  0  0  0  0  0  0  0  0  0  # atno 17320 bound_to 7965
  146.2284  140.5703  142.8986 LP  0  0  0  0  0  0  0  0  0  0  0  0  # atno 17321 bound_to 7965
  139.8465  144.7185  150.9267 LP  0  0  0  0  0  0  0  0  0  0  0  0  # atno 17342 bound_to 10162
  140.7800  143.3937  151.1266 LP  0  0  0  0  0  0  0  0  0  0  0  0  # atno 17343 bound_to 10162
  157.4943  131.0913  151.0390 LP  0  0  0  0  0  0  0  0  0  0  0  0  # atno 17370 bound_to 10713
  157.0789  130.5894  149.5416 LP  0  0  0  0  0  0  0  0  0  0  0  0  # atno 17371 bound_to 10713
  141.2099  133.6689  156.6470 LP  0  0  0  0  0  0  0  0  0  0  0  0  # atno 17394 bound_to 11000
  140.3253  134.7974  157.4284 LP  0  0  0  0  0  0  0  0  0  0  0  0  # atno 17395 bound_to 11000

$$$$
