AV-unprocessed.smi:23|AV-procd|sdf|173|dock4
  -GOLD-   2262015433D 1   1.00000     0.00000
 Structure written by MMmdl.
 53 56  0  0  0  0  0  0  0  0  1 V2000
  150.7677  144.8444  159.9816 C   0  0  0  0  0  0  0  0  0  0  0  0
  151.6289  143.9950  160.7312 O   0  0  0  0  0  0  0  0  0  0  0  0
  152.3841  142.9970  160.0360 C   0  0  1  0  0  0  0  0  0  0  0  0
  153.0984  143.8150  158.9411 C   0  0  0  0  0  0  0  0  0  0  0  0
  153.4042  142.3292  160.9930 C   0  0  0  0  0  0  0  0  0  0  0  0
  154.1780  141.1950  160.2980 C   0  0  0  0  0  0  0  0  0  0  0  0
  153.2199  140.1859  159.6439 C   0  0  0  0  0  0  0  0  0  0  0  0
  152.2728  140.8654  158.7589 N   0  0  0  0  0  0  0  0  0  0  0  0
  151.6072  140.1205  157.8406 C   0  0  0  0  0  0  0  0  0  0  0  0
  151.6779  138.7632  157.8873 N   0  0  0  0  0  0  0  0  0  0  0  0
  151.0185  138.0222  156.9919 C   0  0  0  0  0  0  0  0  0  0  0  0
  150.2420  138.4253  155.9845 N   0  0  0  0  0  0  0  0  0  0  0  0
  150.1689  139.7862  155.9291 C   0  0  0  0  0  0  0  0  0  0  0  0
  150.8200  140.7000  156.8056 C   0  0  0  0  0  0  0  0  0  0  0  0
  150.5377  142.0058  156.4212 N   0  0  0  0  0  0  0  0  0  0  0  0
  149.7597  141.8711  155.3824 C   0  0  0  0  0  0  0  0  0  0  0  0
  149.4603  140.5725  155.0367 N   0  0  0  0  0  0  0  0  0  0  0  0
  148.6664  140.1449  153.9214 C   0  0  0  0  0  0  0  0  0  0  0  0
  147.1374  140.2361  153.9606 C   0  0  0  0  0  0  0  0  0  0  0  0
  147.0242  138.9110  153.1750 C   0  0  0  0  0  0  0  0  0  0  0  0
  146.0164  137.8988  153.7417 C   0  0  0  0  0  0  0  0  0  0  0  0
  144.6951  138.2074  153.3460 O   0  0  0  0  0  0  0  0  0  0  0  0
  146.7606  139.0128  151.6559 C   0  0  0  0  0  0  0  0  0  0  0  0
  146.8029  137.7641  150.9956 O   0  0  0  0  0  0  0  0  0  0  0  0
  148.4879  138.6576  153.6005 C   0  0  0  0  0  0  0  0  0  0  0  0
  151.4777  141.9186  159.3914 C   0  0  0  0  0  0  0  0  0  0  0  0
  150.2104  145.4761  160.6731 H   0  0  0  0  0  0  0  0  0  0  0  0
  150.0389  144.2927  159.3902 H   0  0  0  0  0  0  0  0  0  0  0  0
  151.3272  145.5105  159.3250 H   0  0  0  0  0  0  0  0  0  0  0  0
  153.7159  143.1934  158.2932 H   0  0  0  0  0  0  0  0  0  0  0  0
  153.7440  144.5779  159.3775 H   0  0  0  0  0  0  0  0  0  0  0  0
  152.3766  144.3243  158.3015 H   0  0  0  0  0  0  0  0  0  0  0  0
  154.0985  143.0710  161.3889 H   0  0  0  0  0  0  0  0  0  0  0  0
  152.8945  141.8991  161.8539 H   0  0  0  0  0  0  0  0  0  0  0  0
  154.8470  141.6069  159.5424 H   0  0  0  0  0  0  0  0  0  0  0  0
  154.8162  140.6848  161.0199 H   0  0  0  0  0  0  0  0  0  0  0  0
  153.7993  139.4502  159.0842 H   0  0  0  0  0  0  0  0  0  0  0  0
  152.6672  139.6441  160.4127 H   0  0  0  0  0  0  0  0  0  0  0  0
  151.1258  136.9529  157.0999 H   0  0  0  0  0  0  0  0  0  0  0  0
  149.3764  142.7231  154.8397 H   0  0  0  0  0  0  0  0  0  0  0  0
  149.0612  140.6790  153.0564 H   0  0  0  0  0  0  0  0  0  0  0  0
  146.7414  140.1575  154.9745 H   0  0  0  0  0  0  0  0  0  0  0  0
  146.7258  141.1071  153.4496 H   0  0  0  0  0  0  0  0  0  0  0  0
  146.2539  136.8833  153.4221 H   0  0  0  0  0  0  0  0  0  0  0  0
  146.0423  137.8921  154.8319 H   0  0  0  0  0  0  0  0  0  0  0  0
  144.6803  139.0912  153.0116 H   0  0  0  0  0  0  0  0  0  0  0  0
  145.7825  139.4548  151.4632 H   0  0  0  0  0  0  0  0  0  0  0  0
  147.4952  139.6592  151.1748 H   0  0  0  0  0  0  0  0  0  0  0  0
  147.5776  137.3017  151.2771 H   0  0  0  0  0  0  0  0  0  0  0  0
  149.1396  138.2887  152.8078 H   0  0  0  0  0  0  0  0  0  0  0  0
  148.5710  138.0321  154.4910 H   0  0  0  0  0  0  0  0  0  0  0  0
  150.8629  141.4311  160.1481 H   0  0  0  0  0  0  0  0  0  0  0  0
  150.7888  142.3878  158.6897 H   0  0  0  0  0  0  0  0  0  0  0  0
  1  2  1  0  0  0  0
  1 27  1  0  0  0  0
  1 28  1  0  0  0  0
  1 29  1  0  0  0  0
  2  3  1  0  0  0  0
  3 26  1  0  0  0  0
  3  4  1  0  0  0  0
  3  5  1  0  0  0  0
  4 30  1  0  0  0  0
  4 31  1  0  0  0  0
  4 32  1  0  0  0  0
  5  6  1  0  0  0  0
  5 33  1  0  0  0  0
  5 34  1  0  0  0  0
  6  7  1  0  0  0  0
  6 35  1  0  0  0  0
  6 36  1  0  0  0  0
  7  8  1  0  0  0  0
  7 37  1  0  0  0  0
  7 38  1  0  0  0  0
  8  9  1  0  0  0  0
  8 26  1  0  0  0  0
  9 14  1  0  0  0  0
  9 10  2  0  0  0  0
 10 11  1  0  0  0  0
 11 12  2  0  0  0  0
 11 39  1  0  0  0  0
 12 13  1  0  0  0  0
 13 17  1  0  0  0  0
 13 14  2  0  0  0  0
 14 15  1  0  0  0  0
 15 16  2  0  0  0  0
 16 17  1  0  0  0  0
 16 40  1  0  0  0  0
 17 18  1  0  0  0  0
 18 25  1  0  0  0  0
 18 19  1  0  0  0  0
 18 41  1  0  0  0  0
 19 20  1  0  0  0  0
 19 42  1  0  0  0  0
 19 43  1  0  0  0  0
 20 21  1  0  0  0  0
 20 23  1  0  0  0  0
 20 25  1  0  0  0  0
 21 22  1  0  0  0  0
 21 44  1  0  0  0  0
 21 45  1  0  0  0  0
 22 46  1  0  0  0  0
 23 24  1  0  0  0  0
 23 47  1  0  0  0  0
 23 48  1  0  0  0  0
 24 49  1  0  0  0  0
 25 50  1  0  0  0  0
 25 51  1  0  0  0  0
 26 52  1  0  0  0  0
 26 53  1  0  0  0  0
M  END
> <s_m_source_file>
AV-unprocessed.smi

> <i_m_source_file_index>
23

> <i_lp_mmshare_version>
43012

> <i_f3d_flags>
0

> <s_epik_input>
W0NIM11PW0NAQF0xKFtDSDNdKVtDSDJdW0NIMl1bQ0gyXU4oW0NIMl0xKWMobltjSF1uMiljKGMyMyluW2NIXW4zW0NIXShbQ0gyXTQpW0NIMl1DNChbQ0gyXVtPSF0pW0NIMl1bT0hd

> <s_epik_cmdline>
J2VwaWtfcHl0aG9uJywgJy1waCcsICc3LjAnLCAnLXRuJywgJzgnLCAnLW1hJywgJzIwMCcsICctbWV0YWxfYmluZGluZycsICctaW1hZScsICc8aW5maWxlLm1hZT4nLCAnLW9tYWUnLCAnPG91dGZpbGUubWFlPic=

> <r_lp_tautomer_probability>
1

> <r_epik_Ionization_Penalty>
0.00233978

> <r_epik_Ionization_Penalty_Charging>
0

> <r_epik_Ionization_Penalty_Neutral>
0.00233978

> <r_epik_State_Penalty>
0.00146422

> <r_epik_Charging_Adjusted_Penalty>
0.00146422

> <i_epik_Tot_Q>
0

> <i_epik_Tot_abs_Q>
0

> <r_epik_Metal_State_Penalty>
-0

> <b_epik_Metal_Only>
0

> <s_lp_Force_Field>
OPLS_2005

> <r_lp_Energy>
49.0819

> <b_lp_Chiralities_Consistent>
1

> <s_lp_Variant>
AV-unprocessed.smi:23-1

> <Gold.Version>
5.8.1

> <Gold.Id.Protein>
6NUR|6NUR_protein|mol2

> <Gold.PLP.Fitness>
52.6974

> <Gold.PLP.PLP>
-44.7274

> <Gold.PLP.part.hbond>
-3.2112

> <Gold.PLP.part.metal>
0.0000

> <Gold.PLP.part.buried>
-1.4337

> <Gold.PLP.part.nonpolar>
-41.3492

> <Gold.PLP.part.repulsive>
0.2142

> <Gold.PLP.ligand.clash>
0.0000

> <Gold.PLP.ligand.torsion>
0.6211

> <Gold.PLP.Chemscore.Hbond>
1.8640

> <Gold.PLP.Chemscore.CHOScore>
0.9212

> <Gold.PLP.Chemscore.Metal>
0.0000

> <Gold.Chemscore.Hbonds>
donor molecule, donor type, donor heavy atom, donor atom, acceptor molecule, acceptor atom, score
      L1  H    22    46       P1 10175  0.93
      L1  H    24    49       P1  7948  1.00
      L1  C    16    40       P1  8028  0.96

> <Gold.PLP.Chemscore.Internal.Correction>
0.8565

> <Gold.Rescore>
     Score         DG    S(hbond)    S(metal)    S(lipo)     H(rot)  DE(clash)    DE(int)     intcor
     14.49     -16.73       1.94        0.00     114.75       3.38       0.50       1.75       ----

> <Gold.Chemscore.Fitness>
14.4896

> <Gold.Chemscore.DG>
-16.7319

> <Gold.Chemscore.ZeroCoef>
-5.4800

> <Gold.Chemscore.Hbond>
1.9425

> <Gold.Chemscore.Metal>
0.0000

> <Gold.Chemscore.Lipo>
114.7525

> <Gold.Chemscore.Internal_Hbond>
0.0000

> <Gold.Chemscore.DEClash>
0.4964

> <Gold.Chemscore.DEInternal>
1.7459

> <Gold.Chemscore.Rot>
3.3837

> <Gold.Chemscore.Internal.Correction>
   9.000000E+99

> <Gold.Chemscore.Hbonds>
donor molecule, donor type, donor heavy atom, donor atom, acceptor molecule, acceptor atom, score
      L1  H    22    46       P1 10175  0.90
      L1  H    24    49       P1  7948  1.00

> <Gold.Chemscore.Hbond.Weighted>
-6.4881

> <Gold.Chemscore.Metal.Weighted>
-0.0000

> <Gold.Chemscore.Lipo.Weighted>
-13.4260

> <Gold.Chemscore.Internal_Hbond.Weighted>
0.0000

> <Gold.Chemscore.DEClash.Weighted>
0.4964

> <Gold.Chemscore.DEInternal.Weighted>
1.7459

> <Gold.Chemscore.Rot.Weighted>
8.6622

> <Gold.Chemscore.Internal.Correction.Weighted>
   9.000000E+99

> <Gold.Protein.RotatedTorsions>
[ 6907 6896 6895 6894 ] final   70.66 input  -60.11 | X-H torsion
[ 7974 7965 7964 7962 ] final   66.09 input  175.53 | X-H torsion
[ 8008 7997 7996 7995 ] final  -88.59 input   59.86 | X-H torsion
[ 10167 10162 10161 10158 ] final  -14.36 input  -65.29 | X-H torsion
[ 10718 10713 10712 10709 ] final -112.54 input   66.30 | X-H torsion
[ 10763 10752 10751 10750 ] final   16.36 input  -60.55 | X-H torsion
[ 11005 11000 10999 10996 ] final  110.61 input  -57.11 | X-H torsion

> <Gold.Protein.ActiveResidues>
 VAL166  LYS551  ARG553  GLY616  TRP617  ASP618  TYR619  PRO620  LYS621  CYS622 
 ASP623  PHE694  ASN695  SER759  ASP760  ASP761  ALA762  ILE779  LEU786  VAL792 
 PHE793  MET794  SER795  GLU796  ALA797  LYS798  CYS799  TRP800  GLU811  SER814 

> <Gold.Protein.RotatedAtoms>
  152.4763  134.4835  159.9672 H   0  0  0  0  0  0  0  0  0  0  0  0  # atno 6907 bound_to 6896
  151.4850  133.3532  159.2852 H   0  0  0  0  0  0  0  0  0  0  0  0  # atno 6908 bound_to 6896
  150.8804  134.8221  159.7282 H   0  0  0  0  0  0  0  0  0  0  0  0  # atno 6909 bound_to 6896
  145.8307  139.3137  143.0989 H   0  0  0  0  0  0  0  0  0  0  0  0  # atno 7974 bound_to 7965
  154.6766  140.0552  157.0222 H   0  0  0  0  0  0  0  0  0  0  0  0  # atno 8008 bound_to 7997
  155.1012  140.3229  155.4528 H   0  0  0  0  0  0  0  0  0  0  0  0  # atno 8009 bound_to 7997
  156.2678  140.2031  156.6138 H   0  0  0  0  0  0  0  0  0  0  0  0  # atno 8010 bound_to 7997
  140.7200  143.5329  150.9499 H   0  0  0  0  0  0  0  0  0  0  0  0  # atno 10167 bound_to 10162
  156.0712  130.5925  150.8522 H   0  0  0  0  0  0  0  0  0  0  0  0  # atno 10718 bound_to 10713
  153.1438  135.6765  153.8986 H   0  0  0  0  0  0  0  0  0  0  0  0  # atno 10763 bound_to 10752
  153.8435  135.3102  155.3429 H   0  0  0  0  0  0  0  0  0  0  0  0  # atno 10764 bound_to 10752
  154.7809  135.4889  153.9926 H   0  0  0  0  0  0  0  0  0  0  0  0  # atno 10765 bound_to 10752
  139.8885  134.9488  156.6305 H   0  0  0  0  0  0  0  0  0  0  0  0  # atno 11005 bound_to 11000
  145.9574  140.8862  143.0228 LP  0  0  0  0  0  0  0  0  0  0  0  0  # atno 17320 bound_to 7965
  144.6740  140.1765  143.7409 LP  0  0  0  0  0  0  0  0  0  0  0  0  # atno 17321 bound_to 7965
  139.9050  143.6790  152.3125 LP  0  0  0  0  0  0  0  0  0  0  0  0  # atno 17342 bound_to 10162
  139.7152  144.7613  151.1045 LP  0  0  0  0  0  0  0  0  0  0  0  0  # atno 17343 bound_to 10162
  157.5783  131.0946  150.9310 LP  0  0  0  0  0  0  0  0  0  0  0  0  # atno 17370 bound_to 10713
  156.9511  130.5420  149.5282 LP  0  0  0  0  0  0  0  0  0  0  0  0  # atno 17371 bound_to 10713
  140.7670  133.8770  155.8462 LP  0  0  0  0  0  0  0  0  0  0  0  0  # atno 17394 bound_to 11000
  140.9874  134.1324  157.4440 LP  0  0  0  0  0  0  0  0  0  0  0  0  # atno 17395 bound_to 11000

$$$$
