AV-unprocessed.smi:2759|AV-procd|sdf|10626|dock5
  -GOLD-   2272015 73D 1   1.00000     0.00000
 Structure written by MMmdl.
 43 44  0  0  0  0  0  0  0  0  1 V2000
  146.6784  140.6423  153.7257 C   0  0  0  0  0  0  0  0  0  0  0  0
  147.8915  139.7300  153.4575 C   0  0  0  0  0  0  0  0  0  0  0  0
  147.5041  138.2760  153.7866 C   0  0  0  0  0  0  0  0  0  0  0  0
  149.1510  140.2042  154.2308 C   0  0  2  0  0  0  0  0  0  0  0  0
  149.5283  141.4812  153.7474 O   0  0  0  0  0  0  0  0  0  0  0  0
  150.3773  139.2769  154.0773 C   0  0  0  0  0  0  0  0  0  0  0  0
  151.4600  139.5829  155.0600 C   0  0  0  0  0  0  0  0  0  0  0  0
  151.5319  139.1794  156.3259 N   0  0  0  0  0  0  0  0  0  0  0  0
  152.7508  139.6684  156.6881 C   0  0  0  0  0  0  0  0  0  0  0  0
  153.3349  139.4597  158.0493 C   0  0  0  0  0  0  0  0  0  0  0  0
  153.7358  140.7976  158.6758 C   0  0  0  0  0  0  0  0  0  0  0  0
  154.8339  140.9192  159.2181 O   0  0  0  0  0  0  0  0  0  0  0  0
  152.8390  141.7933  158.5910 N   0  0  0  0  0  0  0  0  0  0  0  0
  153.0036  143.1279  159.1591 C   0  0  0  0  0  0  0  0  0  0  0  0
  152.8408  143.0909  160.6908 C   0  0  0  0  0  0  0  0  0  0  0  0
  151.8823  144.2299  161.0423 C   0  0  0  0  0  0  0  0  0  0  0  0
  150.9898  144.3650  159.8128 C   0  0  0  0  0  0  0  0  0  0  0  0
  151.9307  144.1037  158.6363 C   0  0  0  0  0  0  0  0  0  0  0  0
  153.4093  140.3358  155.7472 N   0  0  0  0  0  0  0  0  0  0  0  0
  152.5511  140.2674  154.6404 O   0  0  0  0  0  0  0  0  0  0  0  0
  146.4275  140.6649  154.7867 H   0  0  0  0  0  0  0  0  0  0  0  0
  145.7976  140.2951  153.1848 H   0  0  0  0  0  0  0  0  0  0  0  0
  146.8620  141.6680  153.4052 H   0  0  0  0  0  0  0  0  0  0  0  0
  148.1075  139.7785  152.3891 H   0  0  0  0  0  0  0  0  0  0  0  0
  147.3697  138.1347  154.8595 H   0  0  0  0  0  0  0  0  0  0  0  0
  148.2527  137.5631  153.4434 H   0  0  0  0  0  0  0  0  0  0  0  0
  146.5688  137.9999  153.2988 H   0  0  0  0  0  0  0  0  0  0  0  0
  148.8972  140.2965  155.2880 H   0  0  0  0  0  0  0  0  0  0  0  0
  150.2831  141.7764  154.2339 H   0  0  0  0  0  0  0  0  0  0  0  0
  150.1000  138.2366  154.2372 H   0  0  0  0  0  0  0  0  0  0  0  0
  150.7813  139.3326  153.0655 H   0  0  0  0  0  0  0  0  0  0  0  0
  152.6109  138.9511  158.6876 H   0  0  0  0  0  0  0  0  0  0  0  0
  154.2092  138.8112  157.9804 H   0  0  0  0  0  0  0  0  0  0  0  0
  151.9662  141.6045  158.1193 H   0  0  0  0  0  0  0  0  0  0  0  0
  153.9951  143.5111  158.9105 H   0  0  0  0  0  0  0  0  0  0  0  0
  152.3980  142.1455  161.0089 H   0  0  0  0  0  0  0  0  0  0  0  0
  153.7953  143.1876  161.2089 H   0  0  0  0  0  0  0  0  0  0  0  0
  151.3159  144.0366  161.9538 H   0  0  0  0  0  0  0  0  0  0  0  0
  152.4457  145.1524  161.1894 H   0  0  0  0  0  0  0  0  0  0  0  0
  150.2113  143.6013  159.8380 H   0  0  0  0  0  0  0  0  0  0  0  0
  150.5017  145.3381  159.7514 H   0  0  0  0  0  0  0  0  0  0  0  0
  152.4103  145.0391  158.3458 H   0  0  0  0  0  0  0  0  0  0  0  0
  151.3952  143.7350  157.7604 H   0  0  0  0  0  0  0  0  0  0  0  0
  1  2  1  0  0  0  0
  1 21  1  0  0  0  0
  1 22  1  0  0  0  0
  1 23  1  0  0  0  0
  2  3  1  0  0  0  0
  2  4  1  0  0  0  0
  2 24  1  0  0  0  0
  3 25  1  0  0  0  0
  3 26  1  0  0  0  0
  3 27  1  0  0  0  0
  4  5  1  0  0  0  0
  4  6  1  0  0  0  0
  4 28  1  0  0  0  0
  5 29  1  0  0  0  0
  6  7  1  0  0  0  0
  6 30  1  0  0  0  0
  6 31  1  0  0  0  0
  7 20  1  0  0  0  0
  7  8  2  0  0  0  0
  8  9  1  0  0  0  0
  9 10  1  0  0  0  0
  9 19  2  0  0  0  0
 10 11  1  0  0  0  0
 10 32  1  0  0  0  0
 10 33  1  0  0  0  0
 11 12  2  0  0  0  0
 11 13  1  0  0  0  0
 13 14  1  0  0  0  0
 13 34  1  0  0  0  0
 14 18  1  0  0  0  0
 14 15  1  0  0  0  0
 14 35  1  0  0  0  0
 15 16  1  0  0  0  0
 15 36  1  0  0  0  0
 15 37  1  0  0  0  0
 16 17  1  0  0  0  0
 16 38  1  0  0  0  0
 16 39  1  0  0  0  0
 17 18  1  0  0  0  0
 17 40  1  0  0  0  0
 17 41  1  0  0  0  0
 18 42  1  0  0  0  0
 18 43  1  0  0  0  0
 19 20  1  0  0  0  0
M  END
> <s_m_source_file>
AV-unprocessed.smi

> <i_m_source_file_index>
2759

> <i_lp_mmshare_version>
43012

> <i_f3d_flags>
0

> <s_epik_input>
W0NIM11bQ0hdKFtDSDNdKVtDQEhdKFtPSF0pW0NIMl1jMW5jKG5vMSlbQ0gyXUMoPU8pW05IXVtDSF0yW0NIMl1bQ0gyXVtDSDJdW0NIMl0y

> <s_epik_cmdline>
J2VwaWtfcHl0aG9uJywgJy1waCcsICc3LjAnLCAnLXRuJywgJzgnLCAnLW1hJywgJzIwMCcsICctbWV0YWxfYmluZGluZycsICctaW1hZScsICc8aW5maWxlLm1hZT4nLCAnLW9tYWUnLCAnPG91dGZpbGUubWFlPic=

> <r_lp_tautomer_probability>
1

> <r_epik_Ionization_Penalty>
1.20032e-07

> <r_epik_Ionization_Penalty_Charging>
0

> <r_epik_Ionization_Penalty_Neutral>
1.20032e-07

> <r_epik_State_Penalty>
-0

> <r_epik_Charging_Adjusted_Penalty>
0

> <i_epik_Tot_Q>
0

> <i_epik_Tot_abs_Q>
0

> <r_epik_Metal_State_Penalty>
-0

> <b_epik_Metal_Only>
0

> <s_lp_Force_Field>
OPLS_2005

> <r_lp_Energy>
19.5735

> <b_lp_Chiralities_Consistent>
1

> <s_lp_Variant>
AV-unprocessed.smi:2759-1

> <Gold.Version>
5.8.1

> <Gold.Id.Protein>
6NUR|6NUR_protein|mol2

> <Gold.PLP.Fitness>
48.5064

> <Gold.PLP.PLP>
-41.4260

> <Gold.PLP.part.hbond>
-5.0000

> <Gold.PLP.part.metal>
0.0000

> <Gold.PLP.part.buried>
-3.1974

> <Gold.PLP.part.nonpolar>
-33.6748

> <Gold.PLP.part.repulsive>
0.1134

> <Gold.PLP.ligand.clash>
0.0000

> <Gold.PLP.ligand.torsion>
0.7242

> <Gold.PLP.Chemscore.Hbond>
2.8080

> <Gold.PLP.Chemscore.CHOScore>
0.0000

> <Gold.PLP.Chemscore.Metal>
0.0000

> <Gold.Chemscore.Hbonds>
donor molecule, donor type, donor heavy atom, donor atom, acceptor molecule, acceptor atom, score
      P1  H  7989  7998       L1    20  0.18
      P1  H  7997  8008       L1    12  0.04
      P1  H  8011  8017       L1     5  0.65

> <Gold.PLP.Chemscore.Internal.Correction>
0.1047

> <Gold.Rescore>
     Score         DG    S(hbond)    S(metal)    S(lipo)     H(rot)  DE(clash)    DE(int)     intcor
     15.36     -15.93       1.78        0.00      96.57       2.65       0.05       0.52       ----

> <Gold.Chemscore.Fitness>
15.3634

> <Gold.Chemscore.DG>
-15.9274

> <Gold.Chemscore.ZeroCoef>
-5.4800

> <Gold.Chemscore.Hbond>
1.7795

> <Gold.Chemscore.Metal>
0.0000

> <Gold.Chemscore.Lipo>
96.5711

> <Gold.Chemscore.Internal_Hbond>
0.0000

> <Gold.Chemscore.DEClash>
0.0467

> <Gold.Chemscore.DEInternal>
0.5172

> <Gold.Chemscore.Rot>
2.6543

> <Gold.Chemscore.Internal.Correction>
   9.000000E+99

> <Gold.Chemscore.Hbonds>
donor molecule, donor type, donor heavy atom, donor atom, acceptor molecule, acceptor atom, score
      P1  H  7989  7998       L1    20  0.01
      P1  H  8011  8017       L1     5  0.11

> <Gold.Chemscore.Hbond.Weighted>
-5.9436

> <Gold.Chemscore.Metal.Weighted>
-0.0000

> <Gold.Chemscore.Lipo.Weighted>
-11.2988

> <Gold.Chemscore.Internal_Hbond.Weighted>
0.0000

> <Gold.Chemscore.DEClash.Weighted>
0.0467

> <Gold.Chemscore.DEInternal.Weighted>
0.5172

> <Gold.Chemscore.Rot.Weighted>
6.7950

> <Gold.Chemscore.Internal.Correction.Weighted>
   9.000000E+99

> <Gold.Protein.RotatedTorsions>
[ 6907 6896 6895 6894 ] final    7.76 input  -60.11 | X-H torsion
[ 7974 7965 7964 7962 ] final -154.30 input  175.53 | X-H torsion
[ 8008 7997 7996 7995 ] final -152.17 input   59.86 | X-H torsion
[ 10167 10162 10161 10158 ] final   30.20 input  -65.29 | X-H torsion
[ 10718 10713 10712 10709 ] final  -19.87 input   66.30 | X-H torsion
[ 10763 10752 10751 10750 ] final  107.08 input  -60.55 | X-H torsion
[ 11005 11000 10999 10996 ] final -118.25 input  -57.11 | X-H torsion

> <Gold.Protein.ActiveResidues>
 VAL166  LYS551  ARG553  GLY616  TRP617  ASP618  TYR619  PRO620  LYS621  CYS622 
 ASP623  PHE694  ASN695  SER759  ASP760  ASP761  ALA762  ILE779  LEU786  VAL792 
 PHE793  MET794  SER795  GLU796  ALA797  LYS798  CYS799  TRP800  GLU811  SER814 

> <Gold.Protein.RotatedAtoms>
  151.6951  135.0940  160.0240 H   0  0  0  0  0  0  0  0  0  0  0  0  # atno 6907 bound_to 6896
  152.3755  133.6471  159.6128 H   0  0  0  0  0  0  0  0  0  0  0  0  # atno 6908 bound_to 6896
  150.7705  133.9117  159.3413 H   0  0  0  0  0  0  0  0  0  0  0  0  # atno 6909 bound_to 6896
  144.7696  140.4407  143.5917 H   0  0  0  0  0  0  0  0  0  0  0  0  # atno 7974 bound_to 7965
  155.6510  140.0712  157.2587 H   0  0  0  0  0  0  0  0  0  0  0  0  # atno 8008 bound_to 7997
  154.4162  140.1733  156.1724 H   0  0  0  0  0  0  0  0  0  0  0  0  # atno 8009 bound_to 7997
  155.9777  140.3356  155.6637 H   0  0  0  0  0  0  0  0  0  0  0  0  # atno 8010 bound_to 7997
  140.4698  144.0779  150.6234 H   0  0  0  0  0  0  0  0  0  0  0  0  # atno 10167 bound_to 10162
  156.5397  130.4675  149.6505 H   0  0  0  0  0  0  0  0  0  0  0  0  # atno 10718 bound_to 10713
  153.4018  135.3856  155.1993 H   0  0  0  0  0  0  0  0  0  0  0  0  # atno 10763 bound_to 10752
  154.8730  135.3773  154.4609 H   0  0  0  0  0  0  0  0  0  0  0  0  # atno 10764 bound_to 10752
  153.5107  135.7087  153.5844 H   0  0  0  0  0  0  0  0  0  0  0  0  # atno 10765 bound_to 10752
  141.0299  133.9997  157.3159 H   0  0  0  0  0  0  0  0  0  0  0  0  # atno 11005 bound_to 11000
  145.6364  139.1543  143.2940 LP  0  0  0  0  0  0  0  0  0  0  0  0  # atno 17320 bound_to 7965
  146.1832  140.6464  142.9179 LP  0  0  0  0  0  0  0  0  0  0  0  0  # atno 17321 bound_to 7965
  140.3991  143.2713  151.9970 LP  0  0  0  0  0  0  0  0  0  0  0  0  # atno 17342 bound_to 10162
  139.4817  144.6013  151.7600 LP  0  0  0  0  0  0  0  0  0  0  0  0  # atno 17343 bound_to 10162
  156.2983  130.7163  151.2028 LP  0  0  0  0  0  0  0  0  0  0  0  0  # atno 17370 bound_to 10713
  157.7407  131.0513  150.5145 LP  0  0  0  0  0  0  0  0  0  0  0  0  # atno 17371 bound_to 10713
  139.9200  135.0200  156.8030 LP  0  0  0  0  0  0  0  0  0  0  0  0  # atno 17394 bound_to 11000
  140.6426  133.9805  155.7715 LP  0  0  0  0  0  0  0  0  0  0  0  0  # atno 17395 bound_to 11000

$$$$
