AV-unprocessed.smi:2853|AV-procd|sdf|10974|dock6
  -GOLD-   2272015423D 1   1.00000     0.00000
 Structure written by MMmdl.
 43 44  0  0  0  0  0  0  0  0  1 V2000
  141.7589  137.1553  151.3427 C   0  0  0  0  0  0  0  0  0  0  0  0
  143.1957  136.8772  151.6224 C   0  0  0  0  0  0  0  0  0  0  0  0
  143.8485  135.8135  151.1570 N   0  0  0  0  0  0  0  0  0  0  0  0
  145.1874  135.7813  151.5579 C   0  0  0  0  0  0  0  0  0  0  0  0
  146.0489  134.6316  151.1129 C   0  0  0  0  0  0  0  0  0  0  0  0
  145.5586  133.2621  151.6274 C   0  0  0  0  0  0  0  0  0  0  0  0
  146.5159  132.1159  151.2570 C   0  0  0  0  0  0  0  0  0  0  0  0
  144.1384  132.9663  151.1236 C   0  0  0  0  0  0  0  0  0  0  0  0
  145.5641  136.8408  152.3549 C   0  0  0  0  0  0  0  0  0  0  0  0
  146.8127  137.0164  152.8633 N   0  0  0  0  0  0  0  0  0  0  0  0
  147.2388  137.8980  153.7839 C   0  0  0  0  0  0  0  0  0  0  0  0
  146.5360  138.7332  154.3522 O   0  0  0  0  0  0  0  0  0  0  0  0
  148.5519  137.7383  154.0202 N   0  0  0  0  0  0  0  0  0  0  0  0
  149.4092  138.4706  154.9625 C   0  0  2  0  0  0  0  0  0  0  0  0
  149.3907  137.6998  156.2954 C   0  0  0  0  0  0  0  0  0  0  0  0
  148.9586  139.9261  155.1774 C   0  0  0  0  0  0  0  0  0  0  0  0
  150.1309  140.7633  154.6694 C   0  0  0  0  0  0  0  0  0  0  0  0
  151.2499  139.9162  154.8642 O   0  0  0  0  0  0  0  0  0  0  0  0
  150.8574  138.6182  154.4474 C   0  0  0  0  0  0  0  0  0  0  0  0
  144.2043  137.9252  152.6027 S   0  0  0  0  0  0  0  0  0  0  0  0
  141.2996  136.3167  150.8183 H   0  0  0  0  0  0  0  0  0  0  0  0
  141.6665  138.0485  150.7247 H   0  0  0  0  0  0  0  0  0  0  0  0
  141.2226  137.3183  152.2775 H   0  0  0  0  0  0  0  0  0  0  0  0
  146.0779  134.6113  150.0225 H   0  0  0  0  0  0  0  0  0  0  0  0
  147.0826  134.7878  151.4230 H   0  0  0  0  0  0  0  0  0  0  0  0
  145.5075  133.3115  152.7159 H   0  0  0  0  0  0  0  0  0  0  0  0
  146.6430  132.0390  150.1767 H   0  0  0  0  0  0  0  0  0  0  0  0
  146.1381  131.1582  151.6158 H   0  0  0  0  0  0  0  0  0  0  0  0
  147.5020  132.2582  151.6995 H   0  0  0  0  0  0  0  0  0  0  0  0
  144.1091  132.9063  150.0354 H   0  0  0  0  0  0  0  0  0  0  0  0
  143.4401  133.7443  151.4337 H   0  0  0  0  0  0  0  0  0  0  0  0
  143.7693  132.0196  151.5193 H   0  0  0  0  0  0  0  0  0  0  0  0
  147.5078  136.3702  152.5200 H   0  0  0  0  0  0  0  0  0  0  0  0
  149.0179  137.0168  153.4903 H   0  0  0  0  0  0  0  0  0  0  0  0
  150.0301  138.1770  157.0392 H   0  0  0  0  0  0  0  0  0  0  0  0
  149.7469  136.6770  156.1671 H   0  0  0  0  0  0  0  0  0  0  0  0
  148.3832  137.6481  156.7101 H   0  0  0  0  0  0  0  0  0  0  0  0
  148.0273  140.1855  154.6726 H   0  0  0  0  0  0  0  0  0  0  0  0
  148.8061  140.1313  156.2377 H   0  0  0  0  0  0  0  0  0  0  0  0
  150.0221  140.9876  153.6072 H   0  0  0  0  0  0  0  0  0  0  0  0
  150.2401  141.7047  155.2082 H   0  0  0  0  0  0  0  0  0  0  0  0
  151.5328  137.8598  154.8446 H   0  0  0  0  0  0  0  0  0  0  0  0
  150.9262  138.5726  153.3601 H   0  0  0  0  0  0  0  0  0  0  0  0
  1  2  1  0  0  0  0
  1 21  1  0  0  0  0
  1 22  1  0  0  0  0
  1 23  1  0  0  0  0
  2 20  1  0  0  0  0
  2  3  2  0  0  0  0
  3  4  1  0  0  0  0
  4  5  1  0  0  0  0
  4  9  2  0  0  0  0
  5  6  1  0  0  0  0
  5 24  1  0  0  0  0
  5 25  1  0  0  0  0
  6  7  1  0  0  0  0
  6  8  1  0  0  0  0
  6 26  1  0  0  0  0
  7 27  1  0  0  0  0
  7 28  1  0  0  0  0
  7 29  1  0  0  0  0
  8 30  1  0  0  0  0
  8 31  1  0  0  0  0
  8 32  1  0  0  0  0
  9 10  1  0  0  0  0
  9 20  1  0  0  0  0
 10 11  1  0  0  0  0
 10 33  1  0  0  0  0
 11 12  2  0  0  0  0
 11 13  1  0  0  0  0
 13 14  1  0  0  0  0
 13 34  1  0  0  0  0
 14 19  1  0  0  0  0
 14 15  1  0  0  0  0
 14 16  1  0  0  0  0
 15 35  1  0  0  0  0
 15 36  1  0  0  0  0
 15 37  1  0  0  0  0
 16 17  1  0  0  0  0
 16 38  1  0  0  0  0
 16 39  1  0  0  0  0
 17 18  1  0  0  0  0
 17 40  1  0  0  0  0
 17 41  1  0  0  0  0
 18 19  1  0  0  0  0
 19 42  1  0  0  0  0
 19 43  1  0  0  0  0
M  END
> <s_m_source_file>
AV-unprocessed.smi

> <i_m_source_file_index>
2853

> <i_lp_mmshare_version>
43012

> <i_f3d_flags>
0

> <s_epik_input>
W0NIM11jMW5jKFtDSDJdW0NIXShbQ0gzXSlbQ0gzXSljKHMxKVtOSF1DKD1PKVtOSF1bQ0BAXTIoW0NIM10pW0NIMl1bQ0gyXU9bQ0gyXTI=

> <s_epik_cmdline>
J2VwaWtfcHl0aG9uJywgJy1waCcsICc3LjAnLCAnLXRuJywgJzgnLCAnLW1hJywgJzIwMCcsICctbWV0YWxfYmluZGluZycsICctaW1hZScsICc8aW5maWxlLm1hZT4nLCAnLW9tYWUnLCAnPG91dGZpbGUubWFlPic=

> <r_epik_Ionization_Penalty>
0.000723394

> <r_epik_Ionization_Penalty_Charging>
0

> <r_epik_Ionization_Penalty_Neutral>
0.000723394

> <r_epik_State_Penalty>
0.000446791

> <r_epik_Charging_Adjusted_Penalty>
0.000446791

> <i_epik_Tot_Q>
0

> <i_epik_Tot_abs_Q>
0

> <r_epik_Metal_State_Penalty>
-0

> <b_epik_Metal_Only>
0

> <s_lp_Force_Field>
OPLS_2005

> <r_lp_Energy>
15.0202

> <b_lp_Chiralities_Consistent>
1

> <s_lp_Variant>
AV-unprocessed.smi:2853-2

> <Gold.Version>
5.8.1

> <Gold.Id.Protein>
6NUR|6NUR_protein|mol2

> <Gold.PLP.Fitness>
36.7490

> <Gold.PLP.PLP>
-28.9175

> <Gold.PLP.part.hbond>
-3.0000

> <Gold.PLP.part.metal>
0.0000

> <Gold.PLP.part.buried>
-6.7739

> <Gold.PLP.part.nonpolar>
-19.7760

> <Gold.PLP.part.repulsive>
0.2752

> <Gold.PLP.ligand.clash>
0.0000

> <Gold.PLP.ligand.torsion>
0.5932

> <Gold.PLP.Chemscore.Hbond>
3.0000

> <Gold.PLP.Chemscore.CHOScore>
0.0000

> <Gold.PLP.Chemscore.Metal>
0.0000

> <Gold.Chemscore.Hbonds>
donor molecule, donor type, donor heavy atom, donor atom, acceptor molecule, acceptor atom, score
      L1  H    10    33       P1  7948  0.91
      L1  H    13    34       P1  7948  0.82

> <Gold.PLP.Chemscore.Internal.Correction>
0.0180

> <Gold.Rescore>
     Score         DG    S(hbond)    S(metal)    S(lipo)     H(rot)  DE(clash)    DE(int)     intcor
     14.09     -17.21       2.08        0.00      68.74       1.28       0.01       3.10       ----

> <Gold.Chemscore.Fitness>
14.0940

> <Gold.Chemscore.DG>
-17.2058

> <Gold.Chemscore.ZeroCoef>
-5.4800

> <Gold.Chemscore.Hbond>
2.0803

> <Gold.Chemscore.Metal>
0.0000

> <Gold.Chemscore.Lipo>
68.7373

> <Gold.Chemscore.Internal_Hbond>
0.0000

> <Gold.Chemscore.DEClash>
0.0088

> <Gold.Chemscore.DEInternal>
3.1030

> <Gold.Chemscore.Rot>
1.2753

> <Gold.Chemscore.Internal.Correction>
   9.000000E+99

> <Gold.Chemscore.Hbonds>
donor molecule, donor type, donor heavy atom, donor atom, acceptor molecule, acceptor atom, score
      L1  H    10    33       P1  7948  0.88
      L1  H    13    34       P1  7948  0.81

> <Gold.Chemscore.Hbond.Weighted>
-6.9482

> <Gold.Chemscore.Metal.Weighted>
-0.0000

> <Gold.Chemscore.Lipo.Weighted>
-8.0423

> <Gold.Chemscore.Internal_Hbond.Weighted>
0.0000

> <Gold.Chemscore.DEClash.Weighted>
0.0088

> <Gold.Chemscore.DEInternal.Weighted>
3.1030

> <Gold.Chemscore.Rot.Weighted>
3.2646

> <Gold.Chemscore.Internal.Correction.Weighted>
   9.000000E+99

> <Gold.Protein.RotatedTorsions>
[ 6907 6896 6895 6894 ] final   21.46 input  -60.11 | X-H torsion
[ 7974 7965 7964 7962 ] final  138.66 input  175.53 | X-H torsion
[ 8008 7997 7996 7995 ] final -173.78 input   59.86 | X-H torsion
[ 10167 10162 10161 10158 ] final   26.90 input  -65.29 | X-H torsion
[ 10718 10713 10712 10709 ] final  151.72 input   66.30 | X-H torsion
[ 10763 10752 10751 10750 ] final  -65.31 input  -60.55 | X-H torsion
[ 11005 11000 10999 10996 ] final   92.76 input  -57.11 | X-H torsion

> <Gold.Protein.ActiveResidues>
 VAL166  LYS551  ARG553  GLY616  TRP617  ASP618  TYR619  PRO620  LYS621  CYS622 
 ASP623  PHE694  ASN695  SER759  ASP760  ASP761  ALA762  ILE779  LEU786  VAL792 
 PHE793  MET794  SER795  GLU796  ALA797  LYS798  CYS799  TRP800  GLU811  SER814 

> <Gold.Protein.RotatedAtoms>
  151.9121  135.0334  160.0514 H   0  0  0  0  0  0  0  0  0  0  0  0  # atno 6907 bound_to 6896
  152.2271  133.5024  159.5203 H   0  0  0  0  0  0  0  0  0  0  0  0  # atno 6908 bound_to 6896
  150.7015  134.1182  159.4068 H   0  0  0  0  0  0  0  0  0  0  0  0  # atno 6909 bound_to 6896
  144.9351  139.4999  143.5599 H   0  0  0  0  0  0  0  0  0  0  0  0  # atno 7974 bound_to 7965
  155.9618  140.1146  157.0889 H   0  0  0  0  0  0  0  0  0  0  0  0  # atno 8008 bound_to 7997
  154.4134  140.1180  156.5256 H   0  0  0  0  0  0  0  0  0  0  0  0  # atno 8009 bound_to 7997
  155.6710  140.3473  155.4820 H   0  0  0  0  0  0  0  0  0  0  0  0  # atno 8010 bound_to 7997
  140.4983  144.0356  150.6323 H   0  0  0  0  0  0  0  0  0  0  0  0  # atno 10167 bound_to 10162
  157.2671  131.0809  151.1625 H   0  0  0  0  0  0  0  0  0  0  0  0  # atno 10718 bound_to 10713
  154.3430  135.6152  153.5606 H   0  0  0  0  0  0  0  0  0  0  0  0  # atno 10763 bound_to 10752
  152.9803  135.5774  154.4830 H   0  0  0  0  0  0  0  0  0  0  0  0  # atno 10764 bound_to 10752
  154.4538  135.2853  155.1739 H   0  0  0  0  0  0  0  0  0  0  0  0  # atno 10765 bound_to 10752
  139.8819  134.8751  156.3620 H   0  0  0  0  0  0  0  0  0  0  0  0  # atno 11005 bound_to 11000
  146.3263  139.8330  142.8904 LP  0  0  0  0  0  0  0  0  0  0  0  0  # atno 17320 bound_to 7965
  145.3079  141.0212  143.3571 LP  0  0  0  0  0  0  0  0  0  0  0  0  # atno 17321 bound_to 7965
  140.3644  143.2889  152.0348 LP  0  0  0  0  0  0  0  0  0  0  0  0  # atno 17342 bound_to 10162
  139.4866  144.6278  151.7130 LP  0  0  0  0  0  0  0  0  0  0  0  0  # atno 17343 bound_to 10162
  157.3112  130.6891  149.6217 LP  0  0  0  0  0  0  0  0  0  0  0  0  # atno 17370 bound_to 10713
  155.9663  130.4363  150.5128 LP  0  0  0  0  0  0  0  0  0  0  0  0  # atno 17371 bound_to 10713
  140.9523  133.7443  156.0288 LP  0  0  0  0  0  0  0  0  0  0  0  0  # atno 17394 bound_to 11000
  140.8091  134.3420  157.5417 LP  0  0  0  0  0  0  0  0  0  0  0  0  # atno 17395 bound_to 11000

$$$$
