AV-unprocessed.smi:1920|AV-procd|sdf|7780|dock10
  -GOLD-   22720 9523D 1   1.00000     0.00000
 Structure written by MMmdl.
 37 38  0  0  0  0  0  0  0  0  2 V2000
  151.8992  139.5131  154.7637 C   0  0  0  0  0  0  0  0  0  0  0  0
  150.6767  140.2696  155.3003 C   0  0  1  0  0  0  0  0  0  0  0  0
  149.3742  139.4850  155.0352 C   0  0  0  0  0  0  0  0  0  0  0  0
  148.2735  140.3394  154.5762 N   0  0  0  0  0  0  0  0  0  0  0  0
  148.2141  141.7089  154.6160 C   0  0  0  0  0  0  0  0  0  0  0  0
  147.0009  142.0632  154.0847 C   0  0  0  0  0  0  0  0  0  0  0  0
  146.3754  140.8966  153.7352 N   0  3  0  0  0  0  0  0  0  0  0  0
  147.1520  139.8497  154.0318 C   0  0  0  0  0  0  0  0  0  0  0  0
  150.8609  140.5124  156.7306 N   0  0  0  0  0  0  0  0  0  0  0  0
  151.0045  141.7140  157.3122 C   0  0  0  0  0  0  0  0  0  0  0  0
  150.9877  142.7743  156.6865 O   0  0  0  0  0  0  0  0  0  0  0  0
  151.1882  141.7108  158.8346 C   0  0  0  0  0  0  0  0  0  0  0  0
  152.2701  142.6880  159.3476 C   0  0  1  0  0  0  0  0  0  0  0  0
  151.8602  144.1396  159.2825 C   0  0  0  0  0  0  0  0  0  0  0  0
  151.9605  144.7578  160.4567 C   0  0  0  0  0  0  0  0  0  0  0  0
  152.4557  143.8477  161.5455 C   0  0  0  0  0  0  0  0  0  0  0  0
  152.6127  142.4790  160.8455 C   0  0  0  0  0  0  0  0  0  0  0  0
  151.8134  139.3401  153.6905 H   0  0  0  0  0  0  0  0  0  0  0  0
  152.0118  138.5426  155.2487 H   0  0  0  0  0  0  0  0  0  0  0  0
  152.8165  140.0787  154.9316 H   0  0  0  0  0  0  0  0  0  0  0  0
  150.6303  141.2207  154.7669 H   0  0  0  0  0  0  0  0  0  0  0  0
  149.5369  138.7354  154.2596 H   0  0  0  0  0  0  0  0  0  0  0  0
  149.0538  138.9480  155.9298 H   0  0  0  0  0  0  0  0  0  0  0  0
  149.0156  142.3130  155.0160 H   0  0  0  0  0  0  0  0  0  0  0  0
  146.5488  143.0325  153.9325 H   0  0  0  0  0  0  0  0  0  0  0  0
  146.9144  138.8132  153.8708 H   0  0  0  0  0  0  0  0  0  0  0  0
  150.8939  139.6975  157.3265 H   0  0  0  0  0  0  0  0  0  0  0  0
  150.2336  141.9459  159.3086 H   0  0  0  0  0  0  0  0  0  0  0  0
  151.4406  140.6949  159.1398 H   0  0  0  0  0  0  0  0  0  0  0  0
  153.1783  142.5755  158.7534 H   0  0  0  0  0  0  0  0  0  0  0  0
  151.5433  144.6081  158.3634 H   0  0  0  0  0  0  0  0  0  0  0  0
  151.7310  145.7979  160.6356 H   0  0  0  0  0  0  0  0  0  0  0  0
  153.4061  144.2127  161.9357 H   0  0  0  0  0  0  0  0  0  0  0  0
  151.7356  143.8049  162.3632 H   0  0  0  0  0  0  0  0  0  0  0  0
  151.9453  141.7489  161.3055 H   0  0  0  0  0  0  0  0  0  0  0  0
  153.6273  142.0961  160.9621 H   0  0  0  0  0  0  0  0  0  0  0  0
  145.4570  140.8326  153.3140 H   0  0  0  0  0  0  0  0  0  0  0  0
  1  2  1  0  0  0  0
  1 18  1  0  0  0  0
  1 19  1  0  0  0  0
  1 20  1  0  0  0  0
  2  3  1  0  0  0  0
  2  9  1  0  0  0  0
  2 21  1  0  0  0  0
  3  4  1  0  0  0  0
  3 22  1  0  0  0  0
  3 23  1  0  0  0  0
  4  8  1  0  0  0  0
  4  5  1  0  0  0  0
  5  6  2  0  0  0  0
  5 24  1  0  0  0  0
  6  7  1  0  0  0  0
  6 25  1  0  0  0  0
  7  8  2  0  0  0  0
  7 37  1  0  0  0  0
  8 26  1  0  0  0  0
  9 10  1  0  0  0  0
  9 27  1  0  0  0  0
 10 11  2  0  0  0  0
 10 12  1  0  0  0  0
 12 13  1  0  0  0  0
 12 28  1  0  0  0  0
 12 29  1  0  0  0  0
 13 17  1  0  0  0  0
 13 14  1  0  0  0  0
 13 30  1  0  0  0  0
 14 15  2  0  0  0  0
 14 31  1  0  0  0  0
 15 16  1  0  0  0  0
 15 32  1  0  0  0  0
 16 17  1  0  0  0  0
 16 33  1  0  0  0  0
 16 34  1  0  0  0  0
 17 35  1  0  0  0  0
 17 36  1  0  0  0  0
M  CHG  1   7   1
M  END
> <s_m_source_file>
AV-unprocessed.smi

> <i_m_source_file_index>
1920

> <i_lp_mmshare_version>
43012

> <i_f3d_flags>
0

> <s_epik_input>
W2NIXTFuW2NIXVtjSF1uMVtDSDJdW0NAQEhdKFtDSDNdKVtOSF1DKD1PKVtDSDJdW0NAQEhdMltDSF09W0NIXVtDSDJdW0NIMl0y

> <s_epik_cmdline>
J2VwaWtfcHl0aG9uJywgJy1waCcsICc3LjAnLCAnLXRuJywgJzgnLCAnLW1hJywgJzIwMCcsICctbWV0YWxfYmluZGluZycsICctaW1hZScsICc8aW5maWxlLm1hZT4nLCAnLW9tYWUnLCAnPG91dGZpbGUubWFlPic=

> <r_lp_tautomer_probability>
1

> <r_epik_Ionization_Penalty>
0.24816

> <r_epik_Ionization_Penalty_Charging>
0

> <r_epik_Ionization_Penalty_Neutral>
0.24816

> <r_epik_State_Penalty>
0.2394

> <r_epik_Charging_Adjusted_Penalty>
0.2394

> <i_epik_Tot_Q>
1

> <i_epik_Tot_abs_Q>
1

> <r_epik_Metal_State_Penalty>
0.531457

> <b_epik_Metal_Only>
0

> <s_lp_Force_Field>
OPLS_2005

> <r_lp_Energy>
19.5873

> <b_lp_Chiralities_Consistent>
1

> <s_lp_Variant>
AV-unprocessed.smi:1920-4

> <Gold.Version>
5.8.1

> <Gold.Id.Protein>
6NUR|6NUR_protein|mol2

> <Gold.PLP.Fitness>
46.8136

> <Gold.PLP.PLP>
-40.2797

> <Gold.PLP.part.hbond>
-1.0000

> <Gold.PLP.part.metal>
0.0000

> <Gold.PLP.part.buried>
-2.4920

> <Gold.PLP.part.nonpolar>
-37.1299

> <Gold.PLP.part.repulsive>
0.7838

> <Gold.PLP.ligand.clash>
0.0000

> <Gold.PLP.ligand.torsion>
1.0725

> <Gold.PLP.Chemscore.Hbond>
2.0000

> <Gold.PLP.Chemscore.CHOScore>
0.8839

> <Gold.PLP.Chemscore.Metal>
0.0000

> <Gold.Chemscore.Hbonds>
donor molecule, donor type, donor heavy atom, donor atom, acceptor molecule, acceptor atom, score
      L1  H     7    37       P1 10175  2.00
      L1  C     5    24       P1  8028  0.92

> <Gold.PLP.Chemscore.Internal.Correction>
0.0272

> <Gold.Rescore>
     Score         DG    S(hbond)    S(metal)    S(lipo)     H(rot)  DE(clash)    DE(int)     intcor
     14.40     -15.30       0.99        0.00      99.83       2.01       0.02       0.88       ----

> <Gold.Chemscore.Fitness>
14.4012

> <Gold.Chemscore.DG>
-15.3015

> <Gold.Chemscore.ZeroCoef>
-5.4800

> <Gold.Chemscore.Hbond>
0.9864

> <Gold.Chemscore.Metal>
0.0000

> <Gold.Chemscore.Lipo>
99.8300

> <Gold.Chemscore.Internal_Hbond>
0.0000

> <Gold.Chemscore.DEClash>
0.0222

> <Gold.Chemscore.DEInternal>
0.8781

> <Gold.Chemscore.Rot>
2.0130

> <Gold.Chemscore.Internal.Correction>
   9.000000E+99

> <Gold.Chemscore.Hbonds>
donor molecule, donor type, donor heavy atom, donor atom, acceptor molecule, acceptor atom, score
      L1  H     7    37       P1 10175  0.72

> <Gold.Chemscore.Hbond.Weighted>
-3.2947

> <Gold.Chemscore.Metal.Weighted>
-0.0000

> <Gold.Chemscore.Lipo.Weighted>
-11.6801

> <Gold.Chemscore.Internal_Hbond.Weighted>
0.0000

> <Gold.Chemscore.DEClash.Weighted>
0.0222

> <Gold.Chemscore.DEInternal.Weighted>
0.8781

> <Gold.Chemscore.Rot.Weighted>
5.1533

> <Gold.Chemscore.Internal.Correction.Weighted>
   9.000000E+99

> <Gold.Protein.RotatedTorsions>
[ 6907 6896 6895 6894 ] final -128.10 input  -60.11 | X-H torsion
[ 7974 7965 7964 7962 ] final  146.54 input  175.53 | X-H torsion
[ 8008 7997 7996 7995 ] final  -50.54 input   59.86 | X-H torsion
[ 10167 10162 10161 10158 ] final   85.44 input  -65.29 | X-H torsion
[ 10718 10713 10712 10709 ] final  113.40 input   66.30 | X-H torsion
[ 10763 10752 10751 10750 ] final  132.40 input  -60.55 | X-H torsion
[ 11005 11000 10999 10996 ] final -157.61 input  -57.11 | X-H torsion

> <Gold.Protein.ActiveResidues>
 VAL166  LYS551  ARG553  GLY616  TRP617  ASP618  TYR619  PRO620  LYS621  CYS622 
 ASP623  PHE694  ASN695  SER759  ASP760  ASP761  ALA762  ILE779  LEU786  VAL792 
 PHE793  MET794  SER795  GLU796  ALA797  LYS798  CYS799  TRP800  GLU811  SER814 

> <Gold.Protein.RotatedAtoms>
  150.9143  133.6959  159.2846 H   0  0  0  0  0  0  0  0  0  0  0  0  # atno 6907 bound_to 6896
  151.4435  135.1021  159.9686 H   0  0  0  0  0  0  0  0  0  0  0  0  # atno 6908 bound_to 6896
  152.4946  133.8546  159.7274 H   0  0  0  0  0  0  0  0  0  0  0  0  # atno 6909 bound_to 6896
  144.8663  139.5918  143.5907 H   0  0  0  0  0  0  0  0  0  0  0  0  # atno 7974 bound_to 7965
  154.4064  140.1270  156.4682 H   0  0  0  0  0  0  0  0  0  0  0  0  # atno 8008 bound_to 7997
  155.7205  140.3493  155.4994 H   0  0  0  0  0  0  0  0  0  0  0  0  # atno 8009 bound_to 7997
  155.9218  140.1054  157.1191 H   0  0  0  0  0  0  0  0  0  0  0  0  # atno 8010 bound_to 7997
  139.8977  144.6348  150.8671 H   0  0  0  0  0  0  0  0  0  0  0  0  # atno 10167 bound_to 10162
  157.6340  131.0983  150.7035 H   0  0  0  0  0  0  0  0  0  0  0  0  # atno 10718 bound_to 10713
  153.7900  135.3156  155.3377 H   0  0  0  0  0  0  0  0  0  0  0  0  # atno 10763 bound_to 10752
  154.8129  135.4655  154.0568 H   0  0  0  0  0  0  0  0  0  0  0  0  # atno 10764 bound_to 10752
  153.1883  135.6904  153.8472 H   0  0  0  0  0  0  0  0  0  0  0  0  # atno 10765 bound_to 10752
  140.6627  134.4332  157.5234 H   0  0  0  0  0  0  0  0  0  0  0  0  # atno 11005 bound_to 11000
  146.2898  139.7106  142.9169 LP  0  0  0  0  0  0  0  0  0  0  0  0  # atno 17320 bound_to 7965
  145.4216  141.0407  143.2961 LP  0  0  0  0  0  0  0  0  0  0  0  0  # atno 17321 bound_to 7965
  140.7713  143.3461  151.2109 LP  0  0  0  0  0  0  0  0  0  0  0  0  # atno 17342 bound_to 10162
  139.7053  143.9465  152.2924 LP  0  0  0  0  0  0  0  0  0  0  0  0  # atno 17343 bound_to 10162
  156.7370  130.4727  149.5486 LP  0  0  0  0  0  0  0  0  0  0  0  0  # atno 17370 bound_to 10713
  156.1565  130.6345  151.0663 LP  0  0  0  0  0  0  0  0  0  0  0  0  # atno 17371 bound_to 10713
  139.9008  134.8561  156.1906 LP  0  0  0  0  0  0  0  0  0  0  0  0  # atno 17394 bound_to 11000
  141.0453  133.6916  156.1672 LP  0  0  0  0  0  0  0  0  0  0  0  0  # atno 17395 bound_to 11000

$$$$
