AV-unprocessed.smi:2735|AV-procd|sdf|10541|dock10
  -GOLD-   2272014593D 1   1.00000     0.00000
 Structure written by MMmdl.
 42 42  0  0  0  0  0  0  0  0  2 V2000
  154.4161  140.6089  160.4564 C   0  0  0  0  0  0  0  0  0  0  0  0
  153.6057  141.5761  159.6453 C   0  0  0  0  0  0  0  0  0  0  0  0
  153.7838  142.9800  159.5116 C   0  0  0  0  0  0  0  0  0  0  0  0
  152.7893  143.3667  158.6583 C   0  0  0  0  0  0  0  0  0  0  0  0
  152.4694  144.7235  158.1213 C   0  0  0  0  0  0  0  0  0  0  0  0
  152.0630  142.2309  158.3357 N   0  0  0  0  0  0  0  0  0  0  0  0
  150.9282  142.0997  157.4208 C   0  0  2  0  0  0  0  0  0  0  0  0
  149.6504  142.7869  157.9457 C   0  0  0  0  0  0  0  0  0  0  0  0
  150.6822  140.6191  157.0961 C   0  0  0  0  0  0  0  0  0  0  0  0
  150.4501  139.8126  157.9974 O   0  0  0  0  0  0  0  0  0  0  0  0
  150.7430  140.2786  155.7991 N   0  0  0  0  0  0  0  0  0  0  0  0
  150.6151  138.9235  155.2653 C   0  0  1  0  0  0  0  0  0  0  0  0
  149.5234  138.9112  154.1683 C   0  0  0  0  0  0  0  0  0  0  0  0
  148.2477  139.7186  154.5016 C   0  0  0  0  0  0  0  0  0  0  0  0
  146.9910  139.1407  153.8291 C   0  0  0  0  0  0  0  0  0  0  0  0
  148.4288  141.1948  154.1173 C   0  0  0  0  0  0  0  0  0  0  0  0
  151.9467  138.5032  154.6220 C   0  0  0  0  0  0  0  0  0  0  0  0
  151.9992  137.3561  154.1276 O   0  0  0  0  0  0  0  0  0  0  0  0
  152.8856  139.3317  154.6259 O   0  5  0  0  0  0  0  0  0  0  0  0
  152.5828  141.1332  158.9351 N   0  0  0  0  0  0  0  0  0  0  0  0
  150.3645  138.2153  156.0565 H   0  0  0  0  0  0  0  0  0  0  0  0
  155.2361  141.1141  160.9673 H   0  0  0  0  0  0  0  0  0  0  0  0
  154.8474  139.8315  159.8253 H   0  0  0  0  0  0  0  0  0  0  0  0
  153.8023  140.1222  161.2144 H   0  0  0  0  0  0  0  0  0  0  0  0
  154.5353  143.6086  159.9658 H   0  0  0  0  0  0  0  0  0  0  0  0
  153.1487  145.4722  158.5285 H   0  0  0  0  0  0  0  0  0  0  0  0
  151.4531  145.0172  158.3831 H   0  0  0  0  0  0  0  0  0  0  0  0
  152.5637  144.7449  157.0359 H   0  0  0  0  0  0  0  0  0  0  0  0
  151.1980  142.6105  156.4954 H   0  0  0  0  0  0  0  0  0  0  0  0
  148.8494  142.7363  157.2074 H   0  0  0  0  0  0  0  0  0  0  0  0
  149.8338  143.8411  158.1545 H   0  0  0  0  0  0  0  0  0  0  0  0
  149.2796  142.3262  158.8623 H   0  0  0  0  0  0  0  0  0  0  0  0
  150.9496  141.0049  155.1295 H   0  0  0  0  0  0  0  0  0  0  0  0
  149.9448  139.2974  153.2382 H   0  0  0  0  0  0  0  0  0  0  0  0
  149.2367  137.8796  153.9563 H   0  0  0  0  0  0  0  0  0  0  0  0
  148.0899  139.6902  155.5802 H   0  0  0  0  0  0  0  0  0  0  0  0
  147.1071  139.0915  152.7460 H   0  0  0  0  0  0  0  0  0  0  0  0
  146.1157  139.7550  154.0418 H   0  0  0  0  0  0  0  0  0  0  0  0
  146.7692  138.1362  154.1884 H   0  0  0  0  0  0  0  0  0  0  0  0
  148.5881  141.3080  153.0445 H   0  0  0  0  0  0  0  0  0  0  0  0
  149.2859  141.6329  154.6293 H   0  0  0  0  0  0  0  0  0  0  0  0
  147.5514  141.7829  154.3878 H   0  0  0  0  0  0  0  0  0  0  0  0
  1  2  1  0  0  0  0
  1 22  1  0  0  0  0
  1 23  1  0  0  0  0
  1 24  1  0  0  0  0
  2 20  2  0  0  0  0
  2  3  1  0  0  0  0
  3  4  2  0  0  0  0
  3 25  1  0  0  0  0
  4  5  1  0  0  0  0
  4  6  1  0  0  0  0
  5 26  1  0  0  0  0
  5 27  1  0  0  0  0
  5 28  1  0  0  0  0
  6  7  1  0  0  0  0
  6 20  1  0  0  0  0
  7  8  1  0  0  0  0
  7  9  1  0  0  0  0
  7 29  1  0  0  0  0
  8 30  1  0  0  0  0
  8 31  1  0  0  0  0
  8 32  1  0  0  0  0
  9 10  2  0  0  0  0
  9 11  1  0  0  0  0
 11 12  1  0  0  0  0
 11 33  1  0  0  0  0
 12 21  1  0  0  0  0
 12 13  1  0  0  0  0
 12 17  1  0  0  0  0
 13 14  1  0  0  0  0
 13 34  1  0  0  0  0
 13 35  1  0  0  0  0
 14 15  1  0  0  0  0
 14 16  1  0  0  0  0
 14 36  1  0  0  0  0
 15 37  1  0  0  0  0
 15 38  1  0  0  0  0
 15 39  1  0  0  0  0
 16 40  1  0  0  0  0
 16 41  1  0  0  0  0
 16 42  1  0  0  0  0
 17 18  2  0  0  0  0
 17 19  1  0  0  0  0
M  CHG  1  19  -1
M  END
> <s_m_source_file>
AV-unprocessed.smi

> <i_m_source_file_index>
2735

> <i_lp_mmshare_version>
43012

> <i_f3d_flags>
0

> <s_epik_input>
W0NIM11jMVtjSF1jKFtDSDNdKW4objEpW0NASF0oW0NIM10pQyg9TylbTkhdW0NASF0oQyg9TylbT0hdKVtDSDJdW0NIXShbQ0gzXSlbQ0gzXQ==

> <s_epik_cmdline>
J2VwaWtfcHl0aG9uJywgJy1waCcsICc3LjAnLCAnLXRuJywgJzgnLCAnLW1hJywgJzIwMCcsICctbWV0YWxfYmluZGluZycsICctaW1hZScsICc8aW5maWxlLm1hZT4nLCAnLW9tYWUnLCAnPG91dGZpbGUubWFlPic=

> <r_lp_tautomer_probability>
1

> <r_epik_Ionization_Penalty>
0.0012303

> <r_epik_Ionization_Penalty_Charging>
0.000186407

> <r_epik_Ionization_Penalty_Neutral>
0.0010439

> <r_epik_State_Penalty>
-0

> <r_epik_Charging_Adjusted_Penalty>
0.000186407

> <i_epik_Tot_Q>
-1

> <i_epik_Tot_abs_Q>
1

> <r_epik_Metal_State_Penalty>
-0

> <b_epik_Metal_Only>
0

> <s_lp_Force_Field>
OPLS_2005

> <r_lp_Energy>
6.85708

> <b_lp_Chiralities_Consistent>
1

> <s_lp_Variant>
AV-unprocessed.smi:2735-1

> <Gold.Version>
5.8.1

> <Gold.Id.Protein>
6NUR|6NUR_protein|mol2

> <Gold.PLP.Fitness>
53.7856

> <Gold.PLP.PLP>
-44.2321

> <Gold.PLP.part.hbond>
-3.0000

> <Gold.PLP.part.metal>
0.0000

> <Gold.PLP.part.buried>
-5.5465

> <Gold.PLP.part.nonpolar>
-36.9407

> <Gold.PLP.part.repulsive>
0.2714

> <Gold.PLP.ligand.clash>
0.0000

> <Gold.PLP.ligand.torsion>
0.7894

> <Gold.PLP.Chemscore.Hbond>
3.6699

> <Gold.PLP.Chemscore.CHOScore>
0.0000

> <Gold.PLP.Chemscore.Metal>
0.0000

> <Gold.Chemscore.Hbonds>
donor molecule, donor type, donor heavy atom, donor atom, acceptor molecule, acceptor atom, score
      P1  H  7989  7998       L1    19  0.15
      P1  H  7997  8009       L1    19  1.24
      P1  H 10752 10764       L1    18  1.92

> <Gold.PLP.Chemscore.Internal.Correction>
0.1227

> <Gold.Rescore>
     Score         DG    S(hbond)    S(metal)    S(lipo)     H(rot)  DE(clash)    DE(int)     intcor
     14.48     -17.38       1.85        0.00      97.85       2.24       0.03       2.87       ----

> <Gold.Chemscore.Fitness>
14.4775

> <Gold.Chemscore.DG>
-17.3814

> <Gold.Chemscore.ZeroCoef>
-5.4800

> <Gold.Chemscore.Hbond>
1.8518

> <Gold.Chemscore.Metal>
0.0000

> <Gold.Chemscore.Lipo>
97.8451

> <Gold.Chemscore.Internal_Hbond>
0.0000

> <Gold.Chemscore.DEClash>
0.0305

> <Gold.Chemscore.DEInternal>
2.8735

> <Gold.Chemscore.Rot>
2.2388

> <Gold.Chemscore.Internal.Correction>
   9.000000E+99

> <Gold.Chemscore.Hbonds>
donor molecule, donor type, donor heavy atom, donor atom, acceptor molecule, acceptor atom, score
      P1  H  7989  7998       L1    19  0.01
      P1  H  7997  8009       L1    19  0.63
      P1  H 10752 10764       L1    18  0.92

> <Gold.Chemscore.Hbond.Weighted>
-6.1849

> <Gold.Chemscore.Metal.Weighted>
-0.0000

> <Gold.Chemscore.Lipo.Weighted>
-11.4479

> <Gold.Chemscore.Internal_Hbond.Weighted>
0.0000

> <Gold.Chemscore.DEClash.Weighted>
0.0305

> <Gold.Chemscore.DEInternal.Weighted>
2.8735

> <Gold.Chemscore.Rot.Weighted>
5.7314

> <Gold.Chemscore.Internal.Correction.Weighted>
   9.000000E+99

> <Gold.Protein.RotatedTorsions>
[ 6907 6896 6895 6894 ] final -157.83 input  -60.11 | X-H torsion
[ 7974 7965 7964 7962 ] final -120.77 input  175.53 | X-H torsion
[ 8008 7997 7996 7995 ] final -131.20 input   59.86 | X-H torsion
[ 10167 10162 10161 10158 ] final   93.80 input  -65.29 | X-H torsion
[ 10718 10713 10712 10709 ] final  127.35 input   66.30 | X-H torsion
[ 10763 10752 10751 10750 ] final  -86.65 input  -60.55 | X-H torsion
[ 11005 11000 10999 10996 ] final   31.89 input  -57.11 | X-H torsion

> <Gold.Protein.ActiveResidues>
 VAL166  LYS551  ARG553  GLY616  TRP617  ASP618  TYR619  PRO620  LYS621  CYS622 
 ASP623  PHE694  ASN695  SER759  ASP760  ASP761  ALA762  ILE779  LEU786  VAL792 
 PHE793  MET794  SER795  GLU796  ALA797  LYS798  CYS799  TRP800  GLU811  SER814 

> <Gold.Protein.RotatedAtoms>
  151.3089  133.4089  159.2645 H   0  0  0  0  0  0  0  0  0  0  0  0  # atno 6907 bound_to 6896
  151.0131  134.9413  159.8029 H   0  0  0  0  0  0  0  0  0  0  0  0  # atno 6908 bound_to 6896
  152.5306  134.3053  159.9146 H   0  0  0  0  0  0  0  0  0  0  0  0  # atno 6909 bound_to 6896
  145.0477  140.8194  143.4228 H   0  0  0  0  0  0  0  0  0  0  0  0  # atno 7974 bound_to 7965
  155.3084  140.0456  157.3033 H   0  0  0  0  0  0  0  0  0  0  0  0  # atno 8008 bound_to 7997
  154.5447  140.2298  155.8550 H   0  0  0  0  0  0  0  0  0  0  0  0  # atno 8009 bound_to 7997
  156.1913  140.3050  155.9344 H   0  0  0  0  0  0  0  0  0  0  0  0  # atno 8010 bound_to 7997
  139.8144  144.6759  150.9598 H   0  0  0  0  0  0  0  0  0  0  0  0  # atno 10167 bound_to 10162
  157.5340  131.1098  150.8964 H   0  0  0  0  0  0  0  0  0  0  0  0  # atno 10718 bound_to 10713
  154.6249  135.5441  153.7615 H   0  0  0  0  0  0  0  0  0  0  0  0  # atno 10763 bound_to 10752
  153.0256  135.6421  154.1387 H   0  0  0  0  0  0  0  0  0  0  0  0  # atno 10764 bound_to 10752
  154.1319  135.2913  155.3163 H   0  0  0  0  0  0  0  0  0  0  0  0  # atno 10765 bound_to 10752
  140.2791  134.2993  155.7805 H   0  0  0  0  0  0  0  0  0  0  0  0  # atno 11005 bound_to 11000
  145.1567  139.2482  143.5413 LP  0  0  0  0  0  0  0  0  0  0  0  0  # atno 17320 bound_to 7965
  146.3515  140.1283  142.8598 LP  0  0  0  0  0  0  0  0  0  0  0  0  # atno 17321 bound_to 7965
  140.7816  143.4153  151.0928 LP  0  0  0  0  0  0  0  0  0  0  0  0  # atno 17342 bound_to 10162
  139.7817  143.8345  152.3138 LP  0  0  0  0  0  0  0  0  0  0  0  0  # atno 17343 bound_to 10162
  156.9536  130.5429  149.5283 LP  0  0  0  0  0  0  0  0  0  0  0  0  # atno 17370 bound_to 10713
  156.0444  130.5523  150.8847 LP  0  0  0  0  0  0  0  0  0  0  0  0  # atno 17371 bound_to 10713
  141.2165  133.7514  156.9453 LP  0  0  0  0  0  0  0  0  0  0  0  0  # atno 17394 bound_to 11000
  140.1300  134.9362  157.2324 LP  0  0  0  0  0  0  0  0  0  0  0  0  # atno 17395 bound_to 11000

$$$$
