AV-unprocessed.smi:2391|AV-procd|sdf|9481|dock3
  -GOLD-   2272013113D 1   1.00000     0.00000
 Structure written by MMmdl.
 35 36  0  0  0  0  0  0  0  0  1 V2000
  151.9062  138.9371  159.0063 O   0  0  0  0  0  0  0  0  0  0  0  0
  152.6800  139.6332  158.3490 C   0  0  0  0  0  0  0  0  0  0  0  0
  152.8158  139.5916  157.0119 N   0  0  0  0  0  0  0  0  0  0  0  0
  152.1221  138.7687  156.0858 C   0  0  0  0  0  0  0  0  0  0  0  0
  150.8060  138.4182  156.4563 C   0  0  0  0  0  0  0  0  0  0  0  0
  150.0624  137.6036  155.5855 C   0  0  0  0  0  0  0  0  0  0  0  0
  150.6889  137.1930  154.3964 C   0  0  0  0  0  0  0  0  0  0  0  0
  151.9520  137.5531  154.0815 N   0  0  0  0  0  0  0  0  0  0  0  0
  152.6539  138.3284  154.9154 N   0  0  0  0  0  0  0  0  0  0  0  0
  153.5045  140.5427  158.8891 N   0  0  0  0  0  0  0  0  0  0  0  0
  153.6405  140.8457  160.3157 C   0  0  2  0  0  0  0  0  0  0  0  0
  153.4089  142.3623  160.5402 C   0  0  0  0  0  0  0  0  0  0  0  0
  152.8222  142.7404  161.9051 C   0  0  0  0  0  0  0  0  0  0  0  0
  152.2604  144.1525  161.7197 C   0  0  0  0  0  0  0  0  0  0  0  0
  151.9262  144.2866  160.2281 C   0  0  0  0  0  0  0  0  0  0  0  0
  152.4090  142.9938  159.5604 C   0  0  0  0  0  0  0  0  0  0  0  0
  155.0180  140.3392  160.8010 C   0  0  0  0  0  0  0  0  0  0  0  0
  155.9815  140.8369  160.0245 F   0  0  0  0  0  0  0  0  0  0  0  0
  155.2425  140.7237  162.0582 F   0  0  0  0  0  0  0  0  0  0  0  0
  155.0910  139.0105  160.7347 F   0  0  0  0  0  0  0  0  0  0  0  0
  153.4934  140.2219  156.6094 H   0  0  0  0  0  0  0  0  0  0  0  0
  150.3741  138.7633  157.3846 H   0  0  0  0  0  0  0  0  0  0  0  0
  149.0514  137.3048  155.8194 H   0  0  0  0  0  0  0  0  0  0  0  0
  150.1707  136.5657  153.6863 H   0  0  0  0  0  0  0  0  0  0  0  0
  154.1031  141.0638  158.2654 H   0  0  0  0  0  0  0  0  0  0  0  0
  152.8791  140.3045  160.8803 H   0  0  0  0  0  0  0  0  0  0  0  0
  154.3600  142.8858  160.4283 H   0  0  0  0  0  0  0  0  0  0  0  0
  152.0127  142.0570  162.1658 H   0  0  0  0  0  0  0  0  0  0  0  0
  153.5603  142.7040  162.7066 H   0  0  0  0  0  0  0  0  0  0  0  0
  151.3916  144.3282  162.3549 H   0  0  0  0  0  0  0  0  0  0  0  0
  153.0169  144.8899  161.9919 H   0  0  0  0  0  0  0  0  0  0  0  0
  150.8577  144.4340  160.0663 H   0  0  0  0  0  0  0  0  0  0  0  0
  152.4410  145.1509  159.8069 H   0  0  0  0  0  0  0  0  0  0  0  0
  152.8455  143.1782  158.5783 H   0  0  0  0  0  0  0  0  0  0  0  0
  151.5590  142.3244  159.4184 H   0  0  0  0  0  0  0  0  0  0  0  0
  1  2  2  0  0  0  0
  2  3  1  0  0  0  0
  2 10  1  0  0  0  0
  3  4  1  0  0  0  0
  3 21  1  0  0  0  0
  4  9  1  0  0  0  0
  4  5  2  0  0  0  0
  5  6  1  0  0  0  0
  5 22  1  0  0  0  0
  6  7  2  0  0  0  0
  6 23  1  0  0  0  0
  7  8  1  0  0  0  0
  7 24  1  0  0  0  0
  8  9  2  0  0  0  0
 10 11  1  0  0  0  0
 10 25  1  0  0  0  0
 11 12  1  0  0  0  0
 11 17  1  0  0  0  0
 11 26  1  0  0  0  0
 12 16  1  0  0  0  0
 12 13  1  0  0  0  0
 12 27  1  0  0  0  0
 13 14  1  0  0  0  0
 13 28  1  0  0  0  0
 13 29  1  0  0  0  0
 14 15  1  0  0  0  0
 14 30  1  0  0  0  0
 14 31  1  0  0  0  0
 15 16  1  0  0  0  0
 15 32  1  0  0  0  0
 15 33  1  0  0  0  0
 16 34  1  0  0  0  0
 16 35  1  0  0  0  0
 17 18  1  0  0  0  0
 17 19  1  0  0  0  0
 17 20  1  0  0  0  0
M  END
> <s_m_source_file>
AV-unprocessed.smi

> <i_m_source_file_index>
2391

> <i_lp_mmshare_version>
43012

> <i_f3d_flags>
0

> <s_epik_input>
W0NIMl0xW0NIMl1bQ0gyXVtDSDJdW0NIXTFbQ0BIXShDKEYpKEYpRilbTkhdQyg9TylbTkhdYzJbY0hdW2NIXVtjSF1ubjI=

> <s_epik_cmdline>
J2VwaWtfcHl0aG9uJywgJy1waCcsICc3LjAnLCAnLXRuJywgJzgnLCAnLW1hJywgJzIwMCcsICctbWV0YWxfYmluZGluZycsICctaW1hZScsICc8aW5maWxlLm1hZT4nLCAnLW9tYWUnLCAnPG91dGZpbGUubWFlPic=

> <r_lp_tautomer_probability>
1

> <r_epik_Ionization_Penalty>
0.00359591

> <r_epik_Ionization_Penalty_Charging>
0

> <r_epik_Ionization_Penalty_Neutral>
0.00359591

> <r_epik_State_Penalty>
0.0123658

> <r_epik_Charging_Adjusted_Penalty>
0.0123658

> <i_epik_Tot_Q>
0

> <i_epik_Tot_abs_Q>
0

> <r_epik_Metal_State_Penalty>
0.0410426

> <b_epik_Metal_Only>
0

> <s_lp_Force_Field>
OPLS_2005

> <r_lp_Energy>
31.4517

> <b_lp_Chiralities_Consistent>
1

> <s_lp_Variant>
AV-unprocessed.smi:2391-1

> <Gold.Version>
5.8.1

> <Gold.Id.Protein>
6NUR|6NUR_protein|mol2

> <Gold.PLP.Fitness>
40.6845

> <Gold.PLP.PLP>
-36.7490

> <Gold.PLP.part.hbond>
-1.2763

> <Gold.PLP.part.metal>
0.0000

> <Gold.PLP.part.buried>
-2.6246

> <Gold.PLP.part.nonpolar>
-35.0282

> <Gold.PLP.part.repulsive>
2.0688

> <Gold.PLP.ligand.clash>
0.0000

> <Gold.PLP.ligand.torsion>
1.0055

> <Gold.PLP.Chemscore.Hbond>
0.9920

> <Gold.PLP.Chemscore.CHOScore>
0.8813

> <Gold.PLP.Chemscore.Metal>
0.0000

> <Gold.Chemscore.Hbonds>
donor molecule, donor type, donor heavy atom, donor atom, acceptor molecule, acceptor atom, score
      P1  H 10752 10763       L1     8  0.71
      L1  C     7    24       P1  7948  0.75
      L1  C     7    24       P1  7949  0.06

> <Gold.PLP.Chemscore.Internal.Correction>
0.3265

> <Gold.Rescore>
     Score         DG    S(hbond)    S(metal)    S(lipo)     H(rot)  DE(clash)    DE(int)     intcor
     11.34     -14.43       0.63        0.00      87.64       1.33       0.13       2.96       ----

> <Gold.Chemscore.Fitness>
11.3356

> <Gold.Chemscore.DG>
-14.4311

> <Gold.Chemscore.ZeroCoef>
-5.4800

> <Gold.Chemscore.Hbond>
0.6297

> <Gold.Chemscore.Metal>
0.0000

> <Gold.Chemscore.Lipo>
87.6373

> <Gold.Chemscore.Internal_Hbond>
0.0000

> <Gold.Chemscore.DEClash>
0.1309

> <Gold.Chemscore.DEInternal>
2.9646

> <Gold.Chemscore.Rot>
1.3304

> <Gold.Chemscore.Internal.Correction>
   9.000000E+99

> <Gold.Chemscore.Hbonds>
donor molecule, donor type, donor heavy atom, donor atom, acceptor molecule, acceptor atom, score
      P1  H 10752 10763       L1     8  0.10

> <Gold.Chemscore.Hbond.Weighted>
-2.1033

> <Gold.Chemscore.Metal.Weighted>
-0.0000

> <Gold.Chemscore.Lipo.Weighted>
-10.2536

> <Gold.Chemscore.Internal_Hbond.Weighted>
0.0000

> <Gold.Chemscore.DEClash.Weighted>
0.1309

> <Gold.Chemscore.DEInternal.Weighted>
2.9646

> <Gold.Chemscore.Rot.Weighted>
3.4057

> <Gold.Chemscore.Internal.Correction.Weighted>
   9.000000E+99

> <Gold.Protein.RotatedTorsions>
[ 6907 6896 6895 6894 ] final   32.18 input  -60.11 | X-H torsion
[ 7974 7965 7964 7962 ] final -140.79 input  175.53 | X-H torsion
[ 8008 7997 7996 7995 ] final   67.17 input   59.86 | X-H torsion
[ 10167 10162 10161 10158 ] final   12.05 input  -65.29 | X-H torsion
[ 10718 10713 10712 10709 ] final   46.09 input   66.30 | X-H torsion
[ 10763 10752 10751 10750 ] final   33.50 input  -60.55 | X-H torsion
[ 11005 11000 10999 10996 ] final  -40.00 input  -57.11 | X-H torsion

> <Gold.Protein.ActiveResidues>
 VAL166  LYS551  ARG553  GLY616  TRP617  ASP618  TYR619  PRO620  LYS621  CYS622 
 ASP623  PHE694  ASN695  SER759  ASP760  ASP761  ALA762  ILE779  LEU786  VAL792 
 PHE793  MET794  SER795  GLU796  ALA797  LYS798  CYS799  TRP800  GLU811  SER814 

> <Gold.Protein.RotatedAtoms>
  152.0709  134.9534  160.0574 H   0  0  0  0  0  0  0  0  0  0  0  0  # atno 6907 bound_to 6896
  152.0861  133.4172  159.4531 H   0  0  0  0  0  0  0  0  0  0  0  0  # atno 6908 bound_to 6896
  150.6836  134.2846  159.4685 H   0  0  0  0  0  0  0  0  0  0  0  0  # atno 6909 bound_to 6896
  144.8570  140.6158  143.5353 H   0  0  0  0  0  0  0  0  0  0  0  0  # atno 7974 bound_to 7965
  155.6887  140.3496  155.4885 H   0  0  0  0  0  0  0  0  0  0  0  0  # atno 8008 bound_to 7997
  155.9543  140.1125  157.0973 H   0  0  0  0  0  0  0  0  0  0  0  0  # atno 8009 bound_to 7997
  154.4129  140.1188  156.5080 H   0  0  0  0  0  0  0  0  0  0  0  0  # atno 8010 bound_to 7997
  140.6092  143.8443  150.7047 H   0  0  0  0  0  0  0  0  0  0  0  0  # atno 10167 bound_to 10162
  157.4445  130.8101  149.7726 H   0  0  0  0  0  0  0  0  0  0  0  0  # atno 10718 bound_to 10713
  153.0209  135.6385  154.1521 H   0  0  0  0  0  0  0  0  0  0  0  0  # atno 10763 bound_to 10752
  154.1255  135.2844  155.3199 H   0  0  0  0  0  0  0  0  0  0  0  0  # atno 10764 bound_to 10752
  154.6232  135.5518  153.7660 H   0  0  0  0  0  0  0  0  0  0  0  0  # atno 10765 bound_to 10752
  141.0143  133.6893  156.2262 H   0  0  0  0  0  0  0  0  0  0  0  0  # atno 11005 bound_to 11000
  145.4387  139.1538  143.3982 LP  0  0  0  0  0  0  0  0  0  0  0  0  # atno 17320 bound_to 7965
  146.2831  140.4507  142.8768 LP  0  0  0  0  0  0  0  0  0  0  0  0  # atno 17321 bound_to 7965
  140.2007  143.3961  152.1794 LP  0  0  0  0  0  0  0  0  0  0  0  0  # atno 17342 bound_to 10162
  139.5348  144.7198  151.4930 LP  0  0  0  0  0  0  0  0  0  0  0  0  # atno 17343 bound_to 10162
  155.9962  130.3907  150.2790 LP  0  0  0  0  0  0  0  0  0  0  0  0  # atno 17370 bound_to 10713
  157.0957  131.0182  151.3105 LP  0  0  0  0  0  0  0  0  0  0  0  0  # atno 17371 bound_to 10713
  140.6681  134.4896  157.5586 LP  0  0  0  0  0  0  0  0  0  0  0  0  # atno 17394 bound_to 11000
  139.9108  134.8350  156.1537 LP  0  0  0  0  0  0  0  0  0  0  0  0  # atno 17395 bound_to 11000

$$$$
