AV-unprocessed.smi:2527|AV-procd|sdf|9942|dock2
  -GOLD-   2272013583D 1   1.00000     0.00000
 Structure written by MMmdl.
 36 38  0  0  0  0  0  0  0  0  1 V2000
  153.8959  136.9643  161.0786 C   0  0  0  0  0  0  0  0  0  0  0  0
  153.4393  136.5155  159.8152 O   0  0  0  0  0  0  0  0  0  0  0  0
  153.2347  137.5790  158.8992 C   0  0  0  0  0  0  0  0  0  0  0  0
  152.0524  138.4407  159.3652 C   0  0  0  0  0  0  0  0  0  0  0  0
  151.8528  139.6023  158.5108 N   0  0  0  0  0  0  0  0  0  0  0  0
  151.5201  139.6233  157.1959 C   0  0  0  0  0  0  0  0  0  0  0  0
  151.2682  138.1243  156.2879 S   0  0  0  0  0  0  0  0  0  0  0  0
  151.0504  138.7886  154.6108 C   0  0  0  0  0  0  0  0  0  0  0  0
  149.7204  139.4761  154.3929 C   0  0  0  0  0  0  0  0  0  0  0  0
  148.8389  138.8942  153.5174 N   0  0  0  0  0  0  0  0  0  0  0  0
  147.7644  139.6731  153.5033 C   0  0  0  0  0  0  0  0  0  0  0  0
  146.7332  139.5211  152.8525 O   0  0  0  0  0  0  0  0  0  0  0  0
  148.0573  140.6606  154.3581 N   0  0  0  0  0  0  0  0  0  0  0  0
  149.2823  140.5595  154.9318 N   0  0  0  0  0  0  0  0  0  0  0  0
  151.3939  140.8389  156.6588 N   0  0  0  0  0  0  0  0  0  0  0  0
  151.6664  141.6781  157.7206 C   0  0  0  0  0  0  0  0  0  0  0  0
  151.6906  143.0892  157.7938 C   0  0  0  0  0  0  0  0  0  0  0  0
  151.9970  143.7356  159.0094 C   0  0  0  0  0  0  0  0  0  0  0  0
  152.0207  145.4590  159.0820 Cl  0  0  0  0  0  0  0  0  0  0  0  0
  152.2822  142.9807  160.1659 C   0  0  0  0  0  0  0  0  0  0  0  0
  152.2634  141.5738  160.1139 C   0  0  0  0  0  0  0  0  0  0  0  0
  151.9580  140.9346  158.8975 C   0  0  0  0  0  0  0  0  0  0  0  0
  147.4630  141.4407  154.5995 H   0  0  0  0  0  0  0  0  0  0  0  0
  148.9896  138.0436  152.9949 H   0  0  0  0  0  0  0  0  0  0  0  0
  154.0359  136.1100  161.7410 H   0  0  0  0  0  0  0  0  0  0  0  0
  153.1730  137.6360  161.5433 H   0  0  0  0  0  0  0  0  0  0  0  0
  154.8514  137.4830  160.9910 H   0  0  0  0  0  0  0  0  0  0  0  0
  154.1344  138.1924  158.8327 H   0  0  0  0  0  0  0  0  0  0  0  0
  153.0377  137.1809  157.9025 H   0  0  0  0  0  0  0  0  0  0  0  0
  151.1377  137.8472  159.3651 H   0  0  0  0  0  0  0  0  0  0  0  0
  152.1993  138.7688  160.3942 H   0  0  0  0  0  0  0  0  0  0  0  0
  151.8601  139.4896  154.4048 H   0  0  0  0  0  0  0  0  0  0  0  0
  151.1407  137.9756  153.8898 H   0  0  0  0  0  0  0  0  0  0  0  0
  151.4716  143.6745  156.9131 H   0  0  0  0  0  0  0  0  0  0  0  0
  152.5142  143.4813  161.0946 H   0  0  0  0  0  0  0  0  0  0  0  0
  152.4766  140.9937  160.9994 H   0  0  0  0  0  0  0  0  0  0  0  0
  1  2  1  0  0  0  0
  1 25  1  0  0  0  0
  1 26  1  0  0  0  0
  1 27  1  0  0  0  0
  2  3  1  0  0  0  0
  3  4  1  0  0  0  0
  3 28  1  0  0  0  0
  3 29  1  0  0  0  0
  4  5  1  0  0  0  0
  4 30  1  0  0  0  0
  4 31  1  0  0  0  0
  5 22  1  0  0  0  0
  5  6  1  0  0  0  0
  6  7  1  0  0  0  0
  6 15  2  0  0  0  0
  7  8  1  0  0  0  0
  8 32  1  0  0  0  0
  8 33  1  0  0  0  0
  8  9  1  0  0  0  0
  9 14  2  0  0  0  0
  9 10  1  0  0  0  0
 10 11  1  0  0  0  0
 10 24  1  0  0  0  0
 11 13  1  0  0  0  0
 11 12  2  0  0  0  0
 13 14  1  0  0  0  0
 13 23  1  0  0  0  0
 15 16  1  0  0  0  0
 16 22  2  0  0  0  0
 16 17  1  0  0  0  0
 17 18  2  0  0  0  0
 17 34  1  0  0  0  0
 18 19  1  0  0  0  0
 18 20  1  0  0  0  0
 20 21  2  0  0  0  0
 20 35  1  0  0  0  0
 21 22  1  0  0  0  0
 21 36  1  0  0  0  0
M  END
> <s_m_source_file>
AV-unprocessed.smi

> <i_m_source_file_index>
2527

> <i_lp_mmshare_version>
43012

> <i_f3d_flags>
0

> <s_epik_input>
W2NIXTFjKENsKVtjSF1bY0hdYyhjMTIpbihbQ0gyXVtDSDJdT1tDSDNdKWMobjIpU1tDSDJdYzNuYyg9TylbbkhdW25IXTM=

> <s_epik_cmdline>
J2VwaWtfcHl0aG9uJywgJy1waCcsICc3LjAnLCAnLXRuJywgJzgnLCAnLW1hJywgJzIwMCcsICctbWV0YWxfYmluZGluZycsICctaW1hZScsICc8aW5maWxlLm1hZT4nLCAnLW9tYWUnLCAnPG91dGZpbGUubWFlPic=

> <r_lp_tautomer_probability>
0.999897

> <r_epik_Ionization_Penalty>
0.0426825

> <r_epik_Ionization_Penalty_Charging>
0.0333494

> <r_epik_Ionization_Penalty_Neutral>
0.00933306

> <r_epik_State_Penalty>
0.0341975

> <r_epik_Charging_Adjusted_Penalty>
0.0675469

> <i_epik_Tot_Q>
0

> <i_epik_Tot_abs_Q>
0

> <r_epik_Metal_State_Penalty>
0.388349

> <b_epik_Metal_Only>
0

> <s_lp_Force_Field>
OPLS_2005

> <r_lp_Energy>
27.9539

> <b_lp_Chiralities_Consistent>
1

> <s_lp_Variant>
AV-unprocessed.smi:2527-1

> <Gold.Version>
5.8.1

> <Gold.Id.Protein>
6NUR|6NUR_protein|mol2

> <Gold.PLP.Fitness>
45.6843

> <Gold.PLP.PLP>
-39.8875

> <Gold.PLP.part.hbond>
-3.0000

> <Gold.PLP.part.metal>
0.0000

> <Gold.PLP.part.buried>
-6.1136

> <Gold.PLP.part.nonpolar>
-31.8420

> <Gold.PLP.part.repulsive>
0.5103

> <Gold.PLP.ligand.clash>
0.0000

> <Gold.PLP.ligand.torsion>
0.1503

> <Gold.PLP.Chemscore.Hbond>
2.0000

> <Gold.PLP.Chemscore.CHOScore>
0.0000

> <Gold.PLP.Chemscore.Metal>
0.0000

> <Gold.Chemscore.Hbonds>
donor molecule, donor type, donor heavy atom, donor atom, acceptor molecule, acceptor atom, score
      L1  H    10    24       P1  7948  0.80
      P1  H  6896  6908       L1     2  1.00

> <Gold.PLP.Chemscore.Internal.Correction>
0.0974

> <Gold.Rescore>
     Score         DG    S(hbond)    S(metal)    S(lipo)     H(rot)  DE(clash)    DE(int)     intcor
     14.39     -16.06       1.98        0.00      96.58       2.86       0.13       1.55       ----

> <Gold.Chemscore.Fitness>
14.3850

> <Gold.Chemscore.DG>
-16.0611

> <Gold.Chemscore.ZeroCoef>
-5.4800

> <Gold.Chemscore.Hbond>
1.9780

> <Gold.Chemscore.Metal>
0.0000

> <Gold.Chemscore.Lipo>
96.5771

> <Gold.Chemscore.Internal_Hbond>
0.0000

> <Gold.Chemscore.DEClash>
0.1283

> <Gold.Chemscore.DEInternal>
1.5478

> <Gold.Chemscore.Rot>
2.8613

> <Gold.Chemscore.Internal.Correction>
   9.000000E+99

> <Gold.Chemscore.Hbonds>
donor molecule, donor type, donor heavy atom, donor atom, acceptor molecule, acceptor atom, score
      L1  H    10    24       P1  7948  0.78
      P1  H  6896  6908       L1     2  0.70

> <Gold.Chemscore.Hbond.Weighted>
-6.6064

> <Gold.Chemscore.Metal.Weighted>
-0.0000

> <Gold.Chemscore.Lipo.Weighted>
-11.2995

> <Gold.Chemscore.Internal_Hbond.Weighted>
0.0000

> <Gold.Chemscore.DEClash.Weighted>
0.1283

> <Gold.Chemscore.DEInternal.Weighted>
1.5478

> <Gold.Chemscore.Rot.Weighted>
7.3249

> <Gold.Chemscore.Internal.Correction.Weighted>
   9.000000E+99

> <Gold.Protein.RotatedTorsions>
[ 6907 6896 6895 6894 ] final  -74.93 input  -60.11 | X-H torsion
[ 7974 7965 7964 7962 ] final -124.99 input  175.53 | X-H torsion
[ 8008 7997 7996 7995 ] final  118.85 input   59.86 | X-H torsion
[ 10167 10162 10161 10158 ] final -155.40 input  -65.29 | X-H torsion
[ 10718 10713 10712 10709 ] final   27.85 input   66.30 | X-H torsion
[ 10763 10752 10751 10750 ] final   13.98 input  -60.55 | X-H torsion
[ 11005 11000 10999 10996 ] final  134.30 input  -57.11 | X-H torsion

> <Gold.Protein.ActiveResidues>
 VAL166  LYS551  ARG553  GLY616  TRP617  ASP618  TYR619  PRO620  LYS621  CYS622 
 ASP623  PHE694  ASN695  SER759  ASP760  ASP761  ALA762  ILE779  LEU786  VAL792 
 PHE793  MET794  SER795  GLU796  ALA797  LYS798  CYS799  TRP800  GLU811  SER814 

> <Gold.Protein.RotatedAtoms>
  150.7076  134.4796  159.5463 H   0  0  0  0  0  0  0  0  0  0  0  0  # atno 6907 bound_to 6896
  152.2436  134.8201  160.0466 H   0  0  0  0  0  0  0  0  0  0  0  0  # atno 6908 bound_to 6896
  151.8974  133.3495  159.3856 H   0  0  0  0  0  0  0  0  0  0  0  0  # atno 6909 bound_to 6896
  145.0023  140.7831  143.4489 H   0  0  0  0  0  0  0  0  0  0  0  0  # atno 7974 bound_to 7965
  156.2567  140.2866  156.0899 H   0  0  0  0  0  0  0  0  0  0  0  0  # atno 8008 bound_to 7997
  155.1474  140.0397  157.2830 H   0  0  0  0  0  0  0  0  0  0  0  0  # atno 8009 bound_to 7997
  154.6485  140.2539  155.7247 H   0  0  0  0  0  0  0  0  0  0  0  0  # atno 8010 bound_to 7997
  139.6934  143.9382  152.2396 H   0  0  0  0  0  0  0  0  0  0  0  0  # atno 10167 bound_to 10162
  157.2256  130.6999  149.6290 H   0  0  0  0  0  0  0  0  0  0  0  0  # atno 10718 bound_to 10713
  153.1667  135.6805  153.8665 H   0  0  0  0  0  0  0  0  0  0  0  0  # atno 10763 bound_to 10752
  153.8043  135.3151  155.3395 H   0  0  0  0  0  0  0  0  0  0  0  0  # atno 10764 bound_to 10752
  154.7970  135.4801  154.0275 H   0  0  0  0  0  0  0  0  0  0  0  0  # atno 10765 bound_to 10752
  139.9906  134.9516  156.9847 H   0  0  0  0  0  0  0  0  0  0  0  0  # atno 11005 bound_to 11000
  145.2136  139.2192  143.5130 LP  0  0  0  0  0  0  0  0  0  0  0  0  # atno 17320 bound_to 7965
  146.3454  140.1979  142.8589 LP  0  0  0  0  0  0  0  0  0  0  0  0  # atno 17321 bound_to 7965
  139.9204  144.6803  150.8467 LP  0  0  0  0  0  0  0  0  0  0  0  0  # atno 17342 bound_to 10162
  140.7689  143.3379  151.2270 LP  0  0  0  0  0  0  0  0  0  0  0  0  # atno 17343 bound_to 10162
  155.9679  130.4505  150.5701 LP  0  0  0  0  0  0  0  0  0  0  0  0  # atno 17370 bound_to 10713
  157.3531  131.0737  151.1697 LP  0  0  0  0  0  0  0  0  0  0  0  0  # atno 17371 bound_to 10713
  140.4916  134.1187  155.7234 LP  0  0  0  0  0  0  0  0  0  0  0  0  # atno 17394 bound_to 11000
  141.1562  133.8877  157.1970 LP  0  0  0  0  0  0  0  0  0  0  0  0  # atno 17395 bound_to 11000

$$$$
