AV-unprocessed.smi:2925|AV-procd|sdf|11223|dock6
  -GOLD-   2272016113D 1   1.00000     0.00000
 Structure written by MMmdl.
 44 45  0  0  0  0  0  0  0  0  1 V2000
  152.8593  138.8966  154.6561 C   0  0  0  0  0  0  0  0  0  0  0  0
  151.6277  138.4533  155.4596 C   0  0  0  0  0  0  0  0  0  0  0  0
  150.6973  139.6159  155.8607 C   0  0  1  0  0  0  0  0  0  0  0  0
  151.4814  140.6702  156.5048 N   0  0  0  0  0  0  0  0  0  0  0  0
  151.3117  141.1201  157.7562 C   0  0  0  0  0  0  0  0  0  0  0  0
  150.4570  140.6902  158.5320 O   0  0  0  0  0  0  0  0  0  0  0  0
  152.2007  142.0836  158.0544 N   0  0  0  0  0  0  0  0  0  0  0  0
  152.3077  142.7539  159.2827 C   0  0  0  0  0  0  0  0  0  0  0  0
  151.7405  143.9815  159.4159 C   0  0  0  0  0  0  0  0  0  0  0  0
  151.0268  144.6636  158.2595 C   0  0  0  0  0  0  0  0  0  0  0  0
  151.8401  144.6680  160.6874 C   0  0  0  0  0  0  0  0  0  0  0  0
  152.4788  144.0782  161.7067 C   0  0  0  0  0  0  0  0  0  0  0  0
  153.0436  142.8007  161.5820 N   0  0  0  0  0  0  0  0  0  0  0  0
  153.7052  142.2333  162.7597 C   0  0  0  0  0  0  0  0  0  0  0  0
  152.9652  142.0783  160.4276 C   0  0  0  0  0  0  0  0  0  0  0  0
  153.4062  140.9280  160.3709 O   0  0  0  0  0  0  0  0  0  0  0  0
  149.9338  140.1875  154.6467 C   0  0  2  0  0  0  0  0  0  0  0  0
  149.1683  141.4857  154.9154 C   0  0  0  0  0  0  0  0  0  0  0  0
  148.1183  141.4535  153.8297 C   0  0  0  0  0  0  0  0  0  0  0  0
  147.7638  139.9707  153.7851 C   0  0  0  0  0  0  0  0  0  0  0  0
  148.9332  139.2718  154.2053 O   0  0  0  0  0  0  0  0  0  0  0  0
  153.5104  138.0475  154.4477 H   0  0  0  0  0  0  0  0  0  0  0  0
  153.4424  139.6348  155.2075 H   0  0  0  0  0  0  0  0  0  0  0  0
  152.5788  139.3376  153.6992 H   0  0  0  0  0  0  0  0  0  0  0  0
  151.0693  137.7132  154.8849 H   0  0  0  0  0  0  0  0  0  0  0  0
  151.9719  137.9400  156.3581 H   0  0  0  0  0  0  0  0  0  0  0  0
  149.9619  139.2202  156.5638 H   0  0  0  0  0  0  0  0  0  0  0  0
  152.2133  141.0882  155.9491 H   0  0  0  0  0  0  0  0  0  0  0  0
  152.9316  142.2697  157.3839 H   0  0  0  0  0  0  0  0  0  0  0  0
  150.6583  145.6482  158.5485 H   0  0  0  0  0  0  0  0  0  0  0  0
  150.1738  144.0689  157.9319 H   0  0  0  0  0  0  0  0  0  0  0  0
  151.7040  144.7934  157.4146 H   0  0  0  0  0  0  0  0  0  0  0  0
  151.4119  145.6512  160.8165 H   0  0  0  0  0  0  0  0  0  0  0  0
  152.5876  144.5417  162.6764 H   0  0  0  0  0  0  0  0  0  0  0  0
  154.7199  141.9141  162.5169 H   0  0  0  0  0  0  0  0  0  0  0  0
  153.1539  141.3657  163.1249 H   0  0  0  0  0  0  0  0  0  0  0  0
  153.7813  142.9442  163.5831 H   0  0  0  0  0  0  0  0  0  0  0  0
  150.6213  140.3507  153.8150 H   0  0  0  0  0  0  0  0  0  0  0  0
  148.6900  141.4555  155.8956 H   0  0  0  0  0  0  0  0  0  0  0  0
  149.8013  142.3724  154.8706 H   0  0  0  0  0  0  0  0  0  0  0  0
  147.2601  142.0919  154.0413 H   0  0  0  0  0  0  0  0  0  0  0  0
  148.5532  141.7662  152.8795 H   0  0  0  0  0  0  0  0  0  0  0  0
  146.9592  139.7493  154.4870 H   0  0  0  0  0  0  0  0  0  0  0  0
  147.4445  139.6516  152.7927 H   0  0  0  0  0  0  0  0  0  0  0  0
  1  2  1  0  0  0  0
  1 22  1  0  0  0  0
  1 23  1  0  0  0  0
  1 24  1  0  0  0  0
  2  3  1  0  0  0  0
  2 25  1  0  0  0  0
  2 26  1  0  0  0  0
  3  4  1  0  0  0  0
  3 17  1  0  0  0  0
  3 27  1  0  0  0  0
  4  5  1  0  0  0  0
  4 28  1  0  0  0  0
  5  6  2  0  0  0  0
  5  7  1  0  0  0  0
  7  8  1  0  0  0  0
  7 29  1  0  0  0  0
  8 15  1  0  0  0  0
  8  9  2  0  0  0  0
  9 10  1  0  0  0  0
  9 11  1  0  0  0  0
 10 30  1  0  0  0  0
 10 31  1  0  0  0  0
 10 32  1  0  0  0  0
 11 12  2  0  0  0  0
 11 33  1  0  0  0  0
 12 13  1  0  0  0  0
 12 34  1  0  0  0  0
 13 14  1  0  0  0  0
 13 15  1  0  0  0  0
 14 35  1  0  0  0  0
 14 36  1  0  0  0  0
 14 37  1  0  0  0  0
 15 16  2  0  0  0  0
 17 21  1  0  0  0  0
 17 18  1  0  0  0  0
 17 38  1  0  0  0  0
 18 19  1  0  0  0  0
 18 39  1  0  0  0  0
 18 40  1  0  0  0  0
 19 20  1  0  0  0  0
 19 41  1  0  0  0  0
 19 42  1  0  0  0  0
 20 21  1  0  0  0  0
 20 43  1  0  0  0  0
 20 44  1  0  0  0  0
M  END
> <s_m_source_file>
AV-unprocessed.smi

> <i_m_source_file_index>
2925

> <i_lp_mmshare_version>
43012

> <i_f3d_flags>
0

> <s_epik_input>
TzFbQ0gyXVtDSDJdW0NIMl1bQ0BIXTFbQ0BIXShbQ0gyXVtDSDNdKVtOSF1DKD1PKVtOSF1jMmMoW0NIM10pW2NIXVtjSF1uKFtDSDNdKWMyPU8=

> <s_epik_cmdline>
J2VwaWtfcHl0aG9uJywgJy1waCcsICc3LjAnLCAnLXRuJywgJzgnLCAnLW1hJywgJzIwMCcsICctbWV0YWxfYmluZGluZycsICctaW1hZScsICc8aW5maWxlLm1hZT4nLCAnLW9tYWUnLCAnPG91dGZpbGUubWFlPic=

> <r_lp_tautomer_probability>
1

> <r_epik_Ionization_Penalty>
2.58789e-05

> <r_epik_Ionization_Penalty_Charging>
6.72534e-06

> <r_epik_Ionization_Penalty_Neutral>
1.91535e-05

> <r_epik_State_Penalty>
-0

> <r_epik_Charging_Adjusted_Penalty>
6.72534e-06

> <i_epik_Tot_Q>
0

> <i_epik_Tot_abs_Q>
0

> <r_epik_Metal_State_Penalty>
-0

> <b_epik_Metal_Only>
0

> <s_lp_Force_Field>
OPLS_2005

> <r_lp_Energy>
34.616

> <b_lp_Chiralities_Consistent>
1

> <s_lp_Variant>
AV-unprocessed.smi:2925-2

> <Gold.Version>
5.8.1

> <Gold.Id.Protein>
6NUR|6NUR_protein|mol2

> <Gold.PLP.Fitness>
47.4501

> <Gold.PLP.PLP>
-48.7089

> <Gold.PLP.part.hbond>
0.0000

> <Gold.PLP.part.metal>
0.0000

> <Gold.PLP.part.buried>
-3.6828

> <Gold.PLP.part.nonpolar>
-44.3348

> <Gold.PLP.part.repulsive>
0.3591

> <Gold.PLP.ligand.clash>
0.0000

> <Gold.PLP.ligand.torsion>
0.9184

> <Gold.PLP.Chemscore.Hbond>
0.0000

> <Gold.PLP.Chemscore.CHOScore>
0.0000

> <Gold.PLP.Chemscore.Metal>
0.0000

> <Gold.PLP.Chemscore.Internal.Correction>
0.5779

> <Gold.Rescore>
     Score         DG    S(hbond)    S(metal)    S(lipo)     H(rot)  DE(clash)    DE(int)     intcor
     14.77     -15.97       0.00        0.00     119.36       1.36       0.28       0.92       ----

> <Gold.Chemscore.Fitness>
14.7684

> <Gold.Chemscore.DG>
-15.9685

> <Gold.Chemscore.ZeroCoef>
-5.4800

> <Gold.Chemscore.Hbond>
0.0000

> <Gold.Chemscore.Metal>
0.0000

> <Gold.Chemscore.Lipo>
119.3573

> <Gold.Chemscore.Internal_Hbond>
0.0000

> <Gold.Chemscore.DEClash>
0.2757

> <Gold.Chemscore.DEInternal>
0.9244

> <Gold.Chemscore.Rot>
1.3579

> <Gold.Chemscore.Internal.Correction>
   9.000000E+99

> <Gold.Chemscore.Hbond.Weighted>
-0.0000

> <Gold.Chemscore.Metal.Weighted>
-0.0000

> <Gold.Chemscore.Lipo.Weighted>
-13.9648

> <Gold.Chemscore.Internal_Hbond.Weighted>
0.0000

> <Gold.Chemscore.DEClash.Weighted>
0.2757

> <Gold.Chemscore.DEInternal.Weighted>
0.9244

> <Gold.Chemscore.Rot.Weighted>
3.4763

> <Gold.Chemscore.Internal.Correction.Weighted>
   9.000000E+99

> <Gold.Protein.RotatedTorsions>
[ 6907 6896 6895 6894 ] final  -54.87 input  -60.11 | X-H torsion
[ 7974 7965 7964 7962 ] final    0.47 input  175.53 | X-H torsion
[ 8008 7997 7996 7995 ] final -152.10 input   59.86 | X-H torsion
[ 10167 10162 10161 10158 ] final  -70.69 input  -65.29 | X-H torsion
[ 10718 10713 10712 10709 ] final  -15.36 input   66.30 | X-H torsion
[ 10763 10752 10751 10750 ] final -124.46 input  -60.55 | X-H torsion
[ 11005 11000 10999 10996 ] final  -91.84 input  -57.11 | X-H torsion

> <Gold.Protein.ActiveResidues>
 VAL166  LYS551  ARG553  GLY616  TRP617  ASP618  TYR619  PRO620  LYS621  CYS622 
 ASP623  PHE694  ASN695  SER759  ASP760  ASP761  ALA762  ILE779  LEU786  VAL792 
 PHE793  MET794  SER795  GLU796  ALA797  LYS798  CYS799  TRP800  GLU811  SER814 

> <Gold.Protein.RotatedAtoms>
  150.8300  134.7549  159.6845 H   0  0  0  0  0  0  0  0  0  0  0  0  # atno 6907 bound_to 6896
  152.4406  134.5595  159.9900 H   0  0  0  0  0  0  0  0  0  0  0  0  # atno 6908 bound_to 6896
  151.5758  133.3346  159.3034 H   0  0  0  0  0  0  0  0  0  0  0  0  # atno 6909 bound_to 6896
  146.2434  140.1133  142.8343 H   0  0  0  0  0  0  0  0  0  0  0  0  # atno 7974 bound_to 7965
  155.6499  140.0711  157.2590 H   0  0  0  0  0  0  0  0  0  0  0  0  # atno 8008 bound_to 7997
  154.4165  140.1735  156.1713 H   0  0  0  0  0  0  0  0  0  0  0  0  # atno 8009 bound_to 7997
  155.9785  140.3356  155.6644 H   0  0  0  0  0  0  0  0  0  0  0  0  # atno 8010 bound_to 7997
  140.5332  143.2320  151.7224 H   0  0  0  0  0  0  0  0  0  0  0  0  # atno 10167 bound_to 10162
  156.6028  130.4828  149.6233 H   0  0  0  0  0  0  0  0  0  0  0  0  # atno 10718 bound_to 10713
  154.8723  135.4063  154.3109 H   0  0  0  0  0  0  0  0  0  0  0  0  # atno 10763 bound_to 10752
  153.3953  135.7016  153.6470 H   0  0  0  0  0  0  0  0  0  0  0  0  # atno 10764 bound_to 10752
  153.5236  135.3682  155.2614 H   0  0  0  0  0  0  0  0  0  0  0  0  # atno 10765 bound_to 10752
  141.1536  133.7781  156.9935 H   0  0  0  0  0  0  0  0  0  0  0  0  # atno 11005 bound_to 11000
  145.0468  140.8988  143.5019 LP  0  0  0  0  0  0  0  0  0  0  0  0  # atno 17320 bound_to 7965
  145.1223  139.2685  143.5582 LP  0  0  0  0  0  0  0  0  0  0  0  0  # atno 17321 bound_to 7965
  139.4961  144.4082  152.0109 LP  0  0  0  0  0  0  0  0  0  0  0  0  # atno 17342 bound_to 10162
  140.3186  144.3454  150.6015 LP  0  0  0  0  0  0  0  0  0  0  0  0  # atno 17343 bound_to 10162
  156.2455  130.6876  151.1596 LP  0  0  0  0  0  0  0  0  0  0  0  0  # atno 17370 bound_to 10713
  157.7275  131.0639  150.5862 LP  0  0  0  0  0  0  0  0  0  0  0  0  # atno 17371 bound_to 10713
  140.0987  134.9549  157.1889 LP  0  0  0  0  0  0  0  0  0  0  0  0  # atno 17394 bound_to 11000
  140.3348  134.2770  155.7222 LP  0  0  0  0  0  0  0  0  0  0  0  0  # atno 17395 bound_to 11000

$$$$
