AV-unprocessed.smi:187|AV-procd|sdf|1471|dock4
  -GOLD-   2262019293D 1   1.00000     0.00000
 Structure written by MMmdl.
 53 56  0  0  0  0  0  0  0  0  1 V2000
  151.2226  143.2617  158.0339 C   0  0  0  0  0  0  0  0  0  0  0  0
  152.4128  142.4599  158.6017 C   0  0  1  0  0  0  0  0  0  0  0  0
  152.6579  142.8807  160.0663 C   0  0  0  0  0  0  0  0  0  0  0  0
  153.7853  142.0660  160.7133 C   0  0  0  0  0  0  0  0  0  0  0  0
  153.4681  140.5634  160.6132 C   0  0  2  0  0  0  0  0  0  0  0  0
  154.5881  139.7184  161.2335 C   0  0  0  0  0  0  0  0  0  0  0  0
  154.4321  138.3924  161.2128 N   0  0  0  0  0  0  0  0  0  0  0  0
  155.5812  140.2517  161.7254 O   0  0  0  0  0  0  0  0  0  0  0  0
  153.2483  140.1825  159.1370 C   0  0  0  0  0  0  0  0  0  0  0  0
  152.2089  141.0044  158.5157 N   0  0  0  0  0  0  0  0  0  0  0  0
  151.8891  140.4948  157.3020 C   0  0  0  0  0  0  0  0  0  0  0  0
  152.8105  139.7955  156.5870 N   0  0  0  0  0  0  0  0  0  0  0  0
  152.4800  139.2719  155.4024 C   0  0  0  0  0  0  0  0  0  0  0  0
  151.3084  139.3228  154.7645 N   0  0  0  0  0  0  0  0  0  0  0  0
  150.3808  140.0167  155.4849 C   0  0  0  0  0  0  0  0  0  0  0  0
  150.5847  140.6231  156.7555 C   0  0  0  0  0  0  0  0  0  0  0  0
  149.4107  141.2231  157.1926 N   0  0  0  0  0  0  0  0  0  0  0  0
  148.5574  140.9800  156.2348 C   0  0  0  0  0  0  0  0  0  0  0  0
  149.0630  140.2849  155.1583 N   0  0  0  0  0  0  0  0  0  0  0  0
  148.3453  139.8513  153.9956 C   0  0  0  0  0  0  0  0  0  0  0  0
  146.8167  139.8849  153.9566 C   0  0  0  0  0  0  0  0  0  0  0  0
  146.8214  138.6488  153.0277 C   0  0  0  0  0  0  0  0  0  0  0  0
  145.7660  137.5682  153.3225 C   0  0  0  0  0  0  0  0  0  0  0  0
  144.5490  137.8178  152.6503 O   0  0  0  0  0  0  0  0  0  0  0  0
  146.8527  138.9295  151.5102 C   0  0  0  0  0  0  0  0  0  0  0  0
  146.7742  137.7450  150.7444 O   0  0  0  0  0  0  0  0  0  0  0  0
  148.2123  138.3675  153.6413 C   0  0  0  0  0  0  0  0  0  0  0  0
  151.3831  144.3332  158.1555 H   0  0  0  0  0  0  0  0  0  0  0  0
  150.2946  143.0067  158.5469 H   0  0  0  0  0  0  0  0  0  0  0  0
  151.0722  143.0843  156.9694 H   0  0  0  0  0  0  0  0  0  0  0  0
  153.3058  142.7102  158.0266 H   0  0  0  0  0  0  0  0  0  0  0  0
  152.9013  143.9426  160.1142 H   0  0  0  0  0  0  0  0  0  0  0  0
  151.7429  142.7484  160.6457 H   0  0  0  0  0  0  0  0  0  0  0  0
  154.7292  142.2921  160.2145 H   0  0  0  0  0  0  0  0  0  0  0  0
  153.9032  142.3624  161.7564 H   0  0  0  0  0  0  0  0  0  0  0  0
  152.5429  140.3686  161.1590 H   0  0  0  0  0  0  0  0  0  0  0  0
  155.1425  137.7949  161.6096 H   0  0  0  0  0  0  0  0  0  0  0  0
  153.6021  137.9924  160.7997 H   0  0  0  0  0  0  0  0  0  0  0  0
  154.1756  140.3025  158.5737 H   0  0  0  0  0  0  0  0  0  0  0  0
  152.9752  139.1277  159.0729 H   0  0  0  0  0  0  0  0  0  0  0  0
  153.2665  138.7346  154.8937 H   0  0  0  0  0  0  0  0  0  0  0  0
  147.5299  141.3091  156.2880 H   0  0  0  0  0  0  0  0  0  0  0  0
  148.7639  140.4129  153.1587 H   0  0  0  0  0  0  0  0  0  0  0  0
  146.3705  139.6807  154.9320 H   0  0  0  0  0  0  0  0  0  0  0  0
  146.3971  140.7917  153.5205 H   0  0  0  0  0  0  0  0  0  0  0  0
  146.1257  136.5770  153.0452 H   0  0  0  0  0  0  0  0  0  0  0  0
  145.5437  137.5249  154.3890 H   0  0  0  0  0  0  0  0  0  0  0  0
  144.4117  138.7518  152.6128 H   0  0  0  0  0  0  0  0  0  0  0  0
  146.0202  139.5659  151.2103 H   0  0  0  0  0  0  0  0  0  0  0  0
  147.7580  139.4678  151.2285 H   0  0  0  0  0  0  0  0  0  0  0  0
  145.9317  137.7169  150.3179 H   0  0  0  0  0  0  0  0  0  0  0  0
  148.9607  138.0026  152.9372 H   0  0  0  0  0  0  0  0  0  0  0  0
  148.1694  137.7307  154.5271 H   0  0  0  0  0  0  0  0  0  0  0  0
  1  2  1  0  0  0  0
  1 28  1  0  0  0  0
  1 29  1  0  0  0  0
  1 30  1  0  0  0  0
  2 10  1  0  0  0  0
  2  3  1  0  0  0  0
  2 31  1  0  0  0  0
  3  4  1  0  0  0  0
  3 32  1  0  0  0  0
  3 33  1  0  0  0  0
  4  5  1  0  0  0  0
  4 34  1  0  0  0  0
  4 35  1  0  0  0  0
  5  6  1  0  0  0  0
  5  9  1  0  0  0  0
  5 36  1  0  0  0  0
  6  7  1  0  0  0  0
  6  8  2  0  0  0  0
  7 37  1  0  0  0  0
  7 38  1  0  0  0  0
  9 10  1  0  0  0  0
  9 39  1  0  0  0  0
  9 40  1  0  0  0  0
 10 11  1  0  0  0  0
 11 16  1  0  0  0  0
 11 12  2  0  0  0  0
 12 13  1  0  0  0  0
 13 14  2  0  0  0  0
 13 41  1  0  0  0  0
 14 15  1  0  0  0  0
 15 19  1  0  0  0  0
 15 16  2  0  0  0  0
 16 17  1  0  0  0  0
 17 18  2  0  0  0  0
 18 19  1  0  0  0  0
 18 42  1  0  0  0  0
 19 20  1  0  0  0  0
 20 27  1  0  0  0  0
 20 21  1  0  0  0  0
 20 43  1  0  0  0  0
 21 22  1  0  0  0  0
 21 44  1  0  0  0  0
 21 45  1  0  0  0  0
 22 23  1  0  0  0  0
 22 25  1  0  0  0  0
 22 27  1  0  0  0  0
 23 24  1  0  0  0  0
 23 46  1  0  0  0  0
 23 47  1  0  0  0  0
 24 48  1  0  0  0  0
 25 26  1  0  0  0  0
 25 49  1  0  0  0  0
 25 50  1  0  0  0  0
 26 51  1  0  0  0  0
 27 52  1  0  0  0  0
 27 53  1  0  0  0  0
M  END
> <s_m_source_file>
AV-unprocessed.smi

> <i_m_source_file_index>
187

> <i_lp_mmshare_version>
43012

> <i_f3d_flags>
0

> <s_epik_input>
W0NIM11bQ0BASF0xW0NIMl1bQ0gyXVtDQEBIXShDKD1PKVtOSDJdKVtDSDJdTjFjKG5bY0hdbjIpYyhjMjMpbltjSF1uM1tDSF0oW0NIMl00KVtDSDJdQzQoW0NIMl1bT0hdKVtDSDJdW09IXQ==

> <s_epik_cmdline>
J2VwaWtfcHl0aG9uJywgJy1waCcsICc3LjAnLCAnLXRuJywgJzgnLCAnLW1hJywgJzIwMCcsICctbWV0YWxfYmluZGluZycsICctaW1hZScsICc8aW5maWxlLm1hZT4nLCAnLW9tYWUnLCAnPG91dGZpbGUubWFlPic=

> <r_lp_tautomer_probability>
1

> <r_epik_Ionization_Penalty>
0.0017711

> <r_epik_Ionization_Penalty_Charging>
0

> <r_epik_Ionization_Penalty_Neutral>
0.0017711

> <r_epik_State_Penalty>
0.00107211

> <r_epik_Charging_Adjusted_Penalty>
0.00107211

> <i_epik_Tot_Q>
0

> <i_epik_Tot_abs_Q>
0

> <r_epik_Metal_State_Penalty>
-0

> <b_epik_Metal_Only>
0

> <s_lp_Force_Field>
OPLS_2005

> <r_lp_Energy>
43.5948

> <b_lp_Chiralities_Consistent>
1

> <s_lp_Variant>
AV-unprocessed.smi:187-4

> <Gold.Version>
5.8.1

> <Gold.Id.Protein>
6NUR|6NUR_protein|mol2

> <Gold.PLP.Fitness>
60.6382

> <Gold.PLP.PLP>
-47.6592

> <Gold.PLP.part.hbond>
-7.0429

> <Gold.PLP.part.metal>
0.0000

> <Gold.PLP.part.buried>
-0.4497

> <Gold.PLP.part.nonpolar>
-40.3629

> <Gold.PLP.part.repulsive>
0.1483

> <Gold.PLP.ligand.clash>
0.0000

> <Gold.PLP.ligand.torsion>
1.2196

> <Gold.PLP.Chemscore.Hbond>
4.8938

> <Gold.PLP.Chemscore.CHOScore>
0.0000

> <Gold.PLP.Chemscore.Metal>
0.0000

> <Gold.Chemscore.Hbonds>
donor molecule, donor type, donor heavy atom, donor atom, acceptor molecule, acceptor atom, score
      L1  H    24    48       P1 10175  1.00
      L1  H    26    51       P1 10171  0.37
      P1  H  7954  7966       L1    26  1.00
      P1  H  7989  7998       L1    14  0.70
      P1  H  7997  8008       L1    12  1.00

> <Gold.PLP.Chemscore.Internal.Correction>
0.7371

> <Gold.Rescore>
     Score         DG    S(hbond)    S(metal)    S(lipo)     H(rot)  DE(clash)    DE(int)     intcor
     17.90     -19.42       3.77        0.00      98.91       3.99       0.26       1.26       ----

> <Gold.Chemscore.Fitness>
17.9018

> <Gold.Chemscore.DG>
-19.4245

> <Gold.Chemscore.ZeroCoef>
-5.4800

> <Gold.Chemscore.Hbond>
3.7684

> <Gold.Chemscore.Metal>
0.0000

> <Gold.Chemscore.Lipo>
98.9136

> <Gold.Chemscore.Internal_Hbond>
0.0000

> <Gold.Chemscore.DEClash>
0.2617

> <Gold.Chemscore.DEInternal>
1.2610

> <Gold.Chemscore.Rot>
3.9902

> <Gold.Chemscore.Internal.Correction>
   9.000000E+99

> <Gold.Chemscore.Hbonds>
donor molecule, donor type, donor heavy atom, donor atom, acceptor molecule, acceptor atom, score
      L1  H    24    48       P1 10175  1.00
      L1  H    26    51       P1 10171  0.36
      P1  H  7954  7966       L1    26  0.25
      P1  H  7989  7998       L1    14  0.02
      P1  H  7997  8008       L1    12  0.43

> <Gold.Chemscore.Hbond.Weighted>
-12.5864

> <Gold.Chemscore.Metal.Weighted>
-0.0000

> <Gold.Chemscore.Lipo.Weighted>
-11.5729

> <Gold.Chemscore.Internal_Hbond.Weighted>
0.0000

> <Gold.Chemscore.DEClash.Weighted>
0.2617

> <Gold.Chemscore.DEInternal.Weighted>
1.2610

> <Gold.Chemscore.Rot.Weighted>
10.2148

> <Gold.Chemscore.Internal.Correction.Weighted>
   9.000000E+99

> <Gold.Protein.RotatedTorsions>
[ 6907 6896 6895 6894 ] final  101.68 input  -60.11 | X-H torsion
[ 7974 7965 7964 7962 ] final -132.80 input  175.53 | X-H torsion
[ 8008 7997 7996 7995 ] final  -47.97 input   59.86 | X-H torsion
[ 10167 10162 10161 10158 ] final  168.90 input  -65.29 | X-H torsion
[ 10718 10713 10712 10709 ] final    2.78 input   66.30 | X-H torsion
[ 10763 10752 10751 10750 ] final  176.93 input  -60.55 | X-H torsion
[ 11005 11000 10999 10996 ] final   53.48 input  -57.11 | X-H torsion

> <Gold.Protein.ActiveResidues>
 VAL166  LYS551  ARG553  GLY616  TRP617  ASP618  TYR619  PRO620  LYS621  CYS622 
 ASP623  PHE694  ASN695  SER759  ASP760  ASP761  ALA762  ILE779  LEU786  VAL792 
 PHE793  MET794  SER795  GLU796  ALA797  LYS798  CYS799  TRP800  GLU811  SER814 

> <Gold.Protein.RotatedAtoms>
  152.5343  134.0090  159.7929 H   0  0  0  0  0  0  0  0  0  0  0  0  # atno 6907 bound_to 6896
  151.0296  133.5795  159.2669 H   0  0  0  0  0  0  0  0  0  0  0  0  # atno 6908 bound_to 6896
  151.2805  135.0719  159.9221 H   0  0  0  0  0  0  0  0  0  0  0  0  # atno 6909 bound_to 6896
  144.9252  140.7062  143.4940 H   0  0  0  0  0  0  0  0  0  0  0  0  # atno 7974 bound_to 7965
  154.4023  140.1333  156.4263 H   0  0  0  0  0  0  0  0  0  0  0  0  # atno 8008 bound_to 7997
  155.7594  140.3486  155.5170 H   0  0  0  0  0  0  0  0  0  0  0  0  # atno 8009 bound_to 7997
  155.8873  140.0997  157.1433 H   0  0  0  0  0  0  0  0  0  0  0  0  # atno 8010 bound_to 7997
  139.4979  144.3764  151.9669 H   0  0  0  0  0  0  0  0  0  0  0  0  # atno 10167 bound_to 10162
  156.8681  130.5610  149.5659 H   0  0  0  0  0  0  0  0  0  0  0  0  # atno 10718 bound_to 10713
  154.4877  135.2777  155.1521 H   0  0  0  0  0  0  0  0  0  0  0  0  # atno 10763 bound_to 10752
  154.3206  135.6210  153.5509 H   0  0  0  0  0  0  0  0  0  0  0  0  # atno 10764 bound_to 10752
  152.9883  135.5741  154.5291 H   0  0  0  0  0  0  0  0  0  0  0  0  # atno 10765 bound_to 10752
  140.0764  134.5399  155.8992 H   0  0  0  0  0  0  0  0  0  0  0  0  # atno 11005 bound_to 11000
  145.3231  139.1782  143.4577 LP  0  0  0  0  0  0  0  0  0  0  0  0  # atno 17320 bound_to 7965
  146.3223  140.3251  142.8636 LP  0  0  0  0  0  0  0  0  0  0  0  0  # atno 17321 bound_to 7965
  140.3201  144.3438  150.6012 LP  0  0  0  0  0  0  0  0  0  0  0  0  # atno 17342 bound_to 10162
  140.5730  143.2179  151.7566 LP  0  0  0  0  0  0  0  0  0  0  0  0  # atno 17343 bound_to 10162
  156.0741  130.5767  150.9440 LP  0  0  0  0  0  0  0  0  0  0  0  0  # atno 17370 bound_to 10713
  157.6212  131.0929  150.8619 LP  0  0  0  0  0  0  0  0  0  0  0  0  # atno 17371 bound_to 10713
  141.2031  133.6629  156.6043 LP  0  0  0  0  0  0  0  0  0  0  0  0  # atno 17394 bound_to 11000
  140.3551  134.7735  157.4495 LP  0  0  0  0  0  0  0  0  0  0  0  0  # atno 17395 bound_to 11000

$$$$
