AV-unprocessed.smi:3041|AV-procd|sdf|11597|dock8
  -GOLD-   2272016573D 1   1.00000     0.00000
 Structure written by MMmdl.
 38 39  0  0  0  0  0  0  0  0  1 V2000
  146.4323  132.1343  150.0109 C   0  0  0  0  0  0  0  0  0  0  0  0
  145.6169  133.1968  150.5595 N   0  0  0  0  0  0  0  0  0  0  0  0
  146.0110  134.4354  151.0188 C   0  0  0  0  0  0  0  0  0  0  0  0
  144.8890  135.0917  151.4405 C   0  0  0  0  0  0  0  0  0  0  0  0
  144.7663  136.4715  152.0242 C   0  0  0  0  0  0  0  0  0  0  0  0
  145.9927  137.3359  151.6895 C   0  0  0  0  0  0  0  0  0  0  0  0
  145.8732  138.6774  152.2486 N   0  0  0  0  0  0  0  0  0  0  0  0
  146.8276  139.3020  152.9526 C   0  0  0  0  0  0  0  0  0  0  0  0
  147.9273  138.8121  153.2106 O   0  0  0  0  0  0  0  0  0  0  0  0
  146.4416  140.5258  153.3390 N   0  0  0  0  0  0  0  0  0  0  0  0
  147.2553  141.4540  154.1173 C   0  0  0  0  0  0  0  0  0  0  0  0
  146.4452  142.6710  154.6041 C   0  0  2  0  0  0  0  0  0  0  0  0
  145.2307  142.3087  155.4333 C   0  0  0  0  0  0  0  0  0  0  0  0
  144.4089  143.5918  155.3626 C   0  0  0  0  0  0  0  0  0  0  0  0
  144.6948  144.1663  154.0905 O   0  0  0  0  0  0  0  0  0  0  0  0
  145.8057  143.5044  153.4922 C   0  0  0  0  0  0  0  0  0  0  0  0
  143.8456  134.1547  151.1935 C   0  0  0  0  0  0  0  0  0  0  0  0
  144.2840  133.0224  150.6680 N   0  0  0  0  0  0  0  0  0  0  0  0
  147.4579  132.4797  149.8786 H   0  0  0  0  0  0  0  0  0  0  0  0
  146.0358  131.8246  149.0433 H   0  0  0  0  0  0  0  0  0  0  0  0
  146.4296  131.2806  150.6891 H   0  0  0  0  0  0  0  0  0  0  0  0
  147.0455  134.7455  151.0064 H   0  0  0  0  0  0  0  0  0  0  0  0
  143.8646  136.9591  151.6518 H   0  0  0  0  0  0  0  0  0  0  0  0
  144.6470  136.4180  153.1072 H   0  0  0  0  0  0  0  0  0  0  0  0
  146.8934  136.8779  152.0993 H   0  0  0  0  0  0  0  0  0  0  0  0
  146.1376  137.3928  150.6092 H   0  0  0  0  0  0  0  0  0  0  0  0
  145.0027  139.1631  152.0879 H   0  0  0  0  0  0  0  0  0  0  0  0
  145.5176  140.8385  153.0788 H   0  0  0  0  0  0  0  0  0  0  0  0
  147.6625  140.9091  154.9693 H   0  0  0  0  0  0  0  0  0  0  0  0
  148.1108  141.7830  153.5252 H   0  0  0  0  0  0  0  0  0  0  0  0
  147.0850  143.3214  155.2030 H   0  0  0  0  0  0  0  0  0  0  0  0
  144.6815  141.4881  154.9690 H   0  0  0  0  0  0  0  0  0  0  0  0
  145.4782  142.0192  156.4549 H   0  0  0  0  0  0  0  0  0  0  0  0
  143.3413  143.4100  155.4874 H   0  0  0  0  0  0  0  0  0  0  0  0
  144.7267  144.2896  156.1383 H   0  0  0  0  0  0  0  0  0  0  0  0
  146.5033  144.2180  153.0532 H   0  0  0  0  0  0  0  0  0  0  0  0
  145.4324  142.8626  152.6931 H   0  0  0  0  0  0  0  0  0  0  0  0
  142.7874  134.2649  151.3794 H   0  0  0  0  0  0  0  0  0  0  0  0
  1  2  1  0  0  0  0
  1 19  1  0  0  0  0
  1 20  1  0  0  0  0
  1 21  1  0  0  0  0
  2 18  1  0  0  0  0
  2  3  1  0  0  0  0
  3  4  2  0  0  0  0
  3 22  1  0  0  0  0
  4  5  1  0  0  0  0
  4 17  1  0  0  0  0
  5  6  1  0  0  0  0
  5 23  1  0  0  0  0
  5 24  1  0  0  0  0
  6  7  1  0  0  0  0
  6 25  1  0  0  0  0
  6 26  1  0  0  0  0
  7  8  1  0  0  0  0
  7 27  1  0  0  0  0
  8  9  2  0  0  0  0
  8 10  1  0  0  0  0
 10 11  1  0  0  0  0
 10 28  1  0  0  0  0
 11 12  1  0  0  0  0
 11 29  1  0  0  0  0
 11 30  1  0  0  0  0
 12 16  1  0  0  0  0
 12 13  1  0  0  0  0
 12 31  1  0  0  0  0
 13 14  1  0  0  0  0
 13 32  1  0  0  0  0
 13 33  1  0  0  0  0
 14 15  1  0  0  0  0
 14 34  1  0  0  0  0
 14 35  1  0  0  0  0
 15 16  1  0  0  0  0
 16 36  1  0  0  0  0
 16 37  1  0  0  0  0
 17 18  2  0  0  0  0
 17 38  1  0  0  0  0
M  END
> <s_m_source_file>
AV-unprocessed.smi

> <i_m_source_file_index>
3041

> <i_lp_mmshare_version>
43012

> <i_f3d_flags>
0

> <s_epik_input>
W0NIM11uMVtjSF1jKFtjSF1uMSlbQ0gyXVtDSDJdW05IXUMoPU8pW05IXVtDSDJdW0NAQEhdMltDSDJdW0NIMl1PW0NIMl0y

> <s_epik_cmdline>
J2VwaWtfcHl0aG9uJywgJy1waCcsICc3LjAnLCAnLXRuJywgJzgnLCAnLW1hJywgJzIwMCcsICctbWV0YWxfYmluZGluZycsICctaW1hZScsICc8aW5maWxlLm1hZT4nLCAnLW9tYWUnLCAnPG91dGZpbGUubWFlPic=

> <r_lp_tautomer_probability>
1

> <r_epik_Ionization_Penalty>
0.000557811

> <r_epik_Ionization_Penalty_Charging>
0

> <r_epik_Ionization_Penalty_Neutral>
0.000557811

> <r_epik_State_Penalty>
-0

> <r_epik_Charging_Adjusted_Penalty>
0

> <i_epik_Tot_Q>
0

> <i_epik_Tot_abs_Q>
0

> <r_epik_Metal_State_Penalty>
-0

> <b_epik_Metal_Only>
0

> <s_lp_Force_Field>
OPLS_2005

> <r_lp_Energy>
13.0487

> <b_lp_Chiralities_Consistent>
1

> <s_lp_Variant>
AV-unprocessed.smi:3041-1

> <Gold.Version>
5.8.1

> <Gold.Id.Protein>
6NUR|6NUR_protein|mol2

> <Gold.PLP.Fitness>
42.2421

> <Gold.PLP.PLP>
-31.7251

> <Gold.PLP.part.hbond>
-2.6592

> <Gold.PLP.part.metal>
0.0000

> <Gold.PLP.part.buried>
-2.0866

> <Gold.PLP.part.nonpolar>
-29.3173

> <Gold.PLP.part.repulsive>
2.4455

> <Gold.PLP.ligand.clash>
0.0000

> <Gold.PLP.ligand.torsion>
0.3854

> <Gold.PLP.Chemscore.Hbond>
2.0000

> <Gold.PLP.Chemscore.CHOScore>
1.7561

> <Gold.PLP.Chemscore.Metal>
0.0000

> <Gold.Chemscore.Hbonds>
donor molecule, donor type, donor heavy atom, donor atom, acceptor molecule, acceptor atom, score
      L1  H     7    27       P1 10175  1.00
      L1  H    10    28       P1 10175  1.00
      L1  C     3    22       P1  7948  1.00
      L1  C    17    38       P1 10186  0.74

> <Gold.PLP.Chemscore.Internal.Correction>
0.0195

> <Gold.Rescore>
     Score         DG    S(hbond)    S(metal)    S(lipo)     H(rot)  DE(clash)    DE(int)     intcor
     13.88     -14.70       1.90        0.00      65.21       1.85       0.72       0.10       ----

> <Gold.Chemscore.Fitness>
13.8837

> <Gold.Chemscore.DG>
-14.7039

> <Gold.Chemscore.ZeroCoef>
-5.4800

> <Gold.Chemscore.Hbond>
1.8975

> <Gold.Chemscore.Metal>
0.0000

> <Gold.Chemscore.Lipo>
65.2095

> <Gold.Chemscore.Internal_Hbond>
0.0000

> <Gold.Chemscore.DEClash>
0.7156

> <Gold.Chemscore.DEInternal>
0.1046

> <Gold.Chemscore.Rot>
1.8528

> <Gold.Chemscore.Internal.Correction>
   9.000000E+99

> <Gold.Chemscore.Hbonds>
donor molecule, donor type, donor heavy atom, donor atom, acceptor molecule, acceptor atom, score
      L1  H     7    27       P1 10175  0.98
      L1  H    10    28       P1 10175  0.52

> <Gold.Chemscore.Hbond.Weighted>
-6.3376

> <Gold.Chemscore.Metal.Weighted>
-0.0000

> <Gold.Chemscore.Lipo.Weighted>
-7.6295

> <Gold.Chemscore.Internal_Hbond.Weighted>
0.0000

> <Gold.Chemscore.DEClash.Weighted>
0.7156

> <Gold.Chemscore.DEInternal.Weighted>
0.1046

> <Gold.Chemscore.Rot.Weighted>
4.7433

> <Gold.Chemscore.Internal.Correction.Weighted>
   9.000000E+99

> <Gold.Protein.RotatedTorsions>
[ 6907 6896 6895 6894 ] final  -31.65 input  -60.11 | X-H torsion
[ 7974 7965 7964 7962 ] final  -80.72 input  175.53 | X-H torsion
[ 8008 7997 7996 7995 ] final  125.04 input   59.86 | X-H torsion
[ 10167 10162 10161 10158 ] final  -18.47 input  -65.29 | X-H torsion
[ 10718 10713 10712 10709 ] final   48.02 input   66.30 | X-H torsion
[ 10763 10752 10751 10750 ] final  164.94 input  -60.55 | X-H torsion
[ 11005 11000 10999 10996 ] final -151.19 input  -57.11 | X-H torsion

> <Gold.Protein.ActiveResidues>
 VAL166  LYS551  ARG553  GLY616  TRP617  ASP618  TYR619  PRO620  LYS621  CYS622 
 ASP623  PHE694  ASN695  SER759  ASP760  ASP761  ALA762  ILE779  LEU786  VAL792 
 PHE793  MET794  SER795  GLU796  ALA797  LYS798  CYS799  TRP800  GLU811  SER814 

> <Gold.Protein.RotatedAtoms>
  151.0892  134.9906  159.8394 H   0  0  0  0  0  0  0  0  0  0  0  0  # atno 6907 bound_to 6896
  152.5427  134.2086  159.8751 H   0  0  0  0  0  0  0  0  0  0  0  0  # atno 6908 bound_to 6896
  151.2121  133.4506  159.2632 H   0  0  0  0  0  0  0  0  0  0  0  0  # atno 6909 bound_to 6896
  145.5563  140.9489  143.1472 H   0  0  0  0  0  0  0  0  0  0  0  0  # atno 7974 bound_to 7965
  156.2821  140.2725  156.1885 H   0  0  0  0  0  0  0  0  0  0  0  0  # atno 8008 bound_to 7997
  155.0482  140.0386  157.2552 H   0  0  0  0  0  0  0  0  0  0  0  0  # atno 8009 bound_to 7997
  154.7217  140.2689  155.6541 H   0  0  0  0  0  0  0  0  0  0  0  0  # atno 8010 bound_to 7997
  140.7259  143.4913  150.9988 H   0  0  0  0  0  0  0  0  0  0  0  0  # atno 10167 bound_to 10162
  157.4645  130.8217  149.7921 H   0  0  0  0  0  0  0  0  0  0  0  0  # atno 10718 bound_to 10713
  154.3166  135.2756  155.2540 H   0  0  0  0  0  0  0  0  0  0  0  0  # atno 10763 bound_to 10752
  154.4912  135.5833  153.6464 H   0  0  0  0  0  0  0  0  0  0  0  0  # atno 10764 bound_to 10752
  152.9881  135.6135  154.3347 H   0  0  0  0  0  0  0  0  0  0  0  0  # atno 10765 bound_to 10752
  140.7322  134.3608  157.5164 H   0  0  0  0  0  0  0  0  0  0  0  0  # atno 11005 bound_to 11000
  144.7505  139.7207  143.7275 LP  0  0  0  0  0  0  0  0  0  0  0  0  # atno 17320 bound_to 7965
  146.1882  139.5109  142.9822 LP  0  0  0  0  0  0  0  0  0  0  0  0  # atno 17321 bound_to 7965
  139.8617  143.7306  152.3173 LP  0  0  0  0  0  0  0  0  0  0  0  0  # atno 17342 bound_to 10162
  139.7523  144.7530  151.0487 LP  0  0  0  0  0  0  0  0  0  0  0  0  # atno 17343 bound_to 10162
  156.0044  130.3863  150.2486 LP  0  0  0  0  0  0  0  0  0  0  0  0  # atno 17370 bound_to 10713
  157.0666  131.0105  151.3204 LP  0  0  0  0  0  0  0  0  0  0  0  0  # atno 17371 bound_to 10713
  139.8824  134.9026  156.2836 LP  0  0  0  0  0  0  0  0  0  0  0  0  # atno 17394 bound_to 11000
  140.9911  133.7208  156.0815 LP  0  0  0  0  0  0  0  0  0  0  0  0  # atno 17395 bound_to 11000

$$$$
