AV-unprocessed.smi:2296|AV-procd|sdf|9220|dock3
  -GOLD-   2272012443D 1   1.00000     0.00000
 Structure written by MMmdl.
 24 24  0  0  0  0  0  0  0  0  2 V2000
  148.5745  138.6101  153.1209 N   0  3  0  0  0  0  0  0  0  0  0  0
  149.2056  139.1518  154.3402 C   0  0  2  0  0  0  0  0  0  0  0  0
  148.9739  140.6698  154.4298 C   0  0  0  0  0  0  0  0  0  0  0  0
  149.2428  141.2791  153.1845 O   0  0  0  0  0  0  0  0  0  0  0  0
  150.7082  138.8105  154.3707 C   0  0  0  0  0  0  0  0  0  0  0  0
  151.3722  139.1556  155.6924 C   0  0  0  0  0  0  0  0  0  0  0  0
  151.4305  140.4902  156.1451 C   0  0  0  0  0  0  0  0  0  0  0  0
  152.0629  140.7549  157.3769 C   0  0  0  0  0  0  0  0  0  0  0  0
  152.6196  139.7946  158.1455 N   0  0  0  0  0  0  0  0  0  0  0  0
  152.5583  138.5187  157.7075 C   0  0  0  0  0  0  0  0  0  0  0  0
  151.9489  138.1472  156.4919 C   0  0  0  0  0  0  0  0  0  0  0  0
  148.9625  137.7012  152.9136 H   0  0  0  0  0  0  0  0  0  0  0  0
  148.7543  139.2365  152.3491 H   0  0  0  0  0  0  0  0  0  0  0  0
  148.7282  138.6779  155.1995 H   0  0  0  0  0  0  0  0  0  0  0  0
  147.9363  140.8814  154.6904 H   0  0  0  0  0  0  0  0  0  0  0  0
  149.5984  141.1212  155.2018 H   0  0  0  0  0  0  0  0  0  0  0  0
  149.1948  140.6195  152.5084 H   0  0  0  0  0  0  0  0  0  0  0  0
  150.8584  137.7519  154.1534 H   0  0  0  0  0  0  0  0  0  0  0  0
  151.2270  139.3570  153.5818 H   0  0  0  0  0  0  0  0  0  0  0  0
  151.0008  141.2959  155.5678 H   0  0  0  0  0  0  0  0  0  0  0  0
  152.1252  141.7653  157.7527 H   0  0  0  0  0  0  0  0  0  0  0  0
  153.0096  137.7716  158.3434 H   0  0  0  0  0  0  0  0  0  0  0  0
  151.9268  137.1117  156.1848 H   0  0  0  0  0  0  0  0  0  0  0  0
  147.5780  138.5282  153.2645 H   0  0  0  0  0  0  0  0  0  0  0  0
  1  2  1  0  0  0  0
  1 12  1  0  0  0  0
  1 13  1  0  0  0  0
  1 24  1  0  0  0  0
  2  3  1  0  0  0  0
  2  5  1  0  0  0  0
  2 14  1  0  0  0  0
  3  4  1  0  0  0  0
  3 15  1  0  0  0  0
  3 16  1  0  0  0  0
  4 17  1  0  0  0  0
  5  6  1  0  0  0  0
  5 18  1  0  0  0  0
  5 19  1  0  0  0  0
  6 11  1  0  0  0  0
  6  7  2  0  0  0  0
  7  8  1  0  0  0  0
  7 20  1  0  0  0  0
  8  9  2  0  0  0  0
  8 21  1  0  0  0  0
  9 10  1  0  0  0  0
 10 11  2  0  0  0  0
 10 22  1  0  0  0  0
 11 23  1  0  0  0  0
M  CHG  1   1   1
M  END
> <s_m_source_file>
AV-unprocessed.smi

> <i_m_source_file_index>
2296

> <i_lp_mmshare_version>
43012

> <i_f3d_flags>
0

> <s_epik_input>
W09IXVtDSDJdW0NAQEhdKFtOSDJdKVtDSDJdYzFbY0hdW2NIXW5bY0hdW2NIXTE=

> <s_epik_cmdline>
J2VwaWtfcHl0aG9uJywgJy1waCcsICc3LjAnLCAnLXRuJywgJzgnLCAnLW1hJywgJzIwMCcsICctbWV0YWxfYmluZGluZycsICctaW1hZScsICc8aW5maWxlLm1hZT4nLCAnLW9tYWUnLCAnPG91dGZpbGUubWFlPic=

> <r_epik_Ionization_Penalty>
0.0199414

> <r_epik_Ionization_Penalty_Charging>
0.0188044

> <r_epik_Ionization_Penalty_Neutral>
0.00113699

> <r_epik_State_Penalty>
0.00788343

> <r_epik_Charging_Adjusted_Penalty>
0.0266878

> <i_epik_Tot_Q>
1

> <i_epik_Tot_abs_Q>
1

> <r_epik_Metal_State_Penalty>
-0

> <b_epik_Metal_Only>
0

> <s_lp_Force_Field>
OPLS_2005

> <r_lp_Energy>
8.03463

> <b_lp_Chiralities_Consistent>
1

> <s_lp_Variant>
AV-unprocessed.smi:2296-1

> <Gold.Version>
5.8.1

> <Gold.Id.Protein>
6NUR|6NUR_protein|mol2

> <Gold.PLP.Fitness>
36.6074

> <Gold.PLP.PLP>
-21.9115

> <Gold.PLP.part.hbond>
-5.0368

> <Gold.PLP.part.metal>
0.0000

> <Gold.PLP.part.buried>
-2.8833

> <Gold.PLP.part.nonpolar>
-13.5826

> <Gold.PLP.part.repulsive>
0.0680

> <Gold.PLP.ligand.clash>
0.0000

> <Gold.PLP.ligand.torsion>
0.1479

> <Gold.PLP.Chemscore.Hbond>
4.9953

> <Gold.PLP.Chemscore.CHOScore>
0.0000

> <Gold.PLP.Chemscore.Metal>
0.0000

> <Gold.Chemscore.Hbonds>
donor molecule, donor type, donor heavy atom, donor atom, acceptor molecule, acceptor atom, score
      L1  H     1    12       P1  7948  1.92
      L1  H     1    13       P1  7957  1.00
      L1  H     4    17       P1  7957  0.98
      P1  H  7997  8009       L1     9  0.09
      P1  H  8011  8017       L1     4  0.88

> <Gold.PLP.Chemscore.Internal.Correction>
0.0060

> <Gold.Rescore>
     Score         DG    S(hbond)    S(metal)    S(lipo)     H(rot)  DE(clash)    DE(int)     intcor
     15.28     -16.34       3.16        0.00      49.50       2.14       0.00       1.06       ----

> <Gold.Chemscore.Fitness>
15.2780

> <Gold.Chemscore.DG>
-16.3352

> <Gold.Chemscore.ZeroCoef>
-5.4800

> <Gold.Chemscore.Hbond>
3.1566

> <Gold.Chemscore.Metal>
0.0000

> <Gold.Chemscore.Lipo>
49.5043

> <Gold.Chemscore.Internal_Hbond>
0.0000

> <Gold.Chemscore.DEClash>
0.0004

> <Gold.Chemscore.DEInternal>
1.0568

> <Gold.Chemscore.Rot>
2.1405

> <Gold.Chemscore.Internal.Correction>
   9.000000E+99

> <Gold.Chemscore.Hbonds>
donor molecule, donor type, donor heavy atom, donor atom, acceptor molecule, acceptor atom, score
      L1  H     1    12       P1  7948  0.92
      L1  H     1    13       P1  7957  0.99
      L1  H     4    17       P1  7957  0.87
      P1  H  8011  8017       L1     4  0.16

> <Gold.Chemscore.Hbond.Weighted>
-10.5430

> <Gold.Chemscore.Metal.Weighted>
-0.0000

> <Gold.Chemscore.Lipo.Weighted>
-5.7920

> <Gold.Chemscore.Internal_Hbond.Weighted>
0.0000

> <Gold.Chemscore.DEClash.Weighted>
0.0004

> <Gold.Chemscore.DEInternal.Weighted>
1.0568

> <Gold.Chemscore.Rot.Weighted>
5.4797

> <Gold.Chemscore.Internal.Correction.Weighted>
   9.000000E+99

> <Gold.Protein.RotatedTorsions>
[ 6907 6896 6895 6894 ] final  -78.82 input  -60.11 | X-H torsion
[ 7974 7965 7964 7962 ] final -109.53 input  175.53 | X-H torsion
[ 8008 7997 7996 7995 ] final  151.89 input   59.86 | X-H torsion
[ 10167 10162 10161 10158 ] final    0.78 input  -65.29 | X-H torsion
[ 10718 10713 10712 10709 ] final   13.16 input   66.30 | X-H torsion
[ 10763 10752 10751 10750 ] final  -26.61 input  -60.55 | X-H torsion
[ 11005 11000 10999 10996 ] final   85.28 input  -57.11 | X-H torsion

> <Gold.Protein.ActiveResidues>
 VAL166  LYS551  ARG553  GLY616  TRP617  ASP618  TYR619  PRO620  LYS621  CYS622 
 ASP623  PHE694  ASN695  SER759  ASP760  ASP761  ALA762  ILE779  LEU786  VAL792 
 PHE793  MET794  SER795  GLU796  ALA797  LYS798  CYS799  TRP800  GLU811  SER814 

> <Gold.Protein.RotatedAtoms>
  150.6964  134.4215  159.5206 H   0  0  0  0  0  0  0  0  0  0  0  0  # atno 6907 bound_to 6896
  152.1957  134.8630  160.0522 H   0  0  0  0  0  0  0  0  0  0  0  0  # atno 6908 bound_to 6896
  151.9569  133.3648  159.4057 H   0  0  0  0  0  0  0  0  0  0  0  0  # atno 6909 bound_to 6896
  145.1794  140.8964  143.3488 H   0  0  0  0  0  0  0  0  0  0  0  0  # atno 7974 bound_to 7965
  156.2654  140.2035  156.6247 H   0  0  0  0  0  0  0  0  0  0  0  0  # atno 8008 bound_to 7997
  154.6729  140.0548  157.0209 H   0  0  0  0  0  0  0  0  0  0  0  0  # atno 8009 bound_to 7997
  155.1110  140.3215  155.4524 H   0  0  0  0  0  0  0  0  0  0  0  0  # atno 8010 bound_to 7997
  140.6713  143.7040  150.7929 H   0  0  0  0  0  0  0  0  0  0  0  0  # atno 10167 bound_to 10162
  157.0207  130.6153  149.5720 H   0  0  0  0  0  0  0  0  0  0  0  0  # atno 10718 bound_to 10713
  153.7187  135.6946  153.5018 H   0  0  0  0  0  0  0  0  0  0  0  0  # atno 10763 bound_to 10752
  153.2220  135.4367  155.0498 H   0  0  0  0  0  0  0  0  0  0  0  0  # atno 10764 bound_to 10752
  154.8291  135.3463  154.6721 H   0  0  0  0  0  0  0  0  0  0  0  0  # atno 10765 bound_to 10752
  139.8976  134.8275  156.2560 H   0  0  0  0  0  0  0  0  0  0  0  0  # atno 11005 bound_to 11000
  145.0151  139.3474  143.6100 LP  0  0  0  0  0  0  0  0  0  0  0  0  # atno 17320 bound_to 7965
  146.3455  139.9429  142.8738 LP  0  0  0  0  0  0  0  0  0  0  0  0  # atno 17321 bound_to 7965
  140.0726  143.5046  152.2572 LP  0  0  0  0  0  0  0  0  0  0  0  0  # atno 17342 bound_to 10162
  139.5983  144.7574  151.3233 LP  0  0  0  0  0  0  0  0  0  0  0  0  # atno 17343 bound_to 10162
  156.0103  130.5194  150.7967 LP  0  0  0  0  0  0  0  0  0  0  0  0  # atno 17370 bound_to 10713
  157.5252  131.0933  151.0027 LP  0  0  0  0  0  0  0  0  0  0  0  0  # atno 17371 bound_to 10713
  141.0193  133.7050  156.1241 LP  0  0  0  0  0  0  0  0  0  0  0  0  # atno 17394 bound_to 11000
  140.7256  134.4310  157.5571 LP  0  0  0  0  0  0  0  0  0  0  0  0  # atno 17395 bound_to 11000

$$$$
