AV-unprocessed.smi:488|AV-procd|sdf|2701|dock3
  -GOLD-   2262023133D 1   1.00000     0.00000
 Structure written by MMmdl.
 45 46  0  0  0  0  0  0  0  0  1 V2000
  147.2473  136.3288  157.5782 C   0  0  0  0  0  0  0  0  0  0  0  0
  148.4838  136.5475  156.7488 C   0  0  0  0  0  0  0  0  0  0  0  0
  149.0418  135.4935  156.2504 N   0  0  0  0  0  0  0  0  0  0  0  0
  150.1867  135.5801  155.4813 N   0  0  0  0  0  0  0  0  0  0  0  0
  150.6899  134.2828  155.0088 C   0  0  0  0  0  0  0  0  0  0  0  0
  149.5530  133.3742  154.5286 C   0  0  0  0  0  0  0  0  0  0  0  0
  149.3786  132.2857  155.0792 O   0  0  0  0  0  0  0  0  0  0  0  0
  148.8142  133.8580  153.5087 N   0  0  0  0  0  0  0  0  0  0  0  0
  147.7552  133.2772  152.9139 C   0  0  0  0  0  0  0  0  0  0  0  0
  147.3398  132.1381  153.1376 O   0  0  0  0  0  0  0  0  0  0  0  0
  147.1889  134.1073  152.0255 N   0  0  0  0  0  0  0  0  0  0  0  0
  146.0219  133.7966  151.2054 C   0  0  0  0  0  0  0  0  0  0  0  0
  144.8565  133.3557  152.1107 C   0  0  0  0  0  0  0  0  0  0  0  0
  143.6205  132.9664  151.2840 C   0  0  0  0  0  0  0  0  0  0  0  0
  143.9589  131.8736  150.2580 C   0  0  0  0  0  0  0  0  0  0  0  0
  145.1211  132.3059  149.3500 C   0  0  0  0  0  0  0  0  0  0  0  0
  146.3584  132.7002  150.1736 C   0  0  0  0  0  0  0  0  0  0  0  0
  150.8265  136.7444  155.1706 C   0  0  0  0  0  0  0  0  0  0  0  0
  151.8464  136.7774  154.4808 O   0  0  0  0  0  0  0  0  0  0  0  0
  150.1865  137.9345  155.7357 C   0  0  0  0  0  0  0  0  0  0  0  0
  150.8274  139.1752  155.4394 C   0  0  0  0  0  0  0  0  0  0  0  0
  151.3641  140.1703  155.1907 N   0  0  0  0  0  0  0  0  0  0  0  0
  149.0622  137.8622  156.4911 C   0  0  0  0  0  0  0  0  0  0  0  0
  148.3625  139.0690  157.1012 C   0  0  0  0  0  0  0  0  0  0  0  0
  146.3733  136.7588  157.0888 H   0  0  0  0  0  0  0  0  0  0  0  0
  147.3502  136.7941  158.5587 H   0  0  0  0  0  0  0  0  0  0  0  0
  147.0475  135.2683  157.7390 H   0  0  0  0  0  0  0  0  0  0  0  0
  151.3979  134.4251  154.1899 H   0  0  0  0  0  0  0  0  0  0  0  0
  151.2563  133.7773  155.7933 H   0  0  0  0  0  0  0  0  0  0  0  0
  149.0859  134.7632  153.1545 H   0  0  0  0  0  0  0  0  0  0  0  0
  147.5983  135.0215  151.9006 H   0  0  0  0  0  0  0  0  0  0  0  0
  145.7104  134.6973  150.6725 H   0  0  0  0  0  0  0  0  0  0  0  0
  145.1632  132.5063  152.7230 H   0  0  0  0  0  0  0  0  0  0  0  0
  144.5967  134.1578  152.8028 H   0  0  0  0  0  0  0  0  0  0  0  0
  142.8245  132.6227  151.9450 H   0  0  0  0  0  0  0  0  0  0  0  0
  143.2350  133.8462  150.7672 H   0  0  0  0  0  0  0  0  0  0  0  0
  144.2243  130.9529  150.7788 H   0  0  0  0  0  0  0  0  0  0  0  0
  143.0802  131.6450  149.6541 H   0  0  0  0  0  0  0  0  0  0  0  0
  145.3743  131.4994  148.6613 H   0  0  0  0  0  0  0  0  0  0  0  0
  144.8091  133.1508  148.7349 H   0  0  0  0  0  0  0  0  0  0  0  0
  147.1479  133.0422  149.5034 H   0  0  0  0  0  0  0  0  0  0  0  0
  146.7481  131.8185  150.6847 H   0  0  0  0  0  0  0  0  0  0  0  0
  148.7699  140.0100  156.7327 H   0  0  0  0  0  0  0  0  0  0  0  0
  148.4723  139.0617  158.1860 H   0  0  0  0  0  0  0  0  0  0  0  0
  147.2985  139.0642  156.8626 H   0  0  0  0  0  0  0  0  0  0  0  0
  1  2  1  0  0  0  0
  1 25  1  0  0  0  0
  1 26  1  0  0  0  0
  1 27  1  0  0  0  0
  2 23  1  0  0  0  0
  2  3  2  0  0  0  0
  3  4  1  0  0  0  0
  4  5  1  0  0  0  0
  4 18  1  0  0  0  0
  5  6  1  0  0  0  0
  5 28  1  0  0  0  0
  5 29  1  0  0  0  0
  6  7  2  0  0  0  0
  6  8  1  0  0  0  0
  8  9  1  0  0  0  0
  8 30  1  0  0  0  0
  9 10  2  0  0  0  0
  9 11  1  0  0  0  0
 11 12  1  0  0  0  0
 11 31  1  0  0  0  0
 12 17  1  0  0  0  0
 12 13  1  0  0  0  0
 12 32  1  0  0  0  0
 13 14  1  0  0  0  0
 13 33  1  0  0  0  0
 13 34  1  0  0  0  0
 14 15  1  0  0  0  0
 14 35  1  0  0  0  0
 14 36  1  0  0  0  0
 15 16  1  0  0  0  0
 15 37  1  0  0  0  0
 15 38  1  0  0  0  0
 16 17  1  0  0  0  0
 16 39  1  0  0  0  0
 16 40  1  0  0  0  0
 17 41  1  0  0  0  0
 17 42  1  0  0  0  0
 18 19  2  0  0  0  0
 18 20  1  0  0  0  0
 20 21  1  0  0  0  0
 20 23  2  0  0  0  0
 21 22  3  0  0  0  0
 23 24  1  0  0  0  0
 24 43  1  0  0  0  0
 24 44  1  0  0  0  0
 24 45  1  0  0  0  0
M  END
> <s_m_source_file>
AV-unprocessed.smi

> <i_m_source_file_index>
488

> <i_lp_mmshare_version>
43012

> <i_f3d_flags>
0

> <s_epik_input>
TiNDYyhjMVtDSDNdKWMoPU8pbihuYzFbQ0gzXSlbQ0gyXUMoPU8pW05IXUMoPU8pW05IXVtDSF0yW0NIMl1bQ0gyXVtDSDJdW0NIMl1bQ0gyXTI=

> <s_epik_cmdline>
J2VwaWtfcHl0aG9uJywgJy1waCcsICc3LjAnLCAnLXRuJywgJzgnLCAnLW1hJywgJzIwMCcsICctbWV0YWxfYmluZGluZycsICctaW1hZScsICc8aW5maWxlLm1hZT4nLCAnLW9tYWUnLCAnPG91dGZpbGUubWFlPic=

> <r_lp_tautomer_probability>
1

> <r_epik_Ionization_Penalty>
3.27035e-05

> <r_epik_Ionization_Penalty_Charging>
1.69167e-11

> <r_epik_Ionization_Penalty_Neutral>
3.27035e-05

> <r_epik_State_Penalty>
-0

> <r_epik_Charging_Adjusted_Penalty>
1.69167e-11

> <i_epik_Tot_Q>
0

> <i_epik_Tot_abs_Q>
0

> <r_epik_Metal_State_Penalty>
-0

> <b_epik_Metal_Only>
0

> <s_lp_Force_Field>
OPLS_2005

> <r_lp_Energy>
25.832

> <b_lp_Chiralities_Consistent>
1

> <s_lp_Variant>
AV-unprocessed.smi:488-1

> <Gold.Version>
5.8.1

> <Gold.Id.Protein>
6NUR|6NUR_protein|mol2

> <Gold.PLP.Fitness>
46.1884

> <Gold.PLP.PLP>
-34.8990

> <Gold.PLP.part.hbond>
-4.0000

> <Gold.PLP.part.metal>
0.0000

> <Gold.PLP.part.buried>
-6.9752

> <Gold.PLP.part.nonpolar>
-24.8482

> <Gold.PLP.part.repulsive>
0.3639

> <Gold.PLP.ligand.clash>
0.0000

> <Gold.PLP.ligand.torsion>
0.2920

> <Gold.PLP.Chemscore.Hbond>
3.9500

> <Gold.PLP.Chemscore.CHOScore>
0.0000

> <Gold.PLP.Chemscore.Metal>
0.0000

> <Gold.Chemscore.Hbonds>
donor molecule, donor type, donor heavy atom, donor atom, acceptor molecule, acceptor atom, score
      L1  H     8    30       P1  7948  0.65
      L1  H    11    31       P1  7948  1.00
      P1  H  7989  7998       L1    22  1.00
      P1  H 10752 10765       L1    19  1.00

> <Gold.PLP.Chemscore.Internal.Correction>
0.0233

> <Gold.Rescore>
     Score         DG    S(hbond)    S(metal)    S(lipo)     H(rot)  DE(clash)    DE(int)     intcor
     16.52     -19.58       3.41        0.00      57.81       1.59       0.16       2.90       ----

> <Gold.Chemscore.Fitness>
16.5218

> <Gold.Chemscore.DG>
-19.5835

> <Gold.Chemscore.ZeroCoef>
-5.4800

> <Gold.Chemscore.Hbond>
3.4133

> <Gold.Chemscore.Metal>
0.0000

> <Gold.Chemscore.Lipo>
57.8103

> <Gold.Chemscore.Internal_Hbond>
0.0000

> <Gold.Chemscore.DEClash>
0.1568

> <Gold.Chemscore.DEInternal>
2.9049

> <Gold.Chemscore.Rot>
1.5862

> <Gold.Chemscore.Internal.Correction>
   9.000000E+99

> <Gold.Chemscore.Hbonds>
donor molecule, donor type, donor heavy atom, donor atom, acceptor molecule, acceptor atom, score
      L1  H     8    30       P1  7948  0.05
      L1  H    11    31       P1  7948  0.80
      P1  H  7989  7998       L1    22  0.97
      P1  H 10752 10765       L1    19  0.96

> <Gold.Chemscore.Hbond.Weighted>
-11.4004

> <Gold.Chemscore.Metal.Weighted>
-0.0000

> <Gold.Chemscore.Lipo.Weighted>
-6.7638

> <Gold.Chemscore.Internal_Hbond.Weighted>
0.0000

> <Gold.Chemscore.DEClash.Weighted>
0.1568

> <Gold.Chemscore.DEInternal.Weighted>
2.9049

> <Gold.Chemscore.Rot.Weighted>
4.0607

> <Gold.Chemscore.Internal.Correction.Weighted>
   9.000000E+99

> <Gold.Protein.RotatedTorsions>
[ 6907 6896 6895 6894 ] final  -46.79 input  -60.11 | X-H torsion
[ 7974 7965 7964 7962 ] final -136.81 input  175.53 | X-H torsion
[ 8008 7997 7996 7995 ] final  -98.18 input   59.86 | X-H torsion
[ 10167 10162 10161 10158 ] final  172.34 input  -65.29 | X-H torsion
[ 10718 10713 10712 10709 ] final   63.51 input   66.30 | X-H torsion
[ 10763 10752 10751 10750 ] final  154.74 input  -60.55 | X-H torsion
[ 11005 11000 10999 10996 ] final  -64.60 input  -57.11 | X-H torsion

> <Gold.Protein.ActiveResidues>
 VAL166  LYS551  ARG553  GLY616  TRP617  ASP618  TYR619  PRO620  LYS621  CYS622 
 ASP623  PHE694  ASN695  SER759  ASP760  ASP761  ALA762  ILE779  LEU786  VAL792 
 PHE793  MET794  SER795  GLU796  ALA797  LYS798  CYS799  TRP800  GLU811  SER814 

> <Gold.Protein.RotatedAtoms>
  150.9076  134.8491  159.7402 H   0  0  0  0  0  0  0  0  0  0  0  0  # atno 6907 bound_to 6896
  152.4927  134.4408  159.9552 H   0  0  0  0  0  0  0  0  0  0  0  0  # atno 6908 bound_to 6896
  151.4453  133.3593  159.2823 H   0  0  0  0  0  0  0  0  0  0  0  0  # atno 6909 bound_to 6896
  144.8895  140.6622  143.5154 H   0  0  0  0  0  0  0  0  0  0  0  0  # atno 7974 bound_to 7965
  154.7977  140.0457  157.1249 H   0  0  0  0  0  0  0  0  0  0  0  0  # atno 8008 bound_to 7997
  154.9516  140.3066  155.5053 H   0  0  0  0  0  0  0  0  0  0  0  0  # atno 8009 bound_to 7997
  156.2958  140.2287  156.4594 H   0  0  0  0  0  0  0  0  0  0  0  0  # atno 8010 bound_to 7997
  139.5073  144.3385  152.0042 H   0  0  0  0  0  0  0  0  0  0  0  0  # atno 10167 bound_to 10162
  157.5976  130.9109  149.9725 H   0  0  0  0  0  0  0  0  0  0  0  0  # atno 10718 bound_to 10713
  154.1572  135.2812  155.3119 H   0  0  0  0  0  0  0  0  0  0  0  0  # atno 10763 bound_to 10752
  154.6174  135.5479  153.7541 H   0  0  0  0  0  0  0  0  0  0  0  0  # atno 10764 bound_to 10752
  153.0203  135.6430  154.1714 H   0  0  0  0  0  0  0  0  0  0  0  0  # atno 10765 bound_to 10752
  141.1429  133.6668  156.5857 H   0  0  0  0  0  0  0  0  0  0  0  0  # atno 11005 bound_to 11000
  145.3808  139.1637  143.4281 LP  0  0  0  0  0  0  0  0  0  0  0  0  # atno 17320 bound_to 7965
  146.3045  140.3889  142.8692 LP  0  0  0  0  0  0  0  0  0  0  0  0  # atno 17321 bound_to 7965
  140.2823  144.3846  150.6115 LP  0  0  0  0  0  0  0  0  0  0  0  0  # atno 17342 bound_to 10162
  140.6009  143.2167  151.7074 LP  0  0  0  0  0  0  0  0  0  0  0  0  # atno 17343 bound_to 10162
  156.1042  130.3654  150.0164 LP  0  0  0  0  0  0  0  0  0  0  0  0  # atno 17370 bound_to 10713
  156.8274  130.9380  151.3638 LP  0  0  0  0  0  0  0  0  0  0  0  0  # atno 17371 bound_to 10713
  140.3802  134.7529  157.4656 LP  0  0  0  0  0  0  0  0  0  0  0  0  # atno 17394 bound_to 11000
  140.0643  134.5951  155.8713 LP  0  0  0  0  0  0  0  0  0  0  0  0  # atno 17395 bound_to 11000

$$$$
