AV-unprocessed.smi:1888|AV-procd|sdf|7657|dock1
  -GOLD-   22720 9393D 1   1.00000     0.00000
 Structure written by MMmdl.
 44 46  0  0  0  0  0  0  0  0  1 V2000
  147.1507  141.0153  153.3946 C   0  0  0  0  0  0  0  0  0  0  0  0
  147.7157  142.0268  154.3945 C   0  0  0  0  0  0  0  0  0  0  0  0
  148.6982  141.3853  155.1898 O   0  0  0  0  0  0  0  0  0  0  0  0
  149.2696  142.2501  156.1561 C   0  0  0  0  0  0  0  0  0  0  0  0
  150.7977  142.1378  156.0770 C   0  0  0  0  0  0  0  0  0  0  0  0
  151.2888  140.9441  156.7556 N   0  0  0  0  0  0  0  0  0  0  0  0
  151.8517  140.8500  157.9887 C   0  0  0  0  0  0  0  0  0  0  0  0
  152.0424  141.9878  158.8024 N   0  0  0  0  0  0  0  0  0  0  0  0
  151.2949  143.0957  158.6062 N   0  0  0  0  0  0  0  0  0  0  0  0
  151.7251  143.9624  159.5076 C   0  0  0  0  0  0  0  0  0  0  0  0
  151.0956  145.3219  159.5817 C   0  0  0  0  0  0  0  0  0  0  0  0
  152.7760  143.4305  160.3059 C   0  0  0  0  0  0  0  0  0  0  0  0
  152.9584  142.1648  159.8238 C   0  0  0  0  0  0  0  0  0  0  0  0
  153.9187  141.1012  160.2459 C   0  0  0  0  0  0  0  0  0  0  0  0
  152.1888  139.6116  158.3611 N   0  0  0  0  0  0  0  0  0  0  0  0
  151.8189  138.8520  157.2607 C   0  0  0  0  0  0  0  0  0  0  0  0
  151.2796  139.6307  156.2889 C   0  0  0  0  0  0  0  0  0  0  0  0
  150.8030  139.0834  155.0134 C   0  0  0  0  0  0  0  0  0  0  0  0
  150.3141  139.7730  154.1212 O   0  0  0  0  0  0  0  0  0  0  0  0
  150.9614  137.7404  154.9217 N   0  0  0  0  0  0  0  0  0  0  0  0
  151.4966  136.8985  155.8589 C   0  0  0  0  0  0  0  0  0  0  0  0
  151.5758  135.6936  155.6212 O   0  0  0  0  0  0  0  0  0  0  0  0
  151.9280  137.4511  157.0398 N   0  0  0  0  0  0  0  0  0  0  0  0
  152.5191  136.6389  158.1050 C   0  0  0  0  0  0  0  0  0  0  0  0
  150.6507  137.3113  154.0621 H   0  0  0  0  0  0  0  0  0  0  0  0
  146.3931  141.4755  152.7602 H   0  0  0  0  0  0  0  0  0  0  0  0
  146.6893  140.1729  153.9101 H   0  0  0  0  0  0  0  0  0  0  0  0
  147.9364  140.6238  152.7479 H   0  0  0  0  0  0  0  0  0  0  0  0
  148.1555  142.8713  153.8616 H   0  0  0  0  0  0  0  0  0  0  0  0
  146.9138  142.4142  155.0247 H   0  0  0  0  0  0  0  0  0  0  0  0
  148.9543  143.2778  155.9701 H   0  0  0  0  0  0  0  0  0  0  0  0
  148.9207  141.9763  157.1526 H   0  0  0  0  0  0  0  0  0  0  0  0
  151.1202  142.1204  155.0358 H   0  0  0  0  0  0  0  0  0  0  0  0
  151.2695  143.0157  156.5176 H   0  0  0  0  0  0  0  0  0  0  0  0
  151.5911  145.9464  160.3253 H   0  0  0  0  0  0  0  0  0  0  0  0
  150.0428  145.2512  159.8558 H   0  0  0  0  0  0  0  0  0  0  0  0
  151.1572  145.8369  158.6225 H   0  0  0  0  0  0  0  0  0  0  0  0
  153.3154  143.9072  161.1110 H   0  0  0  0  0  0  0  0  0  0  0  0
  154.4662  141.4022  161.1392 H   0  0  0  0  0  0  0  0  0  0  0  0
  154.6457  140.9009  159.4584 H   0  0  0  0  0  0  0  0  0  0  0  0
  153.3957  140.1711  160.4696 H   0  0  0  0  0  0  0  0  0  0  0  0
  152.5080  135.5668  157.9055 H   0  0  0  0  0  0  0  0  0  0  0  0
  151.9801  136.7992  159.0394 H   0  0  0  0  0  0  0  0  0  0  0  0
  153.5573  136.9331  158.2621 H   0  0  0  0  0  0  0  0  0  0  0  0
  1  2  1  0  0  0  0
  1 26  1  0  0  0  0
  1 27  1  0  0  0  0
  1 28  1  0  0  0  0
  2  3  1  0  0  0  0
  2 29  1  0  0  0  0
  2 30  1  0  0  0  0
  3  4  1  0  0  0  0
  4  5  1  0  0  0  0
  4 31  1  0  0  0  0
  4 32  1  0  0  0  0
  5  6  1  0  0  0  0
  5 33  1  0  0  0  0
  5 34  1  0  0  0  0
  6 17  1  0  0  0  0
  6  7  1  0  0  0  0
  7  8  1  0  0  0  0
  7 15  2  0  0  0  0
  8 13  1  0  0  0  0
  8  9  1  0  0  0  0
  9 10  2  0  0  0  0
 10 11  1  0  0  0  0
 10 12  1  0  0  0  0
 11 35  1  0  0  0  0
 11 36  1  0  0  0  0
 11 37  1  0  0  0  0
 12 13  2  0  0  0  0
 12 38  1  0  0  0  0
 13 14  1  0  0  0  0
 14 39  1  0  0  0  0
 14 40  1  0  0  0  0
 14 41  1  0  0  0  0
 15 16  1  0  0  0  0
 16 23  1  0  0  0  0
 16 17  2  0  0  0  0
 17 18  1  0  0  0  0
 18 19  2  0  0  0  0
 18 20  1  0  0  0  0
 20 25  1  0  0  0  0
 20 21  1  0  0  0  0
 21 22  2  0  0  0  0
 21 23  1  0  0  0  0
 23 24  1  0  0  0  0
 24 42  1  0  0  0  0
 24 43  1  0  0  0  0
 24 44  1  0  0  0  0
M  END
> <s_m_source_file>
AV-unprocessed.smi

> <i_m_source_file_index>
1888

> <i_lp_mmshare_version>
43012

> <i_f3d_flags>
0

> <s_epik_input>
W0NIM11uMWMoPU8pW25IXWMoPU8pYyhjMTIpbihbQ0gyXVtDSDJdT1tDSDJdW0NIM10pYyhuMiktbjNuYyhbQ0gzXSlbY0hdYzNbQ0gzXQ==

> <s_epik_cmdline>
J2VwaWtfcHl0aG9uJywgJy1waCcsICc3LjAnLCAnLXRuJywgJzgnLCAnLW1hJywgJzIwMCcsICctbWV0YWxfYmluZGluZycsICctaW1hZScsICc8aW5maWxlLm1hZT4nLCAnLW9tYWUnLCAnPG91dGZpbGUubWFlPic=

> <r_lp_tautomer_probability>
1

> <r_epik_Ionization_Penalty>
0.00155345

> <r_epik_Ionization_Penalty_Charging>
0.000715499

> <r_epik_Ionization_Penalty_Neutral>
0.000837951

> <r_epik_State_Penalty>
-0

> <r_epik_Charging_Adjusted_Penalty>
0.000715499

> <i_epik_Tot_Q>
0

> <i_epik_Tot_abs_Q>
0

> <r_epik_Metal_State_Penalty>
0.258535

> <b_epik_Metal_Only>
0

> <s_lp_Force_Field>
OPLS_2005

> <r_lp_Energy>
26.5558

> <b_lp_Chiralities_Consistent>
1

> <s_lp_Variant>
AV-unprocessed.smi:1888-1

> <Gold.Version>
5.8.1

> <Gold.Id.Protein>
6NUR|6NUR_protein|mol2

> <Gold.PLP.Fitness>
44.6256

> <Gold.PLP.PLP>
-39.9892

> <Gold.PLP.part.hbond>
-2.0000

> <Gold.PLP.part.metal>
0.0000

> <Gold.PLP.part.buried>
-1.5117

> <Gold.PLP.part.nonpolar>
-37.6301

> <Gold.PLP.part.repulsive>
1.0228

> <Gold.PLP.ligand.clash>
0.0067

> <Gold.PLP.ligand.torsion>
0.9283

> <Gold.PLP.Chemscore.Hbond>
2.0000

> <Gold.PLP.Chemscore.CHOScore>
0.0000

> <Gold.PLP.Chemscore.Metal>
0.0000

> <Gold.Chemscore.Hbonds>
donor molecule, donor type, donor heavy atom, donor atom, acceptor molecule, acceptor atom, score
      P1  H  7989  7998       L1    19  1.00
      P1  H 10752 10764       L1    22  1.00

> <Gold.PLP.Chemscore.Internal.Correction>
0.4997

> <Gold.Rescore>
     Score         DG    S(hbond)    S(metal)    S(lipo)     H(rot)  DE(clash)    DE(int)     intcor
     11.08     -17.53       1.83        0.00      87.98       1.70       1.22       5.23       ----

> <Gold.Chemscore.Fitness>
11.0803

> <Gold.Chemscore.DG>
-17.5311

> <Gold.Chemscore.ZeroCoef>
-5.4800

> <Gold.Chemscore.Hbond>
1.8256

> <Gold.Chemscore.Metal>
0.0000

> <Gold.Chemscore.Lipo>
87.9800

> <Gold.Chemscore.Internal_Hbond>
0.0000

> <Gold.Chemscore.DEClash>
1.2223

> <Gold.Chemscore.DEInternal>
5.2284

> <Gold.Chemscore.Rot>
1.6953

> <Gold.Chemscore.Internal.Correction>
   9.000000E+99

> <Gold.Chemscore.Hbonds>
donor molecule, donor type, donor heavy atom, donor atom, acceptor molecule, acceptor atom, score
      P1  H  7989  7998       L1    19  0.64
      P1  H 10752 10764       L1    22  0.50

> <Gold.Chemscore.Hbond.Weighted>
-6.0974

> <Gold.Chemscore.Metal.Weighted>
-0.0000

> <Gold.Chemscore.Lipo.Weighted>
-10.2937

> <Gold.Chemscore.Internal_Hbond.Weighted>
0.0000

> <Gold.Chemscore.DEClash.Weighted>
1.2223

> <Gold.Chemscore.DEInternal.Weighted>
5.2284

> <Gold.Chemscore.Rot.Weighted>
4.3399

> <Gold.Chemscore.Internal.Correction.Weighted>
   9.000000E+99

> <Gold.Protein.RotatedTorsions>
[ 6907 6896 6895 6894 ] final   48.26 input  -60.11 | X-H torsion
[ 7974 7965 7964 7962 ] final   15.39 input  175.53 | X-H torsion
[ 8008 7997 7996 7995 ] final  106.35 input   59.86 | X-H torsion
[ 10167 10162 10161 10158 ] final -168.36 input  -65.29 | X-H torsion
[ 10718 10713 10712 10709 ] final  -38.30 input   66.30 | X-H torsion
[ 10763 10752 10751 10750 ] final  -43.84 input  -60.55 | X-H torsion
[ 11005 11000 10999 10996 ] final -157.45 input  -57.11 | X-H torsion

> <Gold.Protein.ActiveResidues>
 VAL166  LYS551  ARG553  GLY616  TRP617  ASP618  TYR619  PRO620  LYS621  CYS622 
 ASP623  PHE694  ASN695  SER759  ASP760  ASP761  ALA762  ILE779  LEU786  VAL792 
 PHE793  MET794  SER795  GLU796  ALA797  LYS798  CYS799  TRP800  GLU811  SER814 

> <Gold.Protein.RotatedAtoms>
  152.2775  134.7865  160.0402 H   0  0  0  0  0  0  0  0  0  0  0  0  # atno 6907 bound_to 6896
  151.8456  133.3426  159.3665 H   0  0  0  0  0  0  0  0  0  0  0  0  # atno 6908 bound_to 6896
  150.7176  134.5277  159.5729 H   0  0  0  0  0  0  0  0  0  0  0  0  # atno 6909 bound_to 6896
  146.2280  139.8901  142.8556 H   0  0  0  0  0  0  0  0  0  0  0  0  # atno 7974 bound_to 7965
  156.1736  140.3114  155.9018 H   0  0  0  0  0  0  0  0  0  0  0  0  # atno 8008 bound_to 7997
  155.3535  140.0472  157.3063 H   0  0  0  0  0  0  0  0  0  0  0  0  # atno 8009 bound_to 7997
  154.5267  140.2216  155.8888 H   0  0  0  0  0  0  0  0  0  0  0  0  # atno 8010 bound_to 7997
  139.5990  144.1050  152.1722 H   0  0  0  0  0  0  0  0  0  0  0  0  # atno 10167 bound_to 10162
  156.3053  130.4245  149.8103 H   0  0  0  0  0  0  0  0  0  0  0  0  # atno 10718 bound_to 10713
  154.0021  135.6692  153.4760 H   0  0  0  0  0  0  0  0  0  0  0  0  # atno 10763 bound_to 10752
  153.0657  135.5002  154.8192 H   0  0  0  0  0  0  0  0  0  0  0  0  # atno 10764 bound_to 10752
  154.7046  135.3085  154.9253 H   0  0  0  0  0  0  0  0  0  0  0  0  # atno 10765 bound_to 10752
  140.6645  134.4313  157.5233 H   0  0  0  0  0  0  0  0  0  0  0  0  # atno 11005 bound_to 11000
  145.2426  141.0014  143.3927 LP  0  0  0  0  0  0  0  0  0  0  0  0  # atno 17320 bound_to 7965
  144.9440  139.4157  143.6435 LP  0  0  0  0  0  0  0  0  0  0  0  0  # atno 17321 bound_to 7965
  140.0642  144.5832  150.7240 LP  0  0  0  0  0  0  0  0  0  0  0  0  # atno 17342 bound_to 10162
  140.7235  143.2612  151.4200 LP  0  0  0  0  0  0  0  0  0  0  0  0  # atno 17343 bound_to 10162
  156.5466  130.8323  151.3286 LP  0  0  0  0  0  0  0  0  0  0  0  0  # atno 17370 bound_to 10713
  157.7378  130.9802  150.2214 LP  0  0  0  0  0  0  0  0  0  0  0  0  # atno 17371 bound_to 10713
  139.9002  134.8575  156.1930 LP  0  0  0  0  0  0  0  0  0  0  0  0  # atno 17394 bound_to 11000
  141.0440  133.6923  156.1649 LP  0  0  0  0  0  0  0  0  0  0  0  0  # atno 17395 bound_to 11000

$$$$
