AV-unprocessed.smi:2095|AV-procd|sdf|8556|dock8
  -GOLD-   2272011283D 1   1.00000     0.00000
 Structure written by MMmdl.
 42 43  0  0  0  0  0  0  0  0  2 V2000
  152.7695  144.8516  158.0695 C   0  0  0  0  0  0  0  0  0  0  0  0
  151.5970  144.3434  158.9266 C   0  0  2  0  0  0  0  0  0  0  0  0
  151.8963  144.3915  160.4373 C   0  0  0  0  0  0  0  0  0  0  0  0
  152.8714  143.2791  160.8519 C   0  0  0  0  0  0  0  0  0  0  0  0
  152.3729  141.9029  160.3835 C   0  0  0  0  0  0  0  0  0  0  0  0
  152.1396  141.8988  158.9155 N   0  3  1  0  0  0  0  0  0  0  0  0
  151.9158  140.5355  158.3532 C   0  0  2  0  0  0  0  0  0  0  0  0
  153.0537  139.5814  158.7660 C   0  0  0  0  0  0  0  0  0  0  0  0
  151.6610  140.5403  156.8239 C   0  0  0  0  0  0  0  0  0  0  0  0
  151.2537  139.2290  156.3340 N   0  0  0  0  0  0  0  0  0  0  0  0
  151.6394  138.6914  155.1667 C   0  0  0  0  0  0  0  0  0  0  0  0
  152.4439  139.2285  154.4059 O   0  0  0  0  0  0  0  0  0  0  0  0
  150.9958  137.3585  154.7866 C   0  0  0  0  0  0  0  0  0  0  0  0
  151.0183  136.4465  155.9144 N   0  0  0  0  0  0  0  0  0  0  0  0
  150.0554  136.0742  156.7601 C   0  0  0  0  0  0  0  0  0  0  0  0
  150.5105  135.2380  157.6807 N   0  0  0  0  0  0  0  0  0  0  0  0
  151.8490  135.1040  157.3508 N   0  0  0  0  0  0  0  0  0  0  0  0
  152.1564  135.8188  156.3037 N   0  0  0  0  0  0  0  0  0  0  0  0
  151.1420  142.9288  158.5125 C   0  0  0  0  0  0  0  0  0  0  0  0
  153.6541  144.2234  158.1735 H   0  0  0  0  0  0  0  0  0  0  0  0
  153.0491  145.8669  158.3522 H   0  0  0  0  0  0  0  0  0  0  0  0
  152.5016  144.8690  157.0125 H   0  0  0  0  0  0  0  0  0  0  0  0
  150.7638  145.0220  158.7395 H   0  0  0  0  0  0  0  0  0  0  0  0
  152.2927  145.3676  160.7196 H   0  0  0  0  0  0  0  0  0  0  0  0
  150.9642  144.2699  160.9909 H   0  0  0  0  0  0  0  0  0  0  0  0
  153.8591  143.4742  160.4333 H   0  0  0  0  0  0  0  0  0  0  0  0
  152.9946  143.2797  161.9353 H   0  0  0  0  0  0  0  0  0  0  0  0
  153.1144  141.1482  160.6480 H   0  0  0  0  0  0  0  0  0  0  0  0
  151.4530  141.6413  160.9079 H   0  0  0  0  0  0  0  0  0  0  0  0
  151.0207  140.1458  158.8399 H   0  0  0  0  0  0  0  0  0  0  0  0
  152.8102  138.5461  158.5249 H   0  0  0  0  0  0  0  0  0  0  0  0
  153.2316  139.6255  159.8409 H   0  0  0  0  0  0  0  0  0  0  0  0
  153.9906  139.8190  158.2626 H   0  0  0  0  0  0  0  0  0  0  0  0
  150.9047  141.2782  156.5528 H   0  0  0  0  0  0  0  0  0  0  0  0
  152.5678  140.8139  156.2848 H   0  0  0  0  0  0  0  0  0  0  0  0
  150.5904  138.7154  156.8968 H   0  0  0  0  0  0  0  0  0  0  0  0
  149.9606  137.5141  154.4797 H   0  0  0  0  0  0  0  0  0  0  0  0
  151.5212  136.9085  153.9427 H   0  0  0  0  0  0  0  0  0  0  0  0
  149.0337  136.4206  156.7075 H   0  0  0  0  0  0  0  0  0  0  0  0
  150.1832  142.7112  158.9849 H   0  0  0  0  0  0  0  0  0  0  0  0
  150.9721  142.9024  157.4365 H   0  0  0  0  0  0  0  0  0  0  0  0
  153.0163  142.1997  158.5141 H   0  0  0  0  0  0  0  0  0  0  0  0
  1  2  1  0  0  0  0
  1 20  1  0  0  0  0
  1 21  1  0  0  0  0
  1 22  1  0  0  0  0
  2 19  1  0  0  0  0
  2  3  1  0  0  0  0
  2 23  1  0  0  0  0
  3  4  1  0  0  0  0
  3 24  1  0  0  0  0
  3 25  1  0  0  0  0
  4  5  1  0  0  0  0
  4 26  1  0  0  0  0
  4 27  1  0  0  0  0
  5  6  1  0  0  0  0
  5 28  1  0  0  0  0
  5 29  1  0  0  0  0
  6  7  1  0  0  0  0
  6 19  1  0  0  0  0
  6 42  1  0  0  0  0
  7  8  1  0  0  0  0
  7  9  1  0  0  0  0
  7 30  1  0  0  0  0
  8 31  1  0  0  0  0
  8 32  1  0  0  0  0
  8 33  1  0  0  0  0
  9 10  1  0  0  0  0
  9 34  1  0  0  0  0
  9 35  1  0  0  0  0
 10 11  1  0  0  0  0
 10 36  1  0  0  0  0
 11 12  2  0  0  0  0
 11 13  1  0  0  0  0
 13 14  1  0  0  0  0
 13 37  1  0  0  0  0
 13 38  1  0  0  0  0
 14 18  1  0  0  0  0
 14 15  1  0  0  0  0
 15 16  2  0  0  0  0
 15 39  1  0  0  0  0
 16 17  1  0  0  0  0
 17 18  2  0  0  0  0
 19 40  1  0  0  0  0
 19 41  1  0  0  0  0
M  CHG  1   6   1
M  END
> <s_m_source_file>
AV-unprocessed.smi

> <i_m_source_file_index>
2095

> <i_lp_mmshare_version>
43012

> <i_f3d_flags>
0

> <s_epik_input>
W0NIM11bQ0BASF0xW0NIMl1bQ0gyXVtDSDJdTihbQ0gyXTEpW0NASF0oW0NIM10pW0NIMl1bTkhdQyg9TylbQ0gyXW4yW2NIXW5ubjI=

> <s_epik_cmdline>
J2VwaWtfcHl0aG9uJywgJy1waCcsICc3LjAnLCAnLXRuJywgJzgnLCAnLW1hJywgJzIwMCcsICctbWV0YWxfYmluZGluZycsICctaW1hZScsICc8aW5maWxlLm1hZT4nLCAnLW9tYWUnLCAnPG91dGZpbGUubWFlPic=

> <r_lp_tautomer_probability>
1

> <r_epik_Ionization_Penalty>
0.00268321

> <r_epik_Ionization_Penalty_Charging>
0.00267875

> <r_epik_Ionization_Penalty_Neutral>
4.46125e-06

> <r_epik_State_Penalty>
0.00186642

> <r_epik_Charging_Adjusted_Penalty>
0.00454517

> <i_epik_Tot_Q>
1

> <i_epik_Tot_abs_Q>
1

> <r_epik_Metal_State_Penalty>
-0

> <b_epik_Metal_Only>
0

> <s_lp_Force_Field>
OPLS_2005

> <r_lp_Energy>
23.935

> <b_lp_Chiralities_Consistent>
1

> <s_lp_Variant>
AV-unprocessed.smi:2095-3

> <Gold.Version>
5.8.1

> <Gold.Id.Protein>
6NUR|6NUR_protein|mol2

> <Gold.PLP.Fitness>
41.8803

> <Gold.PLP.PLP>
-36.6824

> <Gold.PLP.part.hbond>
-4.0000

> <Gold.PLP.part.metal>
0.0000

> <Gold.PLP.part.buried>
-4.1788

> <Gold.PLP.part.nonpolar>
-28.7786

> <Gold.PLP.part.repulsive>
0.2529

> <Gold.PLP.ligand.clash>
0.0000

> <Gold.PLP.ligand.torsion>
0.5946

> <Gold.PLP.Chemscore.Hbond>
2.0912

> <Gold.PLP.Chemscore.CHOScore>
0.0000

> <Gold.PLP.Chemscore.Metal>
0.0000

> <Gold.Chemscore.Hbonds>
donor molecule, donor type, donor heavy atom, donor atom, acceptor molecule, acceptor atom, score
      P1  H  6896  6907       L1    16  0.41
      P1  H  7989  7998       L1    12  0.64
      P1  H 10752 10763       L1    18  1.00

> <Gold.PLP.Chemscore.Internal.Correction>
0.1136

> <Gold.Rescore>
     Score         DG    S(hbond)    S(metal)    S(lipo)     H(rot)  DE(clash)    DE(int)     intcor
     16.30     -17.19       2.34        0.00      91.24       2.64       0.09       0.80       ----

> <Gold.Chemscore.Fitness>
16.3027

> <Gold.Chemscore.DG>
-17.1941

> <Gold.Chemscore.ZeroCoef>
-5.4800

> <Gold.Chemscore.Hbond>
2.3376

> <Gold.Chemscore.Metal>
0.0000

> <Gold.Chemscore.Lipo>
91.2379

> <Gold.Chemscore.Internal_Hbond>
0.0000

> <Gold.Chemscore.DEClash>
0.0930

> <Gold.Chemscore.DEInternal>
0.7984

> <Gold.Chemscore.Rot>
2.6439

> <Gold.Chemscore.Internal.Correction>
   9.000000E+99

> <Gold.Chemscore.Hbonds>
donor molecule, donor type, donor heavy atom, donor atom, acceptor molecule, acceptor atom, score
      P1  H  6896  6907       L1    16  0.05
      P1  H  7989  7998       L1    12  0.52
      P1  H 10752 10763       L1    18  0.87

> <Gold.Chemscore.Hbond.Weighted>
-7.8077

> <Gold.Chemscore.Metal.Weighted>
-0.0000

> <Gold.Chemscore.Lipo.Weighted>
-10.6748

> <Gold.Chemscore.Internal_Hbond.Weighted>
0.0000

> <Gold.Chemscore.DEClash.Weighted>
0.0930

> <Gold.Chemscore.DEInternal.Weighted>
0.7984

> <Gold.Chemscore.Rot.Weighted>
6.7685

> <Gold.Chemscore.Internal.Correction.Weighted>
   9.000000E+99

> <Gold.Protein.RotatedTorsions>
[ 6907 6896 6895 6894 ] final  -78.97 input  -60.11 | X-H torsion
[ 7974 7965 7964 7962 ] final  -86.81 input  175.53 | X-H torsion
[ 8008 7997 7996 7995 ] final   20.78 input   59.86 | X-H torsion
[ 10167 10162 10161 10158 ] final   19.82 input  -65.29 | X-H torsion
[ 10718 10713 10712 10709 ] final  148.10 input   66.30 | X-H torsion
[ 10763 10752 10751 10750 ] final   91.77 input  -60.55 | X-H torsion
[ 11005 11000 10999 10996 ] final   99.55 input  -57.11 | X-H torsion

> <Gold.Protein.ActiveResidues>
 VAL166  LYS551  ARG553  GLY616  TRP617  ASP618  TYR619  PRO620  LYS621  CYS622 
 ASP623  PHE694  ASN695  SER759  ASP760  ASP761  ALA762  ILE779  LEU786  VAL792 
 PHE793  MET794  SER795  GLU796  ALA797  LYS798  CYS799  TRP800  GLU811  SER814 

> <Gold.Protein.RotatedAtoms>
  150.6960  134.4192  159.5197 H   0  0  0  0  0  0  0  0  0  0  0  0  # atno 6907 bound_to 6896
  152.1938  134.8646  160.0524 H   0  0  0  0  0  0  0  0  0  0  0  0  # atno 6908 bound_to 6896
  151.9591  133.3655  159.4065 H   0  0  0  0  0  0  0  0  0  0  0  0  # atno 6909 bound_to 6896
  145.4749  140.9559  143.1896 H   0  0  0  0  0  0  0  0  0  0  0  0  # atno 7974 bound_to 7965
  154.9407  140.3052  155.5122 H   0  0  0  0  0  0  0  0  0  0  0  0  # atno 8008 bound_to 7997
  156.2996  140.2337  156.4413 H   0  0  0  0  0  0  0  0  0  0  0  0  # atno 8009 bound_to 7997
  154.8148  140.0426  157.1357 H   0  0  0  0  0  0  0  0  0  0  0  0  # atno 8010 bound_to 7997
  140.5550  143.9440  150.6603 H   0  0  0  0  0  0  0  0  0  0  0  0  # atno 10167 bound_to 10162
  157.3128  131.0891  151.1302 H   0  0  0  0  0  0  0  0  0  0  0  0  # atno 10718 bound_to 10713
  153.2119  135.4385  155.0389 H   0  0  0  0  0  0  0  0  0  0  0  0  # atno 10763 bound_to 10752
  154.8204  135.3335  154.7056 H   0  0  0  0  0  0  0  0  0  0  0  0  # atno 10764 bound_to 10752
  153.7493  135.6999  153.5005 H   0  0  0  0  0  0  0  0  0  0  0  0  # atno 10765 bound_to 10752
  139.8771  134.9101  156.4623 H   0  0  0  0  0  0  0  0  0  0  0  0  # atno 11005 bound_to 11000
  144.7923  139.6303  143.7108 LP  0  0  0  0  0  0  0  0  0  0  0  0  # atno 17320 bound_to 7965
  146.2375  139.5934  142.9514 LP  0  0  0  0  0  0  0  0  0  0  0  0  # atno 17321 bound_to 7965
  140.2876  143.3346  152.1093 LP  0  0  0  0  0  0  0  0  0  0  0  0  # atno 17342 bound_to 10162
  139.5044  144.6775  151.6093 LP  0  0  0  0  0  0  0  0  0  0  0  0  # atno 17343 bound_to 10162
  157.2617  130.6662  149.5978 LP  0  0  0  0  0  0  0  0  0  0  0  0  # atno 17370 bound_to 10713
  155.9679  130.4506  150.5705 LP  0  0  0  0  0  0  0  0  0  0  0  0  # atno 17371 bound_to 10713
  140.8855  133.7886  155.9513 LP  0  0  0  0  0  0  0  0  0  0  0  0  # atno 17394 bound_to 11000
  140.8809  134.2612  157.5144 LP  0  0  0  0  0  0  0  0  0  0  0  0  # atno 17395 bound_to 11000

$$$$
