AV-unprocessed.smi:3337|AV-procd|sdf|12864|dock1
  -GOLD-   2272019263D 1   1.00000     0.00000
 Structure written by MMmdl.
 46 47  0  0  0  0  0  0  0  0  2 V2000
  146.1029  137.4440  152.2681 C   0  0  0  0  0  0  0  0  0  0  0  0
  145.2770  136.3182  152.9150 C   0  0  1  0  0  0  0  0  0  0  0  0
  144.4376  135.5269  151.8950 C   0  0  0  0  0  0  0  0  0  0  0  0
  145.3119  134.5890  151.0436 C   0  0  2  0  0  0  0  0  0  0  0  0
  144.4592  133.7544  150.0778 C   0  0  0  0  0  0  0  0  0  0  0  0
  146.1741  133.6910  151.9519 C   0  0  0  0  0  0  0  0  0  0  0  0
  146.9979  134.4963  152.8904 N   0  3  2  0  0  0  0  0  0  0  0  0
  147.9477  133.6562  153.6620 C   0  0  0  0  0  0  0  0  0  0  0  0
  148.6403  134.4364  154.7969 C   0  0  0  0  0  0  0  0  0  0  0  0
  149.3225  135.6219  154.2911 N   0  0  0  0  0  0  0  0  0  0  0  0
  149.8018  136.6154  155.0565 C   0  0  0  0  0  0  0  0  0  0  0  0
  149.7125  136.6157  156.2849 O   0  0  0  0  0  0  0  0  0  0  0  0
  150.4830  137.7800  154.3218 C   0  0  2  0  0  0  0  0  0  0  0  0
  152.0097  137.7946  154.5393 C   0  0  0  0  0  0  0  0  0  0  0  0
  149.8586  139.0434  154.6946 N   0  0  0  0  0  0  0  0  0  0  0  0
  148.5839  139.4291  154.6043 C   0  0  0  0  0  0  0  0  0  0  0  0
  148.3524  140.6430  155.0837 N   0  0  0  0  0  0  0  0  0  0  0  0
  149.6137  140.9705  155.4933 C   0  0  0  0  0  0  0  0  0  0  0  0
  150.5507  140.0436  155.2955 N   0  0  0  0  0  0  0  0  0  0  0  0
  146.1494  135.3626  153.7526 C   0  0  0  0  0  0  0  0  0  0  0  0
  146.8565  137.0573  151.5821 H   0  0  0  0  0  0  0  0  0  0  0  0
  146.6213  138.0317  153.0260 H   0  0  0  0  0  0  0  0  0  0  0  0
  145.4631  138.1262  151.7077 H   0  0  0  0  0  0  0  0  0  0  0  0
  144.5797  136.8051  153.5980 H   0  0  0  0  0  0  0  0  0  0  0  0
  143.6938  134.9356  152.4309 H   0  0  0  0  0  0  0  0  0  0  0  0
  143.8781  136.2110  151.2558 H   0  0  0  0  0  0  0  0  0  0  0  0
  145.9816  135.1989  150.4363 H   0  0  0  0  0  0  0  0  0  0  0  0
  143.7708  133.1023  150.6165 H   0  0  0  0  0  0  0  0  0  0  0  0
  145.0847  133.1260  149.4432 H   0  0  0  0  0  0  0  0  0  0  0  0
  143.8672  134.3953  149.4238 H   0  0  0  0  0  0  0  0  0  0  0  0
  145.5439  133.0051  152.5205 H   0  0  0  0  0  0  0  0  0  0  0  0
  146.8268  133.0781  151.3288 H   0  0  0  0  0  0  0  0  0  0  0  0
  147.4246  132.7788  154.0453 H   0  0  0  0  0  0  0  0  0  0  0  0
  148.7240  133.2815  152.9931 H   0  0  0  0  0  0  0  0  0  0  0  0
  147.9014  134.7574  155.5317 H   0  0  0  0  0  0  0  0  0  0  0  0
  149.3596  133.8164  155.3323 H   0  0  0  0  0  0  0  0  0  0  0  0
  149.4331  135.6963  153.2901 H   0  0  0  0  0  0  0  0  0  0  0  0
  150.3124  137.6443  153.2522 H   0  0  0  0  0  0  0  0  0  0  0  0
  152.4625  136.8611  154.2038 H   0  0  0  0  0  0  0  0  0  0  0  0
  152.2754  137.9308  155.5884 H   0  0  0  0  0  0  0  0  0  0  0  0
  152.4741  138.6033  153.9744 H   0  0  0  0  0  0  0  0  0  0  0  0
  147.8077  138.8080  154.1814 H   0  0  0  0  0  0  0  0  0  0  0  0
  149.8467  141.9176  155.9572 H   0  0  0  0  0  0  0  0  0  0  0  0
  146.7622  135.9466  154.4381 H   0  0  0  0  0  0  0  0  0  0  0  0
  145.5120  134.7303  154.3729 H   0  0  0  0  0  0  0  0  0  0  0  0
  147.5590  135.1097  152.3166 H   0  0  0  0  0  0  0  0  0  0  0  0
  1  2  1  0  0  0  0
  1 21  1  0  0  0  0
  1 22  1  0  0  0  0
  1 23  1  0  0  0  0
  2 20  1  0  0  0  0
  2  3  1  0  0  0  0
  2 24  1  0  0  0  0
  3  4  1  0  0  0  0
  3 25  1  0  0  0  0
  3 26  1  0  0  0  0
  4  5  1  0  0  0  0
  4  6  1  0  0  0  0
  4 27  1  0  0  0  0
  5 28  1  0  0  0  0
  5 29  1  0  0  0  0
  5 30  1  0  0  0  0
  6  7  1  0  0  0  0
  6 31  1  0  0  0  0
  6 32  1  0  0  0  0
  7  8  1  0  0  0  0
  7 20  1  0  0  0  0
  7 46  1  0  0  0  0
  8  9  1  0  0  0  0
  8 33  1  0  0  0  0
  8 34  1  0  0  0  0
  9 10  1  0  0  0  0
  9 35  1  0  0  0  0
  9 36  1  0  0  0  0
 10 11  1  0  0  0  0
 10 37  1  0  0  0  0
 11 12  2  0  0  0  0
 11 13  1  0  0  0  0
 13 14  1  0  0  0  0
 13 15  1  0  0  0  0
 13 38  1  0  0  0  0
 14 39  1  0  0  0  0
 14 40  1  0  0  0  0
 14 41  1  0  0  0  0
 15 19  1  0  0  0  0
 15 16  1  0  0  0  0
 16 17  2  0  0  0  0
 16 42  1  0  0  0  0
 17 18  1  0  0  0  0
 18 19  2  0  0  0  0
 18 43  1  0  0  0  0
 20 44  1  0  0  0  0
 20 45  1  0  0  0  0
M  CHG  1   7   1
M  END
> <s_m_source_file>
AV-unprocessed.smi

> <i_m_source_file_index>
3337

> <i_lp_mmshare_version>
43012

> <i_f3d_flags>
0

> <s_epik_input>
W0NIM11bQ0BASF0xW0NIMl1bQ0BASF0oW0NIM10pW0NIMl1OKFtDSDJdMSlbQ0gyXVtDSDJdW05IXUMoPU8pW0NASF0oW0NIM10pbjJbY0hdbltjSF1uMg==

> <s_epik_cmdline>
J2VwaWtfcHl0aG9uJywgJy1waCcsICc3LjAnLCAnLXRuJywgJzgnLCAnLW1hJywgJzIwMCcsICctbWV0YWxfYmluZGluZycsICctaW1hZScsICc8aW5maWxlLm1hZT4nLCAnLW9tYWUnLCAnPG91dGZpbGUubWFlPic=

> <r_lp_tautomer_probability>
1

> <r_epik_Ionization_Penalty>
0.00175613

> <r_epik_Ionization_Penalty_Charging>
0.00174812

> <r_epik_Ionization_Penalty_Neutral>
8.01354e-06

> <r_epik_State_Penalty>
0.00118332

> <r_epik_Charging_Adjusted_Penalty>
0.00293143

> <i_epik_Tot_Q>
1

> <i_epik_Tot_abs_Q>
1

> <r_epik_Metal_State_Penalty>
-0

> <b_epik_Metal_Only>
0

> <s_lp_Force_Field>
OPLS_2005

> <r_lp_Energy>
24.6468

> <b_lp_Chiralities_Consistent>
1

> <s_lp_Variant>
AV-unprocessed.smi:3337-4

> <Gold.Version>
5.8.1

> <Gold.Id.Protein>
6NUR|6NUR_protein|mol2

> <Gold.PLP.Fitness>
46.3774

> <Gold.PLP.PLP>
-31.9314

> <Gold.PLP.part.hbond>
-3.0000

> <Gold.PLP.part.metal>
0.0000

> <Gold.PLP.part.buried>
-1.5794

> <Gold.PLP.part.nonpolar>
-27.4981

> <Gold.PLP.part.repulsive>
0.2457

> <Gold.PLP.ligand.clash>
0.0000

> <Gold.PLP.ligand.torsion>
0.3249

> <Gold.PLP.Chemscore.Hbond>
3.9440

> <Gold.PLP.Chemscore.CHOScore>
1.0000

> <Gold.PLP.Chemscore.Metal>
0.0000

> <Gold.Chemscore.Hbonds>
donor molecule, donor type, donor heavy atom, donor atom, acceptor molecule, acceptor atom, score
      L1  H     7    46       P1  7948  2.00
      L1  H    10    37       P1  7948  0.90
      P1  H  7989  7998       L1    19  0.44

> <Gold.PLP.Chemscore.Internal.Correction>
0.2639

> <Gold.Rescore>
     Score         DG    S(hbond)    S(metal)    S(lipo)     H(rot)  DE(clash)    DE(int)     intcor
     14.13     -14.79       2.68        0.00      57.93       2.51       0.08       0.58       ----

> <Gold.Chemscore.Fitness>
14.1272

> <Gold.Chemscore.DG>
-14.7875

> <Gold.Chemscore.ZeroCoef>
-5.4800

> <Gold.Chemscore.Hbond>
2.6836

> <Gold.Chemscore.Metal>
0.0000

> <Gold.Chemscore.Lipo>
57.9260

> <Gold.Chemscore.Internal_Hbond>
0.0000

> <Gold.Chemscore.DEClash>
0.0847

> <Gold.Chemscore.DEInternal>
0.5755

> <Gold.Chemscore.Rot>
2.5129

> <Gold.Chemscore.Internal.Correction>
   9.000000E+99

> <Gold.Chemscore.Hbonds>
donor molecule, donor type, donor heavy atom, donor atom, acceptor molecule, acceptor atom, score
      L1  H     7    46       P1  7948  0.98
      L1  H    10    37       P1  7948  0.17
      P1  H  7989  7998       L1    19  0.03

> <Gold.Chemscore.Hbond.Weighted>
-8.9632

> <Gold.Chemscore.Metal.Weighted>
-0.0000

> <Gold.Chemscore.Lipo.Weighted>
-6.7773

> <Gold.Chemscore.Internal_Hbond.Weighted>
0.0000

> <Gold.Chemscore.DEClash.Weighted>
0.0847

> <Gold.Chemscore.DEInternal.Weighted>
0.5755

> <Gold.Chemscore.Rot.Weighted>
6.4331

> <Gold.Chemscore.Internal.Correction.Weighted>
   9.000000E+99

> <Gold.Protein.RotatedTorsions>
[ 6907 6896 6895 6894 ] final   17.78 input  -60.11 | X-H torsion
[ 7974 7965 7964 7962 ] final  121.22 input  175.53 | X-H torsion
[ 8008 7997 7996 7995 ] final   -3.39 input   59.86 | X-H torsion
[ 10167 10162 10161 10158 ] final  121.01 input  -65.29 | X-H torsion
[ 10718 10713 10712 10709 ] final  -41.97 input   66.30 | X-H torsion
[ 10763 10752 10751 10750 ] final -172.66 input  -60.55 | X-H torsion
[ 11005 11000 10999 10996 ] final -148.60 input  -57.11 | X-H torsion

> <Gold.Protein.ActiveResidues>
 VAL166  LYS551  ARG553  GLY616  TRP617  ASP618  TYR619  PRO620  LYS621  CYS622 
 ASP623  PHE694  ASN695  SER759  ASP760  ASP761  ALA762  ILE779  LEU786  VAL792 
 PHE793  MET794  SER795  GLU796  ALA797  LYS798  CYS799  TRP800  GLU811  SER814 

> <Gold.Protein.RotatedAtoms>
  151.8551  135.0544  160.0462 H   0  0  0  0  0  0  0  0  0  0  0  0  # atno 6907 bound_to 6896
  152.2707  133.5375  159.5445 H   0  0  0  0  0  0  0  0  0  0  0  0  # atno 6908 bound_to 6896
  150.7150  134.0618  159.3876 H   0  0  0  0  0  0  0  0  0  0  0  0  # atno 6909 bound_to 6896
  145.1218  139.3384  143.4710 H   0  0  0  0  0  0  0  0  0  0  0  0  # atno 7974 bound_to 7965
  154.6254  140.2510  155.7498 H   0  0  0  0  0  0  0  0  0  0  0  0  # atno 8008 bound_to 7997
  156.2450  140.2918  156.0501 H   0  0  0  0  0  0  0  0  0  0  0  0  # atno 8009 bound_to 7997
  155.1829  140.0389  157.2876 H   0  0  0  0  0  0  0  0  0  0  0  0  # atno 8010 bound_to 7997
  139.5946  144.7037  151.3207 H   0  0  0  0  0  0  0  0  0  0  0  0  # atno 10167 bound_to 10162
  156.2646  130.4200  149.8504 H   0  0  0  0  0  0  0  0  0  0  0  0  # atno 10718 bound_to 10713
  154.6167  135.2870  155.0372 H   0  0  0  0  0  0  0  0  0  0  0  0  # atno 10763 bound_to 10752
  154.1582  135.6492  153.4983 H   0  0  0  0  0  0  0  0  0  0  0  0  # atno 10764 bound_to 10752
  153.0218  135.5372  154.6941 H   0  0  0  0  0  0  0  0  0  0  0  0  # atno 10765 bound_to 10752
  140.7595  134.3314  157.5105 H   0  0  0  0  0  0  0  0  0  0  0  0  # atno 11005 bound_to 11000
  146.3520  140.1181  142.8601 LP  0  0  0  0  0  0  0  0  0  0  0  0  # atno 17320 bound_to 7965
  145.0731  140.9169  143.4870 LP  0  0  0  0  0  0  0  0  0  0  0  0  # atno 17321 bound_to 7965
  140.7201  143.7158  150.7734 LP  0  0  0  0  0  0  0  0  0  0  0  0  # atno 17342 bound_to 10162
  140.0722  143.5050  152.2574 LP  0  0  0  0  0  0  0  0  0  0  0  0  # atno 17343 bound_to 10162
  156.6007  130.8545  151.3431 LP  0  0  0  0  0  0  0  0  0  0  0  0  # atno 17370 bound_to 10713
  157.7263  130.9627  150.1650 LP  0  0  0  0  0  0  0  0  0  0  0  0  # atno 17371 bound_to 10713
  139.8773  134.9193  156.3224 LP  0  0  0  0  0  0  0  0  0  0  0  0  # atno 17394 bound_to 11000
  140.9676  133.7348  156.0489 LP  0  0  0  0  0  0  0  0  0  0  0  0  # atno 17395 bound_to 11000

$$$$
