AV-unprocessed.smi:740|AV-procd|sdf|3550|dock6
  -GOLD-   22720 0543D 1   1.00000     0.00000
 Structure written by MMmdl.
 45 47  0  0  0  0  0  0  0  0  2 V2000
  151.9427  144.9876  160.3244 C   0  0  0  0  0  0  0  0  0  0  0  0
  151.7974  143.7792  159.4152 C   0  0  0  0  0  0  0  0  0  0  0  0
  151.0683  143.9236  158.2134 C   0  0  0  0  0  0  0  0  0  0  0  0
  150.9521  142.8006  157.4030 C   0  0  0  0  0  0  0  0  0  0  0  0
  150.3052  142.6206  156.1786 N   0  3  0  0  0  0  0  0  0  0  0  0
  150.4646  141.3330  155.7657 C   0  0  0  0  0  0  0  0  0  0  0  0
  151.2069  140.6887  156.7065 N   0  0  0  0  0  0  0  0  0  0  0  0
  151.6591  139.2907  156.7423 C   0  0  0  0  0  0  0  0  0  0  0  0
  152.2239  138.8137  155.3900 C   0  0  2  0  0  0  0  0  0  0  0  0
  153.1573  139.7676  154.9217 O   0  0  0  0  0  0  0  0  0  0  0  0
  151.1100  138.6506  154.3359 C   0  0  0  0  0  0  0  0  0  0  0  0
  150.1187  137.6441  154.7331 N   0  0  0  0  0  0  0  0  0  0  0  0
  148.7944  137.8480  154.7179 C   0  0  0  0  0  0  0  0  0  0  0  0
  148.2209  138.8818  154.3756 O   0  0  0  0  0  0  0  0  0  0  0  0
  148.0460  136.6134  155.2003 C   0  0  0  0  0  0  0  0  0  0  0  0
  149.1731  135.6183  155.5160 C   0  0  1  0  0  0  0  0  0  0  0  0
  149.0844  134.3080  154.7164 C   0  0  0  0  0  0  0  0  0  0  0  0
  150.4292  136.4143  155.1668 C   0  0  0  0  0  0  0  0  0  0  0  0
  151.5642  135.9517  155.2844 O   0  0  0  0  0  0  0  0  0  0  0  0
  151.5328  141.5648  157.7490 C   0  0  0  0  0  0  0  0  0  0  0  0
  152.2534  141.4056  158.9307 C   0  0  0  0  0  0  0  0  0  0  0  0
  152.3803  142.5352  159.7703 C   0  0  0  0  0  0  0  0  0  0  0  0
  153.1553  142.3887  161.0688 C   0  0  0  0  0  0  0  0  0  0  0  0
  151.4668  145.8695  159.8949 H   0  0  0  0  0  0  0  0  0  0  0  0
  152.9951  145.2229  160.4847 H   0  0  0  0  0  0  0  0  0  0  0  0
  151.4784  144.7959  161.2920 H   0  0  0  0  0  0  0  0  0  0  0  0
  150.6186  144.8664  157.9381 H   0  0  0  0  0  0  0  0  0  0  0  0
  150.0719  140.9001  154.8568 H   0  0  0  0  0  0  0  0  0  0  0  0
  152.4345  139.2309  157.5070 H   0  0  0  0  0  0  0  0  0  0  0  0
  150.8450  138.6514  157.0845 H   0  0  0  0  0  0  0  0  0  0  0  0
  152.7413  137.8655  155.5428 H   0  0  0  0  0  0  0  0  0  0  0  0
  153.4807  139.4845  154.0801 H   0  0  0  0  0  0  0  0  0  0  0  0
  150.5902  139.6017  154.2068 H   0  0  0  0  0  0  0  0  0  0  0  0
  151.5363  138.4260  153.3564 H   0  0  0  0  0  0  0  0  0  0  0  0
  147.4541  136.8487  156.0855 H   0  0  0  0  0  0  0  0  0  0  0  0
  147.3750  136.2526  154.4197 H   0  0  0  0  0  0  0  0  0  0  0  0
  149.1874  135.3979  156.5842 H   0  0  0  0  0  0  0  0  0  0  0  0
  149.9011  133.6323  154.9730 H   0  0  0  0  0  0  0  0  0  0  0  0
  149.1266  134.4899  153.6418 H   0  0  0  0  0  0  0  0  0  0  0  0
  148.1501  133.7875  154.9280 H   0  0  0  0  0  0  0  0  0  0  0  0
  152.6950  140.4593  159.2049 H   0  0  0  0  0  0  0  0  0  0  0  0
  153.5097  141.3670  161.2091 H   0  0  0  0  0  0  0  0  0  0  0  0
  152.5258  142.6415  161.9222 H   0  0  0  0  0  0  0  0  0  0  0  0
  154.0248  143.0463  161.0720 H   0  0  0  0  0  0  0  0  0  0  0  0
  149.7903  143.3222  155.6618 H   0  0  0  0  0  0  0  0  0  0  0  0
  1  2  1  0  0  0  0
  1 24  1  0  0  0  0
  1 25  1  0  0  0  0
  1 26  1  0  0  0  0
  2 22  1  0  0  0  0
  2  3  2  0  0  0  0
  3  4  1  0  0  0  0
  3 27  1  0  0  0  0
  4 20  2  0  0  0  0
  4  5  1  0  0  0  0
  5  6  2  0  0  0  0
  5 45  1  0  0  0  0
  6  7  1  0  0  0  0
  6 28  1  0  0  0  0
  7  8  1  0  0  0  0
  7 20  1  0  0  0  0
  8  9  1  0  0  0  0
  8 29  1  0  0  0  0
  8 30  1  0  0  0  0
  9 10  1  0  0  0  0
  9 11  1  0  0  0  0
  9 31  1  0  0  0  0
 10 32  1  0  0  0  0
 11 12  1  0  0  0  0
 11 33  1  0  0  0  0
 11 34  1  0  0  0  0
 12 18  1  0  0  0  0
 12 13  1  0  0  0  0
 13 14  2  0  0  0  0
 13 15  1  0  0  0  0
 15 16  1  0  0  0  0
 15 35  1  0  0  0  0
 15 36  1  0  0  0  0
 16 17  1  0  0  0  0
 16 18  1  0  0  0  0
 16 37  1  0  0  0  0
 17 38  1  0  0  0  0
 17 39  1  0  0  0  0
 17 40  1  0  0  0  0
 18 19  2  0  0  0  0
 20 21  1  0  0  0  0
 21 22  2  0  0  0  0
 21 41  1  0  0  0  0
 22 23  1  0  0  0  0
 23 42  1  0  0  0  0
 23 43  1  0  0  0  0
 23 44  1  0  0  0  0
M  CHG  1   5   1
M  END
> <s_m_source_file>
AV-unprocessed.smi

> <i_m_source_file_index>
740

> <i_lp_mmshare_version>
43012

> <i_f3d_flags>
0

> <s_epik_input>
W0NIM11jKFtjSF0xKWMoW0NIM10pW2NIXWMoYzEyKW4oW2NIXW4yKVtDSDJdW0NASF0oW09IXSlbQ0gyXU4zQyg9TylbQ0gyXVtDQEBIXShbQ0gzXSlDMz1P

> <s_epik_cmdline>
J2VwaWtfcHl0aG9uJywgJy1waCcsICc3LjAnLCAnLXRuJywgJzgnLCAnLW1hJywgJzIwMCcsICctbWV0YWxfYmluZGluZycsICctaW1hZScsICc8aW5maWxlLm1hZT4nLCAnLW9tYWUnLCAnPG91dGZpbGUubWFlPic=

> <r_lp_tautomer_probability>
1

> <r_epik_Ionization_Penalty>
1.08202

> <r_epik_Ionization_Penalty_Charging>
1.08202

> <r_epik_Ionization_Penalty_Neutral>
1.16605e-06

> <r_epik_State_Penalty>
1.13754

> <r_epik_Charging_Adjusted_Penalty>
2.21956

> <i_epik_Tot_Q>
1

> <i_epik_Tot_abs_Q>
1

> <r_epik_Metal_State_Penalty>
5.13645

> <b_epik_Metal_Only>
0

> <s_lp_Force_Field>
OPLS_2005

> <r_lp_Energy>
22.4261

> <b_lp_Chiralities_Consistent>
1

> <s_lp_Variant>
AV-unprocessed.smi:740-5

> <Gold.Version>
5.8.1

> <Gold.Id.Protein>
6NUR|6NUR_protein|mol2

> <Gold.PLP.Fitness>
58.8764

> <Gold.PLP.PLP>
-47.5802

> <Gold.PLP.part.hbond>
-4.0000

> <Gold.PLP.part.metal>
0.0000

> <Gold.PLP.part.buried>
-5.8990

> <Gold.PLP.part.nonpolar>
-39.6434

> <Gold.PLP.part.repulsive>
0.3419

> <Gold.PLP.ligand.clash>
0.0000

> <Gold.PLP.ligand.torsion>
0.3527

> <Gold.PLP.Chemscore.Hbond>
4.0000

> <Gold.PLP.Chemscore.CHOScore>
0.0000

> <Gold.PLP.Chemscore.Metal>
0.0000

> <Gold.Chemscore.Hbonds>
donor molecule, donor type, donor heavy atom, donor atom, acceptor molecule, acceptor atom, score
      L1  H     5    45       P1  8028  1.98
      P1  H  7997  8009       L1    10  1.00
      P1  H 10752 10764       L1    19  1.00

> <Gold.PLP.Chemscore.Internal.Correction>
0.0015

> <Gold.Rescore>
     Score         DG    S(hbond)    S(metal)    S(lipo)     H(rot)  DE(clash)    DE(int)     intcor
     21.27     -21.65       2.94        0.00     106.11       2.37       0.10       0.28       ----

> <Gold.Chemscore.Fitness>
21.2712

> <Gold.Chemscore.DG>
-21.6508

> <Gold.Chemscore.ZeroCoef>
-5.4800

> <Gold.Chemscore.Hbond>
2.9431

> <Gold.Chemscore.Metal>
0.0000

> <Gold.Chemscore.Lipo>
106.1058

> <Gold.Chemscore.Internal_Hbond>
0.0000

> <Gold.Chemscore.DEClash>
0.0960

> <Gold.Chemscore.DEInternal>
0.2836

> <Gold.Chemscore.Rot>
2.3724

> <Gold.Chemscore.Internal.Correction>
   9.000000E+99

> <Gold.Chemscore.Hbonds>
donor molecule, donor type, donor heavy atom, donor atom, acceptor molecule, acceptor atom, score
      L1  H     5    45       P1  8028  0.94
      P1  H  7997  8009       L1    10  0.74
      P1  H 10752 10764       L1    19  0.98

> <Gold.Chemscore.Hbond.Weighted>
-9.8298

> <Gold.Chemscore.Metal.Weighted>
-0.0000

> <Gold.Chemscore.Lipo.Weighted>
-12.4144

> <Gold.Chemscore.Internal_Hbond.Weighted>
0.0000

> <Gold.Chemscore.DEClash.Weighted>
0.0960

> <Gold.Chemscore.DEInternal.Weighted>
0.2836

> <Gold.Chemscore.Rot.Weighted>
6.0734

> <Gold.Chemscore.Internal.Correction.Weighted>
   9.000000E+99

> <Gold.Protein.RotatedTorsions>
[ 6907 6896 6895 6894 ] final   10.51 input  -60.11 | X-H torsion
[ 7974 7965 7964 7962 ] final  136.32 input  175.53 | X-H torsion
[ 8008 7997 7996 7995 ] final -140.88 input   59.86 | X-H torsion
[ 10167 10162 10161 10158 ] final  154.89 input  -65.29 | X-H torsion
[ 10718 10713 10712 10709 ] final  148.11 input   66.30 | X-H torsion
[ 10763 10752 10751 10750 ] final  -39.39 input  -60.55 | X-H torsion
[ 11005 11000 10999 10996 ] final -134.47 input  -57.11 | X-H torsion

> <Gold.Protein.ActiveResidues>
 VAL166  LYS551  ARG553  GLY616  TRP617  ASP618  TYR619  PRO620  LYS621  CYS622 
 ASP623  PHE694  ASN695  SER759  ASP760  ASP761  ALA762  ILE779  LEU786  VAL792 
 PHE793  MET794  SER795  GLU796  ALA797  LYS798  CYS799  TRP800  GLU811  SER814 

> <Gold.Protein.RotatedAtoms>
  151.7394  135.0857  160.0312 H   0  0  0  0  0  0  0  0  0  0  0  0  # atno 6907 bound_to 6896
  152.3489  133.6152  159.5939 H   0  0  0  0  0  0  0  0  0  0  0  0  # atno 6908 bound_to 6896
  150.7527  133.9521  159.3530 H   0  0  0  0  0  0  0  0  0  0  0  0  # atno 6909 bound_to 6896
  144.9576  139.4746  143.5495 H   0  0  0  0  0  0  0  0  0  0  0  0  # atno 7974 bound_to 7965
  155.4686  140.0551  157.2982 H   0  0  0  0  0  0  0  0  0  0  0  0  # atno 8008 bound_to 7997
  154.4707  140.2039  155.9955 H   0  0  0  0  0  0  0  0  0  0  0  0  # atno 8009 bound_to 7997
  156.1052  140.3213  155.8000 H   0  0  0  0  0  0  0  0  0  0  0  0  # atno 8010 bound_to 7997
  139.4822  144.5147  151.7970 H   0  0  0  0  0  0  0  0  0  0  0  0  # atno 10167 bound_to 10162
  157.3127  131.0890  151.1304 H   0  0  0  0  0  0  0  0  0  0  0  0  # atno 10718 bound_to 10713
  153.9286  135.6774  153.4746 H   0  0  0  0  0  0  0  0  0  0  0  0  # atno 10763 bound_to 10752
  153.0991  135.4836  154.8831 H   0  0  0  0  0  0  0  0  0  0  0  0  # atno 10764 bound_to 10752
  154.7440  135.3168  154.8635 H   0  0  0  0  0  0  0  0  0  0  0  0  # atno 10765 bound_to 10752
  140.8987  134.1718  157.4476 H   0  0  0  0  0  0  0  0  0  0  0  0  # atno 11005 bound_to 11000
  146.3342  139.8705  142.8841 LP  0  0  0  0  0  0  0  0  0  0  0  0  # atno 17320 bound_to 7965
  145.2748  141.0120  143.3751 LP  0  0  0  0  0  0  0  0  0  0  0  0  # atno 17321 bound_to 7965
  140.4654  144.1662  150.5911 LP  0  0  0  0  0  0  0  0  0  0  0  0  # atno 17342 bound_to 10162
  140.4439  143.2514  151.9436 LP  0  0  0  0  0  0  0  0  0  0  0  0  # atno 17343 bound_to 10162
  157.2619  130.6663  149.5979 LP  0  0  0  0  0  0  0  0  0  0  0  0  # atno 17370 bound_to 10713
  155.9679  130.4506  150.5702 LP  0  0  0  0  0  0  0  0  0  0  0  0  # atno 17371 bound_to 10713
  139.8739  134.9889  156.5433 LP  0  0  0  0  0  0  0  0  0  0  0  0  # atno 17394 bound_to 11000
  140.8256  133.8319  155.8936 LP  0  0  0  0  0  0  0  0  0  0  0  0  # atno 17395 bound_to 11000

$$$$
