AV-unprocessed.smi:588|AV-procd|sdf|3004|dock1
  -GOLD-   2262023513D 1   1.00000     0.00000
 Structure written by MMmdl.
 50 51  0  0  0  0  0  0  0  0  1 V2000
  146.8073  139.5891  152.6502 C   0  0  0  0  0  0  0  0  0  0  0  0
  147.1061  141.0264  153.0878 C   0  0  0  0  0  0  0  0  0  0  0  0
  146.5599  141.3352  154.4917 C   0  0  0  0  0  0  0  0  0  0  0  0
  147.3680  140.7534  155.5451 N   0  0  0  0  0  0  0  0  0  0  0  0
  148.5981  141.2760  155.9549 C   0  0  0  0  0  0  0  0  0  0  0  0
  149.0655  142.4185  155.3220 N   0  0  0  0  0  0  0  0  0  0  0  0
  149.3321  140.6887  156.9465 C   0  0  0  0  0  0  0  0  0  0  0  0
  150.5545  141.2332  157.3794 N   0  0  0  0  0  0  0  0  0  0  0  0
  151.7771  140.5912  156.8732 C   0  0  0  0  0  0  0  0  0  0  0  0
  151.6322  140.1681  155.4028 C   0  0  0  0  0  0  0  0  0  0  0  0
  150.8715  138.9739  155.3423 O   0  0  0  0  0  0  0  0  0  0  0  0
  151.0164  138.3024  154.1031 C   0  0  0  0  0  0  0  0  0  0  0  0
  150.6265  142.3041  158.2145 C   0  0  0  0  0  0  0  0  0  0  0  0
  149.6167  142.8007  158.7174 O   0  0  0  0  0  0  0  0  0  0  0  0
  151.9953  142.9562  158.5328 C   0  0  0  0  0  0  0  0  0  0  0  0
  152.3130  142.8958  160.0453 C   0  0  0  0  0  0  0  0  0  0  0  0
  152.5139  144.3396  160.5198 C   0  0  0  0  0  0  0  0  0  0  0  0
  151.7856  145.1996  159.4923 C   0  0  0  0  0  0  0  0  0  0  0  0
  152.0132  144.4576  158.1765 C   0  0  0  0  0  0  0  0  0  0  0  0
  148.8309  139.4958  157.6425 C   0  0  0  0  0  0  0  0  0  0  0  0
  149.4064  138.8995  158.5518 O   0  0  0  0  0  0  0  0  0  0  0  0
  147.5877  139.0441  157.2075 N   0  0  0  0  0  0  0  0  0  0  0  0
  146.8250  139.6202  156.1978 C   0  0  0  0  0  0  0  0  0  0  0  0
  145.7279  139.1351  155.9195 O   0  0  0  0  0  0  0  0  0  0  0  0
  147.2032  138.2335  157.6706 H   0  0  0  0  0  0  0  0  0  0  0  0
  147.2039  139.3964  151.6532 H   0  0  0  0  0  0  0  0  0  0  0  0
  145.7336  139.4019  152.6234 H   0  0  0  0  0  0  0  0  0  0  0  0
  147.2573  138.8683  153.3333 H   0  0  0  0  0  0  0  0  0  0  0  0
  148.1841  141.1908  153.0690 H   0  0  0  0  0  0  0  0  0  0  0  0
  146.6765  141.7177  152.3621 H   0  0  0  0  0  0  0  0  0  0  0  0
  146.4807  142.4083  154.6748 H   0  0  0  0  0  0  0  0  0  0  0  0
  145.5473  140.9538  154.6200 H   0  0  0  0  0  0  0  0  0  0  0  0
  148.5431  142.8705  154.5849 H   0  0  0  0  0  0  0  0  0  0  0  0
  149.9657  142.8194  155.5433 H   0  0  0  0  0  0  0  0  0  0  0  0
  152.6340  141.2567  156.9914 H   0  0  0  0  0  0  0  0  0  0  0  0
  152.0093  139.7089  157.4717 H   0  0  0  0  0  0  0  0  0  0  0  0
  151.1325  140.9534  154.8334 H   0  0  0  0  0  0  0  0  0  0  0  0
  152.6118  140.0065  154.9506 H   0  0  0  0  0  0  0  0  0  0  0  0
  150.4129  137.3948  154.1048 H   0  0  0  0  0  0  0  0  0  0  0  0
  152.0543  138.0162  153.9285 H   0  0  0  0  0  0  0  0  0  0  0  0
  150.6818  138.9276  153.2743 H   0  0  0  0  0  0  0  0  0  0  0  0
  152.8017  142.4883  157.9696 H   0  0  0  0  0  0  0  0  0  0  0  0
  151.4981  142.4384  160.6094 H   0  0  0  0  0  0  0  0  0  0  0  0
  153.2012  142.2943  160.2412 H   0  0  0  0  0  0  0  0  0  0  0  0
  152.1502  144.5016  161.5348 H   0  0  0  0  0  0  0  0  0  0  0  0
  153.5773  144.5827  160.5072 H   0  0  0  0  0  0  0  0  0  0  0  0
  150.7199  145.2324  159.7229 H   0  0  0  0  0  0  0  0  0  0  0  0
  152.1539  146.2255  159.4656 H   0  0  0  0  0  0  0  0  0  0  0  0
  152.9931  144.7215  157.7763 H   0  0  0  0  0  0  0  0  0  0  0  0
  151.2793  144.7374  157.4191 H   0  0  0  0  0  0  0  0  0  0  0  0
  1  2  1  0  0  0  0
  1 26  1  0  0  0  0
  1 27  1  0  0  0  0
  1 28  1  0  0  0  0
  2  3  1  0  0  0  0
  2 29  1  0  0  0  0
  2 30  1  0  0  0  0
  3  4  1  0  0  0  0
  3 31  1  0  0  0  0
  3 32  1  0  0  0  0
  4 23  1  0  0  0  0
  4  5  1  0  0  0  0
  5  6  1  0  0  0  0
  5  7  2  0  0  0  0
  6 33  1  0  0  0  0
  6 34  1  0  0  0  0
  7  8  1  0  0  0  0
  7 20  1  0  0  0  0
  8  9  1  0  0  0  0
  8 13  1  0  0  0  0
  9 10  1  0  0  0  0
  9 35  1  0  0  0  0
  9 36  1  0  0  0  0
 10 11  1  0  0  0  0
 10 37  1  0  0  0  0
 10 38  1  0  0  0  0
 11 12  1  0  0  0  0
 12 39  1  0  0  0  0
 12 40  1  0  0  0  0
 12 41  1  0  0  0  0
 13 14  2  0  0  0  0
 13 15  1  0  0  0  0
 15 19  1  0  0  0  0
 15 16  1  0  0  0  0
 15 42  1  0  0  0  0
 16 17  1  0  0  0  0
 16 43  1  0  0  0  0
 16 44  1  0  0  0  0
 17 18  1  0  0  0  0
 17 45  1  0  0  0  0
 17 46  1  0  0  0  0
 18 19  1  0  0  0  0
 18 47  1  0  0  0  0
 18 48  1  0  0  0  0
 19 49  1  0  0  0  0
 19 50  1  0  0  0  0
 20 21  2  0  0  0  0
 20 22  1  0  0  0  0
 22 25  1  0  0  0  0
 22 23  1  0  0  0  0
 23 24  2  0  0  0  0
M  END
> <s_m_source_file>
AV-unprocessed.smi

> <i_m_source_file_index>
588

> <i_lp_mmshare_version>
43012

> <i_f3d_flags>
0

> <s_epik_input>
W0NIM11bQ0gyXVtDSDJdbjFjKFtOSDJdKWMoYyg9TylbbkhdYzE9TylOKFtDSDJdW0NIMl1PW0NIM10pQyg9TylbQ0hdMltDSDJdW0NIMl1bQ0gyXVtDSDJdMg==

> <s_epik_cmdline>
J2VwaWtfcHl0aG9uJywgJy1waCcsICc3LjAnLCAnLXRuJywgJzgnLCAnLW1hJywgJzIwMCcsICctbWV0YWxfYmluZGluZycsICctaW1hZScsICc8aW5maWxlLm1hZT4nLCAnLW9tYWUnLCAnPG91dGZpbGUubWFlPic=

> <r_lp_tautomer_probability>
1

> <r_epik_Ionization_Penalty>
2.06963e-05

> <r_epik_Ionization_Penalty_Charging>
5.41733e-06

> <r_epik_Ionization_Penalty_Neutral>
1.52789e-05

> <r_epik_State_Penalty>
-0

> <r_epik_Charging_Adjusted_Penalty>
5.41733e-06

> <i_epik_Tot_Q>
0

> <i_epik_Tot_abs_Q>
0

> <r_epik_Metal_State_Penalty>
-0

> <b_epik_Metal_Only>
0

> <s_epik_Chemistry_Notes>
This compound has an imine and may undergo hydrolysis.

> <s_lp_Force_Field>
OPLS_2005

> <r_lp_Energy>
42.8074

> <b_lp_Chiralities_Consistent>
1

> <s_lp_Variant>
AV-unprocessed.smi:588-1

> <Gold.Version>
5.8.1

> <Gold.Id.Protein>
6NUR|6NUR_protein|mol2

> <Gold.PLP.Fitness>
40.1260

> <Gold.PLP.PLP>
-41.9714

> <Gold.PLP.part.hbond>
-1.2460

> <Gold.PLP.part.metal>
0.0000

> <Gold.PLP.part.buried>
-5.1579

> <Gold.PLP.part.nonpolar>
-35.3361

> <Gold.PLP.part.repulsive>
0.4419

> <Gold.PLP.ligand.clash>
0.0000

> <Gold.PLP.ligand.torsion>
2.1906

> <Gold.PLP.Chemscore.Hbond>
0.0000

> <Gold.PLP.Chemscore.CHOScore>
0.0000

> <Gold.PLP.Chemscore.Metal>
0.0000

> <Gold.PLP.Chemscore.Internal.Correction>
2.5357

> <Gold.Rescore>
     Score         DG    S(hbond)    S(metal)    S(lipo)     H(rot)  DE(clash)    DE(int)     intcor
     10.42     -12.76       0.01        0.00     107.07       2.07       0.18       2.16       ----

> <Gold.Chemscore.Fitness>
10.4153

> <Gold.Chemscore.DG>
-12.7558

> <Gold.Chemscore.ZeroCoef>
-5.4800

> <Gold.Chemscore.Hbond>
0.0116

> <Gold.Chemscore.Metal>
0.0000

> <Gold.Chemscore.Lipo>
107.0738

> <Gold.Chemscore.Internal_Hbond>
0.0000

> <Gold.Chemscore.DEClash>
0.1840

> <Gold.Chemscore.DEInternal>
2.1565

> <Gold.Chemscore.Rot>
2.0666

> <Gold.Chemscore.Internal.Correction>
   9.000000E+99

> <Gold.Chemscore.Hbond.Weighted>
-0.0387

> <Gold.Chemscore.Metal.Weighted>
-0.0000

> <Gold.Chemscore.Lipo.Weighted>
-12.5276

> <Gold.Chemscore.Internal_Hbond.Weighted>
0.0000

> <Gold.Chemscore.DEClash.Weighted>
0.1840

> <Gold.Chemscore.DEInternal.Weighted>
2.1565

> <Gold.Chemscore.Rot.Weighted>
5.2905

> <Gold.Chemscore.Internal.Correction.Weighted>
   9.000000E+99

> <Gold.Protein.RotatedTorsions>
[ 6907 6896 6895 6894 ] final   16.06 input  -60.11 | X-H torsion
[ 7974 7965 7964 7962 ] final  178.21 input  175.53 | X-H torsion
[ 8008 7997 7996 7995 ] final   82.85 input   59.86 | X-H torsion
[ 10167 10162 10161 10158 ] final   96.98 input  -65.29 | X-H torsion
[ 10718 10713 10712 10709 ] final    7.12 input   66.30 | X-H torsion
[ 10763 10752 10751 10750 ] final   90.24 input  -60.55 | X-H torsion
[ 11005 11000 10999 10996 ] final   73.20 input  -57.11 | X-H torsion

> <Gold.Protein.ActiveResidues>
 VAL166  LYS551  ARG553  GLY616  TRP617  ASP618  TYR619  PRO620  LYS621  CYS622 
 ASP623  PHE694  ASN695  SER759  ASP760  ASP761  ALA762  ILE779  LEU786  VAL792 
 PHE793  MET794  SER795  GLU796  ALA797  LYS798  CYS799  TRP800  GLU811  SER814 

> <Gold.Protein.RotatedAtoms>
  151.8280  135.0630  160.0433 H   0  0  0  0  0  0  0  0  0  0  0  0  # atno 6907 bound_to 6896
  152.2902  133.5549  159.5561 H   0  0  0  0  0  0  0  0  0  0  0  0  # atno 6908 bound_to 6896
  150.7226  134.0356  159.3790 H   0  0  0  0  0  0  0  0  0  0  0  0  # atno 6909 bound_to 6896
  144.7159  140.0363  143.6438 H   0  0  0  0  0  0  0  0  0  0  0  0  # atno 7974 bound_to 7965
  155.9161  140.3424  155.6136 H   0  0  0  0  0  0  0  0  0  0  0  0  # atno 8008 bound_to 7997
  155.7329  140.0798  157.2299 H   0  0  0  0  0  0  0  0  0  0  0  0  # atno 8009 bound_to 7997
  154.4063  140.1585  156.2516 H   0  0  0  0  0  0  0  0  0  0  0  0  # atno 8010 bound_to 7997
  139.7843  144.6876  150.9979 H   0  0  0  0  0  0  0  0  0  0  0  0  # atno 10167 bound_to 10162
  156.9322  130.5830  149.5650 H   0  0  0  0  0  0  0  0  0  0  0  0  # atno 10718 bound_to 10713
  153.1954  135.4441  155.0201 H   0  0  0  0  0  0  0  0  0  0  0  0  # atno 10763 bound_to 10752
  154.8116  135.3297  154.7293 H   0  0  0  0  0  0  0  0  0  0  0  0  # atno 10764 bound_to 10752
  153.7743  135.6982  153.4956 H   0  0  0  0  0  0  0  0  0  0  0  0  # atno 10765 bound_to 10752
  139.9452  134.7326  156.0998 H   0  0  0  0  0  0  0  0  0  0  0  0  # atno 11005 bound_to 11000
  146.0061  139.3131  143.0898 LP  0  0  0  0  0  0  0  0  0  0  0  0  # atno 17320 bound_to 7965
  145.8737  140.9405  143.0637 LP  0  0  0  0  0  0  0  0  0  0  0  0  # atno 17321 bound_to 7965
  140.7819  143.4449  151.0497 LP  0  0  0  0  0  0  0  0  0  0  0  0  # atno 17342 bound_to 10162
  139.8128  143.7927  152.3172 LP  0  0  0  0  0  0  0  0  0  0  0  0  # atno 17343 bound_to 10162
  156.0442  130.5521  150.8842 LP  0  0  0  0  0  0  0  0  0  0  0  0  # atno 17370 bound_to 10713
  157.5840  131.0946  150.9226 LP  0  0  0  0  0  0  0  0  0  0  0  0  # atno 17371 bound_to 10713
  141.1100  133.6646  156.2955 LP  0  0  0  0  0  0  0  0  0  0  0  0  # atno 17394 bound_to 11000
  140.5853  134.5705  157.5488 LP  0  0  0  0  0  0  0  0  0  0  0  0  # atno 17395 bound_to 11000

$$$$
