AV-unprocessed.smi:3000|AV-procd|sdf|11429|dock4
  -GOLD-   2272016353D 1   1.00000     0.00000
 Structure written by MMmdl.
 44 45  0  0  0  0  0  0  0  0  1 V2000
  150.1410  141.8735  155.9351 C   0  0  0  0  0  0  0  0  0  0  0  0
  150.0005  140.6083  155.2467 N   0  0  0  0  0  0  0  0  0  0  0  0
  148.8417  139.9775  154.8403 C   0  0  0  0  0  0  0  0  0  0  0  0
  149.2401  138.8222  154.2378 C   0  0  0  0  0  0  0  0  0  0  0  0
  148.3648  137.8644  153.6679 N   0  0  0  0  0  0  0  0  0  0  0  0
  147.0868  137.6281  154.0046 C   0  0  0  0  0  0  0  0  0  0  0  0
  146.4686  138.2289  154.8826 O   0  0  0  0  0  0  0  0  0  0  0  0
  146.5666  136.6458  153.2499 N   0  0  0  0  0  0  0  0  0  0  0  0
  145.2093  136.0786  153.2754 C   0  0  1  0  0  0  0  0  0  0  0  0
  144.8710  135.5942  154.7088 C   0  0  0  0  0  0  0  0  0  0  0  0
  144.1853  137.1801  152.8708 C   0  0  0  0  0  0  0  0  0  0  0  0
  144.7261  138.1036  151.9473 O   0  0  0  0  0  0  0  0  0  0  0  0
  145.1872  134.8717  152.2707 C   0  0  0  0  0  0  0  0  0  0  0  0
  143.7788  134.2438  152.0842 C   0  0  0  0  0  0  0  0  0  0  0  0
  143.7810  133.1012  151.0560 C   0  0  0  0  0  0  0  0  0  0  0  0
  144.7888  132.0099  151.4370 C   0  0  0  0  0  0  0  0  0  0  0  0
  146.1920  132.6051  151.6047 C   0  0  0  0  0  0  0  0  0  0  0  0
  146.1959  133.7474  152.6328 C   0  0  0  0  0  0  0  0  0  0  0  0
  150.6617  138.8146  154.3137 C   0  0  0  0  0  0  0  0  0  0  0  0
  151.1106  139.9008  154.9252 N   0  0  0  0  0  0  0  0  0  0  0  0
  149.1660  142.2258  156.2731 H   0  0  0  0  0  0  0  0  0  0  0  0
  150.5715  142.6134  155.2599 H   0  0  0  0  0  0  0  0  0  0  0  0
  150.7934  141.7555  156.8011 H   0  0  0  0  0  0  0  0  0  0  0  0
  147.8606  140.3959  155.0106 H   0  0  0  0  0  0  0  0  0  0  0  0
  148.7513  137.3016  152.9246 H   0  0  0  0  0  0  0  0  0  0  0  0
  147.1835  136.2351  152.5646 H   0  0  0  0  0  0  0  0  0  0  0  0
  143.9599  134.9955  154.7190 H   0  0  0  0  0  0  0  0  0  0  0  0
  144.7083  136.4274  155.3925 H   0  0  0  0  0  0  0  0  0  0  0  0
  145.6691  134.9897  155.1386 H   0  0  0  0  0  0  0  0  0  0  0  0
  143.2986  136.7435  152.4116 H   0  0  0  0  0  0  0  0  0  0  0  0
  143.8282  137.7290  153.7422 H   0  0  0  0  0  0  0  0  0  0  0  0
  144.6010  138.9762  152.2881 H   0  0  0  0  0  0  0  0  0  0  0  0
  145.4802  135.2558  151.2926 H   0  0  0  0  0  0  0  0  0  0  0  0
  143.4026  133.8650  153.0351 H   0  0  0  0  0  0  0  0  0  0  0  0
  143.0635  134.9924  151.7468 H   0  0  0  0  0  0  0  0  0  0  0  0
  142.7821  132.6714  150.9763 H   0  0  0  0  0  0  0  0  0  0  0  0
  144.0255  133.4977  150.0696 H   0  0  0  0  0  0  0  0  0  0  0  0
  144.4787  131.5300  152.3662 H   0  0  0  0  0  0  0  0  0  0  0  0
  144.8022  131.2313  150.6740 H   0  0  0  0  0  0  0  0  0  0  0  0
  146.8899  131.8262  151.9132 H   0  0  0  0  0  0  0  0  0  0  0  0
  146.5498  132.9774  150.6439 H   0  0  0  0  0  0  0  0  0  0  0  0
  147.2099  134.1404  152.6886 H   0  0  0  0  0  0  0  0  0  0  0  0
  145.9694  133.3394  153.6184 H   0  0  0  0  0  0  0  0  0  0  0  0
  151.3736  138.0848  153.9581 H   0  0  0  0  0  0  0  0  0  0  0  0
  1  2  1  0  0  0  0
  1 21  1  0  0  0  0
  1 22  1  0  0  0  0
  1 23  1  0  0  0  0
  2 20  1  0  0  0  0
  2  3  1  0  0  0  0
  3  4  2  0  0  0  0
  3 24  1  0  0  0  0
  4  5  1  0  0  0  0
  4 19  1  0  0  0  0
  5  6  1  0  0  0  0
  5 25  1  0  0  0  0
  6  7  2  0  0  0  0
  6  8  1  0  0  0  0
  8  9  1  0  0  0  0
  8 26  1  0  0  0  0
  9 10  1  0  0  0  0
  9 11  1  0  0  0  0
  9 13  1  0  0  0  0
 10 27  1  0  0  0  0
 10 28  1  0  0  0  0
 10 29  1  0  0  0  0
 11 12  1  0  0  0  0
 11 30  1  0  0  0  0
 11 31  1  0  0  0  0
 12 32  1  0  0  0  0
 13 18  1  0  0  0  0
 13 14  1  0  0  0  0
 13 33  1  0  0  0  0
 14 15  1  0  0  0  0
 14 34  1  0  0  0  0
 14 35  1  0  0  0  0
 15 16  1  0  0  0  0
 15 36  1  0  0  0  0
 15 37  1  0  0  0  0
 16 17  1  0  0  0  0
 16 38  1  0  0  0  0
 16 39  1  0  0  0  0
 17 18  1  0  0  0  0
 17 40  1  0  0  0  0
 17 41  1  0  0  0  0
 18 42  1  0  0  0  0
 18 43  1  0  0  0  0
 19 20  2  0  0  0  0
 19 44  1  0  0  0  0
M  END
> <s_m_source_file>
AV-unprocessed.smi

> <i_m_source_file_index>
3000

> <i_lp_mmshare_version>
43012

> <i_f3d_flags>
0

> <s_epik_input>
W0NIM11uMVtjSF1jKFtjSF1uMSlbTkhdQyg9TylbTkhdW0NAQF0oW0NIM10pKFtDSDJdW09IXSlbQ0hdMltDSDJdW0NIMl1bQ0gyXVtDSDJdW0NIMl0y

> <s_epik_cmdline>
J2VwaWtfcHl0aG9uJywgJy1waCcsICc3LjAnLCAnLXRuJywgJzgnLCAnLW1hJywgJzIwMCcsICctbWV0YWxfYmluZGluZycsICctaW1hZScsICc8aW5maWxlLm1hZT4nLCAnLW9tYWUnLCAnPG91dGZpbGUubWFlPic=

> <r_lp_tautomer_probability>
1

> <r_epik_Ionization_Penalty>
0.000189471

> <r_epik_Ionization_Penalty_Charging>
0

> <r_epik_Ionization_Penalty_Neutral>
0.000189471

> <r_epik_State_Penalty>
-0

> <r_epik_Charging_Adjusted_Penalty>
0

> <i_epik_Tot_Q>
0

> <i_epik_Tot_abs_Q>
0

> <r_epik_Metal_State_Penalty>
-0

> <b_epik_Metal_Only>
0

> <s_lp_Force_Field>
OPLS_2005

> <r_lp_Energy>
20.4121

> <b_lp_Chiralities_Consistent>
1

> <s_lp_Variant>
AV-unprocessed.smi:3000-1

> <Gold.Version>
5.8.1

> <Gold.Id.Protein>
6NUR|6NUR_protein|mol2

> <Gold.PLP.Fitness>
42.0061

> <Gold.PLP.PLP>
-31.6700

> <Gold.PLP.part.hbond>
-4.4546

> <Gold.PLP.part.metal>
0.0000

> <Gold.PLP.part.buried>
-5.1507

> <Gold.PLP.part.nonpolar>
-23.0420

> <Gold.PLP.part.repulsive>
0.1313

> <Gold.PLP.ligand.clash>
0.0000

> <Gold.PLP.ligand.torsion>
0.6988

> <Gold.PLP.Chemscore.Hbond>
3.9030

> <Gold.PLP.Chemscore.CHOScore>
0.0000

> <Gold.PLP.Chemscore.Metal>
0.0000

> <Gold.Chemscore.Hbonds>
donor molecule, donor type, donor heavy atom, donor atom, acceptor molecule, acceptor atom, score
      L1  H     5    25       P1  7948  0.94
      L1  H     8    26       P1  7948  0.93
      L1  H    12    32       P1 10175  1.00
      P1  H  7989  7998       L1    20  0.95

> <Gold.PLP.Chemscore.Internal.Correction>
0.0246

> <Gold.Rescore>
     Score         DG    S(hbond)    S(metal)    S(lipo)     H(rot)  DE(clash)    DE(int)     intcor
     16.57     -18.19       2.93        0.00      69.08       2.02       0.07       1.55       ----

> <Gold.Chemscore.Fitness>
16.5684

> <Gold.Chemscore.DG>
-18.1861

> <Gold.Chemscore.ZeroCoef>
-5.4800

> <Gold.Chemscore.Hbond>
2.9299

> <Gold.Chemscore.Metal>
0.0000

> <Gold.Chemscore.Lipo>
69.0800

> <Gold.Chemscore.Internal_Hbond>
0.0000

> <Gold.Chemscore.DEClash>
0.0682

> <Gold.Chemscore.DEInternal>
1.5496

> <Gold.Chemscore.Rot>
2.0165

> <Gold.Chemscore.Internal.Correction>
   9.000000E+99

> <Gold.Chemscore.Hbonds>
donor molecule, donor type, donor heavy atom, donor atom, acceptor molecule, acceptor atom, score
      L1  H     5    25       P1  7948  0.90
      L1  H     8    26       P1  7948  0.89
      L1  H    12    32       P1 10175  0.95
      P1  H  7989  7998       L1    20  0.06

> <Gold.Chemscore.Hbond.Weighted>
-9.7859

> <Gold.Chemscore.Metal.Weighted>
-0.0000

> <Gold.Chemscore.Lipo.Weighted>
-8.0824

> <Gold.Chemscore.Internal_Hbond.Weighted>
0.0000

> <Gold.Chemscore.DEClash.Weighted>
0.0682

> <Gold.Chemscore.DEInternal.Weighted>
1.5496

> <Gold.Chemscore.Rot.Weighted>
5.1622

> <Gold.Chemscore.Internal.Correction.Weighted>
   9.000000E+99

> <Gold.Protein.RotatedTorsions>
[ 6907 6896 6895 6894 ] final  -45.57 input  -60.11 | X-H torsion
[ 7974 7965 7964 7962 ] final -107.40 input  175.53 | X-H torsion
[ 8008 7997 7996 7995 ] final -119.49 input   59.86 | X-H torsion
[ 10167 10162 10161 10158 ] final  -92.18 input  -65.29 | X-H torsion
[ 10718 10713 10712 10709 ] final   27.77 input   66.30 | X-H torsion
[ 10763 10752 10751 10750 ] final  142.16 input  -60.55 | X-H torsion
[ 11005 11000 10999 10996 ] final   72.64 input  -57.11 | X-H torsion

> <Gold.Protein.ActiveResidues>
 VAL166  LYS551  ARG553  GLY616  TRP617  ASP618  TYR619  PRO620  LYS621  CYS622 
 ASP623  PHE694  ASN695  SER759  ASP760  ASP761  ALA762  ILE779  LEU786  VAL792 
 PHE793  MET794  SER795  GLU796  ALA797  LYS798  CYS799  TRP800  GLU811  SER814 

> <Gold.Protein.RotatedAtoms>
  150.9206  134.8623  159.7485 H   0  0  0  0  0  0  0  0  0  0  0  0  # atno 6907 bound_to 6896
  152.4990  134.4224  159.9495 H   0  0  0  0  0  0  0  0  0  0  0  0  # atno 6908 bound_to 6896
  151.4259  133.3645  159.2797 H   0  0  0  0  0  0  0  0  0  0  0  0  # atno 6909 bound_to 6896
  145.2058  140.9075  143.3343 H   0  0  0  0  0  0  0  0  0  0  0  0  # atno 7974 bound_to 7965
  155.1166  140.0398  157.2738 H   0  0  0  0  0  0  0  0  0  0  0  0  # atno 8008 bound_to 7997
  154.6645  140.2598  155.7047 H   0  0  0  0  0  0  0  0  0  0  0  0  # atno 8009 bound_to 7997
  156.2633  140.2810  156.1130 H   0  0  0  0  0  0  0  0  0  0  0  0  # atno 8010 bound_to 7997
  140.3374  143.2961  151.9873 H   0  0  0  0  0  0  0  0  0  0  0  0  # atno 10167 bound_to 10162
  157.2246  130.6995  149.6286 H   0  0  0  0  0  0  0  0  0  0  0  0  # atno 10718 bound_to 10713
  153.9512  135.2970  155.3438 H   0  0  0  0  0  0  0  0  0  0  0  0  # atno 10763 bound_to 10752
  154.7425  135.5018  153.9150 H   0  0  0  0  0  0  0  0  0  0  0  0  # atno 10764 bound_to 10752
  153.0993  135.6730  153.9812 H   0  0  0  0  0  0  0  0  0  0  0  0  # atno 10765 bound_to 10752
  139.9480  134.7277  156.0930 H   0  0  0  0  0  0  0  0  0  0  0  0  # atno 11005 bound_to 11000
  144.9903  139.3696  143.6218 LP  0  0  0  0  0  0  0  0  0  0  0  0  # atno 17320 bound_to 7965
  146.3408  139.9083  142.8784 LP  0  0  0  0  0  0  0  0  0  0  0  0  # atno 17321 bound_to 7965
  139.4846  144.6185  151.7301 LP  0  0  0  0  0  0  0  0  0  0  0  0  # atno 17342 bound_to 10162
  140.5340  144.0685  150.6064 LP  0  0  0  0  0  0  0  0  0  0  0  0  # atno 17343 bound_to 10162
  155.9679  130.4508  150.5713 LP  0  0  0  0  0  0  0  0  0  0  0  0  # atno 17370 bound_to 10713
  157.3540  131.0738  151.1690 LP  0  0  0  0  0  0  0  0  0  0  0  0  # atno 17371 bound_to 10713
  141.1136  133.6635  156.3039 LP  0  0  0  0  0  0  0  0  0  0  0  0  # atno 17394 bound_to 11000
  140.5786  134.5768  157.5474 LP  0  0  0  0  0  0  0  0  0  0  0  0  # atno 17395 bound_to 11000

$$$$
