AV-unprocessed.smi:2509|AV-procd|sdf|9867|dock6
  -GOLD-   2272013493D 1   1.00000     0.00000
 Structure written by MMmdl.
 45 46  0  0  0  0  0  0  0  0  1 V2000
  152.0359  140.8884  157.6457 C   0  0  0  0  0  0  0  0  0  0  0  0
  150.7006  141.4158  157.0694 C   0  0  0  0  0  0  0  0  0  0  0  0
  149.8143  141.7582  158.2899 C   0  0  0  0  0  0  0  0  0  0  0  0
  150.9631  142.6911  156.2474 C   0  0  0  0  0  0  0  0  0  0  0  0
  150.0258  140.3598  156.1763 C   0  0  0  0  0  0  0  0  0  0  0  0
  150.5555  140.1564  154.9633 N   0  0  0  0  0  0  0  0  0  0  0  0
  149.8991  139.3280  154.1244 C   0  0  0  0  0  0  0  0  0  0  0  0
  148.6794  138.7164  154.4772 C   0  0  0  0  0  0  0  0  0  0  0  0
  148.0513  137.8579  153.5332 N   0  0  0  0  0  0  0  0  0  0  0  0
  146.7645  137.4782  153.4542 C   0  0  0  0  0  0  0  0  0  0  0  0
  145.8656  137.8290  154.2172 O   0  0  0  0  0  0  0  0  0  0  0  0
  146.5701  136.6472  152.4205 N   0  0  0  0  0  0  0  0  0  0  0  0
  145.2930  136.0371  152.0639 C   0  0  0  0  0  0  0  0  0  0  0  0
  145.4534  134.9379  150.9922 C   0  0  1  0  0  0  0  0  0  0  0  0
  146.1734  133.6760  151.4827 C   0  0  0  0  0  0  0  0  0  0  0  0
  145.7393  132.5496  150.5311 C   0  0  0  0  0  0  0  0  0  0  0  0
  144.6025  133.1184  149.6668 C   0  0  0  0  0  0  0  0  0  0  0  0
  144.1564  134.4095  150.3591 C   0  0  1  0  0  0  0  0  0  0  0  0
  143.1890  134.0922  151.3433 O   0  0  0  0  0  0  0  0  0  0  0  0
  148.1874  139.0323  155.7671 C   0  0  0  0  0  0  0  0  0  0  0  0
  148.8553  139.8626  156.5964 N   0  0  0  0  0  0  0  0  0  0  0  0
  152.4949  141.6178  158.3141 H   0  0  0  0  0  0  0  0  0  0  0  0
  152.7649  140.6779  156.8627 H   0  0  0  0  0  0  0  0  0  0  0  0
  151.8876  139.9701  158.2152 H   0  0  0  0  0  0  0  0  0  0  0  0
  149.5888  140.8686  158.8792 H   0  0  0  0  0  0  0  0  0  0  0  0
  148.8659  142.2077  157.9938 H   0  0  0  0  0  0  0  0  0  0  0  0
  150.3070  142.4723  158.9506 H   0  0  0  0  0  0  0  0  0  0  0  0
  151.4466  143.4607  156.8496 H   0  0  0  0  0  0  0  0  0  0  0  0
  150.0335  143.1108  155.8613 H   0  0  0  0  0  0  0  0  0  0  0  0
  151.6101  142.4857  155.3939 H   0  0  0  0  0  0  0  0  0  0  0  0
  150.3516  139.1579  153.1584 H   0  0  0  0  0  0  0  0  0  0  0  0
  148.6639  137.4804  152.8251 H   0  0  0  0  0  0  0  0  0  0  0  0
  147.3635  136.4078  151.8439 H   0  0  0  0  0  0  0  0  0  0  0  0
  144.8185  135.6250  152.9559 H   0  0  0  0  0  0  0  0  0  0  0  0
  144.6298  136.8248  151.7060 H   0  0  0  0  0  0  0  0  0  0  0  0
  146.0576  135.3478  150.1808 H   0  0  0  0  0  0  0  0  0  0  0  0
  147.2560  133.8068  151.5005 H   0  0  0  0  0  0  0  0  0  0  0  0
  145.8584  133.4342  152.4987 H   0  0  0  0  0  0  0  0  0  0  0  0
  146.5679  132.2162  149.9052 H   0  0  0  0  0  0  0  0  0  0  0  0
  145.3966  131.6868  151.1030 H   0  0  0  0  0  0  0  0  0  0  0  0
  144.9974  133.3638  148.6800 H   0  0  0  0  0  0  0  0  0  0  0  0
  143.7882  132.4081  149.5180 H   0  0  0  0  0  0  0  0  0  0  0  0
  143.7242  135.1204  149.6541 H   0  0  0  0  0  0  0  0  0  0  0  0
  142.3400  134.0616  150.9293 H   0  0  0  0  0  0  0  0  0  0  0  0
  147.2625  138.6428  156.1601 H   0  0  0  0  0  0  0  0  0  0  0  0
  1  2  1  0  0  0  0
  1 22  1  0  0  0  0
  1 23  1  0  0  0  0
  1 24  1  0  0  0  0
  2  3  1  0  0  0  0
  2  4  1  0  0  0  0
  2  5  1  0  0  0  0
  3 25  1  0  0  0  0
  3 26  1  0  0  0  0
  3 27  1  0  0  0  0
  4 28  1  0  0  0  0
  4 29  1  0  0  0  0
  4 30  1  0  0  0  0
  5 21  1  0  0  0  0
  5  6  2  0  0  0  0
  6  7  1  0  0  0  0
  7  8  2  0  0  0  0
  7 31  1  0  0  0  0
  8  9  1  0  0  0  0
  8 20  1  0  0  0  0
  9 10  1  0  0  0  0
  9 32  1  0  0  0  0
 10 11  2  0  0  0  0
 10 12  1  0  0  0  0
 12 13  1  0  0  0  0
 12 33  1  0  0  0  0
 13 14  1  0  0  0  0
 13 34  1  0  0  0  0
 13 35  1  0  0  0  0
 14 18  1  0  0  0  0
 14 15  1  0  0  0  0
 14 36  1  0  0  0  0
 15 16  1  0  0  0  0
 15 37  1  0  0  0  0
 15 38  1  0  0  0  0
 16 17  1  0  0  0  0
 16 39  1  0  0  0  0
 16 40  1  0  0  0  0
 17 18  1  0  0  0  0
 17 41  1  0  0  0  0
 17 42  1  0  0  0  0
 18 19  1  0  0  0  0
 18 43  1  0  0  0  0
 19 44  1  0  0  0  0
 20 21  2  0  0  0  0
 20 45  1  0  0  0  0
M  END
> <s_m_source_file>
AV-unprocessed.smi

> <i_m_source_file_index>
2509

> <i_lp_mmshare_version>
43012

> <i_f3d_flags>
0

> <s_epik_input>
W0NIM11DKFtDSDNdKShbQ0gzXSljMW5bY0hdYyhbY0hdbjEpW05IXUMoPU8pW05IXVtDSDJdW0NAQEhdMltDSDJdW0NIMl1bQ0gyXVtDQEhdMltPSF0=

> <s_epik_cmdline>
J2VwaWtfcHl0aG9uJywgJy1waCcsICc3LjAnLCAnLXRuJywgJzgnLCAnLW1hJywgJzIwMCcsICctbWV0YWxfYmluZGluZycsICctaW1hZScsICc8aW5maWxlLm1hZT4nLCAnLW9tYWUnLCAnPG91dGZpbGUubWFlPic=

> <r_lp_tautomer_probability>
1

> <r_epik_Ionization_Penalty>
2.77586e-05

> <r_epik_Ionization_Penalty_Charging>
0

> <r_epik_Ionization_Penalty_Neutral>
2.77586e-05

> <r_epik_State_Penalty>
-0

> <r_epik_Charging_Adjusted_Penalty>
0

> <i_epik_Tot_Q>
0

> <i_epik_Tot_abs_Q>
0

> <r_epik_Metal_State_Penalty>
-0

> <b_epik_Metal_Only>
0

> <s_lp_Force_Field>
OPLS_2005

> <r_lp_Energy>
25.7942

> <b_lp_Chiralities_Consistent>
1

> <s_lp_Variant>
AV-unprocessed.smi:2509-2

> <Gold.Version>
5.8.1

> <Gold.Id.Protein>
6NUR|6NUR_protein|mol2

> <Gold.PLP.Fitness>
40.3016

> <Gold.PLP.PLP>
-27.7073

> <Gold.PLP.part.hbond>
-3.7775

> <Gold.PLP.part.metal>
0.0000

> <Gold.PLP.part.buried>
-2.4572

> <Gold.PLP.part.nonpolar>
-21.7679

> <Gold.PLP.part.repulsive>
0.2029

> <Gold.PLP.ligand.clash>
0.0000

> <Gold.PLP.ligand.torsion>
0.4606

> <Gold.PLP.Chemscore.Hbond>
3.5868

> <Gold.PLP.Chemscore.CHOScore>
0.8689

> <Gold.PLP.Chemscore.Metal>
0.0000

> <Gold.Chemscore.Hbonds>
donor molecule, donor type, donor heavy atom, donor atom, acceptor molecule, acceptor atom, score
      L1  H     9    32       P1  7948  0.94
      L1  H    12    33       P1  7948  0.90
      L1  H    19    44       P1 10186  1.00
      P1  H  7989  7998       L1     6  0.60
      L1  C     7    31       P1  7957  0.93

> <Gold.PLP.Chemscore.Internal.Correction>
0.1485

> <Gold.Rescore>
     Score         DG    S(hbond)    S(metal)    S(lipo)     H(rot)  DE(clash)    DE(int)     intcor
     15.35     -16.71       2.21        0.00      74.75       1.91       0.19       1.18       ----

> <Gold.Chemscore.Fitness>
15.3451

> <Gold.Chemscore.DG>
-16.7129

> <Gold.Chemscore.ZeroCoef>
-5.4800

> <Gold.Chemscore.Hbond>
2.2099

> <Gold.Chemscore.Metal>
0.0000

> <Gold.Chemscore.Lipo>
74.7479

> <Gold.Chemscore.Internal_Hbond>
0.0000

> <Gold.Chemscore.DEClash>
0.1911

> <Gold.Chemscore.DEInternal>
1.1768

> <Gold.Chemscore.Rot>
1.9116

> <Gold.Chemscore.Internal.Correction>
   9.000000E+99

> <Gold.Chemscore.Hbonds>
donor molecule, donor type, donor heavy atom, donor atom, acceptor molecule, acceptor atom, score
      L1  H     9    32       P1  7948  0.89
      L1  H    12    33       P1  7948  0.86
      L1  H    19    44       P1 10186  0.34
      P1  H  7989  7998       L1     6  0.04

> <Gold.Chemscore.Hbond.Weighted>
-7.3810

> <Gold.Chemscore.Metal.Weighted>
-0.0000

> <Gold.Chemscore.Lipo.Weighted>
-8.7455

> <Gold.Chemscore.Internal_Hbond.Weighted>
0.0000

> <Gold.Chemscore.DEClash.Weighted>
0.1911

> <Gold.Chemscore.DEInternal.Weighted>
1.1768

> <Gold.Chemscore.Rot.Weighted>
4.8936

> <Gold.Chemscore.Internal.Correction.Weighted>
   9.000000E+99

> <Gold.Protein.RotatedTorsions>
[ 6907 6896 6895 6894 ] final  -53.17 input  -60.11 | X-H torsion
[ 7974 7965 7964 7962 ] final  -54.37 input  175.53 | X-H torsion
[ 8008 7997 7996 7995 ] final  178.48 input   59.86 | X-H torsion
[ 10167 10162 10161 10158 ] final -172.83 input  -65.29 | X-H torsion
[ 10718 10713 10712 10709 ] final   -3.50 input   66.30 | X-H torsion
[ 10763 10752 10751 10750 ] final   60.54 input  -60.55 | X-H torsion
[ 11005 11000 10999 10996 ] final -144.76 input  -57.11 | X-H torsion

> <Gold.Protein.ActiveResidues>
 VAL166  LYS551  ARG553  GLY616  TRP617  ASP618  TYR619  PRO620  LYS621  CYS622 
 ASP623  PHE694  ASN695  SER759  ASP760  ASP761  ALA762  ILE779  LEU786  VAL792 
 PHE793  MET794  SER795  GLU796  ALA797  LYS798  CYS799  TRP800  GLU811  SER814 

> <Gold.Protein.RotatedAtoms>
  150.8451  134.7757  159.6963 H   0  0  0  0  0  0  0  0  0  0  0  0  # atno 6907 bound_to 6896
  152.4530  134.5350  159.9832 H   0  0  0  0  0  0  0  0  0  0  0  0  # atno 6908 bound_to 6896
  151.5482  133.3384  159.2984 H   0  0  0  0  0  0  0  0  0  0  0  0  # atno 6909 bound_to 6896
  145.8863  140.8106  142.9814 H   0  0  0  0  0  0  0  0  0  0  0  0  # atno 7974 bound_to 7965
  156.0541  140.1332  157.0017 H   0  0  0  0  0  0  0  0  0  0  0  0  # atno 8008 bound_to 7997
  154.4449  140.1005  156.6490 H   0  0  0  0  0  0  0  0  0  0  0  0  # atno 8009 bound_to 7997
  155.5478  140.3462  155.4464 H   0  0  0  0  0  0  0  0  0  0  0  0  # atno 8010 bound_to 7997
  139.5722  144.1615  152.1400 H   0  0  0  0  0  0  0  0  0  0  0  0  # atno 10167 bound_to 10162
  156.7751  130.5312  149.5760 H   0  0  0  0  0  0  0  0  0  0  0  0  # atno 10718 bound_to 10713
  152.9924  135.5532  154.5891 H   0  0  0  0  0  0  0  0  0  0  0  0  # atno 10763 bound_to 10752
  154.5256  135.2810  155.1227 H   0  0  0  0  0  0  0  0  0  0  0  0  # atno 10764 bound_to 10752
  154.2563  135.6389  153.5311 H   0  0  0  0  0  0  0  0  0  0  0  0  # atno 10765 bound_to 10752
  140.7991  134.2877  157.4985 H   0  0  0  0  0  0  0  0  0  0  0  0  # atno 11005 bound_to 11000
  144.6729  140.1460  143.7433 LP  0  0  0  0  0  0  0  0  0  0  0  0  # atno 17320 bound_to 7965
  145.8963  139.2404  143.1520 LP  0  0  0  0  0  0  0  0  0  0  0  0  # atno 17321 bound_to 7965
  140.1150  144.5424  150.6900 LP  0  0  0  0  0  0  0  0  0  0  0  0  # atno 17342 bound_to 10162
  140.7006  143.2432  151.4874 LP  0  0  0  0  0  0  0  0  0  0  0  0  # atno 17343 bound_to 10162
  156.1253  130.6139  151.0254 LP  0  0  0  0  0  0  0  0  0  0  0  0  # atno 17370 bound_to 10713
  157.6673  131.0869  150.7698 LP  0  0  0  0  0  0  0  0  0  0  0  0  # atno 17371 bound_to 10713
  139.8723  134.9419  156.3811 LP  0  0  0  0  0  0  0  0  0  0  0  0  # atno 17394 bound_to 11000
  140.9312  133.7578  156.0027 LP  0  0  0  0  0  0  0  0  0  0  0  0  # atno 17395 bound_to 11000

$$$$
