AV-unprocessed.smi:1179|AV-procd|sdf|4958|dock10
  -GOLD-   22720 3553D 1   1.00000     0.00000
 Structure written by MMmdl.
 47 48  0  0  0  0  0  0  0  0  2 V2000
  153.7598  140.9384  160.6486 C   0  0  0  0  0  0  0  0  0  0  0  0
  153.1360  142.1286  159.9817 C   0  0  0  0  0  0  0  0  0  0  0  0
  152.9382  143.4333  160.5136 C   0  0  0  0  0  0  0  0  0  0  0  0
  152.3363  144.1242  159.5001 C   0  0  0  0  0  0  0  0  0  0  0  0
  151.8793  145.5448  159.4418 C   0  0  0  0  0  0  0  0  0  0  0  0
  152.1995  143.2444  158.4407 N   0  0  0  0  0  0  0  0  0  0  0  0
  151.6299  143.4761  157.1221 C   0  0  0  0  0  0  0  0  0  0  0  0
  151.0312  142.1930  156.5433 C   0  0  0  0  0  0  0  0  0  0  0  0
  151.6544  141.1341  156.6150 O   0  0  0  0  0  0  0  0  0  0  0  0
  149.8204  142.2995  155.9739 N   0  0  0  0  0  0  0  0  0  0  0  0
  149.0750  141.1954  155.3831 C   0  0  0  0  0  0  0  0  0  0  0  0
  147.5657  141.3216  155.6675 C   0  0  0  0  0  0  0  0  0  0  0  0
  147.0038  142.6088  155.1872 N   0  3  2  0  0  0  0  0  0  0  0  0
  145.9121  143.1051  156.0646 C   0  0  0  0  0  0  0  0  0  0  0  0
  145.4376  144.5014  155.6284 C   0  0  0  0  0  0  0  0  0  0  0  0
  144.9824  144.5032  154.1597 C   0  0  1  0  0  0  0  0  0  0  0  0
  144.5363  145.8995  153.7036 C   0  0  0  0  0  0  0  0  0  0  0  0
  146.1162  143.9516  153.2793 C   0  0  0  0  0  0  0  0  0  0  0  0
  146.5775  142.5662  153.7627 C   0  0  0  0  0  0  0  0  0  0  0  0
  152.6939  142.0226  158.7393 N   0  0  0  0  0  0  0  0  0  0  0  0
  153.9845  141.1461  161.6949 H   0  0  0  0  0  0  0  0  0  0  0  0
  154.6922  140.6579  160.1583 H   0  0  0  0  0  0  0  0  0  0  0  0
  153.0936  140.0757  160.6187 H   0  0  0  0  0  0  0  0  0  0  0  0
  153.1990  143.8060  161.4931 H   0  0  0  0  0  0  0  0  0  0  0  0
  152.0969  146.0617  160.3765 H   0  0  0  0  0  0  0  0  0  0  0  0
  150.8044  145.6011  159.2705 H   0  0  0  0  0  0  0  0  0  0  0  0
  152.3809  146.0826  158.6375 H   0  0  0  0  0  0  0  0  0  0  0  0
  150.8601  144.2468  157.1870 H   0  0  0  0  0  0  0  0  0  0  0  0
  152.4069  143.8605  156.4603 H   0  0  0  0  0  0  0  0  0  0  0  0
  149.3823  143.2098  155.9625 H   0  0  0  0  0  0  0  0  0  0  0  0
  149.2522  141.2051  154.3075 H   0  0  0  0  0  0  0  0  0  0  0  0
  149.4786  140.2536  155.7560 H   0  0  0  0  0  0  0  0  0  0  0  0
  147.0096  140.4937  155.2250 H   0  0  0  0  0  0  0  0  0  0  0  0
  147.4214  141.2449  156.7463 H   0  0  0  0  0  0  0  0  0  0  0  0
  145.0790  142.4001  156.0450 H   0  0  0  0  0  0  0  0  0  0  0  0
  146.2612  143.1553  157.0966 H   0  0  0  0  0  0  0  0  0  0  0  0
  144.6208  144.8280  156.2733 H   0  0  0  0  0  0  0  0  0  0  0  0
  146.2463  145.2206  155.7670 H   0  0  0  0  0  0  0  0  0  0  0  0
  144.1244  143.8351  154.0686 H   0  0  0  0  0  0  0  0  0  0  0  0
  145.3538  146.6186  153.7655 H   0  0  0  0  0  0  0  0  0  0  0  0
  143.7186  146.2720  154.3214 H   0  0  0  0  0  0  0  0  0  0  0  0
  144.1866  145.8814  152.6712 H   0  0  0  0  0  0  0  0  0  0  0  0
  145.7846  143.8853  152.2425 H   0  0  0  0  0  0  0  0  0  0  0  0
  146.9622  144.6404  153.2890 H   0  0  0  0  0  0  0  0  0  0  0  0
  147.3969  142.2295  153.1291 H   0  0  0  0  0  0  0  0  0  0  0  0
  145.7709  141.8411  153.6443 H   0  0  0  0  0  0  0  0  0  0  0  0
  147.7479  143.2886  155.2531 H   0  0  0  0  0  0  0  0  0  0  0  0
  1  2  1  0  0  0  0
  1 21  1  0  0  0  0
  1 22  1  0  0  0  0
  1 23  1  0  0  0  0
  2 20  2  0  0  0  0
  2  3  1  0  0  0  0
  3  4  2  0  0  0  0
  3 24  1  0  0  0  0
  4  5  1  0  0  0  0
  4  6  1  0  0  0  0
  5 25  1  0  0  0  0
  5 26  1  0  0  0  0
  5 27  1  0  0  0  0
  6  7  1  0  0  0  0
  6 20  1  0  0  0  0
  7  8  1  0  0  0  0
  7 28  1  0  0  0  0
  7 29  1  0  0  0  0
  8  9  2  0  0  0  0
  8 10  1  0  0  0  0
 10 11  1  0  0  0  0
 10 30  1  0  0  0  0
 11 12  1  0  0  0  0
 11 31  1  0  0  0  0
 11 32  1  0  0  0  0
 12 13  1  0  0  0  0
 12 33  1  0  0  0  0
 12 34  1  0  0  0  0
 13 19  1  0  0  0  0
 13 14  1  0  0  0  0
 13 47  1  0  0  0  0
 14 15  1  0  0  0  0
 14 35  1  0  0  0  0
 14 36  1  0  0  0  0
 15 16  1  0  0  0  0
 15 37  1  0  0  0  0
 15 38  1  0  0  0  0
 16 17  1  0  0  0  0
 16 18  1  0  0  0  0
 16 39  1  0  0  0  0
 17 40  1  0  0  0  0
 17 41  1  0  0  0  0
 17 42  1  0  0  0  0
 18 19  1  0  0  0  0
 18 43  1  0  0  0  0
 18 44  1  0  0  0  0
 19 45  1  0  0  0  0
 19 46  1  0  0  0  0
M  CHG  1  13   1
M  END
> <s_m_source_file>
AV-unprocessed.smi

> <i_m_source_file_index>
1179

> <i_lp_mmshare_version>
43012

> <i_f3d_flags>
0

> <s_epik_input>
W0NIM11jMVtjSF1jKFtDSDNdKW4objEpW0NIMl1DKD1PKVtOSF1bQ0gyXVtDSDJdTjJbQ0gyXVtDSDJdW0NIXShbQ0gzXSlbQ0gyXVtDSDJdMg==

> <s_epik_cmdline>
J2VwaWtfcHl0aG9uJywgJy1waCcsICc3LjAnLCAnLXRuJywgJzgnLCAnLW1hJywgJzIwMCcsICctbWV0YWxfYmluZGluZycsICctaW1hZScsICc8aW5maWxlLm1hZT4nLCAnLW9tYWUnLCAnPG91dGZpbGUubWFlPic=

> <r_lp_tautomer_probability>
1

> <r_epik_Ionization_Penalty>
0.00206343

> <r_epik_Ionization_Penalty_Charging>
0.00187095

> <r_epik_Ionization_Penalty_Neutral>
0.000192474

> <r_epik_State_Penalty>
-0

> <r_epik_Charging_Adjusted_Penalty>
0.00187095

> <i_epik_Tot_Q>
1

> <i_epik_Tot_abs_Q>
1

> <r_epik_Metal_State_Penalty>
-0

> <b_epik_Metal_Only>
0

> <s_lp_Force_Field>
OPLS_2005

> <r_lp_Energy>
13.8345

> <b_lp_Chiralities_Consistent>
1

> <s_lp_Variant>
AV-unprocessed.smi:1179-1

> <Gold.Version>
5.8.1

> <Gold.Id.Protein>
6NUR|6NUR_protein|mol2

> <Gold.PLP.Fitness>
52.5654

> <Gold.PLP.PLP>
-45.8010

> <Gold.PLP.part.hbond>
-1.9476

> <Gold.PLP.part.metal>
0.0000

> <Gold.PLP.part.buried>
-4.1623

> <Gold.PLP.part.nonpolar>
-37.9563

> <Gold.PLP.part.repulsive>
0.1986

> <Gold.PLP.ligand.clash>
0.0000

> <Gold.PLP.ligand.torsion>
1.1010

> <Gold.PLP.Chemscore.Hbond>
2.9825

> <Gold.PLP.Chemscore.CHOScore>
0.0000

> <Gold.PLP.Chemscore.Metal>
0.0000

> <Gold.Chemscore.Hbonds>
donor molecule, donor type, donor heavy atom, donor atom, acceptor molecule, acceptor atom, score
      L1  H    10    30       P1  8028  1.00
      L1  H    13    47       P1  8028  2.00

> <Gold.PLP.Chemscore.Internal.Correction>
0.0188

> <Gold.Rescore>
     Score         DG    S(hbond)    S(metal)    S(lipo)     H(rot)  DE(clash)    DE(int)     intcor
     15.28     -18.12       1.07        0.00     113.95       1.67       0.38       2.46       ----

> <Gold.Chemscore.Fitness>
15.2778

> <Gold.Chemscore.DG>
-18.1215

> <Gold.Chemscore.ZeroCoef>
-5.4800

> <Gold.Chemscore.Hbond>
1.0698

> <Gold.Chemscore.Metal>
0.0000

> <Gold.Chemscore.Lipo>
113.9517

> <Gold.Chemscore.Internal_Hbond>
0.0000

> <Gold.Chemscore.DEClash>
0.3813

> <Gold.Chemscore.DEInternal>
2.4623

> <Gold.Chemscore.Rot>
1.6657

> <Gold.Chemscore.Internal.Correction>
   9.000000E+99

> <Gold.Chemscore.Hbonds>
donor molecule, donor type, donor heavy atom, donor atom, acceptor molecule, acceptor atom, score
      L1  H    10    30       P1  8028  0.99
      L1  H    13    47       P1  8028  0.45

> <Gold.Chemscore.Hbond.Weighted>
-3.5732

> <Gold.Chemscore.Metal.Weighted>
-0.0000

> <Gold.Chemscore.Lipo.Weighted>
-13.3324

> <Gold.Chemscore.Internal_Hbond.Weighted>
0.0000

> <Gold.Chemscore.DEClash.Weighted>
0.3813

> <Gold.Chemscore.DEInternal.Weighted>
2.4623

> <Gold.Chemscore.Rot.Weighted>
4.2641

> <Gold.Chemscore.Internal.Correction.Weighted>
   9.000000E+99

> <Gold.Protein.RotatedTorsions>
[ 6907 6896 6895 6894 ] final  132.65 input  -60.11 | X-H torsion
[ 7974 7965 7964 7962 ] final   20.95 input  175.53 | X-H torsion
[ 8008 7997 7996 7995 ] final  -48.21 input   59.86 | X-H torsion
[ 10167 10162 10161 10158 ] final -165.41 input  -65.29 | X-H torsion
[ 10718 10713 10712 10709 ] final  -65.07 input   66.30 | X-H torsion
[ 10763 10752 10751 10750 ] final -141.49 input  -60.55 | X-H torsion
[ 11005 11000 10999 10996 ] final   26.25 input  -57.11 | X-H torsion

> <Gold.Protein.ActiveResidues>
 VAL166  LYS551  ARG553  GLY616  TRP617  ASP618  TYR619  PRO620  LYS621  CYS622 
 ASP623  PHE694  ASN695  SER759  ASP760  ASP761  ALA762  ILE779  LEU786  VAL792 
 PHE793  MET794  SER795  GLU796  ALA797  LYS798  CYS799  TRP800  GLU811  SER814 

> <Gold.Protein.RotatedAtoms>
  152.3302  133.5950  159.5804 H   0  0  0  0  0  0  0  0  0  0  0  0  # atno 6907 bound_to 6896
  150.7419  133.9879  159.3606 H   0  0  0  0  0  0  0  0  0  0  0  0  # atno 6908 bound_to 6896
  151.7755  135.0776  160.0417 H   0  0  0  0  0  0  0  0  0  0  0  0  # atno 6909 bound_to 6896
  146.2091  139.8096  142.8703 H   0  0  0  0  0  0  0  0  0  0  0  0  # atno 7974 bound_to 7965
  154.4026  140.1327  156.4302 H   0  0  0  0  0  0  0  0  0  0  0  0  # atno 8008 bound_to 7997
  155.7558  140.3487  155.5153 H   0  0  0  0  0  0  0  0  0  0  0  0  # atno 8009 bound_to 7997
  155.8906  140.1002  157.1411 H   0  0  0  0  0  0  0  0  0  0  0  0  # atno 8010 bound_to 7997
  139.6184  144.0674  152.1909 H   0  0  0  0  0  0  0  0  0  0  0  0  # atno 10167 bound_to 10162
  156.0691  130.4242  150.1511 H   0  0  0  0  0  0  0  0  0  0  0  0  # atno 10718 bound_to 10713
  154.8543  135.3523  154.5876 H   0  0  0  0  0  0  0  0  0  0  0  0  # atno 10763 bound_to 10752
  153.6486  135.6995  153.5221 H   0  0  0  0  0  0  0  0  0  0  0  0  # atno 10764 bound_to 10752
  153.2912  135.4234  155.1127 H   0  0  0  0  0  0  0  0  0  0  0  0  # atno 10765 bound_to 10752
  140.3391  134.2353  155.7692 H   0  0  0  0  0  0  0  0  0  0  0  0  # atno 11005 bound_to 11000
  145.3210  141.0244  143.3500 LP  0  0  0  0  0  0  0  0  0  0  0  0  # atno 17320 bound_to 7965
  144.8867  139.4830  143.6697 LP  0  0  0  0  0  0  0  0  0  0  0  0  # atno 17321 bound_to 7965
  140.0310  144.6081  150.7488 LP  0  0  0  0  0  0  0  0  0  0  0  0  # atno 17342 bound_to 10162
  140.7366  143.2755  151.3756 LP  0  0  0  0  0  0  0  0  0  0  0  0  # atno 17343 bound_to 10162
  156.9565  130.9791  151.3488 LP  0  0  0  0  0  0  0  0  0  0  0  0  # atno 17370 bound_to 10713
  157.5751  130.8337  149.8445 LP  0  0  0  0  0  0  0  0  0  0  0  0  # atno 17371 bound_to 10713
  141.2043  133.7889  157.0292 LP  0  0  0  0  0  0  0  0  0  0  0  0  # atno 17394 bound_to 11000
  140.0796  134.9655  157.1603 LP  0  0  0  0  0  0  0  0  0  0  0  0  # atno 17395 bound_to 11000

$$$$
