AV-unprocessed.smi:385|AV-procd|sdf|2471|dock3
  -GOLD-   2262022413D 1   1.00000     0.00000
 Structure written by MMmdl.
 37 38  0  0  0  0  0  0  0  0  2 V2000
  151.0876  140.0046  155.1125 O   0  0  0  0  0  0  0  0  0  0  0  0
  150.0831  140.6425  155.4286 C   0  0  0  0  0  0  0  0  0  0  0  0
  149.9219  141.2129  156.6320 N   0  0  0  0  0  0  0  0  0  0  0  0
  150.9086  141.2029  157.7080 C   0  0  0  0  0  0  0  0  0  0  0  0
  151.5152  142.5944  157.9827 C   0  0  0  0  0  0  0  0  0  0  0  0
  151.8636  142.8307  159.4430 C   0  0  0  0  0  0  0  0  0  0  0  0
  152.7466  141.9646  160.1234 C   0  0  0  0  0  0  0  0  0  0  0  0
  153.0432  142.2338  161.4734 C   0  0  0  0  0  0  0  0  0  0  0  0
  152.4494  143.3530  162.0878 C   0  0  0  0  0  0  0  0  0  0  0  0
  151.5802  144.1555  161.3220 C   0  0  0  0  0  0  0  0  0  0  0  0
  151.2894  143.9064  160.0269 N   0  0  0  0  0  0  0  0  0  0  0  0
  148.9412  140.8362  154.4228 C   0  0  0  0  0  0  0  0  0  0  0  0
  147.9641  141.9358  154.8878 C   0  0  0  0  0  0  0  0  0  0  0  0
  146.7919  142.0863  153.9034 C   0  0  0  0  0  0  0  0  0  0  0  0
  146.0940  140.7954  153.7178 N   0  3  0  0  0  0  0  0  0  0  0  0
  146.9897  139.7195  153.2405 C   0  0  0  0  0  0  0  0  0  0  0  0
  148.1669  139.5190  154.2101 C   0  0  0  0  0  0  0  0  0  0  0  0
  149.0650  141.7173  156.8085 H   0  0  0  0  0  0  0  0  0  0  0  0
  150.4006  140.8485  158.6055 H   0  0  0  0  0  0  0  0  0  0  0  0
  151.6959  140.4789  157.4941 H   0  0  0  0  0  0  0  0  0  0  0  0
  152.4126  142.7291  157.3775 H   0  0  0  0  0  0  0  0  0  0  0  0
  150.8194  143.3685  157.6573 H   0  0  0  0  0  0  0  0  0  0  0  0
  153.1897  141.1159  159.6227 H   0  0  0  0  0  0  0  0  0  0  0  0
  153.7145  141.5940  162.0270 H   0  0  0  0  0  0  0  0  0  0  0  0
  152.6532  143.5910  163.1214 H   0  0  0  0  0  0  0  0  0  0  0  0
  151.1072  145.0212  161.7611 H   0  0  0  0  0  0  0  0  0  0  0  0
  149.3702  141.1416  153.4664 H   0  0  0  0  0  0  0  0  0  0  0  0
  147.5713  141.7002  155.8783 H   0  0  0  0  0  0  0  0  0  0  0  0
  148.4870  142.8886  154.9823 H   0  0  0  0  0  0  0  0  0  0  0  0
  146.0801  142.8249  154.2728 H   0  0  0  0  0  0  0  0  0  0  0  0
  147.1499  142.4442  152.9370 H   0  0  0  0  0  0  0  0  0  0  0  0
  145.6988  140.5144  154.6038 H   0  0  0  0  0  0  0  0  0  0  0  0
  146.4170  138.7971  153.1447 H   0  0  0  0  0  0  0  0  0  0  0  0
  147.3561  139.9724  152.2447 H   0  0  0  0  0  0  0  0  0  0  0  0
  148.8343  138.7494  153.8190 H   0  0  0  0  0  0  0  0  0  0  0  0
  147.7893  139.1437  155.1629 H   0  0  0  0  0  0  0  0  0  0  0  0
  145.3450  140.9196  153.0514 H   0  0  0  0  0  0  0  0  0  0  0  0
  1  2  2  0  0  0  0
  2  3  1  0  0  0  0
  2 12  1  0  0  0  0
  3  4  1  0  0  0  0
  3 18  1  0  0  0  0
  4  5  1  0  0  0  0
  4 19  1  0  0  0  0
  4 20  1  0  0  0  0
  5  6  1  0  0  0  0
  5 21  1  0  0  0  0
  5 22  1  0  0  0  0
  6 11  1  0  0  0  0
  6  7  2  0  0  0  0
  7  8  1  0  0  0  0
  7 23  1  0  0  0  0
  8  9  2  0  0  0  0
  8 24  1  0  0  0  0
  9 10  1  0  0  0  0
  9 25  1  0  0  0  0
 10 11  2  0  0  0  0
 10 26  1  0  0  0  0
 12 17  1  0  0  0  0
 12 13  1  0  0  0  0
 12 27  1  0  0  0  0
 13 14  1  0  0  0  0
 13 28  1  0  0  0  0
 13 29  1  0  0  0  0
 14 15  1  0  0  0  0
 14 30  1  0  0  0  0
 14 31  1  0  0  0  0
 15 16  1  0  0  0  0
 15 32  1  0  0  0  0
 15 37  1  0  0  0  0
 16 17  1  0  0  0  0
 16 33  1  0  0  0  0
 16 34  1  0  0  0  0
 17 35  1  0  0  0  0
 17 36  1  0  0  0  0
M  CHG  1  15   1
M  END
> <s_m_source_file>
AV-unprocessed.smi

> <i_m_source_file_index>
385

> <i_lp_mmshare_version>
43012

> <i_f3d_flags>
0

> <s_epik_input>
W0NIMl0xW0NIMl1bTkhdW0NIMl1bQ0gyXVtDSF0xQyg9TylbTkhdW0NIMl1bQ0gyXWMyW2NIXVtjSF1bY0hdW2NIXW4y

> <s_epik_cmdline>
J2VwaWtfcHl0aG9uJywgJy1waCcsICc3LjAnLCAnLXRuJywgJzgnLCAnLW1hJywgJzIwMCcsICctbWV0YWxfYmluZGluZycsICctaW1hZScsICc8aW5maWxlLm1hZT4nLCAnLW9tYWUnLCAnPG91dGZpbGUubWFlPic=

> <r_epik_Ionization_Penalty>
0.0235291

> <r_epik_Ionization_Penalty_Charging>
0.00104307

> <r_epik_Ionization_Penalty_Neutral>
0.022486

> <r_epik_State_Penalty>
0.0181452

> <r_epik_Charging_Adjusted_Penalty>
0.0191883

> <i_epik_Tot_Q>
1

> <i_epik_Tot_abs_Q>
1

> <r_epik_Metal_State_Penalty>
0.0174791

> <b_epik_Metal_Only>
0

> <s_lp_Force_Field>
OPLS_2005

> <r_lp_Energy>
12.6359

> <b_lp_Chiralities_Consistent>
1

> <s_lp_Variant>
AV-unprocessed.smi:385-1

> <Gold.Version>
5.8.1

> <Gold.Id.Protein>
6NUR|6NUR_protein|mol2

> <Gold.PLP.Fitness>
48.4018

> <Gold.PLP.PLP>
-41.5712

> <Gold.PLP.part.hbond>
-2.0000

> <Gold.PLP.part.metal>
0.0000

> <Gold.PLP.part.buried>
-3.8632

> <Gold.PLP.part.nonpolar>
-35.0566

> <Gold.PLP.part.repulsive>
0.1414

> <Gold.PLP.ligand.clash>
1.0899

> <Gold.PLP.ligand.torsion>
0.5539

> <Gold.PLP.Chemscore.Hbond>
3.0000

> <Gold.PLP.Chemscore.CHOScore>
0.0000

> <Gold.PLP.Chemscore.Metal>
0.0000

> <Gold.Chemscore.Hbonds>
donor molecule, donor type, donor heavy atom, donor atom, acceptor molecule, acceptor atom, score
      L1  H    15    37       P1 10175  2.00
      P1  H  7989  7998       L1     1  1.00

> <Gold.PLP.Chemscore.Internal.Correction>
0.0282

> <Gold.Rescore>
     Score         DG    S(hbond)    S(metal)    S(lipo)     H(rot)  DE(clash)    DE(int)     intcor
     19.37     -19.89       1.94        0.00     102.34       1.58       0.00       0.51       ----

> <Gold.Chemscore.Fitness>
19.3710

> <Gold.Chemscore.DG>
-19.8874

> <Gold.Chemscore.ZeroCoef>
-5.4800

> <Gold.Chemscore.Hbond>
1.9408

> <Gold.Chemscore.Metal>
0.0000

> <Gold.Chemscore.Lipo>
102.3357

> <Gold.Chemscore.Internal_Hbond>
0.0000

> <Gold.Chemscore.DEClash>
0.0018

> <Gold.Chemscore.DEInternal>
0.5146

> <Gold.Chemscore.Rot>
1.5813

> <Gold.Chemscore.Internal.Correction>
   9.000000E+99

> <Gold.Chemscore.Hbonds>
donor molecule, donor type, donor heavy atom, donor atom, acceptor molecule, acceptor atom, score
      L1  H    15    37       P1 10175  0.42
      P1  H  7989  7998       L1     1  0.39

> <Gold.Chemscore.Hbond.Weighted>
-6.4823

> <Gold.Chemscore.Metal.Weighted>
-0.0000

> <Gold.Chemscore.Lipo.Weighted>
-11.9733

> <Gold.Chemscore.Internal_Hbond.Weighted>
0.0000

> <Gold.Chemscore.DEClash.Weighted>
0.0018

> <Gold.Chemscore.DEInternal.Weighted>
0.5146

> <Gold.Chemscore.Rot.Weighted>
4.0481

> <Gold.Chemscore.Internal.Correction.Weighted>
   9.000000E+99

> <Gold.Protein.RotatedTorsions>
[ 6907 6896 6895 6894 ] final  112.18 input  -60.11 | X-H torsion
[ 7974 7965 7964 7962 ] final  -47.62 input  175.53 | X-H torsion
[ 8008 7997 7996 7995 ] final   79.93 input   59.86 | X-H torsion
[ 10167 10162 10161 10158 ] final -135.09 input  -65.29 | X-H torsion
[ 10718 10713 10712 10709 ] final -163.04 input   66.30 | X-H torsion
[ 10763 10752 10751 10750 ] final   24.44 input  -60.55 | X-H torsion
[ 11005 11000 10999 10996 ] final  122.28 input  -57.11 | X-H torsion

> <Gold.Protein.ActiveResidues>
 VAL166  LYS551  ARG553  GLY616  TRP617  ASP618  TYR619  PRO620  LYS621  CYS622 
 ASP623  PHE694  ASN695  SER759  ASP760  ASP761  ALA762  ILE779  LEU786  VAL792 
 PHE793  MET794  SER795  GLU796  ALA797  LYS798  CYS799  TRP800  GLU811  SER814 

> <Gold.Protein.RotatedAtoms>
  152.4930  133.8553  159.7221 H   0  0  0  0  0  0  0  0  0  0  0  0  # atno 6907 bound_to 6896
  150.9079  133.7026  159.2869 H   0  0  0  0  0  0  0  0  0  0  0  0  # atno 6908 bound_to 6896
  151.4445  135.1028  159.9732 H   0  0  0  0  0  0  0  0  0  0  0  0  # atno 6909 bound_to 6896
  145.9597  140.7491  142.9463 H   0  0  0  0  0  0  0  0  0  0  0  0  # atno 7974 bound_to 7965
  155.8766  140.3446  155.5858 H   0  0  0  0  0  0  0  0  0  0  0  0  # atno 8008 bound_to 7997
  155.7768  140.0853  157.2099 H   0  0  0  0  0  0  0  0  0  0  0  0  # atno 8009 bound_to 7997
  154.4021  140.1508  156.2993 H   0  0  0  0  0  0  0  0  0  0  0  0  # atno 8010 bound_to 7997
  139.8814  143.6834  152.2626 H   0  0  0  0  0  0  0  0  0  0  0  0  # atno 10167 bound_to 10162
  156.6190  130.8882  151.2953 H   0  0  0  0  0  0  0  0  0  0  0  0  # atno 10718 bound_to 10713
  153.0764  135.6605  154.0137 H   0  0  0  0  0  0  0  0  0  0  0  0  # atno 10763 bound_to 10752
  153.9770  135.2959  155.3424 H   0  0  0  0  0  0  0  0  0  0  0  0  # atno 10764 bound_to 10752
  154.7153  135.5188  153.8799 H   0  0  0  0  0  0  0  0  0  0  0  0  # atno 10765 bound_to 10752
  139.9262  134.9641  156.8086 H   0  0  0  0  0  0  0  0  0  0  0  0  # atno 11005 bound_to 11000
  144.6812  140.2570  143.7324 LP  0  0  0  0  0  0  0  0  0  0  0  0  # atno 17320 bound_to 7965
  145.8057  139.1982  143.2022 LP  0  0  0  0  0  0  0  0  0  0  0  0  # atno 17321 bound_to 7965
  139.7192  144.7606  151.0983 LP  0  0  0  0  0  0  0  0  0  0  0  0  # atno 17342 bound_to 10162
  140.7744  143.5229  150.9514 LP  0  0  0  0  0  0  0  0  0  0  0  0  # atno 17343 bound_to 10162
  157.7233  130.9588  150.1528 LP  0  0  0  0  0  0  0  0  0  0  0  0  # atno 17370 bound_to 10713
  156.2327  130.3683  149.8426 LP  0  0  0  0  0  0  0  0  0  0  0  0  # atno 17371 bound_to 10713
  140.6331  133.9887  155.7671 LP  0  0  0  0  0  0  0  0  0  0  0  0  # atno 17394 bound_to 11000
  141.0820  134.0047  157.3371 LP  0  0  0  0  0  0  0  0  0  0  0  0  # atno 17395 bound_to 11000

$$$$
