AV-unprocessed.smi:2428|AV-procd|sdf|9580|dock5
  -GOLD-   2272013213D 1   1.00000     0.00000
 Structure written by MMmdl.
 30 31  0  0  0  0  0  0  0  0  1 V2000
  150.2898  138.9612  154.1686 F   0  0  0  0  0  0  0  0  0  0  0  0
  149.6382  139.6766  155.0857 C   0  0  0  0  0  0  0  0  0  0  0  0
  149.1836  140.7885  154.5072 F   0  0  0  0  0  0  0  0  0  0  0  0
  148.5993  138.9674  155.5251 F   0  0  0  0  0  0  0  0  0  0  0  0
  150.5624  139.9883  156.2515 C   0  0  0  0  0  0  0  0  0  0  0  0
  150.0749  140.6646  157.3883 C   0  0  0  0  0  0  0  0  0  0  0  0
  150.9569  140.9423  158.4505 C   0  0  0  0  0  0  0  0  0  0  0  0
  152.3022  140.5335  158.3421 C   0  0  0  0  0  0  0  0  0  0  0  0
  153.1742  140.8130  159.4045 N   0  0  0  0  0  0  0  0  0  0  0  0
  152.8116  141.7673  160.4454 C   0  0  0  0  0  0  0  0  0  0  0  0
  152.8877  143.2228  159.9552 C   0  0  2  0  0  0  0  0  0  0  0  0
  152.2325  144.2194  160.9075 C   0  0  0  0  0  0  0  0  0  0  0  0
  151.9192  145.4043  160.0095 C   0  0  0  0  0  0  0  0  0  0  0  0
  151.9306  144.8111  158.5973 C   0  0  0  0  0  0  0  0  0  0  0  0
  152.1262  143.4142  158.7733 O   0  0  0  0  0  0  0  0  0  0  0  0
  152.7784  139.8933  157.2482 N   0  0  0  0  0  0  0  0  0  0  0  0
  151.9274  139.6283  156.2340 C   0  0  0  0  0  0  0  0  0  0  0  0
  149.0397  140.9671  157.4468 H   0  0  0  0  0  0  0  0  0  0  0  0
  150.6022  141.4577  159.3313 H   0  0  0  0  0  0  0  0  0  0  0  0
  154.1533  140.5946  159.2898 H   0  0  0  0  0  0  0  0  0  0  0  0
  151.8301  141.5453  160.8654 H   0  0  0  0  0  0  0  0  0  0  0  0
  153.5240  141.6302  161.2591 H   0  0  0  0  0  0  0  0  0  0  0  0
  153.9234  143.5162  159.7723 H   0  0  0  0  0  0  0  0  0  0  0  0
  151.3043  143.8052  161.3038 H   0  0  0  0  0  0  0  0  0  0  0  0
  152.8719  144.4819  161.7505 H   0  0  0  0  0  0  0  0  0  0  0  0
  150.9572  145.8517  160.2608 H   0  0  0  0  0  0  0  0  0  0  0  0
  152.6835  146.1766  160.1007 H   0  0  0  0  0  0  0  0  0  0  0  0
  151.0040  145.0041  158.0565 H   0  0  0  0  0  0  0  0  0  0  0  0
  152.7566  145.2217  158.0151 H   0  0  0  0  0  0  0  0  0  0  0  0
  152.3572  139.1162  155.3860 H   0  0  0  0  0  0  0  0  0  0  0  0
  1  2  1  0  0  0  0
  2  3  1  0  0  0  0
  2  4  1  0  0  0  0
  2  5  1  0  0  0  0
  5 17  1  0  0  0  0
  5  6  2  0  0  0  0
  6  7  1  0  0  0  0
  6 18  1  0  0  0  0
  7  8  2  0  0  0  0
  7 19  1  0  0  0  0
  8  9  1  0  0  0  0
  8 16  1  0  0  0  0
  9 10  1  0  0  0  0
  9 20  1  0  0  0  0
 10 11  1  0  0  0  0
 10 21  1  0  0  0  0
 10 22  1  0  0  0  0
 11 15  1  0  0  0  0
 11 12  1  0  0  0  0
 11 23  1  0  0  0  0
 12 13  1  0  0  0  0
 12 24  1  0  0  0  0
 12 25  1  0  0  0  0
 13 14  1  0  0  0  0
 13 26  1  0  0  0  0
 13 27  1  0  0  0  0
 14 15  1  0  0  0  0
 14 28  1  0  0  0  0
 14 29  1  0  0  0  0
 16 17  2  0  0  0  0
 17 30  1  0  0  0  0
M  END
> <s_m_source_file>
AV-unprocessed.smi

> <i_m_source_file_index>
2428

> <i_lp_mmshare_version>
43012

> <i_f3d_flags>
0

> <s_epik_input>
RkMoRikoRiljMVtjSF1bY0hdYyhuW2NIXTEpW05IXVtDSDJdW0NAQEhdMltDSDJdW0NIMl1bQ0gyXU8y

> <s_epik_cmdline>
J2VwaWtfcHl0aG9uJywgJy1waCcsICc3LjAnLCAnLXRuJywgJzgnLCAnLW1hJywgJzIwMCcsICctbWV0YWxfYmluZGluZycsICctaW1hZScsICc8aW5maWxlLm1hZT4nLCAnLW9tYWUnLCAnPG91dGZpbGUubWFlPic=

> <r_lp_tautomer_probability>
1

> <r_epik_Ionization_Penalty>
0.000819842

> <r_epik_Ionization_Penalty_Charging>
0

> <r_epik_Ionization_Penalty_Neutral>
0.000819842

> <r_epik_State_Penalty>
0.000527207

> <r_epik_Charging_Adjusted_Penalty>
0.000527207

> <i_epik_Tot_Q>
0

> <i_epik_Tot_abs_Q>
0

> <r_epik_Metal_State_Penalty>
-0

> <b_epik_Metal_Only>
0

> <s_lp_Force_Field>
OPLS_2005

> <r_lp_Energy>
19.3564

> <b_lp_Chiralities_Consistent>
1

> <s_lp_Variant>
AV-unprocessed.smi:2428-1

> <Gold.Version>
5.8.1

> <Gold.Id.Protein>
6NUR|6NUR_protein|mol2

> <Gold.PLP.Fitness>
41.2529

> <Gold.PLP.PLP>
-39.8079

> <Gold.PLP.part.hbond>
-1.0000

> <Gold.PLP.part.metal>
0.0000

> <Gold.PLP.part.buried>
-4.2416

> <Gold.PLP.part.nonpolar>
-34.1464

> <Gold.PLP.part.repulsive>
0.1120

> <Gold.PLP.ligand.clash>
1.1235

> <Gold.PLP.ligand.torsion>
0.2319

> <Gold.PLP.Chemscore.Hbond>
1.0000

> <Gold.PLP.Chemscore.CHOScore>
0.0000

> <Gold.PLP.Chemscore.Metal>
0.0000

> <Gold.Chemscore.Hbonds>
donor molecule, donor type, donor heavy atom, donor atom, acceptor molecule, acceptor atom, score
      P1  H  7997  8009       L1    16  1.00

> <Gold.PLP.Chemscore.Internal.Correction>
0.0324

> <Gold.Rescore>
     Score         DG    S(hbond)    S(metal)    S(lipo)     H(rot)  DE(clash)    DE(int)     intcor
     13.10     -15.68       0.91        0.00      88.62       1.25       0.02       2.56       ----

> <Gold.Chemscore.Fitness>
13.0981

> <Gold.Chemscore.DG>
-15.6822

> <Gold.Chemscore.ZeroCoef>
-5.4800

> <Gold.Chemscore.Hbond>
0.9092

> <Gold.Chemscore.Metal>
0.0000

> <Gold.Chemscore.Lipo>
88.6242

> <Gold.Chemscore.Internal_Hbond>
0.0000

> <Gold.Chemscore.DEClash>
0.0202

> <Gold.Chemscore.DEInternal>
2.5639

> <Gold.Chemscore.Rot>
1.2514

> <Gold.Chemscore.Internal.Correction>
   9.000000E+99

> <Gold.Chemscore.Hbonds>
donor molecule, donor type, donor heavy atom, donor atom, acceptor molecule, acceptor atom, score
      P1  H  7997  8009       L1    16  0.84

> <Gold.Chemscore.Hbond.Weighted>
-3.0368

> <Gold.Chemscore.Metal.Weighted>
-0.0000

> <Gold.Chemscore.Lipo.Weighted>
-10.3690

> <Gold.Chemscore.Internal_Hbond.Weighted>
0.0000

> <Gold.Chemscore.DEClash.Weighted>
0.0202

> <Gold.Chemscore.DEInternal.Weighted>
2.5639

> <Gold.Chemscore.Rot.Weighted>
3.2036

> <Gold.Chemscore.Internal.Correction.Weighted>
   9.000000E+99

> <Gold.Protein.RotatedTorsions>
[ 6907 6896 6895 6894 ] final   -1.91 input  -60.11 | X-H torsion
[ 7974 7965 7964 7962 ] final   41.43 input  175.53 | X-H torsion
[ 8008 7997 7996 7995 ] final  174.65 input   59.86 | X-H torsion
[ 10167 10162 10161 10158 ] final  -46.21 input  -65.29 | X-H torsion
[ 10718 10713 10712 10709 ] final  -79.14 input   66.30 | X-H torsion
[ 10763 10752 10751 10750 ] final -140.03 input  -60.55 | X-H torsion
[ 11005 11000 10999 10996 ] final  159.48 input  -57.11 | X-H torsion

> <Gold.Protein.ActiveResidues>
 VAL166  LYS551  ARG553  GLY616  TRP617  ASP618  TYR619  PRO620  LYS621  CYS622 
 ASP623  PHE694  ASN695  SER759  ASP760  ASP761  ALA762  ILE779  LEU786  VAL792 
 PHE793  MET794  SER795  GLU796  ALA797  LYS798  CYS799  TRP800  GLU811  SER814 

> <Gold.Protein.RotatedAtoms>
  151.5384  135.1068  159.9919 H   0  0  0  0  0  0  0  0  0  0  0  0  # atno 6907 bound_to 6896
  152.4547  133.7694  159.6801 H   0  0  0  0  0  0  0  0  0  0  0  0  # atno 6908 bound_to 6896
  150.8486  133.7756  159.3058 H   0  0  0  0  0  0  0  0  0  0  0  0  # atno 6909 bound_to 6896
  146.0824  139.5417  142.9528 H   0  0  0  0  0  0  0  0  0  0  0  0  # atno 7974 bound_to 7965
  156.0952  140.1429  156.9540 H   0  0  0  0  0  0  0  0  0  0  0  0  # atno 8008 bound_to 7997
  154.4667  140.0924  156.7085 H   0  0  0  0  0  0  0  0  0  0  0  0  # atno 8009 bound_to 7997
  155.4852  140.3446  155.4348 H   0  0  0  0  0  0  0  0  0  0  0  0  # atno 8010 bound_to 7997
  140.6827  143.2842  151.3750 H   0  0  0  0  0  0  0  0  0  0  0  0  # atno 10167 bound_to 10162
  156.0100  130.4537  150.3603 H   0  0  0  0  0  0  0  0  0  0  0  0  # atno 10718 bound_to 10713
  154.8591  135.3565  154.5642 H   0  0  0  0  0  0  0  0  0  0  0  0  # atno 10763 bound_to 10752
  153.6257  135.7004  153.5299 H   0  0  0  0  0  0  0  0  0  0  0  0  # atno 10764 bound_to 10752
  153.3092  135.4183  155.1280 H   0  0  0  0  0  0  0  0  0  0  0  0  # atno 10765 bound_to 10752
  140.1966  134.8369  157.2971 H   0  0  0  0  0  0  0  0  0  0  0  0  # atno 11005 bound_to 11000
  145.6193  141.0325  143.1923 LP  0  0  0  0  0  0  0  0  0  0  0  0  # atno 17320 bound_to 7965
  144.7302  139.7749  143.7350 LP  0  0  0  0  0  0  0  0  0  0  0  0  # atno 17321 bound_to 7965
  139.6161  144.1001  152.2346 LP  0  0  0  0  0  0  0  0  0  0  0  0  # atno 17342 bound_to 10162
  140.0430  144.5992  150.7396 LP  0  0  0  0  0  0  0  0  0  0  0  0  # atno 17343 bound_to 10162
  157.1692  131.0364  151.2803 LP  0  0  0  0  0  0  0  0  0  0  0  0  # atno 17370 bound_to 10713
  157.4244  130.7455  149.6939 LP  0  0  0  0  0  0  0  0  0  0  0  0  # atno 17371 bound_to 10713
  140.2101  134.4149  155.7617 LP  0  0  0  0  0  0  0  0  0  0  0  0  # atno 17394 bound_to 11000
  141.2227  133.7114  156.8324 LP  0  0  0  0  0  0  0  0  0  0  0  0  # atno 17395 bound_to 11000

$$$$
