AV-unprocessed.smi:83|AV-procd|sdf|804|dock7
  -GOLD-   2262017193D 1   1.00000     0.00000
 Structure written by MMmdl.
 56 59  0  0  0  0  0  0  0  0  1 V2000
  152.1768  145.1224  159.5172 C   0  0  0  0  0  0  0  0  0  0  0  0
  152.3899  143.6575  159.1311 C   0  0  0  0  0  0  0  0  0  0  0  0
  153.5213  143.1795  159.2088 O   0  0  0  0  0  0  0  0  0  0  0  0
  151.3272  142.9391  158.7153 N   0  0  0  0  0  0  0  0  0  0  0  0
  149.9715  143.4736  158.6169 C   0  0  0  0  0  0  0  0  0  0  0  0
  149.0998  142.2955  158.1704 C   0  0  0  0  0  0  0  0  0  0  0  0
  150.0651  141.3654  157.4361 C   0  0  1  0  0  0  0  0  0  0  0  0
  150.1740  141.7813  155.9480 C   0  0  0  0  0  0  0  0  0  0  0  0
  149.6917  140.7729  155.0025 N   0  0  0  0  0  0  0  0  0  0  0  0
  148.3318  140.9374  154.4925 C   0  0  0  0  0  0  0  0  0  0  0  0
  150.2787  139.5412  154.9235 C   0  0  0  0  0  0  0  0  0  0  0  0
  151.6218  139.4837  154.7080 N   0  0  0  0  0  0  0  0  0  0  0  0
  152.2495  138.3137  154.5718 C   0  0  0  0  0  0  0  0  0  0  0  0
  151.7370  137.0849  154.6122 N   0  0  0  0  0  0  0  0  0  0  0  0
  150.3949  137.1208  154.8433 C   0  0  0  0  0  0  0  0  0  0  0  0
  149.5934  138.2881  155.0199 C   0  0  0  0  0  0  0  0  0  0  0  0
  148.2757  137.9016  155.2493 N   0  0  0  0  0  0  0  0  0  0  0  0
  148.2927  136.6000  155.1872 C   0  0  0  0  0  0  0  0  0  0  0  0
  149.5267  136.0481  154.9440 N   0  0  0  0  0  0  0  0  0  0  0  0
  149.8316  134.6339  154.8215 C   0  0  0  0  0  0  0  0  0  0  0  0
  148.5629  133.7603  154.7758 C   0  0  2  0  0  0  0  0  0  0  0  0
  148.0921  133.5524  156.0939 O   0  0  0  0  0  0  0  0  0  0  0  0
  148.8212  132.3934  154.1157 C   0  0  1  0  0  0  0  0  0  0  0  0
  149.5695  131.3953  154.9990 C   0  0  0  0  0  0  0  0  0  0  0  0
  149.1936  130.0793  154.3576 C   0  0  0  0  0  0  0  0  0  0  0  0
  147.7430  130.3221  153.9464 C   0  0  0  0  0  0  0  0  0  0  0  0
  147.5894  131.7351  153.8339 O   0  0  0  0  0  0  0  0  0  0  0  0
  151.3542  141.5543  158.2518 C   0  0  0  0  0  0  0  0  0  0  0  0
  151.6955  145.6704  158.7072 H   0  0  0  0  0  0  0  0  0  0  0  0
  153.1301  145.6064  159.7302 H   0  0  0  0  0  0  0  0  0  0  0  0
  151.5563  145.2000  160.4094 H   0  0  0  0  0  0  0  0  0  0  0  0
  149.6286  143.8889  159.5655 H   0  0  0  0  0  0  0  0  0  0  0  0
  149.9537  144.2693  157.8708 H   0  0  0  0  0  0  0  0  0  0  0  0
  148.7041  141.7851  159.0495 H   0  0  0  0  0  0  0  0  0  0  0  0
  148.2488  142.6066  157.5635 H   0  0  0  0  0  0  0  0  0  0  0  0
  149.7218  140.3319  157.4939 H   0  0  0  0  0  0  0  0  0  0  0  0
  149.5590  142.6695  155.8000 H   0  0  0  0  0  0  0  0  0  0  0  0
  151.1771  142.1216  155.7153 H   0  0  0  0  0  0  0  0  0  0  0  0
  148.2564  140.5830  153.4638 H   0  0  0  0  0  0  0  0  0  0  0  0
  148.0357  141.9866  154.5004 H   0  0  0  0  0  0  0  0  0  0  0  0
  147.6200  140.3837  155.1059 H   0  0  0  0  0  0  0  0  0  0  0  0
  153.3140  138.3717  154.3985 H   0  0  0  0  0  0  0  0  0  0  0  0
  147.4012  136.0039  155.3170 H   0  0  0  0  0  0  0  0  0  0  0  0
  150.4199  134.4956  153.9137 H   0  0  0  0  0  0  0  0  0  0  0  0
  150.4722  134.3376  155.6530 H   0  0  0  0  0  0  0  0  0  0  0  0
  147.7843  134.2858  154.2211 H   0  0  0  0  0  0  0  0  0  0  0  0
  147.1541  133.4411  156.0633 H   0  0  0  0  0  0  0  0  0  0  0  0
  149.3596  132.5191  153.1745 H   0  0  0  0  0  0  0  0  0  0  0  0
  150.6462  131.5666  155.0191 H   0  0  0  0  0  0  0  0  0  0  0  0
  149.1970  131.4319  156.0237 H   0  0  0  0  0  0  0  0  0  0  0  0
  149.8102  129.9078  153.4745 H   0  0  0  0  0  0  0  0  0  0  0  0
  149.3106  129.2263  155.0265 H   0  0  0  0  0  0  0  0  0  0  0  0
  147.4971  129.8237  153.0084 H   0  0  0  0  0  0  0  0  0  0  0  0
  147.0571  129.9590  154.7122 H   0  0  0  0  0  0  0  0  0  0  0  0
  152.2533  141.3007  157.6960 H   0  0  0  0  0  0  0  0  0  0  0  0
  151.3353  140.9066  159.1292 H   0  0  0  0  0  0  0  0  0  0  0  0
  1  2  1  0  0  0  0
  1 29  1  0  0  0  0
  1 30  1  0  0  0  0
  1 31  1  0  0  0  0
  2  3  2  0  0  0  0
  2  4  1  0  0  0  0
  4 28  1  0  0  0  0
  4  5  1  0  0  0  0
  5  6  1  0  0  0  0
  5 32  1  0  0  0  0
  5 33  1  0  0  0  0
  6  7  1  0  0  0  0
  6 34  1  0  0  0  0
  6 35  1  0  0  0  0
  7  8  1  0  0  0  0
  7 28  1  0  0  0  0
  7 36  1  0  0  0  0
  8  9  1  0  0  0  0
  8 37  1  0  0  0  0
  8 38  1  0  0  0  0
  9 10  1  0  0  0  0
  9 11  1  0  0  0  0
 10 39  1  0  0  0  0
 10 40  1  0  0  0  0
 10 41  1  0  0  0  0
 11 16  1  0  0  0  0
 11 12  2  0  0  0  0
 12 13  1  0  0  0  0
 13 14  2  0  0  0  0
 13 42  1  0  0  0  0
 14 15  1  0  0  0  0
 15 19  1  0  0  0  0
 15 16  2  0  0  0  0
 16 17  1  0  0  0  0
 17 18  2  0  0  0  0
 18 19  1  0  0  0  0
 18 43  1  0  0  0  0
 19 20  1  0  0  0  0
 20 21  1  0  0  0  0
 20 44  1  0  0  0  0
 20 45  1  0  0  0  0
 21 22  1  0  0  0  0
 21 23  1  0  0  0  0
 21 46  1  0  0  0  0
 22 47  1  0  0  0  0
 23 27  1  0  0  0  0
 23 24  1  0  0  0  0
 23 48  1  0  0  0  0
 24 25  1  0  0  0  0
 24 49  1  0  0  0  0
 24 50  1  0  0  0  0
 25 26  1  0  0  0  0
 25 51  1  0  0  0  0
 25 52  1  0  0  0  0
 26 27  1  0  0  0  0
 26 53  1  0  0  0  0
 26 54  1  0  0  0  0
 28 55  1  0  0  0  0
 28 56  1  0  0  0  0
M  END
> <s_m_source_file>
AV-unprocessed.smi

> <i_m_source_file_index>
83

> <i_lp_mmshare_version>
43012

> <i_f3d_flags>
0

> <s_epik_input>
W0NIM11DKD1PKU4xW0NIMl1bQ0gyXVtDQEhdKFtDSDJdMSlbQ0gyXU4oW0NIM10pYyhuW2NIXW4yKWMoYzIzKW5bY0hdbjNbQ0gyXVtDQEhdKFtPSF0pW0NAQEhdNFtDSDJdW0NIMl1bQ0gyXU80

> <s_epik_cmdline>
J2VwaWtfcHl0aG9uJywgJy1waCcsICc3LjAnLCAnLXRuJywgJzgnLCAnLW1hJywgJzIwMCcsICctbWV0YWxfYmluZGluZycsICctaW1hZScsICc8aW5maWxlLm1hZT4nLCAnLW9tYWUnLCAnPG91dGZpbGUubWFlPic=

> <r_lp_tautomer_probability>
1

> <r_epik_Ionization_Penalty>
0.00109752

> <r_epik_Ionization_Penalty_Charging>
0

> <r_epik_Ionization_Penalty_Neutral>
0.00109752

> <r_epik_State_Penalty>
0.000634803

> <r_epik_Charging_Adjusted_Penalty>
0.000634803

> <i_epik_Tot_Q>
0

> <i_epik_Tot_abs_Q>
0

> <r_epik_Metal_State_Penalty>
-0

> <b_epik_Metal_Only>
0

> <s_lp_Force_Field>
OPLS_2005

> <r_lp_Energy>
53.0153

> <b_lp_Chiralities_Consistent>
1

> <s_lp_Variant>
AV-unprocessed.smi:83-5

> <Gold.Version>
5.8.1

> <Gold.Id.Protein>
6NUR|6NUR_protein|mol2

> <Gold.PLP.Fitness>
54.2936

> <Gold.PLP.PLP>
-52.8100

> <Gold.PLP.part.hbond>
-2.0000

> <Gold.PLP.part.metal>
0.0000

> <Gold.PLP.part.buried>
-7.5299

> <Gold.PLP.part.nonpolar>
-44.3177

> <Gold.PLP.part.repulsive>
0.3241

> <Gold.PLP.ligand.clash>
0.0000

> <Gold.PLP.ligand.torsion>
2.0760

> <Gold.PLP.Chemscore.Hbond>
1.7120

> <Gold.PLP.Chemscore.CHOScore>
0.0000

> <Gold.PLP.Chemscore.Metal>
0.0000

> <Gold.Chemscore.Hbonds>
donor molecule, donor type, donor heavy atom, donor atom, acceptor molecule, acceptor atom, score
      P1  H  7989  7998       L1    12  0.75
      P1  H 10752 10765       L1    14  1.00

> <Gold.PLP.Chemscore.Internal.Correction>
0.4995

> <Gold.Rescore>
     Score         DG    S(hbond)    S(metal)    S(lipo)     H(rot)  DE(clash)    DE(int)     intcor
     10.91     -13.17       1.49        0.00      80.52       2.62       0.06       2.20       ----

> <Gold.Chemscore.Fitness>
10.9085

> <Gold.Chemscore.DG>
-13.1705

> <Gold.Chemscore.ZeroCoef>
-5.4800

> <Gold.Chemscore.Hbond>
1.4865

> <Gold.Chemscore.Metal>
0.0000

> <Gold.Chemscore.Lipo>
80.5183

> <Gold.Chemscore.Internal_Hbond>
0.0000

> <Gold.Chemscore.DEClash>
0.0621

> <Gold.Chemscore.DEInternal>
2.1999

> <Gold.Chemscore.Rot>
2.6152

> <Gold.Chemscore.Internal.Correction>
   9.000000E+99

> <Gold.Chemscore.Hbonds>
donor molecule, donor type, donor heavy atom, donor atom, acceptor molecule, acceptor atom, score
      P1  H  7989  7998       L1    12  0.09
      P1  H 10752 10765       L1    14  0.93

> <Gold.Chemscore.Hbond.Weighted>
-4.9648

> <Gold.Chemscore.Metal.Weighted>
-0.0000

> <Gold.Chemscore.Lipo.Weighted>
-9.4206

> <Gold.Chemscore.Internal_Hbond.Weighted>
0.0000

> <Gold.Chemscore.DEClash.Weighted>
0.0621

> <Gold.Chemscore.DEInternal.Weighted>
2.1999

> <Gold.Chemscore.Rot.Weighted>
6.6949

> <Gold.Chemscore.Internal.Correction.Weighted>
   9.000000E+99

> <Gold.Protein.RotatedTorsions>
[ 6907 6896 6895 6894 ] final  -74.10 input  -60.11 | X-H torsion
[ 7974 7965 7964 7962 ] final   -2.70 input  175.53 | X-H torsion
[ 8008 7997 7996 7995 ] final -139.61 input   59.86 | X-H torsion
[ 10167 10162 10161 10158 ] final -153.58 input  -65.29 | X-H torsion
[ 10718 10713 10712 10709 ] final  -59.89 input   66.30 | X-H torsion
[ 10763 10752 10751 10750 ] final  169.05 input  -60.55 | X-H torsion
[ 11005 11000 10999 10996 ] final  -49.06 input  -57.11 | X-H torsion

> <Gold.Protein.ActiveResidues>
 VAL166  LYS551  ARG553  GLY616  TRP617  ASP618  TYR619  PRO620  LYS621  CYS622 
 ASP623  PHE694  ASN695  SER759  ASP760  ASP761  ALA762  ILE779  LEU786  VAL792 
 PHE793  MET794  SER795  GLU796  ALA797  LYS798  CYS799  TRP800  GLU811  SER814 

> <Gold.Protein.RotatedAtoms>
  150.7105  134.4918  159.5519 H   0  0  0  0  0  0  0  0  0  0  0  0  # atno 6907 bound_to 6896
  152.2534  134.8106  160.0451 H   0  0  0  0  0  0  0  0  0  0  0  0  # atno 6908 bound_to 6896
  151.8845  133.3467  159.3814 H   0  0  0  0  0  0  0  0  0  0  0  0  # atno 6909 bound_to 6896
  146.2400  140.1611  142.8333 H   0  0  0  0  0  0  0  0  0  0  0  0  # atno 7974 bound_to 7965
  155.4477  140.0536  157.3004 H   0  0  0  0  0  0  0  0  0  0  0  0  # atno 8008 bound_to 7997
  154.4790  140.2073  155.9764 H   0  0  0  0  0  0  0  0  0  0  0  0  # atno 8009 bound_to 7997
  156.1177  140.3193  155.8168 H   0  0  0  0  0  0  0  0  0  0  0  0  # atno 8010 bound_to 7997
  139.7084  143.9148  152.2458 H   0  0  0  0  0  0  0  0  0  0  0  0  # atno 10167 bound_to 10162
  156.1030  130.4184  150.0777 H   0  0  0  0  0  0  0  0  0  0  0  0  # atno 10718 bound_to 10713
  154.3775  135.2753  155.2231 H   0  0  0  0  0  0  0  0  0  0  0  0  # atno 10763 bound_to 10752
  154.4352  135.5968  153.6097 H   0  0  0  0  0  0  0  0  0  0  0  0  # atno 10764 bound_to 10752
  152.9836  135.6005  154.4014 H   0  0  0  0  0  0  0  0  0  0  0  0  # atno 10765 bound_to 10752
  141.0737  133.6671  156.3532 H   0  0  0  0  0  0  0  0  0  0  0  0  # atno 11005 bound_to 11000
  145.0089  140.8696  143.5236 LP  0  0  0  0  0  0  0  0  0  0  0  0  # atno 17320 bound_to 7965
  145.1641  139.2441  143.5376 LP  0  0  0  0  0  0  0  0  0  0  0  0  # atno 17321 bound_to 7965
  139.9010  144.6912  150.8665 LP  0  0  0  0  0  0  0  0  0  0  0  0  # atno 17342 bound_to 10162
  140.7727  143.3514  151.2007 LP  0  0  0  0  0  0  0  0  0  0  0  0  # atno 17343 bound_to 10162
  156.8760  130.9540  151.3604 LP  0  0  0  0  0  0  0  0  0  0  0  0  # atno 17370 bound_to 10713
  157.6202  130.8649  149.9096 LP  0  0  0  0  0  0  0  0  0  0  0  0  # atno 17371 bound_to 10713
  140.5618  134.5926  157.5435 LP  0  0  0  0  0  0  0  0  0  0  0  0  # atno 17394 bound_to 11000
  139.9550  134.7551  156.0362 LP  0  0  0  0  0  0  0  0  0  0  0  0  # atno 17395 bound_to 11000

$$$$
