AV-unprocessed.smi:632|AV-procd|sdf|3127|dock7
  -GOLD-   22720 0 53D 1   1.00000     0.00000
 Structure written by MMmdl.
 42 43  0  0  0  0  0  0  0  0  1 V2000
  145.3209  133.4839  161.6749 C   0  0  0  0  0  0  0  0  0  0  0  0
  146.6292  133.5090  160.8607 C   0  0  0  0  0  0  0  0  0  0  0  0
  147.4699  134.7026  161.3648 C   0  0  0  0  0  0  0  0  0  0  0  0
  147.4482  132.2276  161.1115 C   0  0  0  0  0  0  0  0  0  0  0  0
  146.3137  133.6364  159.3884 C   0  0  0  0  0  0  0  0  0  0  0  0
  146.7656  134.6641  158.6536 N   0  0  0  0  0  0  0  0  0  0  0  0
  146.3700  134.5928  157.3264 N   0  0  0  0  0  0  0  0  0  0  0  0
  145.6265  133.5065  157.0838 C   0  0  0  0  0  0  0  0  0  0  0  0
  145.0953  133.1820  155.8073 N   0  0  0  0  0  0  0  0  0  0  0  0
  145.5955  133.4829  154.5958 C   0  0  0  0  0  0  0  0  0  0  0  0
  146.6205  134.1338  154.3905 O   0  0  0  0  0  0  0  0  0  0  0  0
  144.8301  132.9801  153.6161 N   0  0  0  0  0  0  0  0  0  0  0  0
  145.1015  133.1078  152.1872 C   0  0  2  0  0  0  0  0  0  0  0  0
  144.0539  134.0150  151.5122 C   0  0  0  0  0  0  0  0  0  0  0  0
  144.2970  134.1216  149.9965 C   0  0  0  0  0  0  0  0  0  0  0  0
  144.3648  132.7414  149.3149 C   0  0  2  0  0  0  0  0  0  0  0  0
  143.0820  132.1467  149.2954 O   0  0  0  0  0  0  0  0  0  0  0  0
  145.3686  131.8079  150.0184 C   0  0  0  0  0  0  0  0  0  0  0  0
  145.1148  131.7143  151.5334 C   0  0  0  0  0  0  0  0  0  0  0  0
  145.3451  132.4742  158.4731 S   0  0  0  0  0  0  0  0  0  0  0  0
  145.5185  133.4060  162.7445 H   0  0  0  0  0  0  0  0  0  0  0  0
  144.6946  132.6345  161.3994 H   0  0  0  0  0  0  0  0  0  0  0  0
  144.7353  134.3895  161.5128 H   0  0  0  0  0  0  0  0  0  0  0  0
  146.9438  135.6495  161.2376 H   0  0  0  0  0  0  0  0  0  0  0  0
  148.4221  134.7759  160.8380 H   0  0  0  0  0  0  0  0  0  0  0  0
  147.6986  134.6042  162.4266 H   0  0  0  0  0  0  0  0  0  0  0  0
  147.7062  132.1198  162.1654 H   0  0  0  0  0  0  0  0  0  0  0  0
  148.3791  132.2343  160.5432 H   0  0  0  0  0  0  0  0  0  0  0  0
  146.8933  131.3345  160.8224 H   0  0  0  0  0  0  0  0  0  0  0  0
  144.2398  132.6469  155.8182 H   0  0  0  0  0  0  0  0  0  0  0  0
  144.0012  132.4655  153.8756 H   0  0  0  0  0  0  0  0  0  0  0  0
  146.0901  133.5509  152.0522 H   0  0  0  0  0  0  0  0  0  0  0  0
  143.0518  133.6240  151.6946 H   0  0  0  0  0  0  0  0  0  0  0  0
  144.0794  135.0121  151.9535 H   0  0  0  0  0  0  0  0  0  0  0  0
  143.5225  134.7349  149.5344 H   0  0  0  0  0  0  0  0  0  0  0  0
  145.2383  134.6465  149.8286 H   0  0  0  0  0  0  0  0  0  0  0  0
  144.6686  132.8730  148.2759 H   0  0  0  0  0  0  0  0  0  0  0  0
  142.4334  132.8297  149.3728 H   0  0  0  0  0  0  0  0  0  0  0  0
  145.3403  130.8139  149.5705 H   0  0  0  0  0  0  0  0  0  0  0  0
  146.3787  132.1853  149.8541 H   0  0  0  0  0  0  0  0  0  0  0  0
  145.8843  131.0932  151.9936 H   0  0  0  0  0  0  0  0  0  0  0  0
  144.1642  131.2102  151.7138 H   0  0  0  0  0  0  0  0  0  0  0  0
  1  2  1  0  0  0  0
  1 21  1  0  0  0  0
  1 22  1  0  0  0  0
  1 23  1  0  0  0  0
  2  3  1  0  0  0  0
  2  4  1  0  0  0  0
  2  5  1  0  0  0  0
  3 24  1  0  0  0  0
  3 25  1  0  0  0  0
  3 26  1  0  0  0  0
  4 27  1  0  0  0  0
  4 28  1  0  0  0  0
  4 29  1  0  0  0  0
  5 20  1  0  0  0  0
  5  6  2  0  0  0  0
  6  7  1  0  0  0  0
  7  8  2  0  0  0  0
  8  9  1  0  0  0  0
  8 20  1  0  0  0  0
  9 10  1  0  0  0  0
  9 30  1  0  0  0  0
 10 11  2  0  0  0  0
 10 12  1  0  0  0  0
 12 13  1  0  0  0  0
 12 31  1  0  0  0  0
 13 19  1  0  0  0  0
 13 14  1  0  0  0  0
 13 32  1  0  0  0  0
 14 15  1  0  0  0  0
 14 33  1  0  0  0  0
 14 34  1  0  0  0  0
 15 16  1  0  0  0  0
 15 35  1  0  0  0  0
 15 36  1  0  0  0  0
 16 17  1  0  0  0  0
 16 18  1  0  0  0  0
 16 37  1  0  0  0  0
 17 38  1  0  0  0  0
 18 19  1  0  0  0  0
 18 39  1  0  0  0  0
 18 40  1  0  0  0  0
 19 41  1  0  0  0  0
 19 42  1  0  0  0  0
M  END
> <s_m_source_file>
AV-unprocessed.smi

> <i_m_source_file_index>
632

> <i_lp_mmshare_version>
43012

> <i_f3d_flags>
0

> <s_epik_input>
W0NIM11DKFtDSDNdKShbQ0gzXSljMW5uYyhzMSlbTkhdQyg9TylbTkhdW0NAQEhdMltDSDJdW0NIMl1bQ0BASF0oW09IXSlbQ0gyXVtDSDJdMg==

> <s_epik_cmdline>
J2VwaWtfcHl0aG9uJywgJy1waCcsICc3LjAnLCAnLXRuJywgJzgnLCAnLW1hJywgJzIwMCcsICctbWV0YWxfYmluZGluZycsICctaW1hZScsICc8aW5maWxlLm1hZT4nLCAnLW9tYWUnLCAnPG91dGZpbGUubWFlPic=

> <r_lp_tautomer_probability>
1

> <r_epik_Ionization_Penalty>
0.000349475

> <r_epik_Ionization_Penalty_Charging>
0

> <r_epik_Ionization_Penalty_Neutral>
0.000349475

> <r_epik_State_Penalty>
-0

> <r_epik_Charging_Adjusted_Penalty>
0

> <i_epik_Tot_Q>
0

> <i_epik_Tot_abs_Q>
0

> <r_epik_Metal_State_Penalty>
0.179207

> <b_epik_Metal_Only>
0

> <s_lp_Force_Field>
OPLS_2005

> <r_lp_Energy>
4.89168

> <b_lp_Chiralities_Consistent>
1

> <s_lp_Variant>
AV-unprocessed.smi:632-2

> <Gold.Version>
5.8.1

> <Gold.Id.Protein>
6NUR|6NUR_protein|mol2

> <Gold.PLP.Fitness>
37.5870

> <Gold.PLP.PLP>
-27.3045

> <Gold.PLP.part.hbond>
-4.6900

> <Gold.PLP.part.metal>
0.0000

> <Gold.PLP.part.buried>
-3.4109

> <Gold.PLP.part.nonpolar>
-19.6154

> <Gold.PLP.part.repulsive>
0.0687

> <Gold.PLP.ligand.clash>
0.0000

> <Gold.PLP.ligand.torsion>
0.2381

> <Gold.PLP.Chemscore.Hbond>
3.5838

> <Gold.PLP.Chemscore.CHOScore>
0.0000

> <Gold.PLP.Chemscore.Metal>
0.0000

> <Gold.Chemscore.Hbonds>
donor molecule, donor type, donor heavy atom, donor atom, acceptor molecule, acceptor atom, score
      L1  H     9    30       P1 10957  0.94
      L1  H    12    31       P1 10957  1.00
      L1  H    17    38       P1 10186  0.73
      P1  H 10785 10796       L1    17  0.88

> <Gold.PLP.Chemscore.Internal.Correction>
0.0074

> <Gold.Rescore>
     Score         DG    S(hbond)    S(metal)    S(lipo)     H(rot)  DE(clash)    DE(int)     intcor
     18.74     -20.10       3.09        0.00      73.97       1.70       0.11       1.25       ----

> <Gold.Chemscore.Fitness>
18.7383

> <Gold.Chemscore.DG>
-20.0953

> <Gold.Chemscore.ZeroCoef>
-5.4800

> <Gold.Chemscore.Hbond>
3.0852

> <Gold.Chemscore.Metal>
0.0000

> <Gold.Chemscore.Lipo>
73.9711

> <Gold.Chemscore.Internal_Hbond>
0.0000

> <Gold.Chemscore.DEClash>
0.1107

> <Gold.Chemscore.DEInternal>
1.2463

> <Gold.Chemscore.Rot>
1.6968

> <Gold.Chemscore.Internal.Correction>
   9.000000E+99

> <Gold.Chemscore.Hbonds>
donor molecule, donor type, donor heavy atom, donor atom, acceptor molecule, acceptor atom, score
      L1  H     9    30       P1 10957  0.86
      L1  H    12    31       P1 10957  0.50
      L1  H    17    38       P1 10186  0.73
      P1  H 10785 10796       L1    17  0.65

> <Gold.Chemscore.Hbond.Weighted>
-10.3045

> <Gold.Chemscore.Metal.Weighted>
-0.0000

> <Gold.Chemscore.Lipo.Weighted>
-8.6546

> <Gold.Chemscore.Internal_Hbond.Weighted>
0.0000

> <Gold.Chemscore.DEClash.Weighted>
0.1107

> <Gold.Chemscore.DEInternal.Weighted>
1.2463

> <Gold.Chemscore.Rot.Weighted>
4.3438

> <Gold.Chemscore.Internal.Correction.Weighted>
   9.000000E+99

> <Gold.Protein.RotatedTorsions>
[ 6907 6896 6895 6894 ] final   29.05 input  -60.11 | X-H torsion
[ 7974 7965 7964 7962 ] final  179.81 input  175.53 | X-H torsion
[ 8008 7997 7996 7995 ] final -139.80 input   59.86 | X-H torsion
[ 10167 10162 10161 10158 ] final -153.68 input  -65.29 | X-H torsion
[ 10718 10713 10712 10709 ] final  174.26 input   66.30 | X-H torsion
[ 10763 10752 10751 10750 ] final   90.75 input  -60.55 | X-H torsion
[ 11005 11000 10999 10996 ] final -115.55 input  -57.11 | X-H torsion

> <Gold.Protein.ActiveResidues>
 VAL166  LYS551  ARG553  GLY616  TRP617  ASP618  TYR619  PRO620  LYS621  CYS622 
 ASP623  PHE694  ASN695  SER759  ASP760  ASP761  ALA762  ILE779  LEU786  VAL792 
 PHE793  MET794  SER795  GLU796  ALA797  LYS798  CYS799  TRP800  GLU811  SER814 

> <Gold.Protein.RotatedAtoms>
  152.0260  134.9795  160.0571 H   0  0  0  0  0  0  0  0  0  0  0  0  # atno 6907 bound_to 6896
  152.1291  133.4392  159.4720 H   0  0  0  0  0  0  0  0  0  0  0  0  # atno 6908 bound_to 6896
  150.6855  134.2361  159.4497 H   0  0  0  0  0  0  0  0  0  0  0  0  # atno 6909 bound_to 6896
  144.7142  140.0604  143.6433 H   0  0  0  0  0  0  0  0  0  0  0  0  # atno 7974 bound_to 7965
  155.4508  140.0538  157.3001 H   0  0  0  0  0  0  0  0  0  0  0  0  # atno 8008 bound_to 7997
  154.4778  140.2068  155.9792 H   0  0  0  0  0  0  0  0  0  0  0  0  # atno 8009 bound_to 7997
  156.1159  140.3196  155.8143 H   0  0  0  0  0  0  0  0  0  0  0  0  # atno 8010 bound_to 7997
  139.7077  143.9160  152.2455 H   0  0  0  0  0  0  0  0  0  0  0  0  # atno 10167 bound_to 10162
  156.9521  131.0034  151.2946 H   0  0  0  0  0  0  0  0  0  0  0  0  # atno 10718 bound_to 10713
  153.2008  135.4423  155.0264 H   0  0  0  0  0  0  0  0  0  0  0  0  # atno 10763 bound_to 10752
  154.8146  135.3309  154.7215 H   0  0  0  0  0  0  0  0  0  0  0  0  # atno 10764 bound_to 10752
  153.7660  135.6988  153.4971 H   0  0  0  0  0  0  0  0  0  0  0  0  # atno 10765 bound_to 10752
  141.0480  133.9731  157.2884 H   0  0  0  0  0  0  0  0  0  0  0  0  # atno 11005 bound_to 11000
  145.9869  139.2984  143.1008 LP  0  0  0  0  0  0  0  0  0  0  0  0  # atno 17320 bound_to 7965
  145.8947  140.9281  143.0534 LP  0  0  0  0  0  0  0  0  0  0  0  0  # atno 17321 bound_to 7965
  139.9020  144.6906  150.8655 LP  0  0  0  0  0  0  0  0  0  0  0  0  # atno 17342 bound_to 10162
  140.7725  143.3507  151.2020 LP  0  0  0  0  0  0  0  0  0  0  0  0  # atno 17343 bound_to 10162
  157.5714  130.8313  149.8397 LP  0  0  0  0  0  0  0  0  0  0  0  0  # atno 17370 bound_to 10713
  156.0358  130.3752  150.1564 LP  0  0  0  0  0  0  0  0  0  0  0  0  # atno 17371 bound_to 10713
  139.9328  135.0199  156.8456 LP  0  0  0  0  0  0  0  0  0  0  0  0  # atno 17394 bound_to 11000
  140.6109  134.0084  155.7576 LP  0  0  0  0  0  0  0  0  0  0  0  0  # atno 17395 bound_to 11000

$$$$
