AV-unprocessed.smi:912|AV-procd|sdf|4144|dock3
  -GOLD-   22720 2 53D 1   1.00000     0.00000
 Structure written by MMmdl.
 27 27  0  0  0  0  0  0  0  0  2 V2000
  146.7866  138.8300  151.5450 C   0  0  0  0  0  0  0  0  0  0  0  0
  147.0758  137.8475  152.5884 N   0  0  0  0  0  0  0  0  0  0  0  0
  146.8628  138.2458  153.9933 C   0  0  1  0  0  0  0  0  0  0  0  0
  145.3265  138.1847  154.2035 C   0  0  0  0  0  0  0  0  0  0  0  0
  147.6029  137.3116  154.9900 C   0  0  0  0  0  0  0  0  0  0  0  0
  148.3466  136.3253  154.4762 N   0  0  0  0  0  0  0  0  0  0  0  0
  147.5118  137.4763  156.2055 O   0  0  0  0  0  0  0  0  0  0  0  0
  147.3620  139.6823  154.2578 C   0  0  0  0  0  0  0  0  0  0  0  0
  146.4745  140.7435  154.5789 C   0  0  0  0  0  0  0  0  0  0  0  0
  146.9819  142.0388  154.8070 C   0  0  0  0  0  0  0  0  0  0  0  0
  148.3080  142.2693  154.7155 N   0  3  0  0  0  0  0  0  0  0  0  0
  149.1948  141.3007  154.4067 C   0  0  0  0  0  0  0  0  0  0  0  0
  148.7446  139.9868  154.1683 C   0  0  0  0  0  0  0  0  0  0  0  0
  147.1150  138.4327  150.5848 H   0  0  0  0  0  0  0  0  0  0  0  0
  147.3150  139.7690  151.7078 H   0  0  0  0  0  0  0  0  0  0  0  0
  145.7209  139.0385  151.4535 H   0  0  0  0  0  0  0  0  0  0  0  0
  148.0564  137.6248  152.4918 H   0  0  0  0  0  0  0  0  0  0  0  0
  145.0340  138.4483  155.2199 H   0  0  0  0  0  0  0  0  0  0  0  0
  144.9202  137.1903  154.0176 H   0  0  0  0  0  0  0  0  0  0  0  0
  144.8103  138.8745  153.5345 H   0  0  0  0  0  0  0  0  0  0  0  0
  148.8601  135.7099  155.0903 H   0  0  0  0  0  0  0  0  0  0  0  0
  148.4081  136.2136  153.4745 H   0  0  0  0  0  0  0  0  0  0  0  0
  145.4085  140.5890  154.6523 H   0  0  0  0  0  0  0  0  0  0  0  0
  146.3687  142.8924  155.0564 H   0  0  0  0  0  0  0  0  0  0  0  0
  150.2305  141.6036  154.3565 H   0  0  0  0  0  0  0  0  0  0  0  0
  149.4634  139.2230  153.9110 H   0  0  0  0  0  0  0  0  0  0  0  0
  148.6537  143.2146  154.8835 H   0  0  0  0  0  0  0  0  0  0  0  0
  1  2  1  0  0  0  0
  1 14  1  0  0  0  0
  1 15  1  0  0  0  0
  1 16  1  0  0  0  0
  2  3  1  0  0  0  0
  2 17  1  0  0  0  0
  3  4  1  0  0  0  0
  3  5  1  0  0  0  0
  3  8  1  0  0  0  0
  4 18  1  0  0  0  0
  4 19  1  0  0  0  0
  4 20  1  0  0  0  0
  5  6  1  0  0  0  0
  5  7  2  0  0  0  0
  6 21  1  0  0  0  0
  6 22  1  0  0  0  0
  8 13  1  0  0  0  0
  8  9  2  0  0  0  0
  9 10  1  0  0  0  0
  9 23  1  0  0  0  0
 10 11  2  0  0  0  0
 10 24  1  0  0  0  0
 11 12  1  0  0  0  0
 11 27  1  0  0  0  0
 12 13  2  0  0  0  0
 12 25  1  0  0  0  0
 13 26  1  0  0  0  0
M  CHG  1  11   1
M  END
> <s_m_source_file>
AV-unprocessed.smi

> <i_m_source_file_index>
912

> <i_lp_mmshare_version>
43012

> <i_f3d_flags>
0

> <s_epik_input>
W0NIM11bTkhdW0NAQF0oW0NIM10pKEMoPU8pW05IMl0pYzFbY0hdW2NIXW5bY0hdW2NIXTE=

> <s_epik_cmdline>
J2VwaWtfcHl0aG9uJywgJy1waCcsICc3LjAnLCAnLXRuJywgJzgnLCAnLW1hJywgJzIwMCcsICctbWV0YWxfYmluZGluZycsICctaW1hZScsICc8aW5maWxlLm1hZT4nLCAnLW9tYWUnLCAnPG91dGZpbGUubWFlPic=

> <r_epik_Ionization_Penalty>
0.562542

> <r_epik_Ionization_Penalty_Charging>
0.554844

> <r_epik_Ionization_Penalty_Neutral>
0.00769834

> <r_epik_State_Penalty>
1.39075

> <r_epik_Charging_Adjusted_Penalty>
1.94559

> <i_epik_Tot_Q>
1

> <i_epik_Tot_abs_Q>
1

> <r_epik_Metal_State_Penalty>
1.55563

> <b_epik_Metal_Only>
0

> <s_lp_Force_Field>
OPLS_2005

> <r_lp_Energy>
17.994

> <b_lp_Chiralities_Consistent>
1

> <s_lp_Variant>
AV-unprocessed.smi:912-5

> <Gold.Version>
5.8.1

> <Gold.Id.Protein>
6NUR|6NUR_protein|mol2

> <Gold.PLP.Fitness>
29.7986

> <Gold.PLP.PLP>
-19.2685

> <Gold.PLP.part.hbond>
-3.0000

> <Gold.PLP.part.metal>
0.0000

> <Gold.PLP.part.buried>
0.2789

> <Gold.PLP.part.nonpolar>
-16.3321

> <Gold.PLP.part.repulsive>
0.2098

> <Gold.PLP.ligand.clash>
0.0000

> <Gold.PLP.ligand.torsion>
0.2826

> <Gold.PLP.Chemscore.Hbond>
3.6880

> <Gold.PLP.Chemscore.CHOScore>
0.0000

> <Gold.PLP.Chemscore.Metal>
0.0000

> <Gold.Chemscore.Hbonds>
donor molecule, donor type, donor heavy atom, donor atom, acceptor molecule, acceptor atom, score
      L1  H     2    17       P1  7948  0.70
      L1  H     6    22       P1  7948  1.00
      L1  H    11    27       P1  8028  2.00

> <Gold.PLP.Chemscore.Internal.Correction>
0.0313

> <Gold.Rescore>
     Score         DG    S(hbond)    S(metal)    S(lipo)     H(rot)  DE(clash)    DE(int)     intcor
     15.00     -15.33       2.77        0.00      44.97       1.82       0.06       0.28       ----

> <Gold.Chemscore.Fitness>
14.9978

> <Gold.Chemscore.DG>
-15.3347

> <Gold.Chemscore.ZeroCoef>
-5.4800

> <Gold.Chemscore.Hbond>
2.7723

> <Gold.Chemscore.Metal>
0.0000

> <Gold.Chemscore.Lipo>
44.9651

> <Gold.Chemscore.Internal_Hbond>
0.0000

> <Gold.Chemscore.DEClash>
0.0567

> <Gold.Chemscore.DEInternal>
0.2802

> <Gold.Chemscore.Rot>
1.8226

> <Gold.Chemscore.Internal.Correction>
   9.000000E+99

> <Gold.Chemscore.Hbonds>
donor molecule, donor type, donor heavy atom, donor atom, acceptor molecule, acceptor atom, score
      L1  H     2    17       P1  7948  0.70
      L1  H     6    22       P1  7948  1.00
      L1  H    11    27       P1  8028  1.00

> <Gold.Chemscore.Hbond.Weighted>
-9.2596

> <Gold.Chemscore.Metal.Weighted>
-0.0000

> <Gold.Chemscore.Lipo.Weighted>
-5.2609

> <Gold.Chemscore.Internal_Hbond.Weighted>
0.0000

> <Gold.Chemscore.DEClash.Weighted>
0.0567

> <Gold.Chemscore.DEInternal.Weighted>
0.2802

> <Gold.Chemscore.Rot.Weighted>
4.6659

> <Gold.Chemscore.Internal.Correction.Weighted>
   9.000000E+99

> <Gold.Protein.RotatedTorsions>
[ 6907 6896 6895 6894 ] final -124.83 input  -60.11 | X-H torsion
[ 7974 7965 7964 7962 ] final -116.43 input  175.53 | X-H torsion
[ 8008 7997 7996 7995 ] final   93.79 input   59.86 | X-H torsion
[ 10167 10162 10161 10158 ] final -128.90 input  -65.29 | X-H torsion
[ 10718 10713 10712 10709 ] final -170.10 input   66.30 | X-H torsion
[ 10763 10752 10751 10750 ] final -113.89 input  -60.55 | X-H torsion
[ 11005 11000 10999 10996 ] final   86.05 input  -57.11 | X-H torsion

> <Gold.Protein.ActiveResidues>
 VAL166  LYS551  ARG553  GLY616  TRP617  ASP618  TYR619  PRO620  LYS621  CYS622 
 ASP623  PHE694  ASN695  SER759  ASP760  ASP761  ALA762  ILE779  LEU786  VAL792 
 PHE793  MET794  SER795  GLU796  ALA797  LYS798  CYS799  TRP800  GLU811  SER814 

> <Gold.Protein.RotatedAtoms>
  150.8807  133.7376  159.2932 H   0  0  0  0  0  0  0  0  0  0  0  0  # atno 6907 bound_to 6896
  151.4959  135.1058  159.9825 H   0  0  0  0  0  0  0  0  0  0  0  0  # atno 6908 bound_to 6896
  152.4757  133.8088  159.7048 H   0  0  0  0  0  0  0  0  0  0  0  0  # atno 6909 bound_to 6896
  145.0968  140.8526  143.3950 H   0  0  0  0  0  0  0  0  0  0  0  0  # atno 7974 bound_to 7965
  156.0506  140.3308  155.7347 H   0  0  0  0  0  0  0  0  0  0  0  0  # atno 8008 bound_to 7997
  155.5606  140.0618  157.2847 H   0  0  0  0  0  0  0  0  0  0  0  0  # atno 8009 bound_to 7997
  154.4434  140.1878  156.0767 H   0  0  0  0  0  0  0  0  0  0  0  0  # atno 8010 bound_to 7997
  139.9454  143.6115  152.2491 H   0  0  0  0  0  0  0  0  0  0  0  0  # atno 10167 bound_to 10162
  156.7212  130.9271  151.3097 H   0  0  0  0  0  0  0  0  0  0  0  0  # atno 10718 bound_to 10713
  154.8416  135.4438  154.1420 H   0  0  0  0  0  0  0  0  0  0  0  0  # atno 10763 bound_to 10752
  153.2603  135.6935  153.7592 H   0  0  0  0  0  0  0  0  0  0  0  0  # atno 10764 bound_to 10752
  153.6871  135.3393  155.3168 H   0  0  0  0  0  0  0  0  0  0  0  0  # atno 10765 bound_to 10752
  139.8955  134.8329  156.2667 H   0  0  0  0  0  0  0  0  0  0  0  0  # atno 11005 bound_to 11000
  145.1001  139.2828  143.5690 LP  0  0  0  0  0  0  0  0  0  0  0  0  # atno 17320 bound_to 7965
  146.3530  140.0566  142.8632 LP  0  0  0  0  0  0  0  0  0  0  0  0  # atno 17321 bound_to 7965
  139.6670  144.7662  151.1854 LP  0  0  0  0  0  0  0  0  0  0  0  0  # atno 17342 bound_to 10162
  140.7598  143.5922  150.8785 LP  0  0  0  0  0  0  0  0  0  0  0  0  # atno 17343 bound_to 10162
  157.6897  130.9221  150.0480 LP  0  0  0  0  0  0  0  0  0  0  0  0  # atno 17370 bound_to 10713
  156.1593  130.3643  149.9323 LP  0  0  0  0  0  0  0  0  0  0  0  0  # atno 17371 bound_to 10713
  141.0128  133.7086  156.1139 LP  0  0  0  0  0  0  0  0  0  0  0  0  # atno 17394 bound_to 11000
  140.7344  134.4219  157.5562 LP  0  0  0  0  0  0  0  0  0  0  0  0  # atno 17395 bound_to 11000

$$$$
