AV-unprocessed.smi:1172|AV-procd|sdf|4943|dock6
  -GOLD-   22720 3533D 1   1.00000     0.00000
 Structure written by MMmdl.
 36 37  0  0  0  0  0  0  0  0  1 V2000
  148.4300  138.7292  152.5071 N   0  0  0  0  0  0  0  0  0  0  0  0
  147.4636  139.2951  153.2351 C   0  0  0  0  0  0  0  0  0  0  0  0
  146.4535  138.6829  153.5748 O   0  0  0  0  0  0  0  0  0  0  0  0
  147.6595  140.7568  153.6425 C   0  0  0  0  0  0  0  0  0  0  0  0
  148.8042  140.9057  154.5237 N   0  0  0  0  0  0  0  0  0  0  0  0
  149.1003  141.9588  155.3674 C   0  0  0  0  0  0  0  0  0  0  0  0
  150.2779  141.6269  155.9753 C   0  0  0  0  0  0  0  0  0  0  0  0
  151.0333  142.3490  156.9337 N   0  0  0  0  0  0  0  0  0  0  0  0
  151.8181  141.8546  157.9104 C   0  0  0  0  0  0  0  0  0  0  0  0
  151.9308  140.6490  158.1356 O   0  0  0  0  0  0  0  0  0  0  0  0
  152.4404  142.8013  158.6591 N   0  0  0  0  0  0  0  0  0  0  0  0
  153.4743  142.5604  159.6821 C   0  0  0  0  0  0  0  0  0  0  0  0
  152.8352  142.7025  161.0759 C   0  0  0  0  0  0  0  0  0  0  0  0
  152.1778  144.0858  161.2398 C   0  0  0  0  0  0  0  0  0  0  0  0
  151.2399  144.4103  160.0594 C   0  0  1  0  0  0  0  0  0  0  0  0
  150.8085  145.7510  160.1546 O   0  0  0  0  0  0  0  0  0  0  0  0
  151.9559  144.1876  158.7128 C   0  0  0  0  0  0  0  0  0  0  0  0
  150.6377  140.3571  155.4543 C   0  0  0  0  0  0  0  0  0  0  0  0
  149.7421  139.9268  154.5790 N   0  0  0  0  0  0  0  0  0  0  0  0
  148.3382  137.7661  152.2180 H   0  0  0  0  0  0  0  0  0  0  0  0
  149.2472  139.2624  152.2476 H   0  0  0  0  0  0  0  0  0  0  0  0
  147.8102  141.3843  152.7629 H   0  0  0  0  0  0  0  0  0  0  0  0
  146.7616  141.1210  154.1448 H   0  0  0  0  0  0  0  0  0  0  0  0
  148.4586  142.8236  155.4494 H   0  0  0  0  0  0  0  0  0  0  0  0
  150.9904  143.3548  156.8588 H   0  0  0  0  0  0  0  0  0  0  0  0
  153.9649  141.5907  159.5993 H   0  0  0  0  0  0  0  0  0  0  0  0
  154.2719  143.2952  159.5635 H   0  0  0  0  0  0  0  0  0  0  0  0
  152.0861  141.9218  161.2150 H   0  0  0  0  0  0  0  0  0  0  0  0
  153.5867  142.5529  161.8514 H   0  0  0  0  0  0  0  0  0  0  0  0
  151.6333  144.1343  162.1834 H   0  0  0  0  0  0  0  0  0  0  0  0
  152.9631  144.8412  161.2975 H   0  0  0  0  0  0  0  0  0  0  0  0
  150.3588  143.7688  160.1094 H   0  0  0  0  0  0  0  0  0  0  0  0
  150.0167  145.8493  159.6486 H   0  0  0  0  0  0  0  0  0  0  0  0
  152.8039  144.8678  158.6160 H   0  0  0  0  0  0  0  0  0  0  0  0
  151.2885  144.4311  157.8845 H   0  0  0  0  0  0  0  0  0  0  0  0
  151.4994  139.7453  155.6768 H   0  0  0  0  0  0  0  0  0  0  0  0
  1  2  1  0  0  0  0
  1 20  1  0  0  0  0
  1 21  1  0  0  0  0
  2  3  2  0  0  0  0
  2  4  1  0  0  0  0
  4  5  1  0  0  0  0
  4 22  1  0  0  0  0
  4 23  1  0  0  0  0
  5 19  1  0  0  0  0
  5  6  1  0  0  0  0
  6  7  2  0  0  0  0
  6 24  1  0  0  0  0
  7  8  1  0  0  0  0
  7 18  1  0  0  0  0
  8  9  1  0  0  0  0
  8 25  1  0  0  0  0
  9 10  2  0  0  0  0
  9 11  1  0  0  0  0
 11 17  1  0  0  0  0
 11 12  1  0  0  0  0
 12 13  1  0  0  0  0
 12 26  1  0  0  0  0
 12 27  1  0  0  0  0
 13 14  1  0  0  0  0
 13 28  1  0  0  0  0
 13 29  1  0  0  0  0
 14 15  1  0  0  0  0
 14 30  1  0  0  0  0
 14 31  1  0  0  0  0
 15 16  1  0  0  0  0
 15 17  1  0  0  0  0
 15 32  1  0  0  0  0
 16 33  1  0  0  0  0
 17 34  1  0  0  0  0
 17 35  1  0  0  0  0
 18 19  2  0  0  0  0
 18 36  1  0  0  0  0
M  END
> <s_m_source_file>
AV-unprocessed.smi

> <i_m_source_file_index>
1172

> <i_lp_mmshare_version>
43012

> <i_f3d_flags>
0

> <s_epik_input>
W05IMl1DKD1PKVtDSDJdbjFbY0hdYyhbY0hdbjEpW05IXUMoPU8pTjJbQ0gyXVtDSDJdW0NIMl1bQ0BASF0oW09IXSlbQ0gyXTI=

> <s_epik_cmdline>
J2VwaWtfcHl0aG9uJywgJy1waCcsICc3LjAnLCAnLXRuJywgJzgnLCAnLW1hJywgJzIwMCcsICctbWV0YWxfYmluZGluZycsICctaW1hZScsICc8aW5maWxlLm1hZT4nLCAnLW9tYWUnLCAnPG91dGZpbGUubWFlPic=

> <r_lp_tautomer_probability>
1

> <r_epik_Ionization_Penalty>
4.44977e-05

> <r_epik_Ionization_Penalty_Charging>
0

> <r_epik_Ionization_Penalty_Neutral>
4.44977e-05

> <r_epik_State_Penalty>
-0

> <r_epik_Charging_Adjusted_Penalty>
0

> <i_epik_Tot_Q>
0

> <i_epik_Tot_abs_Q>
0

> <r_epik_Metal_State_Penalty>
-0

> <b_epik_Metal_Only>
0

> <s_lp_Force_Field>
OPLS_2005

> <r_lp_Energy>
33.3056

> <b_lp_Chiralities_Consistent>
1

> <s_lp_Variant>
AV-unprocessed.smi:1172-1

> <Gold.Version>
5.8.1

> <Gold.Id.Protein>
6NUR|6NUR_protein|mol2

> <Gold.PLP.Fitness>
47.2862

> <Gold.PLP.PLP>
-41.2964

> <Gold.PLP.part.hbond>
-2.9737

> <Gold.PLP.part.metal>
0.0000

> <Gold.PLP.part.buried>
-3.9979

> <Gold.PLP.part.nonpolar>
-34.7443

> <Gold.PLP.part.repulsive>
0.4087

> <Gold.PLP.ligand.clash>
1.0959

> <Gold.PLP.ligand.torsion>
0.5816

> <Gold.PLP.Chemscore.Hbond>
1.7600

> <Gold.PLP.Chemscore.CHOScore>
0.9752

> <Gold.PLP.Chemscore.Metal>
0.0000

> <Gold.Chemscore.Hbonds>
donor molecule, donor type, donor heavy atom, donor atom, acceptor molecule, acceptor atom, score
      L1  H     1    20       P1  7948  1.00
      L1  H     1    21       P1  7957  0.41
      L1  C     6    24       P1  8028  0.78

> <Gold.PLP.Chemscore.Internal.Correction>
0.0434

> <Gold.Rescore>
     Score         DG    S(hbond)    S(metal)    S(lipo)     H(rot)  DE(clash)    DE(int)     intcor
     14.31     -19.56       3.19        0.00      77.44       2.20       1.99       3.27       ----

> <Gold.Chemscore.Fitness>
14.3067

> <Gold.Chemscore.DG>
-19.5637

> <Gold.Chemscore.ZeroCoef>
-5.4800

> <Gold.Chemscore.Hbond>
3.1877

> <Gold.Chemscore.Metal>
0.0000

> <Gold.Chemscore.Lipo>
77.4365

> <Gold.Chemscore.Internal_Hbond>
0.0000

> <Gold.Chemscore.DEClash>
1.9872

> <Gold.Chemscore.DEInternal>
3.2699

> <Gold.Chemscore.Rot>
2.1966

> <Gold.Chemscore.Internal.Correction>
   9.000000E+99

> <Gold.Chemscore.Hbonds>
donor molecule, donor type, donor heavy atom, donor atom, acceptor molecule, acceptor atom, score
      L1  H     1    20       P1  7948  0.96
      L1  H     1    21       P1  7957  0.42

> <Gold.Chemscore.Hbond.Weighted>
-10.6469

> <Gold.Chemscore.Metal.Weighted>
-0.0000

> <Gold.Chemscore.Lipo.Weighted>
-9.0601

> <Gold.Chemscore.Internal_Hbond.Weighted>
0.0000

> <Gold.Chemscore.DEClash.Weighted>
1.9872

> <Gold.Chemscore.DEInternal.Weighted>
3.2699

> <Gold.Chemscore.Rot.Weighted>
5.6232

> <Gold.Chemscore.Internal.Correction.Weighted>
   9.000000E+99

> <Gold.Protein.RotatedTorsions>
[ 6907 6896 6895 6894 ] final   13.09 input  -60.11 | X-H torsion
[ 7974 7965 7964 7962 ] final  -65.43 input  175.53 | X-H torsion
[ 8008 7997 7996 7995 ] final -128.30 input   59.86 | X-H torsion
[ 10167 10162 10161 10158 ] final   63.54 input  -65.29 | X-H torsion
[ 10718 10713 10712 10709 ] final  116.48 input   66.30 | X-H torsion
[ 10763 10752 10751 10750 ] final  124.04 input  -60.55 | X-H torsion
[ 11005 11000 10999 10996 ] final  -65.55 input  -57.11 | X-H torsion

> <Gold.Protein.ActiveResidues>
 VAL166  LYS551  ARG553  GLY616  TRP617  ASP618  TYR619  PRO620  LYS621  CYS622 
 ASP623  PHE694  ASN695  SER759  ASP760  ASP761  ALA762  ILE779  LEU786  VAL792 
 PHE793  MET794  SER795  GLU796  ALA797  LYS798  CYS799  TRP800  GLU811  SER814 

> <Gold.Protein.RotatedAtoms>
  151.7807  135.0762  160.0373 H   0  0  0  0  0  0  0  0  0  0  0  0  # atno 6907 bound_to 6896
  152.3225  133.5865  159.5762 H   0  0  0  0  0  0  0  0  0  0  0  0  # atno 6908 bound_to 6896
  150.7377  133.9906  159.3647 H   0  0  0  0  0  0  0  0  0  0  0  0  # atno 6909 bound_to 6896
  145.7544  140.8893  143.0463 H   0  0  0  0  0  0  0  0  0  0  0  0  # atno 7974 bound_to 7965
  155.2604  140.0436  157.2996 H   0  0  0  0  0  0  0  0  0  0  0  0  # atno 8008 bound_to 7997
  154.5714  140.2375  155.8155 H   0  0  0  0  0  0  0  0  0  0  0  0  # atno 8009 bound_to 7997
  156.2125  140.2994  155.9773 H   0  0  0  0  0  0  0  0  0  0  0  0  # atno 8010 bound_to 7997
  140.1319  144.4635  150.6860 H   0  0  0  0  0  0  0  0  0  0  0  0  # atno 10167 bound_to 10162
  157.6158  131.1026  150.7478 H   0  0  0  0  0  0  0  0  0  0  0  0  # atno 10718 bound_to 10713
  153.6551  135.3356  155.3111 H   0  0  0  0  0  0  0  0  0  0  0  0  # atno 10763 bound_to 10752
  154.8528  135.4350  154.1863 H   0  0  0  0  0  0  0  0  0  0  0  0  # atno 10764 bound_to 10752
  153.2816  135.7009  153.7455 H   0  0  0  0  0  0  0  0  0  0  0  0  # atno 10765 bound_to 10752
  141.1457  133.6683  156.6004 H   0  0  0  0  0  0  0  0  0  0  0  0  # atno 11005 bound_to 11000
  144.6843  139.9635  143.7481 LP  0  0  0  0  0  0  0  0  0  0  0  0  # atno 17320 bound_to 7965
  146.0326  139.3348  143.0746 LP  0  0  0  0  0  0  0  0  0  0  0  0  # atno 17321 bound_to 7965
  140.6812  143.2327  151.5380 LP  0  0  0  0  0  0  0  0  0  0  0  0  # atno 17342 bound_to 10162
  139.5515  144.2383  152.1539 LP  0  0  0  0  0  0  0  0  0  0  0  0  # atno 17343 bound_to 10162
  156.7846  130.4870  149.5395 LP  0  0  0  0  0  0  0  0  0  0  0  0  # atno 17370 bound_to 10713
  156.1279  130.6157  151.0291 LP  0  0  0  0  0  0  0  0  0  0  0  0  # atno 17371 bound_to 10713
  140.3693  134.7619  157.4588 LP  0  0  0  0  0  0  0  0  0  0  0  0  # atno 17394 bound_to 11000
  140.0723  134.5845  155.8629 LP  0  0  0  0  0  0  0  0  0  0  0  0  # atno 17395 bound_to 11000

$$$$
