AV-unprocessed.smi:183|AV-procd|sdf|1457|dock2
  -GOLD-   2262019263D 1   1.00000     0.00000
 Structure written by MMmdl.
 55 57  0  0  0  0  0  0  0  0  1 V2000
  152.2464  144.9601  158.6491 C   0  0  0  0  0  0  0  0  0  0  0  0
  151.5712  143.5936  158.6919 C   0  0  0  0  0  0  0  0  0  0  0  0
  151.9918  142.7201  159.4501 O   0  0  0  0  0  0  0  0  0  0  0  0
  150.5227  143.4238  157.8724 N   0  0  0  0  0  0  0  0  0  0  0  0
  149.7449  142.1972  157.7567 C   0  0  0  0  0  0  0  0  0  0  0  0
  150.4571  141.1672  156.8578 C   0  0  0  0  0  0  0  0  0  0  0  0
  149.6048  140.0392  156.4705 N   0  0  0  0  0  0  0  0  0  0  0  0
  149.7659  138.9853  157.3079 C   0  0  0  0  0  0  0  0  0  0  0  0
  151.0327  138.5429  157.5086 N   0  0  0  0  0  0  0  0  0  0  0  0
  151.2598  137.5026  158.3159 C   0  0  0  0  0  0  0  0  0  0  0  0
  150.3801  136.7715  159.0033 N   0  0  0  0  0  0  0  0  0  0  0  0
  149.1041  137.2066  158.7965 C   0  0  0  0  0  0  0  0  0  0  0  0
  148.7086  138.2951  157.9688 C   0  0  0  0  0  0  0  0  0  0  0  0
  147.3250  138.4281  157.9935 N   0  0  0  0  0  0  0  0  0  0  0  0
  146.9270  137.4776  158.7934 C   0  0  0  0  0  0  0  0  0  0  0  0
  147.9303  136.7019  159.3285 N   0  0  0  0  0  0  0  0  0  0  0  0
  147.7732  135.5833  160.2452 C   0  0  0  0  0  0  0  0  0  0  0  0
  146.9047  135.9186  161.4862 C   0  0  1  0  0  0  0  0  0  0  0  0
  147.4123  137.1061  162.0712 O   0  0  0  0  0  0  0  0  0  0  0  0
  145.4333  136.1563  161.1554 C   0  0  0  0  0  0  0  0  0  0  0  0
  144.7211  135.7338  162.4313 C   0  0  0  0  0  0  0  0  0  0  0  0
  145.4577  134.5903  162.8255 O   0  0  0  0  0  0  0  0  0  0  0  0
  146.8439  134.8331  162.5984 C   0  0  1  0  0  0  0  0  0  0  0  0
  147.5079  133.4825  162.2866 C   0  0  0  0  0  0  0  0  0  0  0  0
  149.3564  139.7531  155.0466 C   0  0  0  0  0  0  0  0  0  0  0  0
  150.5785  139.1023  154.3715 C   0  0  0  0  0  0  0  0  0  0  0  0
  148.9669  141.0178  154.2494 C   0  0  0  0  0  0  0  0  0  0  0  0
  151.5822  145.7239  159.0539 H   0  0  0  0  0  0  0  0  0  0  0  0
  152.5008  145.2302  157.6238 H   0  0  0  0  0  0  0  0  0  0  0  0
  153.1642  144.9574  159.2378 H   0  0  0  0  0  0  0  0  0  0  0  0
  150.2459  144.1983  157.2867 H   0  0  0  0  0  0  0  0  0  0  0  0
  149.6044  141.7948  158.7596 H   0  0  0  0  0  0  0  0  0  0  0  0
  148.7509  142.4308  157.3735 H   0  0  0  0  0  0  0  0  0  0  0  0
  150.8290  141.6643  155.9603 H   0  0  0  0  0  0  0  0  0  0  0  0
  151.3471  140.7876  157.3591 H   0  0  0  0  0  0  0  0  0  0  0  0
  152.2948  137.2142  158.4264 H   0  0  0  0  0  0  0  0  0  0  0  0
  145.8827  137.3175  159.0186 H   0  0  0  0  0  0  0  0  0  0  0  0
  147.3334  134.7595  159.6827 H   0  0  0  0  0  0  0  0  0  0  0  0
  148.7661  135.2525  160.5527 H   0  0  0  0  0  0  0  0  0  0  0  0
  147.1095  137.1533  162.9652 H   0  0  0  0  0  0  0  0  0  0  0  0
  145.2068  137.1804  160.8551 H   0  0  0  0  0  0  0  0  0  0  0  0
  145.1193  135.4959  160.3462 H   0  0  0  0  0  0  0  0  0  0  0  0
  144.7945  136.5053  163.1994 H   0  0  0  0  0  0  0  0  0  0  0  0
  143.6684  135.5005  162.2713 H   0  0  0  0  0  0  0  0  0  0  0  0
  147.2679  135.2172  163.5282 H   0  0  0  0  0  0  0  0  0  0  0  0
  148.5784  133.5947  162.1146 H   0  0  0  0  0  0  0  0  0  0  0  0
  147.0666  133.0124  161.4075 H   0  0  0  0  0  0  0  0  0  0  0  0
  147.3834  132.7922  163.1211 H   0  0  0  0  0  0  0  0  0  0  0  0
  148.5317  139.0440  154.9789 H   0  0  0  0  0  0  0  0  0  0  0  0
  150.4016  138.9471  153.3069 H   0  0  0  0  0  0  0  0  0  0  0  0
  150.8044  138.1241  154.7954 H   0  0  0  0  0  0  0  0  0  0  0  0
  151.4665  139.7274  154.4712 H   0  0  0  0  0  0  0  0  0  0  0  0
  148.8259  140.7848  153.1938 H   0  0  0  0  0  0  0  0  0  0  0  0
  149.7432  141.7805  154.3176 H   0  0  0  0  0  0  0  0  0  0  0  0
  148.0342  141.4615  154.5963 H   0  0  0  0  0  0  0  0  0  0  0  0
  1  2  1  0  0  0  0
  1 28  1  0  0  0  0
  1 29  1  0  0  0  0
  1 30  1  0  0  0  0
  2  3  2  0  0  0  0
  2  4  1  0  0  0  0
  4  5  1  0  0  0  0
  4 31  1  0  0  0  0
  5  6  1  0  0  0  0
  5 32  1  0  0  0  0
  5 33  1  0  0  0  0
  6  7  1  0  0  0  0
  6 34  1  0  0  0  0
  6 35  1  0  0  0  0
  7  8  1  0  0  0  0
  7 25  1  0  0  0  0
  8 13  1  0  0  0  0
  8  9  2  0  0  0  0
  9 10  1  0  0  0  0
 10 11  2  0  0  0  0
 10 36  1  0  0  0  0
 11 12  1  0  0  0  0
 12 16  1  0  0  0  0
 12 13  2  0  0  0  0
 13 14  1  0  0  0  0
 14 15  2  0  0  0  0
 15 16  1  0  0  0  0
 15 37  1  0  0  0  0
 16 17  1  0  0  0  0
 17 18  1  0  0  0  0
 17 38  1  0  0  0  0
 17 39  1  0  0  0  0
 18 23  1  0  0  0  0
 18 19  1  0  0  0  0
 18 20  1  0  0  0  0
 19 40  1  0  0  0  0
 20 21  1  0  0  0  0
 20 41  1  0  0  0  0
 20 42  1  0  0  0  0
 21 22  1  0  0  0  0
 21 43  1  0  0  0  0
 21 44  1  0  0  0  0
 22 23  1  0  0  0  0
 23 24  1  0  0  0  0
 23 45  1  0  0  0  0
 24 46  1  0  0  0  0
 24 47  1  0  0  0  0
 24 48  1  0  0  0  0
 25 26  1  0  0  0  0
 25 27  1  0  0  0  0
 25 49  1  0  0  0  0
 26 50  1  0  0  0  0
 26 51  1  0  0  0  0
 26 52  1  0  0  0  0
 27 53  1  0  0  0  0
 27 54  1  0  0  0  0
 27 55  1  0  0  0  0
M  END
> <s_m_source_file>
AV-unprocessed.smi

> <i_m_source_file_index>
183

> <i_lp_mmshare_version>
43012

> <i_f3d_flags>
0

> <s_epik_input>
W0NIM11DKD1PKVtOSF1bQ0gyXVtDSDJdTihbQ0hdKFtDSDNdKVtDSDNdKWMobltjSF1uMSljKGMxMiluW2NIXW4yW0NIMl1bQ0BAXTMoW09IXSlbQ0gyXVtDSDJdT1tDQEhdM1tDSDNd

> <s_epik_cmdline>
J2VwaWtfcHl0aG9uJywgJy1waCcsICc3LjAnLCAnLXRuJywgJzgnLCAnLW1hJywgJzIwMCcsICctbWV0YWxfYmluZGluZycsICctaW1hZScsICc8aW5maWxlLm1hZT4nLCAnLW9tYWUnLCAnPG91dGZpbGUubWFlPic=

> <r_lp_tautomer_probability>
1

> <r_epik_Ionization_Penalty>
0.00156158

> <r_epik_Ionization_Penalty_Charging>
0

> <r_epik_Ionization_Penalty_Neutral>
0.00156158

> <r_epik_State_Penalty>
0.000865808

> <r_epik_Charging_Adjusted_Penalty>
0.000865808

> <i_epik_Tot_Q>
0

> <i_epik_Tot_abs_Q>
0

> <r_epik_Metal_State_Penalty>
-0

> <b_epik_Metal_Only>
0

> <s_lp_Force_Field>
OPLS_2005

> <r_lp_Energy>
29.4164

> <b_lp_Chiralities_Consistent>
1

> <s_lp_Variant>
AV-unprocessed.smi:183-1

> <Gold.Version>
5.8.1

> <Gold.Id.Protein>
6NUR|6NUR_protein|mol2

> <Gold.PLP.Fitness>
54.0822

> <Gold.PLP.PLP>
-46.2375

> <Gold.PLP.part.hbond>
-4.2024

> <Gold.PLP.part.metal>
0.0000

> <Gold.PLP.part.buried>
-7.6295

> <Gold.PLP.part.nonpolar>
-34.8509

> <Gold.PLP.part.repulsive>
0.0418

> <Gold.PLP.ligand.clash>
0.0000

> <Gold.PLP.ligand.torsion>
1.4675

> <Gold.PLP.Chemscore.Hbond>
3.1898

> <Gold.PLP.Chemscore.CHOScore>
0.0000

> <Gold.PLP.Chemscore.Metal>
0.0000

> <Gold.Chemscore.Hbonds>
donor molecule, donor type, donor heavy atom, donor atom, acceptor molecule, acceptor atom, score
      L1  H     4    31       P1  8028  0.59
      P1  H  6896  6909       L1    11  1.00
      P1  H  6931  6943       L1    19  0.93
      P1  H  6934  6947       L1    19  0.35

> <Gold.PLP.Chemscore.Internal.Correction>
1.2104

> <Gold.Rescore>
     Score         DG    S(hbond)    S(metal)    S(lipo)     H(rot)  DE(clash)    DE(int)     intcor
     14.50     -16.41       2.78        0.00      89.46       3.45       0.25       1.66       ----

> <Gold.Chemscore.Fitness>
14.5038

> <Gold.Chemscore.DG>
-16.4141

> <Gold.Chemscore.ZeroCoef>
-5.4800

> <Gold.Chemscore.Hbond>
2.7803

> <Gold.Chemscore.Metal>
0.0000

> <Gold.Chemscore.Lipo>
89.4642

> <Gold.Chemscore.Internal_Hbond>
0.0000

> <Gold.Chemscore.DEClash>
0.2493

> <Gold.Chemscore.DEInternal>
1.6610

> <Gold.Chemscore.Rot>
3.4451

> <Gold.Chemscore.Internal.Correction>
   9.000000E+99

> <Gold.Chemscore.Hbonds>
donor molecule, donor type, donor heavy atom, donor atom, acceptor molecule, acceptor atom, score
      L1  H     4    31       P1  8028  0.46
      P1  H  6896  6909       L1    11  0.86
      P1  H  6931  6943       L1    19  0.53
      P1  H  6934  6947       L1    19  0.29

> <Gold.Chemscore.Hbond.Weighted>
-9.2862

> <Gold.Chemscore.Metal.Weighted>
-0.0000

> <Gold.Chemscore.Lipo.Weighted>
-10.4673

> <Gold.Chemscore.Internal_Hbond.Weighted>
0.0000

> <Gold.Chemscore.DEClash.Weighted>
0.2493

> <Gold.Chemscore.DEInternal.Weighted>
1.6610

> <Gold.Chemscore.Rot.Weighted>
8.8194

> <Gold.Chemscore.Internal.Correction.Weighted>
   9.000000E+99

> <Gold.Protein.RotatedTorsions>
[ 6907 6896 6895 6894 ] final   91.53 input  -60.11 | X-H torsion
[ 7974 7965 7964 7962 ] final   50.15 input  175.53 | X-H torsion
[ 8008 7997 7996 7995 ] final   58.01 input   59.86 | X-H torsion
[ 10167 10162 10161 10158 ] final  108.13 input  -65.29 | X-H torsion
[ 10718 10713 10712 10709 ] final  -77.96 input   66.30 | X-H torsion
[ 10763 10752 10751 10750 ] final   78.99 input  -60.55 | X-H torsion
[ 11005 11000 10999 10996 ] final -107.85 input  -57.11 | X-H torsion

> <Gold.Protein.ActiveResidues>
 VAL166  LYS551  ARG553  GLY616  TRP617  ASP618  TYR619  PRO620  LYS621  CYS622 
 ASP623  PHE694  ASN695  SER759  ASP760  ASP761  ALA762  ILE779  LEU786  VAL792 
 PHE793  MET794  SER795  GLU796  ALA797  LYS798  CYS799  TRP800  GLU811  SER814 

> <Gold.Protein.RotatedAtoms>
  152.5450  134.1643  159.8570 H   0  0  0  0  0  0  0  0  0  0  0  0  # atno 6907 bound_to 6896
  151.1658  133.4808  159.2601 H   0  0  0  0  0  0  0  0  0  0  0  0  # atno 6908 bound_to 6896
  151.1325  135.0149  159.8644 H   0  0  0  0  0  0  0  0  0  0  0  0  # atno 6909 bound_to 6896
  146.0040  139.4470  142.9997 H   0  0  0  0  0  0  0  0  0  0  0  0  # atno 7974 bound_to 7965
  155.5431  140.3484  155.4451 H   0  0  0  0  0  0  0  0  0  0  0  0  # atno 8008 bound_to 7997
  156.0637  140.1346  156.9937 H   0  0  0  0  0  0  0  0  0  0  0  0  # atno 8009 bound_to 7997
  154.4492  140.0980  156.6540 H   0  0  0  0  0  0  0  0  0  0  0  0  # atno 8010 bound_to 7997
  139.6871  144.7112  151.1413 H   0  0  0  0  0  0  0  0  0  0  0  0  # atno 10167 bound_to 10162
  156.0130  130.4505  150.3424 H   0  0  0  0  0  0  0  0  0  0  0  0  # atno 10718 bound_to 10713
  153.0917  135.4856  154.8702 H   0  0  0  0  0  0  0  0  0  0  0  0  # atno 10763 bound_to 10752
  154.7277  135.3053  154.8946 H   0  0  0  0  0  0  0  0  0  0  0  0  # atno 10764 bound_to 10752
  153.9591  135.6814  153.4798 H   0  0  0  0  0  0  0  0  0  0  0  0  # atno 10765 bound_to 10752
  141.0932  133.9017  157.2025 H   0  0  0  0  0  0  0  0  0  0  0  0  # atno 11005 bound_to 11000
  145.7444  140.9996  143.1284 LP  0  0  0  0  0  0  0  0  0  0  0  0  # atno 17320 bound_to 7965
  144.6929  139.9138  143.7464 LP  0  0  0  0  0  0  0  0  0  0  0  0  # atno 17321 bound_to 7965
  140.7671  143.5613  150.9096 LP  0  0  0  0  0  0  0  0  0  0  0  0  # atno 17342 bound_to 10162
  139.9288  143.6517  152.3081 LP  0  0  0  0  0  0  0  0  0  0  0  0  # atno 17343 bound_to 10162
  157.1519  131.0323  151.2881 LP  0  0  0  0  0  0  0  0  0  0  0  0  # atno 17370 bound_to 10713
  157.4385  130.7530  149.7049 LP  0  0  0  0  0  0  0  0  0  0  0  0  # atno 17371 bound_to 10713
  139.9763  135.0113  156.9638 LP  0  0  0  0  0  0  0  0  0  0  0  0  # atno 17394 bound_to 11000
  140.5202  134.0915  155.7290 LP  0  0  0  0  0  0  0  0  0  0  0  0  # atno 17395 bound_to 11000

$$$$
