AV-unprocessed.smi:1669|AV-procd|sdf|6686|dock6
  -GOLD-   22720 7413D 1   1.00000     0.00000
 Structure written by MMmdl.
 48 50  0  0  0  0  0  0  0  0  2 V2000
  146.4420  138.7556  152.0755 C   0  0  0  0  0  0  0  0  0  0  0  0
  147.0711  138.1192  153.2566 N   0  3  2  0  0  0  0  0  0  0  0  0
  146.1749  137.1412  153.9257 C   0  0  0  0  0  0  0  0  0  0  0  0
  145.6618  136.0902  152.9581 C   0  0  0  0  0  0  0  0  0  0  0  0
  144.5725  136.3865  152.1115 C   0  0  0  0  0  0  0  0  0  0  0  0
  144.0917  135.4160  151.2112 C   0  0  0  0  0  0  0  0  0  0  0  0
  144.6988  134.1465  151.1531 C   0  0  0  0  0  0  0  0  0  0  0  0
  145.7876  133.8477  151.9952 C   0  0  0  0  0  0  0  0  0  0  0  0
  146.2692  134.8178  152.8955 C   0  0  0  0  0  0  0  0  0  0  0  0
  147.6399  139.1214  154.1931 C   0  0  0  0  0  0  0  0  0  0  0  0
  149.1724  139.0045  154.3115 C   0  0  1  0  0  0  0  0  0  0  0  0
  149.6769  138.4492  153.1124 O   0  0  0  0  0  0  0  0  0  0  0  0
  149.8313  140.3749  154.5618 C   0  0  0  0  0  0  0  0  0  0  0  0
  150.8580  140.3200  155.5946 N   0  0  0  0  0  0  0  0  0  0  0  0
  151.9561  139.5240  155.6583 C   0  0  0  0  0  0  0  0  0  0  0  0
  152.2849  138.5224  154.5938 C   0  0  0  0  0  0  0  0  0  0  0  0
  152.0065  137.1968  154.9904 O   0  0  0  0  0  0  0  0  0  0  0  0
  152.7293  139.6894  156.7318 N   0  0  0  0  0  0  0  0  0  0  0  0
  152.0776  140.6889  157.4272 C   0  0  0  0  0  0  0  0  0  0  0  0
  152.3968  141.3145  158.6534 C   0  0  0  0  0  0  0  0  0  0  0  0
  151.5660  142.3276  159.1754 C   0  0  0  0  0  0  0  0  0  0  0  0
  150.4071  142.7297  158.4799 C   0  0  0  0  0  0  0  0  0  0  0  0
  150.0708  142.1195  157.2563 C   0  0  0  0  0  0  0  0  0  0  0  0
  150.9028  141.1075  156.7408 C   0  0  0  0  0  0  0  0  0  0  0  0
  145.5852  139.3635  152.3694 H   0  0  0  0  0  0  0  0  0  0  0  0
  146.1024  138.0105  151.3563 H   0  0  0  0  0  0  0  0  0  0  0  0
  147.1552  139.3984  151.5584 H   0  0  0  0  0  0  0  0  0  0  0  0
  146.7012  136.6191  154.7246 H   0  0  0  0  0  0  0  0  0  0  0  0
  145.3425  137.6610  154.4030 H   0  0  0  0  0  0  0  0  0  0  0  0
  144.1019  137.3583  152.1512 H   0  0  0  0  0  0  0  0  0  0  0  0
  143.2572  135.6448  150.5645 H   0  0  0  0  0  0  0  0  0  0  0  0
  144.3303  133.4025  150.4620 H   0  0  0  0  0  0  0  0  0  0  0  0
  146.2534  132.8741  151.9495 H   0  0  0  0  0  0  0  0  0  0  0  0
  147.1044  134.5804  153.5384 H   0  0  0  0  0  0  0  0  0  0  0  0
  147.3970  140.1307  153.8558 H   0  0  0  0  0  0  0  0  0  0  0  0
  147.1670  139.0081  155.1699 H   0  0  0  0  0  0  0  0  0  0  0  0
  149.4403  138.3345  155.1279 H   0  0  0  0  0  0  0  0  0  0  0  0
  149.6719  139.1193  152.4451 H   0  0  0  0  0  0  0  0  0  0  0  0
  150.2551  140.7715  153.6394 H   0  0  0  0  0  0  0  0  0  0  0  0
  149.0765  141.0955  154.8792 H   0  0  0  0  0  0  0  0  0  0  0  0
  151.7033  138.7451  153.6983 H   0  0  0  0  0  0  0  0  0  0  0  0
  153.3344  138.6077  154.3128 H   0  0  0  0  0  0  0  0  0  0  0  0
  152.1332  137.1289  155.9240 H   0  0  0  0  0  0  0  0  0  0  0  0
  153.2828  141.0147  159.1933 H   0  0  0  0  0  0  0  0  0  0  0  0
  151.8198  142.7993  160.1134 H   0  0  0  0  0  0  0  0  0  0  0  0
  149.7776  143.5076  158.8867 H   0  0  0  0  0  0  0  0  0  0  0  0
  149.1845  142.4265  156.7217 H   0  0  0  0  0  0  0  0  0  0  0  0
  147.8617  137.5965  152.9058 H   0  0  0  0  0  0  0  0  0  0  0  0
  1  2  1  0  0  0  0
  1 25  1  0  0  0  0
  1 26  1  0  0  0  0
  1 27  1  0  0  0  0
  2  3  1  0  0  0  0
  2 10  1  0  0  0  0
  2 48  1  0  0  0  0
  3  4  1  0  0  0  0
  3 28  1  0  0  0  0
  3 29  1  0  0  0  0
  4  9  1  0  0  0  0
  4  5  2  0  0  0  0
  5  6  1  0  0  0  0
  5 30  1  0  0  0  0
  6  7  2  0  0  0  0
  6 31  1  0  0  0  0
  7  8  1  0  0  0  0
  7 32  1  0  0  0  0
  8  9  2  0  0  0  0
  8 33  1  0  0  0  0
  9 34  1  0  0  0  0
 10 11  1  0  0  0  0
 10 35  1  0  0  0  0
 10 36  1  0  0  0  0
 11 12  1  0  0  0  0
 11 13  1  0  0  0  0
 11 37  1  0  0  0  0
 12 38  1  0  0  0  0
 13 14  1  0  0  0  0
 13 39  1  0  0  0  0
 13 40  1  0  0  0  0
 14 24  1  0  0  0  0
 14 15  1  0  0  0  0
 15 16  1  0  0  0  0
 15 18  2  0  0  0  0
 16 17  1  0  0  0  0
 16 41  1  0  0  0  0
 16 42  1  0  0  0  0
 17 43  1  0  0  0  0
 18 19  1  0  0  0  0
 19 24  2  0  0  0  0
 19 20  1  0  0  0  0
 20 21  2  0  0  0  0
 20 44  1  0  0  0  0
 21 22  1  0  0  0  0
 21 45  1  0  0  0  0
 22 23  2  0  0  0  0
 22 46  1  0  0  0  0
 23 24  1  0  0  0  0
 23 47  1  0  0  0  0
M  CHG  1   2   1
M  END
> <s_m_source_file>
AV-unprocessed.smi

> <i_m_source_file_index>
1669

> <i_lp_mmshare_version>
43012

> <i_f3d_flags>
0

> <s_epik_input>
W2NIXTFbY0hdW2NIXVtjSF1bY0hdYzFbQ0gyXU4oW0NIM10pW0NIMl1bQ0BIXShbT0hdKVtDSDJdbihjKG4yKVtDSDJdW09IXSljKGMyMylbY0hdW2NIXVtjSF1bY0hdMw==

> <s_epik_cmdline>
J2VwaWtfcHl0aG9uJywgJy1waCcsICc3LjAnLCAnLXRuJywgJzgnLCAnLW1hJywgJzIwMCcsICctbWV0YWxfYmluZGluZycsICctaW1hZScsICc8aW5maWxlLm1hZT4nLCAnLW9tYWUnLCAnPG91dGZpbGUubWFlPic=

> <r_epik_Ionization_Penalty>
0.0949884

> <r_epik_Ionization_Penalty_Charging>
0.0475377

> <r_epik_Ionization_Penalty_Neutral>
0.0474507

> <r_epik_State_Penalty>
0.078247

> <r_epik_Charging_Adjusted_Penalty>
0.125785

> <i_epik_Tot_Q>
1

> <i_epik_Tot_abs_Q>
1

> <r_epik_Metal_State_Penalty>
0.0403451

> <b_epik_Metal_Only>
0

> <s_lp_Force_Field>
OPLS_2005

> <r_lp_Energy>
16.6823

> <b_lp_Chiralities_Consistent>
1

> <s_lp_Variant>
AV-unprocessed.smi:1669-4

> <Gold.Version>
5.8.1

> <Gold.Id.Protein>
6NUR|6NUR_protein|mol2

> <Gold.PLP.Fitness>
55.5634

> <Gold.PLP.PLP>
-44.9567

> <Gold.PLP.part.hbond>
-5.5627

> <Gold.PLP.part.metal>
0.0000

> <Gold.PLP.part.buried>
-2.3521

> <Gold.PLP.part.nonpolar>
-37.8116

> <Gold.PLP.part.repulsive>
0.0286

> <Gold.PLP.ligand.clash>
0.0000

> <Gold.PLP.ligand.torsion>
2.3143

> <Gold.PLP.Chemscore.Hbond>
4.9600

> <Gold.PLP.Chemscore.CHOScore>
0.0000

> <Gold.PLP.Chemscore.Metal>
0.0000

> <Gold.Chemscore.Hbonds>
donor molecule, donor type, donor heavy atom, donor atom, acceptor molecule, acceptor atom, score
      L1  H     2    48       P1  7948  2.00
      L1  H    12    38       P1  7957  1.00
      P1  H  7997  8008       L1    18  1.00
      P1  H 10752 10764       L1    17  0.58

> <Gold.PLP.Chemscore.Internal.Correction>
0.3554

> <Gold.Rescore>
     Score         DG    S(hbond)    S(metal)    S(lipo)     H(rot)  DE(clash)    DE(int)     intcor
     17.48     -20.19       3.41        0.00      97.89       3.17       0.27       2.44       ----

> <Gold.Chemscore.Fitness>
17.4829

> <Gold.Chemscore.DG>
-20.1919

> <Gold.Chemscore.ZeroCoef>
-5.4800

> <Gold.Chemscore.Hbond>
3.4078

> <Gold.Chemscore.Metal>
0.0000

> <Gold.Chemscore.Lipo>
97.8878

> <Gold.Chemscore.Internal_Hbond>
0.0000

> <Gold.Chemscore.DEClash>
0.2708

> <Gold.Chemscore.DEInternal>
2.4382

> <Gold.Chemscore.Rot>
3.1731

> <Gold.Chemscore.Internal.Correction>
   9.000000E+99

> <Gold.Chemscore.Hbonds>
donor molecule, donor type, donor heavy atom, donor atom, acceptor molecule, acceptor atom, score
      L1  H     2    48       P1  7948  0.93
      L1  H    12    38       P1  7957  0.85
      P1  H  7997  8008       L1    18  0.71
      P1  H 10752 10764       L1    17  0.05

> <Gold.Chemscore.Hbond.Weighted>
-11.3821

> <Gold.Chemscore.Metal.Weighted>
-0.0000

> <Gold.Chemscore.Lipo.Weighted>
-11.4529

> <Gold.Chemscore.Internal_Hbond.Weighted>
0.0000

> <Gold.Chemscore.DEClash.Weighted>
0.2708

> <Gold.Chemscore.DEInternal.Weighted>
2.4382

> <Gold.Chemscore.Rot.Weighted>
8.1230

> <Gold.Chemscore.Internal.Correction.Weighted>
   9.000000E+99

> <Gold.Protein.RotatedTorsions>
[ 6907 6896 6895 6894 ] final  162.30 input  -60.11 | X-H torsion
[ 7974 7965 7964 7962 ] final  135.71 input  175.53 | X-H torsion
[ 8008 7997 7996 7995 ] final  -45.33 input   59.86 | X-H torsion
[ 10167 10162 10161 10158 ] final   60.80 input  -65.29 | X-H torsion
[ 10718 10713 10712 10709 ] final  165.25 input   66.30 | X-H torsion
[ 10763 10752 10751 10750 ] final  -56.56 input  -60.55 | X-H torsion
[ 11005 11000 10999 10996 ] final  -27.00 input  -57.11 | X-H torsion

> <Gold.Protein.ActiveResidues>
 VAL166  LYS551  ARG553  GLY616  TRP617  ASP618  TYR619  PRO620  LYS621  CYS622 
 ASP623  PHE694  ASN695  SER759  ASP760  ASP761  ALA762  ILE779  LEU786  VAL792 
 PHE793  MET794  SER795  GLU796  ALA797  LYS798  CYS799  TRP800  GLU811  SER814 

> <Gold.Protein.RotatedAtoms>
  151.9425  133.3642  159.3970 H   0  0  0  0  0  0  0  0  0  0  0  0  # atno 6907 bound_to 6896
  150.6995  134.4424  159.5308 H   0  0  0  0  0  0  0  0  0  0  0  0  # atno 6908 bound_to 6896
  152.2084  134.8524  160.0551 H   0  0  0  0  0  0  0  0  0  0  0  0  # atno 6909 bound_to 6896
  144.9636  139.4683  143.5467 H   0  0  0  0  0  0  0  0  0  0  0  0  # atno 7974 bound_to 7965
  154.4000  140.1399  156.3829 H   0  0  0  0  0  0  0  0  0  0  0  0  # atno 8008 bound_to 7997
  155.7986  140.3476  155.5369 H   0  0  0  0  0  0  0  0  0  0  0  0  # atno 8009 bound_to 7997
  155.8506  140.0941  157.1667 H   0  0  0  0  0  0  0  0  0  0  0  0  # atno 8010 bound_to 7997
  140.1616  144.4364  150.6706 H   0  0  0  0  0  0  0  0  0  0  0  0  # atno 10167 bound_to 10162
  157.0829  131.0397  151.2568 H   0  0  0  0  0  0  0  0  0  0  0  0  # atno 10718 bound_to 10713
  154.2085  135.6398  153.5108 H   0  0  0  0  0  0  0  0  0  0  0  0  # atno 10763 bound_to 10752
  152.9995  135.5468  154.6240 H   0  0  0  0  0  0  0  0  0  0  0  0  # atno 10764 bound_to 10752
  154.5671  135.2913  155.0837 H   0  0  0  0  0  0  0  0  0  0  0  0  # atno 10765 bound_to 10752
  140.9080  133.7480  156.0632 H   0  0  0  0  0  0  0  0  0  0  0  0  # atno 11005 bound_to 11000
  146.3361  139.8802  142.8825 LP  0  0  0  0  0  0  0  0  0  0  0  0  # atno 17320 bound_to 7965
  145.2663  141.0094  143.3797 LP  0  0  0  0  0  0  0  0  0  0  0  0  # atno 17321 bound_to 7965
  140.6639  143.2261  151.5790 LP  0  0  0  0  0  0  0  0  0  0  0  0  # atno 17342 bound_to 10162
  139.5378  144.2731  152.1289 LP  0  0  0  0  0  0  0  0  0  0  0  0  # atno 17343 bound_to 10162
  157.4785  130.7751  149.7391 LP  0  0  0  0  0  0  0  0  0  0  0  0  # atno 17370 bound_to 10713
  155.9919  130.3935  150.2966 LP  0  0  0  0  0  0  0  0  0  0  0  0  # atno 17371 bound_to 10713
  140.8147  134.3359  157.5401 LP  0  0  0  0  0  0  0  0  0  0  0  0  # atno 17394 bound_to 11000
  139.8752  134.9274  156.3425 LP  0  0  0  0  0  0  0  0  0  0  0  0  # atno 17395 bound_to 11000

$$$$
