AV-unprocessed.smi:1072|AV-procd|sdf|4685|dock7
  -GOLD-   22720 3203D 1   1.00000     0.00000
 Structure written by MMmdl.
 46 47  0  0  0  0  0  0  0  0  1 V2000
  146.2254  143.1307  154.1264 C   0  0  0  0  0  0  0  0  0  0  0  0
  147.1319  141.9188  154.1182 C   0  0  0  0  0  0  0  0  0  0  0  0
  146.5523  140.7941  153.5541 N   0  0  0  0  0  0  0  0  0  0  0  0
  147.3044  139.6336  153.5055 C   0  0  0  0  0  0  0  0  0  0  0  0
  146.5949  138.4470  152.8763 C   0  0  0  0  0  0  0  0  0  0  0  0
  148.5724  139.5972  153.9884 C   0  0  0  0  0  0  0  0  0  0  0  0
  149.4355  138.3365  153.9480 C   0  0  0  0  0  0  0  0  0  0  0  0
  149.1092  137.2719  154.9981 C   0  0  0  0  0  0  0  0  0  0  0  0
  148.9604  137.5925  156.1770 O   0  0  0  0  0  0  0  0  0  0  0  0
  149.0080  136.0102  154.5439 N   0  0  0  0  0  0  0  0  0  0  0  0
  148.7224  134.7828  155.3016 C   0  0  1  0  0  0  0  0  0  0  0  0
  149.3077  134.8987  156.7259 C   0  0  0  0  0  0  0  0  0  0  0  0
  147.1997  134.4900  155.3656 C   0  0  0  0  0  0  0  0  0  0  0  0
  146.5855  134.2136  153.9816 C   0  0  0  0  0  0  0  0  0  0  0  0
  147.2969  133.0468  153.2732 C   0  0  1  0  0  0  0  0  0  0  0  0
  146.6903  132.7754  151.8896 C   0  0  0  0  0  0  0  0  0  0  0  0
  148.8101  133.3161  153.1855 C   0  0  0  0  0  0  0  0  0  0  0  0
  149.4169  133.6079  154.5713 C   0  0  0  0  0  0  0  0  0  0  0  0
  149.1423  140.8356  154.5701 C   0  0  0  0  0  0  0  0  0  0  0  0
  150.2910  140.8717  155.0088 O   0  0  0  0  0  0  0  0  0  0  0  0
  148.3340  141.9837  154.6045 N   0  0  0  0  0  0  0  0  0  0  0  0
  145.6143  140.7784  153.1801 H   0  0  0  0  0  0  0  0  0  0  0  0
  146.6541  143.9335  154.7277 H   0  0  0  0  0  0  0  0  0  0  0  0
  145.2503  142.8779  154.5442 H   0  0  0  0  0  0  0  0  0  0  0  0
  146.0831  143.5027  153.1115 H   0  0  0  0  0  0  0  0  0  0  0  0
  146.5032  137.6327  153.5951 H   0  0  0  0  0  0  0  0  0  0  0  0
  147.1509  138.0843  152.0114 H   0  0  0  0  0  0  0  0  0  0  0  0
  145.5911  138.7110  152.5410 H   0  0  0  0  0  0  0  0  0  0  0  0
  150.4776  138.6350  154.0677 H   0  0  0  0  0  0  0  0  0  0  0  0
  149.3933  137.8692  152.9638 H   0  0  0  0  0  0  0  0  0  0  0  0
  149.1465  135.8799  153.5522 H   0  0  0  0  0  0  0  0  0  0  0  0
  149.1883  133.9660  157.2781 H   0  0  0  0  0  0  0  0  0  0  0  0
  148.8166  135.6772  157.3097 H   0  0  0  0  0  0  0  0  0  0  0  0
  150.3735  135.1286  156.6996 H   0  0  0  0  0  0  0  0  0  0  0  0
  147.0296  133.6186  155.9996 H   0  0  0  0  0  0  0  0  0  0  0  0
  146.6617  135.3061  155.8475 H   0  0  0  0  0  0  0  0  0  0  0  0
  145.5252  133.9857  154.0954 H   0  0  0  0  0  0  0  0  0  0  0  0
  146.6391  135.1126  153.3662 H   0  0  0  0  0  0  0  0  0  0  0  0
  147.1511  132.1494  153.8763 H   0  0  0  0  0  0  0  0  0  0  0  0
  146.7953  133.6400  151.2335 H   0  0  0  0  0  0  0  0  0  0  0  0
  145.6278  132.5426  151.9659 H   0  0  0  0  0  0  0  0  0  0  0  0
  147.1785  131.9287  151.4064 H   0  0  0  0  0  0  0  0  0  0  0  0
  149.3137  132.4552  152.7447 H   0  0  0  0  0  0  0  0  0  0  0  0
  148.9991  134.1546  152.5139 H   0  0  0  0  0  0  0  0  0  0  0  0
  150.4844  133.8078  154.4662 H   0  0  0  0  0  0  0  0  0  0  0  0
  149.3414  132.7051  155.1794 H   0  0  0  0  0  0  0  0  0  0  0  0
  1 23  1  0  0  0  0
  1 24  1  0  0  0  0
  1 25  1  0  0  0  0
  1  2  1  0  0  0  0
  2  3  1  0  0  0  0
  2 21  2  0  0  0  0
  3  4  1  0  0  0  0
  3 22  1  0  0  0  0
  4  6  2  0  0  0  0
  4  5  1  0  0  0  0
  5 26  1  0  0  0  0
  5 27  1  0  0  0  0
  5 28  1  0  0  0  0
  6 19  1  0  0  0  0
  6  7  1  0  0  0  0
  7  8  1  0  0  0  0
  7 29  1  0  0  0  0
  7 30  1  0  0  0  0
  8  9  2  0  0  0  0
  8 10  1  0  0  0  0
 10 11  1  0  0  0  0
 10 31  1  0  0  0  0
 11 18  1  0  0  0  0
 11 12  1  0  0  0  0
 11 13  1  0  0  0  0
 12 32  1  0  0  0  0
 12 33  1  0  0  0  0
 12 34  1  0  0  0  0
 13 14  1  0  0  0  0
 13 35  1  0  0  0  0
 13 36  1  0  0  0  0
 14 15  1  0  0  0  0
 14 37  1  0  0  0  0
 14 38  1  0  0  0  0
 15 16  1  0  0  0  0
 15 17  1  0  0  0  0
 15 39  1  0  0  0  0
 16 40  1  0  0  0  0
 16 41  1  0  0  0  0
 16 42  1  0  0  0  0
 17 18  1  0  0  0  0
 17 43  1  0  0  0  0
 17 44  1  0  0  0  0
 18 45  1  0  0  0  0
 18 46  1  0  0  0  0
 19 20  2  0  0  0  0
 19 21  1  0  0  0  0
M  END
> <s_m_source_file>
AV-unprocessed.smi

> <i_m_source_file_index>
1072

> <i_lp_mmshare_version>
43012

> <i_f3d_flags>
0

> <s_epik_input>
W0NIM11jMW5jKFtDSDNdKWMoYyg9TylbbkhdMSlbQ0gyXUMoPU8pW05IXVtDQEBdMihbQ0gzXSlbQ0gyXVtDSDJdW0NAQEhdKFtDSDNdKVtDSDJdW0NIMl0y

> <s_epik_cmdline>
J2VwaWtfcHl0aG9uJywgJy1waCcsICc3LjAnLCAnLXRuJywgJzgnLCAnLW1hJywgJzIwMCcsICctbWV0YWxfYmluZGluZycsICctaW1hZScsICc8aW5maWxlLm1hZT4nLCAnLW9tYWUnLCAnPG91dGZpbGUubWFlPic=

> <r_lp_tautomer_probability>
0.156392

> <r_epik_Ionization_Penalty>
0.0131066

> <r_epik_Ionization_Penalty_Charging>
0.0129643

> <r_epik_Ionization_Penalty_Neutral>
0.000142248

> <r_epik_State_Penalty>
1.15342

> <r_epik_Charging_Adjusted_Penalty>
1.16638

> <i_epik_Tot_Q>
0

> <i_epik_Tot_abs_Q>
0

> <r_epik_Metal_State_Penalty>
1.30766

> <b_epik_Metal_Only>
0

> <s_lp_Force_Field>
OPLS_2005

> <r_lp_Energy>
14.6826

> <b_lp_Chiralities_Consistent>
1

> <s_lp_Variant>
AV-unprocessed.smi:1072-3

> <Gold.Version>
5.8.1

> <Gold.Id.Protein>
6NUR|6NUR_protein|mol2

> <Gold.PLP.Fitness>
38.1658

> <Gold.PLP.PLP>
-31.7037

> <Gold.PLP.part.hbond>
-3.0283

> <Gold.PLP.part.metal>
0.0000

> <Gold.PLP.part.buried>
-0.8437

> <Gold.PLP.part.nonpolar>
-29.1239

> <Gold.PLP.part.repulsive>
1.0985

> <Gold.PLP.ligand.clash>
0.0000

> <Gold.PLP.ligand.torsion>
0.9236

> <Gold.PLP.Chemscore.Hbond>
2.7680

> <Gold.PLP.Chemscore.CHOScore>
0.0000

> <Gold.PLP.Chemscore.Metal>
0.0000

> <Gold.Chemscore.Hbonds>
donor molecule, donor type, donor heavy atom, donor atom, acceptor molecule, acceptor atom, score
      L1  H     3    22       P1 10175  0.89
      L1  H    10    31       P1  7948  1.00
      P1  H  7989  7998       L1    20  0.78

> <Gold.PLP.Chemscore.Internal.Correction>
0.0054

> <Gold.Rescore>
     Score         DG    S(hbond)    S(metal)    S(lipo)     H(rot)  DE(clash)    DE(int)     intcor
     14.47     -17.43       2.47        0.00      63.83       1.47       0.65       2.31       ----

> <Gold.Chemscore.Fitness>
14.4721

> <Gold.Chemscore.DG>
-17.4292

> <Gold.Chemscore.ZeroCoef>
-5.4800

> <Gold.Chemscore.Hbond>
2.4674

> <Gold.Chemscore.Metal>
0.0000

> <Gold.Chemscore.Lipo>
63.8346

> <Gold.Chemscore.Internal_Hbond>
0.0000

> <Gold.Chemscore.DEClash>
0.6501

> <Gold.Chemscore.DEInternal>
2.3070

> <Gold.Chemscore.Rot>
1.4690

> <Gold.Chemscore.Internal.Correction>
   9.000000E+99

> <Gold.Chemscore.Hbonds>
donor molecule, donor type, donor heavy atom, donor atom, acceptor molecule, acceptor atom, score
      L1  H     3    22       P1 10175  0.61
      L1  H    10    31       P1  7948  0.81
      P1  H  7989  7998       L1    20  0.55

> <Gold.Chemscore.Hbond.Weighted>
-8.2412

> <Gold.Chemscore.Metal.Weighted>
-0.0000

> <Gold.Chemscore.Lipo.Weighted>
-7.4686

> <Gold.Chemscore.Internal_Hbond.Weighted>
0.0000

> <Gold.Chemscore.DEClash.Weighted>
0.6501

> <Gold.Chemscore.DEInternal.Weighted>
2.3070

> <Gold.Chemscore.Rot.Weighted>
3.7607

> <Gold.Chemscore.Internal.Correction.Weighted>
   9.000000E+99

> <Gold.Protein.RotatedTorsions>
[ 6907 6896 6895 6894 ] final  -85.79 input  -60.11 | X-H torsion
[ 7974 7965 7964 7962 ] final   12.13 input  175.53 | X-H torsion
[ 8008 7997 7996 7995 ] final   46.00 input   59.86 | X-H torsion
[ 10167 10162 10161 10158 ] final   -7.41 input  -65.29 | X-H torsion
[ 10718 10713 10712 10709 ] final -172.96 input   66.30 | X-H torsion
[ 10763 10752 10751 10750 ] final  -48.12 input  -60.55 | X-H torsion
[ 11005 11000 10999 10996 ] final  -66.71 input  -57.11 | X-H torsion

> <Gold.Protein.ActiveResidues>
 VAL166  LYS551  ARG553  GLY616  TRP617  ASP618  TYR619  PRO620  LYS621  CYS622 
 ASP623  PHE694  ASN695  SER759  ASP760  ASP761  ALA762  ILE779  LEU786  VAL792 
 PHE793  MET794  SER795  GLU796  ALA797  LYS798  CYS799  TRP800  GLU811  SER814 

> <Gold.Protein.RotatedAtoms>
  150.6869  134.3150  159.4762 H   0  0  0  0  0  0  0  0  0  0  0  0  # atno 6907 bound_to 6896
  152.1032  134.9324  160.0578 H   0  0  0  0  0  0  0  0  0  0  0  0  # atno 6908 bound_to 6896
  152.0595  133.4021  159.4449 H   0  0  0  0  0  0  0  0  0  0  0  0  # atno 6909 bound_to 6896
  146.2357  139.9382  142.8487 H   0  0  0  0  0  0  0  0  0  0  0  0  # atno 7974 bound_to 7965
  155.3452  140.3410  155.4239 H   0  0  0  0  0  0  0  0  0  0  0  0  # atno 8008 bound_to 7997
  156.1792  140.1658  156.8341 H   0  0  0  0  0  0  0  0  0  0  0  0  # atno 8009 bound_to 7997
  154.5315  140.0744  156.8336 H   0  0  0  0  0  0  0  0  0  0  0  0  # atno 8010 bound_to 7997
  140.7028  143.6084  150.8728 H   0  0  0  0  0  0  0  0  0  0  0  0  # atno 10167 bound_to 10162
  156.7633  130.9421  151.3118 H   0  0  0  0  0  0  0  0  0  0  0  0  # atno 10718 bound_to 10713
  154.0726  135.6602  153.4826 H   0  0  0  0  0  0  0  0  0  0  0  0  # atno 10763 bound_to 10752
  153.0385  135.5161  154.7552 H   0  0  0  0  0  0  0  0  0  0  0  0  # atno 10764 bound_to 10752
  154.6622  135.3017  154.9819 H   0  0  0  0  0  0  0  0  0  0  0  0  # atno 10765 bound_to 10752
  141.1489  133.6704  156.6181 H   0  0  0  0  0  0  0  0  0  0  0  0  # atno 11005 bound_to 11000
  145.1978  140.9841  143.4173 LP  0  0  0  0  0  0  0  0  0  0  0  0  # atno 17320 bound_to 7965
  144.9800  139.3793  143.6267 LP  0  0  0  0  0  0  0  0  0  0  0  0  # atno 17321 bound_to 7965
  139.9807  143.5954  152.2944 LP  0  0  0  0  0  0  0  0  0  0  0  0  # atno 17342 bound_to 10162
  139.6574  144.7662  151.2029 LP  0  0  0  0  0  0  0  0  0  0  0  0  # atno 17343 bound_to 10162
  157.6724  130.9063  150.0072 LP  0  0  0  0  0  0  0  0  0  0  0  0  # atno 17370 bound_to 10713
  156.1325  130.3643  149.9709 LP  0  0  0  0  0  0  0  0  0  0  0  0  # atno 17371 bound_to 10713
  140.3562  134.7727  157.4502 LP  0  0  0  0  0  0  0  0  0  0  0  0  # atno 17394 bound_to 11000
  140.0821  134.5716  155.8529 LP  0  0  0  0  0  0  0  0  0  0  0  0  # atno 17395 bound_to 11000

$$$$
