AV-unprocessed.smi:1627|AV-procd|sdf|6518|dock6
  -GOLD-   22720 7193D 1   1.00000     0.00000
 Structure written by MMmdl.
 44 45  0  0  0  0  0  0  0  0  2 V2000
  146.4401  139.1076  150.9507 C   0  0  0  0  0  0  0  0  0  0  0  0
  147.0097  138.3596  152.1652 C   0  0  2  0  0  0  0  0  0  0  0  0
  146.0244  137.4225  152.5920 O   0  0  0  0  0  0  0  0  0  0  0  0
  145.6512  136.4425  151.6283 C   0  0  0  0  0  0  0  0  0  0  0  0
  144.5775  135.5256  152.2265 C   0  0  0  0  0  0  0  0  0  0  0  0
  143.5522  136.2658  152.6462 F   0  0  0  0  0  0  0  0  0  0  0  0
  144.1386  134.6694  151.3044 F   0  0  0  0  0  0  0  0  0  0  0  0
  145.0721  134.8524  153.2651 F   0  0  0  0  0  0  0  0  0  0  0  0
  147.3536  139.3306  153.3067 C   0  0  0  0  0  0  0  0  0  0  0  0
  146.4652  140.0239  153.7998 O   0  0  0  0  0  0  0  0  0  0  0  0
  148.6430  139.3396  153.6952 N   0  0  0  0  0  0  0  0  0  0  0  0
  149.2773  140.1064  154.7121 C   0  0  0  0  0  0  0  0  0  0  0  0
  150.3318  139.4926  155.4235 C   0  0  0  0  0  0  0  0  0  0  0  0
  150.9936  140.1991  156.4486 C   0  0  0  0  0  0  0  0  0  0  0  0
  150.5872  141.5179  156.7527 C   0  0  0  0  0  0  0  0  0  0  0  0
  151.1790  142.2967  157.7556 N   0  0  0  0  0  0  0  0  0  0  0  0
  151.5428  143.6350  157.2967 C   0  0  0  0  0  0  0  0  0  0  0  0
  152.0110  144.5093  158.4732 C   0  0  0  0  0  0  0  0  0  0  0  0
  153.1477  143.8247  159.2492 C   0  0  0  0  0  0  0  0  0  0  0  0
  152.7188  142.4138  159.6825 C   0  0  0  0  0  0  0  0  0  0  0  0
  152.2376  141.5921  158.4744 C   0  0  0  0  0  0  0  0  0  0  0  0
  149.5738  142.0720  156.0534 N   0  3  0  0  0  0  0  0  0  0  0  0
  148.9138  141.4304  155.0646 C   0  0  0  0  0  0  0  0  0  0  0  0
  147.1424  139.8555  150.5808 H   0  0  0  0  0  0  0  0  0  0  0  0
  145.5055  139.6156  151.1919 H   0  0  0  0  0  0  0  0  0  0  0  0
  146.2355  138.4162  150.1331 H   0  0  0  0  0  0  0  0  0  0  0  0
  147.9063  137.8241  151.8466 H   0  0  0  0  0  0  0  0  0  0  0  0
  145.2604  136.9309  150.7344 H   0  0  0  0  0  0  0  0  0  0  0  0
  146.5109  135.8444  151.3242 H   0  0  0  0  0  0  0  0  0  0  0  0
  149.2544  138.7265  153.1755 H   0  0  0  0  0  0  0  0  0  0  0  0
  150.6360  138.4832  155.1875 H   0  0  0  0  0  0  0  0  0  0  0  0
  151.8011  139.7305  156.9924 H   0  0  0  0  0  0  0  0  0  0  0  0
  152.3364  143.5623  156.5517 H   0  0  0  0  0  0  0  0  0  0  0  0
  150.6866  144.1016  156.8076 H   0  0  0  0  0  0  0  0  0  0  0  0
  152.3386  145.4834  158.1088 H   0  0  0  0  0  0  0  0  0  0  0  0
  151.1722  144.6962  159.1453 H   0  0  0  0  0  0  0  0  0  0  0  0
  154.0367  143.7621  158.6206 H   0  0  0  0  0  0  0  0  0  0  0  0
  153.4226  144.4202  160.1206 H   0  0  0  0  0  0  0  0  0  0  0  0
  153.5469  141.9041  160.1760 H   0  0  0  0  0  0  0  0  0  0  0  0
  151.9166  142.4858  160.4180 H   0  0  0  0  0  0  0  0  0  0  0  0
  151.8707  140.6210  158.8097 H   0  0  0  0  0  0  0  0  0  0  0  0
  153.0743  141.4032  157.8005 H   0  0  0  0  0  0  0  0  0  0  0  0
  148.1239  142.0085  154.6111 H   0  0  0  0  0  0  0  0  0  0  0  0
  149.2898  143.0242  156.2854 H   0  0  0  0  0  0  0  0  0  0  0  0
  1  2  1  0  0  0  0
  1 24  1  0  0  0  0
  1 25  1  0  0  0  0
  1 26  1  0  0  0  0
  2  3  1  0  0  0  0
  2  9  1  0  0  0  0
  2 27  1  0  0  0  0
  3  4  1  0  0  0  0
  4  5  1  0  0  0  0
  4 28  1  0  0  0  0
  4 29  1  0  0  0  0
  5  6  1  0  0  0  0
  5  7  1  0  0  0  0
  5  8  1  0  0  0  0
  9 10  2  0  0  0  0
  9 11  1  0  0  0  0
 11 12  1  0  0  0  0
 11 30  1  0  0  0  0
 12 23  1  0  0  0  0
 12 13  2  0  0  0  0
 13 14  1  0  0  0  0
 13 31  1  0  0  0  0
 14 15  2  0  0  0  0
 14 32  1  0  0  0  0
 15 16  1  0  0  0  0
 15 22  1  0  0  0  0
 16 21  1  0  0  0  0
 16 17  1  0  0  0  0
 17 18  1  0  0  0  0
 17 33  1  0  0  0  0
 17 34  1  0  0  0  0
 18 19  1  0  0  0  0
 18 35  1  0  0  0  0
 18 36  1  0  0  0  0
 19 20  1  0  0  0  0
 19 37  1  0  0  0  0
 19 38  1  0  0  0  0
 20 21  1  0  0  0  0
 20 39  1  0  0  0  0
 20 40  1  0  0  0  0
 21 41  1  0  0  0  0
 21 42  1  0  0  0  0
 22 23  2  0  0  0  0
 22 44  1  0  0  0  0
 23 43  1  0  0  0  0
M  CHG  1  22   1
M  END
> <s_m_source_file>
AV-unprocessed.smi

> <i_m_source_file_index>
1627

> <i_lp_mmshare_version>
43012

> <i_f3d_flags>
0

> <s_epik_input>
RkMoRikoRilbQ0gyXU9bQ0BASF0oW0NIM10pQyg9TylbTkhdYzFbY0hdW2NIXWMobltjSF0xKU4yW0NIMl1bQ0gyXVtDSDJdW0NIMl1bQ0gyXTI=

> <s_epik_cmdline>
J2VwaWtfcHl0aG9uJywgJy1waCcsICc3LjAnLCAnLXRuJywgJzgnLCAnLW1hJywgJzIwMCcsICctbWV0YWxfYmluZGluZycsICctaW1hZScsICc8aW5maWxlLm1hZT4nLCAnLW9tYWUnLCAnPG91dGZpbGUubWFlPic=

> <r_lp_tautomer_probability>
0.999994

> <r_epik_Ionization_Penalty>
1.93197

> <r_epik_Ionization_Penalty_Charging>
1.93197

> <r_epik_Ionization_Penalty_Neutral>
3.16684e-06

> <r_epik_State_Penalty>
2.05557

> <r_epik_Charging_Adjusted_Penalty>
3.98754

> <i_epik_Tot_Q>
1

> <i_epik_Tot_abs_Q>
1

> <r_epik_Metal_State_Penalty>
2.08108

> <b_epik_Metal_Only>
0

> <s_lp_Force_Field>
OPLS_2005

> <r_lp_Energy>
33.3851

> <b_lp_Chiralities_Consistent>
1

> <s_lp_Variant>
AV-unprocessed.smi:1627-3

> <Gold.Version>
5.8.1

> <Gold.Id.Protein>
6NUR|6NUR_protein|mol2

> <Gold.PLP.Fitness>
47.5709

> <Gold.PLP.PLP>
-42.0860

> <Gold.PLP.part.hbond>
-2.0000

> <Gold.PLP.part.metal>
0.0000

> <Gold.PLP.part.buried>
1.2606

> <Gold.PLP.part.nonpolar>
-42.0679

> <Gold.PLP.part.repulsive>
0.8285

> <Gold.PLP.ligand.clash>
0.0000

> <Gold.PLP.ligand.torsion>
0.3570

> <Gold.PLP.Chemscore.Hbond>
2.0000

> <Gold.PLP.Chemscore.CHOScore>
0.0000

> <Gold.PLP.Chemscore.Metal>
0.0000

> <Gold.Chemscore.Hbonds>
donor molecule, donor type, donor heavy atom, donor atom, acceptor molecule, acceptor atom, score
      L1  H    22    44       P1  8028  1.89

> <Gold.PLP.Chemscore.Internal.Correction>
0.1988

> <Gold.Rescore>
     Score         DG    S(hbond)    S(metal)    S(lipo)     H(rot)  DE(clash)    DE(int)     intcor
     14.99     -17.51       0.98        0.00     116.42       1.90       1.86       0.66       ----

> <Gold.Chemscore.Fitness>
14.9884

> <Gold.Chemscore.DG>
-17.5053

> <Gold.Chemscore.ZeroCoef>
-5.4800

> <Gold.Chemscore.Hbond>
0.9792

> <Gold.Chemscore.Metal>
0.0000

> <Gold.Chemscore.Lipo>
116.4151

> <Gold.Chemscore.Internal_Hbond>
0.0000

> <Gold.Chemscore.DEClash>
1.8583

> <Gold.Chemscore.DEInternal>
0.6586

> <Gold.Chemscore.Rot>
1.9007

> <Gold.Chemscore.Internal.Correction>
   9.000000E+99

> <Gold.Chemscore.Hbonds>
donor molecule, donor type, donor heavy atom, donor atom, acceptor molecule, acceptor atom, score
      L1  H    11    30       P1  7957  0.01
      L1  H    22    44       P1  8028  0.91

> <Gold.Chemscore.Hbond.Weighted>
-3.2705

> <Gold.Chemscore.Metal.Weighted>
-0.0000

> <Gold.Chemscore.Lipo.Weighted>
-13.6206

> <Gold.Chemscore.Internal_Hbond.Weighted>
0.0000

> <Gold.Chemscore.DEClash.Weighted>
1.8583

> <Gold.Chemscore.DEInternal.Weighted>
0.6586

> <Gold.Chemscore.Rot.Weighted>
4.8657

> <Gold.Chemscore.Internal.Correction.Weighted>
   9.000000E+99

> <Gold.Protein.RotatedTorsions>
[ 6907 6896 6895 6894 ] final  119.74 input  -60.11 | X-H torsion
[ 7974 7965 7964 7962 ] final  112.50 input  175.53 | X-H torsion
[ 8008 7997 7996 7995 ] final  -27.84 input   59.86 | X-H torsion
[ 10167 10162 10161 10158 ] final  122.03 input  -65.29 | X-H torsion
[ 10718 10713 10712 10709 ] final  110.81 input   66.30 | X-H torsion
[ 10763 10752 10751 10750 ] final -145.14 input  -60.55 | X-H torsion
[ 11005 11000 10999 10996 ] final    4.93 input  -57.11 | X-H torsion

> <Gold.Protein.ActiveResidues>
 VAL166  LYS551  ARG553  GLY616  TRP617  ASP618  TYR619  PRO620  LYS621  CYS622 
 ASP623  PHE694  ASN695  SER759  ASP760  ASP761  ALA762  ILE779  LEU786  VAL792 
 PHE793  MET794  SER795  GLU796  ALA797  LYS798  CYS799  TRP800  GLU811  SER814 

> <Gold.Protein.RotatedAtoms>
  152.4450  133.7519  159.6698 H   0  0  0  0  0  0  0  0  0  0  0  0  # atno 6907 bound_to 6896
  150.8348  133.8021  159.3090 H   0  0  0  0  0  0  0  0  0  0  0  0  # atno 6908 bound_to 6896
  151.5664  135.1066  160.0036 H   0  0  0  0  0  0  0  0  0  0  0  0  # atno 6909 bound_to 6896
  145.2288  139.2829  143.4179 H   0  0  0  0  0  0  0  0  0  0  0  0  # atno 7974 bound_to 7965
  154.4359  140.1861  156.0995 H   0  0  0  0  0  0  0  0  0  0  0  0  # atno 8008 bound_to 7997
  156.0303  140.3331  155.7107 H   0  0  0  0  0  0  0  0  0  0  0  0  # atno 8009 bound_to 7997
  155.5848  140.0625  157.2764 H   0  0  0  0  0  0  0  0  0  0  0  0  # atno 8010 bound_to 7997
  139.5883  144.7015  151.3352 H   0  0  0  0  0  0  0  0  0  0  0  0  # atno 10167 bound_to 10162
  157.6476  131.0939  150.6657 H   0  0  0  0  0  0  0  0  0  0  0  0  # atno 10718 bound_to 10713
  154.8397  135.3421  154.6457 H   0  0  0  0  0  0  0  0  0  0  0  0  # atno 10763 bound_to 10752
  153.7069  135.6966  153.5052 H   0  0  0  0  0  0  0  0  0  0  0  0  # atno 10764 bound_to 10752
  153.2481  135.4362  155.0723 H   0  0  0  0  0  0  0  0  0  0  0  0  # atno 10765 bound_to 10752
  140.5764  134.0054  155.8029 H   0  0  0  0  0  0  0  0  0  0  0  0  # atno 11005 bound_to 11000
  146.3358  140.2617  142.8602 LP  0  0  0  0  0  0  0  0  0  0  0  0  # atno 17320 bound_to 7965
  144.9696  140.8355  143.5463 LP  0  0  0  0  0  0  0  0  0  0  0  0  # atno 17321 bound_to 7965
  140.7151  143.7287  150.7640 LP  0  0  0  0  0  0  0  0  0  0  0  0  # atno 17342 bound_to 10162
  140.0837  143.4944  152.2516 LP  0  0  0  0  0  0  0  0  0  0  0  0  # atno 17343 bound_to 10162
  156.6972  130.4612  149.5583 LP  0  0  0  0  0  0  0  0  0  0  0  0  # atno 17370 bound_to 10713
  156.1820  130.6505  151.0963 LP  0  0  0  0  0  0  0  0  0  0  0  0  # atno 17371 bound_to 10713
  141.1024  133.9747  157.3056 LP  0  0  0  0  0  0  0  0  0  0  0  0  # atno 17394 bound_to 11000
  139.9337  135.0198  156.8487 LP  0  0  0  0  0  0  0  0  0  0  0  0  # atno 17395 bound_to 11000

$$$$
