AV-unprocessed.smi:1351|AV-procd|sdf|5524|dock1
  -GOLD-   22720 5113D 1   1.00000     0.00000
 Structure written by MMmdl.
 34 35  0  0  0  0  0  0  0  0  1 V2000
  152.5558  143.8421  161.7702 C   0  0  0  0  0  0  0  0  0  0  0  0
  152.8856  142.7134  160.9058 N   0  0  0  0  0  0  0  0  0  0  0  0
  153.9419  141.7865  161.2929 C   0  0  0  0  0  0  0  0  0  0  0  0
  152.1567  142.5038  159.7127 C   0  0  0  0  0  0  0  0  0  0  0  0
  152.2519  141.2878  158.9914 C   0  0  0  0  0  0  0  0  0  0  0  0
  151.5025  141.1287  157.8105 C   0  0  0  0  0  0  0  0  0  0  0  0
  150.6682  142.1756  157.3748 C   0  0  0  0  0  0  0  0  0  0  0  0
  149.9373  141.9878  156.1707 N   0  0  0  0  0  0  0  0  0  0  0  0
  149.9341  140.9286  155.3388 C   0  0  0  0  0  0  0  0  0  0  0  0
  150.5947  139.9053  155.5152 O   0  0  0  0  0  0  0  0  0  0  0  0
  149.0302  141.0371  154.1006 C   0  0  2  0  0  0  0  0  0  0  0  0
  147.9759  142.1594  154.1743 C   0  0  0  0  0  0  0  0  0  0  0  0
  146.6564  141.4506  153.9152 C   0  0  0  0  0  0  0  0  0  0  0  0
  147.0897  140.1607  153.2331 C   0  0  0  0  0  0  0  0  0  0  0  0
  148.2810  139.8351  153.9273 O   0  0  0  0  0  0  0  0  0  0  0  0
  150.6468  143.3590  158.1493 C   0  0  0  0  0  0  0  0  0  0  0  0
  151.3648  143.5158  159.2814 N   0  0  0  0  0  0  0  0  0  0  0  0
  152.6873  144.7843  161.2371 H   0  0  0  0  0  0  0  0  0  0  0  0
  153.1936  143.8675  162.6536 H   0  0  0  0  0  0  0  0  0  0  0  0
  151.5210  143.7761  162.1080 H   0  0  0  0  0  0  0  0  0  0  0  0
  154.7232  141.7567  160.5329 H   0  0  0  0  0  0  0  0  0  0  0  0
  153.5406  140.7810  161.4231 H   0  0  0  0  0  0  0  0  0  0  0  0
  154.4061  142.0832  162.2334 H   0  0  0  0  0  0  0  0  0  0  0  0
  152.8829  140.4754  159.3182 H   0  0  0  0  0  0  0  0  0  0  0  0
  151.5673  140.2077  157.2496 H   0  0  0  0  0  0  0  0  0  0  0  0
  149.3970  142.7834  155.8619 H   0  0  0  0  0  0  0  0  0  0  0  0
  149.6573  141.1803  153.2194 H   0  0  0  0  0  0  0  0  0  0  0  0
  147.9511  142.6822  155.1314 H   0  0  0  0  0  0  0  0  0  0  0  0
  148.1708  142.9027  153.4006 H   0  0  0  0  0  0  0  0  0  0  0  0
  146.1682  141.2192  154.8628 H   0  0  0  0  0  0  0  0  0  0  0  0
  145.9653  142.0395  153.3118 H   0  0  0  0  0  0  0  0  0  0  0  0
  146.3455  139.3682  153.3143 H   0  0  0  0  0  0  0  0  0  0  0  0
  147.3091  140.3268  152.1773 H   0  0  0  0  0  0  0  0  0  0  0  0
  150.0645  144.2209  157.8644 H   0  0  0  0  0  0  0  0  0  0  0  0
  1  2  1  0  0  0  0
  1 18  1  0  0  0  0
  1 19  1  0  0  0  0
  1 20  1  0  0  0  0
  2  3  1  0  0  0  0
  2  4  1  0  0  0  0
  3 21  1  0  0  0  0
  3 22  1  0  0  0  0
  3 23  1  0  0  0  0
  4 17  1  0  0  0  0
  4  5  2  0  0  0  0
  5  6  1  0  0  0  0
  5 24  1  0  0  0  0
  6  7  2  0  0  0  0
  6 25  1  0  0  0  0
  7  8  1  0  0  0  0
  7 16  1  0  0  0  0
  8  9  1  0  0  0  0
  8 26  1  0  0  0  0
  9 10  2  0  0  0  0
  9 11  1  0  0  0  0
 11 15  1  0  0  0  0
 11 12  1  0  0  0  0
 11 27  1  0  0  0  0
 12 13  1  0  0  0  0
 12 28  1  0  0  0  0
 12 29  1  0  0  0  0
 13 14  1  0  0  0  0
 13 30  1  0  0  0  0
 13 31  1  0  0  0  0
 14 15  1  0  0  0  0
 14 32  1  0  0  0  0
 14 33  1  0  0  0  0
 16 17  2  0  0  0  0
 16 34  1  0  0  0  0
M  END
> <s_m_source_file>
AV-unprocessed.smi

> <i_m_source_file_index>
1351

> <i_lp_mmshare_version>
43012

> <i_f3d_flags>
0

> <s_epik_input>
W0NIM11OKFtDSDNdKWMxW2NIXVtjSF1jKFtjSF1uMSlbTkhdQyg9TylbQ0BASF0yW0NIMl1bQ0gyXVtDSDJdTzI=

> <s_epik_cmdline>
J2VwaWtfcHl0aG9uJywgJy1waCcsICc3LjAnLCAnLXRuJywgJzgnLCAnLW1hJywgJzIwMCcsICctbWV0YWxfYmluZGluZycsICctaW1hZScsICc8aW5maWxlLm1hZT4nLCAnLW9tYWUnLCAnPG91dGZpbGUubWFlPic=

> <r_lp_tautomer_probability>
1

> <r_epik_Ionization_Penalty>
0.225439

> <r_epik_Ionization_Penalty_Charging>
0

> <r_epik_Ionization_Penalty_Neutral>
0.225439

> <r_epik_State_Penalty>
0.21555

> <r_epik_Charging_Adjusted_Penalty>
0.21555

> <i_epik_Tot_Q>
0

> <i_epik_Tot_abs_Q>
0

> <r_epik_Metal_State_Penalty>
0.155168

> <b_epik_Metal_Only>
0

> <s_lp_Force_Field>
OPLS_2005

> <r_lp_Energy>
24.8197

> <b_lp_Chiralities_Consistent>
1

> <s_lp_Variant>
AV-unprocessed.smi:1351-1

> <Gold.Version>
5.8.1

> <Gold.Id.Protein>
6NUR|6NUR_protein|mol2

> <Gold.PLP.Fitness>
42.7038

> <Gold.PLP.PLP>
-37.3050

> <Gold.PLP.part.hbond>
-1.0000

> <Gold.PLP.part.metal>
0.0000

> <Gold.PLP.part.buried>
-1.4677

> <Gold.PLP.part.nonpolar>
-33.9212

> <Gold.PLP.part.repulsive>
0.6879

> <Gold.PLP.ligand.clash>
0.0000

> <Gold.PLP.ligand.torsion>
0.4519

> <Gold.PLP.Chemscore.Hbond>
1.0000

> <Gold.PLP.Chemscore.CHOScore>
1.0985

> <Gold.PLP.Chemscore.Metal>
0.0000

> <Gold.Chemscore.Hbonds>
donor molecule, donor type, donor heavy atom, donor atom, acceptor molecule, acceptor atom, score
      L1  H     8    26       P1  8028  1.00
      L1  C    16    34       P1  8028  1.00
      L1  C    16    34       P1  8029  0.09

> <Gold.PLP.Chemscore.Internal.Correction>
0.0071

> <Gold.Rescore>
     Score         DG    S(hbond)    S(metal)    S(lipo)     H(rot)  DE(clash)    DE(int)     intcor
     13.51     -15.56       0.86        0.00      83.35       1.00       0.18       1.87       ----

> <Gold.Chemscore.Fitness>
13.5087

> <Gold.Chemscore.DG>
-15.5565

> <Gold.Chemscore.ZeroCoef>
-5.4800

> <Gold.Chemscore.Hbond>
0.8637

> <Gold.Chemscore.Metal>
0.0000

> <Gold.Chemscore.Lipo>
83.3491

> <Gold.Chemscore.Internal_Hbond>
0.0000

> <Gold.Chemscore.DEClash>
0.1817

> <Gold.Chemscore.DEInternal>
1.8661

> <Gold.Chemscore.Rot>
1.0000

> <Gold.Chemscore.Internal.Correction>
   9.000000E+99

> <Gold.Chemscore.Hbonds>
donor molecule, donor type, donor heavy atom, donor atom, acceptor molecule, acceptor atom, score
      L1  H     8    26       P1  8028  0.94

> <Gold.Chemscore.Hbond.Weighted>
-2.8847

> <Gold.Chemscore.Metal.Weighted>
-0.0000

> <Gold.Chemscore.Lipo.Weighted>
-9.7518

> <Gold.Chemscore.Internal_Hbond.Weighted>
0.0000

> <Gold.Chemscore.DEClash.Weighted>
0.1817

> <Gold.Chemscore.DEInternal.Weighted>
1.8661

> <Gold.Chemscore.Rot.Weighted>
2.5600

> <Gold.Chemscore.Internal.Correction.Weighted>
   9.000000E+99

> <Gold.Protein.RotatedTorsions>
[ 6907 6896 6895 6894 ] final  118.36 input  -60.11 | X-H torsion
[ 7974 7965 7964 7962 ] final   74.54 input  175.53 | X-H torsion
[ 8008 7997 7996 7995 ] final  -72.69 input   59.86 | X-H torsion
[ 10167 10162 10161 10158 ] final  -62.95 input  -65.29 | X-H torsion
[ 10718 10713 10712 10709 ] final  121.92 input   66.30 | X-H torsion
[ 10763 10752 10751 10750 ] final -139.64 input  -60.55 | X-H torsion
[ 11005 11000 10999 10996 ] final -128.66 input  -57.11 | X-H torsion

> <Gold.Protein.ActiveResidues>
 VAL166  LYS551  ARG553  GLY616  TRP617  ASP618  TYR619  PRO620  LYS621  CYS622 
 ASP623  PHE694  ASN695  SER759  ASP760  ASP761  ALA762  ILE779  LEU786  VAL792 
 PHE793  MET794  SER795  GLU796  ALA797  LYS798  CYS799  TRP800  GLU811  SER814 

> <Gold.Protein.RotatedAtoms>
  152.4549  133.7702  159.6794 H   0  0  0  0  0  0  0  0  0  0  0  0  # atno 6907 bound_to 6896
  150.8471  133.7834  159.3045 H   0  0  0  0  0  0  0  0  0  0  0  0  # atno 6908 bound_to 6896
  151.5441  135.1071  159.9985 H   0  0  0  0  0  0  0  0  0  0  0  0  # atno 6909 bound_to 6896
  145.7269  139.2669  143.1564 H   0  0  0  0  0  0  0  0  0  0  0  0  # atno 7974 bound_to 7965
  154.5187  140.0792  156.8130 H   0  0  0  0  0  0  0  0  0  0  0  0  # atno 8008 bound_to 7997
  155.3624  140.3418  155.4223 H   0  0  0  0  0  0  0  0  0  0  0  0  # atno 8009 bound_to 7997
  156.1656  140.1603  156.8524 H   0  0  0  0  0  0  0  0  0  0  0  0  # atno 8010 bound_to 7997
  140.5904  143.2341  151.6152 H   0  0  0  0  0  0  0  0  0  0  0  0  # atno 10167 bound_to 10162
  157.5782  131.1077  150.8239 H   0  0  0  0  0  0  0  0  0  0  0  0  # atno 10718 bound_to 10713
  154.8603  135.3576  154.5579 H   0  0  0  0  0  0  0  0  0  0  0  0  # atno 10763 bound_to 10752
  153.6195  135.7006  153.5321 H   0  0  0  0  0  0  0  0  0  0  0  0  # atno 10764 bound_to 10752
  153.3141  135.4170  155.1321 H   0  0  0  0  0  0  0  0  0  0  0  0  # atno 10765 bound_to 10752
  140.9497  134.1082  157.4073 H   0  0  0  0  0  0  0  0  0  0  0  0  # atno 11005 bound_to 11000
  146.0574  140.8007  142.9752 LP  0  0  0  0  0  0  0  0  0  0  0  0  # atno 17320 bound_to 7965
  144.6902  140.3144  143.7243 LP  0  0  0  0  0  0  0  0  0  0  0  0  # atno 17321 bound_to 7965
  139.5224  144.3165  152.0948 LP  0  0  0  0  0  0  0  0  0  0  0  0  # atno 17342 bound_to 10162
  140.2328  144.4350  150.6293 LP  0  0  0  0  0  0  0  0  0  0  0  0  # atno 17343 bound_to 10162
  156.8692  130.5140  149.5298 LP  0  0  0  0  0  0  0  0  0  0  0  0  # atno 17370 bound_to 10713
  156.0827  130.5833  150.9592 LP  0  0  0  0  0  0  0  0  0  0  0  0  # atno 17371 bound_to 10713
  139.8844  135.0062  156.6365 LP  0  0  0  0  0  0  0  0  0  0  0  0  # atno 17394 bound_to 11000
  140.7619  133.8810  155.8425 LP  0  0  0  0  0  0  0  0  0  0  0  0  # atno 17395 bound_to 11000

$$$$
