AV-unprocessed.smi:876|AV-procd|sdf|4025|dock6
  -GOLD-   22720 1513D 1   1.00000     0.00000
 Structure written by MMmdl.
 40 41  0  0  0  0  0  0  0  0  1 V2000
  150.9428  142.0409  156.0676 C   0  0  0  0  0  0  0  0  0  0  0  0
  150.7472  140.7206  155.4819 N   0  0  0  0  0  0  0  0  0  0  0  0
  151.8321  139.7450  155.5089 C   0  0  0  0  0  0  0  0  0  0  0  0
  149.4991  140.3694  154.9182 C   0  0  0  0  0  0  0  0  0  0  0  0
  148.4239  141.2911  154.8677 C   0  0  0  0  0  0  0  0  0  0  0  0
  147.1998  140.8953  154.2945 C   0  0  0  0  0  0  0  0  0  0  0  0
  147.0768  139.5861  153.7752 C   0  0  0  0  0  0  0  0  0  0  0  0
  145.8945  139.0587  153.1888 N   0  0  0  0  0  0  0  0  0  0  0  0
  145.5732  137.7753  152.9515 C   0  0  0  0  0  0  0  0  0  0  0  0
  146.2701  136.8004  153.2316 O   0  0  0  0  0  0  0  0  0  0  0  0
  144.3663  137.6785  152.3767 N   0  0  0  0  0  0  0  0  0  0  0  0
  143.7195  136.4264  152.0003 C   0  0  2  0  0  0  0  0  0  0  0  0
  143.8024  135.4315  153.1249 C   0  0  0  0  0  0  0  0  0  0  0  0
  144.4186  134.3060  152.7717 C   0  0  0  0  0  0  0  0  0  0  0  0
  144.8971  134.3233  151.3422 C   0  0  1  0  0  0  0  0  0  0  0  0
  144.3430  133.1504  150.5149 C   0  0  0  0  0  0  0  0  0  0  0  0
  144.1759  133.5289  149.1643 O   0  0  0  0  0  0  0  0  0  0  0  0
  144.4327  135.7086  150.8239 C   0  0  0  0  0  0  0  0  0  0  0  0
  148.1949  138.7364  153.8821 C   0  0  0  0  0  0  0  0  0  0  0  0
  149.3691  139.1117  154.4296 N   0  0  0  0  0  0  0  0  0  0  0  0
  142.6669  136.6001  151.7696 H   0  0  0  0  0  0  0  0  0  0  0  0
  145.9874  134.2851  151.3499 H   0  0  0  0  0  0  0  0  0  0  0  0
  150.2319  142.2112  156.8765 H   0  0  0  0  0  0  0  0  0  0  0  0
  150.8097  142.8184  155.3146 H   0  0  0  0  0  0  0  0  0  0  0  0
  151.9460  142.1472  156.4808 H   0  0  0  0  0  0  0  0  0  0  0  0
  152.0743  139.4118  154.4993 H   0  0  0  0  0  0  0  0  0  0  0  0
  151.5498  138.8751  156.1026 H   0  0  0  0  0  0  0  0  0  0  0  0
  152.7372  140.1675  155.9448 H   0  0  0  0  0  0  0  0  0  0  0  0
  148.5106  142.2932  155.2597 H   0  0  0  0  0  0  0  0  0  0  0  0
  146.3827  141.5993  154.2794 H   0  0  0  0  0  0  0  0  0  0  0  0
  145.1830  139.7402  152.9686 H   0  0  0  0  0  0  0  0  0  0  0  0
  143.8570  138.5293  152.1874 H   0  0  0  0  0  0  0  0  0  0  0  0
  143.3859  135.6310  154.1013 H   0  0  0  0  0  0  0  0  0  0  0  0
  144.5856  133.4602  153.4225 H   0  0  0  0  0  0  0  0  0  0  0  0
  145.0098  132.2887  150.5665 H   0  0  0  0  0  0  0  0  0  0  0  0
  143.3754  132.8350  150.9065 H   0  0  0  0  0  0  0  0  0  0  0  0
  144.9083  134.0694  148.9105 H   0  0  0  0  0  0  0  0  0  0  0  0
  143.7464  135.6070  149.9822 H   0  0  0  0  0  0  0  0  0  0  0  0
  145.2879  136.2792  150.4585 H   0  0  0  0  0  0  0  0  0  0  0  0
  148.1502  137.7220  153.5133 H   0  0  0  0  0  0  0  0  0  0  0  0
  1  2  1  0  0  0  0
  1 23  1  0  0  0  0
  1 24  1  0  0  0  0
  1 25  1  0  0  0  0
  2  3  1  0  0  0  0
  2  4  1  0  0  0  0
  3 26  1  0  0  0  0
  3 27  1  0  0  0  0
  3 28  1  0  0  0  0
  4 20  1  0  0  0  0
  4  5  2  0  0  0  0
  5  6  1  0  0  0  0
  5 29  1  0  0  0  0
  6  7  2  0  0  0  0
  6 30  1  0  0  0  0
  7  8  1  0  0  0  0
  7 19  1  0  0  0  0
  8  9  1  0  0  0  0
  8 31  1  0  0  0  0
  9 10  2  0  0  0  0
  9 11  1  0  0  0  0
 11 12  1  0  0  0  0
 11 32  1  0  0  0  0
 12 21  1  0  0  0  0
 12 18  1  0  0  0  0
 12 13  1  0  0  0  0
 13 14  2  0  0  0  0
 13 33  1  0  0  0  0
 14 15  1  0  0  0  0
 14 34  1  0  0  0  0
 15 22  1  0  0  0  0
 15 16  1  0  0  0  0
 15 18  1  0  0  0  0
 16 17  1  0  0  0  0
 16 35  1  0  0  0  0
 16 36  1  0  0  0  0
 17 37  1  0  0  0  0
 18 38  1  0  0  0  0
 18 39  1  0  0  0  0
 19 20  2  0  0  0  0
 19 40  1  0  0  0  0
M  END
> <s_m_source_file>
AV-unprocessed.smi

> <i_m_source_file_index>
876

> <i_lp_mmshare_version>
43012

> <i_f3d_flags>
0

> <s_epik_input>
W0NIM11OKFtDSDNdKWMxW2NIXVtjSF1jKFtjSF1uMSlbTkhdQyg9TylbTkhdW0NAQEhdMltDSF09W0NIXVtDQEBIXShbQ0gyXTIpW0NIMl1bT0hd

> <s_epik_cmdline>
J2VwaWtfcHl0aG9uJywgJy1waCcsICc3LjAnLCAnLXRuJywgJzgnLCAnLW1hJywgJzIwMCcsICctbWV0YWxfYmluZGluZycsICctaW1hZScsICc8aW5maWxlLm1hZT4nLCAnLW9tYWUnLCAnPG91dGZpbGUubWFlPic=

> <r_lp_tautomer_probability>
1

> <r_epik_Ionization_Penalty>
0.617998

> <r_epik_Ionization_Penalty_Charging>
0

> <r_epik_Ionization_Penalty_Neutral>
0.617998

> <r_epik_State_Penalty>
0.632637

> <r_epik_Charging_Adjusted_Penalty>
0.632637

> <i_epik_Tot_Q>
0

> <i_epik_Tot_abs_Q>
0

> <r_epik_Metal_State_Penalty>
0.305596

> <b_epik_Metal_Only>
0

> <s_lp_Force_Field>
OPLS_2005

> <r_lp_Energy>
20.6099

> <b_lp_Chiralities_Consistent>
1

> <s_lp_Variant>
AV-unprocessed.smi:876-7

> <Gold.Version>
5.8.1

> <Gold.Id.Protein>
6NUR|6NUR_protein|mol2

> <Gold.PLP.Fitness>
45.2837

> <Gold.PLP.PLP>
-34.3516

> <Gold.PLP.part.hbond>
-4.0000

> <Gold.PLP.part.metal>
0.0000

> <Gold.PLP.part.buried>
-4.6101

> <Gold.PLP.part.nonpolar>
-26.0757

> <Gold.PLP.part.repulsive>
0.4762

> <Gold.PLP.ligand.clash>
0.0000

> <Gold.PLP.ligand.torsion>
0.5415

> <Gold.PLP.Chemscore.Hbond>
3.0000

> <Gold.PLP.Chemscore.CHOScore>
1.0000

> <Gold.PLP.Chemscore.Metal>
0.0000

> <Gold.Chemscore.Hbonds>
donor molecule, donor type, donor heavy atom, donor atom, acceptor molecule, acceptor atom, score
      L1  H     8    31       P1 10175  1.00
      L1  H    11    32       P1 10175  0.99
      L1  H    17    37       P1  7921  1.00
      L1  C    19    40       P1  7948  1.00

> <Gold.PLP.Chemscore.Internal.Correction>
0.0152

> <Gold.Rescore>
     Score         DG    S(hbond)    S(metal)    S(lipo)     H(rot)  DE(clash)    DE(int)     intcor
     14.28     -18.09       2.87        0.00      65.20       1.80       0.62       3.19       ----

> <Gold.Chemscore.Fitness>
14.2774

> <Gold.Chemscore.DG>
-18.0861

> <Gold.Chemscore.ZeroCoef>
-5.4800

> <Gold.Chemscore.Hbond>
2.8683

> <Gold.Chemscore.Metal>
0.0000

> <Gold.Chemscore.Lipo>
65.2032

> <Gold.Chemscore.Internal_Hbond>
0.0000

> <Gold.Chemscore.DEClash>
0.6221

> <Gold.Chemscore.DEInternal>
3.1866

> <Gold.Chemscore.Rot>
1.7980

> <Gold.Chemscore.Internal.Correction>
   9.000000E+99

> <Gold.Chemscore.Hbonds>
donor molecule, donor type, donor heavy atom, donor atom, acceptor molecule, acceptor atom, score
      L1  H     8    31       P1 10175  1.00
      L1  H    11    32       P1 10175  0.94
      L1  H    17    37       P1  7921  0.96

> <Gold.Chemscore.Hbond.Weighted>
-9.5802

> <Gold.Chemscore.Metal.Weighted>
-0.0000

> <Gold.Chemscore.Lipo.Weighted>
-7.6288

> <Gold.Chemscore.Internal_Hbond.Weighted>
0.0000

> <Gold.Chemscore.DEClash.Weighted>
0.6221

> <Gold.Chemscore.DEInternal.Weighted>
3.1866

> <Gold.Chemscore.Rot.Weighted>
4.6029

> <Gold.Chemscore.Internal.Correction.Weighted>
   9.000000E+99

> <Gold.Protein.RotatedTorsions>
[ 6907 6896 6895 6894 ] final -150.79 input  -60.11 | X-H torsion
[ 7974 7965 7964 7962 ] final   47.34 input  175.53 | X-H torsion
[ 8008 7997 7996 7995 ] final    4.69 input   59.86 | X-H torsion
[ 10167 10162 10161 10158 ] final  -68.95 input  -65.29 | X-H torsion
[ 10718 10713 10712 10709 ] final   80.72 input   66.30 | X-H torsion
[ 10763 10752 10751 10750 ] final    4.07 input  -60.55 | X-H torsion
[ 11005 11000 10999 10996 ] final -115.36 input  -57.11 | X-H torsion

> <Gold.Protein.ActiveResidues>
 VAL166  LYS551  ARG553  GLY616  TRP617  ASP618  TYR619  PRO620  LYS621  CYS622 
 ASP623  PHE694  ASN695  SER759  ASP760  ASP761  ALA762  ILE779  LEU786  VAL792 
 PHE793  MET794  SER795  GLU796  ALA797  LYS798  CYS799  TRP800  GLU811  SER814 

> <Gold.Protein.RotatedAtoms>
  151.2037  133.4596  159.2596 H   0  0  0  0  0  0  0  0  0  0  0  0  # atno 6907 bound_to 6896
  151.1044  134.9991  159.8474 H   0  0  0  0  0  0  0  0  0  0  0  0  # atno 6908 bound_to 6896
  152.5446  134.1961  159.8746 H   0  0  0  0  0  0  0  0  0  0  0  0  # atno 6909 bound_to 6896
  146.0307  139.4760  142.9839 H   0  0  0  0  0  0  0  0  0  0  0  0  # atno 7974 bound_to 7965
  154.7190  140.2708  155.6559 H   0  0  0  0  0  0  0  0  0  0  0  0  # atno 8008 bound_to 7997
  156.2818  140.2738  156.1780 H   0  0  0  0  0  0  0  0  0  0  0  0  # atno 8009 bound_to 7997
  155.0533  140.0371  157.2541 H   0  0  0  0  0  0  0  0  0  0  0  0  # atno 8010 bound_to 7997
  140.5468  143.2313  151.6986 H   0  0  0  0  0  0  0  0  0  0  0  0  # atno 10167 bound_to 10162
  157.6814  130.9972  150.2121 H   0  0  0  0  0  0  0  0  0  0  0  0  # atno 10718 bound_to 10713
  153.2757  135.6936  153.7435 H   0  0  0  0  0  0  0  0  0  0  0  0  # atno 10763 bound_to 10752
  153.6442  135.3388  155.3081 H   0  0  0  0  0  0  0  0  0  0  0  0  # atno 10764 bound_to 10752
  154.8479  135.4439  154.1794 H   0  0  0  0  0  0  0  0  0  0  0  0  # atno 10765 bound_to 10752
  141.0493  133.9713  157.2864 H   0  0  0  0  0  0  0  0  0  0  0  0  # atno 11005 bound_to 11000
  145.7045  141.0125  143.1486 LP  0  0  0  0  0  0  0  0  0  0  0  0  # atno 17320 bound_to 7965
  144.7029  139.8684  143.7439 LP  0  0  0  0  0  0  0  0  0  0  0  0  # atno 17321 bound_to 7965
  139.5011  144.3881  152.0307 LP  0  0  0  0  0  0  0  0  0  0  0  0  # atno 17342 bound_to 10162
  140.2995  144.3663  150.6064 LP  0  0  0  0  0  0  0  0  0  0  0  0  # atno 17343 bound_to 10162
  156.2790  130.3731  149.7954 LP  0  0  0  0  0  0  0  0  0  0  0  0  # atno 17370 bound_to 10713
  156.5649  130.8399  151.3339 LP  0  0  0  0  0  0  0  0  0  0  0  0  # atno 17371 bound_to 10713
  139.9337  135.0198  156.8485 LP  0  0  0  0  0  0  0  0  0  0  0  0  # atno 17394 bound_to 11000
  140.6087  134.0103  155.7567 LP  0  0  0  0  0  0  0  0  0  0  0  0  # atno 17395 bound_to 11000

$$$$
