AV-unprocessed.smi:3112|AV-procd|sdf|11842|dock8
  -GOLD-   2272017223D 1   1.00000     0.00000
 Structure written by MMmdl.
 37 37  0  0  0  0  0  0  0  0  2 V2000
  147.2430  139.5641  153.9697 C   0  0  0  0  0  0  0  0  0  0  0  0
  147.4176  141.0874  153.9011 C   0  0  0  0  0  0  0  0  0  0  0  0
  148.8183  141.5640  154.3277 C   0  0  2  0  0  0  0  0  0  0  0  0
  149.7906  140.7689  153.6773 O   0  0  0  0  0  0  0  0  0  0  0  0
  149.0296  141.4404  155.8461 C   0  0  0  0  0  0  0  0  0  0  0  0
  150.1795  142.2555  156.2932 N   0  3  0  0  0  0  0  0  0  0  0  0
  150.7191  141.9159  157.6300 C   0  0  1  0  0  0  0  0  0  0  0  0
  151.1311  140.4290  157.6733 C   0  0  0  0  0  0  0  0  0  0  0  0
  151.8847  142.8779  157.9805 C   0  0  1  0  0  0  0  0  0  0  0  0
  151.4551  144.3572  157.9694 C   0  0  0  0  0  0  0  0  0  0  0  0
  152.4986  142.5515  159.2621 N   0  0  0  0  0  0  0  0  0  0  0  0
  152.5247  143.2977  160.4241 C   0  0  0  0  0  0  0  0  0  0  0  0
  153.2045  142.5727  161.3602 C   0  0  0  0  0  0  0  0  0  0  0  0
  153.5591  141.3797  160.6713 C   0  0  0  0  0  0  0  0  0  0  0  0
  153.1340  141.3694  159.4183 N   0  0  0  0  0  0  0  0  0  0  0  0
  146.2519  139.2727  153.6209 H   0  0  0  0  0  0  0  0  0  0  0  0
  147.3542  139.1945  154.9894 H   0  0  0  0  0  0  0  0  0  0  0  0
  147.9773  139.0541  153.3453 H   0  0  0  0  0  0  0  0  0  0  0  0
  147.2289  141.4056  152.8751 H   0  0  0  0  0  0  0  0  0  0  0  0
  146.6546  141.5709  154.5128 H   0  0  0  0  0  0  0  0  0  0  0  0
  148.9526  142.6034  154.0237 H   0  0  0  0  0  0  0  0  0  0  0  0
  149.5461  140.6773  152.7684 H   0  0  0  0  0  0  0  0  0  0  0  0
  148.1388  141.7916  156.3688 H   0  0  0  0  0  0  0  0  0  0  0  0
  149.1686  140.3948  156.1217 H   0  0  0  0  0  0  0  0  0  0  0  0
  150.9217  142.1821  155.6117 H   0  0  0  0  0  0  0  0  0  0  0  0
  149.9289  142.0699  158.3669 H   0  0  0  0  0  0  0  0  0  0  0  0
  151.4599  140.1276  158.6678 H   0  0  0  0  0  0  0  0  0  0  0  0
  151.9485  140.2273  156.9800 H   0  0  0  0  0  0  0  0  0  0  0  0
  150.3045  139.7700  157.4094 H   0  0  0  0  0  0  0  0  0  0  0  0
  152.6548  142.7591  157.2152 H   0  0  0  0  0  0  0  0  0  0  0  0
  151.0962  144.6642  156.9870 H   0  0  0  0  0  0  0  0  0  0  0  0
  152.2921  145.0084  158.2238 H   0  0  0  0  0  0  0  0  0  0  0  0
  150.6569  144.5483  158.6873 H   0  0  0  0  0  0  0  0  0  0  0  0
  152.0619  144.2714  160.4884 H   0  0  0  0  0  0  0  0  0  0  0  0
  153.4156  142.8515  162.3820 H   0  0  0  0  0  0  0  0  0  0  0  0
  154.1080  140.5265  161.0422 H   0  0  0  0  0  0  0  0  0  0  0  0
  149.8691  143.2161  156.3227 H   0  0  0  0  0  0  0  0  0  0  0  0
  1  2  1  0  0  0  0
  1 16  1  0  0  0  0
  1 17  1  0  0  0  0
  1 18  1  0  0  0  0
  2  3  1  0  0  0  0
  2 19  1  0  0  0  0
  2 20  1  0  0  0  0
  3  4  1  0  0  0  0
  3  5  1  0  0  0  0
  3 21  1  0  0  0  0
  4 22  1  0  0  0  0
  5  6  1  0  0  0  0
  5 23  1  0  0  0  0
  5 24  1  0  0  0  0
  6  7  1  0  0  0  0
  6 25  1  0  0  0  0
  6 37  1  0  0  0  0
  7  8  1  0  0  0  0
  7  9  1  0  0  0  0
  7 26  1  0  0  0  0
  8 27  1  0  0  0  0
  8 28  1  0  0  0  0
  8 29  1  0  0  0  0
  9 10  1  0  0  0  0
  9 11  1  0  0  0  0
  9 30  1  0  0  0  0
 10 31  1  0  0  0  0
 10 32  1  0  0  0  0
 10 33  1  0  0  0  0
 11 15  1  0  0  0  0
 11 12  1  0  0  0  0
 12 13  2  0  0  0  0
 12 34  1  0  0  0  0
 13 14  1  0  0  0  0
 13 35  1  0  0  0  0
 14 15  2  0  0  0  0
 14 36  1  0  0  0  0
M  CHG  1   6   1
M  END
> <s_m_source_file>
AV-unprocessed.smi

> <i_m_source_file_index>
3112

> <i_lp_mmshare_version>
43012

> <i_f3d_flags>
0

> <s_epik_input>
W0NIM11bQ0gyXVtDQEhdKFtPSF0pW0NIMl1bTkhdW0NASF0oW0NIM10pW0NASF0oW0NIM10pbjFbY0hdW2NIXVtjSF1uMQ==

> <s_epik_cmdline>
J2VwaWtfcHl0aG9uJywgJy1waCcsICc3LjAnLCAnLXRuJywgJzgnLCAnLW1hJywgJzIwMCcsICctbWV0YWxfYmluZGluZycsICctaW1hZScsICc8aW5maWxlLm1hZT4nLCAnLW9tYWUnLCAnPG91dGZpbGUubWFlPic=

> <r_lp_tautomer_probability>
1

> <r_epik_Ionization_Penalty>
0.0154842

> <r_epik_Ionization_Penalty_Charging>
0.0154724

> <r_epik_Ionization_Penalty_Neutral>
1.17979e-05

> <r_epik_State_Penalty>
0.0121607

> <r_epik_Charging_Adjusted_Penalty>
0.0276331

> <i_epik_Tot_Q>
1

> <i_epik_Tot_abs_Q>
1

> <r_epik_Metal_State_Penalty>
0.0121863

> <b_epik_Metal_Only>
0

> <s_lp_Force_Field>
OPLS_2005

> <r_lp_Energy>
13.0446

> <b_lp_Chiralities_Consistent>
1

> <s_lp_Variant>
AV-unprocessed.smi:3112-7

> <Gold.Version>
5.8.1

> <Gold.Id.Protein>
6NUR|6NUR_protein|mol2

> <Gold.PLP.Fitness>
47.5015

> <Gold.PLP.PLP>
-38.0570

> <Gold.PLP.part.hbond>
-3.8991

> <Gold.PLP.part.metal>
0.0000

> <Gold.PLP.part.buried>
-3.6539

> <Gold.PLP.part.nonpolar>
-30.5406

> <Gold.PLP.part.repulsive>
0.0877

> <Gold.PLP.ligand.clash>
0.0000

> <Gold.PLP.ligand.torsion>
0.4292

> <Gold.PLP.Chemscore.Hbond>
3.3888

> <Gold.PLP.Chemscore.CHOScore>
0.0000

> <Gold.PLP.Chemscore.Metal>
0.0000

> <Gold.Chemscore.Hbonds>
donor molecule, donor type, donor heavy atom, donor atom, acceptor molecule, acceptor atom, score
      L1  H     4    22       P1  7957  1.00
      L1  H     6    37       P1  8028  2.00
      P1  H  7989  7998       L1     4  0.39

> <Gold.PLP.Chemscore.Internal.Correction>
0.1364

> <Gold.Rescore>
     Score         DG    S(hbond)    S(metal)    S(lipo)     H(rot)  DE(clash)    DE(int)     intcor
     15.20     -16.90       2.03        0.00      92.28       2.41       0.07       1.63       ----

> <Gold.Chemscore.Fitness>
15.2045

> <Gold.Chemscore.DG>
-16.9031

> <Gold.Chemscore.ZeroCoef>
-5.4800

> <Gold.Chemscore.Hbond>
2.0337

> <Gold.Chemscore.Metal>
0.0000

> <Gold.Chemscore.Lipo>
92.2842

> <Gold.Chemscore.Internal_Hbond>
0.0000

> <Gold.Chemscore.DEClash>
0.0650

> <Gold.Chemscore.DEInternal>
1.6336

> <Gold.Chemscore.Rot>
2.4089

> <Gold.Chemscore.Internal.Correction>
   9.000000E+99

> <Gold.Chemscore.Hbonds>
donor molecule, donor type, donor heavy atom, donor atom, acceptor molecule, acceptor atom, score
      L1  H     4    22       P1  7957  0.99
      L1  H     6    37       P1  8028  0.97
      P1  H  7989  7998       L1     4  0.08

> <Gold.Chemscore.Hbond.Weighted>
-6.7925

> <Gold.Chemscore.Metal.Weighted>
-0.0000

> <Gold.Chemscore.Lipo.Weighted>
-10.7973

> <Gold.Chemscore.Internal_Hbond.Weighted>
0.0000

> <Gold.Chemscore.DEClash.Weighted>
0.0650

> <Gold.Chemscore.DEInternal.Weighted>
1.6336

> <Gold.Chemscore.Rot.Weighted>
6.1667

> <Gold.Chemscore.Internal.Correction.Weighted>
   9.000000E+99

> <Gold.Protein.RotatedTorsions>
[ 6907 6896 6895 6894 ] final   16.67 input  -60.11 | X-H torsion
[ 7974 7965 7964 7962 ] final   65.90 input  175.53 | X-H torsion
[ 8008 7997 7996 7995 ] final  160.03 input   59.86 | X-H torsion
[ 10167 10162 10161 10158 ] final   57.28 input  -65.29 | X-H torsion
[ 10718 10713 10712 10709 ] final  -99.41 input   66.30 | X-H torsion
[ 10763 10752 10751 10750 ] final  122.86 input  -60.55 | X-H torsion
[ 11005 11000 10999 10996 ] final   50.66 input  -57.11 | X-H torsion

> <Gold.Protein.ActiveResidues>
 VAL166  LYS551  ARG553  GLY616  TRP617  ASP618  TYR619  PRO620  LYS621  CYS622 
 ASP623  PHE694  ASN695  SER759  ASP760  ASP761  ALA762  ILE779  LEU786  VAL792 
 PHE793  MET794  SER795  GLU796  ALA797  LYS798  CYS799  TRP800  GLU811  SER814 

> <Gold.Protein.RotatedAtoms>
  151.8375  135.0601  160.0443 H   0  0  0  0  0  0  0  0  0  0  0  0  # atno 6907 bound_to 6896
  152.2834  133.5487  159.5520 H   0  0  0  0  0  0  0  0  0  0  0  0  # atno 6908 bound_to 6896
  150.7199  134.0448  159.3820 H   0  0  0  0  0  0  0  0  0  0  0  0  # atno 6909 bound_to 6896
  145.8330  139.3150  143.0976 H   0  0  0  0  0  0  0  0  0  0  0  0  # atno 7974 bound_to 7965
  156.2200  140.1815  156.7500 H   0  0  0  0  0  0  0  0  0  0  0  0  # atno 8008 bound_to 7997
  154.5850  140.0660  156.9187 H   0  0  0  0  0  0  0  0  0  0  0  0  # atno 8009 bound_to 7997
  155.2435  140.3323  155.4292 H   0  0  0  0  0  0  0  0  0  0  0  0  # atno 8010 bound_to 7997
  140.1997  144.4001  150.6534 H   0  0  0  0  0  0  0  0  0  0  0  0  # atno 10167 bound_to 10162
  156.0133  130.5281  150.6666 H   0  0  0  0  0  0  0  0  0  0  0  0  # atno 10718 bound_to 10713
  153.6364  135.3387  155.3058 H   0  0  0  0  0  0  0  0  0  0  0  0  # atno 10763 bound_to 10752
  154.8569  135.4308  154.2051 H   0  0  0  0  0  0  0  0  0  0  0  0  # atno 10764 bound_to 10752
  153.2959  135.7021  153.7322 H   0  0  0  0  0  0  0  0  0  0  0  0  # atno 10765 bound_to 10752
  140.0999  134.5096  155.8772 H   0  0  0  0  0  0  0  0  0  0  0  0  # atno 11005 bound_to 11000
  145.9550  140.8880  143.0240 LP  0  0  0  0  0  0  0  0  0  0  0  0  # atno 17320 bound_to 7965
  144.6738  140.1733  143.7412 LP  0  0  0  0  0  0  0  0  0  0  0  0  # atno 17321 bound_to 7965
  140.6399  143.2201  151.6313 LP  0  0  0  0  0  0  0  0  0  0  0  0  # atno 17342 bound_to 10162
  139.5222  144.3170  152.0944 LP  0  0  0  0  0  0  0  0  0  0  0  0  # atno 17343 bound_to 10162
  157.4397  131.0859  151.0956 LP  0  0  0  0  0  0  0  0  0  0  0  0  # atno 17370 bound_to 10713
  157.1504  130.6181  149.5580 LP  0  0  0  0  0  0  0  0  0  0  0  0  # atno 17371 bound_to 10713
  141.2102  133.6693  156.6496 LP  0  0  0  0  0  0  0  0  0  0  0  0  # atno 17394 bound_to 11000
  140.3235  134.7988  157.4271 LP  0  0  0  0  0  0  0  0  0  0  0  0  # atno 17395 bound_to 11000

$$$$
