AV-unprocessed.smi:3101|AV-procd|sdf|11811|dock3
  -GOLD-   2272017183D 1   1.00000     0.00000
 Structure written by MMmdl.
 28 29  0  0  0  0  0  0  0  0  1 V2000
  151.3530  145.3265  159.1304 C   0  0  0  0  0  0  0  0  0  0  0  0
  152.1255  144.0637  159.5435 C   0  0  1  0  0  0  0  0  0  0  0  0
  152.4883  144.0292  161.0143 C   0  0  0  0  0  0  0  0  0  0  0  0
  152.7852  142.5500  161.2349 C   0  0  0  0  0  0  0  0  0  0  0  0
  151.9521  141.8439  160.3203 O   0  0  0  0  0  0  0  0  0  0  0  0
  151.3389  142.7502  159.4022 C   0  0  2  0  0  0  0  0  0  0  0  0
  151.3253  142.1367  157.9934 C   0  0  0  0  0  0  0  0  0  0  0  0
  150.8569  142.7711  157.0478 O   0  0  0  0  0  0  0  0  0  0  0  0
  151.8330  140.8937  157.8940 N   0  0  0  0  0  0  0  0  0  0  0  0
  151.9540  140.0836  156.7348 C   0  0  0  0  0  0  0  0  0  0  0  0
  151.0266  140.3496  155.6998 C   0  0  0  0  0  0  0  0  0  0  0  0
  151.0152  139.6625  154.5360 N   0  0  0  0  0  0  0  0  0  0  0  0
  151.9440  138.6923  154.3985 C   0  0  0  0  0  0  0  0  0  0  0  0
  152.8760  138.4137  155.4181 C   0  0  0  0  0  0  0  0  0  0  0  0
  152.8818  139.1045  156.5788 N   0  0  0  0  0  0  0  0  0  0  0  0
  150.4221  145.4240  159.6895 H   0  0  0  0  0  0  0  0  0  0  0  0
  151.1027  145.3108  158.0696 H   0  0  0  0  0  0  0  0  0  0  0  0
  151.9467  146.2219  159.3145 H   0  0  0  0  0  0  0  0  0  0  0  0
  153.0468  144.0036  158.9609 H   0  0  0  0  0  0  0  0  0  0  0  0
  153.3321  144.6731  161.2638 H   0  0  0  0  0  0  0  0  0  0  0  0
  151.6360  144.3321  161.6245 H   0  0  0  0  0  0  0  0  0  0  0  0
  153.8257  142.3308  160.9928 H   0  0  0  0  0  0  0  0  0  0  0  0
  152.6037  142.2376  162.2635 H   0  0  0  0  0  0  0  0  0  0  0  0
  150.3089  142.9004  159.7288 H   0  0  0  0  0  0  0  0  0  0  0  0
  152.1838  140.4883  158.7497 H   0  0  0  0  0  0  0  0  0  0  0  0
  150.2813  141.1247  155.8052 H   0  0  0  0  0  0  0  0  0  0  0  0
  151.9443  138.1364  153.4727 H   0  0  0  0  0  0  0  0  0  0  0  0
  153.6170  137.6367  155.3026 H   0  0  0  0  0  0  0  0  0  0  0  0
  1  2  1  0  0  0  0
  1 16  1  0  0  0  0
  1 17  1  0  0  0  0
  1 18  1  0  0  0  0
  2  6  1  0  0  0  0
  2  3  1  0  0  0  0
  2 19  1  0  0  0  0
  3  4  1  0  0  0  0
  3 20  1  0  0  0  0
  3 21  1  0  0  0  0
  4  5  1  0  0  0  0
  4 22  1  0  0  0  0
  4 23  1  0  0  0  0
  5  6  1  0  0  0  0
  6  7  1  0  0  0  0
  6 24  1  0  0  0  0
  7  8  2  0  0  0  0
  7  9  1  0  0  0  0
  9 10  1  0  0  0  0
  9 25  1  0  0  0  0
 10 15  1  0  0  0  0
 10 11  2  0  0  0  0
 11 12  1  0  0  0  0
 11 26  1  0  0  0  0
 12 13  2  0  0  0  0
 13 14  1  0  0  0  0
 13 27  1  0  0  0  0
 14 15  2  0  0  0  0
 14 28  1  0  0  0  0
M  END
> <s_m_source_file>
AV-unprocessed.smi

> <i_m_source_file_index>
3101

> <i_lp_mmshare_version>
43012

> <i_f3d_flags>
0

> <s_epik_input>
W0NIM11bQ0BASF0xW0NIMl1bQ0gyXU9bQ0BIXTFDKD1PKVtOSF1jMltjSF1uW2NIXVtjSF1uMg==

> <s_epik_cmdline>
J2VwaWtfcHl0aG9uJywgJy1waCcsICc3LjAnLCAnLXRuJywgJzgnLCAnLW1hJywgJzIwMCcsICctbWV0YWxfYmluZGluZycsICctaW1hZScsICc8aW5maWxlLm1hZT4nLCAnLW9tYWUnLCAnPG91dGZpbGUubWFlPic=

> <r_lp_tautomer_probability>
1

> <r_epik_Ionization_Penalty>
2.83174e-06

> <r_epik_Ionization_Penalty_Charging>
0

> <r_epik_Ionization_Penalty_Neutral>
2.83174e-06

> <r_epik_State_Penalty>
-0

> <r_epik_Charging_Adjusted_Penalty>
0

> <i_epik_Tot_Q>
0

> <i_epik_Tot_abs_Q>
0

> <r_epik_Metal_State_Penalty>
-0

> <b_epik_Metal_Only>
0

> <s_lp_Force_Field>
OPLS_2005

> <r_lp_Energy>
26.5221

> <b_lp_Chiralities_Consistent>
1

> <s_lp_Variant>
AV-unprocessed.smi:3101-4

> <Gold.Version>
5.8.1

> <Gold.Id.Protein>
6NUR|6NUR_protein|mol2

> <Gold.PLP.Fitness>
38.7681

> <Gold.PLP.PLP>
-33.0608

> <Gold.PLP.part.hbond>
-2.6119

> <Gold.PLP.part.metal>
0.0000

> <Gold.PLP.part.buried>
-5.2505

> <Gold.PLP.part.nonpolar>
-25.3331

> <Gold.PLP.part.repulsive>
0.4988

> <Gold.PLP.ligand.clash>
0.0000

> <Gold.PLP.ligand.torsion>
0.1475

> <Gold.PLP.Chemscore.Hbond>
2.0000

> <Gold.PLP.Chemscore.CHOScore>
0.0000

> <Gold.PLP.Chemscore.Metal>
0.0000

> <Gold.Chemscore.Hbonds>
donor molecule, donor type, donor heavy atom, donor atom, acceptor molecule, acceptor atom, score
      P1  H  7989  7998       L1    12  1.00
      P1  H  7997  8009       L1    15  1.00

> <Gold.PLP.Chemscore.Internal.Correction>
0.0022

> <Gold.Rescore>
     Score         DG    S(hbond)    S(metal)    S(lipo)     H(rot)  DE(clash)    DE(int)     intcor
     13.57     -15.29       0.88        0.00      80.49       1.00       0.14       1.58       ----

> <Gold.Chemscore.Fitness>
13.5728

> <Gold.Chemscore.DG>
-15.2885

> <Gold.Chemscore.ZeroCoef>
-5.4800

> <Gold.Chemscore.Hbond>
0.8835

> <Gold.Chemscore.Metal>
0.0000

> <Gold.Chemscore.Lipo>
80.4929

> <Gold.Chemscore.Internal_Hbond>
0.0000

> <Gold.Chemscore.DEClash>
0.1365

> <Gold.Chemscore.DEInternal>
1.5793

> <Gold.Chemscore.Rot>
1.0000

> <Gold.Chemscore.Internal.Correction>
   9.000000E+99

> <Gold.Chemscore.Hbonds>
donor molecule, donor type, donor heavy atom, donor atom, acceptor molecule, acceptor atom, score
      P1  H  7989  7998       L1    12  0.08
      P1  H  7997  8009       L1    15  0.23

> <Gold.Chemscore.Hbond.Weighted>
-2.9509

> <Gold.Chemscore.Metal.Weighted>
-0.0000

> <Gold.Chemscore.Lipo.Weighted>
-9.4177

> <Gold.Chemscore.Internal_Hbond.Weighted>
0.0000

> <Gold.Chemscore.DEClash.Weighted>
0.1365

> <Gold.Chemscore.DEInternal.Weighted>
1.5793

> <Gold.Chemscore.Rot.Weighted>
2.5600

> <Gold.Chemscore.Internal.Correction.Weighted>
   9.000000E+99

> <Gold.Protein.RotatedTorsions>
[ 6907 6896 6895 6894 ] final   57.88 input  -60.11 | X-H torsion
[ 7974 7965 7964 7962 ] final  174.26 input  175.53 | X-H torsion
[ 8008 7997 7996 7995 ] final  170.04 input   59.86 | X-H torsion
[ 10167 10162 10161 10158 ] final -158.46 input  -65.29 | X-H torsion
[ 10718 10713 10712 10709 ] final  -38.75 input   66.30 | X-H torsion
[ 10763 10752 10751 10750 ] final   90.34 input  -60.55 | X-H torsion
[ 11005 11000 10999 10996 ] final   64.94 input  -57.11 | X-H torsion

> <Gold.Protein.ActiveResidues>
 VAL166  LYS551  ARG553  GLY616  TRP617  ASP618  TYR619  PRO620  LYS621  CYS622 
 ASP623  PHE694  ASN695  SER759  ASP760  ASP761  ALA762  ILE779  LEU786  VAL792 
 PHE793  MET794  SER795  GLU796  ALA797  LYS798  CYS799  TRP800  GLU811  SER814 

> <Gold.Protein.RotatedAtoms>
  152.3772  134.6645  160.0155 H   0  0  0  0  0  0  0  0  0  0  0  0  # atno 6907 bound_to 6896
  151.6919  133.3305  159.3253 H   0  0  0  0  0  0  0  0  0  0  0  0  # atno 6908 bound_to 6896
  150.7719  134.6626  159.6392 H   0  0  0  0  0  0  0  0  0  0  0  0  # atno 6909 bound_to 6896
  144.7225  139.9770  143.6438 H   0  0  0  0  0  0  0  0  0  0  0  0  # atno 7974 bound_to 7965
  156.1402  140.1548  156.8932 H   0  0  0  0  0  0  0  0  0  0  0  0  # atno 8008 bound_to 7997
  154.4981  140.0833  156.7778 H   0  0  0  0  0  0  0  0  0  0  0  0  # atno 8009 bound_to 7997
  155.4093  140.3418  155.4264 H   0  0  0  0  0  0  0  0  0  0  0  0  # atno 8010 bound_to 7997
  139.6691  143.9777  152.2273 H   0  0  0  0  0  0  0  0  0  0  0  0  # atno 10167 bound_to 10162
  156.3002  130.4239  149.8151 H   0  0  0  0  0  0  0  0  0  0  0  0  # atno 10718 bound_to 10713
  153.1966  135.4437  155.0215 H   0  0  0  0  0  0  0  0  0  0  0  0  # atno 10763 bound_to 10752
  154.8122  135.3299  154.7276 H   0  0  0  0  0  0  0  0  0  0  0  0  # atno 10764 bound_to 10752
  153.7725  135.6983  153.4959 H   0  0  0  0  0  0  0  0  0  0  0  0  # atno 10765 bound_to 10752
  139.9926  134.6567  156.0065 H   0  0  0  0  0  0  0  0  0  0  0  0  # atno 11005 bound_to 11000
  146.0517  139.3518  143.0635 LP  0  0  0  0  0  0  0  0  0  0  0  0  # atno 17320 bound_to 7965
  145.8206  140.9681  143.0901 LP  0  0  0  0  0  0  0  0  0  0  0  0  # atno 17321 bound_to 7965
  139.9537  144.6604  150.8147 LP  0  0  0  0  0  0  0  0  0  0  0  0  # atno 17342 bound_to 10162
  140.7611  143.3166  151.2719 LP  0  0  0  0  0  0  0  0  0  0  0  0  # atno 17343 bound_to 10162
  156.5532  130.8351  151.3306 LP  0  0  0  0  0  0  0  0  0  0  0  0  # atno 17370 bound_to 10713
  157.7366  130.9781  150.2144 LP  0  0  0  0  0  0  0  0  0  0  0  0  # atno 17371 bound_to 10713
  141.1578  133.6541  156.4219 LP  0  0  0  0  0  0  0  0  0  0  0  0  # atno 17394 bound_to 11000
  140.4879  134.6603  157.5198 LP  0  0  0  0  0  0  0  0  0  0  0  0  # atno 17395 bound_to 11000

$$$$
