AV-unprocessed.smi:1842|AV-procd|sdf|7498|dock7
  -GOLD-   22720 9203D 1   1.00000     0.00000
 Structure written by MMmdl.
 39 40  0  0  0  0  0  0  0  0  2 V2000
  150.7079  140.4509  155.1353 O   0  0  0  0  0  0  0  0  0  0  0  0
  150.1739  141.4878  155.5281 C   0  0  0  0  0  0  0  0  0  0  0  0
  150.8803  142.3793  156.5539 C   0  0  0  0  0  0  0  0  0  0  0  0
  151.3956  141.6114  157.7885 C   0  0  0  0  0  0  0  0  0  0  0  0
  152.0916  142.4881  158.8509 C   0  0  0  0  0  0  0  0  0  0  0  0
  152.7706  141.6789  159.9593 C   0  0  0  0  0  0  0  0  0  0  0  0
  152.9316  142.6528  161.1335 C   0  0  0  0  0  0  0  0  0  0  0  0
  151.9353  143.7961  160.8870 C   0  0  0  0  0  0  0  0  0  0  0  0
  151.1523  143.4148  159.6273 C   0  0  0  0  0  0  0  0  0  0  0  0
  148.9685  141.9011  155.1077 N   0  0  0  0  0  0  0  0  0  0  0  0
  148.1358  141.2111  154.1270 C   0  0  0  0  0  0  0  0  0  0  0  0
  148.2242  139.6770  154.2427 C   0  0  0  0  0  0  0  0  0  0  0  0
  147.1208  138.9957  153.5594 N   0  0  0  0  0  0  0  0  0  0  0  0
  146.2431  138.0896  154.0967 C   0  0  0  0  0  0  0  0  0  0  0  0
  145.3914  137.7246  153.0859 C   0  0  0  0  0  0  0  0  0  0  0  0
  145.7845  138.4232  151.9758 N   0  3  0  0  0  0  0  0  0  0  0  0
  146.8352  139.1974  152.2662 C   0  0  0  0  0  0  0  0  0  0  0  0
  151.7038  142.9151  156.0795 H   0  0  0  0  0  0  0  0  0  0  0  0
  150.1705  143.1417  156.8757 H   0  0  0  0  0  0  0  0  0  0  0  0
  150.5550  141.0893  158.2470 H   0  0  0  0  0  0  0  0  0  0  0  0
  152.0837  140.8289  157.4657 H   0  0  0  0  0  0  0  0  0  0  0  0
  152.8588  143.1000  158.3738 H   0  0  0  0  0  0  0  0  0  0  0  0
  152.1273  140.8522  160.2641 H   0  0  0  0  0  0  0  0  0  0  0  0
  153.7222  141.2525  159.6398 H   0  0  0  0  0  0  0  0  0  0  0  0
  152.7456  142.1533  162.0849 H   0  0  0  0  0  0  0  0  0  0  0  0
  153.9482  143.0468  161.1656 H   0  0  0  0  0  0  0  0  0  0  0  0
  151.2741  143.9575  161.7391 H   0  0  0  0  0  0  0  0  0  0  0  0
  152.4809  144.7253  160.7168 H   0  0  0  0  0  0  0  0  0  0  0  0
  150.8516  144.2888  159.0487 H   0  0  0  0  0  0  0  0  0  0  0  0
  150.2468  142.8757  159.9096 H   0  0  0  0  0  0  0  0  0  0  0  0
  148.6113  142.7696  155.4792 H   0  0  0  0  0  0  0  0  0  0  0  0
  147.1043  141.5364  154.2651 H   0  0  0  0  0  0  0  0  0  0  0  0
  148.4234  141.5255  153.1225 H   0  0  0  0  0  0  0  0  0  0  0  0
  149.1534  139.3233  153.7946 H   0  0  0  0  0  0  0  0  0  0  0  0
  148.2396  139.3576  155.2857 H   0  0  0  0  0  0  0  0  0  0  0  0
  146.2890  137.7799  155.1308 H   0  0  0  0  0  0  0  0  0  0  0  0
  144.5569  137.0383  153.0739 H   0  0  0  0  0  0  0  0  0  0  0  0
  147.3534  139.8530  151.5888 H   0  0  0  0  0  0  0  0  0  0  0  0
  145.3447  138.3656  151.0658 H   0  0  0  0  0  0  0  0  0  0  0  0
  1  2  2  0  0  0  0
  2  3  1  0  0  0  0
  2 10  1  0  0  0  0
  3  4  1  0  0  0  0
  3 18  1  0  0  0  0
  3 19  1  0  0  0  0
  4  5  1  0  0  0  0
  4 20  1  0  0  0  0
  4 21  1  0  0  0  0
  5  9  1  0  0  0  0
  5  6  1  0  0  0  0
  5 22  1  0  0  0  0
  6  7  1  0  0  0  0
  6 23  1  0  0  0  0
  6 24  1  0  0  0  0
  7  8  1  0  0  0  0
  7 25  1  0  0  0  0
  7 26  1  0  0  0  0
  8  9  1  0  0  0  0
  8 27  1  0  0  0  0
  8 28  1  0  0  0  0
  9 29  1  0  0  0  0
  9 30  1  0  0  0  0
 10 11  1  0  0  0  0
 10 31  1  0  0  0  0
 11 12  1  0  0  0  0
 11 32  1  0  0  0  0
 11 33  1  0  0  0  0
 12 13  1  0  0  0  0
 12 34  1  0  0  0  0
 12 35  1  0  0  0  0
 13 17  1  0  0  0  0
 13 14  1  0  0  0  0
 14 15  2  0  0  0  0
 14 36  1  0  0  0  0
 15 16  1  0  0  0  0
 15 37  1  0  0  0  0
 16 17  2  0  0  0  0
 16 39  1  0  0  0  0
 17 38  1  0  0  0  0
M  CHG  1  16   1
M  END
> <s_m_source_file>
AV-unprocessed.smi

> <i_m_source_file_index>
1842

> <i_lp_mmshare_version>
43012

> <i_f3d_flags>
0

> <s_epik_input>
W0NIMl0xW0NIMl1bQ0gyXVtDSDJdW0NIXTFbQ0gyXVtDSDJdQyg9TylbTkhdW0NIMl1bQ0gyXW4yW2NIXVtjSF1uW2NIXTI=

> <s_epik_cmdline>
J2VwaWtfcHl0aG9uJywgJy1waCcsICc3LjAnLCAnLXRuJywgJzgnLCAnLW1hJywgJzIwMCcsICctbWV0YWxfYmluZGluZycsICctaW1hZScsICc8aW5maWxlLm1hZT4nLCAnLW9tYWUnLCAnPG91dGZpbGUubWFlPic=

> <r_lp_tautomer_probability>
1

> <r_epik_Ionization_Penalty>
0.269886

> <r_epik_Ionization_Penalty_Charging>
0

> <r_epik_Ionization_Penalty_Neutral>
0.269886

> <r_epik_State_Penalty>
0.261983

> <r_epik_Charging_Adjusted_Penalty>
0.261983

> <i_epik_Tot_Q>
1

> <i_epik_Tot_abs_Q>
1

> <r_epik_Metal_State_Penalty>
0.546964

> <b_epik_Metal_Only>
0

> <s_lp_Force_Field>
OPLS_2005

> <r_lp_Energy>
23.3455

> <b_lp_Chiralities_Consistent>
1

> <s_lp_Variant>
AV-unprocessed.smi:1842-1

> <Gold.Version>
5.8.1

> <Gold.Id.Protein>
6NUR|6NUR_protein|mol2

> <Gold.PLP.Fitness>
49.4129

> <Gold.PLP.PLP>
-38.1686

> <Gold.PLP.part.hbond>
-4.0000

> <Gold.PLP.part.metal>
0.0000

> <Gold.PLP.part.buried>
-4.0562

> <Gold.PLP.part.nonpolar>
-30.1283

> <Gold.PLP.part.repulsive>
0.2871

> <Gold.PLP.ligand.clash>
0.0000

> <Gold.PLP.ligand.torsion>
0.3992

> <Gold.PLP.Chemscore.Hbond>
3.0000

> <Gold.PLP.Chemscore.CHOScore>
1.0000

> <Gold.PLP.Chemscore.Metal>
0.0000

> <Gold.Chemscore.Hbonds>
donor molecule, donor type, donor heavy atom, donor atom, acceptor molecule, acceptor atom, score
      L1  H    10    31       P1  8028  0.93
      L1  H    16    39       P1 10171  1.00
      P1  H  7989  7998       L1     1  1.00
      L1  C    17    38       P1  7957  1.00

> <Gold.PLP.Chemscore.Internal.Correction>
0.0426

> <Gold.Rescore>
     Score         DG    S(hbond)    S(metal)    S(lipo)     H(rot)  DE(clash)    DE(int)     intcor
     16.90     -18.97       2.64        0.00      89.29       2.25       0.29       1.78       ----

> <Gold.Chemscore.Fitness>
16.9002

> <Gold.Chemscore.DG>
-18.9720

> <Gold.Chemscore.ZeroCoef>
-5.4800

> <Gold.Chemscore.Hbond>
2.6351

> <Gold.Chemscore.Metal>
0.0000

> <Gold.Chemscore.Lipo>
89.2915

> <Gold.Chemscore.Internal_Hbond>
0.0000

> <Gold.Chemscore.DEClash>
0.2923

> <Gold.Chemscore.DEInternal>
1.7795

> <Gold.Chemscore.Rot>
2.2485

> <Gold.Chemscore.Internal.Correction>
   9.000000E+99

> <Gold.Chemscore.Hbonds>
donor molecule, donor type, donor heavy atom, donor atom, acceptor molecule, acceptor atom, score
      L1  H    10    31       P1  8028  0.89
      L1  H    16    39       P1 10171  0.97
      P1  H  7989  7998       L1     1  0.58

> <Gold.Chemscore.Hbond.Weighted>
-8.8011

> <Gold.Chemscore.Metal.Weighted>
-0.0000

> <Gold.Chemscore.Lipo.Weighted>
-10.4471

> <Gold.Chemscore.Internal_Hbond.Weighted>
0.0000

> <Gold.Chemscore.DEClash.Weighted>
0.2923

> <Gold.Chemscore.DEInternal.Weighted>
1.7795

> <Gold.Chemscore.Rot.Weighted>
5.7562

> <Gold.Chemscore.Internal.Correction.Weighted>
   9.000000E+99

> <Gold.Protein.RotatedTorsions>
[ 6907 6896 6895 6894 ] final   69.29 input  -60.11 | X-H torsion
[ 7974 7965 7964 7962 ] final  -23.92 input  175.53 | X-H torsion
[ 8008 7997 7996 7995 ] final   95.65 input   59.86 | X-H torsion
[ 10167 10162 10161 10158 ] final -138.81 input  -65.29 | X-H torsion
[ 10718 10713 10712 10709 ] final   62.65 input   66.30 | X-H torsion
[ 10763 10752 10751 10750 ] final   66.71 input  -60.55 | X-H torsion
[ 11005 11000 10999 10996 ] final   19.18 input  -57.11 | X-H torsion

> <Gold.Protein.ActiveResidues>
 VAL166  LYS551  ARG553  GLY616  TRP617  ASP618  TYR619  PRO620  LYS621  CYS622 
 ASP623  PHE694  ASN695  SER759  ASP760  ASP761  ALA762  ILE779  LEU786  VAL792 
 PHE793  MET794  SER795  GLU796  ALA797  LYS798  CYS799  TRP800  GLU811  SER814 

> <Gold.Protein.RotatedAtoms>
  152.4676  134.5038  159.9732 H   0  0  0  0  0  0  0  0  0  0  0  0  # atno 6907 bound_to 6896
  151.5072  133.3486  159.2886 H   0  0  0  0  0  0  0  0  0  0  0  0  # atno 6908 bound_to 6896
  150.8669  134.8062  159.7187 H   0  0  0  0  0  0  0  0  0  0  0  0  # atno 6909 bound_to 6896
  146.1587  140.4681  142.8580 H   0  0  0  0  0  0  0  0  0  0  0  0  # atno 7974 bound_to 7965
  156.0712  140.3283  155.7578 H   0  0  0  0  0  0  0  0  0  0  0  0  # atno 8008 bound_to 7997
  155.5302  140.0592  157.2907 H   0  0  0  0  0  0  0  0  0  0  0  0  # atno 8009 bound_to 7997
  154.4531  140.1928  156.0477 H   0  0  0  0  0  0  0  0  0  0  0  0  # atno 8010 bound_to 7997
  139.8441  143.7284  152.2662 H   0  0  0  0  0  0  0  0  0  0  0  0  # atno 10167 bound_to 10162
  157.5916  130.9062  149.9615 H   0  0  0  0  0  0  0  0  0  0  0  0  # atno 10718 bound_to 10713
  153.0152  135.5310  154.6867 H   0  0  0  0  0  0  0  0  0  0  0  0  # atno 10763 bound_to 10752
  154.6012  135.2868  155.0535 H   0  0  0  0  0  0  0  0  0  0  0  0  # atno 10764 bound_to 10752
  154.1591  135.6550  153.5034 H   0  0  0  0  0  0  0  0  0  0  0  0  # atno 10765 bound_to 10752
  140.4165  134.1563  155.7670 H   0  0  0  0  0  0  0  0  0  0  0  0  # atno 11005 bound_to 11000
  144.7997  140.6191  143.6486 LP  0  0  0  0  0  0  0  0  0  0  0  0  # atno 17320 bound_to 7965
  145.4644  139.1509  143.3849 LP  0  0  0  0  0  0  0  0  0  0  0  0  # atno 17321 bound_to 7965
  139.7530  144.7529  151.0478 LP  0  0  0  0  0  0  0  0  0  0  0  0  # atno 17342 bound_to 10162
  140.7795  143.4838  150.9983 LP  0  0  0  0  0  0  0  0  0  0  0  0  # atno 17343 bound_to 10162
  156.0972  130.3658  150.0285 LP  0  0  0  0  0  0  0  0  0  0  0  0  # atno 17370 bound_to 10713
  156.8407  130.9424  151.3632 LP  0  0  0  0  0  0  0  0  0  0  0  0  # atno 17371 bound_to 10713
  141.1801  133.8433  157.1289 LP  0  0  0  0  0  0  0  0  0  0  0  0  # atno 17394 bound_to 11000
  140.0230  134.9937  157.0630 LP  0  0  0  0  0  0  0  0  0  0  0  0  # atno 17395 bound_to 11000

$$$$
