AV-unprocessed.smi:1527|AV-procd|sdf|6147|dock8
  -GOLD-   22720 6293D 1   1.00000     0.00000
 Structure written by MMmdl.
 30 30  0  0  0  0  0  0  0  0  2 V2000
  151.4101  145.1189  159.5786 C   0  0  0  0  0  0  0  0  0  0  0  0
  152.4839  144.1755  160.1399 C   0  0  0  0  0  0  0  0  0  0  0  0
  152.2348  142.6901  159.8167 C   0  0  2  0  0  0  0  0  0  0  0  0
  153.4737  141.8315  160.1182 C   0  0  0  0  0  0  0  0  0  0  0  0
  151.8468  142.5362  158.4164 N   0  0  0  0  0  0  0  0  0  0  0  0
  151.3993  141.4045  157.8509 C   0  0  0  0  0  0  0  0  0  0  0  0
  151.2628  140.3494  158.4723 O   0  0  0  0  0  0  0  0  0  0  0  0
  151.0436  141.5015  156.3590 C   0  0  0  0  0  0  0  0  0  0  0  0
  151.2134  140.2422  155.6193 N   0  0  0  0  0  0  0  0  0  0  0  0
  152.5645  139.6925  155.6910 N   0  5  0  0  0  0  0  0  0  0  0  0
  152.8474  138.5414  155.0254 C   0  0  0  0  0  0  0  0  0  0  0  0
  153.9646  138.0294  155.0246 O   0  0  0  0  0  0  0  0  0  0  0  0
  151.7733  137.8942  154.2905 C   0  0  0  0  0  0  0  0  0  0  0  0
  150.5286  138.4102  154.2637 C   0  0  0  0  0  0  0  0  0  0  0  0
  150.1815  139.6443  154.9579 C   0  0  0  0  0  0  0  0  0  0  0  0
  149.0438  140.1155  154.9468 O   0  0  0  0  0  0  0  0  0  0  0  0
  151.6086  146.1492  159.8738 H   0  0  0  0  0  0  0  0  0  0  0  0
  150.4203  144.8523  159.9499 H   0  0  0  0  0  0  0  0  0  0  0  0
  151.3790  145.0896  158.4891 H   0  0  0  0  0  0  0  0  0  0  0  0
  153.4617  144.4776  159.7627 H   0  0  0  0  0  0  0  0  0  0  0  0
  152.5251  144.3032  161.2223 H   0  0  0  0  0  0  0  0  0  0  0  0
  151.4174  142.3439  160.4522 H   0  0  0  0  0  0  0  0  0  0  0  0
  153.7677  141.9221  161.1640 H   0  0  0  0  0  0  0  0  0  0  0  0
  154.3243  142.1327  159.5059 H   0  0  0  0  0  0  0  0  0  0  0  0
  153.2808  140.7760  159.9235 H   0  0  0  0  0  0  0  0  0  0  0  0
  151.9204  143.3558  157.8316 H   0  0  0  0  0  0  0  0  0  0  0  0
  150.0136  141.8541  156.2820 H   0  0  0  0  0  0  0  0  0  0  0  0
  151.6535  142.2779  155.8939 H   0  0  0  0  0  0  0  0  0  0  0  0
  151.9772  136.9778  153.7566 H   0  0  0  0  0  0  0  0  0  0  0  0
  149.7608  137.8947  153.7065 H   0  0  0  0  0  0  0  0  0  0  0  0
  1  2  1  0  0  0  0
  1 17  1  0  0  0  0
  1 18  1  0  0  0  0
  1 19  1  0  0  0  0
  2  3  1  0  0  0  0
  2 20  1  0  0  0  0
  2 21  1  0  0  0  0
  3  4  1  0  0  0  0
  3  5  1  0  0  0  0
  3 22  1  0  0  0  0
  4 23  1  0  0  0  0
  4 24  1  0  0  0  0
  4 25  1  0  0  0  0
  5  6  1  0  0  0  0
  5 26  1  0  0  0  0
  6  7  2  0  0  0  0
  6  8  1  0  0  0  0
  8 27  1  0  0  0  0
  8 28  1  0  0  0  0
  8  9  1  0  0  0  0
  9 10  1  0  0  0  0
  9 15  1  0  0  0  0
 10 11  1  0  0  0  0
 11 12  2  0  0  0  0
 11 13  1  0  0  0  0
 13 29  1  0  0  0  0
 13 14  2  0  0  0  0
 14 30  1  0  0  0  0
 14 15  1  0  0  0  0
 15 16  2  0  0  0  0
M  CHG  1  10  -1
M  END
> <s_m_source_file>
AV-unprocessed.smi

> <i_m_source_file_index>
1527

> <i_lp_mmshare_version>
43012

> <i_f3d_flags>
0

> <s_epik_input>
W0NIM11bQ0gyXVtDQEhdKFtDSDNdKVtOSF1DKD1PKVtDSDJdbjFbbkhdYyg9TylbY0hdW2NIXWMxPU8=

> <s_epik_cmdline>
J2VwaWtfcHl0aG9uJywgJy1waCcsICc3LjAnLCAnLXRuJywgJzgnLCAnLW1hJywgJzIwMCcsICctbWV0YWxfYmluZGluZycsICctaW1hZScsICc8aW5maWxlLm1hZT4nLCAnLW9tYWUnLCAnPG91dGZpbGUubWFlPic=

> <r_lp_tautomer_probability>
1

> <r_epik_Ionization_Penalty>
0.0984334

> <r_epik_Ionization_Penalty_Charging>
0.0984334

> <r_epik_Ionization_Penalty_Neutral>
1.93017e-08

> <r_epik_State_Penalty>
0.0346952

> <r_epik_Charging_Adjusted_Penalty>
0.133129

> <i_epik_Tot_Q>
-1

> <i_epik_Tot_abs_Q>
1

> <r_epik_Metal_State_Penalty>
0.0346952

> <b_epik_Metal_Only>
0

> <s_lp_Force_Field>
OPLS_2005

> <r_lp_Energy>
18.7632

> <b_lp_Chiralities_Consistent>
1

> <s_lp_Variant>
AV-unprocessed.smi:1527-1

> <Gold.Version>
5.8.1

> <Gold.Id.Protein>
6NUR|6NUR_protein|mol2

> <Gold.PLP.Fitness>
43.9049

> <Gold.PLP.PLP>
-38.9434

> <Gold.PLP.part.hbond>
-2.7548

> <Gold.PLP.part.metal>
0.0000

> <Gold.PLP.part.buried>
-5.4781

> <Gold.PLP.part.nonpolar>
-31.4385

> <Gold.PLP.part.repulsive>
0.1407

> <Gold.PLP.ligand.clash>
0.0000

> <Gold.PLP.ligand.torsion>
0.5259

> <Gold.PLP.Chemscore.Hbond>
2.0000

> <Gold.PLP.Chemscore.CHOScore>
0.0000

> <Gold.PLP.Chemscore.Metal>
0.0000

> <Gold.Chemscore.Hbonds>
donor molecule, donor type, donor heavy atom, donor atom, acceptor molecule, acceptor atom, score
      P1  H  7997  8008       L1    10  2.00

> <Gold.PLP.Chemscore.Internal.Correction>
0.0133

> <Gold.Rescore>
     Score         DG    S(hbond)    S(metal)    S(lipo)     H(rot)  DE(clash)    DE(int)     intcor
     10.88     -11.47       0.79        0.00      71.23       1.94       0.01       0.58       ----

> <Gold.Chemscore.Fitness>
10.8802

> <Gold.Chemscore.DG>
-11.4711

> <Gold.Chemscore.ZeroCoef>
-5.4800

> <Gold.Chemscore.Hbond>
0.7894

> <Gold.Chemscore.Metal>
0.0000

> <Gold.Chemscore.Lipo>
71.2276

> <Gold.Chemscore.Internal_Hbond>
0.0000

> <Gold.Chemscore.DEClash>
0.0111

> <Gold.Chemscore.DEInternal>
0.5797

> <Gold.Chemscore.Rot>
1.9449

> <Gold.Chemscore.Internal.Correction>
   9.000000E+99

> <Gold.Chemscore.Hbonds>
donor molecule, donor type, donor heavy atom, donor atom, acceptor molecule, acceptor atom, score
      P1  H  7997  8008       L1    10  0.25

> <Gold.Chemscore.Hbond.Weighted>
-2.6365

> <Gold.Chemscore.Metal.Weighted>
-0.0000

> <Gold.Chemscore.Lipo.Weighted>
-8.3336

> <Gold.Chemscore.Internal_Hbond.Weighted>
0.0000

> <Gold.Chemscore.DEClash.Weighted>
0.0111

> <Gold.Chemscore.DEInternal.Weighted>
0.5797

> <Gold.Chemscore.Rot.Weighted>
4.9791

> <Gold.Chemscore.Internal.Correction.Weighted>
   9.000000E+99

> <Gold.Protein.RotatedTorsions>
[ 6907 6896 6895 6894 ] final -101.58 input  -60.11 | X-H torsion
[ 7974 7965 7964 7962 ] final -172.36 input  175.53 | X-H torsion
[ 8008 7997 7996 7995 ] final  -45.42 input   59.86 | X-H torsion
[ 10167 10162 10161 10158 ] final  131.47 input  -65.29 | X-H torsion
[ 10718 10713 10712 10709 ] final -112.55 input   66.30 | X-H torsion
[ 10763 10752 10751 10750 ] final -172.36 input  -60.55 | X-H torsion
[ 11005 11000 10999 10996 ] final -158.18 input  -57.11 | X-H torsion

> <Gold.Protein.ActiveResidues>
 VAL166  LYS551  ARG553  GLY616  TRP617  ASP618  TYR619  PRO620  LYS621  CYS622 
 ASP623  PHE694  ASN695  SER759  ASP760  ASP761  ALA762  ILE779  LEU786  VAL792 
 PHE793  MET794  SER795  GLU796  ALA797  LYS798  CYS799  TRP800  GLU811  SER814 

> <Gold.Protein.RotatedAtoms>
  150.7160  134.0712  159.3864 H   0  0  0  0  0  0  0  0  0  0  0  0  # atno 6907 bound_to 6896
  151.8695  135.0492  160.0487 H   0  0  0  0  0  0  0  0  0  0  0  0  # atno 6908 bound_to 6896
  152.2654  133.5299  159.5443 H   0  0  0  0  0  0  0  0  0  0  0  0  # atno 6909 bound_to 6896
  144.7147  140.1784  143.6360 H   0  0  0  0  0  0  0  0  0  0  0  0  # atno 7974 bound_to 7965
  154.4001  140.1397  156.3845 H   0  0  0  0  0  0  0  0  0  0  0  0  # atno 8008 bound_to 7997
  155.7973  140.3477  155.5362 H   0  0  0  0  0  0  0  0  0  0  0  0  # atno 8009 bound_to 7997
  155.8519  140.0943  157.1659 H   0  0  0  0  0  0  0  0  0  0  0  0  # atno 8010 bound_to 7997
  139.5382  144.6704  151.4713 H   0  0  0  0  0  0  0  0  0  0  0  0  # atno 10167 bound_to 10162
  156.0712  130.5926  150.8524 H   0  0  0  0  0  0  0  0  0  0  0  0  # atno 10718 bound_to 10713
  154.6202  135.2874  155.0335 H   0  0  0  0  0  0  0  0  0  0  0  0  # atno 10763 bound_to 10752
  154.1533  135.6500  153.4972 H   0  0  0  0  0  0  0  0  0  0  0  0  # atno 10764 bound_to 10752
  153.0232  135.5360  154.6988 H   0  0  0  0  0  0  0  0  0  0  0  0  # atno 10765 bound_to 10752
  140.6564  134.4395  157.5235 H   0  0  0  0  0  0  0  0  0  0  0  0  # atno 11005 bound_to 11000
  145.8879  139.2359  143.1567 LP  0  0  0  0  0  0  0  0  0  0  0  0  # atno 17320 bound_to 7965
  145.9932  140.8585  143.0056 LP  0  0  0  0  0  0  0  0  0  0  0  0  # atno 17321 bound_to 7965
  140.6600  143.8519  150.6877 LP  0  0  0  0  0  0  0  0  0  0  0  0  # atno 17342 bound_to 10162
  140.1911  143.4036  152.1863 LP  0  0  0  0  0  0  0  0  0  0  0  0  # atno 17343 bound_to 10162
  157.5784  131.0946  150.9309 LP  0  0  0  0  0  0  0  0  0  0  0  0  # atno 17370 bound_to 10713
  156.9510  130.5419  149.5282 LP  0  0  0  0  0  0  0  0  0  0  0  0  # atno 17371 bound_to 10713
  139.9028  134.8517  156.1827 LP  0  0  0  0  0  0  0  0  0  0  0  0  # atno 17394 bound_to 11000
  141.0498  133.6895  156.1750 LP  0  0  0  0  0  0  0  0  0  0  0  0  # atno 17395 bound_to 11000

$$$$
