AV-unprocessed.smi:654|AV-procd|sdf|3212|dock8
  -GOLD-   22720 0153D 1   1.00000     0.00000
 Structure written by MMmdl.
 47 49  0  0  0  0  0  0  0  0  1 V2000
  146.9893  137.4103  151.2266 O   0  0  0  0  0  0  0  0  0  0  0  0
  145.9894  137.6563  151.9025 C   0  0  0  0  0  0  0  0  0  0  0  0
  145.9832  138.6178  152.8406 N   0  0  0  0  0  0  0  0  0  0  0  0
  147.0872  139.5292  153.1230 C   0  0  0  0  0  0  0  0  0  0  0  0
  147.1353  139.9498  154.6049 C   0  0  0  0  0  0  0  0  0  0  0  0
  148.5415  140.2451  155.0989 C   0  0  0  0  0  0  0  0  0  0  0  0
  148.7517  141.0058  156.2671 C   0  0  0  0  0  0  0  0  0  0  0  0
  150.0732  141.2696  156.6759 C   0  0  0  0  0  0  0  0  0  0  0  0
  151.1309  140.7583  155.8972 C   0  0  0  0  0  0  0  0  0  0  0  0
  150.9417  140.0279  154.7773 N   0  0  0  0  0  0  0  0  0  0  0  0
  149.6716  139.7785  154.3931 C   0  0  0  0  0  0  0  0  0  0  0  0
  144.8197  136.9785  151.7766 N   0  0  0  0  0  0  0  0  0  0  0  0
  143.6149  137.1667  152.5994 C   0  0  0  0  0  0  0  0  0  0  0  0
  143.5023  136.0002  153.5889 C   0  0  0  0  0  0  0  0  0  0  0  0
  143.2989  134.4218  152.7071 S   0  0  0  0  0  0  0  0  0  0  0  0
  144.6693  134.4977  151.4903 C   0  0  0  0  0  0  0  0  0  0  0  0
  146.0329  134.2335  152.1853 C   0  0  0  0  0  0  0  0  0  0  0  0
  146.1864  132.7924  152.7033 C   0  0  0  0  0  0  0  0  0  0  0  0
  145.9619  131.7686  151.5832 C   0  0  0  0  0  0  0  0  0  0  0  0
  144.5951  131.9776  150.9188 C   0  0  0  0  0  0  0  0  0  0  0  0
  144.4429  133.4195  150.4006 C   0  0  0  0  0  0  0  0  0  0  0  0
  144.6467  135.8904  150.8031 C   0  0  0  0  0  0  0  0  0  0  0  0
  145.1332  138.7565  153.3672 H   0  0  0  0  0  0  0  0  0  0  0  0
  148.0101  139.0103  152.8628 H   0  0  0  0  0  0  0  0  0  0  0  0
  147.0353  140.4068  152.4768 H   0  0  0  0  0  0  0  0  0  0  0  0
  146.5120  140.8314  154.7582 H   0  0  0  0  0  0  0  0  0  0  0  0
  146.7010  139.1635  155.2238 H   0  0  0  0  0  0  0  0  0  0  0  0
  147.9164  141.3853  156.8372 H   0  0  0  0  0  0  0  0  0  0  0  0
  150.2719  141.8509  157.5641 H   0  0  0  0  0  0  0  0  0  0  0  0
  152.1567  140.9419  156.1812 H   0  0  0  0  0  0  0  0  0  0  0  0
  149.5546  139.1986  153.4893 H   0  0  0  0  0  0  0  0  0  0  0  0
  143.6017  138.1142  153.1383 H   0  0  0  0  0  0  0  0  0  0  0  0
  142.7310  137.1988  151.9607 H   0  0  0  0  0  0  0  0  0  0  0  0
  144.3858  135.9500  154.2259 H   0  0  0  0  0  0  0  0  0  0  0  0
  142.6448  136.1426  154.2466 H   0  0  0  0  0  0  0  0  0  0  0  0
  146.8392  134.4346  151.4785 H   0  0  0  0  0  0  0  0  0  0  0  0
  146.1869  134.9229  153.0148 H   0  0  0  0  0  0  0  0  0  0  0  0
  147.1813  132.6600  153.1289 H   0  0  0  0  0  0  0  0  0  0  0  0
  145.4814  132.6100  153.5148 H   0  0  0  0  0  0  0  0  0  0  0  0
  146.7509  131.8635  150.8362 H   0  0  0  0  0  0  0  0  0  0  0  0
  146.0325  130.7563  151.9825 H   0  0  0  0  0  0  0  0  0  0  0  0
  144.4761  131.2756  150.0931 H   0  0  0  0  0  0  0  0  0  0  0  0
  143.8012  131.7471  151.6298 H   0  0  0  0  0  0  0  0  0  0  0  0
  143.4559  133.5416  149.9531 H   0  0  0  0  0  0  0  0  0  0  0  0
  145.1585  133.5685  149.5905 H   0  0  0  0  0  0  0  0  0  0  0  0
  143.7014  136.0292  150.2759 H   0  0  0  0  0  0  0  0  0  0  0  0
  145.4061  135.9299  150.0206 H   0  0  0  0  0  0  0  0  0  0  0  0
  1  2  2  0  0  0  0
  2  3  1  0  0  0  0
  2 12  1  0  0  0  0
  3  4  1  0  0  0  0
  3 23  1  0  0  0  0
  4  5  1  0  0  0  0
  4 24  1  0  0  0  0
  4 25  1  0  0  0  0
  5  6  1  0  0  0  0
  5 26  1  0  0  0  0
  5 27  1  0  0  0  0
  6 11  1  0  0  0  0
  6  7  2  0  0  0  0
  7  8  1  0  0  0  0
  7 28  1  0  0  0  0
  8  9  2  0  0  0  0
  8 29  1  0  0  0  0
  9 10  1  0  0  0  0
  9 30  1  0  0  0  0
 10 11  2  0  0  0  0
 11 31  1  0  0  0  0
 12 22  1  0  0  0  0
 12 13  1  0  0  0  0
 13 14  1  0  0  0  0
 13 32  1  0  0  0  0
 13 33  1  0  0  0  0
 14 15  1  0  0  0  0
 14 34  1  0  0  0  0
 14 35  1  0  0  0  0
 15 16  1  0  0  0  0
 16 21  1  0  0  0  0
 16 17  1  0  0  0  0
 16 22  1  0  0  0  0
 17 18  1  0  0  0  0
 17 36  1  0  0  0  0
 17 37  1  0  0  0  0
 18 19  1  0  0  0  0
 18 38  1  0  0  0  0
 18 39  1  0  0  0  0
 19 20  1  0  0  0  0
 19 40  1  0  0  0  0
 19 41  1  0  0  0  0
 20 21  1  0  0  0  0
 20 42  1  0  0  0  0
 20 43  1  0  0  0  0
 21 44  1  0  0  0  0
 21 45  1  0  0  0  0
 22 46  1  0  0  0  0
 22 47  1  0  0  0  0
M  END
> <s_m_source_file>
AV-unprocessed.smi

> <i_m_source_file_index>
654

> <i_lp_mmshare_version>
43012

> <i_f3d_flags>
0

> <s_epik_input>
W2NIXTFuW2NIXVtjSF1bY0hdYzFbQ0gyXVtDSDJdW05IXUMoPU8pTihbQ0gyXTIpW0NIMl1bQ0gyXVNDMjNbQ0gyXVtDSDJdW0NIMl1bQ0gyXVtDSDJdMw==

> <s_epik_cmdline>
J2VwaWtfcHl0aG9uJywgJy1waCcsICc3LjAnLCAnLXRuJywgJzgnLCAnLW1hJywgJzIwMCcsICctbWV0YWxfYmluZGluZycsICctaW1hZScsICc8aW5maWxlLm1hZT4nLCAnLW9tYWUnLCAnPG91dGZpbGUubWFlPic=

> <r_epik_Ionization_Penalty>
0.0144586

> <r_epik_Ionization_Penalty_Charging>
0

> <r_epik_Ionization_Penalty_Neutral>
0.0144586

> <r_epik_State_Penalty>
0.0112665

> <r_epik_Charging_Adjusted_Penalty>
0.0112665

> <i_epik_Tot_Q>
0

> <i_epik_Tot_abs_Q>
0

> <r_epik_Metal_State_Penalty>
0.0109983

> <b_epik_Metal_Only>
0

> <s_lp_Force_Field>
OPLS_2005

> <r_lp_Energy>
31.4252

> <b_lp_Chiralities_Consistent>
1

> <s_lp_Variant>
AV-unprocessed.smi:654-1

> <Gold.Version>
5.8.1

> <Gold.Id.Protein>
6NUR|6NUR_protein|mol2

> <Gold.PLP.Fitness>
40.1350

> <Gold.PLP.PLP>
-32.1863

> <Gold.PLP.part.hbond>
-3.0000

> <Gold.PLP.part.metal>
0.0000

> <Gold.PLP.part.buried>
1.0381

> <Gold.PLP.part.nonpolar>
-34.6356

> <Gold.PLP.part.repulsive>
4.7104

> <Gold.PLP.ligand.clash>
0.0000

> <Gold.PLP.ligand.torsion>
0.6364

> <Gold.PLP.Chemscore.Hbond>
2.0749

> <Gold.PLP.Chemscore.CHOScore>
0.9976

> <Gold.PLP.Chemscore.Metal>
0.0000

> <Gold.Chemscore.Hbonds>
donor molecule, donor type, donor heavy atom, donor atom, acceptor molecule, acceptor atom, score
      L1  H     3    23       P1 10175  0.01
      P1  H  7954  7966       L1     1  1.00
      P1  H  7989  7998       L1    10  1.00
      L1  C    11    31       P1  7957  0.95

> <Gold.PLP.Chemscore.Internal.Correction>
0.0042

> <Gold.Rescore>
     Score         DG    S(hbond)    S(metal)    S(lipo)     H(rot)  DE(clash)    DE(int)     intcor
     15.74     -19.44       1.87        0.00      92.80       1.23       3.19       0.51       ----

> <Gold.Chemscore.Fitness>
15.7414

> <Gold.Chemscore.DG>
-19.4400

> <Gold.Chemscore.ZeroCoef>
-5.4800

> <Gold.Chemscore.Hbond>
1.8697

> <Gold.Chemscore.Metal>
0.0000

> <Gold.Chemscore.Lipo>
92.8019

> <Gold.Chemscore.Internal_Hbond>
0.0000

> <Gold.Chemscore.DEClash>
3.1896

> <Gold.Chemscore.DEInternal>
0.5089

> <Gold.Chemscore.Rot>
1.2276

> <Gold.Chemscore.Internal.Correction>
   9.000000E+99

> <Gold.Chemscore.Hbonds>
donor molecule, donor type, donor heavy atom, donor atom, acceptor molecule, acceptor atom, score
      L1  H     3    23       P1 10175  0.02
      P1  H  7954  7966       L1     1  1.00
      P1  H  7989  7998       L1    10  0.33

> <Gold.Chemscore.Hbond.Weighted>
-6.2449

> <Gold.Chemscore.Metal.Weighted>
-0.0000

> <Gold.Chemscore.Lipo.Weighted>
-10.8578

> <Gold.Chemscore.Internal_Hbond.Weighted>
0.0000

> <Gold.Chemscore.DEClash.Weighted>
3.1896

> <Gold.Chemscore.DEInternal.Weighted>
0.5089

> <Gold.Chemscore.Rot.Weighted>
3.1427

> <Gold.Chemscore.Internal.Correction.Weighted>
   9.000000E+99

> <Gold.Protein.RotatedTorsions>
[ 6907 6896 6895 6894 ] final  100.70 input  -60.11 | X-H torsion
[ 7974 7965 7964 7962 ] final -176.14 input  175.53 | X-H torsion
[ 8008 7997 7996 7995 ] final   18.85 input   59.86 | X-H torsion
[ 10167 10162 10161 10158 ] final  -60.00 input  -65.29 | X-H torsion
[ 10718 10713 10712 10709 ] final -130.09 input   66.30 | X-H torsion
[ 10763 10752 10751 10750 ] final -177.74 input  -60.55 | X-H torsion
[ 11005 11000 10999 10996 ] final   69.96 input  -57.11 | X-H torsion

> <Gold.Protein.ActiveResidues>
 VAL166  LYS551  ARG553  GLY616  TRP617  ASP618  TYR619  PRO620  LYS621  CYS622 
 ASP623  PHE694  ASN695  SER759  ASP760  ASP761  ALA762  ILE779  LEU786  VAL792 
 PHE793  MET794  SER795  GLU796  ALA797  LYS798  CYS799  TRP800  GLU811  SER814 

> <Gold.Protein.RotatedAtoms>
  152.5366  134.0237  159.7993 H   0  0  0  0  0  0  0  0  0  0  0  0  # atno 6907 bound_to 6896
  151.0420  133.5690  159.2657 H   0  0  0  0  0  0  0  0  0  0  0  0  # atno 6908 bound_to 6896
  151.2657  135.0676  159.9168 H   0  0  0  0  0  0  0  0  0  0  0  0  # atno 6909 bound_to 6896
  144.7127  140.1215  143.6405 H   0  0  0  0  0  0  0  0  0  0  0  0  # atno 7974 bound_to 7965
  154.9120  140.3015  155.5261 H   0  0  0  0  0  0  0  0  0  0  0  0  # atno 8008 bound_to 7997
  156.3014  140.2387  156.4096 H   0  0  0  0  0  0  0  0  0  0  0  0  # atno 8009 bound_to 7997
  154.8415  140.0413  157.1533 H   0  0  0  0  0  0  0  0  0  0  0  0  # atno 8010 bound_to 7997
  140.6099  143.2384  151.5734 H   0  0  0  0  0  0  0  0  0  0  0  0  # atno 10167 bound_to 10162
  156.2110  130.6918  151.0649 H   0  0  0  0  0  0  0  0  0  0  0  0  # atno 10718 bound_to 10713
  154.5563  135.2816  155.0961 H   0  0  0  0  0  0  0  0  0  0  0  0  # atno 10763 bound_to 10752
  154.2387  135.6361  153.5203 H   0  0  0  0  0  0  0  0  0  0  0  0  # atno 10764 bound_to 10752
  153.0016  135.5555  154.6144 H   0  0  0  0  0  0  0  0  0  0  0  0  # atno 10765 bound_to 10752
  139.9624  134.7038  156.0617 H   0  0  0  0  0  0  0  0  0  0  0  0  # atno 11005 bound_to 11000
  145.9367  139.2641  143.1293 LP  0  0  0  0  0  0  0  0  0  0  0  0  # atno 17320 bound_to 7965
  145.9467  140.8939  143.0280 LP  0  0  0  0  0  0  0  0  0  0  0  0  # atno 17321 bound_to 7965
  139.5353  144.2799  152.1238 LP  0  0  0  0  0  0  0  0  0  0  0  0  # atno 17342 bound_to 10162
  140.1996  144.4671  150.6438 LP  0  0  0  0  0  0  0  0  0  0  0  0  # atno 17343 bound_to 10162
  157.7038  131.0765  150.6733 LP  0  0  0  0  0  0  0  0  0  0  0  0  # atno 17370 bound_to 10713
  156.6793  130.4562  149.5633 LP  0  0  0  0  0  0  0  0  0  0  0  0  # atno 17371 bound_to 10713
  141.1302  133.6588  156.3445 LP  0  0  0  0  0  0  0  0  0  0  0  0  # atno 17394 bound_to 11000
  140.5470  134.6064  157.5397 LP  0  0  0  0  0  0  0  0  0  0  0  0  # atno 17395 bound_to 11000

$$$$
