AV-unprocessed.smi:2722|AV-procd|sdf|10504|dock2
  -GOLD-   2272014543D 1   1.00000     0.00000
 Structure written by MMmdl.
 27 27  0  0  0  0  0  0  0  0  2 V2000
  149.8081  139.1504  158.3837 C   0  0  0  0  0  0  0  0  0  0  0  0
  151.0172  138.5218  157.6554 C   0  0  1  0  0  0  0  0  0  0  0  0
  150.5318  138.0820  156.4002 O   0  0  0  0  0  0  0  0  0  0  0  0
  152.1428  139.5625  157.3601 C   0  0  0  0  0  0  0  0  0  0  0  0
  152.5052  140.4552  158.4801 N   0  0  0  0  0  0  0  0  0  0  0  0
  152.0614  141.7919  158.4102 C   0  0  0  0  0  0  0  0  0  0  0  0
  152.3199  142.7045  159.3649 C   0  0  0  0  0  0  0  0  0  0  0  0
  151.8410  144.1408  159.2285 C   0  0  0  0  0  0  0  0  0  0  0  0
  152.1893  144.8436  160.3059 F   0  0  0  0  0  0  0  0  0  0  0  0
  152.3654  144.7330  158.1550 F   0  0  0  0  0  0  0  0  0  0  0  0
  150.5129  144.1807  159.1228 F   0  0  0  0  0  0  0  0  0  0  0  0
  153.0970  142.2486  160.5004 C   0  0  0  0  0  0  0  0  0  0  0  0
  153.5107  140.9700  160.5949 C   0  0  0  0  0  0  0  0  0  0  0  0
  153.1990  139.9825  159.5585 C   0  0  0  0  0  0  0  0  0  0  0  0
  153.5376  138.8035  159.6617 O   0  0  0  0  0  0  0  0  0  0  0  0
  151.5513  137.2938  158.4297 C   0  0  0  0  0  0  0  0  0  0  0  0
  150.9900  137.0218  159.5150 O   0  0  0  0  0  0  0  0  0  0  0  0
  152.4828  136.6273  157.9256 O   0  5  0  0  0  0  0  0  0  0  0  0
  150.0693  139.5091  159.3790 H   0  0  0  0  0  0  0  0  0  0  0  0
  148.9960  138.4315  158.5019 H   0  0  0  0  0  0  0  0  0  0  0  0
  149.4109  139.9994  157.8268 H   0  0  0  0  0  0  0  0  0  0  0  0
  151.2577  137.7094  155.9231 H   0  0  0  0  0  0  0  0  0  0  0  0
  153.0438  139.0295  157.0502 H   0  0  0  0  0  0  0  0  0  0  0  0
  151.8772  140.1502  156.4795 H   0  0  0  0  0  0  0  0  0  0  0  0
  151.5019  142.0358  157.5185 H   0  0  0  0  0  0  0  0  0  0  0  0
  153.3534  142.9395  161.2895 H   0  0  0  0  0  0  0  0  0  0  0  0
  154.0879  140.6634  161.4548 H   0  0  0  0  0  0  0  0  0  0  0  0
  1  2  1  0  0  0  0
  1 19  1  0  0  0  0
  1 20  1  0  0  0  0
  1 21  1  0  0  0  0
  2  3  1  0  0  0  0
  2  4  1  0  0  0  0
  2 16  1  0  0  0  0
  3 22  1  0  0  0  0
  4  5  1  0  0  0  0
  4 23  1  0  0  0  0
  4 24  1  0  0  0  0
  5 14  1  0  0  0  0
  5  6  1  0  0  0  0
  6  7  2  0  0  0  0
  6 25  1  0  0  0  0
  7  8  1  0  0  0  0
  7 12  1  0  0  0  0
  8  9  1  0  0  0  0
  8 10  1  0  0  0  0
  8 11  1  0  0  0  0
 12 13  2  0  0  0  0
 12 26  1  0  0  0  0
 13 14  1  0  0  0  0
 13 27  1  0  0  0  0
 14 15  2  0  0  0  0
 16 17  2  0  0  0  0
 16 18  1  0  0  0  0
M  CHG  1  18  -1
M  END
> <s_m_source_file>
AV-unprocessed.smi

> <i_m_source_file_index>
2722

> <i_lp_mmshare_version>
43012

> <i_f3d_flags>
0

> <s_epik_input>
Tz1DKFtPSF0pW0NAXShbQ0gzXSkoW09IXSlbQ0gyXW4xW2NIXWMoQyhGKShGKUYpW2NIXVtjSF1jMT1P

> <s_epik_cmdline>
J2VwaWtfcHl0aG9uJywgJy1waCcsICc3LjAnLCAnLXRuJywgJzgnLCAnLW1hJywgJzIwMCcsICctbWV0YWxfYmluZGluZycsICctaW1hZScsICc8aW5maWxlLm1hZT4nLCAnLW9tYWUnLCAnPG91dGZpbGUubWFlPic=

> <r_lp_tautomer_probability>
1

> <r_epik_Ionization_Penalty>
0.000391429

> <r_epik_Ionization_Penalty_Charging>
0.000383902

> <r_epik_Ionization_Penalty_Neutral>
7.52792e-06

> <r_epik_State_Penalty>
0.000234534

> <r_epik_Charging_Adjusted_Penalty>
0.000618436

> <i_epik_Tot_Q>
-1

> <i_epik_Tot_abs_Q>
1

> <r_epik_Metal_State_Penalty>
-0

> <b_epik_Metal_Only>
0

> <s_lp_Force_Field>
OPLS_2005

> <r_lp_Energy>
15.2908

> <b_lp_Chiralities_Consistent>
1

> <s_lp_Variant>
AV-unprocessed.smi:2722-1

> <Gold.Version>
5.8.1

> <Gold.Id.Protein>
6NUR|6NUR_protein|mol2

> <Gold.PLP.Fitness>
43.8081

> <Gold.PLP.PLP>
-38.4641

> <Gold.PLP.part.hbond>
-1.6126

> <Gold.PLP.part.metal>
0.0000

> <Gold.PLP.part.buried>
-5.0968

> <Gold.PLP.part.nonpolar>
-31.7904

> <Gold.PLP.part.repulsive>
0.0000

> <Gold.PLP.ligand.clash>
0.0000

> <Gold.PLP.ligand.torsion>
0.4060

> <Gold.PLP.Chemscore.Hbond>
2.0000

> <Gold.PLP.Chemscore.CHOScore>
0.0000

> <Gold.PLP.Chemscore.Metal>
0.0000

> <Gold.Chemscore.Hbonds>
donor molecule, donor type, donor heavy atom, donor atom, acceptor molecule, acceptor atom, score
      P1  H  6896  6907       L1    17  2.00

> <Gold.PLP.Chemscore.Internal.Correction>
0.1561

> <Gold.Rescore>
     Score         DG    S(hbond)    S(metal)    S(lipo)     H(rot)  DE(clash)    DE(int)     intcor
      9.59     -11.49       1.71        0.00      60.21       2.63       0.02       1.88       ----

> <Gold.Chemscore.Fitness>
9.5893

> <Gold.Chemscore.DG>
-11.4944

> <Gold.Chemscore.ZeroCoef>
-5.4800

> <Gold.Chemscore.Hbond>
1.7110

> <Gold.Chemscore.Metal>
0.0000

> <Gold.Chemscore.Lipo>
60.2098

> <Gold.Chemscore.Internal_Hbond>
0.0000

> <Gold.Chemscore.DEClash>
0.0237

> <Gold.Chemscore.DEInternal>
1.8813

> <Gold.Chemscore.Rot>
2.6348

> <Gold.Chemscore.Internal.Correction>
   9.000000E+99

> <Gold.Chemscore.Hbonds>
donor molecule, donor type, donor heavy atom, donor atom, acceptor molecule, acceptor atom, score
      P1  H  6896  6907       L1    17  0.69

> <Gold.Chemscore.Hbond.Weighted>
-5.7149

> <Gold.Chemscore.Metal.Weighted>
-0.0000

> <Gold.Chemscore.Lipo.Weighted>
-7.0445

> <Gold.Chemscore.Internal_Hbond.Weighted>
0.0000

> <Gold.Chemscore.DEClash.Weighted>
0.0237

> <Gold.Chemscore.DEInternal.Weighted>
1.8813

> <Gold.Chemscore.Rot.Weighted>
6.7451

> <Gold.Chemscore.Internal.Correction.Weighted>
   9.000000E+99

> <Gold.Protein.RotatedTorsions>
[ 6907 6896 6895 6894 ] final  -24.75 input  -60.11 | X-H torsion
[ 7974 7965 7964 7962 ] final   60.35 input  175.53 | X-H torsion
[ 8008 7997 7996 7995 ] final   30.66 input   59.86 | X-H torsion
[ 10167 10162 10161 10158 ] final   52.91 input  -65.29 | X-H torsion
[ 10718 10713 10712 10709 ] final  -64.17 input   66.30 | X-H torsion
[ 10763 10752 10751 10750 ] final   -2.43 input  -60.55 | X-H torsion
[ 11005 11000 10999 10996 ] final  149.27 input  -57.11 | X-H torsion

> <Gold.Protein.ActiveResidues>
 VAL166  LYS551  ARG553  GLY616  TRP617  ASP618  TYR619  PRO620  LYS621  CYS622 
 ASP623  PHE694  ASN695  SER759  ASP760  ASP761  ALA762  ILE779  LEU786  VAL792 
 PHE793  MET794  SER795  GLU796  ALA797  LYS798  CYS799  TRP800  GLU811  SER814 

> <Gold.Protein.RotatedAtoms>
  151.1850  135.0377  159.8808 H   0  0  0  0  0  0  0  0  0  0  0  0  # atno 6907 bound_to 6896
  152.5443  134.1020  159.8332 H   0  0  0  0  0  0  0  0  0  0  0  0  # atno 6908 bound_to 6896
  151.1142  133.5104  159.2636 H   0  0  0  0  0  0  0  0  0  0  0  0  # atno 6909 bound_to 6896
  145.8970  139.3553  143.0615 H   0  0  0  0  0  0  0  0  0  0  0  0  # atno 7974 bound_to 7965
  155.0939  140.3223  155.4566 H   0  0  0  0  0  0  0  0  0  0  0  0  # atno 8008 bound_to 7997
  156.2735  140.2073  156.6013 H   0  0  0  0  0  0  0  0  0  0  0  0  # atno 8009 bound_to 7997
  154.6881  140.0519  157.0323 H   0  0  0  0  0  0  0  0  0  0  0  0  # atno 8010 bound_to 7997
  140.2464  144.3527  150.6363 H   0  0  0  0  0  0  0  0  0  0  0  0  # atno 10167 bound_to 10162
  156.0745  130.4230  150.1382 H   0  0  0  0  0  0  0  0  0  0  0  0  # atno 10718 bound_to 10713
  153.3579  135.6989  153.6736 H   0  0  0  0  0  0  0  0  0  0  0  0  # atno 10763 bound_to 10752
  153.5436  135.3568  155.2730 H   0  0  0  0  0  0  0  0  0  0  0  0  # atno 10764 bound_to 10752
  154.8663  135.4209  154.2829 H   0  0  0  0  0  0  0  0  0  0  0  0  # atno 10765 bound_to 10752
  140.1030  134.8971  157.1824 H   0  0  0  0  0  0  0  0  0  0  0  0  # atno 11005 bound_to 11000
  145.8838  140.9346  143.0587 LP  0  0  0  0  0  0  0  0  0  0  0  0  # atno 17320 bound_to 7965
  144.6733  140.0815  143.7469 LP  0  0  0  0  0  0  0  0  0  0  0  0  # atno 17321 bound_to 7965
  140.6074  143.2168  151.6953 LP  0  0  0  0  0  0  0  0  0  0  0  0  # atno 17342 bound_to 10162
  139.5060  144.3696  152.0483 LP  0  0  0  0  0  0  0  0  0  0  0  0  # atno 17343 bound_to 10162
  156.9426  130.9749  151.3513 LP  0  0  0  0  0  0  0  0  0  0  0  0  # atno 17370 bound_to 10713
  157.5834  130.8392  149.8555 LP  0  0  0  0  0  0  0  0  0  0  0  0  # atno 17371 bound_to 10713
  140.3194  134.2934  155.7249 LP  0  0  0  0  0  0  0  0  0  0  0  0  # atno 17394 bound_to 11000
  141.2111  133.7700  156.9889 LP  0  0  0  0  0  0  0  0  0  0  0  0  # atno 17395 bound_to 11000

$$$$
