AV-unprocessed.smi:2893|AV-procd|sdf|11125|dock1
  -GOLD-   2272015593D 1   1.00000     0.00000
 Structure written by MMmdl.
 37 39  0  0  0  0  0  0  0  0  1 V2000
  153.8281  136.2879  164.3602 C   0  0  0  0  0  0  0  0  0  0  0  0
  154.6832  136.3724  163.0889 C   0  0  0  0  0  0  0  0  0  0  0  0
  154.1995  137.4089  162.1848 N   0  0  0  0  0  0  0  0  0  0  0  0
  153.7693  137.2037  160.9279 C   0  0  0  0  0  0  0  0  0  0  0  0
  153.7293  136.0905  160.4021 O   0  0  0  0  0  0  0  0  0  0  0  0
  153.2879  138.4247  160.1901 C   0  0  0  0  0  0  0  0  0  0  0  0
  152.5415  138.2851  158.9998 C   0  0  0  0  0  0  0  0  0  0  0  0
  152.1274  139.4566  158.3431 C   0  0  0  0  0  0  0  0  0  0  0  0
  152.4899  140.6906  158.9151 C   0  0  0  0  0  0  0  0  0  0  0  0
  152.0914  141.8752  158.2800 N   0  0  0  0  0  0  0  0  0  0  0  0
  152.3575  143.1784  158.8795 C   0  0  1  0  0  0  0  0  0  0  0  0
  151.8609  144.3491  158.0211 C   0  0  0  0  0  0  0  0  0  0  0  0
  150.9419  145.0916  158.9985 C   0  0  2  0  0  0  0  0  0  0  0  0
  151.7230  145.7620  160.1370 C   0  0  0  0  0  0  0  0  0  0  0  0
  152.1271  144.5593  160.9891 C   0  0  0  0  0  0  0  0  0  0  0  0
  151.5569  143.3897  160.1756 C   0  0  1  0  0  0  0  0  0  0  0  0
  150.3703  143.9910  159.6828 O   0  0  0  0  0  0  0  0  0  0  0  0
  153.2103  140.7622  160.0612 N   0  0  0  0  0  0  0  0  0  0  0  0
  153.6053  139.6480  160.6855 N   0  0  0  0  0  0  0  0  0  0  0  0
  154.1829  135.4898  165.0124 H   0  0  0  0  0  0  0  0  0  0  0  0
  152.7846  136.0817  164.1205 H   0  0  0  0  0  0  0  0  0  0  0  0
  153.8654  137.2187  164.9271 H   0  0  0  0  0  0  0  0  0  0  0  0
  155.7290  136.5503  163.3448 H   0  0  0  0  0  0  0  0  0  0  0  0
  154.6511  135.4193  162.5608 H   0  0  0  0  0  0  0  0  0  0  0  0
  154.1882  138.3560  162.5360 H   0  0  0  0  0  0  0  0  0  0  0  0
  152.2896  137.3147  158.5973 H   0  0  0  0  0  0  0  0  0  0  0  0
  151.5529  139.4060  157.4298 H   0  0  0  0  0  0  0  0  0  0  0  0
  151.7900  141.8433  157.3168 H   0  0  0  0  0  0  0  0  0  0  0  0
  153.4247  143.2624  159.0900 H   0  0  0  0  0  0  0  0  0  0  0  0
  152.6748  144.9756  157.6551 H   0  0  0  0  0  0  0  0  0  0  0  0
  151.2887  144.0024  157.1590 H   0  0  0  0  0  0  0  0  0  0  0  0
  150.2162  145.7448  158.5135 H   0  0  0  0  0  0  0  0  0  0  0  0
  152.5793  146.3303  159.7720 H   0  0  0  0  0  0  0  0  0  0  0  0
  151.0818  146.4357  160.7062 H   0  0  0  0  0  0  0  0  0  0  0  0
  153.2054  144.4832  161.1331 H   0  0  0  0  0  0  0  0  0  0  0  0
  151.6549  144.6126  161.9708 H   0  0  0  0  0  0  0  0  0  0  0  0
  151.3989  142.4855  160.7649 H   0  0  0  0  0  0  0  0  0  0  0  0
  1  2  1  0  0  0  0
  1 20  1  0  0  0  0
  1 21  1  0  0  0  0
  1 22  1  0  0  0  0
  2  3  1  0  0  0  0
  2 23  1  0  0  0  0
  2 24  1  0  0  0  0
  3  4  1  0  0  0  0
  3 25  1  0  0  0  0
  4  5  2  0  0  0  0
  4  6  1  0  0  0  0
  6 19  1  0  0  0  0
  6  7  2  0  0  0  0
  7  8  1  0  0  0  0
  7 26  1  0  0  0  0
  8  9  2  0  0  0  0
  8 27  1  0  0  0  0
  9 10  1  0  0  0  0
  9 18  1  0  0  0  0
 10 11  1  0  0  0  0
 10 28  1  0  0  0  0
 11 16  1  0  0  0  0
 11 12  1  0  0  0  0
 11 29  1  0  0  0  0
 12 13  1  0  0  0  0
 12 30  1  0  0  0  0
 12 31  1  0  0  0  0
 13 17  1  0  0  0  0
 13 14  1  0  0  0  0
 13 32  1  0  0  0  0
 14 15  1  0  0  0  0
 14 33  1  0  0  0  0
 14 34  1  0  0  0  0
 15 16  1  0  0  0  0
 15 35  1  0  0  0  0
 15 36  1  0  0  0  0
 16 17  1  0  0  0  0
 16 37  1  0  0  0  0
 18 19  2  0  0  0  0
M  END
> <s_m_source_file>
AV-unprocessed.smi

> <i_m_source_file_index>
2893

> <i_lp_mmshare_version>
43012

> <i_f3d_flags>
0

> <s_epik_input>
W0NIM11bQ0gyXVtOSF1DKD1PKWMxW2NIXVtjSF1jKG5uMSlbTkhdW0NASF0oW0NIMl1bQ0BASF0yMylbQ0BASF0oTzMpW0NIMl1bQ0gyXTI=

> <s_epik_cmdline>
J2VwaWtfcHl0aG9uJywgJy1waCcsICc3LjAnLCAnLXRuJywgJzgnLCAnLW1hJywgJzIwMCcsICctbWV0YWxfYmluZGluZycsICctaW1hZScsICc8aW5maWxlLm1hZT4nLCAnLW9tYWUnLCAnPG91dGZpbGUubWFlPic=

> <r_lp_tautomer_probability>
1

> <r_epik_Ionization_Penalty>
0.00432031

> <r_epik_Ionization_Penalty_Charging>
0

> <r_epik_Ionization_Penalty_Neutral>
0.00432031

> <r_epik_State_Penalty>
-0

> <r_epik_Charging_Adjusted_Penalty>
0

> <i_epik_Tot_Q>
0

> <i_epik_Tot_abs_Q>
0

> <r_epik_Metal_State_Penalty>
-0

> <b_epik_Metal_Only>
0

> <s_lp_Force_Field>
OPLS_2005

> <r_lp_Energy>
49.39

> <b_lp_Chiralities_Consistent>
1

> <s_lp_Variant>
AV-unprocessed.smi:2893-4

> <Gold.Version>
5.8.1

> <Gold.Id.Protein>
6NUR|6NUR_protein|mol2

> <Gold.PLP.Fitness>
43.3669

> <Gold.PLP.PLP>
-40.5811

> <Gold.PLP.part.hbond>
-1.0000

> <Gold.PLP.part.metal>
0.0000

> <Gold.PLP.part.buried>
-6.0287

> <Gold.PLP.part.nonpolar>
-33.9123

> <Gold.PLP.part.repulsive>
0.2100

> <Gold.PLP.ligand.clash>
0.0000

> <Gold.PLP.ligand.torsion>
0.1183

> <Gold.PLP.Chemscore.Hbond>
1.0000

> <Gold.PLP.Chemscore.CHOScore>
0.0000

> <Gold.PLP.Chemscore.Metal>
0.0000

> <Gold.Chemscore.Hbonds>
donor molecule, donor type, donor heavy atom, donor atom, acceptor molecule, acceptor atom, score
      P1  H  6896  6909       L1     5  1.00

> <Gold.PLP.Chemscore.Internal.Correction>
0.0224

> <Gold.Rescore>
     Score         DG    S(hbond)    S(metal)    S(lipo)     H(rot)  DE(clash)    DE(int)     intcor
     18.18     -18.31       1.00        0.00     107.57       1.21       0.01       0.13       ----

> <Gold.Chemscore.Fitness>
18.1778

> <Gold.Chemscore.DG>
-18.3147

> <Gold.Chemscore.ZeroCoef>
-5.4800

> <Gold.Chemscore.Hbond>
0.9990

> <Gold.Chemscore.Metal>
0.0000

> <Gold.Chemscore.Lipo>
107.5691

> <Gold.Chemscore.Internal_Hbond>
0.0000

> <Gold.Chemscore.DEClash>
0.0106

> <Gold.Chemscore.DEInternal>
0.1263

> <Gold.Chemscore.Rot>
1.2061

> <Gold.Chemscore.Internal.Correction>
   9.000000E+99

> <Gold.Chemscore.Hbonds>
donor molecule, donor type, donor heavy atom, donor atom, acceptor molecule, acceptor atom, score
      P1  H  6896  6909       L1     5  1.00

> <Gold.Chemscore.Hbond.Weighted>
-3.3367

> <Gold.Chemscore.Metal.Weighted>
-0.0000

> <Gold.Chemscore.Lipo.Weighted>
-12.5856

> <Gold.Chemscore.Internal_Hbond.Weighted>
0.0000

> <Gold.Chemscore.DEClash.Weighted>
0.0106

> <Gold.Chemscore.DEInternal.Weighted>
0.1263

> <Gold.Chemscore.Rot.Weighted>
3.0876

> <Gold.Chemscore.Internal.Correction.Weighted>
   9.000000E+99

> <Gold.Protein.RotatedTorsions>
[ 6907 6896 6895 6894 ] final  165.70 input  -60.11 | X-H torsion
[ 7974 7965 7964 7962 ] final  -99.63 input  175.53 | X-H torsion
[ 8008 7997 7996 7995 ] final  151.60 input   59.86 | X-H torsion
[ 10167 10162 10161 10158 ] final  162.27 input  -65.29 | X-H torsion
[ 10718 10713 10712 10709 ] final   74.09 input   66.30 | X-H torsion
[ 10763 10752 10751 10750 ] final -179.39 input  -60.55 | X-H torsion
[ 11005 11000 10999 10996 ] final -150.45 input  -57.11 | X-H torsion

> <Gold.Protein.ActiveResidues>
 VAL166  LYS551  ARG553  GLY616  TRP617  ASP618  TYR619  PRO620  LYS621  CYS622 
 ASP623  PHE694  ASN695  SER759  ASP760  ASP761  ALA762  ILE779  LEU786  VAL792 
 PHE793  MET794  SER795  GLU796  ALA797  LYS798  CYS799  TRP800  GLU811  SER814 

> <Gold.Protein.RotatedAtoms>
  151.8904  133.3515  159.3796 H   0  0  0  0  0  0  0  0  0  0  0  0  # atno 6907 bound_to 6896
  150.7104  134.4929  159.5534 H   0  0  0  0  0  0  0  0  0  0  0  0  # atno 6908 bound_to 6896
  152.2498  134.8144  160.0498 H   0  0  0  0  0  0  0  0  0  0  0  0  # atno 6909 bound_to 6896
  145.3050  140.9386  143.2802 H   0  0  0  0  0  0  0  0  0  0  0  0  # atno 7974 bound_to 7965
  156.2666  140.2043  156.6201 H   0  0  0  0  0  0  0  0  0  0  0  0  # atno 8008 bound_to 7997
  154.6763  140.0544  157.0243 H   0  0  0  0  0  0  0  0  0  0  0  0  # atno 8009 bound_to 7997
  155.1064  140.3211  155.4536 H   0  0  0  0  0  0  0  0  0  0  0  0  # atno 8010 bound_to 7997
  139.4858  144.4454  151.8898 H   0  0  0  0  0  0  0  0  0  0  0  0  # atno 10167 bound_to 10162
  157.6577  130.9660  150.1161 H   0  0  0  0  0  0  0  0  0  0  0  0  # atno 10718 bound_to 10713
  154.5357  135.2802  155.1141 H   0  0  0  0  0  0  0  0  0  0  0  0  # atno 10763 bound_to 10752
  154.2643  135.6315  153.5290 H   0  0  0  0  0  0  0  0  0  0  0  0  # atno 10764 bound_to 10752
  152.9967  135.5613  154.5882 H   0  0  0  0  0  0  0  0  0  0  0  0  # atno 10765 bound_to 10752
  140.7401  134.3524  157.5149 H   0  0  0  0  0  0  0  0  0  0  0  0  # atno 11005 bound_to 11000
  144.9062  139.4586  143.6609 LP  0  0  0  0  0  0  0  0  0  0  0  0  # atno 17320 bound_to 7965
  146.3138  139.7844  142.8999 LP  0  0  0  0  0  0  0  0  0  0  0  0  # atno 17321 bound_to 7965
  140.3908  144.2618  150.5900 LP  0  0  0  0  0  0  0  0  0  0  0  0  # atno 17342 bound_to 10162
  140.5148  143.2281  151.8480 LP  0  0  0  0  0  0  0  0  0  0  0  0  # atno 17343 bound_to 10162
  156.2045  130.3662  149.8747 LP  0  0  0  0  0  0  0  0  0  0  0  0  # atno 17370 bound_to 10713
  156.6642  130.8794  151.3552 LP  0  0  0  0  0  0  0  0  0  0  0  0  # atno 17371 bound_to 10713
  139.8808  134.9075  156.2946 LP  0  0  0  0  0  0  0  0  0  0  0  0  # atno 17394 bound_to 11000
  140.9845  133.7247  156.0720 LP  0  0  0  0  0  0  0  0  0  0  0  0  # atno 17395 bound_to 11000

$$$$
