AV-unprocessed.smi:227|AV-procd|sdf|1728|dock4
  -GOLD-   2262020213D 1   1.00000     0.00000
 Structure written by MMmdl.
 54 58  0  0  0  0  0  0  0  0  1 V2000
  150.2203  140.0121  153.8507 O   0  0  0  0  0  0  0  0  0  0  0  0
  149.4293  140.4707  154.9279 C   0  0  0  0  0  0  0  0  0  0  0  0
  150.1435  140.2652  156.2885 C   0  0  1  0  0  0  0  0  0  0  0  0
  150.6777  138.8085  156.4285 C   0  0  0  0  0  0  0  0  0  0  0  0
  150.2277  138.1187  157.6291 N   0  0  0  0  0  0  0  0  0  0  0  0
  151.0212  137.5794  158.6148 C   0  0  0  0  0  0  0  0  0  0  0  0
  150.3780  137.0142  159.5982 N   0  0  0  0  0  0  0  0  0  0  0  0
  149.0356  137.1571  159.2649 C   0  0  0  0  0  0  0  0  0  0  0  0
  147.8026  136.7838  159.8800 C   0  0  0  0  0  0  0  0  0  0  0  0
  147.6890  136.1434  161.0778 N   0  0  0  0  0  0  0  0  0  0  0  0
  147.1133  136.8018  162.2421 C   0  0  2  0  0  0  0  0  0  0  0  0
  147.3632  135.7749  163.3598 C   0  0  0  0  0  0  0  0  0  0  0  0
  147.2000  134.4532  162.5965 C   0  0  0  0  0  0  0  0  0  0  0  0
  146.8432  134.9608  161.1870 C   0  0  1  0  0  0  0  0  0  0  0  0
  145.4084  135.5482  161.1391 C   0  0  1  0  0  0  0  0  0  0  0  0
  144.2762  134.6308  161.6356 C   0  0  0  0  0  0  0  0  0  0  0  0
  143.0531  135.3355  161.6340 O   0  0  0  0  0  0  0  0  0  0  0  0
  145.6013  136.8501  161.9407 C   0  0  0  0  0  0  0  0  0  0  0  0
  146.6599  137.0791  159.2048 N   0  0  0  0  0  0  0  0  0  0  0  0
  146.7063  137.7128  158.0307 C   0  0  0  0  0  0  0  0  0  0  0  0
  147.7744  138.1357  157.3555 N   0  0  0  0  0  0  0  0  0  0  0  0
  148.9285  137.8345  158.0151 C   0  0  0  0  0  0  0  0  0  0  0  0
  151.2536  141.3370  156.5295 C   0  0  2  0  0  0  0  0  0  0  0  0
  151.9755  141.1917  157.8669 C   0  0  0  0  0  0  0  0  0  0  0  0
  151.1135  141.9895  158.8477 C   0  0  0  0  0  0  0  0  0  0  0  0
  150.2959  142.8382  158.0506 O   0  0  0  0  0  0  0  0  0  0  0  0
  150.7460  142.7754  156.7066 C   0  0  0  0  0  0  0  0  0  0  0  0
  149.7014  140.0452  153.0614 H   0  0  0  0  0  0  0  0  0  0  0  0
  149.1707  141.5174  154.7699 H   0  0  0  0  0  0  0  0  0  0  0  0
  148.5006  139.9071  154.8735 H   0  0  0  0  0  0  0  0  0  0  0  0
  149.3864  140.3976  157.0626 H   0  0  0  0  0  0  0  0  0  0  0  0
  150.4037  138.2057  155.5643 H   0  0  0  0  0  0  0  0  0  0  0  0
  151.7679  138.7999  156.4285 H   0  0  0  0  0  0  0  0  0  0  0  0
  152.1004  137.6252  158.5860 H   0  0  0  0  0  0  0  0  0  0  0  0
  147.5367  137.7713  162.4967 H   0  0  0  0  0  0  0  0  0  0  0  0
  148.3756  135.8658  163.7550 H   0  0  0  0  0  0  0  0  0  0  0  0
  146.6641  135.8760  164.1908 H   0  0  0  0  0  0  0  0  0  0  0  0
  148.1467  133.9120  162.5760 H   0  0  0  0  0  0  0  0  0  0  0  0
  146.4548  133.7898  163.0332 H   0  0  0  0  0  0  0  0  0  0  0  0
  147.0195  134.2022  160.4237 H   0  0  0  0  0  0  0  0  0  0  0  0
  145.1928  135.8081  160.1011 H   0  0  0  0  0  0  0  0  0  0  0  0
  144.1774  133.7625  160.9837 H   0  0  0  0  0  0  0  0  0  0  0  0
  144.4649  134.2652  162.6447 H   0  0  0  0  0  0  0  0  0  0  0  0
  142.5375  135.0423  162.3696 H   0  0  0  0  0  0  0  0  0  0  0  0
  144.9991  136.8958  162.8490 H   0  0  0  0  0  0  0  0  0  0  0  0
  145.3488  137.7168  161.3282 H   0  0  0  0  0  0  0  0  0  0  0  0
  145.7509  137.9110  157.5676 H   0  0  0  0  0  0  0  0  0  0  0  0
  151.9653  141.3030  155.7038 H   0  0  0  0  0  0  0  0  0  0  0  0
  152.1383  140.1689  158.1998 H   0  0  0  0  0  0  0  0  0  0  0  0
  152.9590  141.6583  157.7926 H   0  0  0  0  0  0  0  0  0  0  0  0
  150.4729  141.3329  159.4372 H   0  0  0  0  0  0  0  0  0  0  0  0
  151.7264  142.5731  159.5351 H   0  0  0  0  0  0  0  0  0  0  0  0
  151.5744  143.4766  156.5917 H   0  0  0  0  0  0  0  0  0  0  0  0
  149.9749  143.0910  156.0080 H   0  0  0  0  0  0  0  0  0  0  0  0
  1  2  1  0  0  0  0
  1 28  1  0  0  0  0
  2  3  1  0  0  0  0
  2 29  1  0  0  0  0
  2 30  1  0  0  0  0
  3  4  1  0  0  0  0
  3 23  1  0  0  0  0
  3 31  1  0  0  0  0
  4  5  1  0  0  0  0
  4 32  1  0  0  0  0
  4 33  1  0  0  0  0
  5 22  1  0  0  0  0
  5  6  1  0  0  0  0
  6  7  2  0  0  0  0
  6 34  1  0  0  0  0
  7  8  1  0  0  0  0
  8 22  2  0  0  0  0
  8  9  1  0  0  0  0
  9 10  1  0  0  0  0
  9 19  2  0  0  0  0
 10 14  1  0  0  0  0
 10 11  1  0  0  0  0
 11 18  1  0  0  0  0
 11 12  1  0  0  0  0
 11 35  1  0  0  0  0
 12 13  1  0  0  0  0
 12 36  1  0  0  0  0
 12 37  1  0  0  0  0
 13 14  1  0  0  0  0
 13 38  1  0  0  0  0
 13 39  1  0  0  0  0
 14 15  1  0  0  0  0
 14 40  1  0  0  0  0
 15 16  1  0  0  0  0
 15 18  1  0  0  0  0
 15 41  1  0  0  0  0
 16 17  1  0  0  0  0
 16 42  1  0  0  0  0
 16 43  1  0  0  0  0
 17 44  1  0  0  0  0
 18 45  1  0  0  0  0
 18 46  1  0  0  0  0
 19 20  1  0  0  0  0
 20 21  2  0  0  0  0
 20 47  1  0  0  0  0
 21 22  1  0  0  0  0
 23 27  1  0  0  0  0
 23 24  1  0  0  0  0
 23 48  1  0  0  0  0
 24 25  1  0  0  0  0
 24 49  1  0  0  0  0
 24 50  1  0  0  0  0
 25 26  1  0  0  0  0
 25 51  1  0  0  0  0
 25 52  1  0  0  0  0
 26 27  1  0  0  0  0
 27 53  1  0  0  0  0
 27 54  1  0  0  0  0
M  END
> <s_m_source_file>
AV-unprocessed.smi

> <i_m_source_file_index>
227

> <i_lp_mmshare_version>
43012

> <i_f3d_flags>
0

> <s_epik_input>
W0NIMl0xT1tDSDJdW0NIMl1bQ0BIXTFbQ0BIXShbQ0gyXVtPSF0pW0NIMl1uKFtjSF1uMiljKGMyMyluW2NIXW5jM04oW0NASF00NSlbQ0BASF0oW0NIMl1bQ0gyXTQpW0NASF0oW0NIMl01KVtDSDJdW09IXQ==

> <s_epik_cmdline>
J2VwaWtfcHl0aG9uJywgJy1waCcsICc3LjAnLCAnLXRuJywgJzgnLCAnLW1hJywgJzIwMCcsICctbWV0YWxfYmluZGluZycsICctaW1hZScsICc8aW5maWxlLm1hZT4nLCAnLW9tYWUnLCAnPG91dGZpbGUubWFlPic=

> <r_lp_tautomer_probability>
1

> <r_epik_Ionization_Penalty>
0.0055791

> <r_epik_Ionization_Penalty_Charging>
0

> <r_epik_Ionization_Penalty_Neutral>
0.0055791

> <r_epik_State_Penalty>
0.00401299

> <r_epik_Charging_Adjusted_Penalty>
0.00401299

> <i_epik_Tot_Q>
0

> <i_epik_Tot_abs_Q>
0

> <r_epik_Metal_State_Penalty>
-0

> <b_epik_Metal_Only>
0

> <s_lp_Force_Field>
OPLS_2005

> <r_lp_Energy>
90.5153

> <b_lp_Chiralities_Consistent>
1

> <s_lp_Variant>
AV-unprocessed.smi:227-2

> <Gold.Version>
5.8.1

> <Gold.Id.Protein>
6NUR|6NUR_protein|mol2

> <Gold.PLP.Fitness>
45.5204

> <Gold.PLP.PLP>
-38.4945

> <Gold.PLP.part.hbond>
-2.9991

> <Gold.PLP.part.metal>
0.0000

> <Gold.PLP.part.buried>
-5.5825

> <Gold.PLP.part.nonpolar>
-29.6327

> <Gold.PLP.part.repulsive>
0.1131

> <Gold.PLP.ligand.clash>
0.0000

> <Gold.PLP.ligand.torsion>
1.0386

> <Gold.PLP.Chemscore.Hbond>
2.9760

> <Gold.PLP.Chemscore.CHOScore>
0.0000

> <Gold.PLP.Chemscore.Metal>
0.0000

> <Gold.Chemscore.Hbonds>
donor molecule, donor type, donor heavy atom, donor atom, acceptor molecule, acceptor atom, score
      L1  H     1    28       P1  7957  0.98
      P1  H  6896  6907       L1     7  0.86
      P1  H  7989  7998       L1     1  0.90

> <Gold.PLP.Chemscore.Internal.Correction>
0.1751

> <Gold.Rescore>
     Score         DG    S(hbond)    S(metal)    S(lipo)     H(rot)  DE(clash)    DE(int)     intcor
     12.05     -16.07       2.24        0.00     105.49       3.61       0.37       3.65       ----

> <Gold.Chemscore.Fitness>
12.0488

> <Gold.Chemscore.DG>
-16.0711

> <Gold.Chemscore.ZeroCoef>
-5.4800

> <Gold.Chemscore.Hbond>
2.2404

> <Gold.Chemscore.Metal>
0.0000

> <Gold.Chemscore.Lipo>
105.4893

> <Gold.Chemscore.Internal_Hbond>
0.0000

> <Gold.Chemscore.DEClash>
0.3750

> <Gold.Chemscore.DEInternal>
3.6473

> <Gold.Chemscore.Rot>
3.6071

> <Gold.Chemscore.Internal.Correction>
   9.000000E+99

> <Gold.Chemscore.Hbonds>
donor molecule, donor type, donor heavy atom, donor atom, acceptor molecule, acceptor atom, score
      L1  H     1    28       P1  7957  0.93
      P1  H  6896  6907       L1     7  0.55
      P1  H  7989  7998       L1     1  0.38

> <Gold.Chemscore.Hbond.Weighted>
-7.4831

> <Gold.Chemscore.Metal.Weighted>
-0.0000

> <Gold.Chemscore.Lipo.Weighted>
-12.3423

> <Gold.Chemscore.Internal_Hbond.Weighted>
0.0000

> <Gold.Chemscore.DEClash.Weighted>
0.3750

> <Gold.Chemscore.DEInternal.Weighted>
3.6473

> <Gold.Chemscore.Rot.Weighted>
9.2342

> <Gold.Chemscore.Internal.Correction.Weighted>
   9.000000E+99

> <Gold.Protein.RotatedTorsions>
[ 6907 6896 6895 6894 ] final  -30.30 input  -60.11 | X-H torsion
[ 7974 7965 7964 7962 ] final -161.78 input  175.53 | X-H torsion
[ 8008 7997 7996 7995 ] final   37.93 input   59.86 | X-H torsion
[ 10167 10162 10161 10158 ] final    7.06 input  -65.29 | X-H torsion
[ 10718 10713 10712 10709 ] final -101.55 input   66.30 | X-H torsion
[ 10763 10752 10751 10750 ] final  -55.37 input  -60.55 | X-H torsion
[ 11005 11000 10999 10996 ] final  103.29 input  -57.11 | X-H torsion

> <Gold.Protein.ActiveResidues>
 VAL166  LYS551  ARG553  GLY616  TRP617  ASP618  TYR619  PRO620  LYS621  CYS622 
 ASP623  PHE694  ASN695  SER759  ASP760  ASP761  ALA762  ILE779  LEU786  VAL792 
 PHE793  MET794  SER795  GLU796  ALA797  LYS798  CYS799  TRP800  GLU811  SER814 

> <Gold.Protein.RotatedAtoms>
  151.1074  135.0007  159.8477 H   0  0  0  0  0  0  0  0  0  0  0  0  # atno 6907 bound_to 6896
  152.5441  134.1877  159.8671 H   0  0  0  0  0  0  0  0  0  0  0  0  # atno 6908 bound_to 6896
  151.1925  133.4614  159.2628 H   0  0  0  0  0  0  0  0  0  0  0  0  # atno 6909 bound_to 6896
  144.7379  140.3347  143.6146 H   0  0  0  0  0  0  0  0  0  0  0  0  # atno 7974 bound_to 7965
  155.2119  140.3324  155.4327 H   0  0  0  0  0  0  0  0  0  0  0  0  # atno 8008 bound_to 7997
  156.2367  140.1875  156.7148 H   0  0  0  0  0  0  0  0  0  0  0  0  # atno 8009 bound_to 7997
  154.6072  140.0614  156.9432 H   0  0  0  0  0  0  0  0  0  0  0  0  # atno 8010 bound_to 7997
  140.6393  143.7812  150.7404 H   0  0  0  0  0  0  0  0  0  0  0  0  # atno 10167 bound_to 10162
  156.0198  130.5379  150.6979 H   0  0  0  0  0  0  0  0  0  0  0  0  # atno 10718 bound_to 10713
  154.1897  135.6429  153.5056 H   0  0  0  0  0  0  0  0  0  0  0  0  # atno 10763 bound_to 10752
  153.0038  135.5426  154.6428 H   0  0  0  0  0  0  0  0  0  0  0  0  # atno 10764 bound_to 10752
  154.5813  135.2925  155.0702 H   0  0  0  0  0  0  0  0  0  0  0  0  # atno 10765 bound_to 10752
  139.8783  134.9257  156.5188 H   0  0  0  0  0  0  0  0  0  0  0  0  # atno 11005 bound_to 11000
  145.7435  139.1771  143.2362 LP  0  0  0  0  0  0  0  0  0  0  0  0  # atno 17320 bound_to 7965
  146.1116  140.7422  142.9501 LP  0  0  0  0  0  0  0  0  0  0  0  0  # atno 17321 bound_to 7965
  140.1440  143.4416  152.2175 LP  0  0  0  0  0  0  0  0  0  0  0  0  # atno 17342 bound_to 10162
  139.5602  144.7400  151.4176 LP  0  0  0  0  0  0  0  0  0  0  0  0  # atno 17343 bound_to 10162
  157.4646  131.0887  151.0709 LP  0  0  0  0  0  0  0  0  0  0  0  0  # atno 17370 bound_to 10713
  157.1187  130.6052  149.5499 LP  0  0  0  0  0  0  0  0  0  0  0  0  # atno 17371 bound_to 10713
  140.8466  133.8164  155.9127 LP  0  0  0  0  0  0  0  0  0  0  0  0  # atno 17394 bound_to 11000
  140.9185  134.2171  157.4941 LP  0  0  0  0  0  0  0  0  0  0  0  0  # atno 17395 bound_to 11000

$$$$
