AV-unprocessed.smi:1279|AV-procd|sdf|5355|dock1
  -GOLD-   22720 4493D 1   1.00000     0.00000
 Structure written by MMmdl.
 46 47  0  0  0  0  0  0  0  0  2 V2000
  151.7606  141.1530  157.9692 C   0  0  0  0  0  0  0  0  0  0  0  0
  151.4491  140.3267  156.7565 C   0  0  0  0  0  0  0  0  0  0  0  0
  150.2785  140.3655  155.9441 C   0  0  0  0  0  0  0  0  0  0  0  0
  150.5365  139.4107  154.9989 C   0  0  0  0  0  0  0  0  0  0  0  0
  149.7649  139.0124  153.9528 N   0  0  0  0  0  0  0  0  0  0  0  0
  148.5109  139.3860  153.6435 C   0  0  0  0  0  0  0  0  0  0  0  0
  147.8242  140.1862  154.2792 O   0  0  0  0  0  0  0  0  0  0  0  0
  148.0799  138.7662  152.5353 N   0  0  0  0  0  0  0  0  0  0  0  0
  146.7676  138.9571  151.9282 C   0  0  0  0  0  0  0  0  0  0  0  0
  145.7247  137.9838  152.5119 C   0  0  0  0  0  0  0  0  0  0  0  0
  145.8339  136.6208  151.9332 N   0  3  2  0  0  0  0  0  0  0  0  0
  144.9339  136.4340  150.7655 C   0  0  0  0  0  0  0  0  0  0  0  0
  145.1599  135.0663  150.0995 C   0  0  0  0  0  0  0  0  0  0  0  0
  144.9742  133.9178  151.1047 C   0  0  1  0  0  0  0  0  0  0  0  0
  145.2276  132.5485  150.4587 C   0  0  0  0  0  0  0  0  0  0  0  0
  145.8915  134.1544  152.3158 C   0  0  0  0  0  0  0  0  0  0  0  0
  145.6504  135.5398  152.9383 C   0  0  0  0  0  0  0  0  0  0  0  0
  151.7740  138.8600  155.2486 N   0  0  0  0  0  0  0  0  0  0  0  0
  152.4841  137.8220  154.5270 C   0  0  0  0  0  0  0  0  0  0  0  0
  152.3348  139.4302  156.3367 N   0  0  0  0  0  0  0  0  0  0  0  0
  150.9427  141.8353  158.2016 H   0  0  0  0  0  0  0  0  0  0  0  0
  152.6591  141.7517  157.8164 H   0  0  0  0  0  0  0  0  0  0  0  0
  151.9238  140.5218  158.8430 H   0  0  0  0  0  0  0  0  0  0  0  0
  149.4098  140.9968  156.0542 H   0  0  0  0  0  0  0  0  0  0  0  0
  150.1943  138.3381  153.3364 H   0  0  0  0  0  0  0  0  0  0  0  0
  148.7083  138.1252  152.0729 H   0  0  0  0  0  0  0  0  0  0  0  0
  146.4433  139.9907  152.0612 H   0  0  0  0  0  0  0  0  0  0  0  0
  146.8863  138.8049  150.8562 H   0  0  0  0  0  0  0  0  0  0  0  0
  145.8055  137.9325  153.5989 H   0  0  0  0  0  0  0  0  0  0  0  0
  144.7306  138.3783  152.2971 H   0  0  0  0  0  0  0  0  0  0  0  0
  143.8951  136.5304  151.0857 H   0  0  0  0  0  0  0  0  0  0  0  0
  145.1135  137.2198  150.0309 H   0  0  0  0  0  0  0  0  0  0  0  0
  144.4685  134.9473  149.2645 H   0  0  0  0  0  0  0  0  0  0  0  0
  146.1646  135.0296  149.6756 H   0  0  0  0  0  0  0  0  0  0  0  0
  143.9401  133.9340  151.4526 H   0  0  0  0  0  0  0  0  0  0  0  0
  146.2513  132.4650  150.0920 H   0  0  0  0  0  0  0  0  0  0  0  0
  144.5573  132.3824  149.6150 H   0  0  0  0  0  0  0  0  0  0  0  0
  145.0631  131.7412  151.1732 H   0  0  0  0  0  0  0  0  0  0  0  0
  145.7243  133.3817  153.0671 H   0  0  0  0  0  0  0  0  0  0  0  0
  146.9361  134.0687  152.0127 H   0  0  0  0  0  0  0  0  0  0  0  0
  146.3398  135.6726  153.7709 H   0  0  0  0  0  0  0  0  0  0  0  0
  144.6423  135.5936  153.3524 H   0  0  0  0  0  0  0  0  0  0  0  0
  151.8195  136.9760  154.3494 H   0  0  0  0  0  0  0  0  0  0  0  0
  153.3453  137.4765  155.1011 H   0  0  0  0  0  0  0  0  0  0  0  0
  152.8284  138.2134  153.5697 H   0  0  0  0  0  0  0  0  0  0  0  0
  146.7752  136.5368  151.5764 H   0  0  0  0  0  0  0  0  0  0  0  0
  1  2  1  0  0  0  0
  1 21  1  0  0  0  0
  1 22  1  0  0  0  0
  1 23  1  0  0  0  0
  2 20  2  0  0  0  0
  2  3  1  0  0  0  0
  3  4  2  0  0  0  0
  3 24  1  0  0  0  0
  4  5  1  0  0  0  0
  4 18  1  0  0  0  0
  5  6  1  0  0  0  0
  5 25  1  0  0  0  0
  6  7  2  0  0  0  0
  6  8  1  0  0  0  0
  8  9  1  0  0  0  0
  8 26  1  0  0  0  0
  9 10  1  0  0  0  0
  9 27  1  0  0  0  0
  9 28  1  0  0  0  0
 10 11  1  0  0  0  0
 10 29  1  0  0  0  0
 10 30  1  0  0  0  0
 11 17  1  0  0  0  0
 11 12  1  0  0  0  0
 11 46  1  0  0  0  0
 12 13  1  0  0  0  0
 12 31  1  0  0  0  0
 12 32  1  0  0  0  0
 13 14  1  0  0  0  0
 13 33  1  0  0  0  0
 13 34  1  0  0  0  0
 14 15  1  0  0  0  0
 14 16  1  0  0  0  0
 14 35  1  0  0  0  0
 15 36  1  0  0  0  0
 15 37  1  0  0  0  0
 15 38  1  0  0  0  0
 16 17  1  0  0  0  0
 16 39  1  0  0  0  0
 16 40  1  0  0  0  0
 17 41  1  0  0  0  0
 17 42  1  0  0  0  0
 18 19  1  0  0  0  0
 18 20  1  0  0  0  0
 19 43  1  0  0  0  0
 19 44  1  0  0  0  0
 19 45  1  0  0  0  0
M  CHG  1  11   1
M  END
> <s_m_source_file>
AV-unprocessed.smi

> <i_m_source_file_index>
1279

> <i_lp_mmshare_version>
43012

> <i_f3d_flags>
0

> <s_epik_input>
W0NIM11jMVtjSF1jKG4objEpW0NIM10pW05IXUMoPU8pW05IXVtDSDJdW0NIMl1OMltDSDJdW0NIMl1bQ0hdKFtDSDNdKVtDSDJdW0NIMl0y

> <s_epik_cmdline>
J2VwaWtfcHl0aG9uJywgJy1waCcsICc3LjAnLCAnLXRuJywgJzgnLCAnLW1hJywgJzIwMCcsICctbWV0YWxfYmluZGluZycsICctaW1hZScsICc8aW5maWxlLm1hZT4nLCAnLW9tYWUnLCAnPG91dGZpbGUubWFlPic=

> <r_lp_tautomer_probability>
1

> <r_epik_Ionization_Penalty>
0.00166091

> <r_epik_Ionization_Penalty_Charging>
0.0015841

> <r_epik_Ionization_Penalty_Neutral>
7.68112e-05

> <r_epik_State_Penalty>
0.00106518

> <r_epik_Charging_Adjusted_Penalty>
0.00264928

> <i_epik_Tot_Q>
1

> <i_epik_Tot_abs_Q>
1

> <r_epik_Metal_State_Penalty>
-0

> <b_epik_Metal_Only>
0

> <s_lp_Force_Field>
OPLS_2005

> <r_lp_Energy>
17.7032

> <b_lp_Chiralities_Consistent>
1

> <s_lp_Variant>
AV-unprocessed.smi:1279-1

> <Gold.Version>
5.8.1

> <Gold.Id.Protein>
6NUR|6NUR_protein|mol2

> <Gold.PLP.Fitness>
47.5474

> <Gold.PLP.PLP>
-37.8540

> <Gold.PLP.part.hbond>
-5.0000

> <Gold.PLP.part.metal>
0.0000

> <Gold.PLP.part.buried>
-0.1928

> <Gold.PLP.part.nonpolar>
-31.8902

> <Gold.PLP.part.repulsive>
0.2860

> <Gold.PLP.ligand.clash>
0.0000

> <Gold.PLP.ligand.torsion>
0.7817

> <Gold.PLP.Chemscore.Hbond>
3.7360

> <Gold.PLP.Chemscore.CHOScore>
0.0000

> <Gold.PLP.Chemscore.Metal>
0.0000

> <Gold.Chemscore.Hbonds>
donor molecule, donor type, donor heavy atom, donor atom, acceptor molecule, acceptor atom, score
      L1  H     8    26       P1  7948  0.82
      L1  H    11    46       P1  7948  1.24
      P1  H  7997  8009       L1    20  0.80

> <Gold.PLP.Chemscore.Internal.Correction>
0.0487

> <Gold.Rescore>
     Score         DG    S(hbond)    S(metal)    S(lipo)     H(rot)  DE(clash)    DE(int)     intcor
     17.59     -19.52       2.83        0.00      71.83       1.48       0.34       1.59       ----

> <Gold.Chemscore.Fitness>
17.5889

> <Gold.Chemscore.DG>
-19.5223

> <Gold.Chemscore.ZeroCoef>
-5.4800

> <Gold.Chemscore.Hbond>
2.8253

> <Gold.Chemscore.Metal>
0.0000

> <Gold.Chemscore.Lipo>
71.8323

> <Gold.Chemscore.Internal_Hbond>
0.0000

> <Gold.Chemscore.DEClash>
0.3396

> <Gold.Chemscore.DEInternal>
1.5938

> <Gold.Chemscore.Rot>
1.4838

> <Gold.Chemscore.Internal.Correction>
   9.000000E+99

> <Gold.Chemscore.Hbonds>
donor molecule, donor type, donor heavy atom, donor atom, acceptor molecule, acceptor atom, score
      L1  H     8    26       P1  7948  0.81
      L1  H    11    46       P1  7948  0.59
      P1  H  7997  8009       L1    20  0.69

> <Gold.Chemscore.Hbond.Weighted>
-9.4364

> <Gold.Chemscore.Metal.Weighted>
-0.0000

> <Gold.Chemscore.Lipo.Weighted>
-8.4044

> <Gold.Chemscore.Internal_Hbond.Weighted>
0.0000

> <Gold.Chemscore.DEClash.Weighted>
0.3396

> <Gold.Chemscore.DEInternal.Weighted>
1.5938

> <Gold.Chemscore.Rot.Weighted>
3.7985

> <Gold.Chemscore.Internal.Correction.Weighted>
   9.000000E+99

> <Gold.Protein.RotatedTorsions>
[ 6907 6896 6895 6894 ] final  -50.67 input  -60.11 | X-H torsion
[ 7974 7965 7964 7962 ] final  -22.94 input  175.53 | X-H torsion
[ 8008 7997 7996 7995 ] final -165.67 input   59.86 | X-H torsion
[ 10167 10162 10161 10158 ] final   -7.94 input  -65.29 | X-H torsion
[ 10718 10713 10712 10709 ] final  105.13 input   66.30 | X-H torsion
[ 10763 10752 10751 10750 ] final   -8.60 input  -60.55 | X-H torsion
[ 11005 11000 10999 10996 ] final   71.37 input  -57.11 | X-H torsion

> <Gold.Protein.ActiveResidues>
 VAL166  LYS551  ARG553  GLY616  TRP617  ASP618  TYR619  PRO620  LYS621  CYS622 
 ASP623  PHE694  ASN695  SER759  ASP760  ASP761  ALA762  ILE779  LEU786  VAL792 
 PHE793  MET794  SER795  GLU796  ALA797  LYS798  CYS799  TRP800  GLU811  SER814 

> <Gold.Protein.RotatedAtoms>
  150.8685  134.8053  159.7136 H   0  0  0  0  0  0  0  0  0  0  0  0  # atno 6907 bound_to 6896
  152.4698  134.4985  159.9727 H   0  0  0  0  0  0  0  0  0  0  0  0  # atno 6908 bound_to 6896
  151.5078  133.3452  159.2915 H   0  0  0  0  0  0  0  0  0  0  0  0  # atno 6909 bound_to 6896
  146.1646  140.4547  142.8557 H   0  0  0  0  0  0  0  0  0  0  0  0  # atno 7974 bound_to 7965
  155.8531  140.0966  157.1662 H   0  0  0  0  0  0  0  0  0  0  0  0  # atno 8008 bound_to 7997
  154.3986  140.1379  156.3930 H   0  0  0  0  0  0  0  0  0  0  0  0  # atno 8009 bound_to 7997
  155.7939  140.3455  155.5367 H   0  0  0  0  0  0  0  0  0  0  0  0  # atno 8010 bound_to 7997
  140.7044  143.6025  150.8784 H   0  0  0  0  0  0  0  0  0  0  0  0  # atno 10167 bound_to 10162
  157.6716  131.0820  150.5810 H   0  0  0  0  0  0  0  0  0  0  0  0  # atno 10718 bound_to 10713
  153.4429  135.7014  153.6158 H   0  0  0  0  0  0  0  0  0  0  0  0  # atno 10763 bound_to 10752
  153.4525  135.3755  155.2292 H   0  0  0  0  0  0  0  0  0  0  0  0  # atno 10764 bound_to 10752
  154.8727  135.4000  154.3830 H   0  0  0  0  0  0  0  0  0  0  0  0  # atno 10765 bound_to 10752
  139.9547  134.7165  156.0781 H   0  0  0  0  0  0  0  0  0  0  0  0  # atno 11005 bound_to 11000
  144.8074  140.6325  143.6438 LP  0  0  0  0  0  0  0  0  0  0  0  0  # atno 17320 bound_to 7965
  145.4500  139.1525  143.3923 LP  0  0  0  0  0  0  0  0  0  0  0  0  # atno 17321 bound_to 7965
  139.9749  143.6016  152.2962 LP  0  0  0  0  0  0  0  0  0  0  0  0  # atno 17342 bound_to 10162
  139.6616  144.7662  151.1953 LP  0  0  0  0  0  0  0  0  0  0  0  0  # atno 17343 bound_to 10162
  156.6110  130.4380  149.5859 LP  0  0  0  0  0  0  0  0  0  0  0  0  # atno 17370 bound_to 10713
  156.2430  130.6862  151.1574 LP  0  0  0  0  0  0  0  0  0  0  0  0  # atno 17371 bound_to 10713
  141.1216  133.6611  156.3230 LP  0  0  0  0  0  0  0  0  0  0  0  0  # atno 17394 bound_to 11000
  140.5637  134.5909  157.5440 LP  0  0  0  0  0  0  0  0  0  0  0  0  # atno 17395 bound_to 11000

$$$$
