AV-unprocessed.smi:2071|AV-procd|sdf|8440|dock7
  -GOLD-   2272011143D 1   1.00000     0.00000
 Structure written by MMmdl.
 45 47  0  0  0  0  0  0  0  0  1 V2000
  147.7095  132.3960  153.7453 O   0  0  0  0  0  0  0  0  0  0  0  0
  147.9850  133.4806  153.2332 C   0  0  0  0  0  0  0  0  0  0  0  0
  148.9946  134.2582  153.6494 N   0  0  0  0  0  0  0  0  0  0  0  0
  149.8930  133.9451  154.7547 C   0  0  0  0  0  0  0  0  0  0  0  0
  150.6967  135.1789  155.1943 C   0  0  0  0  0  0  0  0  0  0  0  0
  149.8652  136.4712  155.1365 C   0  0  0  0  0  0  0  0  0  0  0  0
  150.6833  137.6471  155.4458 N   0  0  0  0  0  0  0  0  0  0  0  0
  151.8289  137.9605  154.8136 C   0  0  0  0  0  0  0  0  0  0  0  0
  152.3661  137.3186  153.9122 O   0  0  0  0  0  0  0  0  0  0  0  0
  152.2969  139.1052  155.3275 N   0  0  0  0  0  0  0  0  0  0  0  0
  151.4403  139.6442  156.3648 C   0  0  0  0  0  0  0  0  0  0  0  0
  150.8969  141.0434  156.0481 C   0  0  0  0  0  0  0  0  0  0  0  0
  150.5036  141.6339  157.4090 C   0  0  0  0  0  0  0  0  0  0  0  0
  151.3108  140.8651  158.4709 C   0  0  0  0  0  0  0  0  0  0  0  0
  152.1418  139.8151  157.7186 C   0  0  0  0  0  0  0  0  0  0  0  0
  150.3641  138.5643  156.3685 C   0  0  0  0  0  0  0  0  0  0  0  0
  149.3755  138.5679  157.1030 O   0  0  0  0  0  0  0  0  0  0  0  0
  147.3434  134.0374  152.1913 N   0  0  0  0  0  0  0  0  0  0  0  0
  146.2262  133.5437  151.4635 C   0  0  0  0  0  0  0  0  0  0  0  0
  145.8730  132.1756  151.3654 C   0  0  0  0  0  0  0  0  0  0  0  0
  144.7299  131.8200  150.6234 C   0  0  0  0  0  0  0  0  0  0  0  0
  143.9782  132.8426  150.0135 C   0  0  0  0  0  0  0  0  0  0  0  0
  144.2952  134.1507  150.1087 N   0  0  0  0  0  0  0  0  0  0  0  0
  145.3925  134.4840  150.8213 C   0  0  0  0  0  0  0  0  0  0  0  0
  149.1533  135.1313  153.1679 H   0  0  0  0  0  0  0  0  0  0  0  0
  149.3286  133.5360  155.5944 H   0  0  0  0  0  0  0  0  0  0  0  0
  150.5722  133.1586  154.4251 H   0  0  0  0  0  0  0  0  0  0  0  0
  151.0655  135.0272  156.2098 H   0  0  0  0  0  0  0  0  0  0  0  0
  151.5771  135.2872  154.5593 H   0  0  0  0  0  0  0  0  0  0  0  0
  149.4167  136.5798  154.1475 H   0  0  0  0  0  0  0  0  0  0  0  0
  149.0281  136.4073  155.8339 H   0  0  0  0  0  0  0  0  0  0  0  0
  153.1465  139.5603  155.0265 H   0  0  0  0  0  0  0  0  0  0  0  0
  151.6827  141.6522  155.5984 H   0  0  0  0  0  0  0  0  0  0  0  0
  150.0577  141.0314  155.3509 H   0  0  0  0  0  0  0  0  0  0  0  0
  150.6967  142.7063  157.4472 H   0  0  0  0  0  0  0  0  0  0  0  0
  149.4368  141.4904  157.5850 H   0  0  0  0  0  0  0  0  0  0  0  0
  151.9502  141.5296  159.0529 H   0  0  0  0  0  0  0  0  0  0  0  0
  150.6296  140.3774  159.1692 H   0  0  0  0  0  0  0  0  0  0  0  0
  152.2254  138.8833  158.2802 H   0  0  0  0  0  0  0  0  0  0  0  0
  153.1544  140.1917  157.5658 H   0  0  0  0  0  0  0  0  0  0  0  0
  147.7338  134.9013  151.8446 H   0  0  0  0  0  0  0  0  0  0  0  0
  146.4404  131.3965  151.8494 H   0  0  0  0  0  0  0  0  0  0  0  0
  144.4340  130.7856  150.5278 H   0  0  0  0  0  0  0  0  0  0  0  0
  143.0960  132.6036  149.4383 H   0  0  0  0  0  0  0  0  0  0  0  0
  145.6140  135.5402  150.8767 H   0  0  0  0  0  0  0  0  0  0  0  0
  1  2  2  0  0  0  0
  2  3  1  0  0  0  0
  2 18  1  0  0  0  0
  3  4  1  0  0  0  0
  3 25  1  0  0  0  0
  4  5  1  0  0  0  0
  4 26  1  0  0  0  0
  4 27  1  0  0  0  0
  5  6  1  0  0  0  0
  5 28  1  0  0  0  0
  5 29  1  0  0  0  0
  6  7  1  0  0  0  0
  6 30  1  0  0  0  0
  6 31  1  0  0  0  0
  7 16  1  0  0  0  0
  7  8  1  0  0  0  0
  8  9  2  0  0  0  0
  8 10  1  0  0  0  0
 10 11  1  0  0  0  0
 10 32  1  0  0  0  0
 11 15  1  0  0  0  0
 11 12  1  0  0  0  0
 11 16  1  0  0  0  0
 12 13  1  0  0  0  0
 12 33  1  0  0  0  0
 12 34  1  0  0  0  0
 13 14  1  0  0  0  0
 13 35  1  0  0  0  0
 13 36  1  0  0  0  0
 14 15  1  0  0  0  0
 14 37  1  0  0  0  0
 14 38  1  0  0  0  0
 15 39  1  0  0  0  0
 15 40  1  0  0  0  0
 16 17  2  0  0  0  0
 18 19  1  0  0  0  0
 18 41  1  0  0  0  0
 19 24  1  0  0  0  0
 19 20  2  0  0  0  0
 20 21  1  0  0  0  0
 20 42  1  0  0  0  0
 21 22  2  0  0  0  0
 21 43  1  0  0  0  0
 22 23  1  0  0  0  0
 22 44  1  0  0  0  0
 23 24  2  0  0  0  0
 24 45  1  0  0  0  0
M  END
> <s_m_source_file>
AV-unprocessed.smi

> <i_m_source_file_index>
2071

> <i_lp_mmshare_version>
43012

> <i_f3d_flags>
0

> <s_epik_input>
W2NIXTFuW2NIXVtjSF1bY0hdYzFbTkhdQyg9TylbTkhdW0NIMl1bQ0gyXVtDSDJdTihDMj1PKUMoPU8pW05IXUMyM1tDSDJdW0NIMl1bQ0gyXVtDSDJdMw==

> <s_epik_cmdline>
J2VwaWtfcHl0aG9uJywgJy1waCcsICc3LjAnLCAnLXRuJywgJzgnLCAnLW1hJywgJzIwMCcsICctbWV0YWxfYmluZGluZycsICctaW1hZScsICc8aW5maWxlLm1hZT4nLCAnLW9tYWUnLCAnPG91dGZpbGUubWFlPic=

> <r_lp_tautomer_probability>
1

> <r_epik_Ionization_Penalty>
0.00482956

> <r_epik_Ionization_Penalty_Charging>
0

> <r_epik_Ionization_Penalty_Neutral>
0.00482956

> <r_epik_State_Penalty>
0.00344413

> <r_epik_Charging_Adjusted_Penalty>
0.00344413

> <i_epik_Tot_Q>
0

> <i_epik_Tot_abs_Q>
0

> <r_epik_Metal_State_Penalty>
0.0123255

> <b_epik_Metal_Only>
0

> <s_lp_Force_Field>
OPLS_2005

> <r_lp_Energy>
39.9018

> <b_lp_Chiralities_Consistent>
1

> <s_lp_Variant>
AV-unprocessed.smi:2071-1

> <Gold.Version>
5.8.1

> <Gold.Id.Protein>
6NUR|6NUR_protein|mol2

> <Gold.PLP.Fitness>
48.5350

> <Gold.PLP.PLP>
-38.5280

> <Gold.PLP.part.hbond>
-3.0000

> <Gold.PLP.part.metal>
0.0000

> <Gold.PLP.part.buried>
-6.5973

> <Gold.PLP.part.nonpolar>
-30.5439

> <Gold.PLP.part.repulsive>
1.5705

> <Gold.PLP.ligand.clash>
0.0000

> <Gold.PLP.ligand.torsion>
0.3959

> <Gold.PLP.Chemscore.Hbond>
2.8640

> <Gold.PLP.Chemscore.CHOScore>
0.7307

> <Gold.PLP.Chemscore.Metal>
0.0000

> <Gold.Chemscore.Hbonds>
donor molecule, donor type, donor heavy atom, donor atom, acceptor molecule, acceptor atom, score
      L1  H     3    25       P1  7948  0.80
      L1  H    18    41       P1  7948  1.00
      P1  H 10752 10763       L1     9  0.83
      L1  C    22    44       P1 10186  0.30

> <Gold.PLP.Chemscore.Internal.Correction>
0.0148

> <Gold.Rescore>
     Score         DG    S(hbond)    S(metal)    S(lipo)     H(rot)  DE(clash)    DE(int)     intcor
     16.88     -18.10       2.41        0.00      81.91       1.96       0.05       1.17       ----

> <Gold.Chemscore.Fitness>
16.8841

> <Gold.Chemscore.DG>
-18.1028

> <Gold.Chemscore.ZeroCoef>
-5.4800

> <Gold.Chemscore.Hbond>
2.4148

> <Gold.Chemscore.Metal>
0.0000

> <Gold.Chemscore.Lipo>
81.9131

> <Gold.Chemscore.Internal_Hbond>
0.0000

> <Gold.Chemscore.DEClash>
0.0506

> <Gold.Chemscore.DEInternal>
1.1681

> <Gold.Chemscore.Rot>
1.9634

> <Gold.Chemscore.Internal.Correction>
   9.000000E+99

> <Gold.Chemscore.Hbonds>
donor molecule, donor type, donor heavy atom, donor atom, acceptor molecule, acceptor atom, score
      L1  H     3    25       P1  7948  0.11
      L1  H    18    41       P1  7948  0.54
      P1  H 10752 10763       L1     9  0.83

> <Gold.Chemscore.Hbond.Weighted>
-8.0653

> <Gold.Chemscore.Metal.Weighted>
-0.0000

> <Gold.Chemscore.Lipo.Weighted>
-9.5838

> <Gold.Chemscore.Internal_Hbond.Weighted>
0.0000

> <Gold.Chemscore.DEClash.Weighted>
0.0506

> <Gold.Chemscore.DEInternal.Weighted>
1.1681

> <Gold.Chemscore.Rot.Weighted>
5.0263

> <Gold.Chemscore.Internal.Correction.Weighted>
   9.000000E+99

> <Gold.Protein.RotatedTorsions>
[ 6907 6896 6895 6894 ] final  -74.70 input  -60.11 | X-H torsion
[ 7974 7965 7964 7962 ] final   30.67 input  175.53 | X-H torsion
[ 8008 7997 7996 7995 ] final   42.02 input   59.86 | X-H torsion
[ 10167 10162 10161 10158 ] final  -79.70 input  -65.29 | X-H torsion
[ 10718 10713 10712 10709 ] final -178.57 input   66.30 | X-H torsion
[ 10763 10752 10751 10750 ] final   26.67 input  -60.55 | X-H torsion
[ 11005 11000 10999 10996 ] final  169.68 input  -57.11 | X-H torsion

> <Gold.Protein.ActiveResidues>
 VAL166  LYS551  ARG553  GLY616  TRP617  ASP618  TYR619  PRO620  LYS621  CYS622 
 ASP623  PHE694  ASN695  SER759  ASP760  ASP761  ALA762  ILE779  LEU786  VAL792 
 PHE793  MET794  SER795  GLU796  ALA797  LYS798  CYS799  TRP800  GLU811  SER814 

> <Gold.Protein.RotatedAtoms>
  150.7084  134.4831  159.5479 H   0  0  0  0  0  0  0  0  0  0  0  0  # atno 6907 bound_to 6896
  152.2464  134.8174  160.0462 H   0  0  0  0  0  0  0  0  0  0  0  0  # atno 6908 bound_to 6896
  151.8937  133.3487  159.3844 H   0  0  0  0  0  0  0  0  0  0  0  0  # atno 6909 bound_to 6896
  146.1597  139.6757  142.9042 H   0  0  0  0  0  0  0  0  0  0  0  0  # atno 7974 bound_to 7965
  155.2793  140.3371  155.4259 H   0  0  0  0  0  0  0  0  0  0  0  0  # atno 8008 bound_to 7997
  156.2097  140.1765  156.7763 H   0  0  0  0  0  0  0  0  0  0  0  0  # atno 8009 bound_to 7997
  154.5669  140.0677  156.8890 H   0  0  0  0  0  0  0  0  0  0  0  0  # atno 8010 bound_to 7997
  140.4569  143.2465  151.8406 H   0  0  0  0  0  0  0  0  0  0  0  0  # atno 10167 bound_to 10162
  156.8462  130.9703  151.3096 H   0  0  0  0  0  0  0  0  0  0  0  0  # atno 10718 bound_to 10713
  153.0607  135.6555  154.0470 H   0  0  0  0  0  0  0  0  0  0  0  0  # atno 10763 bound_to 10752
  154.0138  135.2926  155.3390 H   0  0  0  0  0  0  0  0  0  0  0  0  # atno 10764 bound_to 10752
  154.6944  135.5270  153.8505 H   0  0  0  0  0  0  0  0  0  0  0  0  # atno 10765 bound_to 10752
  140.3003  134.7600  157.3911 H   0  0  0  0  0  0  0  0  0  0  0  0  # atno 11005 bound_to 11000
  145.4619  141.0433  143.2747 LP  0  0  0  0  0  0  0  0  0  0  0  0  # atno 17320 bound_to 7965
  144.8010  139.6140  143.7071 LP  0  0  0  0  0  0  0  0  0  0  0  0  # atno 17321 bound_to 7965
  139.4802  144.5054  151.9005 LP  0  0  0  0  0  0  0  0  0  0  0  0  # atno 17342 bound_to 10162
  140.4140  144.2332  150.5888 LP  0  0  0  0  0  0  0  0  0  0  0  0  # atno 17343 bound_to 10162
  157.6328  130.8743  149.9305 LP  0  0  0  0  0  0  0  0  0  0  0  0  # atno 17370 bound_to 10713
  156.0853  130.3668  150.0499 LP  0  0  0  0  0  0  0  0  0  0  0  0  # atno 17371 bound_to 10713
  140.1115  134.5339  155.8262 LP  0  0  0  0  0  0  0  0  0  0  0  0  # atno 17394 bound_to 11000
  141.2129  133.6726  156.6698 LP  0  0  0  0  0  0  0  0  0  0  0  0  # atno 17395 bound_to 11000

$$$$
