AV-unprocessed.smi:937|AV-procd|sdf|4214|dock8
  -GOLD-   22720 2123D 1   1.00000     0.00000
 Structure written by MMmdl.
 46 47  0  0  0  0  0  0  0  0  2 V2000
  159.5762  134.2926  154.6640 C   0  0  0  0  0  0  0  0  0  0  0  0
  159.0425  135.0184  155.8808 C   0  0  0  0  0  0  0  0  0  0  0  0
  159.6641  134.9242  157.1447 C   0  0  0  0  0  0  0  0  0  0  0  0
  159.1171  135.6308  158.2361 C   0  0  0  0  0  0  0  0  0  0  0  0
  157.9611  136.4178  158.0412 C   0  0  0  0  0  0  0  0  0  0  0  0
  157.3460  137.1904  159.1910 C   0  0  0  0  0  0  0  0  0  0  0  0
  156.0853  137.9596  158.7646 C   0  0  0  0  0  0  0  0  0  0  0  0
  155.6384  138.8688  159.8125 N   0  0  0  0  0  0  0  0  0  0  0  0
  154.5472  139.6499  159.7360 C   0  0  0  0  0  0  0  0  0  0  0  0
  153.7946  139.6644  158.7635 O   0  0  0  0  0  0  0  0  0  0  0  0
  154.3335  140.4310  160.8101 N   0  0  0  0  0  0  0  0  0  0  0  0
  153.2475  141.3854  161.0410 C   0  0  1  0  0  0  0  0  0  0  0  0
  153.6067  142.3557  162.1852 C   0  0  0  0  0  0  0  0  0  0  0  0
  152.5151  143.4180  162.3798 C   0  0  0  0  0  0  0  0  0  0  0  0
  152.2413  144.1828  161.0756 C   0  0  0  0  0  0  0  0  0  0  0  0
  151.8658  143.2264  159.9240 C   0  0  1  0  0  0  0  0  0  0  0  0
  151.5709  143.9861  158.6140 C   0  0  0  0  0  0  0  0  0  0  0  0
  150.6310  144.9126  158.8038 F   0  0  0  0  0  0  0  0  0  0  0  0
  152.6790  144.5809  158.1718 F   0  0  0  0  0  0  0  0  0  0  0  0
  151.1542  143.1351  157.6764 F   0  0  0  0  0  0  0  0  0  0  0  0
  152.9691  142.1621  159.7397 C   0  0  0  0  0  0  0  0  0  0  0  0
  157.3819  136.4736  156.7552 C   0  0  0  0  0  0  0  0  0  0  0  0
  157.9364  135.7822  155.7358 N   0  3  0  0  0  0  0  0  0  0  0  0
  160.1480  133.4120  154.9579 H   0  0  0  0  0  0  0  0  0  0  0  0
  160.2295  134.9498  154.0900 H   0  0  0  0  0  0  0  0  0  0  0  0
  158.7612  133.9661  154.0170 H   0  0  0  0  0  0  0  0  0  0  0  0
  160.5496  134.3197  157.2782 H   0  0  0  0  0  0  0  0  0  0  0  0
  159.5805  135.5680  159.2099 H   0  0  0  0  0  0  0  0  0  0  0  0
  157.1065  136.4991  160.0004 H   0  0  0  0  0  0  0  0  0  0  0  0
  158.0941  137.8785  159.5873 H   0  0  0  0  0  0  0  0  0  0  0  0
  156.2692  138.5176  157.8446 H   0  0  0  0  0  0  0  0  0  0  0  0
  155.2765  137.2614  158.5478 H   0  0  0  0  0  0  0  0  0  0  0  0
  156.1998  138.9167  160.6504 H   0  0  0  0  0  0  0  0  0  0  0  0
  155.0031  140.3465  161.5614 H   0  0  0  0  0  0  0  0  0  0  0  0
  152.3369  140.8437  161.3034 H   0  0  0  0  0  0  0  0  0  0  0  0
  153.7512  141.8094  163.1178 H   0  0  0  0  0  0  0  0  0  0  0  0
  154.5553  142.8486  161.9674 H   0  0  0  0  0  0  0  0  0  0  0  0
  151.5968  142.9403  162.7234 H   0  0  0  0  0  0  0  0  0  0  0  0
  152.8124  144.1158  163.1632 H   0  0  0  0  0  0  0  0  0  0  0  0
  151.4405  144.9038  161.2419 H   0  0  0  0  0  0  0  0  0  0  0  0
  153.1246  144.7613  160.8025 H   0  0  0  0  0  0  0  0  0  0  0  0
  150.9499  142.7069  160.2106 H   0  0  0  0  0  0  0  0  0  0  0  0
  153.8860  142.6442  159.3970 H   0  0  0  0  0  0  0  0  0  0  0  0
  152.6793  141.4622  158.9551 H   0  0  0  0  0  0  0  0  0  0  0  0
  156.4978  137.0458  156.5131 H   0  0  0  0  0  0  0  0  0  0  0  0
  157.5003  135.8396  154.8151 H   0  0  0  0  0  0  0  0  0  0  0  0
  1  2  1  0  0  0  0
  1 24  1  0  0  0  0
  1 25  1  0  0  0  0
  1 26  1  0  0  0  0
  2 23  1  0  0  0  0
  2  3  2  0  0  0  0
  3  4  1  0  0  0  0
  3 27  1  0  0  0  0
  4  5  2  0  0  0  0
  4 28  1  0  0  0  0
  5  6  1  0  0  0  0
  5 22  1  0  0  0  0
  6  7  1  0  0  0  0
  6 29  1  0  0  0  0
  6 30  1  0  0  0  0
  7  8  1  0  0  0  0
  7 31  1  0  0  0  0
  7 32  1  0  0  0  0
  8  9  1  0  0  0  0
  8 33  1  0  0  0  0
  9 10  2  0  0  0  0
  9 11  1  0  0  0  0
 11 12  1  0  0  0  0
 11 34  1  0  0  0  0
 12 21  1  0  0  0  0
 12 13  1  0  0  0  0
 12 35  1  0  0  0  0
 13 14  1  0  0  0  0
 13 36  1  0  0  0  0
 13 37  1  0  0  0  0
 14 15  1  0  0  0  0
 14 38  1  0  0  0  0
 14 39  1  0  0  0  0
 15 16  1  0  0  0  0
 15 40  1  0  0  0  0
 15 41  1  0  0  0  0
 16 17  1  0  0  0  0
 16 21  1  0  0  0  0
 16 42  1  0  0  0  0
 17 18  1  0  0  0  0
 17 19  1  0  0  0  0
 17 20  1  0  0  0  0
 21 43  1  0  0  0  0
 21 44  1  0  0  0  0
 22 23  2  0  0  0  0
 22 45  1  0  0  0  0
 23 46  1  0  0  0  0
M  CHG  1  23   1
M  END
> <s_m_source_file>
AV-unprocessed.smi

> <i_m_source_file_index>
937

> <i_lp_mmshare_version>
43012

> <i_f3d_flags>
0

> <s_epik_input>
W0NIM11jMVtjSF1bY0hdYyhbY0hdbjEpW0NIMl1bQ0gyXVtOSF1DKD1PKVtOSF1bQ0BASF0yW0NIMl1bQ0gyXVtDSDJdW0NAQEhdKEMoRikoRilGKVtDSDJdMg==

> <s_epik_cmdline>
J2VwaWtfcHl0aG9uJywgJy1waCcsICc3LjAnLCAnLXRuJywgJzgnLCAnLW1hJywgJzIwMCcsICctbWV0YWxfYmluZGluZycsICctaW1hZScsICc8aW5maWxlLm1hZT4nLCAnLW9tYWUnLCAnPG91dGZpbGUubWFlPic=

> <r_epik_Ionization_Penalty>
1.4226

> <r_epik_Ionization_Penalty_Charging>
1.42255

> <r_epik_Ionization_Penalty_Neutral>
5.16456e-05

> <r_epik_State_Penalty>
1.50646

> <r_epik_Charging_Adjusted_Penalty>
2.92901

> <i_epik_Tot_Q>
1

> <i_epik_Tot_abs_Q>
1

> <r_epik_Metal_State_Penalty>
1.55846

> <b_epik_Metal_Only>
0

> <s_lp_Force_Field>
OPLS_2005

> <r_lp_Energy>
24.5693

> <b_lp_Chiralities_Consistent>
1

> <s_lp_Variant>
AV-unprocessed.smi:937-6

> <Gold.Version>
5.8.1

> <Gold.Id.Protein>
6NUR|6NUR_protein|mol2

> <Gold.PLP.Fitness>
47.8934

> <Gold.PLP.PLP>
-45.4459

> <Gold.PLP.part.hbond>
-1.0000

> <Gold.PLP.part.metal>
0.0000

> <Gold.PLP.part.buried>
-3.1190

> <Gold.PLP.part.nonpolar>
-41.6328

> <Gold.PLP.part.repulsive>
0.1255

> <Gold.PLP.ligand.clash>
0.0000

> <Gold.PLP.ligand.torsion>
0.2903

> <Gold.PLP.Chemscore.Hbond>
1.0000

> <Gold.PLP.Chemscore.CHOScore>
0.0000

> <Gold.PLP.Chemscore.Metal>
0.0000

> <Gold.Chemscore.Hbonds>
donor molecule, donor type, donor heavy atom, donor atom, acceptor molecule, acceptor atom, score
      P1  H  7997  8008       L1    10  1.00

> <Gold.PLP.Chemscore.Internal.Correction>
0.0280

> <Gold.Rescore>
     Score         DG    S(hbond)    S(metal)    S(lipo)     H(rot)  DE(clash)    DE(int)     intcor
     14.36     -16.25       0.93        0.00     101.73       1.66       0.14       1.75       ----

> <Gold.Chemscore.Fitness>
14.3615

> <Gold.Chemscore.DG>
-16.2512

> <Gold.Chemscore.ZeroCoef>
-5.4800

> <Gold.Chemscore.Hbond>
0.9325

> <Gold.Chemscore.Metal>
0.0000

> <Gold.Chemscore.Lipo>
101.7308

> <Gold.Chemscore.Internal_Hbond>
0.0000

> <Gold.Chemscore.DEClash>
0.1365

> <Gold.Chemscore.DEInternal>
1.7533

> <Gold.Chemscore.Rot>
1.6585

> <Gold.Chemscore.Internal.Correction>
   9.000000E+99

> <Gold.Chemscore.Hbonds>
donor molecule, donor type, donor heavy atom, donor atom, acceptor molecule, acceptor atom, score
      P1  H  7997  8008       L1    10  0.74

> <Gold.Chemscore.Hbond.Weighted>
-3.1144

> <Gold.Chemscore.Metal.Weighted>
-0.0000

> <Gold.Chemscore.Lipo.Weighted>
-11.9025

> <Gold.Chemscore.Internal_Hbond.Weighted>
0.0000

> <Gold.Chemscore.DEClash.Weighted>
0.1365

> <Gold.Chemscore.DEInternal.Weighted>
1.7533

> <Gold.Chemscore.Rot.Weighted>
4.2457

> <Gold.Chemscore.Internal.Correction.Weighted>
   9.000000E+99

> <Gold.Protein.RotatedTorsions>
[ 6907 6896 6895 6894 ] final -106.66 input  -60.11 | X-H torsion
[ 7974 7965 7964 7962 ] final  -42.99 input  175.53 | X-H torsion
[ 8008 7997 7996 7995 ] final  -98.68 input   59.86 | X-H torsion
[ 10167 10162 10161 10158 ] final -144.19 input  -65.29 | X-H torsion
[ 10718 10713 10712 10709 ] final  -41.63 input   66.30 | X-H torsion
[ 10763 10752 10751 10750 ] final  -52.73 input  -60.55 | X-H torsion
[ 11005 11000 10999 10996 ] final   31.54 input  -57.11 | X-H torsion

> <Gold.Protein.ActiveResidues>
 VAL166  LYS551  ARG553  GLY616  TRP617  ASP618  TYR619  PRO620  LYS621  CYS622 
 ASP623  PHE694  ASN695  SER759  ASP760  ASP761  ALA762  ILE779  LEU786  VAL792 
 PHE793  MET794  SER795  GLU796  ALA797  LYS798  CYS799  TRP800  GLU811  SER814 

> <Gold.Protein.RotatedAtoms>
  150.7401  133.9943  159.3617 H   0  0  0  0  0  0  0  0  0  0  0  0  # atno 6907 bound_to 6896
  151.7893  135.0738  160.0394 H   0  0  0  0  0  0  0  0  0  0  0  0  # atno 6908 bound_to 6896
  152.3219  133.5826  159.5786 H   0  0  0  0  0  0  0  0  0  0  0  0  # atno 6909 bound_to 6896
  146.0062  140.7017  142.9246 H   0  0  0  0  0  0  0  0  0  0  0  0  # atno 7974 bound_to 7965
  154.8045  140.0453  157.1297 H   0  0  0  0  0  0  0  0  0  0  0  0  # atno 8008 bound_to 7997
  154.9440  140.3056  155.5087 H   0  0  0  0  0  0  0  0  0  0  0  0  # atno 8009 bound_to 7997
  156.2965  140.2300  156.4511 H   0  0  0  0  0  0  0  0  0  0  0  0  # atno 8010 bound_to 7997
  139.7922  143.7950  152.2651 H   0  0  0  0  0  0  0  0  0  0  0  0  # atno 10167 bound_to 10162
  156.2683  130.4204  149.8466 H   0  0  0  0  0  0  0  0  0  0  0  0  # atno 10718 bound_to 10713
  154.1474  135.6495  153.4955 H   0  0  0  0  0  0  0  0  0  0  0  0  # atno 10763 bound_to 10752
  153.0148  135.5330  154.6843 H   0  0  0  0  0  0  0  0  0  0  0  0  # atno 10764 bound_to 10752
  154.6121  135.2955  155.0391 H   0  0  0  0  0  0  0  0  0  0  0  0  # atno 10765 bound_to 10752
  140.2828  134.2953  155.7796 H   0  0  0  0  0  0  0  0  0  0  0  0  # atno 11005 bound_to 11000
  144.6936  140.3319  143.7214 LP  0  0  0  0  0  0  0  0  0  0  0  0  # atno 17320 bound_to 7965
  145.7412  139.1765  143.2375 LP  0  0  0  0  0  0  0  0  0  0  0  0  # atno 17321 bound_to 7965
  139.8045  144.7361  150.9780 LP  0  0  0  0  0  0  0  0  0  0  0  0  # atno 17342 bound_to 10162
  140.7820  143.4312  151.0692 LP  0  0  0  0  0  0  0  0  0  0  0  0  # atno 17343 bound_to 10162
  156.5957  130.8525  151.3419 LP  0  0  0  0  0  0  0  0  0  0  0  0  # atno 17370 bound_to 10713
  157.7275  130.9644  150.1701 LP  0  0  0  0  0  0  0  0  0  0  0  0  # atno 17371 bound_to 10713
  141.2160  133.7536  156.9507 LP  0  0  0  0  0  0  0  0  0  0  0  0  # atno 17394 bound_to 11000
  140.1267  134.9382  157.2280 LP  0  0  0  0  0  0  0  0  0  0  0  0  # atno 17395 bound_to 11000

$$$$
