AV-unprocessed.smi:249|AV-procd|sdf|1906|dock2
  -GOLD-   2262020583D 1   1.00000     0.00000
 Structure written by MMmdl.
 64 67  0  0  0  0  0  0  0  0  2 V2000
  151.6256  144.1731  159.6829 C   0  0  0  0  0  0  0  0  0  0  0  0
  150.3595  144.6106  158.9281 C   0  0  0  0  0  0  0  0  0  0  0  0
  150.0001  143.7071  157.7966 N   0  3  2  0  0  0  0  0  0  0  0  0
  148.8719  142.7984  158.1503 C   0  0  0  0  0  0  0  0  0  0  0  0
  148.3998  141.9687  156.9489 C   0  0  0  0  0  0  0  0  0  0  0  0
  149.5560  141.1334  156.3738 C   0  0  1  0  0  0  0  0  0  0  0  0
  149.1484  140.2650  155.2581 N   0  0  0  0  0  0  0  0  0  0  0  0
  148.6040  140.9139  154.0707 C   0  0  0  0  0  0  0  0  0  0  0  0
  149.9475  139.2053  154.9856 C   0  0  0  0  0  0  0  0  0  0  0  0
  151.2180  139.4090  154.5474 N   0  0  0  0  0  0  0  0  0  0  0  0
  152.0313  138.3672  154.3481 C   0  0  0  0  0  0  0  0  0  0  0  0
  151.7857  137.0687  154.5360 N   0  0  0  0  0  0  0  0  0  0  0  0
  150.5045  136.8629  154.9557 C   0  0  0  0  0  0  0  0  0  0  0  0
  149.5211  137.8647  155.1809 C   0  0  0  0  0  0  0  0  0  0  0  0
  148.3266  137.2803  155.5835 N   0  0  0  0  0  0  0  0  0  0  0  0
  148.5969  136.0042  155.6233 C   0  0  0  0  0  0  0  0  0  0  0  0
  149.8940  135.6710  155.3024 N   0  0  0  0  0  0  0  0  0  0  0  0
  150.4778  134.3433  155.3160 C   0  0  0  0  0  0  0  0  0  0  0  0
  149.4493  133.1881  155.4806 C   0  0  2  0  0  0  0  0  0  0  0  0
  148.9427  133.1702  156.9437 C   0  0  0  0  0  0  0  0  0  0  0  0
  150.0082  133.0023  157.8564 O   0  0  0  0  0  0  0  0  0  0  0  0
  150.0042  131.7959  155.0434 C   0  0  1  0  0  0  0  0  0  0  0  0
  151.3174  131.3862  155.6952 C   0  0  0  0  0  0  0  0  0  0  0  0
  151.3415  129.8830  155.4654 C   0  0  0  0  0  0  0  0  0  0  0  0
  149.9977  129.4825  155.6750 O   0  0  0  0  0  0  0  0  0  0  0  0
  149.1288  130.5781  155.4022 C   0  0  0  0  0  0  0  0  0  0  0  0
  150.7178  142.0858  156.0308 C   0  0  0  0  0  0  0  0  0  0  0  0
  151.1610  142.9415  157.2358 C   0  0  1  0  0  0  0  0  0  0  0  0
  152.3284  143.8446  156.7840 C   0  0  0  0  0  0  0  0  0  0  0  0
  151.7509  144.7666  160.5889 H   0  0  0  0  0  0  0  0  0  0  0  0
  152.5311  144.3084  159.0928 H   0  0  0  0  0  0  0  0  0  0  0  0
  151.5657  143.1266  159.9828 H   0  0  0  0  0  0  0  0  0  0  0  0
  149.5657  144.6223  159.6711 H   0  0  0  0  0  0  0  0  0  0  0  0
  150.4640  145.6352  158.5681 H   0  0  0  0  0  0  0  0  0  0  0  0
  149.1766  142.1386  158.9644 H   0  0  0  0  0  0  0  0  0  0  0  0
  148.0163  143.3663  158.5108 H   0  0  0  0  0  0  0  0  0  0  0  0
  147.5800  141.3218  157.2613 H   0  0  0  0  0  0  0  0  0  0  0  0
  147.9957  142.6394  156.1900 H   0  0  0  0  0  0  0  0  0  0  0  0
  149.9077  140.4653  157.1614 H   0  0  0  0  0  0  0  0  0  0  0  0
  148.1540  140.1780  153.4030 H   0  0  0  0  0  0  0  0  0  0  0  0
  149.3761  141.4500  153.5178 H   0  0  0  0  0  0  0  0  0  0  0  0
  147.8283  141.6272  154.3501 H   0  0  0  0  0  0  0  0  0  0  0  0
  153.0262  138.6095  154.0041 H   0  0  0  0  0  0  0  0  0  0  0  0
  147.8623  135.2703  155.9216 H   0  0  0  0  0  0  0  0  0  0  0  0
  151.0413  134.2075  154.3921 H   0  0  0  0  0  0  0  0  0  0  0  0
  151.2091  134.3247  156.1245 H   0  0  0  0  0  0  0  0  0  0  0  0
  148.5857  133.4059  154.8504 H   0  0  0  0  0  0  0  0  0  0  0  0
  148.4567  134.1075  157.2110 H   0  0  0  0  0  0  0  0  0  0  0  0
  148.2112  132.3752  157.0922 H   0  0  0  0  0  0  0  0  0  0  0  0
  150.4139  132.1641  157.6948 H   0  0  0  0  0  0  0  0  0  0  0  0
  150.1633  131.8020  153.9637 H   0  0  0  0  0  0  0  0  0  0  0  0
  152.1868  131.8809  155.2606 H   0  0  0  0  0  0  0  0  0  0  0  0
  151.2984  131.5977  156.7656 H   0  0  0  0  0  0  0  0  0  0  0  0
  151.6267  129.6568  154.4369 H   0  0  0  0  0  0  0  0  0  0  0  0
  152.0264  129.3631  156.1354 H   0  0  0  0  0  0  0  0  0  0  0  0
  148.5329  130.7618  156.2966 H   0  0  0  0  0  0  0  0  0  0  0  0
  148.4503  130.3078  154.5944 H   0  0  0  0  0  0  0  0  0  0  0  0
  151.5648  141.5015  155.6701 H   0  0  0  0  0  0  0  0  0  0  0  0
  150.4319  142.7576  155.2201 H   0  0  0  0  0  0  0  0  0  0  0  0
  151.5315  142.2721  158.0141 H   0  0  0  0  0  0  0  0  0  0  0  0
  153.0773  143.2679  156.2401 H   0  0  0  0  0  0  0  0  0  0  0  0
  152.8541  144.2993  157.6228 H   0  0  0  0  0  0  0  0  0  0  0  0
  151.9850  144.6395  156.1207 H   0  0  0  0  0  0  0  0  0  0  0  0
  149.6700  144.3034  157.0512 H   0  0  0  0  0  0  0  0  0  0  0  0
  1  2  1  0  0  0  0
  1 30  1  0  0  0  0
  1 31  1  0  0  0  0
  1 32  1  0  0  0  0
  2  3  1  0  0  0  0
  2 33  1  0  0  0  0
  2 34  1  0  0  0  0
  3 28  1  0  0  0  0
  3  4  1  0  0  0  0
  3 64  1  0  0  0  0
  4  5  1  0  0  0  0
  4 35  1  0  0  0  0
  4 36  1  0  0  0  0
  5  6  1  0  0  0  0
  5 37  1  0  0  0  0
  5 38  1  0  0  0  0
  6  7  1  0  0  0  0
  6 27  1  0  0  0  0
  6 39  1  0  0  0  0
  7  8  1  0  0  0  0
  7  9  1  0  0  0  0
  8 40  1  0  0  0  0
  8 41  1  0  0  0  0
  8 42  1  0  0  0  0
  9 14  1  0  0  0  0
  9 10  2  0  0  0  0
 10 11  1  0  0  0  0
 11 12  2  0  0  0  0
 11 43  1  0  0  0  0
 12 13  1  0  0  0  0
 13 17  1  0  0  0  0
 13 14  2  0  0  0  0
 14 15  1  0  0  0  0
 15 16  2  0  0  0  0
 16 17  1  0  0  0  0
 16 44  1  0  0  0  0
 17 18  1  0  0  0  0
 18 19  1  0  0  0  0
 18 45  1  0  0  0  0
 18 46  1  0  0  0  0
 19 20  1  0  0  0  0
 19 22  1  0  0  0  0
 19 47  1  0  0  0  0
 20 21  1  0  0  0  0
 20 48  1  0  0  0  0
 20 49  1  0  0  0  0
 21 50  1  0  0  0  0
 22 26  1  0  0  0  0
 22 23  1  0  0  0  0
 22 51  1  0  0  0  0
 23 24  1  0  0  0  0
 23 52  1  0  0  0  0
 23 53  1  0  0  0  0
 24 25  1  0  0  0  0
 24 54  1  0  0  0  0
 24 55  1  0  0  0  0
 25 26  1  0  0  0  0
 26 56  1  0  0  0  0
 26 57  1  0  0  0  0
 27 28  1  0  0  0  0
 27 58  1  0  0  0  0
 27 59  1  0  0  0  0
 28 29  1  0  0  0  0
 28 60  1  0  0  0  0
 29 61  1  0  0  0  0
 29 62  1  0  0  0  0
 29 63  1  0  0  0  0
M  CHG  1   3   1
M  END
> <s_m_source_file>
AV-unprocessed.smi

> <i_m_source_file_index>
249

> <i_lp_mmshare_version>
43012

> <i_f3d_flags>
0

> <s_epik_input>
W0NIM11bQ0gyXU4xW0NIMl1bQ0gyXVtDQEhdKFtDSDJdW0NASF0xW0NIM10pTihbQ0gzXSljKG5bY0hdbjIpYyhjMjMpbltjSF1uM1tDSDJdW0NASF0oW0NIMl1bT0hdKVtDQEBIXTRbQ0gyXVtDSDJdT1tDSDJdNA==

> <s_epik_cmdline>
J2VwaWtfcHl0aG9uJywgJy1waCcsICc3LjAnLCAnLXRuJywgJzgnLCAnLW1hJywgJzIwMCcsICctbWV0YWxfYmluZGluZycsICctaW1hZScsICc8aW5maWxlLm1hZT4nLCAnLW9tYWUnLCAnPG91dGZpbGUubWFlPic=

> <r_lp_tautomer_probability>
1

> <r_epik_Ionization_Penalty>
0.00294688

> <r_epik_Ionization_Penalty_Charging>
0.00169971

> <r_epik_Ionization_Penalty_Neutral>
0.00124717

> <r_epik_State_Penalty>
-0

> <r_epik_Charging_Adjusted_Penalty>
0.00169971

> <i_epik_Tot_Q>
1

> <i_epik_Tot_abs_Q>
1

> <r_epik_Metal_State_Penalty>
-0

> <b_epik_Metal_Only>
0

> <s_lp_Force_Field>
OPLS_2005

> <r_lp_Energy>
53.7377

> <b_lp_Chiralities_Consistent>
1

> <s_lp_Variant>
AV-unprocessed.smi:249-9

> <Gold.Version>
5.8.1

> <Gold.Id.Protein>
6NUR|6NUR_protein|mol2

> <Gold.PLP.Fitness>
57.3246

> <Gold.PLP.PLP>
-43.8688

> <Gold.PLP.part.hbond>
-4.6503

> <Gold.PLP.part.metal>
0.0000

> <Gold.PLP.part.buried>
-7.7039

> <Gold.PLP.part.nonpolar>
-31.2847

> <Gold.PLP.part.repulsive>
0.3897

> <Gold.PLP.ligand.clash>
0.0198

> <Gold.PLP.ligand.torsion>
1.3185

> <Gold.PLP.Chemscore.Hbond>
4.9760

> <Gold.PLP.Chemscore.CHOScore>
0.0000

> <Gold.PLP.Chemscore.Metal>
0.0000

> <Gold.Chemscore.Hbonds>
donor molecule, donor type, donor heavy atom, donor atom, acceptor molecule, acceptor atom, score
      L1  H     3    64       P1  8028  2.00
      P1  H  6896  6907       L1    21  0.80
      P1  H  7989  7998       L1    10  1.00
      P1  H 10752 10763       L1    12  1.00

> <Gold.PLP.Chemscore.Internal.Correction>
1.1847

> <Gold.Rescore>
     Score         DG    S(hbond)    S(metal)    S(lipo)     H(rot)  DE(clash)    DE(int)     intcor
     16.83     -22.41       3.42        0.00     110.36       2.90       2.40       3.17       ----

> <Gold.Chemscore.Fitness>
16.8292

> <Gold.Chemscore.DG>
-22.4053

> <Gold.Chemscore.ZeroCoef>
-5.4800

> <Gold.Chemscore.Hbond>
3.4247

> <Gold.Chemscore.Metal>
0.0000

> <Gold.Chemscore.Lipo>
110.3621

> <Gold.Chemscore.Internal_Hbond>
0.0000

> <Gold.Chemscore.DEClash>
2.4035

> <Gold.Chemscore.DEInternal>
3.1726

> <Gold.Chemscore.Rot>
2.9006

> <Gold.Chemscore.Internal.Correction>
   9.000000E+99

> <Gold.Chemscore.Hbonds>
donor molecule, donor type, donor heavy atom, donor atom, acceptor molecule, acceptor atom, score
      L1  H     3    64       P1  8028  0.44
      P1  H  6896  6907       L1    21  0.12
      P1  H  7989  7998       L1    10  0.81
      P1  H 10752 10763       L1    12  0.95

> <Gold.Chemscore.Hbond.Weighted>
-11.4386

> <Gold.Chemscore.Metal.Weighted>
-0.0000

> <Gold.Chemscore.Lipo.Weighted>
-12.9124

> <Gold.Chemscore.Internal_Hbond.Weighted>
0.0000

> <Gold.Chemscore.DEClash.Weighted>
2.4035

> <Gold.Chemscore.DEInternal.Weighted>
3.1726

> <Gold.Chemscore.Rot.Weighted>
7.4256

> <Gold.Chemscore.Internal.Correction.Weighted>
   9.000000E+99

> <Gold.Protein.RotatedTorsions>
[ 6907 6896 6895 6894 ] final -145.20 input  -60.11 | X-H torsion
[ 7974 7965 7964 7962 ] final   89.99 input  175.53 | X-H torsion
[ 8008 7997 7996 7995 ] final    8.35 input   59.86 | X-H torsion
[ 10167 10162 10161 10158 ] final  172.86 input  -65.29 | X-H torsion
[ 10718 10713 10712 10709 ] final  -47.70 input   66.30 | X-H torsion
[ 10763 10752 10751 10750 ] final   48.12 input  -60.55 | X-H torsion
[ 11005 11000 10999 10996 ] final -164.86 input  -57.11 | X-H torsion

> <Gold.Protein.ActiveResidues>
 VAL166  LYS551  ARG553  GLY616  TRP617  ASP618  TYR619  PRO620  LYS621  CYS622 
 ASP623  PHE694  ASN695  SER759  ASP760  ASP761  ALA762  ILE779  LEU786  VAL792 
 PHE793  MET794  SER795  GLU796  ALA797  LYS798  CYS799  TRP800  GLU811  SER814 

> <Gold.Protein.RotatedAtoms>
  151.1246  133.5080  159.2600 H   0  0  0  0  0  0  0  0  0  0  0  0  # atno 6907 bound_to 6896
  151.1824  135.0366  159.8808 H   0  0  0  0  0  0  0  0  0  0  0  0  # atno 6908 bound_to 6896
  152.5457  134.1096  159.8406 H   0  0  0  0  0  0  0  0  0  0  0  0  # atno 6909 bound_to 6896
  145.5250  139.2281  143.2650 H   0  0  0  0  0  0  0  0  0  0  0  0  # atno 7974 bound_to 7965
  154.7657  140.2793  155.6178 H   0  0  0  0  0  0  0  0  0  0  0  0  # atno 8008 bound_to 7997
  156.2924  140.2651  156.2375 H   0  0  0  0  0  0  0  0  0  0  0  0  # atno 8009 bound_to 7997
  154.9962  140.0373  157.2330 H   0  0  0  0  0  0  0  0  0  0  0  0  # atno 8010 bound_to 7997
  139.5090  144.3326  152.0097 H   0  0  0  0  0  0  0  0  0  0  0  0  # atno 10167 bound_to 10162
  156.2059  130.4158  149.9179 H   0  0  0  0  0  0  0  0  0  0  0  0  # atno 10718 bound_to 10713
  152.9794  135.5954  154.3873 H   0  0  0  0  0  0  0  0  0  0  0  0  # atno 10763 bound_to 10752
  154.3532  135.2767  155.2362 H   0  0  0  0  0  0  0  0  0  0  0  0  # atno 10764 bound_to 10752
  154.4392  135.6017  153.6173 H   0  0  0  0  0  0  0  0  0  0  0  0  # atno 10765 bound_to 10752
  140.5822  134.5130  157.5180 H   0  0  0  0  0  0  0  0  0  0  0  0  # atno 11005 bound_to 11000
  146.2081  140.6064  142.9072 LP  0  0  0  0  0  0  0  0  0  0  0  0  # atno 17320 bound_to 7965
  144.7656  140.5521  143.6706 LP  0  0  0  0  0  0  0  0  0  0  0  0  # atno 17321 bound_to 7965
  140.2765  144.3907  150.6133 LP  0  0  0  0  0  0  0  0  0  0  0  0  # atno 17342 bound_to 10162
  140.6050  143.2167  151.6999 LP  0  0  0  0  0  0  0  0  0  0  0  0  # atno 17343 bound_to 10162
  156.6873  130.8882  151.3584 LP  0  0  0  0  0  0  0  0  0  0  0  0  # atno 17370 bound_to 10713
  157.7012  130.9335  150.0790 LP  0  0  0  0  0  0  0  0  0  0  0  0  # atno 17371 bound_to 10713
  139.9312  134.7960  156.0926 LP  0  0  0  0  0  0  0  0  0  0  0  0  # atno 17394 bound_to 11000
  141.0989  133.6685  156.2708 LP  0  0  0  0  0  0  0  0  0  0  0  0  # atno 17395 bound_to 11000

$$$$
