AV-unprocessed.smi:2127|AV-procd|sdf|8680|dock2
  -GOLD-   2272011433D 1   1.00000     0.00000
 Structure written by MMmdl.
 34 35  0  0  0  0  0  0  0  0  1 V2000
  150.0181  140.7042  157.3152 O   0  0  0  0  0  0  0  0  0  0  0  0
  149.9057  141.8409  156.8582 C   0  0  0  0  0  0  0  0  0  0  0  0
  150.4532  142.9543  157.3766 N   0  0  0  0  0  0  0  0  0  0  0  0
  151.2697  143.1137  158.5313 C   0  0  0  0  0  0  0  0  0  0  0  0
  152.0417  142.0885  159.1321 C   0  0  0  0  0  0  0  0  0  0  0  0
  152.8046  142.3929  160.2761 C   0  0  0  0  0  0  0  0  0  0  0  0
  152.7709  143.7078  160.7785 C   0  0  0  0  0  0  0  0  0  0  0  0
  152.0421  144.6946  160.2172 N   0  0  0  0  0  0  0  0  0  0  0  0
  151.3130  144.3952  159.1212 C   0  0  0  0  0  0  0  0  0  0  0  0
  149.1998  142.1241  155.7537 N   0  0  0  0  0  0  0  0  0  0  0  0
  148.4923  141.1531  154.9167 C   0  0  1  0  0  0  0  0  0  0  0  0
  147.7008  141.8822  153.8077 C   0  0  0  0  0  0  0  0  0  0  0  0
  146.5291  141.0672  153.2369 C   0  0  0  0  0  0  0  0  0  0  0  0
  146.9319  139.7638  152.5311 C   0  0  0  0  0  0  0  0  0  0  0  0
  147.5619  138.7205  153.4699 C   0  0  0  0  0  0  0  0  0  0  0  0
  148.9622  139.0015  153.7613 N   0  0  0  0  0  0  0  0  0  0  0  0
  149.4599  140.0734  154.3967 C   0  0  0  0  0  0  0  0  0  0  0  0
  150.6743  140.1961  154.5559 O   0  0  0  0  0  0  0  0  0  0  0  0
  150.2573  143.8084  156.8753 H   0  0  0  0  0  0  0  0  0  0  0  0
  152.0722  141.0810  158.7510 H   0  0  0  0  0  0  0  0  0  0  0  0
  153.4032  141.6341  160.7580 H   0  0  0  0  0  0  0  0  0  0  0  0
  153.3444  143.9736  161.6542 H   0  0  0  0  0  0  0  0  0  0  0  0
  150.7426  145.2106  158.7002 H   0  0  0  0  0  0  0  0  0  0  0  0
  149.1648  143.0854  155.4464 H   0  0  0  0  0  0  0  0  0  0  0  0
  147.7817  140.6367  155.5649 H   0  0  0  0  0  0  0  0  0  0  0  0
  147.2851  142.8091  154.2052 H   0  0  0  0  0  0  0  0  0  0  0  0
  148.3736  142.1833  153.0036 H   0  0  0  0  0  0  0  0  0  0  0  0
  145.8181  140.8451  154.0337 H   0  0  0  0  0  0  0  0  0  0  0  0
  145.9889  141.6924  152.5252 H   0  0  0  0  0  0  0  0  0  0  0  0
  146.0332  139.3289  152.0923 H   0  0  0  0  0  0  0  0  0  0  0  0
  147.5995  139.9752  151.6948 H   0  0  0  0  0  0  0  0  0  0  0  0
  146.9914  138.6255  154.3949 H   0  0  0  0  0  0  0  0  0  0  0  0
  147.5281  137.7428  152.9889 H   0  0  0  0  0  0  0  0  0  0  0  0
  149.6275  138.3138  153.4381 H   0  0  0  0  0  0  0  0  0  0  0  0
  1  2  2  0  0  0  0
  2  3  1  0  0  0  0
  2 10  1  0  0  0  0
  3  4  1  0  0  0  0
  3 19  1  0  0  0  0
  4  9  1  0  0  0  0
  4  5  2  0  0  0  0
  5  6  1  0  0  0  0
  5 20  1  0  0  0  0
  6  7  2  0  0  0  0
  6 21  1  0  0  0  0
  7  8  1  0  0  0  0
  7 22  1  0  0  0  0
  8  9  2  0  0  0  0
  9 23  1  0  0  0  0
 10 11  1  0  0  0  0
 10 24  1  0  0  0  0
 11 17  1  0  0  0  0
 11 12  1  0  0  0  0
 11 25  1  0  0  0  0
 12 13  1  0  0  0  0
 12 26  1  0  0  0  0
 12 27  1  0  0  0  0
 13 14  1  0  0  0  0
 13 28  1  0  0  0  0
 13 29  1  0  0  0  0
 14 15  1  0  0  0  0
 14 30  1  0  0  0  0
 14 31  1  0  0  0  0
 15 16  1  0  0  0  0
 15 32  1  0  0  0  0
 15 33  1  0  0  0  0
 16 17  1  0  0  0  0
 16 34  1  0  0  0  0
 17 18  2  0  0  0  0
M  END
> <s_m_source_file>
AV-unprocessed.smi

> <i_m_source_file_index>
2127

> <i_lp_mmshare_version>
43012

> <i_f3d_flags>
0

> <s_epik_input>
W2NIXTFuW2NIXVtjSF1bY0hdYzFbTkhdQyg9TylbTkhdW0NAQEhdMltDSDJdW0NIMl1bQ0gyXVtDSDJdW05IXUMyPU8=

> <s_epik_cmdline>
J2VwaWtfcHl0aG9uJywgJy1waCcsICc3LjAnLCAnLXRuJywgJzgnLCAnLW1hJywgJzIwMCcsICctbWV0YWxfYmluZGluZycsICctaW1hZScsICc8aW5maWxlLm1hZT4nLCAnLW9tYWUnLCAnPG91dGZpbGUubWFlPic=

> <r_epik_Ionization_Penalty>
0.00420494

> <r_epik_Ionization_Penalty_Charging>
0

> <r_epik_Ionization_Penalty_Neutral>
0.00420494

> <r_epik_State_Penalty>
0.0029968

> <r_epik_Charging_Adjusted_Penalty>
0.0029968

> <i_epik_Tot_Q>
0

> <i_epik_Tot_abs_Q>
0

> <r_epik_Metal_State_Penalty>
-0

> <b_epik_Metal_Only>
0

> <s_lp_Force_Field>
OPLS_2005

> <r_lp_Energy>
13.2034

> <b_lp_Chiralities_Consistent>
1

> <s_lp_Variant>
AV-unprocessed.smi:2127-2

> <Gold.Version>
5.8.1

> <Gold.Id.Protein>
6NUR|6NUR_protein|mol2

> <Gold.PLP.Fitness>
41.8960

> <Gold.PLP.PLP>
-33.4263

> <Gold.PLP.part.hbond>
-4.0000

> <Gold.PLP.part.metal>
0.0000

> <Gold.PLP.part.buried>
-2.5290

> <Gold.PLP.part.nonpolar>
-27.1604

> <Gold.PLP.part.repulsive>
0.4045

> <Gold.PLP.ligand.clash>
0.0000

> <Gold.PLP.ligand.torsion>
0.1228

> <Gold.PLP.Chemscore.Hbond>
2.8960

> <Gold.PLP.Chemscore.CHOScore>
0.0000

> <Gold.PLP.Chemscore.Metal>
0.0000

> <Gold.Chemscore.Hbonds>
donor molecule, donor type, donor heavy atom, donor atom, acceptor molecule, acceptor atom, score
      L1  H     3    19       P1  8028  0.87
      L1  H    10    24       P1  8028  1.00
      P1  H  7989  7998       L1    18  1.00

> <Gold.PLP.Chemscore.Internal.Correction>
0.0273

> <Gold.Rescore>
     Score         DG    S(hbond)    S(metal)    S(lipo)     H(rot)  DE(clash)    DE(int)     intcor
     20.47     -21.89       2.63        0.00      87.11       1.00       0.40       1.02       ----

> <Gold.Chemscore.Fitness>
20.4737

> <Gold.Chemscore.DG>
-21.8851

> <Gold.Chemscore.ZeroCoef>
-5.4800

> <Gold.Chemscore.Hbond>
2.6267

> <Gold.Chemscore.Metal>
0.0000

> <Gold.Chemscore.Lipo>
87.1092

> <Gold.Chemscore.Internal_Hbond>
0.0000

> <Gold.Chemscore.DEClash>
0.3955

> <Gold.Chemscore.DEInternal>
1.0158

> <Gold.Chemscore.Rot>
1.0000

> <Gold.Chemscore.Internal.Correction>
   9.000000E+99

> <Gold.Chemscore.Hbonds>
donor molecule, donor type, donor heavy atom, donor atom, acceptor molecule, acceptor atom, score
      L1  H     3    19       P1  8028  0.80
      L1  H    10    24       P1  8028  0.98
      P1  H  7989  7998       L1    18  0.96

> <Gold.Chemscore.Hbond.Weighted>
-8.7733

> <Gold.Chemscore.Metal.Weighted>
-0.0000

> <Gold.Chemscore.Lipo.Weighted>
-10.1918

> <Gold.Chemscore.Internal_Hbond.Weighted>
0.0000

> <Gold.Chemscore.DEClash.Weighted>
0.3955

> <Gold.Chemscore.DEInternal.Weighted>
1.0158

> <Gold.Chemscore.Rot.Weighted>
2.5600

> <Gold.Chemscore.Internal.Correction.Weighted>
   9.000000E+99

> <Gold.Protein.RotatedTorsions>
[ 6907 6896 6895 6894 ] final   31.84 input  -60.11 | X-H torsion
[ 7974 7965 7964 7962 ] final   30.19 input  175.53 | X-H torsion
[ 8008 7997 7996 7995 ] final   10.74 input   59.86 | X-H torsion
[ 10167 10162 10161 10158 ] final  110.15 input  -65.29 | X-H torsion
[ 10718 10713 10712 10709 ] final   81.51 input   66.30 | X-H torsion
[ 10763 10752 10751 10750 ] final   20.87 input  -60.55 | X-H torsion
[ 11005 11000 10999 10996 ] final   -6.00 input  -57.11 | X-H torsion

> <Gold.Protein.ActiveResidues>
 VAL166  LYS551  ARG553  GLY616  TRP617  ASP618  TYR619  PRO620  LYS621  CYS622 
 ASP623  PHE694  ASN695  SER759  ASP760  ASP761  ALA762  ILE779  LEU786  VAL792 
 PHE793  MET794  SER795  GLU796  ALA797  LYS798  CYS799  TRP800  GLU811  SER814 

> <Gold.Protein.RotatedAtoms>
  152.0660  134.9564  160.0574 H   0  0  0  0  0  0  0  0  0  0  0  0  # atno 6907 bound_to 6896
  152.0908  133.4195  159.4551 H   0  0  0  0  0  0  0  0  0  0  0  0  # atno 6908 bound_to 6896
  150.6837  134.2793  159.4664 H   0  0  0  0  0  0  0  0  0  0  0  0  # atno 6909 bound_to 6896
  146.1626  139.6821  142.9023 H   0  0  0  0  0  0  0  0  0  0  0  0  # atno 7974 bound_to 7965
  154.7975  140.2846  155.5946 H   0  0  0  0  0  0  0  0  0  0  0  0  # atno 8008 bound_to 7997
  156.2973  140.2593  156.2765 H   0  0  0  0  0  0  0  0  0  0  0  0  # atno 8009 bound_to 7997
  154.9597  140.0378  157.2173 H   0  0  0  0  0  0  0  0  0  0  0  0  # atno 8010 bound_to 7997
  139.6710  144.7125  151.1687 H   0  0  0  0  0  0  0  0  0  0  0  0  # atno 10167 bound_to 10162
  157.6834  131.0007  150.2237 H   0  0  0  0  0  0  0  0  0  0  0  0  # atno 10718 bound_to 10713
  153.1042  135.6680  153.9617 H   0  0  0  0  0  0  0  0  0  0  0  0  # atno 10763 bound_to 10752
  153.9179  135.3018  155.3449 H   0  0  0  0  0  0  0  0  0  0  0  0  # atno 10764 bound_to 10752
  154.7463  135.5056  153.9285 H   0  0  0  0  0  0  0  0  0  0  0  0  # atno 10765 bound_to 10752
  140.6973  133.9020  155.8659 H   0  0  0  0  0  0  0  0  0  0  0  0  # atno 11005 bound_to 11000
  145.4548  141.0430  143.2784 LP  0  0  0  0  0  0  0  0  0  0  0  0  # atno 17320 bound_to 7965
  144.8048  139.6071  143.7055 LP  0  0  0  0  0  0  0  0  0  0  0  0  # atno 17321 bound_to 7965
  140.7618  143.5844  150.8862 LP  0  0  0  0  0  0  0  0  0  0  0  0  # atno 17342 bound_to 10162
  139.9509  143.6273  152.3029 LP  0  0  0  0  0  0  0  0  0  0  0  0  # atno 17343 bound_to 10162
  156.2883  130.3742  149.7866 LP  0  0  0  0  0  0  0  0  0  0  0  0  # atno 17370 bound_to 10713
  156.5533  130.8351  151.3306 LP  0  0  0  0  0  0  0  0  0  0  0  0  # atno 17371 bound_to 10713
  141.0193  134.0912  157.4138 LP  0  0  0  0  0  0  0  0  0  0  0  0  # atno 17394 bound_to 11000
  139.8906  135.0113  156.6748 LP  0  0  0  0  0  0  0  0  0  0  0  0  # atno 17395 bound_to 11000

$$$$
