AV-unprocessed.smi:765|AV-procd|sdf|3645|dock6
  -GOLD-   22720 1 53D 1   1.00000     0.00000
 Structure written by MMmdl.
 39 40  0  0  0  0  0  0  0  0  1 V2000
  149.2764  141.7092  152.8599 C   0  0  0  0  0  0  0  0  0  0  0  0
  150.1624  140.8314  153.7550 C   0  0  2  0  0  0  0  0  0  0  0  0
  149.3906  139.6091  154.2837 C   0  0  0  0  0  0  0  0  0  0  0  0
  150.2681  138.7379  155.1935 C   0  0  0  0  0  0  0  0  0  0  0  0
  150.8550  139.5654  156.3484 C   0  0  0  0  0  0  0  0  0  0  0  0
  151.6626  140.7825  155.8461 C   0  0  2  0  0  0  0  0  0  0  0  0
  152.8521  140.3088  155.1097 C   0  0  0  0  0  0  0  0  0  0  0  0
  153.7843  139.9385  154.5323 N   0  0  0  0  0  0  0  0  0  0  0  0
  152.0544  141.5561  157.0261 N   0  0  0  0  0  0  0  0  0  0  0  0
  152.8723  141.1622  158.0173 C   0  0  0  0  0  0  0  0  0  0  0  0
  153.4338  140.0666  158.0355 O   0  0  0  0  0  0  0  0  0  0  0  0
  153.0720  142.1658  159.1636 C   0  0  2  0  0  0  0  0  0  0  0  0
  152.8497  141.5421  160.5540 C   0  0  0  0  0  0  0  0  0  0  0  0
  152.2164  143.3301  158.9725 N   0  0  0  0  0  0  0  0  0  0  0  0
  152.5622  144.6678  158.9579 C   0  0  0  0  0  0  0  0  0  0  0  0
  151.4204  145.3834  158.7388 C   0  0  0  0  0  0  0  0  0  0  0  0
  150.4132  144.3851  158.6262 C   0  0  0  0  0  0  0  0  0  0  0  0
  150.8920  143.1594  158.7645 N   0  0  0  0  0  0  0  0  0  0  0  0
  150.7555  141.6398  154.9274 C   0  0  0  0  0  0  0  0  0  0  0  0
  148.4254  142.1089  153.4123 H   0  0  0  0  0  0  0  0  0  0  0  0
  148.8874  141.1408  152.0147 H   0  0  0  0  0  0  0  0  0  0  0  0
  149.8382  142.5527  152.4578 H   0  0  0  0  0  0  0  0  0  0  0  0
  150.9864  140.4692  153.1389 H   0  0  0  0  0  0  0  0  0  0  0  0
  148.5109  139.9396  154.8376 H   0  0  0  0  0  0  0  0  0  0  0  0
  149.0225  139.0100  153.4501 H   0  0  0  0  0  0  0  0  0  0  0  0
  149.6806  137.9104  155.5920 H   0  0  0  0  0  0  0  0  0  0  0  0
  151.0726  138.2894  154.6097 H   0  0  0  0  0  0  0  0  0  0  0  0
  150.0397  139.9009  156.9916 H   0  0  0  0  0  0  0  0  0  0  0  0
  151.4875  138.9272  156.9672 H   0  0  0  0  0  0  0  0  0  0  0  0
  151.6423  142.4741  157.1100 H   0  0  0  0  0  0  0  0  0  0  0  0
  154.1115  142.4971  159.1185 H   0  0  0  0  0  0  0  0  0  0  0  0
  153.4923  140.6742  160.7061 H   0  0  0  0  0  0  0  0  0  0  0  0
  151.8167  141.2206  160.6932 H   0  0  0  0  0  0  0  0  0  0  0  0
  153.0796  142.2600  161.3417 H   0  0  0  0  0  0  0  0  0  0  0  0
  153.5813  144.9948  159.1044 H   0  0  0  0  0  0  0  0  0  0  0  0
  151.3203  146.4564  158.6679 H   0  0  0  0  0  0  0  0  0  0  0  0
  149.3559  144.5138  158.4481 H   0  0  0  0  0  0  0  0  0  0  0  0
  151.3177  142.4842  154.5275 H   0  0  0  0  0  0  0  0  0  0  0  0
  149.9420  142.0692  155.5148 H   0  0  0  0  0  0  0  0  0  0  0  0
  1  2  1  0  0  0  0
  1 20  1  0  0  0  0
  1 21  1  0  0  0  0
  1 22  1  0  0  0  0
  2 19  1  0  0  0  0
  2  3  1  0  0  0  0
  2 23  1  0  0  0  0
  3  4  1  0  0  0  0
  3 24  1  0  0  0  0
  3 25  1  0  0  0  0
  4  5  1  0  0  0  0
  4 26  1  0  0  0  0
  4 27  1  0  0  0  0
  5  6  1  0  0  0  0
  5 28  1  0  0  0  0
  5 29  1  0  0  0  0
  6  7  1  0  0  0  0
  6  9  1  0  0  0  0
  6 19  1  0  0  0  0
  7  8  3  0  0  0  0
  9 10  1  0  0  0  0
  9 30  1  0  0  0  0
 10 11  2  0  0  0  0
 10 12  1  0  0  0  0
 12 13  1  0  0  0  0
 12 14  1  0  0  0  0
 12 31  1  0  0  0  0
 13 32  1  0  0  0  0
 13 33  1  0  0  0  0
 13 34  1  0  0  0  0
 14 18  1  0  0  0  0
 14 15  1  0  0  0  0
 15 16  2  0  0  0  0
 15 35  1  0  0  0  0
 16 17  1  0  0  0  0
 16 36  1  0  0  0  0
 17 18  2  0  0  0  0
 17 37  1  0  0  0  0
 19 38  1  0  0  0  0
 19 39  1  0  0  0  0
M  END
> <s_m_source_file>
AV-unprocessed.smi

> <i_m_source_file_index>
765

> <i_lp_mmshare_version>
43012

> <i_f3d_flags>
0

> <s_epik_input>
W0NIM11bQ0BASF0oW0NIMl0xKVtDSDJdW0NIMl1bQ0gyXVtDQEBdMShDI04pW05IXUMoPU8pW0NASF0oW0NIM10pbjJbY0hdW2NIXVtjSF1uMg==

> <s_epik_cmdline>
J2VwaWtfcHl0aG9uJywgJy1waCcsICc3LjAnLCAnLXRuJywgJzgnLCAnLW1hJywgJzIwMCcsICctbWV0YWxfYmluZGluZycsICctaW1hZScsICc8aW5maWxlLm1hZT4nLCAnLW9tYWUnLCAnPG91dGZpbGUubWFlPic=

> <r_lp_tautomer_probability>
1

> <r_epik_Ionization_Penalty>
2.71142e-05

> <r_epik_Ionization_Penalty_Charging>
0

> <r_epik_Ionization_Penalty_Neutral>
2.71142e-05

> <r_epik_State_Penalty>
-0

> <r_epik_Charging_Adjusted_Penalty>
0

> <i_epik_Tot_Q>
0

> <i_epik_Tot_abs_Q>
0

> <r_epik_Metal_State_Penalty>
-0

> <b_epik_Metal_Only>
0

> <s_lp_Force_Field>
OPLS_2005

> <r_lp_Energy>
10.9875

> <b_lp_Chiralities_Consistent>
1

> <s_lp_Variant>
AV-unprocessed.smi:765-3

> <Gold.Version>
5.8.1

> <Gold.Id.Protein>
6NUR|6NUR_protein|mol2

> <Gold.PLP.Fitness>
46.0640

> <Gold.PLP.PLP>
-39.6662

> <Gold.PLP.part.hbond>
-3.0000

> <Gold.PLP.part.metal>
0.0000

> <Gold.PLP.part.buried>
-1.3752

> <Gold.PLP.part.nonpolar>
-32.9383

> <Gold.PLP.part.repulsive>
0.1515

> <Gold.PLP.ligand.clash>
0.0000

> <Gold.PLP.ligand.torsion>
0.3409

> <Gold.PLP.Chemscore.Hbond>
1.6450

> <Gold.PLP.Chemscore.CHOScore>
0.6930

> <Gold.PLP.Chemscore.Metal>
0.0000

> <Gold.Chemscore.Hbonds>
donor molecule, donor type, donor heavy atom, donor atom, acceptor molecule, acceptor atom, score
      P1  H  7997  8009       L1    11  0.74
      P1  H  7997  8010       L1     8  0.72
      L1  C    17    37       P1  8028  0.03
      L1  C    17    37       P1  8029  1.00

> <Gold.PLP.Chemscore.Internal.Correction>
0.0656

> <Gold.Rescore>
     Score         DG    S(hbond)    S(metal)    S(lipo)     H(rot)  DE(clash)    DE(int)     intcor
     14.57     -17.23       1.46        0.00      89.82       1.42       0.20       2.46       ----

> <Gold.Chemscore.Fitness>
14.5668

> <Gold.Chemscore.DG>
-17.2276

> <Gold.Chemscore.ZeroCoef>
-5.4800

> <Gold.Chemscore.Hbond>
1.4580

> <Gold.Chemscore.Metal>
0.0000

> <Gold.Chemscore.Lipo>
89.8181

> <Gold.Chemscore.Internal_Hbond>
0.0000

> <Gold.Chemscore.DEClash>
0.2038

> <Gold.Chemscore.DEInternal>
2.4570

> <Gold.Chemscore.Rot>
1.4183

> <Gold.Chemscore.Internal.Correction>
   9.000000E+99

> <Gold.Chemscore.Hbonds>
donor molecule, donor type, donor heavy atom, donor atom, acceptor molecule, acceptor atom, score
      P1  H  7997  8009       L1    11  0.65
      P1  H  7997  8010       L1     8  0.14

> <Gold.Chemscore.Hbond.Weighted>
-4.8698

> <Gold.Chemscore.Metal.Weighted>
-0.0000

> <Gold.Chemscore.Lipo.Weighted>
-10.5087

> <Gold.Chemscore.Internal_Hbond.Weighted>
0.0000

> <Gold.Chemscore.DEClash.Weighted>
0.2038

> <Gold.Chemscore.DEInternal.Weighted>
2.4570

> <Gold.Chemscore.Rot.Weighted>
3.6309

> <Gold.Chemscore.Internal.Correction.Weighted>
   9.000000E+99

> <Gold.Protein.RotatedTorsions>
[ 6907 6896 6895 6894 ] final   85.80 input  -60.11 | X-H torsion
[ 7974 7965 7964 7962 ] final  151.61 input  175.53 | X-H torsion
[ 8008 7997 7996 7995 ] final  133.48 input   59.86 | X-H torsion
[ 10167 10162 10161 10158 ] final  -33.41 input  -65.29 | X-H torsion
[ 10718 10713 10712 10709 ] final -171.83 input   66.30 | X-H torsion
[ 10763 10752 10751 10750 ] final -129.77 input  -60.55 | X-H torsion
[ 11005 11000 10999 10996 ] final  169.25 input  -57.11 | X-H torsion

> <Gold.Protein.ActiveResidues>
 VAL166  LYS551  ARG553  GLY616  TRP617  ASP618  TYR619  PRO620  LYS621  CYS622 
 ASP623  PHE694  ASN695  SER759  ASP760  ASP761  ALA762  ILE779  LEU786  VAL792 
 PHE793  MET794  SER795  GLU796  ALA797  LYS798  CYS799  TRP800  GLU811  SER814 

> <Gold.Protein.RotatedAtoms>
  152.5382  134.2530  159.8905 H   0  0  0  0  0  0  0  0  0  0  0  0  # atno 6907 bound_to 6896
  151.2493  133.4352  159.2618 H   0  0  0  0  0  0  0  0  0  0  0  0  # atno 6908 bound_to 6896
  151.0554  134.9715  159.8289 H   0  0  0  0  0  0  0  0  0  0  0  0  # atno 6909 bound_to 6896
  144.8280  139.6561  143.6071 H   0  0  0  0  0  0  0  0  0  0  0  0  # atno 7974 bound_to 7965
  156.2992  140.2520  156.3259 H   0  0  0  0  0  0  0  0  0  0  0  0  # atno 8008 bound_to 7997
  154.9190  140.0401  157.2007 H   0  0  0  0  0  0  0  0  0  0  0  0  # atno 8009 bound_to 7997
  154.8329  140.2878  155.5714 H   0  0  0  0  0  0  0  0  0  0  0  0  # atno 8010 bound_to 7997
  140.7205  143.3623  151.1939 H   0  0  0  0  0  0  0  0  0  0  0  0  # atno 10167 bound_to 10162
  156.7467  130.9363  151.3113 H   0  0  0  0  0  0  0  0  0  0  0  0  # atno 10718 bound_to 10713
  154.8757  135.3884  154.3975 H   0  0  0  0  0  0  0  0  0  0  0  0  # atno 10763 bound_to 10752
  153.4703  135.7030  153.6002 H   0  0  0  0  0  0  0  0  0  0  0  0  # atno 10764 bound_to 10752
  153.4463  135.3844  155.2225 H   0  0  0  0  0  0  0  0  0  0  0  0  # atno 10765 bound_to 10752
  140.2958  134.7636  157.3876 H   0  0  0  0  0  0  0  0  0  0  0  0  # atno 11005 bound_to 11000
  146.2584  139.6355  142.9379 LP  0  0  0  0  0  0  0  0  0  0  0  0  # atno 17320 bound_to 7965
  145.4958  141.0438  143.2568 LP  0  0  0  0  0  0  0  0  0  0  0  0  # atno 17321 bound_to 7965
  139.7177  143.9274  152.2973 LP  0  0  0  0  0  0  0  0  0  0  0  0  # atno 17342 bound_to 10162
  139.9020  144.6906  150.8655 LP  0  0  0  0  0  0  0  0  0  0  0  0  # atno 17343 bound_to 10162
  157.6795  130.9126  150.0232 LP  0  0  0  0  0  0  0  0  0  0  0  0  # atno 17370 bound_to 10713
  156.1428  130.3642  149.9556 LP  0  0  0  0  0  0  0  0  0  0  0  0  # atno 17371 bound_to 10713
  140.1154  134.5290  155.8230 LP  0  0  0  0  0  0  0  0  0  0  0  0  # atno 17394 bound_to 11000
  141.2137  133.6738  156.6766 LP  0  0  0  0  0  0  0  0  0  0  0  0  # atno 17395 bound_to 11000

$$$$
