AV-unprocessed.smi:1752|AV-procd|sdf|7058|dock10
  -GOLD-   22720 8273D 1   1.00000     0.00000
 Structure written by MMmdl.
 43 44  0  0  0  0  0  0  0  0  2 V2000
  149.7638  131.4213  154.0932 C   0  0  0  0  0  0  0  0  0  0  0  0
  148.3764  130.7590  154.1309 C   0  0  2  0  0  0  0  0  0  0  0  0
  148.4293  129.2179  154.1365 C   0  0  0  0  0  0  0  0  0  0  0  0
  148.2128  128.6414  152.8216 N   0  0  0  0  0  0  0  0  0  0  0  0
  149.0485  127.8126  152.1029 C   0  0  0  0  0  0  0  0  0  0  0  0
  148.4224  127.5281  150.9233 C   0  0  0  0  0  0  0  0  0  0  0  0
  147.1913  128.2358  151.0151 C   0  0  0  0  0  0  0  0  0  0  0  0
  147.0676  128.8992  152.1534 N   0  0  0  0  0  0  0  0  0  0  0  0
  147.5985  131.2039  152.9773 N   0  0  0  0  0  0  0  0  0  0  0  0
  147.2121  132.4647  152.7124 C   0  0  0  0  0  0  0  0  0  0  0  0
  147.5176  133.4183  153.4294 O   0  0  0  0  0  0  0  0  0  0  0  0
  146.5140  132.6043  151.5570 N   0  0  0  0  0  0  0  0  0  0  0  0
  145.7422  131.5117  150.9229 C   0  0  0  0  0  0  0  0  0  0  0  0
  144.4887  131.9854  150.1499 C   0  0  0  0  0  0  0  0  0  0  0  0
  143.4623  132.7801  150.9863 C   0  0  0  0  0  0  0  0  0  0  0  0
  144.0472  133.7835  151.9165 N   0  3  2  0  0  0  0  0  0  0  0  0
  142.9987  134.5494  152.6258 C   0  0  0  0  0  0  0  0  0  0  0  0
  145.0905  134.6685  151.3314 C   0  0  0  0  0  0  0  0  0  0  0  0
  146.3852  133.9267  150.9209 C   0  0  0  0  0  0  0  0  0  0  0  0
  150.3563  131.1615  154.9708 H   0  0  0  0  0  0  0  0  0  0  0  0
  149.6780  132.5083  154.0731 H   0  0  0  0  0  0  0  0  0  0  0  0
  150.3256  131.1147  153.2102 H   0  0  0  0  0  0  0  0  0  0  0  0
  147.8893  131.0762  155.0545 H   0  0  0  0  0  0  0  0  0  0  0  0
  149.4011  128.8776  154.4968 H   0  0  0  0  0  0  0  0  0  0  0  0
  147.6846  128.8153  154.8259 H   0  0  0  0  0  0  0  0  0  0  0  0
  150.0090  127.5005  152.4855 H   0  0  0  0  0  0  0  0  0  0  0  0
  148.7879  126.9092  150.1172 H   0  0  0  0  0  0  0  0  0  0  0  0
  146.3895  128.2865  150.2932 H   0  0  0  0  0  0  0  0  0  0  0  0
  147.3295  130.4876  152.3187 H   0  0  0  0  0  0  0  0  0  0  0  0
  146.4047  130.9676  150.2486 H   0  0  0  0  0  0  0  0  0  0  0  0
  145.4013  130.7932  151.6704 H   0  0  0  0  0  0  0  0  0  0  0  0
  144.7725  132.5630  149.2707 H   0  0  0  0  0  0  0  0  0  0  0  0
  143.9864  131.1094  149.7382 H   0  0  0  0  0  0  0  0  0  0  0  0
  142.7585  133.2719  150.3132 H   0  0  0  0  0  0  0  0  0  0  0  0
  142.8789  132.0781  151.5837 H   0  0  0  0  0  0  0  0  0  0  0  0
  142.4465  135.1873  151.9342 H   0  0  0  0  0  0  0  0  0  0  0  0
  143.4356  135.1810  153.4001 H   0  0  0  0  0  0  0  0  0  0  0  0
  142.2905  133.8767  153.1111 H   0  0  0  0  0  0  0  0  0  0  0  0
  144.6828  135.2274  150.4879 H   0  0  0  0  0  0  0  0  0  0  0  0
  145.3617  135.4085  152.0857 H   0  0  0  0  0  0  0  0  0  0  0  0
  147.2486  134.5576  151.1396 H   0  0  0  0  0  0  0  0  0  0  0  0
  146.4325  133.8127  149.8382 H   0  0  0  0  0  0  0  0  0  0  0  0
  144.5241  133.2499  152.6294 H   0  0  0  0  0  0  0  0  0  0  0  0
  1  2  1  0  0  0  0
  1 20  1  0  0  0  0
  1 21  1  0  0  0  0
  1 22  1  0  0  0  0
  2  3  1  0  0  0  0
  2  9  1  0  0  0  0
  2 23  1  0  0  0  0
  3  4  1  0  0  0  0
  3 24  1  0  0  0  0
  3 25  1  0  0  0  0
  4  8  1  0  0  0  0
  4  5  1  0  0  0  0
  5  6  2  0  0  0  0
  5 26  1  0  0  0  0
  6  7  1  0  0  0  0
  6 27  1  0  0  0  0
  7  8  2  0  0  0  0
  7 28  1  0  0  0  0
  9 10  1  0  0  0  0
  9 29  1  0  0  0  0
 10 11  2  0  0  0  0
 10 12  1  0  0  0  0
 12 19  1  0  0  0  0
 12 13  1  0  0  0  0
 13 14  1  0  0  0  0
 13 30  1  0  0  0  0
 13 31  1  0  0  0  0
 14 15  1  0  0  0  0
 14 32  1  0  0  0  0
 14 33  1  0  0  0  0
 15 16  1  0  0  0  0
 15 34  1  0  0  0  0
 15 35  1  0  0  0  0
 16 17  1  0  0  0  0
 16 18  1  0  0  0  0
 16 43  1  0  0  0  0
 17 36  1  0  0  0  0
 17 37  1  0  0  0  0
 17 38  1  0  0  0  0
 18 19  1  0  0  0  0
 18 39  1  0  0  0  0
 18 40  1  0  0  0  0
 19 41  1  0  0  0  0
 19 42  1  0  0  0  0
M  CHG  1  16   1
M  END
> <s_m_source_file>
AV-unprocessed.smi

> <i_m_source_file_index>
1752

> <i_lp_mmshare_version>
43012

> <i_f3d_flags>
0

> <s_epik_input>
bjFbY0hdW2NIXVtjSF1uMVtDSDJdW0NAQEhdKFtDSDNdKVtOSF1DKD1PKU4yW0NIMl1bQ0gyXVtDSDJdTihbQ0gzXSlbQ0gyXVtDSDJdMg==

> <s_epik_cmdline>
J2VwaWtfcHl0aG9uJywgJy1waCcsICc3LjAnLCAnLXRuJywgJzgnLCAnLW1hJywgJzIwMCcsICctbWV0YWxfYmluZGluZycsICctaW1hZScsICc8aW5maWxlLm1hZT4nLCAnLW9tYWUnLCAnPG91dGZpbGUubWFlPic=

> <r_lp_tautomer_probability>
1

> <r_epik_Ionization_Penalty>
0.00208423

> <r_epik_Ionization_Penalty_Charging>
0.00203643

> <r_epik_Ionization_Penalty_Neutral>
4.77939e-05

> <r_epik_State_Penalty>
0.00139278

> <r_epik_Charging_Adjusted_Penalty>
0.00342922

> <i_epik_Tot_Q>
1

> <i_epik_Tot_abs_Q>
1

> <r_epik_Metal_State_Penalty>
-0

> <b_epik_Metal_Only>
0

> <s_lp_Force_Field>
OPLS_2005

> <r_lp_Energy>
46.8375

> <b_lp_Chiralities_Consistent>
1

> <s_lp_Variant>
AV-unprocessed.smi:1752-1

> <Gold.Version>
5.8.1

> <Gold.Id.Protein>
6NUR|6NUR_protein|mol2

> <Gold.PLP.Fitness>
40.2376

> <Gold.PLP.PLP>
-38.6309

> <Gold.PLP.part.hbond>
-0.8402

> <Gold.PLP.part.metal>
0.0000

> <Gold.PLP.part.buried>
-5.9610

> <Gold.PLP.part.nonpolar>
-31.5374

> <Gold.PLP.part.repulsive>
0.2347

> <Gold.PLP.ligand.clash>
0.0000

> <Gold.PLP.ligand.torsion>
0.7416

> <Gold.PLP.Chemscore.Hbond>
0.0000

> <Gold.PLP.Chemscore.CHOScore>
0.9972

> <Gold.PLP.Chemscore.Metal>
0.0000

> <Gold.Chemscore.Hbonds>
donor molecule, donor type, donor heavy atom, donor atom, acceptor molecule, acceptor atom, score
      L1  C     5    26       P1 10737  1.00

> <Gold.PLP.Chemscore.Internal.Correction>
0.0982

> <Gold.Rescore>
     Score         DG    S(hbond)    S(metal)    S(lipo)     H(rot)  DE(clash)    DE(int)     intcor
     11.46     -12.45       0.00        0.00      90.44       1.41       0.09       0.90       ----

> <Gold.Chemscore.Fitness>
11.4570

> <Gold.Chemscore.DG>
-12.4452

> <Gold.Chemscore.ZeroCoef>
-5.4800

> <Gold.Chemscore.Hbond>
0.0000

> <Gold.Chemscore.Metal>
0.0000

> <Gold.Chemscore.Lipo>
90.4371

> <Gold.Chemscore.Internal_Hbond>
0.0000

> <Gold.Chemscore.DEClash>
0.0931

> <Gold.Chemscore.DEInternal>
0.8951

> <Gold.Chemscore.Rot>
1.4125

> <Gold.Chemscore.Internal.Correction>
   9.000000E+99

> <Gold.Chemscore.Hbond.Weighted>
-0.0000

> <Gold.Chemscore.Metal.Weighted>
-0.0000

> <Gold.Chemscore.Lipo.Weighted>
-10.5811

> <Gold.Chemscore.Internal_Hbond.Weighted>
0.0000

> <Gold.Chemscore.DEClash.Weighted>
0.0931

> <Gold.Chemscore.DEInternal.Weighted>
0.8951

> <Gold.Chemscore.Rot.Weighted>
3.6160

> <Gold.Chemscore.Internal.Correction.Weighted>
   9.000000E+99

> <Gold.Protein.RotatedTorsions>
[ 6907 6896 6895 6894 ] final   35.20 input  -60.11 | X-H torsion
[ 7974 7965 7964 7962 ] final   22.25 input  175.53 | X-H torsion
[ 8008 7997 7996 7995 ] final -163.69 input   59.86 | X-H torsion
[ 10167 10162 10161 10158 ] final  109.98 input  -65.29 | X-H torsion
[ 10718 10713 10712 10709 ] final  -73.57 input   66.30 | X-H torsion
[ 10763 10752 10751 10750 ] final -127.38 input  -60.55 | X-H torsion
[ 11005 11000 10999 10996 ] final  158.24 input  -57.11 | X-H torsion

> <Gold.Protein.ActiveResidues>
 VAL166  LYS551  ARG553  GLY616  TRP617  ASP618  TYR619  PRO620  LYS621  CYS622 
 ASP623  PHE694  ASN695  SER759  ASP760  ASP761  ALA762  ILE779  LEU786  VAL792 
 PHE793  MET794  SER795  GLU796  ALA797  LYS798  CYS799  TRP800  GLU811  SER814 

> <Gold.Protein.RotatedAtoms>
  152.1128  134.9262  160.0565 H   0  0  0  0  0  0  0  0  0  0  0  0  # atno 6907 bound_to 6896
  152.0433  133.3982  159.4354 H   0  0  0  0  0  0  0  0  0  0  0  0  # atno 6908 bound_to 6896
  150.6844  134.3311  159.4871 H   0  0  0  0  0  0  0  0  0  0  0  0  # atno 6909 bound_to 6896
  146.2037  139.7911  142.8742 H   0  0  0  0  0  0  0  0  0  0  0  0  # atno 7974 bound_to 7965
  155.8249  140.0925  157.1827 H   0  0  0  0  0  0  0  0  0  0  0  0  # atno 8008 bound_to 7997
  154.3979  140.1430  156.3604 H   0  0  0  0  0  0  0  0  0  0  0  0  # atno 8009 bound_to 7997
  155.8227  140.3445  155.5527 H   0  0  0  0  0  0  0  0  0  0  0  0  # atno 8010 bound_to 7997
  139.6724  144.7124  151.1663 H   0  0  0  0  0  0  0  0  0  0  0  0  # atno 10167 bound_to 10162
  156.0275  130.4397  150.2763 H   0  0  0  0  0  0  0  0  0  0  0  0  # atno 10718 bound_to 10713
  154.8752  135.3963  154.3585 H   0  0  0  0  0  0  0  0  0  0  0  0  # atno 10763 bound_to 10752
  153.4361  135.7026  153.6204 H   0  0  0  0  0  0  0  0  0  0  0  0  # atno 10764 bound_to 10752
  153.4805  135.3770  155.2409 H   0  0  0  0  0  0  0  0  0  0  0  0  # atno 10765 bound_to 10752
  140.1846  134.8451  157.2842 H   0  0  0  0  0  0  0  0  0  0  0  0  # atno 11005 bound_to 11000
  145.3396  141.0285  143.3400 LP  0  0  0  0  0  0  0  0  0  0  0  0  # atno 17320 bound_to 7965
  144.8741  139.4996  143.6754 LP  0  0  0  0  0  0  0  0  0  0  0  0  # atno 17321 bound_to 7965
  140.7623  143.5823  150.8882 LP  0  0  0  0  0  0  0  0  0  0  0  0  # atno 17342 bound_to 10162
  139.9490  143.6294  152.3034 LP  0  0  0  0  0  0  0  0  0  0  0  0  # atno 17343 bound_to 10162
  157.0866  131.0158  151.3137 LP  0  0  0  0  0  0  0  0  0  0  0  0  # atno 17370 bound_to 10713
  157.4886  130.7808  149.7485 LP  0  0  0  0  0  0  0  0  0  0  0  0  # atno 17371 bound_to 10713
  140.2228  134.4002  155.7558 LP  0  0  0  0  0  0  0  0  0  0  0  0  # atno 17394 bound_to 11000
  141.2224  133.7175  156.8518 LP  0  0  0  0  0  0  0  0  0  0  0  0  # atno 17395 bound_to 11000

$$$$
