AV-unprocessed.smi:1976|AV-procd|sdf|7983|dock10
  -GOLD-   2272010163D 1   1.00000     0.00000
 Structure written by MMmdl.
 45 47  0  0  0  0  0  0  0  0  2 V2000
  149.8268  140.4890  154.3961 O   0  0  0  0  0  0  0  0  0  0  0  0
  148.9261  140.4390  155.2349 C   0  0  0  0  0  0  0  0  0  0  0  0
  148.8081  141.5038  156.3351 C   0  0  0  0  0  0  0  0  0  0  0  0
  149.8690  141.4166  157.3527 N   0  0  0  0  0  0  0  0  0  0  0  0
  150.4883  142.6218  157.7379 C   0  0  0  0  0  0  0  0  0  0  0  0
  151.4623  142.6816  158.6661 C   0  0  0  0  0  0  0  0  0  0  0  0
  152.1540  143.9903  159.0157 C   0  0  0  0  0  0  0  0  0  0  0  0
  151.2821  144.8842  159.4829 F   0  0  0  0  0  0  0  0  0  0  0  0
  153.0989  143.8046  159.9384 F   0  0  0  0  0  0  0  0  0  0  0  0
  152.7310  144.5020  157.9292 F   0  0  0  0  0  0  0  0  0  0  0  0
  151.8801  141.4196  159.2448 C   0  0  0  0  0  0  0  0  0  0  0  0
  151.3080  140.2563  158.8773 C   0  0  0  0  0  0  0  0  0  0  0  0
  150.2372  140.2101  157.8790 C   0  0  0  0  0  0  0  0  0  0  0  0
  149.7052  139.1541  157.5353 O   0  0  0  0  0  0  0  0  0  0  0  0
  147.9878  139.4810  155.2423 N   0  0  0  0  0  0  0  0  0  0  0  0
  147.9215  138.3785  154.2893 C   0  0  2  0  0  0  0  0  0  0  0  0
  146.5377  138.1950  153.6356 C   0  0  0  0  0  0  0  0  0  0  0  0
  146.3407  136.6707  153.5179 C   0  0  0  0  0  0  0  0  0  0  0  0
  147.6056  136.0763  153.9912 N   0  3  2  0  0  0  0  0  0  0  0  0
  147.5491  134.6914  154.5079 C   0  0  0  0  0  0  0  0  0  0  0  0
  148.9721  134.2277  154.8797 C   0  0  0  0  0  0  0  0  0  0  0  0
  149.6661  135.2177  155.8380 C   0  0  0  0  0  0  0  0  0  0  0  0
  149.6140  136.6560  155.2863 C   0  0  0  0  0  0  0  0  0  0  0  0
  148.1572  137.0291  154.9662 C   0  0  1  0  0  0  0  0  0  0  0  0
  148.8148  142.4857  155.8603 H   0  0  0  0  0  0  0  0  0  0  0  0
  147.8276  141.4243  156.8088 H   0  0  0  0  0  0  0  0  0  0  0  0
  150.1264  143.4984  157.2205 H   0  0  0  0  0  0  0  0  0  0  0  0
  152.6634  141.4065  159.9882 H   0  0  0  0  0  0  0  0  0  0  0  0
  151.6444  139.3351  159.3301 H   0  0  0  0  0  0  0  0  0  0  0  0
  147.2789  139.5137  155.9609 H   0  0  0  0  0  0  0  0  0  0  0  0
  148.6720  138.5210  153.5087 H   0  0  0  0  0  0  0  0  0  0  0  0
  145.7462  138.6217  154.2536 H   0  0  0  0  0  0  0  0  0  0  0  0
  146.4952  138.6872  152.6632 H   0  0  0  0  0  0  0  0  0  0  0  0
  145.5144  136.3505  154.1547 H   0  0  0  0  0  0  0  0  0  0  0  0
  146.1231  136.3564  152.4969 H   0  0  0  0  0  0  0  0  0  0  0  0
  146.8920  134.6453  155.3778 H   0  0  0  0  0  0  0  0  0  0  0  0
  147.1256  134.0342  153.7475 H   0  0  0  0  0  0  0  0  0  0  0  0
  148.9359  133.2349  155.3292 H   0  0  0  0  0  0  0  0  0  0  0  0
  149.5679  134.1314  153.9710 H   0  0  0  0  0  0  0  0  0  0  0  0
  149.1734  135.1850  156.8106 H   0  0  0  0  0  0  0  0  0  0  0  0
  150.7006  134.9159  156.0059 H   0  0  0  0  0  0  0  0  0  0  0  0
  150.0329  137.3523  156.0135 H   0  0  0  0  0  0  0  0  0  0  0  0
  150.2290  136.7311  154.3884 H   0  0  0  0  0  0  0  0  0  0  0  0
  147.5593  136.9760  155.8793 H   0  0  0  0  0  0  0  0  0  0  0  0
  148.2367  136.0781  153.2026 H   0  0  0  0  0  0  0  0  0  0  0  0
  1  2  2  0  0  0  0
  2  3  1  0  0  0  0
  2 15  1  0  0  0  0
  3  4  1  0  0  0  0
  3 25  1  0  0  0  0
  3 26  1  0  0  0  0
  4 13  1  0  0  0  0
  4  5  1  0  0  0  0
  5  6  2  0  0  0  0
  5 27  1  0  0  0  0
  6  7  1  0  0  0  0
  6 11  1  0  0  0  0
  7  8  1  0  0  0  0
  7  9  1  0  0  0  0
  7 10  1  0  0  0  0
 11 12  2  0  0  0  0
 11 28  1  0  0  0  0
 12 13  1  0  0  0  0
 12 29  1  0  0  0  0
 13 14  2  0  0  0  0
 15 16  1  0  0  0  0
 15 30  1  0  0  0  0
 16 24  1  0  0  0  0
 16 17  1  0  0  0  0
 16 31  1  0  0  0  0
 17 18  1  0  0  0  0
 17 32  1  0  0  0  0
 17 33  1  0  0  0  0
 18 19  1  0  0  0  0
 18 34  1  0  0  0  0
 18 35  1  0  0  0  0
 19 24  1  0  0  0  0
 19 20  1  0  0  0  0
 19 45  1  0  0  0  0
 20 21  1  0  0  0  0
 20 36  1  0  0  0  0
 20 37  1  0  0  0  0
 21 22  1  0  0  0  0
 21 38  1  0  0  0  0
 21 39  1  0  0  0  0
 22 23  1  0  0  0  0
 22 40  1  0  0  0  0
 22 41  1  0  0  0  0
 23 24  1  0  0  0  0
 23 42  1  0  0  0  0
 23 43  1  0  0  0  0
 24 44  1  0  0  0  0
M  CHG  1  19   1
M  END
> <s_m_source_file>
AV-unprocessed.smi

> <i_m_source_file_index>
1976

> <i_lp_mmshare_version>
43012

> <i_f3d_flags>
0

> <s_epik_input>
W0NIMl0xW0NIMl1bQ0gyXVtDSDJdW0NASF0oTjEyKVtDQEBIXShbQ0gyXVtDSDJdMilbTkhdQyg9TylbQ0gyXW4zW2NIXWMoQyhGKShGKUYpW2NIXVtjSF1jMz1P

> <s_epik_cmdline>
J2VwaWtfcHl0aG9uJywgJy1waCcsICc3LjAnLCAnLXRuJywgJzgnLCAnLW1hJywgJzIwMCcsICctbWV0YWxfYmluZGluZycsICctaW1hZScsICc8aW5maWxlLm1hZT4nLCAnLW9tYWUnLCAnPG91dGZpbGUubWFlPic=

> <r_lp_tautomer_probability>
1

> <r_epik_Ionization_Penalty>
0.00171506

> <r_epik_Ionization_Penalty_Charging>
0.00171498

> <r_epik_Ionization_Penalty_Neutral>
7.81737e-08

> <r_epik_State_Penalty>
0.00115937

> <r_epik_Charging_Adjusted_Penalty>
0.00287436

> <i_epik_Tot_Q>
1

> <i_epik_Tot_abs_Q>
1

> <r_epik_Metal_State_Penalty>
-0

> <b_epik_Metal_Only>
0

> <s_lp_Force_Field>
OPLS_2005

> <r_lp_Energy>
45.9566

> <b_lp_Chiralities_Consistent>
1

> <s_lp_Variant>
AV-unprocessed.smi:1976-1

> <Gold.Version>
5.8.1

> <Gold.Id.Protein>
6NUR|6NUR_protein|mol2

> <Gold.PLP.Fitness>
46.4713

> <Gold.PLP.PLP>
-35.7998

> <Gold.PLP.part.hbond>
-1.9929

> <Gold.PLP.part.metal>
0.0000

> <Gold.PLP.part.buried>
-5.7902

> <Gold.PLP.part.nonpolar>
-28.6089

> <Gold.PLP.part.repulsive>
0.1150

> <Gold.PLP.ligand.clash>
0.0851

> <Gold.PLP.ligand.torsion>
0.3697

> <Gold.PLP.Chemscore.Hbond>
2.8160

> <Gold.PLP.Chemscore.CHOScore>
1.0000

> <Gold.PLP.Chemscore.Metal>
0.0000

> <Gold.Chemscore.Hbonds>
donor molecule, donor type, donor heavy atom, donor atom, acceptor molecule, acceptor atom, score
      L1  H    19    45       P1  7948  1.95
      P1  H  7989  7998       L1     1  0.78
      L1  C     5    27       P1  8028  1.00

> <Gold.PLP.Chemscore.Internal.Correction>
0.0482

> <Gold.Rescore>
     Score         DG    S(hbond)    S(metal)    S(lipo)     H(rot)  DE(clash)    DE(int)     intcor
     13.50     -15.76       1.70        0.00      73.97       1.58       0.36       1.90       ----

> <Gold.Chemscore.Fitness>
13.4976

> <Gold.Chemscore.DG>
-15.7563

> <Gold.Chemscore.ZeroCoef>
-5.4800

> <Gold.Chemscore.Hbond>
1.6989

> <Gold.Chemscore.Metal>
0.0000

> <Gold.Chemscore.Lipo>
73.9686

> <Gold.Chemscore.Internal_Hbond>
0.0000

> <Gold.Chemscore.DEClash>
0.3555

> <Gold.Chemscore.DEInternal>
1.9032

> <Gold.Chemscore.Rot>
1.5830

> <Gold.Chemscore.Internal.Correction>
   9.000000E+99

> <Gold.Chemscore.Hbonds>
donor molecule, donor type, donor heavy atom, donor atom, acceptor molecule, acceptor atom, score
      L1  H    19    45       P1  7948  0.92
      P1  H  7989  7998       L1     1  0.73

> <Gold.Chemscore.Hbond.Weighted>
-5.6743

> <Gold.Chemscore.Metal.Weighted>
-0.0000

> <Gold.Chemscore.Lipo.Weighted>
-8.6543

> <Gold.Chemscore.Internal_Hbond.Weighted>
0.0000

> <Gold.Chemscore.DEClash.Weighted>
0.3555

> <Gold.Chemscore.DEInternal.Weighted>
1.9032

> <Gold.Chemscore.Rot.Weighted>
4.0524

> <Gold.Chemscore.Internal.Correction.Weighted>
   9.000000E+99

> <Gold.Protein.RotatedTorsions>
[ 6907 6896 6895 6894 ] final -139.62 input  -60.11 | X-H torsion
[ 7974 7965 7964 7962 ] final  -22.51 input  175.53 | X-H torsion
[ 8008 7997 7996 7995 ] final   79.17 input   59.86 | X-H torsion
[ 10167 10162 10161 10158 ] final  -14.94 input  -65.29 | X-H torsion
[ 10718 10713 10712 10709 ] final -166.03 input   66.30 | X-H torsion
[ 10763 10752 10751 10750 ] final  172.44 input  -60.55 | X-H torsion
[ 11005 11000 10999 10996 ] final -177.38 input  -57.11 | X-H torsion

> <Gold.Protein.ActiveResidues>
 VAL166  LYS551  ARG553  GLY616  TRP617  ASP618  TYR619  PRO620  LYS621  CYS622 
 ASP623  PHE694  ASN695  SER759  ASP760  ASP761  ALA762  ILE779  LEU786  VAL792 
 PHE793  MET794  SER795  GLU796  ALA797  LYS798  CYS799  TRP800  GLU811  SER814 

> <Gold.Protein.RotatedAtoms>
  151.0501  133.5631  159.2642 H   0  0  0  0  0  0  0  0  0  0  0  0  # atno 6907 bound_to 6896
  151.2646  135.0664  159.9121 H   0  0  0  0  0  0  0  0  0  0  0  0  # atno 6908 bound_to 6896
  152.5380  134.0241  159.8049 H   0  0  0  0  0  0  0  0  0  0  0  0  # atno 6909 bound_to 6896
  146.1671  140.4489  142.8547 H   0  0  0  0  0  0  0  0  0  0  0  0  # atno 7974 bound_to 7965
  155.8660  140.3451  155.5788 H   0  0  0  0  0  0  0  0  0  0  0  0  # atno 8008 bound_to 7997
  155.7881  140.0868  157.2043 H   0  0  0  0  0  0  0  0  0  0  0  0  # atno 8009 bound_to 7997
  154.4014  140.1488  156.3118 H   0  0  0  0  0  0  0  0  0  0  0  0  # atno 8010 bound_to 7997
  140.7210  143.5270  150.9565 H   0  0  0  0  0  0  0  0  0  0  0  0  # atno 10167 bound_to 10162
  156.6619  130.9049  151.3030 H   0  0  0  0  0  0  0  0  0  0  0  0  # atno 10718 bound_to 10713
  154.4261  135.2759  155.1943 H   0  0  0  0  0  0  0  0  0  0  0  0  # atno 10763 bound_to 10752
  154.3869  135.6075  153.5825 H   0  0  0  0  0  0  0  0  0  0  0  0  # atno 10764 bound_to 10752
  152.9834  135.5894  154.4565 H   0  0  0  0  0  0  0  0  0  0  0  0  # atno 10765 bound_to 10752
  140.4416  134.6426  157.4760 H   0  0  0  0  0  0  0  0  0  0  0  0  # atno 11005 bound_to 11000
  144.8109  140.6383  143.6416 LP  0  0  0  0  0  0  0  0  0  0  0  0  # atno 17320 bound_to 7965
  145.4438  139.1532  143.3956 LP  0  0  0  0  0  0  0  0  0  0  0  0  # atno 17321 bound_to 7965
  139.8989  143.6861  152.3134 LP  0  0  0  0  0  0  0  0  0  0  0  0  # atno 17342 bound_to 10162
  139.7203  144.7604  151.0966 LP  0  0  0  0  0  0  0  0  0  0  0  0  # atno 17343 bound_to 10162
  157.7107  130.9436  150.1078 LP  0  0  0  0  0  0  0  0  0  0  0  0  # atno 17370 bound_to 10713
  156.2004  130.3660  149.8795 LP  0  0  0  0  0  0  0  0  0  0  0  0  # atno 17371 bound_to 10713
  140.0066  134.6754  155.9445 LP  0  0  0  0  0  0  0  0  0  0  0  0  # atno 17394 bound_to 11000
  141.1703  133.6537  156.4628 LP  0  0  0  0  0  0  0  0  0  0  0  0  # atno 17395 bound_to 11000

$$$$
