AV-unprocessed.smi:594|AV-procd|sdf|3015|dock2
  -GOLD-   2262023523D 1   1.00000     0.00000
 Structure written by MMmdl.
 40 41  0  0  0  0  0  0  0  0  3 V2000
  146.8005  142.4764  156.9834 C   0  0  0  0  0  0  0  0  0  0  0  0
  147.3110  141.9706  155.6232 C   0  0  1  0  0  0  0  0  0  0  0  0
  147.2160  143.0655  154.5398 C   0  0  0  0  0  0  0  0  0  0  0  0
  147.6797  142.5488  153.1684 C   0  0  0  0  0  0  0  0  0  0  0  0
  149.1014  141.9722  153.2397 C   0  0  0  0  0  0  0  0  0  0  0  0
  149.2022  140.8755  154.3133 C   0  0  0  0  0  0  0  0  0  0  0  0
  148.7393  141.3753  155.6999 C   0  0  1  0  0  0  0  0  0  0  0  0
  149.6869  142.3464  156.2476 N   0  0  0  0  0  0  0  0  0  0  0  0
  150.8992  142.0614  156.7455 C   0  0  0  0  0  0  0  0  0  0  0  0
  151.3459  140.9165  156.8269 O   0  0  0  0  0  0  0  0  0  0  0  0
  151.7217  143.2596  157.2384 C   0  0  0  0  0  0  0  0  0  0  0  0
  152.2651  143.0656  158.5932 N   0  0  0  0  0  0  0  0  0  0  0  0
  153.1214  141.9644  158.7909 C   0  0  0  0  0  0  0  0  0  0  0  0
  153.6755  141.6943  159.9891 C   0  0  0  0  0  0  0  0  0  0  0  0
  154.5537  140.5598  160.1738 N   0  3  0  0  0  0  0  0  0  0  0  0
  154.8244  140.2050  161.3165 O   0  0  0  0  0  0  0  0  0  0  0  0
  155.0004  139.9851  159.1853 O   0  5  0  0  0  0  0  0  0  0  0  0
  153.3627  142.5824  161.0920 C   0  0  0  0  0  0  0  0  0  0  0  0
  152.5466  143.6389  160.9090 C   0  0  0  0  0  0  0  0  0  0  0  0
  151.9464  143.9319  159.6036 C   0  0  0  0  0  0  0  0  0  0  0  0
  151.2019  144.8971  159.4288 O   0  0  0  0  0  0  0  0  0  0  0  0
  147.3756  143.3316  157.3391 H   0  0  0  0  0  0  0  0  0  0  0  0
  146.8619  141.6945  157.7407 H   0  0  0  0  0  0  0  0  0  0  0  0
  145.7576  142.7876  156.9170 H   0  0  0  0  0  0  0  0  0  0  0  0
  146.6443  141.1614  155.3212 H   0  0  0  0  0  0  0  0  0  0  0  0
  146.1890  143.4244  154.4631 H   0  0  0  0  0  0  0  0  0  0  0  0
  147.8200  143.9275  154.8266 H   0  0  0  0  0  0  0  0  0  0  0  0
  146.9913  141.7794  152.8164 H   0  0  0  0  0  0  0  0  0  0  0  0
  147.6425  143.3552  152.4355 H   0  0  0  0  0  0  0  0  0  0  0  0
  149.3865  141.5674  152.2684 H   0  0  0  0  0  0  0  0  0  0  0  0
  149.8110  142.7709  153.4597 H   0  0  0  0  0  0  0  0  0  0  0  0
  148.5833  140.0284  154.0147 H   0  0  0  0  0  0  0  0  0  0  0  0
  150.2236  140.4966  154.3631 H   0  0  0  0  0  0  0  0  0  0  0  0
  148.7062  140.5194  156.3767 H   0  0  0  0  0  0  0  0  0  0  0  0
  149.4013  143.3147  156.2283 H   0  0  0  0  0  0  0  0  0  0  0  0
  152.5348  143.4603  156.5377 H   0  0  0  0  0  0  0  0  0  0  0  0
  151.0865  144.1453  157.1982 H   0  0  0  0  0  0  0  0  0  0  0  0
  153.2969  141.3680  157.9072 H   0  0  0  0  0  0  0  0  0  0  0  0
  153.7816  142.4072  162.0723 H   0  0  0  0  0  0  0  0  0  0  0  0
  152.3279  144.2879  161.7443 H   0  0  0  0  0  0  0  0  0  0  0  0
  1  2  1  0  0  0  0
  1 22  1  0  0  0  0
  1 23  1  0  0  0  0
  1 24  1  0  0  0  0
  2  7  1  0  0  0  0
  2  3  1  0  0  0  0
  2 25  1  0  0  0  0
  3  4  1  0  0  0  0
  3 26  1  0  0  0  0
  3 27  1  0  0  0  0
  4  5  1  0  0  0  0
  4 28  1  0  0  0  0
  4 29  1  0  0  0  0
  5  6  1  0  0  0  0
  5 30  1  0  0  0  0
  5 31  1  0  0  0  0
  6  7  1  0  0  0  0
  6 32  1  0  0  0  0
  6 33  1  0  0  0  0
  7  8  1  0  0  0  0
  7 34  1  0  0  0  0
  8  9  1  0  0  0  0
  8 35  1  0  0  0  0
  9 10  2  0  0  0  0
  9 11  1  0  0  0  0
 11 12  1  0  0  0  0
 11 36  1  0  0  0  0
 11 37  1  0  0  0  0
 12 20  1  0  0  0  0
 12 13  1  0  0  0  0
 13 14  2  0  0  0  0
 13 38  1  0  0  0  0
 14 15  1  0  0  0  0
 14 18  1  0  0  0  0
 15 16  2  0  0  0  0
 15 17  1  0  0  0  0
 18 19  2  0  0  0  0
 18 39  1  0  0  0  0
 19 20  1  0  0  0  0
 19 40  1  0  0  0  0
 20 21  2  0  0  0  0
M  CHG  1  15   1
M  CHG  1  17  -1
M  END
> <s_m_source_file>
AV-unprocessed.smi

> <i_m_source_file_index>
594

> <i_lp_mmshare_version>
43012

> <i_f3d_flags>
0

> <s_epik_input>
W0NIM11bQ0BASF0xW0NIMl1bQ0gyXVtDSDJdW0NIMl1bQ0BIXTFbTkhdQyg9TylbQ0gyXW4yW2NIXWMoW04rXSg9TylbTy1dKVtjSF1bY0hdYzI9Tw==

> <s_epik_cmdline>
J2VwaWtfcHl0aG9uJywgJy1waCcsICc3LjAnLCAnLXRuJywgJzgnLCAnLW1hJywgJzIwMCcsICctbWV0YWxfYmluZGluZycsICctaW1hZScsICc8aW5maWxlLm1hZT4nLCAnLW9tYWUnLCAnPG91dGZpbGUubWFlPic=

> <r_lp_tautomer_probability>
1

> <r_epik_Ionization_Penalty>
1.91305e-08

> <r_epik_Ionization_Penalty_Charging>
8.35811e-11

> <r_epik_Ionization_Penalty_Neutral>
1.90469e-08

> <r_epik_State_Penalty>
-0

> <r_epik_Charging_Adjusted_Penalty>
8.35811e-11

> <i_epik_Tot_Q>
0

> <i_epik_Tot_abs_Q>
2

> <r_epik_Metal_State_Penalty>
-0

> <b_epik_Metal_Only>
0

> <s_lp_Force_Field>
OPLS_2005

> <r_lp_Energy>
20.421

> <b_lp_Chiralities_Consistent>
1

> <s_lp_Variant>
AV-unprocessed.smi:594-2

> <Gold.Version>
5.8.1

> <Gold.Id.Protein>
6NUR|6NUR_protein|mol2

> <Gold.PLP.Fitness>
47.9506

> <Gold.PLP.PLP>
-42.7004

> <Gold.PLP.part.hbond>
-2.0000

> <Gold.PLP.part.metal>
0.0000

> <Gold.PLP.part.buried>
-5.4354

> <Gold.PLP.part.nonpolar>
-33.9288

> <Gold.PLP.part.repulsive>
0.1481

> <Gold.PLP.ligand.clash>
0.0000

> <Gold.PLP.ligand.torsion>
0.3816

> <Gold.PLP.Chemscore.Hbond>
2.0000

> <Gold.PLP.Chemscore.CHOScore>
0.0000

> <Gold.PLP.Chemscore.Metal>
0.0000

> <Gold.Chemscore.Hbonds>
donor molecule, donor type, donor heavy atom, donor atom, acceptor molecule, acceptor atom, score
      L1  H     8    35       P1  8028  1.00
      P1  H  7997  8010       L1    17  1.00

> <Gold.PLP.Chemscore.Internal.Correction>
0.0135

> <Gold.Rescore>
     Score         DG    S(hbond)    S(metal)    S(lipo)     H(rot)  DE(clash)    DE(int)     intcor
     15.97     -18.04       1.91        0.00      86.65       1.55       0.10       1.98       ----

> <Gold.Chemscore.Fitness>
15.9667

> <Gold.Chemscore.DG>
-18.0449

> <Gold.Chemscore.ZeroCoef>
-5.4800

> <Gold.Chemscore.Hbond>
1.9149

> <Gold.Chemscore.Metal>
0.0000

> <Gold.Chemscore.Lipo>
86.6528

> <Gold.Chemscore.Internal_Hbond>
0.0000

> <Gold.Chemscore.DEClash>
0.1022

> <Gold.Chemscore.DEInternal>
1.9760

> <Gold.Chemscore.Rot>
1.5505

> <Gold.Chemscore.Internal.Correction>
   9.000000E+99

> <Gold.Chemscore.Hbonds>
donor molecule, donor type, donor heavy atom, donor atom, acceptor molecule, acceptor atom, score
      L1  H     8    35       P1  8028  0.98
      P1  H  7997  8010       L1    17  0.95

> <Gold.Chemscore.Hbond.Weighted>
-6.3956

> <Gold.Chemscore.Metal.Weighted>
-0.0000

> <Gold.Chemscore.Lipo.Weighted>
-10.1384

> <Gold.Chemscore.Internal_Hbond.Weighted>
0.0000

> <Gold.Chemscore.DEClash.Weighted>
0.1022

> <Gold.Chemscore.DEInternal.Weighted>
1.9760

> <Gold.Chemscore.Rot.Weighted>
3.9692

> <Gold.Chemscore.Internal.Correction.Weighted>
   9.000000E+99

> <Gold.Protein.RotatedTorsions>
[ 6907 6896 6895 6894 ] final  -26.28 input  -60.11 | X-H torsion
[ 7974 7965 7964 7962 ] final   71.11 input  175.53 | X-H torsion
[ 8008 7997 7996 7995 ] final  -13.58 input   59.86 | X-H torsion
[ 10167 10162 10161 10158 ] final   13.92 input  -65.29 | X-H torsion
[ 10718 10713 10712 10709 ] final  165.05 input   66.30 | X-H torsion
[ 10763 10752 10751 10750 ] final   17.70 input  -60.55 | X-H torsion
[ 11005 11000 10999 10996 ] final   40.17 input  -57.11 | X-H torsion

> <Gold.Protein.ActiveResidues>
 VAL166  LYS551  ARG553  GLY616  TRP617  ASP618  TYR619  PRO620  LYS621  CYS622 
 ASP623  PHE694  ASN695  SER759  ASP760  ASP761  ALA762  ILE779  LEU786  VAL792 
 PHE793  MET794  SER795  GLU796  ALA797  LYS798  CYS799  TRP800  GLU811  SER814 

> <Gold.Protein.RotatedAtoms>
  151.1632  135.0283  159.8719 H   0  0  0  0  0  0  0  0  0  0  0  0  # atno 6907 bound_to 6896
  152.5451  134.1255  159.8427 H   0  0  0  0  0  0  0  0  0  0  0  0  # atno 6908 bound_to 6896
  151.1353  133.4962  159.2630 H   0  0  0  0  0  0  0  0  0  0  0  0  # atno 6909 bound_to 6896
  145.7699  139.2838  143.1327 H   0  0  0  0  0  0  0  0  0  0  0  0  # atno 7974 bound_to 7965
  154.5281  140.2246  155.8854 H   0  0  0  0  0  0  0  0  0  0  0  0  # atno 8008 bound_to 7997
  156.1734  140.3116  155.8979 H   0  0  0  0  0  0  0  0  0  0  0  0  # atno 8009 bound_to 7997
  155.3510  140.0455  157.3037 H   0  0  0  0  0  0  0  0  0  0  0  0  # atno 8010 bound_to 7997
  140.5970  143.8681  150.6928 H   0  0  0  0  0  0  0  0  0  0  0  0  # atno 10167 bound_to 10162
  157.0857  131.0404  151.2557 H   0  0  0  0  0  0  0  0  0  0  0  0  # atno 10718 bound_to 10713
  153.1315  135.6741  153.9170 H   0  0  0  0  0  0  0  0  0  0  0  0  # atno 10763 bound_to 10752
  153.8655  135.3076  155.3441 H   0  0  0  0  0  0  0  0  0  0  0  0  # atno 10764 bound_to 10752
  154.7711  135.4938  153.9733 H   0  0  0  0  0  0  0  0  0  0  0  0  # atno 10765 bound_to 10752
  140.1956  134.3933  155.8123 H   0  0  0  0  0  0  0  0  0  0  0  0  # atno 11005 bound_to 11000
  146.0180  140.8374  142.9937 LP  0  0  0  0  0  0  0  0  0  0  0  0  # atno 17320 bound_to 7965
  144.6814  140.2587  143.7322 LP  0  0  0  0  0  0  0  0  0  0  0  0  # atno 17321 bound_to 7965
  140.2218  143.3803  152.1636 LP  0  0  0  0  0  0  0  0  0  0  0  0  # atno 17342 bound_to 10162
  139.5265  144.7108  151.5211 LP  0  0  0  0  0  0  0  0  0  0  0  0  # atno 17343 bound_to 10162
  157.4763  130.7738  149.7371 LP  0  0  0  0  0  0  0  0  0  0  0  0  # atno 17370 bound_to 10713
  155.9911  130.3940  150.2997 LP  0  0  0  0  0  0  0  0  0  0  0  0  # atno 17371 bound_to 10713
  141.2227  133.7068  156.8171 LP  0  0  0  0  0  0  0  0  0  0  0  0  # atno 17394 bound_to 11000
  140.2110  134.8827  157.3275 LP  0  0  0  0  0  0  0  0  0  0  0  0  # atno 17395 bound_to 11000

$$$$
