AV-unprocessed.smi:34|AV-procd|sdf|231|dock4
  -GOLD-   2262015563D 1   1.00000     0.00000
 Structure written by MMmdl.
 54 58  0  0  0  0  0  0  0  0  2 V2000
  153.7768  140.4395  160.0151 O   0  0  0  0  0  0  0  0  0  0  0  0
  153.1519  141.0076  159.1169 C   0  0  0  0  0  0  0  0  0  0  0  0
  152.7924  140.5091  157.9072 N   0  5  0  0  0  0  0  0  0  0  0  0
  151.8766  139.5317  157.8302 C   0  0  0  0  0  0  0  0  0  0  0  0
  151.6765  138.6920  158.8782 N   0  0  0  0  0  0  0  0  0  0  0  0
  150.7701  137.7108  158.7951 C   0  0  0  0  0  0  0  0  0  0  0  0
  149.9715  137.3880  157.7726 N   0  0  0  0  0  0  0  0  0  0  0  0
  150.1713  138.2199  156.7092 C   0  0  0  0  0  0  0  0  0  0  0  0
  151.0970  139.3023  156.6637 C   0  0  0  0  0  0  0  0  0  0  0  0
  151.0463  139.9403  155.4339 N   0  0  0  0  0  0  0  0  0  0  0  0
  150.1144  139.2307  154.8014 C   0  0  0  0  0  0  0  0  0  0  0  0
  149.5489  138.2051  155.4733 N   0  0  0  0  0  0  0  0  0  0  0  0
  148.4955  137.2412  155.0251 C   0  0  2  0  0  0  0  0  0  0  0  0
  147.3102  137.5536  155.6985 O   0  0  0  0  0  0  0  0  0  0  0  0
  147.0669  136.5864  156.7160 C   0  0  1  0  0  0  0  0  0  0  0  0
  145.5820  136.5549  157.0957 C   0  0  0  0  0  0  0  0  0  0  0  0
  145.4721  136.1931  158.4623 O   0  0  0  0  0  0  0  0  0  0  0  0
  146.1492  136.8796  159.4017 C   0  0  0  0  0  0  0  0  0  0  0  0
  146.4347  138.0742  159.3002 O   0  0  0  0  0  0  0  0  0  0  0  0
  146.5160  136.0411  160.5797 C   0  0  0  0  0  0  0  0  0  0  0  0
  147.1883  136.6364  161.6725 C   0  0  0  0  0  0  0  0  0  0  0  0
  147.5506  135.8686  162.7964 C   0  0  0  0  0  0  0  0  0  0  0  0
  147.2456  134.4959  162.8412 C   0  0  0  0  0  0  0  0  0  0  0  0
  146.5773  133.8918  161.7605 C   0  0  0  0  0  0  0  0  0  0  0  0
  146.2139  134.6579  160.6359 C   0  0  0  0  0  0  0  0  0  0  0  0
  147.5921  135.3070  156.0704 C   0  0  1  0  0  0  0  0  0  0  0  0
  146.7176  134.8999  155.1449 F   0  0  0  0  0  0  0  0  0  0  0  0
  148.8761  135.8051  155.4223 C   0  0  1  0  0  0  0  0  0  0  0  0
  149.2385  134.9897  154.3267 O   0  0  0  0  0  0  0  0  0  0  0  0
  152.7676  142.4509  159.3008 C   0  0  0  0  0  0  0  0  0  0  0  0
  152.6543  142.9854  160.6045 C   0  0  0  0  0  0  0  0  0  0  0  0
  152.2721  144.3272  160.7977 C   0  0  0  0  0  0  0  0  0  0  0  0
  151.9885  145.1465  159.6891 C   0  0  0  0  0  0  0  0  0  0  0  0
  152.0839  144.6216  158.3867 C   0  0  0  0  0  0  0  0  0  0  0  0
  152.4673  143.2802  158.1926 C   0  0  0  0  0  0  0  0  0  0  0  0
  150.6726  137.0928  159.6751 H   0  0  0  0  0  0  0  0  0  0  0  0
  149.8348  139.4774  153.7894 H   0  0  0  0  0  0  0  0  0  0  0  0
  148.3765  137.4018  153.9528 H   0  0  0  0  0  0  0  0  0  0  0  0
  147.6672  136.8108  157.5981 H   0  0  0  0  0  0  0  0  0  0  0  0
  145.1153  137.5249  156.9180 H   0  0  0  0  0  0  0  0  0  0  0  0
  145.0582  135.8169  156.4867 H   0  0  0  0  0  0  0  0  0  0  0  0
  147.4339  137.6885  161.6609 H   0  0  0  0  0  0  0  0  0  0  0  0
  148.0643  136.3339  163.6246 H   0  0  0  0  0  0  0  0  0  0  0  0
  147.5244  133.9074  163.7028 H   0  0  0  0  0  0  0  0  0  0  0  0
  146.3439  132.8379  161.7926 H   0  0  0  0  0  0  0  0  0  0  0  0
  145.7045  134.1614  159.8229 H   0  0  0  0  0  0  0  0  0  0  0  0
  147.7464  134.4902  156.7758 H   0  0  0  0  0  0  0  0  0  0  0  0
  149.6826  135.8213  156.1575 H   0  0  0  0  0  0  0  0  0  0  0  0
  149.1496  135.4974  153.5345 H   0  0  0  0  0  0  0  0  0  0  0  0
  152.8664  142.3690  161.4662 H   0  0  0  0  0  0  0  0  0  0  0  0
  152.1948  144.7270  161.7978 H   0  0  0  0  0  0  0  0  0  0  0  0
  151.6945  146.1749  159.8375 H   0  0  0  0  0  0  0  0  0  0  0  0
  151.8602  145.2465  157.5348 H   0  0  0  0  0  0  0  0  0  0  0  0
  152.5245  142.8939  157.1851 H   0  0  0  0  0  0  0  0  0  0  0  0
  1  2  2  0  0  0  0
  2  3  1  0  0  0  0
  2 30  1  0  0  0  0
  3  4  1  0  0  0  0
  4  9  1  0  0  0  0
  4  5  2  0  0  0  0
  5  6  1  0  0  0  0
  6  7  2  0  0  0  0
  6 36  1  0  0  0  0
  7  8  1  0  0  0  0
  8 12  1  0  0  0  0
  8  9  2  0  0  0  0
  9 10  1  0  0  0  0
 10 11  2  0  0  0  0
 11 12  1  0  0  0  0
 11 37  1  0  0  0  0
 12 13  1  0  0  0  0
 13 28  1  0  0  0  0
 13 14  1  0  0  0  0
 13 38  1  0  0  0  0
 14 15  1  0  0  0  0
 15 16  1  0  0  0  0
 15 26  1  0  0  0  0
 15 39  1  0  0  0  0
 16 17  1  0  0  0  0
 16 40  1  0  0  0  0
 16 41  1  0  0  0  0
 17 18  1  0  0  0  0
 18 19  2  0  0  0  0
 18 20  1  0  0  0  0
 20 25  1  0  0  0  0
 20 21  2  0  0  0  0
 21 22  1  0  0  0  0
 21 42  1  0  0  0  0
 22 23  2  0  0  0  0
 22 43  1  0  0  0  0
 23 24  1  0  0  0  0
 23 44  1  0  0  0  0
 24 25  2  0  0  0  0
 24 45  1  0  0  0  0
 25 46  1  0  0  0  0
 26 27  1  0  0  0  0
 26 28  1  0  0  0  0
 26 47  1  0  0  0  0
 28 29  1  0  0  0  0
 28 48  1  0  0  0  0
 29 49  1  0  0  0  0
 30 35  1  0  0  0  0
 30 31  2  0  0  0  0
 31 32  1  0  0  0  0
 31 50  1  0  0  0  0
 32 33  2  0  0  0  0
 32 51  1  0  0  0  0
 33 34  1  0  0  0  0
 33 52  1  0  0  0  0
 34 35  2  0  0  0  0
 34 53  1  0  0  0  0
 35 54  1  0  0  0  0
M  CHG  1   3  -1
M  END
> <s_m_source_file>
AV-unprocessed.smi

> <i_m_source_file_index>
34

> <i_lp_mmshare_version>
43012

> <i_f3d_flags>
0

> <s_epik_input>
W2NIXTFbY0hdW2NIXVtjSF1bY0hdYzFDKD1PKVtOSF1jKG5bY0hdbjIpYyhjMjMpbltjSF1uM1tDQEBIXTRPW0NASF0oW0NAQEhdKEYpW0NASF00W09IXSlbQ0gyXU9DKD1PKWM1W2NIXVtjSF1bY0hdW2NIXVtjSF01

> <s_epik_cmdline>
J2VwaWtfcHl0aG9uJywgJy1waCcsICc3LjAnLCAnLXRuJywgJzgnLCAnLW1hJywgJzIwMCcsICctbWV0YWxfYmluZGluZycsICctaW1hZScsICc8aW5maWxlLm1hZT4nLCAnLW9tYWUnLCAnPG91dGZpbGUubWFlPic=

> <r_lp_tautomer_probability>
1

> <r_epik_Ionization_Penalty>
4.33227

> <r_epik_Ionization_Penalty_Charging>
3.41027

> <r_epik_Ionization_Penalty_Neutral>
0.922001

> <r_epik_State_Penalty>
3.41358

> <r_epik_Charging_Adjusted_Penalty>
6.82385

> <i_epik_Tot_Q>
-1

> <i_epik_Tot_abs_Q>
1

> <r_epik_Metal_State_Penalty>
0.496292

> <b_epik_Metal_Only>
1

> <s_epik_Chemistry_Notes>
This compound has an ester and may undergo hydrolysis at high or low pH. This compound contains an acetal/aminal-like group ( X-CH(R)-Y where X, Y are N, S, or O) that may be acid/base labile, releasing an aldehyde.

> <s_lp_Force_Field>
OPLS_2005

> <r_lp_Energy>
43.1366

> <b_lp_Chiralities_Consistent>
1

> <s_lp_Variant>
AV-unprocessed.smi:34-17

> <Gold.Version>
5.8.1

> <Gold.Id.Protein>
6NUR|6NUR_protein|mol2

> <Gold.PLP.Fitness>
63.4557

> <Gold.PLP.PLP>
-54.4444

> <Gold.PLP.part.hbond>
-3.6677

> <Gold.PLP.part.metal>
0.0000

> <Gold.PLP.part.buried>
-5.3377

> <Gold.PLP.part.nonpolar>
-43.8798

> <Gold.PLP.part.repulsive>
0.0596

> <Gold.PLP.ligand.clash>
0.0000

> <Gold.PLP.ligand.torsion>
2.1114

> <Gold.PLP.Chemscore.Hbond>
3.6087

> <Gold.PLP.Chemscore.CHOScore>
0.7128

> <Gold.PLP.Chemscore.Metal>
0.0000

> <Gold.Chemscore.Hbonds>
donor molecule, donor type, donor heavy atom, donor atom, acceptor molecule, acceptor atom, score
      L1  H    29    49       P1  7948  1.00
      P1  H  6934  6947       L1    19  0.67
      P1  H  7989  7998       L1    10  0.26
      P1  H  7997  8009       L1     3  1.63
      L1  C    11    37       P1  7957  0.59

> <Gold.PLP.Chemscore.Internal.Correction>
0.2697

> <Gold.Rescore>
     Score         DG    S(hbond)    S(metal)    S(lipo)     H(rot)  DE(clash)    DE(int)     intcor
     17.66     -21.78       2.49        0.00     127.18       2.69       0.06       4.06       ----

> <Gold.Chemscore.Fitness>
17.6622

> <Gold.Chemscore.DG>
-21.7782

> <Gold.Chemscore.ZeroCoef>
-5.4800

> <Gold.Chemscore.Hbond>
2.4897

> <Gold.Chemscore.Metal>
0.0000

> <Gold.Chemscore.Lipo>
127.1817

> <Gold.Chemscore.Internal_Hbond>
0.0000

> <Gold.Chemscore.DEClash>
0.0605

> <Gold.Chemscore.DEInternal>
4.0555

> <Gold.Chemscore.Rot>
2.6944

> <Gold.Chemscore.Internal.Correction>
   9.000000E+99

> <Gold.Chemscore.Hbonds>
donor molecule, donor type, donor heavy atom, donor atom, acceptor molecule, acceptor atom, score
      L1  H    29    49       P1  7948  0.55
      P1  H  6934  6947       L1    19  0.62
      P1  H  7989  7998       L1    10  0.01
      P1  H  7997  8009       L1     3  0.47

> <Gold.Chemscore.Hbond.Weighted>
-8.3155

> <Gold.Chemscore.Metal.Weighted>
-0.0000

> <Gold.Chemscore.Lipo.Weighted>
-14.8803

> <Gold.Chemscore.Internal_Hbond.Weighted>
0.0000

> <Gold.Chemscore.DEClash.Weighted>
0.0605

> <Gold.Chemscore.DEInternal.Weighted>
4.0555

> <Gold.Chemscore.Rot.Weighted>
6.8975

> <Gold.Chemscore.Internal.Correction.Weighted>
   9.000000E+99

> <Gold.Protein.RotatedTorsions>
[ 6907 6896 6895 6894 ] final   87.64 input  -60.11 | X-H torsion
[ 7974 7965 7964 7962 ] final  169.42 input  175.53 | X-H torsion
[ 8008 7997 7996 7995 ] final  170.32 input   59.86 | X-H torsion
[ 10167 10162 10161 10158 ] final    8.19 input  -65.29 | X-H torsion
[ 10718 10713 10712 10709 ] final  143.24 input   66.30 | X-H torsion
[ 10763 10752 10751 10750 ] final  -16.52 input  -60.55 | X-H torsion
[ 11005 11000 10999 10996 ] final   64.80 input  -57.11 | X-H torsion

> <Gold.Protein.ActiveResidues>
 VAL166  LYS551  ARG553  GLY616  TRP617  ASP618  TYR619  PRO620  LYS621  CYS622 
 ASP623  PHE694  ASN695  SER759  ASP760  ASP761  ALA762  ILE779  LEU786  VAL792 
 PHE793  MET794  SER795  GLU796  ALA797  LYS798  CYS799  TRP800  GLU811  SER814 

> <Gold.Protein.RotatedAtoms>
  152.5414  134.2245  159.8800 H   0  0  0  0  0  0  0  0  0  0  0  0  # atno 6907 bound_to 6896
  151.2220  133.4490  159.2608 H   0  0  0  0  0  0  0  0  0  0  0  0  # atno 6908 bound_to 6896
  151.0796  134.9863  159.8405 H   0  0  0  0  0  0  0  0  0  0  0  0  # atno 6909 bound_to 6896
  144.7356  139.9051  143.6412 H   0  0  0  0  0  0  0  0  0  0  0  0  # atno 7974 bound_to 7965
  156.1376  140.1541  156.8970 H   0  0  0  0  0  0  0  0  0  0  0  0  # atno 8008 bound_to 7997
  154.4960  140.0838  156.7736 H   0  0  0  0  0  0  0  0  0  0  0  0  # atno 8009 bound_to 7997
  155.4139  140.3420  155.4268 H   0  0  0  0  0  0  0  0  0  0  0  0  # atno 8010 bound_to 7997
  140.6328  143.7954  150.7319 H   0  0  0  0  0  0  0  0  0  0  0  0  # atno 10167 bound_to 10162
  157.3713  131.0979  151.0826 H   0  0  0  0  0  0  0  0  0  0  0  0  # atno 10718 bound_to 10713
  153.5598  135.7010  153.5552 H   0  0  0  0  0  0  0  0  0  0  0  0  # atno 10763 bound_to 10752
  153.3439  135.4013  155.1593 H   0  0  0  0  0  0  0  0  0  0  0  0  # atno 10764 bound_to 10752
  154.8649  135.3749  154.5115 H   0  0  0  0  0  0  0  0  0  0  0  0  # atno 10765 bound_to 10752
  139.9935  134.6553  156.0050 H   0  0  0  0  0  0  0  0  0  0  0  0  # atno 11005 bound_to 11000
  146.1043  139.4041  143.0327 LP  0  0  0  0  0  0  0  0  0  0  0  0  # atno 17320 bound_to 7965
  145.7534  140.9963  143.1238 LP  0  0  0  0  0  0  0  0  0  0  0  0  # atno 17321 bound_to 7965
  140.1568  143.4309  152.2094 LP  0  0  0  0  0  0  0  0  0  0  0  0  # atno 17342 bound_to 10162
  139.5541  144.7360  151.4346 LP  0  0  0  0  0  0  0  0  0  0  0  0  # atno 17343 bound_to 10162
  157.1929  130.6360  149.5711 LP  0  0  0  0  0  0  0  0  0  0  0  0  # atno 17370 bound_to 10713
  155.9756  130.4716  150.6471 LP  0  0  0  0  0  0  0  0  0  0  0  0  # atno 17371 bound_to 10713
  141.1585  133.6540  156.4242 LP  0  0  0  0  0  0  0  0  0  0  0  0  # atno 17394 bound_to 11000
  140.4862  134.6618  157.5192 LP  0  0  0  0  0  0  0  0  0  0  0  0  # atno 17395 bound_to 11000

$$$$
