AV-unprocessed.smi:1741|AV-procd|sdf|7019|dock1
  -GOLD-   22720 8233D 1   1.00000     0.00000
 Structure written by MMmdl.
 38 39  0  0  0  0  0  0  0  0  1 V2000
  144.3710  133.4902  150.1680 C   0  0  0  0  0  0  0  0  0  0  0  0
  144.1629  133.7906  151.6570 C   0  0  0  0  0  0  0  0  0  0  0  0
  144.4930  135.1657  151.9760 N   0  0  0  0  0  0  0  0  0  0  0  0
  145.7135  135.8004  151.8574 C   0  0  0  0  0  0  0  0  0  0  0  0
  145.5077  137.0815  152.2728 C   0  0  0  0  0  0  0  0  0  0  0  0
  146.5028  138.0899  152.3094 N   0  0  0  0  0  0  0  0  0  0  0  0
  146.6779  139.0247  153.2572 C   0  0  0  0  0  0  0  0  0  0  0  0
  146.0040  139.1271  154.2820 O   0  0  0  0  0  0  0  0  0  0  0  0
  147.6917  139.8449  152.9462 N   0  0  0  0  0  0  0  0  0  0  0  0
  148.1448  140.9830  153.7436 C   0  0  1  0  0  0  0  0  0  0  0  0
  146.9251  141.7541  154.2705 C   0  0  0  0  0  0  0  0  0  0  0  0
  149.0585  140.4919  154.8833 C   0  0  1  0  0  0  0  0  0  0  0  0
  150.2469  139.6431  154.4233 C   0  0  0  0  0  0  0  0  0  0  0  0
  151.2340  139.8591  155.5464 C   0  0  0  0  0  0  0  0  0  0  0  0
  151.0124  141.3328  155.8694 C   0  0  0  0  0  0  0  0  0  0  0  0
  149.6445  141.5973  155.5692 O   0  0  0  0  0  0  0  0  0  0  0  0
  144.1319  137.1582  152.6305 C   0  0  0  0  0  0  0  0  0  0  0  0
  143.5279  135.9938  152.4460 N   0  0  0  0  0  0  0  0  0  0  0  0
  144.1254  132.4521  149.9439 H   0  0  0  0  0  0  0  0  0  0  0  0
  145.4073  133.6589  149.8735 H   0  0  0  0  0  0  0  0  0  0  0  0
  143.7379  134.1234  149.5456 H   0  0  0  0  0  0  0  0  0  0  0  0
  143.1269  133.6009  151.9418 H   0  0  0  0  0  0  0  0  0  0  0  0
  144.7843  133.1327  152.2655 H   0  0  0  0  0  0  0  0  0  0  0  0
  146.5973  135.2969  151.4942 H   0  0  0  0  0  0  0  0  0  0  0  0
  147.1379  138.1113  151.5252 H   0  0  0  0  0  0  0  0  0  0  0  0
  148.1870  139.6761  152.0832 H   0  0  0  0  0  0  0  0  0  0  0  0
  148.7306  141.6608  153.1199 H   0  0  0  0  0  0  0  0  0  0  0  0
  147.2308  142.6245  154.8517 H   0  0  0  0  0  0  0  0  0  0  0  0
  146.3050  141.1273  154.9121 H   0  0  0  0  0  0  0  0  0  0  0  0
  146.3020  142.1117  153.4501 H   0  0  0  0  0  0  0  0  0  0  0  0
  148.4796  139.9217  155.6123 H   0  0  0  0  0  0  0  0  0  0  0  0
  149.9905  138.5936  154.2765 H   0  0  0  0  0  0  0  0  0  0  0  0
  150.6570  140.0286  153.4884 H   0  0  0  0  0  0  0  0  0  0  0  0
  150.9673  139.2403  156.4041 H   0  0  0  0  0  0  0  0  0  0  0  0
  152.2630  139.6331  155.2658 H   0  0  0  0  0  0  0  0  0  0  0  0
  151.2472  141.5710  156.9071 H   0  0  0  0  0  0  0  0  0  0  0  0
  151.6339  141.9601  155.2292 H   0  0  0  0  0  0  0  0  0  0  0  0
  143.5563  137.9912  153.0056 H   0  0  0  0  0  0  0  0  0  0  0  0
  1  2  1  0  0  0  0
  1 19  1  0  0  0  0
  1 20  1  0  0  0  0
  1 21  1  0  0  0  0
  2  3  1  0  0  0  0
  2 22  1  0  0  0  0
  2 23  1  0  0  0  0
  3 18  1  0  0  0  0
  3  4  1  0  0  0  0
  4  5  2  0  0  0  0
  4 24  1  0  0  0  0
  5  6  1  0  0  0  0
  5 17  1  0  0  0  0
  6  7  1  0  0  0  0
  6 25  1  0  0  0  0
  7  8  2  0  0  0  0
  7  9  1  0  0  0  0
  9 10  1  0  0  0  0
  9 26  1  0  0  0  0
 10 11  1  0  0  0  0
 10 12  1  0  0  0  0
 10 27  1  0  0  0  0
 11 28  1  0  0  0  0
 11 29  1  0  0  0  0
 11 30  1  0  0  0  0
 12 16  1  0  0  0  0
 12 13  1  0  0  0  0
 12 31  1  0  0  0  0
 13 14  1  0  0  0  0
 13 32  1  0  0  0  0
 13 33  1  0  0  0  0
 14 15  1  0  0  0  0
 14 34  1  0  0  0  0
 14 35  1  0  0  0  0
 15 16  1  0  0  0  0
 15 36  1  0  0  0  0
 15 37  1  0  0  0  0
 17 18  2  0  0  0  0
 17 38  1  0  0  0  0
M  END
> <s_m_source_file>
AV-unprocessed.smi

> <i_m_source_file_index>
1741

> <i_lp_mmshare_version>
43012

> <i_f3d_flags>
0

> <s_epik_input>
W0NIM11bQ0gyXW4xW2NIXWMoW2NIXW4xKVtOSF1DKD1PKVtOSF1bQ0BIXShbQ0gzXSlbQ0BASF0yW0NIMl1bQ0gyXVtDSDJdTzI=

> <s_epik_cmdline>
J2VwaWtfcHl0aG9uJywgJy1waCcsICc3LjAnLCAnLXRuJywgJzgnLCAnLW1hJywgJzIwMCcsICctbWV0YWxfYmluZGluZycsICctaW1hZScsICc8aW5maWxlLm1hZT4nLCAnLW9tYWUnLCAnPG91dGZpbGUubWFlPic=

> <r_lp_tautomer_probability>
1

> <r_epik_Ionization_Penalty>
0.000179292

> <r_epik_Ionization_Penalty_Charging>
0

> <r_epik_Ionization_Penalty_Neutral>
0.000179292

> <r_epik_State_Penalty>
-0

> <r_epik_Charging_Adjusted_Penalty>
0

> <i_epik_Tot_Q>
0

> <i_epik_Tot_abs_Q>
0

> <r_epik_Metal_State_Penalty>
-0

> <b_epik_Metal_Only>
0

> <s_lp_Force_Field>
OPLS_2005

> <r_lp_Energy>
21.0752

> <b_lp_Chiralities_Consistent>
1

> <s_lp_Variant>
AV-unprocessed.smi:1741-4

> <Gold.Version>
5.8.1

> <Gold.Id.Protein>
6NUR|6NUR_protein|mol2

> <Gold.PLP.Fitness>
39.6815

> <Gold.PLP.PLP>
-32.4464

> <Gold.PLP.part.hbond>
-1.7905

> <Gold.PLP.part.metal>
0.0000

> <Gold.PLP.part.buried>
-2.3031

> <Gold.PLP.part.nonpolar>
-28.1591

> <Gold.PLP.part.repulsive>
0.5131

> <Gold.PLP.ligand.clash>
0.0000

> <Gold.PLP.ligand.torsion>
0.6134

> <Gold.PLP.Chemscore.Hbond>
0.9440

> <Gold.PLP.Chemscore.CHOScore>
1.8717

> <Gold.PLP.Chemscore.Metal>
0.0000

> <Gold.Chemscore.Hbonds>
donor molecule, donor type, donor heavy atom, donor atom, acceptor molecule, acceptor atom, score
      L1  H     9    26       P1  7957  0.93
      L1  C     4    24       P1  7948  0.87
      L1  C    17    38       P1 10175  1.00

> <Gold.PLP.Chemscore.Internal.Correction>
0.0149

> <Gold.Rescore>
     Score         DG    S(hbond)    S(metal)    S(lipo)     H(rot)  DE(clash)    DE(int)     intcor
     11.27     -13.31       0.99        0.00      68.71       1.38       0.03       2.00       ----

> <Gold.Chemscore.Fitness>
11.2665

> <Gold.Chemscore.DG>
-13.3054

> <Gold.Chemscore.ZeroCoef>
-5.4800

> <Gold.Chemscore.Hbond>
0.9929

> <Gold.Chemscore.Metal>
0.0000

> <Gold.Chemscore.Lipo>
68.7117

> <Gold.Chemscore.Internal_Hbond>
0.0000

> <Gold.Chemscore.DEClash>
0.0347

> <Gold.Chemscore.DEInternal>
2.0042

> <Gold.Chemscore.Rot>
1.3790

> <Gold.Chemscore.Internal.Correction>
   9.000000E+99

> <Gold.Chemscore.Hbonds>
donor molecule, donor type, donor heavy atom, donor atom, acceptor molecule, acceptor atom, score
      L1  H     9    26       P1  7957  0.91

> <Gold.Chemscore.Hbond.Weighted>
-3.3163

> <Gold.Chemscore.Metal.Weighted>
-0.0000

> <Gold.Chemscore.Lipo.Weighted>
-8.0393

> <Gold.Chemscore.Internal_Hbond.Weighted>
0.0000

> <Gold.Chemscore.DEClash.Weighted>
0.0347

> <Gold.Chemscore.DEInternal.Weighted>
2.0042

> <Gold.Chemscore.Rot.Weighted>
3.5302

> <Gold.Chemscore.Internal.Correction.Weighted>
   9.000000E+99

> <Gold.Protein.RotatedTorsions>
[ 6907 6896 6895 6894 ] final -135.24 input  -60.11 | X-H torsion
[ 7974 7965 7964 7962 ] final  -84.17 input  175.53 | X-H torsion
[ 8008 7997 7996 7995 ] final  -57.61 input   59.86 | X-H torsion
[ 10167 10162 10161 10158 ] final   54.91 input  -65.29 | X-H torsion
[ 10718 10713 10712 10709 ] final -165.75 input   66.30 | X-H torsion
[ 10763 10752 10751 10750 ] final  150.82 input  -60.55 | X-H torsion
[ 11005 11000 10999 10996 ] final  -37.87 input  -57.11 | X-H torsion

> <Gold.Protein.ActiveResidues>
 VAL166  LYS551  ARG553  GLY616  TRP617  ASP618  TYR619  PRO620  LYS621  CYS622 
 ASP623  PHE694  ASN695  SER759  ASP760  ASP761  ALA762  ILE779  LEU786  VAL792 
 PHE793  MET794  SER795  GLU796  ALA797  LYS798  CYS799  TRP800  GLU811  SER814 

> <Gold.Protein.RotatedAtoms>
  150.9955  133.6107  159.2701 H   0  0  0  0  0  0  0  0  0  0  0  0  # atno 6907 bound_to 6896
  151.3312  135.0841  159.9349 H   0  0  0  0  0  0  0  0  0  0  0  0  # atno 6908 bound_to 6896
  152.5259  133.9584  159.7760 H   0  0  0  0  0  0  0  0  0  0  0  0  # atno 6909 bound_to 6896
  145.5101  140.9540  143.1712 H   0  0  0  0  0  0  0  0  0  0  0  0  # atno 7974 bound_to 7965
  154.4275  140.1103  156.5824 H   0  0  0  0  0  0  0  0  0  0  0  0  # atno 8008 bound_to 7997
  155.6098  140.3494  155.4600 H   0  0  0  0  0  0  0  0  0  0  0  0  # atno 8009 bound_to 7997
  156.0108  140.1219  157.0445 H   0  0  0  0  0  0  0  0  0  0  0  0  # atno 8010 bound_to 7997
  140.2251  144.3747  150.6435 H   0  0  0  0  0  0  0  0  0  0  0  0  # atno 10167 bound_to 10162
  156.6579  130.9034  151.3024 H   0  0  0  0  0  0  0  0  0  0  0  0  # atno 10718 bound_to 10713
  154.0937  135.2850  155.3266 H   0  0  0  0  0  0  0  0  0  0  0  0  # atno 10763 bound_to 10752
  154.6603  135.5337  153.8013 H   0  0  0  0  0  0  0  0  0  0  0  0  # atno 10764 bound_to 10752
  153.0404  135.6532  154.1104 H   0  0  0  0  0  0  0  0  0  0  0  0  # atno 10765 bound_to 10752
  140.9985  133.6968  156.1979 H   0  0  0  0  0  0  0  0  0  0  0  0  # atno 11005 bound_to 11000
  144.7732  139.6688  143.7186 LP  0  0  0  0  0  0  0  0  0  0  0  0  # atno 17320 bound_to 7965
  146.2172  139.5570  142.9642 LP  0  0  0  0  0  0  0  0  0  0  0  0  # atno 17321 bound_to 7965
  140.6226  143.2178  151.6662 LP  0  0  0  0  0  0  0  0  0  0  0  0  # atno 17342 bound_to 10162
  139.5130  144.3458  152.0698 LP  0  0  0  0  0  0  0  0  0  0  0  0  # atno 17343 bound_to 10162
  157.7119  130.9451  150.1120 LP  0  0  0  0  0  0  0  0  0  0  0  0  # atno 17370 bound_to 10713
  156.2034  130.3661  149.8760 LP  0  0  0  0  0  0  0  0  0  0  0  0  # atno 17371 bound_to 10713
  140.6927  134.4648  157.5588 LP  0  0  0  0  0  0  0  0  0  0  0  0  # atno 17394 bound_to 11000
  139.9027  134.8520  156.1831 LP  0  0  0  0  0  0  0  0  0  0  0  0  # atno 17395 bound_to 11000

$$$$
