AV-unprocessed.smi:212|AV-procd|sdf|1619|dock6
  -GOLD-   2262019553D 1   1.00000     0.00000
 Structure written by MMmdl.
 65 68  0  0  0  0  0  0  0  0  2 V2000
  147.5099  141.6526  155.3780 C   0  0  0  0  0  0  0  0  0  0  0  0
  148.6443  140.7728  155.9298 C   0  0  2  0  0  0  0  0  0  0  0  0
  149.0479  141.1748  157.3646 C   0  0  0  0  0  0  0  0  0  0  0  0
  149.7889  142.4657  157.3874 N   0  3  1  0  0  0  0  0  0  0  0  0
  150.1174  142.9513  158.7560 C   0  0  0  0  0  0  0  0  0  0  0  0
  150.9212  144.2779  158.7915 C   0  0  0  0  0  0  0  0  0  0  0  0
  150.6340  145.0261  160.1049 C   0  0  0  0  0  0  0  0  0  0  0  0
  152.4377  144.0650  158.6241 C   0  0  0  0  0  0  0  0  0  0  0  0
  150.4735  145.1342  157.7605 O   0  0  0  0  0  0  0  0  0  0  0  0
  150.9825  142.4289  156.5026 C   0  0  0  0  0  0  0  0  0  0  0  0
  150.6069  142.0177  155.0672 C   0  0  0  0  0  0  0  0  0  0  0  0
  149.8159  140.7876  155.0519 N   0  0  0  0  0  0  0  0  0  0  0  0
  150.4575  139.5992  154.9121 C   0  0  0  0  0  0  0  0  0  0  0  0
  151.7873  139.5710  154.6321 N   0  0  0  0  0  0  0  0  0  0  0  0
  152.4252  138.4032  154.5117 C   0  0  0  0  0  0  0  0  0  0  0  0
  151.9335  137.1687  154.6300 N   0  0  0  0  0  0  0  0  0  0  0  0
  150.5986  137.1882  154.9061 C   0  0  0  0  0  0  0  0  0  0  0  0
  149.7911  138.3505  155.0570 C   0  0  0  0  0  0  0  0  0  0  0  0
  148.4757  137.9844  155.3112 N   0  0  0  0  0  0  0  0  0  0  0  0
  148.5043  136.6800  155.3120 C   0  0  0  0  0  0  0  0  0  0  0  0
  149.7430  136.1157  155.0984 N   0  0  0  0  0  0  0  0  0  0  0  0
  150.0569  134.6929  155.0560 C   0  0  0  0  0  0  0  0  0  0  0  0
  148.9717  133.7804  155.6876 C   0  0  2  0  0  0  0  0  0  0  0  0
  148.9703  133.9215  157.2289 C   0  0  0  0  0  0  0  0  0  0  0  0
  150.1534  133.4128  157.8085 O   0  0  0  0  0  0  0  0  0  0  0  0
  149.1096  132.3056  155.2168 C   0  0  2  0  0  0  0  0  0  0  0  0
  149.2434  132.1377  153.7115 C   0  0  0  0  0  0  0  0  0  0  0  0
  148.9218  130.6599  153.5124 C   0  0  0  0  0  0  0  0  0  0  0  0
  148.0326  130.3105  154.5675 O   0  0  0  0  0  0  0  0  0  0  0  0
  147.8932  131.4078  155.4628 C   0  0  0  0  0  0  0  0  0  0  0  0
  146.6247  141.5875  156.0111 H   0  0  0  0  0  0  0  0  0  0  0  0
  147.2207  141.3300  154.3773 H   0  0  0  0  0  0  0  0  0  0  0  0
  147.7946  142.7032  155.3204 H   0  0  0  0  0  0  0  0  0  0  0  0
  148.2459  139.7595  155.9885 H   0  0  0  0  0  0  0  0  0  0  0  0
  148.1520  141.2251  157.9796 H   0  0  0  0  0  0  0  0  0  0  0  0
  149.6792  140.3982  157.7994 H   0  0  0  0  0  0  0  0  0  0  0  0
  149.2115  143.0190  159.3608 H   0  0  0  0  0  0  0  0  0  0  0  0
  150.7351  142.1933  159.2402 H   0  0  0  0  0  0  0  0  0  0  0  0
  150.9665  144.4495  160.9689 H   0  0  0  0  0  0  0  0  0  0  0  0
  149.5676  145.2180  160.2299 H   0  0  0  0  0  0  0  0  0  0  0  0
  151.1472  145.9882  160.1388 H   0  0  0  0  0  0  0  0  0  0  0  0
  152.8273  143.3908  159.3875 H   0  0  0  0  0  0  0  0  0  0  0  0
  152.9816  145.0065  158.7098 H   0  0  0  0  0  0  0  0  0  0  0  0
  152.6838  143.6412  157.6497 H   0  0  0  0  0  0  0  0  0  0  0  0
  149.7413  144.7250  157.3244 H   0  0  0  0  0  0  0  0  0  0  0  0
  151.4583  143.4098  156.4762 H   0  0  0  0  0  0  0  0  0  0  0  0
  151.7143  141.7345  156.9180 H   0  0  0  0  0  0  0  0  0  0  0  0
  150.0197  142.8088  154.6003 H   0  0  0  0  0  0  0  0  0  0  0  0
  151.5021  141.9126  154.4526 H   0  0  0  0  0  0  0  0  0  0  0  0
  153.4807  138.4666  154.2917 H   0  0  0  0  0  0  0  0  0  0  0  0
  147.6137  136.0908  155.4752 H   0  0  0  0  0  0  0  0  0  0  0  0
  150.2058  134.4160  154.0118 H   0  0  0  0  0  0  0  0  0  0  0  0
  151.0210  134.5345  155.5392 H   0  0  0  0  0  0  0  0  0  0  0  0
  148.0126  134.1578  155.3287 H   0  0  0  0  0  0  0  0  0  0  0  0
  148.8350  134.9611  157.5290 H   0  0  0  0  0  0  0  0  0  0  0  0
  148.1456  133.3532  157.6599 H   0  0  0  0  0  0  0  0  0  0  0  0
  150.2421  132.5039  157.5646 H   0  0  0  0  0  0  0  0  0  0  0  0
  149.9699  131.8428  155.7023 H   0  0  0  0  0  0  0  0  0  0  0  0
  148.5026  132.7497  153.1951 H   0  0  0  0  0  0  0  0  0  0  0  0
  150.2246  132.4025  153.3213 H   0  0  0  0  0  0  0  0  0  0  0  0
  148.4799  130.4600  152.5361 H   0  0  0  0  0  0  0  0  0  0  0  0
  149.8250  130.0557  153.6064 H   0  0  0  0  0  0  0  0  0  0  0  0
  147.8272  131.0616  156.4945 H   0  0  0  0  0  0  0  0  0  0  0  0
  146.9685  131.9327  155.2184 H   0  0  0  0  0  0  0  0  0  0  0  0
  149.1719  143.1571  156.9861 H   0  0  0  0  0  0  0  0  0  0  0  0
  1  2  1  0  0  0  0
  1 31  1  0  0  0  0
  1 32  1  0  0  0  0
  1 33  1  0  0  0  0
  2 12  1  0  0  0  0
  2  3  1  0  0  0  0
  2 34  1  0  0  0  0
  3  4  1  0  0  0  0
  3 35  1  0  0  0  0
  3 36  1  0  0  0  0
  4  5  1  0  0  0  0
  4 10  1  0  0  0  0
  4 65  1  0  0  0  0
  5  6  1  0  0  0  0
  5 37  1  0  0  0  0
  5 38  1  0  0  0  0
  6  7  1  0  0  0  0
  6  8  1  0  0  0  0
  6  9  1  0  0  0  0
  7 39  1  0  0  0  0
  7 40  1  0  0  0  0
  7 41  1  0  0  0  0
  8 42  1  0  0  0  0
  8 43  1  0  0  0  0
  8 44  1  0  0  0  0
  9 45  1  0  0  0  0
 10 11  1  0  0  0  0
 10 46  1  0  0  0  0
 10 47  1  0  0  0  0
 11 12  1  0  0  0  0
 11 48  1  0  0  0  0
 11 49  1  0  0  0  0
 12 13  1  0  0  0  0
 13 18  1  0  0  0  0
 13 14  2  0  0  0  0
 14 15  1  0  0  0  0
 15 16  2  0  0  0  0
 15 50  1  0  0  0  0
 16 17  1  0  0  0  0
 17 21  1  0  0  0  0
 17 18  2  0  0  0  0
 18 19  1  0  0  0  0
 19 20  2  0  0  0  0
 20 21  1  0  0  0  0
 20 51  1  0  0  0  0
 21 22  1  0  0  0  0
 22 23  1  0  0  0  0
 22 52  1  0  0  0  0
 22 53  1  0  0  0  0
 23 24  1  0  0  0  0
 23 26  1  0  0  0  0
 23 54  1  0  0  0  0
 24 25  1  0  0  0  0
 24 55  1  0  0  0  0
 24 56  1  0  0  0  0
 25 57  1  0  0  0  0
 26 30  1  0  0  0  0
 26 27  1  0  0  0  0
 26 58  1  0  0  0  0
 27 28  1  0  0  0  0
 27 59  1  0  0  0  0
 27 60  1  0  0  0  0
 28 29  1  0  0  0  0
 28 61  1  0  0  0  0
 28 62  1  0  0  0  0
 29 30  1  0  0  0  0
 30 63  1  0  0  0  0
 30 64  1  0  0  0  0
M  CHG  1   4   1
M  END
> <s_m_source_file>
AV-unprocessed.smi

> <i_m_source_file_index>
212

> <i_lp_mmshare_version>
43012

> <i_f3d_flags>
0

> <s_epik_input>
W0NIM11bQ0BASF0xW0NIMl1OKFtDSDJdQyhbQ0gzXSkoW0NIM10pW09IXSlbQ0gyXVtDSDJdTjFjKG5bY0hdbjIpYyhjMjMpbltjSF1uM1tDSDJdW0NASF0oW0NIMl1bT0hdKVtDQEBIXTRbQ0gyXVtDSDJdT1tDSDJdNA==

> <s_epik_cmdline>
J2VwaWtfcHl0aG9uJywgJy1waCcsICc3LjAnLCAnLXRuJywgJzgnLCAnLW1hJywgJzIwMCcsICctbWV0YWxfYmluZGluZycsICctaW1hZScsICc8aW5maWxlLm1hZT4nLCAnLW9tYWUnLCAnPG91dGZpbGUubWFlPic=

> <r_lp_tautomer_probability>
1

> <r_epik_Ionization_Penalty>
0.00182193

> <r_epik_Ionization_Penalty_Charging>
0.00173996

> <r_epik_Ionization_Penalty_Neutral>
8.19718e-05

> <r_epik_State_Penalty>
-0

> <r_epik_Charging_Adjusted_Penalty>
0.00173996

> <i_epik_Tot_Q>
1

> <i_epik_Tot_abs_Q>
1

> <r_epik_Metal_State_Penalty>
-0

> <b_epik_Metal_Only>
0

> <s_lp_Force_Field>
OPLS_2005

> <r_lp_Energy>
58.2747

> <b_lp_Chiralities_Consistent>
1

> <s_lp_Variant>
AV-unprocessed.smi:212-3

> <Gold.Version>
5.8.1

> <Gold.Id.Protein>
6NUR|6NUR_protein|mol2

> <Gold.PLP.Fitness>
53.9378

> <Gold.PLP.PLP>
-39.9838

> <Gold.PLP.part.hbond>
-6.0000

> <Gold.PLP.part.metal>
0.0000

> <Gold.PLP.part.buried>
1.7755

> <Gold.PLP.part.nonpolar>
-33.8722

> <Gold.PLP.part.repulsive>
0.3415

> <Gold.PLP.ligand.clash>
0.0000

> <Gold.PLP.ligand.torsion>
1.0887

> <Gold.PLP.Chemscore.Hbond>
5.1472

> <Gold.PLP.Chemscore.CHOScore>
0.0000

> <Gold.PLP.Chemscore.Metal>
0.0000

> <Gold.Chemscore.Hbonds>
donor molecule, donor type, donor heavy atom, donor atom, acceptor molecule, acceptor atom, score
      L1  H     4    65       P1  8028  1.84
      L1  H     9    45       P1  8028  0.51
      P1  H  6896  6907       L1    25  0.99
      P1  H  7989  7998       L1    14  0.65
      P1  H 10752 10764       L1    16  0.98

> <Gold.PLP.Chemscore.Internal.Correction>
0.6898

> <Gold.Rescore>
     Score         DG    S(hbond)    S(metal)    S(lipo)     H(rot)  DE(clash)    DE(int)     intcor
     10.79     -16.70       2.36        0.00     103.02       3.40       3.36       2.55       ----

> <Gold.Chemscore.Fitness>
10.7907

> <Gold.Chemscore.DG>
-16.7001

> <Gold.Chemscore.ZeroCoef>
-5.4800

> <Gold.Chemscore.Hbond>
2.3553

> <Gold.Chemscore.Metal>
0.0000

> <Gold.Chemscore.Lipo>
103.0249

> <Gold.Chemscore.Internal_Hbond>
0.0000

> <Gold.Chemscore.DEClash>
3.3629

> <Gold.Chemscore.DEInternal>
2.5465

> <Gold.Chemscore.Rot>
3.3986

> <Gold.Chemscore.Internal.Correction>
   9.000000E+99

> <Gold.Chemscore.Hbonds>
donor molecule, donor type, donor heavy atom, donor atom, acceptor molecule, acceptor atom, score
      L1  H     4    65       P1  8028  0.77
      L1  H     9    45       P1  8028  0.04
      P1  H  6896  6907       L1    25  0.37
      P1  H  7989  7998       L1    14  0.05
      P1  H 10752 10764       L1    16  0.93

> <Gold.Chemscore.Hbond.Weighted>
-7.8666

> <Gold.Chemscore.Metal.Weighted>
-0.0000

> <Gold.Chemscore.Lipo.Weighted>
-12.0539

> <Gold.Chemscore.Internal_Hbond.Weighted>
0.0000

> <Gold.Chemscore.DEClash.Weighted>
3.3629

> <Gold.Chemscore.DEInternal.Weighted>
2.5465

> <Gold.Chemscore.Rot.Weighted>
8.7005

> <Gold.Chemscore.Internal.Correction.Weighted>
   9.000000E+99

> <Gold.Protein.RotatedTorsions>
[ 6907 6896 6895 6894 ] final -143.32 input  -60.11 | X-H torsion
[ 7974 7965 7964 7962 ] final   86.93 input  175.53 | X-H torsion
[ 8008 7997 7996 7995 ] final  -22.88 input   59.86 | X-H torsion
[ 10167 10162 10161 10158 ] final  -98.98 input  -65.29 | X-H torsion
[ 10718 10713 10712 10709 ] final  -44.72 input   66.30 | X-H torsion
[ 10763 10752 10751 10750 ] final  -73.99 input  -60.55 | X-H torsion
[ 11005 11000 10999 10996 ] final -138.04 input  -57.11 | X-H torsion

> <Gold.Protein.ActiveResidues>
 VAL166  LYS551  ARG553  GLY616  TRP617  ASP618  TYR619  PRO620  LYS621  CYS622 
 ASP623  PHE694  ASN695  SER759  ASP760  ASP761  ALA762  ILE779  LEU786  VAL792 
 PHE793  MET794  SER795  GLU796  ALA797  LYS798  CYS799  TRP800  GLU811  SER814 

> <Gold.Protein.RotatedAtoms>
  151.0989  133.5258  159.2610 H   0  0  0  0  0  0  0  0  0  0  0  0  # atno 6907 bound_to 6896
  151.2097  135.0475  159.8916 H   0  0  0  0  0  0  0  0  0  0  0  0  # atno 6908 bound_to 6896
  152.5441  134.0806  159.8287 H   0  0  0  0  0  0  0  0  0  0  0  0  # atno 6909 bound_to 6896
  145.5657  139.2308  143.2434 H   0  0  0  0  0  0  0  0  0  0  0  0  # atno 7974 bound_to 7965
  154.4618  140.1996  156.0225 H   0  0  0  0  0  0  0  0  0  0  0  0  # atno 8008 bound_to 7997
  156.0853  140.3266  155.7717 H   0  0  0  0  0  0  0  0  0  0  0  0  # atno 8009 bound_to 7997
  155.5045  140.0556  157.2924 H   0  0  0  0  0  0  0  0  0  0  0  0  # atno 8010 bound_to 7997
  140.2673  143.3367  152.0568 H   0  0  0  0  0  0  0  0  0  0  0  0  # atno 10167 bound_to 10162
  156.2357  130.4176  149.8821 H   0  0  0  0  0  0  0  0  0  0  0  0  # atno 10718 bound_to 10713
  154.4671  135.5879  153.6295 H   0  0  0  0  0  0  0  0  0  0  0  0  # atno 10763 bound_to 10752
  152.9830  135.6058  154.3414 H   0  0  0  0  0  0  0  0  0  0  0  0  # atno 10764 bound_to 10752
  154.3292  135.2842  155.2460 H   0  0  0  0  0  0  0  0  0  0  0  0  # atno 10765 bound_to 10752
  140.8654  134.2117  157.4683 H   0  0  0  0  0  0  0  0  0  0  0  0  # atno 11005 bound_to 11000
  146.1820  140.6483  142.9185 LP  0  0  0  0  0  0  0  0  0  0  0  0  # atno 17320 bound_to 7965
  144.7461  140.5072  143.6834 LP  0  0  0  0  0  0  0  0  0  0  0  0  # atno 17321 bound_to 7965
  139.4999  144.6680  151.6311 LP  0  0  0  0  0  0  0  0  0  0  0  0  # atno 17342 bound_to 10162
  140.5918  143.9766  150.6329 LP  0  0  0  0  0  0  0  0  0  0  0  0  # atno 17343 bound_to 10162
  156.6420  130.8708  151.3515 LP  0  0  0  0  0  0  0  0  0  0  0  0  # atno 17370 bound_to 10713
  157.7153  130.9490  150.1233 LP  0  0  0  0  0  0  0  0  0  0  0  0  # atno 17371 bound_to 10713
  139.8709  134.9749  156.4864 LP  0  0  0  0  0  0  0  0  0  0  0  0  # atno 17394 bound_to 11000
  140.8635  133.8042  155.9290 LP  0  0  0  0  0  0  0  0  0  0  0  0  # atno 17395 bound_to 11000

$$$$
