AV-unprocessed.smi:281|AV-procd|sdf|2108|dock10
  -GOLD-   2262021403D 1   1.00000     0.00000
 Structure written by MMmdl.
 55 59  0  0  0  0  0  0  0  0  1 V2000
  144.5906  139.5725  158.4656 C   0  0  0  0  0  0  0  0  0  0  0  0
  145.1363  138.2228  157.9879 C   0  0  1  0  0  0  0  0  0  0  0  0
  145.2159  138.1429  156.4535 C   0  0  0  0  0  0  0  0  0  0  0  0
  145.8344  136.8858  156.0568 N   0  0  0  0  0  0  0  0  0  0  0  0
  145.7973  136.6278  154.7334 C   0  0  0  0  0  0  0  0  0  0  0  0
  145.3101  137.6046  153.9303 N   0  0  0  0  0  0  0  0  0  0  0  0
  145.2396  137.4092  152.6099 C   0  0  0  0  0  0  0  0  0  0  0  0
  145.5949  136.3329  151.9046 N   0  0  0  0  0  0  0  0  0  0  0  0
  146.0817  135.3471  152.7123 C   0  0  0  0  0  0  0  0  0  0  0  0
  146.2113  135.4074  154.1284 C   0  0  0  0  0  0  0  0  0  0  0  0
  146.7260  134.2092  154.6082 N   0  0  0  0  0  0  0  0  0  0  0  0
  146.8981  133.4850  153.5365 C   0  0  0  0  0  0  0  0  0  0  0  0
  146.5502  134.0953  152.3522 N   0  0  0  0  0  0  0  0  0  0  0  0
  146.6453  133.5274  151.0154 C   0  0  0  0  0  0  0  0  0  0  0  0
  145.7034  132.3204  150.7842 C   0  0  2  0  0  0  0  0  0  0  0  0
  146.2646  131.1755  151.3999 O   0  0  0  0  0  0  0  0  0  0  0  0
  145.4789  132.0282  149.2983 C   0  0  0  0  0  0  0  0  0  0  0  0
  144.0270  132.4300  149.0657 C   0  0  0  0  0  0  0  0  0  0  0  0
  143.4096  132.0934  150.2948 O   0  0  0  0  0  0  0  0  0  0  0  0
  144.2769  132.5351  151.3287 C   0  0  0  0  0  0  0  0  0  0  0  0
  147.1551  136.7016  156.6409 C   0  0  0  0  0  0  0  0  0  0  0  0
  147.0876  136.8244  158.1844 C   0  0  1  0  0  0  0  0  0  0  0  0
  146.4067  135.6292  158.8448 C   0  0  0  0  0  0  0  0  0  0  0  0
  147.5376  134.6157  158.9735 C   0  0  0  0  0  0  0  0  0  0  0  0
  148.7191  135.3854  159.1581 O   0  0  0  0  0  0  0  0  0  0  0  0
  148.4609  136.7599  158.8831 C   0  0  1  0  0  0  0  0  0  0  0  0
  149.6459  137.4007  158.1462 C   0  0  0  0  0  0  0  0  0  0  0  0
  146.4429  138.0522  158.5396 O   0  0  0  0  0  0  0  0  0  0  0  0
  143.5848  139.7472  158.0827 H   0  0  0  0  0  0  0  0  0  0  0  0
  145.2239  140.3949  158.1317 H   0  0  0  0  0  0  0  0  0  0  0  0
  144.5425  139.6098  159.5541 H   0  0  0  0  0  0  0  0  0  0  0  0
  144.4770  137.4379  158.3605 H   0  0  0  0  0  0  0  0  0  0  0  0
  144.2180  138.2179  156.0191 H   0  0  0  0  0  0  0  0  0  0  0  0
  145.7991  138.9819  156.0730 H   0  0  0  0  0  0  0  0  0  0  0  0
  144.8418  138.2332  152.0362 H   0  0  0  0  0  0  0  0  0  0  0  0
  147.2899  132.4793  153.5826 H   0  0  0  0  0  0  0  0  0  0  0  0
  146.4254  134.3167  150.2951 H   0  0  0  0  0  0  0  0  0  0  0  0
  147.6819  133.2363  150.8402 H   0  0  0  0  0  0  0  0  0  0  0  0
  147.1597  131.0879  151.1098 H   0  0  0  0  0  0  0  0  0  0  0  0
  146.1651  132.5634  148.6408 H   0  0  0  0  0  0  0  0  0  0  0  0
  145.5904  130.9632  149.0871 H   0  0  0  0  0  0  0  0  0  0  0  0
  143.9399  133.5037  148.8904 H   0  0  0  0  0  0  0  0  0  0  0  0
  143.5716  131.9033  148.2269 H   0  0  0  0  0  0  0  0  0  0  0  0
  144.0819  132.0138  152.2668 H   0  0  0  0  0  0  0  0  0  0  0  0
  144.0742  133.5940  151.4925 H   0  0  0  0  0  0  0  0  0  0  0  0
  147.5664  135.7351  156.3462 H   0  0  0  0  0  0  0  0  0  0  0  0
  147.8147  137.4669  156.2306 H   0  0  0  0  0  0  0  0  0  0  0  0
  146.0567  135.9058  159.8404 H   0  0  0  0  0  0  0  0  0  0  0  0
  145.5531  135.2395  158.2894 H   0  0  0  0  0  0  0  0  0  0  0  0
  147.3817  133.9207  159.7987 H   0  0  0  0  0  0  0  0  0  0  0  0
  147.6383  134.0343  158.0565 H   0  0  0  0  0  0  0  0  0  0  0  0
  148.3652  137.2425  159.8573 H   0  0  0  0  0  0  0  0  0  0  0  0
  149.4431  138.4463  157.9134 H   0  0  0  0  0  0  0  0  0  0  0  0
  149.8695  136.8815  157.2141 H   0  0  0  0  0  0  0  0  0  0  0  0
  150.5453  137.3666  158.7611 H   0  0  0  0  0  0  0  0  0  0  0  0
  1  2  1  0  0  0  0
  1 29  1  0  0  0  0
  1 30  1  0  0  0  0
  1 31  1  0  0  0  0
  2 28  1  0  0  0  0
  2  3  1  0  0  0  0
  2 32  1  0  0  0  0
  3  4  1  0  0  0  0
  3 33  1  0  0  0  0
  3 34  1  0  0  0  0
  4  5  1  0  0  0  0
  4 21  1  0  0  0  0
  5 10  1  0  0  0  0
  5  6  2  0  0  0  0
  6  7  1  0  0  0  0
  7  8  2  0  0  0  0
  7 35  1  0  0  0  0
  8  9  1  0  0  0  0
  9 13  1  0  0  0  0
  9 10  2  0  0  0  0
 10 11  1  0  0  0  0
 11 12  2  0  0  0  0
 12 13  1  0  0  0  0
 12 36  1  0  0  0  0
 13 14  1  0  0  0  0
 14 15  1  0  0  0  0
 14 37  1  0  0  0  0
 14 38  1  0  0  0  0
 15 20  1  0  0  0  0
 15 16  1  0  0  0  0
 15 17  1  0  0  0  0
 16 39  1  0  0  0  0
 17 18  1  0  0  0  0
 17 40  1  0  0  0  0
 17 41  1  0  0  0  0
 18 19  1  0  0  0  0
 18 42  1  0  0  0  0
 18 43  1  0  0  0  0
 19 20  1  0  0  0  0
 20 44  1  0  0  0  0
 20 45  1  0  0  0  0
 21 22  1  0  0  0  0
 21 46  1  0  0  0  0
 21 47  1  0  0  0  0
 22 26  1  0  0  0  0
 22 23  1  0  0  0  0
 22 28  1  0  0  0  0
 23 24  1  0  0  0  0
 23 48  1  0  0  0  0
 23 49  1  0  0  0  0
 24 25  1  0  0  0  0
 24 50  1  0  0  0  0
 24 51  1  0  0  0  0
 25 26  1  0  0  0  0
 26 27  1  0  0  0  0
 26 52  1  0  0  0  0
 27 53  1  0  0  0  0
 27 54  1  0  0  0  0
 27 55  1  0  0  0  0
M  END
> <s_m_source_file>
AV-unprocessed.smi

> <i_m_source_file_index>
281

> <i_lp_mmshare_version>
43012

> <i_f3d_flags>
0

> <s_epik_input>
W0NIM11bQ0BASF0xT1tDSDJdW0NIMl1bQ0BAXTEyW0NIMl1OKFtDSDJdW0NASF0oTzIpW0NIM10pYyhuW2NIXW4zKWMoYzM0KW5bY0hdbjRbQ0gyXVtDQEBdNShbT0hdKVtDSDJdW0NIMl1PW0NIMl01

> <s_epik_cmdline>
J2VwaWtfcHl0aG9uJywgJy1waCcsICc3LjAnLCAnLXRuJywgJzgnLCAnLW1hJywgJzIwMCcsICctbWV0YWxfYmluZGluZycsICctaW1hZScsICc8aW5maWxlLm1hZT4nLCAnLW9tYWUnLCAnPG91dGZpbGUubWFlPic=

> <r_lp_tautomer_probability>
1

> <r_epik_Ionization_Penalty>
0.00571331

> <r_epik_Ionization_Penalty_Charging>
0

> <r_epik_Ionization_Penalty_Neutral>
0.00571331

> <r_epik_State_Penalty>
0.00399586

> <r_epik_Charging_Adjusted_Penalty>
0.00399586

> <i_epik_Tot_Q>
0

> <i_epik_Tot_abs_Q>
0

> <r_epik_Metal_State_Penalty>
-0

> <b_epik_Metal_Only>
0

> <s_lp_Force_Field>
OPLS_2005

> <r_lp_Energy>
55.9706

> <b_lp_Chiralities_Consistent>
1

> <s_lp_Variant>
AV-unprocessed.smi:281-8

> <Gold.Version>
5.8.1

> <Gold.Id.Protein>
6NUR|6NUR_protein|mol2

> <Gold.PLP.Fitness>
39.1570

> <Gold.PLP.PLP>
-27.6493

> <Gold.PLP.part.hbond>
-2.3156

> <Gold.PLP.part.metal>
0.0000

> <Gold.PLP.part.buried>
-4.0320

> <Gold.PLP.part.nonpolar>
-21.4729

> <Gold.PLP.part.repulsive>
0.6105

> <Gold.PLP.ligand.clash>
0.0000

> <Gold.PLP.ligand.torsion>
0.3143

> <Gold.PLP.Chemscore.Hbond>
2.0000

> <Gold.PLP.Chemscore.CHOScore>
2.0000

> <Gold.PLP.Chemscore.Metal>
0.0000

> <Gold.Chemscore.Hbonds>
donor molecule, donor type, donor heavy atom, donor atom, acceptor molecule, acceptor atom, score
      L1  H    16    39       P1 10747  1.00
      P1  H  6896  6908       L1    25  0.70
      L1  C     7    35       P1 10171  1.00
      L1  C     7    35       P1 10175  0.99

> <Gold.PLP.Chemscore.Internal.Correction>
0.1363

> <Gold.Rescore>
     Score         DG    S(hbond)    S(metal)    S(lipo)     H(rot)  DE(clash)    DE(int)     intcor
     13.60     -13.95       1.99        0.00      61.38       2.09       0.13       0.21       ----

> <Gold.Chemscore.Fitness>
13.6027

> <Gold.Chemscore.DG>
-13.9455

> <Gold.Chemscore.ZeroCoef>
-5.4800

> <Gold.Chemscore.Hbond>
1.9883

> <Gold.Chemscore.Metal>
0.0000

> <Gold.Chemscore.Lipo>
61.3839

> <Gold.Chemscore.Internal_Hbond>
0.0000

> <Gold.Chemscore.DEClash>
0.1309

> <Gold.Chemscore.DEInternal>
0.2119

> <Gold.Chemscore.Rot>
2.0927

> <Gold.Chemscore.Internal.Correction>
   9.000000E+99

> <Gold.Chemscore.Hbonds>
donor molecule, donor type, donor heavy atom, donor atom, acceptor molecule, acceptor atom, score
      L1  H    16    39       P1 10747  0.95
      P1  H  6896  6908       L1    25  0.68

> <Gold.Chemscore.Hbond.Weighted>
-6.6409

> <Gold.Chemscore.Metal.Weighted>
-0.0000

> <Gold.Chemscore.Lipo.Weighted>
-7.1819

> <Gold.Chemscore.Internal_Hbond.Weighted>
0.0000

> <Gold.Chemscore.DEClash.Weighted>
0.1309

> <Gold.Chemscore.DEInternal.Weighted>
0.2119

> <Gold.Chemscore.Rot.Weighted>
5.3573

> <Gold.Chemscore.Internal.Correction.Weighted>
   9.000000E+99

> <Gold.Protein.RotatedTorsions>
[ 6907 6896 6895 6894 ] final  162.91 input  -60.11 | X-H torsion
[ 7974 7965 7964 7962 ] final  -68.09 input  175.53 | X-H torsion
[ 8008 7997 7996 7995 ] final -152.79 input   59.86 | X-H torsion
[ 10167 10162 10161 10158 ] final  113.96 input  -65.29 | X-H torsion
[ 10718 10713 10712 10709 ] final   57.33 input   66.30 | X-H torsion
[ 10763 10752 10751 10750 ] final  175.20 input  -60.55 | X-H torsion
[ 11005 11000 10999 10996 ] final   31.93 input  -57.11 | X-H torsion

> <Gold.Protein.ActiveResidues>
 VAL166  LYS551  ARG553  GLY616  TRP617  ASP618  TYR619  PRO620  LYS621  CYS622 
 ASP623  PHE694  ASN695  SER759  ASP760  ASP761  ALA762  ILE779  LEU786  VAL792 
 PHE793  MET794  SER795  GLU796  ALA797  LYS798  CYS799  TRP800  GLU811  SER814 

> <Gold.Protein.RotatedAtoms>
  151.9332  133.3617  159.3938 H   0  0  0  0  0  0  0  0  0  0  0  0  # atno 6907 bound_to 6896
  150.7013  134.4516  159.5348 H   0  0  0  0  0  0  0  0  0  0  0  0  # atno 6908 bound_to 6896
  152.2160  134.8457  160.0542 H   0  0  0  0  0  0  0  0  0  0  0  0  # atno 6909 bound_to 6896
  145.7209  140.9039  143.0631 H   0  0  0  0  0  0  0  0  0  0  0  0  # atno 7974 bound_to 7965
  155.6607  140.0722  157.2555 H   0  0  0  0  0  0  0  0  0  0  0  0  # atno 8008 bound_to 7997
  154.4143  140.1716  156.1824 H   0  0  0  0  0  0  0  0  0  0  0  0  # atno 8009 bound_to 7997
  155.9699  140.3363  155.6570 H   0  0  0  0  0  0  0  0  0  0  0  0  # atno 8010 bound_to 7997
  139.6423  144.7124  151.2212 H   0  0  0  0  0  0  0  0  0  0  0  0  # atno 10167 bound_to 10162
  157.5505  130.8762  149.8957 H   0  0  0  0  0  0  0  0  0  0  0  0  # atno 10718 bound_to 10713
  154.4644  135.2769  155.1689 H   0  0  0  0  0  0  0  0  0  0  0  0  # atno 10763 bound_to 10752
  154.3464  135.6159  153.5625 H   0  0  0  0  0  0  0  0  0  0  0  0  # atno 10764 bound_to 10752
  152.9858  135.5801  154.5012 H   0  0  0  0  0  0  0  0  0  0  0  0  # atno 10765 bound_to 10752
  140.2788  134.2997  155.7806 H   0  0  0  0  0  0  0  0  0  0  0  0  # atno 11005 bound_to 11000
  144.6917  139.9201  143.7467 LP  0  0  0  0  0  0  0  0  0  0  0  0  # atno 17320 bound_to 7965
  146.0626  139.3619  143.0572 LP  0  0  0  0  0  0  0  0  0  0  0  0  # atno 17321 bound_to 7965
  140.7497  143.6290  150.8441 LP  0  0  0  0  0  0  0  0  0  0  0  0  # atno 17342 bound_to 10162
  139.9929  143.5827  152.2903 LP  0  0  0  0  0  0  0  0  0  0  0  0  # atno 17343 bound_to 10162
  156.0573  130.3706  150.1062 LP  0  0  0  0  0  0  0  0  0  0  0  0  # atno 17370 bound_to 10713
  156.9235  130.9691  151.3544 LP  0  0  0  0  0  0  0  0  0  0  0  0  # atno 17371 bound_to 10713
  141.2166  133.7512  156.9448 LP  0  0  0  0  0  0  0  0  0  0  0  0  # atno 17394 bound_to 11000
  140.1303  134.9360  157.2328 LP  0  0  0  0  0  0  0  0  0  0  0  0  # atno 17395 bound_to 11000

$$$$
