AV-unprocessed.smi:1573|AV-procd|sdf|6334|dock7
  -GOLD-   22720 6543D 1   1.00000     0.00000
 Structure written by MMmdl.
 41 41  0  0  0  0  0  0  0  0  1 V2000
  147.7674  145.3658  161.2389 C   0  0  0  0  0  0  0  0  0  0  0  0
  146.5408  145.1104  160.3526 C   0  0  0  0  0  0  0  0  0  0  0  0
  146.8785  144.2894  159.1963 N   0  0  0  0  0  0  0  0  0  0  0  0
  146.6601  142.9691  159.0973 C   0  0  0  0  0  0  0  0  0  0  0  0
  146.1590  142.2981  160.0014 O   0  0  0  0  0  0  0  0  0  0  0  0
  147.0865  142.3083  157.7767 C   0  0  1  0  0  0  0  0  0  0  0  0
  146.2017  142.8712  156.6521 C   0  0  0  0  0  0  0  0  0  0  0  0
  148.4745  142.6398  157.4640 N   0  0  0  0  0  0  0  0  0  0  0  0
  149.5468  141.9089  157.8093 C   0  0  0  0  0  0  0  0  0  0  0  0
  149.4757  140.8528  158.4376 O   0  0  0  0  0  0  0  0  0  0  0  0
  150.9077  142.4545  157.3781 C   0  0  0  0  0  0  0  0  0  0  0  0
  151.8218  142.5455  158.5739 C   0  0  0  0  0  0  0  0  0  0  0  0
  152.3071  143.7260  159.2111 C   0  0  0  0  0  0  0  0  0  0  0  0
  152.0360  145.1585  158.8492 C   0  0  0  0  0  0  0  0  0  0  0  0
  153.0984  143.4570  160.2362 N   0  0  0  0  0  0  0  0  0  0  0  0
  153.1447  142.1109  160.2920 N   0  0  0  0  0  0  0  0  0  0  0  0
  153.9384  141.4682  161.3213 C   0  0  0  0  0  0  0  0  0  0  0  0
  152.3851  141.5278  159.2966 C   0  0  0  0  0  0  0  0  0  0  0  0
  152.2797  140.0451  159.1400 C   0  0  0  0  0  0  0  0  0  0  0  0
  147.4946  145.9497  162.1182 H   0  0  0  0  0  0  0  0  0  0  0  0
  148.5386  145.9185  160.7014 H   0  0  0  0  0  0  0  0  0  0  0  0
  148.2055  144.4289  161.5847 H   0  0  0  0  0  0  0  0  0  0  0  0
  145.7745  144.5897  160.9272 H   0  0  0  0  0  0  0  0  0  0  0  0
  146.0997  146.0555  160.0315 H   0  0  0  0  0  0  0  0  0  0  0  0
  147.2960  144.7614  158.4072 H   0  0  0  0  0  0  0  0  0  0  0  0
  146.9630  141.2249  157.8342 H   0  0  0  0  0  0  0  0  0  0  0  0
  145.1480  142.6521  156.8294 H   0  0  0  0  0  0  0  0  0  0  0  0
  146.4672  142.4284  155.6914 H   0  0  0  0  0  0  0  0  0  0  0  0
  146.3057  143.9533  156.5547 H   0  0  0  0  0  0  0  0  0  0  0  0
  148.6321  143.4964  156.9534 H   0  0  0  0  0  0  0  0  0  0  0  0
  151.3210  141.8060  156.6051 H   0  0  0  0  0  0  0  0  0  0  0  0
  150.7696  143.4284  156.9070 H   0  0  0  0  0  0  0  0  0  0  0  0
  152.6332  145.4616  157.9891 H   0  0  0  0  0  0  0  0  0  0  0  0
  152.2723  145.8341  159.6721 H   0  0  0  0  0  0  0  0  0  0  0  0
  150.9868  145.3072  158.5942 H   0  0  0  0  0  0  0  0  0  0  0  0
  153.3211  140.7568  161.8703 H   0  0  0  0  0  0  0  0  0  0  0  0
  154.3319  142.2059  162.0219 H   0  0  0  0  0  0  0  0  0  0  0  0
  154.7724  140.9372  160.8616 H   0  0  0  0  0  0  0  0  0  0  0  0
  151.7505  139.7807  158.2246 H   0  0  0  0  0  0  0  0  0  0  0  0
  151.7403  139.6051  159.9788 H   0  0  0  0  0  0  0  0  0  0  0  0
  153.2683  139.5875  159.0944 H   0  0  0  0  0  0  0  0  0  0  0  0
  1  2  1  0  0  0  0
  1 20  1  0  0  0  0
  1 21  1  0  0  0  0
  1 22  1  0  0  0  0
  2  3  1  0  0  0  0
  2 23  1  0  0  0  0
  2 24  1  0  0  0  0
  3  4  1  0  0  0  0
  3 25  1  0  0  0  0
  4  5  2  0  0  0  0
  4  6  1  0  0  0  0
  6  7  1  0  0  0  0
  6  8  1  0  0  0  0
  6 26  1  0  0  0  0
  7 27  1  0  0  0  0
  7 28  1  0  0  0  0
  7 29  1  0  0  0  0
  8  9  1  0  0  0  0
  8 30  1  0  0  0  0
  9 10  2  0  0  0  0
  9 11  1  0  0  0  0
 11 12  1  0  0  0  0
 11 31  1  0  0  0  0
 11 32  1  0  0  0  0
 12 18  2  0  0  0  0
 12 13  1  0  0  0  0
 13 14  1  0  0  0  0
 13 15  2  0  0  0  0
 14 33  1  0  0  0  0
 14 34  1  0  0  0  0
 14 35  1  0  0  0  0
 15 16  1  0  0  0  0
 16 17  1  0  0  0  0
 16 18  1  0  0  0  0
 17 36  1  0  0  0  0
 17 37  1  0  0  0  0
 17 38  1  0  0  0  0
 18 19  1  0  0  0  0
 19 39  1  0  0  0  0
 19 40  1  0  0  0  0
 19 41  1  0  0  0  0
M  END
> <s_m_source_file>
AV-unprocessed.smi

> <i_m_source_file_index>
1573

> <i_lp_mmshare_version>
43012

> <i_f3d_flags>
0

> <s_epik_input>
W0NIM11bQ0gyXVtOSF1DKD1PKVtDQEhdKFtDSDNdKVtOSF1DKD1PKVtDSDJdYzFjKFtDSDNdKW5uKFtDSDNdKWMxW0NIM10=

> <s_epik_cmdline>
J2VwaWtfcHl0aG9uJywgJy1waCcsICc3LjAnLCAnLXRuJywgJzgnLCAnLW1hJywgJzIwMCcsICctbWV0YWxfYmluZGluZycsICctaW1hZScsICc8aW5maWxlLm1hZT4nLCAnLW9tYWUnLCAnPG91dGZpbGUubWFlPic=

> <r_lp_tautomer_probability>
1

> <r_epik_Ionization_Penalty>
0.00278414

> <r_epik_Ionization_Penalty_Charging>
0

> <r_epik_Ionization_Penalty_Neutral>
0.00278414

> <r_epik_State_Penalty>
0.00194489

> <r_epik_Charging_Adjusted_Penalty>
0.00194489

> <i_epik_Tot_Q>
0

> <i_epik_Tot_abs_Q>
0

> <r_epik_Metal_State_Penalty>
-0

> <b_epik_Metal_Only>
0

> <s_lp_Force_Field>
OPLS_2005

> <r_lp_Energy>
-3.15373

> <b_lp_Chiralities_Consistent>
1

> <s_lp_Variant>
AV-unprocessed.smi:1573-2

> <Gold.Version>
5.8.1

> <Gold.Id.Protein>
6NUR|6NUR_protein|mol2

> <Gold.PLP.Fitness>
47.7799

> <Gold.PLP.PLP>
-40.2092

> <Gold.PLP.part.hbond>
-3.0187

> <Gold.PLP.part.metal>
0.0000

> <Gold.PLP.part.buried>
-6.0415

> <Gold.PLP.part.nonpolar>
-31.4267

> <Gold.PLP.part.repulsive>
0.1187

> <Gold.PLP.ligand.clash>
0.0000

> <Gold.PLP.ligand.torsion>
0.7269

> <Gold.PLP.Chemscore.Hbond>
3.0000

> <Gold.PLP.Chemscore.CHOScore>
0.0000

> <Gold.PLP.Chemscore.Metal>
0.0000

> <Gold.Chemscore.Hbonds>
donor molecule, donor type, donor heavy atom, donor atom, acceptor molecule, acceptor atom, score
      L1  H     3    25       P1  8029  1.00
      L1  H     8    30       P1  8028  1.00
      P1  H  6934  6946       L1     5  1.00

> <Gold.PLP.Chemscore.Internal.Correction>
0.0245

> <Gold.Rescore>
     Score         DG    S(hbond)    S(metal)    S(lipo)     H(rot)  DE(clash)    DE(int)     intcor
     18.29     -19.03       2.60        0.00      83.41       1.91       0.04       0.71       ----

> <Gold.Chemscore.Fitness>
18.2858

> <Gold.Chemscore.DG>
-19.0320

> <Gold.Chemscore.ZeroCoef>
-5.4800

> <Gold.Chemscore.Hbond>
2.5995

> <Gold.Chemscore.Metal>
0.0000

> <Gold.Chemscore.Lipo>
83.4137

> <Gold.Chemscore.Internal_Hbond>
0.0000

> <Gold.Chemscore.DEClash>
0.0361

> <Gold.Chemscore.DEInternal>
0.7101

> <Gold.Chemscore.Rot>
1.9100

> <Gold.Chemscore.Internal.Correction>
   9.000000E+99

> <Gold.Chemscore.Hbonds>
donor molecule, donor type, donor heavy atom, donor atom, acceptor molecule, acceptor atom, score
      L1  H     3    25       P1  8029  0.98
      L1  H     8    30       P1  8028  0.30
      P1  H  6934  6946       L1     5  1.00

> <Gold.Chemscore.Hbond.Weighted>
-8.6822

> <Gold.Chemscore.Metal.Weighted>
-0.0000

> <Gold.Chemscore.Lipo.Weighted>
-9.7594

> <Gold.Chemscore.Internal_Hbond.Weighted>
0.0000

> <Gold.Chemscore.DEClash.Weighted>
0.0361

> <Gold.Chemscore.DEInternal.Weighted>
0.7101

> <Gold.Chemscore.Rot.Weighted>
4.8896

> <Gold.Chemscore.Internal.Correction.Weighted>
   9.000000E+99

> <Gold.Protein.RotatedTorsions>
[ 6907 6896 6895 6894 ] final -103.00 input  -60.11 | X-H torsion
[ 7974 7965 7964 7962 ] final   -4.54 input  175.53 | X-H torsion
[ 8008 7997 7996 7995 ] final   67.37 input   59.86 | X-H torsion
[ 10167 10162 10161 10158 ] final    6.88 input  -65.29 | X-H torsion
[ 10718 10713 10712 10709 ] final    1.58 input   66.30 | X-H torsion
[ 10763 10752 10751 10750 ] final  -34.85 input  -60.55 | X-H torsion
[ 11005 11000 10999 10996 ] final -107.91 input  -57.11 | X-H torsion

> <Gold.Protein.ActiveResidues>
 VAL166  LYS551  ARG553  GLY616  TRP617  ASP618  TYR619  PRO620  LYS621  CYS622 
 ASP623  PHE694  ASN695  SER759  ASP760  ASP761  ALA762  ILE779  LEU786  VAL792 
 PHE793  MET794  SER795  GLU796  ALA797  LYS798  CYS799  TRP800  GLU811  SER814 

> <Gold.Protein.RotatedAtoms>
  150.7220  134.0496  159.3793 H   0  0  0  0  0  0  0  0  0  0  0  0  # atno 6907 bound_to 6896
  151.8473  135.0568  160.0464 H   0  0  0  0  0  0  0  0  0  0  0  0  # atno 6908 bound_to 6896
  152.2817  133.5441  159.5538 H   0  0  0  0  0  0  0  0  0  0  0  0  # atno 6909 bound_to 6896
  146.2370  140.1887  142.8332 H   0  0  0  0  0  0  0  0  0  0  0  0  # atno 7974 bound_to 7965
  155.6919  140.3496  155.4897 H   0  0  0  0  0  0  0  0  0  0  0  0  # atno 8008 bound_to 7997
  155.9517  140.1120  157.0993 H   0  0  0  0  0  0  0  0  0  0  0  0  # atno 8009 bound_to 7997
  154.4123  140.1193  156.5047 H   0  0  0  0  0  0  0  0  0  0  0  0  # atno 8010 bound_to 7997
  140.6403  143.7790  150.7418 H   0  0  0  0  0  0  0  0  0  0  0  0  # atno 10167 bound_to 10162
  156.8503  130.5551  149.5670 H   0  0  0  0  0  0  0  0  0  0  0  0  # atno 10718 bound_to 10713
  153.8535  135.6847  153.4790 H   0  0  0  0  0  0  0  0  0  0  0  0  # atno 10763 bound_to 10752
  153.1383  135.4668  154.9455 H   0  0  0  0  0  0  0  0  0  0  0  0  # atno 10764 bound_to 10752
  154.7791  135.3263  154.7976 H   0  0  0  0  0  0  0  0  0  0  0  0  # atno 10765 bound_to 10752
  141.0929  133.9022  157.2032 H   0  0  0  0  0  0  0  0  0  0  0  0  # atno 11005 bound_to 11000
  144.9876  140.8517  143.5359 LP  0  0  0  0  0  0  0  0  0  0  0  0  # atno 17320 bound_to 7965
  145.1888  139.2312  143.5253 LP  0  0  0  0  0  0  0  0  0  0  0  0  # atno 17321 bound_to 7965
  140.1420  143.4433  152.2187 LP  0  0  0  0  0  0  0  0  0  0  0  0  # atno 17342 bound_to 10162
  139.5612  144.7407  151.4149 LP  0  0  0  0  0  0  0  0  0  0  0  0  # atno 17343 bound_to 10162
  156.0832  130.5837  150.9600 LP  0  0  0  0  0  0  0  0  0  0  0  0  # atno 17370 bound_to 10713
  157.6307  131.0921  150.8447 LP  0  0  0  0  0  0  0  0  0  0  0  0  # atno 17371 bound_to 10713
  139.9759  135.0114  156.9630 LP  0  0  0  0  0  0  0  0  0  0  0  0  # atno 17394 bound_to 11000
  140.5209  134.0909  155.7292 LP  0  0  0  0  0  0  0  0  0  0  0  0  # atno 17395 bound_to 11000

$$$$
