AV-unprocessed.smi:2691|AV-procd|sdf|10391|dock1
  -GOLD-   2272014423D 1   1.00000     0.00000
 Structure written by MMmdl.
 49 51  0  0  0  0  0  0  0  0  1 V2000
  151.3918  143.4972  160.3321 C   0  0  0  0  0  0  0  0  0  0  0  0
  151.4807  142.6047  159.1067 C   0  0  0  0  0  0  0  0  0  0  0  0
  150.6013  142.8340  158.0244 C   0  0  0  0  0  0  0  0  0  0  0  0
  150.6525  142.0277  156.8663 C   0  0  0  0  0  0  0  0  0  0  0  0
  149.8992  142.0723  155.7054 N   0  0  0  0  0  0  0  0  0  0  0  0
  150.4219  141.0673  155.0084 C   0  0  0  0  0  0  0  0  0  0  0  0
  151.4263  140.3767  155.5814 N   0  0  0  0  0  0  0  0  0  0  0  0
  152.1549  139.2537  155.0200 C   0  0  0  0  0  0  0  0  0  0  0  0
  151.2430  138.0460  154.7291 C   0  0  1  0  0  0  0  0  0  0  0  0
  151.9662  137.1199  153.9410 O   0  0  0  0  0  0  0  0  0  0  0  0
  150.7915  137.3451  156.0287 C   0  0  0  0  0  0  0  0  0  0  0  0
  150.4684  135.9264  155.8087 N   0  0  0  0  0  0  0  0  0  0  0  0
  149.3548  135.6564  154.9912 C   0  0  0  0  0  0  0  0  0  0  0  0
  148.9869  134.4451  154.7193 N   0  0  0  0  0  0  0  0  0  0  0  0
  149.7026  133.3640  155.2493 C   0  0  0  0  0  0  0  0  0  0  0  0
  149.2257  131.9592  154.9031 C   0  0  0  0  0  0  0  0  0  0  0  0
  150.1237  130.8940  155.5502 C   0  0  0  0  0  0  0  0  0  0  0  0
  149.1073  131.7507  153.3843 C   0  0  0  0  0  0  0  0  0  0  0  0
  150.7690  133.5745  156.0574 C   0  0  0  0  0  0  0  0  0  0  0  0
  151.2065  134.9320  156.3829 C   0  0  0  0  0  0  0  0  0  0  0  0
  152.1667  135.1614  157.1190 O   0  0  0  0  0  0  0  0  0  0  0  0
  151.6165  140.9789  156.8199 C   0  0  0  0  0  0  0  0  0  0  0  0
  152.4971  140.7404  157.8898 C   0  0  0  0  0  0  0  0  0  0  0  0
  152.4302  141.5533  159.0406 C   0  0  0  0  0  0  0  0  0  0  0  0
  153.3828  141.2855  160.1924 C   0  0  0  0  0  0  0  0  0  0  0  0
  150.6508  144.2857  160.1971 H   0  0  0  0  0  0  0  0  0  0  0  0
  152.3524  143.9729  160.5303 H   0  0  0  0  0  0  0  0  0  0  0  0
  151.1053  142.9147  161.2080 H   0  0  0  0  0  0  0  0  0  0  0  0
  149.8775  143.6339  158.0746 H   0  0  0  0  0  0  0  0  0  0  0  0
  150.0530  140.8178  154.0243 H   0  0  0  0  0  0  0  0  0  0  0  0
  152.6636  139.5800  154.1115 H   0  0  0  0  0  0  0  0  0  0  0  0
  152.9336  138.9739  155.7307 H   0  0  0  0  0  0  0  0  0  0  0  0
  150.3777  138.3869  154.1591 H   0  0  0  0  0  0  0  0  0  0  0  0
  151.5167  137.0094  153.1171 H   0  0  0  0  0  0  0  0  0  0  0  0
  151.5319  137.4830  156.8196 H   0  0  0  0  0  0  0  0  0  0  0  0
  149.8972  137.8379  156.4147 H   0  0  0  0  0  0  0  0  0  0  0  0
  148.8290  136.5335  154.6101 H   0  0  0  0  0  0  0  0  0  0  0  0
  148.2255  131.8376  155.3214 H   0  0  0  0  0  0  0  0  0  0  0  0
  150.1810  131.0324  156.6302 H   0  0  0  0  0  0  0  0  0  0  0  0
  151.1394  130.9345  155.1551 H   0  0  0  0  0  0  0  0  0  0  0  0
  149.7364  129.8915  155.3669 H   0  0  0  0  0  0  0  0  0  0  0  0
  148.4591  132.5036  152.9348 H   0  0  0  0  0  0  0  0  0  0  0  0
  148.6824  130.7727  153.1566 H   0  0  0  0  0  0  0  0  0  0  0  0
  150.0787  131.8093  152.8920 H   0  0  0  0  0  0  0  0  0  0  0  0
  151.3119  132.7360  156.4690 H   0  0  0  0  0  0  0  0  0  0  0  0
  153.2159  139.9365  157.8249 H   0  0  0  0  0  0  0  0  0  0  0  0
  153.9915  140.4000  160.0073 H   0  0  0  0  0  0  0  0  0  0  0  0
  152.8301  141.1219  161.1179 H   0  0  0  0  0  0  0  0  0  0  0  0
  154.0551  142.1319  160.3347 H   0  0  0  0  0  0  0  0  0  0  0  0
  1  2  1  0  0  0  0
  1 26  1  0  0  0  0
  1 27  1  0  0  0  0
  1 28  1  0  0  0  0
  2 24  1  0  0  0  0
  2  3  2  0  0  0  0
  3  4  1  0  0  0  0
  3 29  1  0  0  0  0
  4 22  2  0  0  0  0
  4  5  1  0  0  0  0
  5  6  2  0  0  0  0
  6  7  1  0  0  0  0
  6 30  1  0  0  0  0
  7  8  1  0  0  0  0
  7 22  1  0  0  0  0
  8  9  1  0  0  0  0
  8 31  1  0  0  0  0
  8 32  1  0  0  0  0
  9 10  1  0  0  0  0
  9 11  1  0  0  0  0
  9 33  1  0  0  0  0
 10 34  1  0  0  0  0
 11 12  1  0  0  0  0
 11 35  1  0  0  0  0
 11 36  1  0  0  0  0
 12 20  1  0  0  0  0
 12 13  1  0  0  0  0
 13 14  2  0  0  0  0
 13 37  1  0  0  0  0
 14 15  1  0  0  0  0
 15 16  1  0  0  0  0
 15 19  2  0  0  0  0
 16 17  1  0  0  0  0
 16 18  1  0  0  0  0
 16 38  1  0  0  0  0
 17 39  1  0  0  0  0
 17 40  1  0  0  0  0
 17 41  1  0  0  0  0
 18 42  1  0  0  0  0
 18 43  1  0  0  0  0
 18 44  1  0  0  0  0
 19 20  1  0  0  0  0
 19 45  1  0  0  0  0
 20 21  2  0  0  0  0
 22 23  1  0  0  0  0
 23 24  2  0  0  0  0
 23 46  1  0  0  0  0
 24 25  1  0  0  0  0
 25 47  1  0  0  0  0
 25 48  1  0  0  0  0
 25 49  1  0  0  0  0
M  END
> <s_m_source_file>
AV-unprocessed.smi

> <i_m_source_file_index>
2691

> <i_lp_mmshare_version>
43012

> <i_f3d_flags>
0

> <s_epik_input>
W0NIM11jKFtjSF0xKWMoW0NIM10pW2NIXWMoYzEyKW4oW2NIXW4yKVtDSDJdW0NASF0oW09IXSlbQ0gyXW4zW2NIXW5jKFtDSF0oW0NIM10pW0NIM10pW2NIXWMzPU8=

> <s_epik_cmdline>
J2VwaWtfcHl0aG9uJywgJy1waCcsICc3LjAnLCAnLXRuJywgJzgnLCAnLW1hJywgJzIwMCcsICctbWV0YWxfYmluZGluZycsICctaW1hZScsICc8aW5maWxlLm1hZT4nLCAnLW9tYWUnLCAnPG91dGZpbGUubWFlPic=

> <r_lp_tautomer_probability>
1

> <r_epik_Ionization_Penalty>
0.113357

> <r_epik_Ionization_Penalty_Charging>
3.84185e-08

> <r_epik_Ionization_Penalty_Neutral>
0.113357

> <r_epik_State_Penalty>
0.103025

> <r_epik_Charging_Adjusted_Penalty>
0.103025

> <i_epik_Tot_Q>
0

> <i_epik_Tot_abs_Q>
0

> <r_epik_Metal_State_Penalty>
0.0863451

> <b_epik_Metal_Only>
0

> <s_lp_Force_Field>
OPLS_2005

> <r_lp_Energy>
17.2292

> <b_lp_Chiralities_Consistent>
1

> <s_lp_Variant>
AV-unprocessed.smi:2691-2

> <Gold.Version>
5.8.1

> <Gold.Id.Protein>
6NUR|6NUR_protein|mol2

> <Gold.PLP.Fitness>
51.6897

> <Gold.PLP.PLP>
-44.9748

> <Gold.PLP.part.hbond>
-3.5163

> <Gold.PLP.part.metal>
0.0000

> <Gold.PLP.part.buried>
-3.0648

> <Gold.PLP.part.nonpolar>
-37.8224

> <Gold.PLP.part.repulsive>
0.2097

> <Gold.PLP.ligand.clash>
0.0000

> <Gold.PLP.ligand.torsion>
0.4403

> <Gold.PLP.Chemscore.Hbond>
2.4640

> <Gold.PLP.Chemscore.CHOScore>
0.0000

> <Gold.PLP.Chemscore.Metal>
0.0000

> <Gold.Chemscore.Hbonds>
donor molecule, donor type, donor heavy atom, donor atom, acceptor molecule, acceptor atom, score
      L1  H    10    34       P1  7949  1.00
      P1  H 10752 10763       L1    10  0.78
      P1  H 10752 10764       L1    21  0.22
      L1  C    13    37       P1  7948  0.20

> <Gold.PLP.Chemscore.Internal.Correction>
0.2034

> <Gold.Rescore>
     Score         DG    S(hbond)    S(metal)    S(lipo)     H(rot)  DE(clash)    DE(int)     intcor
     15.95     -16.63       1.56        0.00     104.61       2.45       0.11       0.57       ----

> <Gold.Chemscore.Fitness>
15.9496

> <Gold.Chemscore.DG>
-16.6345

> <Gold.Chemscore.ZeroCoef>
-5.4800

> <Gold.Chemscore.Hbond>
1.5559

> <Gold.Chemscore.Metal>
0.0000

> <Gold.Chemscore.Lipo>
104.6081

> <Gold.Chemscore.Internal_Hbond>
0.0000

> <Gold.Chemscore.DEClash>
0.1113

> <Gold.Chemscore.DEInternal>
0.5736

> <Gold.Chemscore.Rot>
2.4536

> <Gold.Chemscore.Internal.Correction>
   9.000000E+99

> <Gold.Chemscore.Hbonds>
donor molecule, donor type, donor heavy atom, donor atom, acceptor molecule, acceptor atom, score
      L1  H    10    34       P1  7949  0.86
      P1  H 10752 10763       L1    10  0.18
      P1  H 10752 10764       L1    21  0.02

> <Gold.Chemscore.Hbond.Weighted>
-5.1966

> <Gold.Chemscore.Metal.Weighted>
-0.0000

> <Gold.Chemscore.Lipo.Weighted>
-12.2391

> <Gold.Chemscore.Internal_Hbond.Weighted>
0.0000

> <Gold.Chemscore.DEClash.Weighted>
0.1113

> <Gold.Chemscore.DEInternal.Weighted>
0.5736

> <Gold.Chemscore.Rot.Weighted>
6.2812

> <Gold.Chemscore.Internal.Correction.Weighted>
   9.000000E+99

> <Gold.Protein.RotatedTorsions>
[ 6907 6896 6895 6894 ] final  161.83 input  -60.11 | X-H torsion
[ 7974 7965 7964 7962 ] final  -73.48 input  175.53 | X-H torsion
[ 8008 7997 7996 7995 ] final  168.03 input   59.86 | X-H torsion
[ 10167 10162 10161 10158 ] final   96.73 input  -65.29 | X-H torsion
[ 10718 10713 10712 10709 ] final  -25.12 input   66.30 | X-H torsion
[ 10763 10752 10751 10750 ] final    7.46 input  -60.55 | X-H torsion
[ 11005 11000 10999 10996 ] final  -25.23 input  -57.11 | X-H torsion

> <Gold.Protein.ActiveResidues>
 VAL166  LYS551  ARG553  GLY616  TRP617  ASP618  TYR619  PRO620  LYS621  CYS622 
 ASP623  PHE694  ASN695  SER759  ASP760  ASP761  ALA762  ILE779  LEU786  VAL792 
 PHE793  MET794  SER795  GLU796  ALA797  LYS798  CYS799  TRP800  GLU811  SER814 

> <Gold.Protein.RotatedAtoms>
  151.9497  133.3662  159.3995 H   0  0  0  0  0  0  0  0  0  0  0  0  # atno 6907 bound_to 6896
  150.6983  134.4353  159.5276 H   0  0  0  0  0  0  0  0  0  0  0  0  # atno 6908 bound_to 6896
  152.2024  134.8576  160.0557 H   0  0  0  0  0  0  0  0  0  0  0  0  # atno 6909 bound_to 6896
  145.6516  140.9281  143.0981 H   0  0  0  0  0  0  0  0  0  0  0  0  # atno 7974 bound_to 7965
  156.1583  140.1601  156.8656 H   0  0  0  0  0  0  0  0  0  0  0  0  # atno 8008 bound_to 7997
  154.5136  140.0795  156.8073 H   0  0  0  0  0  0  0  0  0  0  0  0  # atno 8009 bound_to 7997
  155.3759  140.3402  155.4247 H   0  0  0  0  0  0  0  0  0  0  0  0  # atno 8010 bound_to 7997
  139.7867  144.6868  150.9948 H   0  0  0  0  0  0  0  0  0  0  0  0  # atno 10167 bound_to 10162
  156.4686  130.4519  149.6883 H   0  0  0  0  0  0  0  0  0  0  0  0  # atno 10718 bound_to 10713
  153.2360  135.6898  153.7836 H   0  0  0  0  0  0  0  0  0  0  0  0  # atno 10763 bound_to 10752
  153.6983  135.3301  155.3219 H   0  0  0  0  0  0  0  0  0  0  0  0  # atno 10764 bound_to 10752
  154.8335  135.4561  154.1264 H   0  0  0  0  0  0  0  0  0  0  0  0  # atno 10765 bound_to 10752
  140.8919  133.7583  156.0432 H   0  0  0  0  0  0  0  0  0  0  0  0  # atno 11005 bound_to 11000
  144.7120  139.8334  143.7411 LP  0  0  0  0  0  0  0  0  0  0  0  0  # atno 17320 bound_to 7965
  146.1199  139.4215  143.0235 LP  0  0  0  0  0  0  0  0  0  0  0  0  # atno 17321 bound_to 7965
  140.7820  143.4424  151.0532 LP  0  0  0  0  0  0  0  0  0  0  0  0  # atno 17342 bound_to 10162
  139.8103  143.7961  152.3170 LP  0  0  0  0  0  0  0  0  0  0  0  0  # atno 17343 bound_to 10162
  156.3642  130.7497  151.2473 LP  0  0  0  0  0  0  0  0  0  0  0  0  # atno 17370 bound_to 10713
  157.7493  131.0341  150.4304 LP  0  0  0  0  0  0  0  0  0  0  0  0  # atno 17371 bound_to 10713
  140.8336  134.3149  157.5339 LP  0  0  0  0  0  0  0  0  0  0  0  0  # atno 17394 bound_to 11000
  139.8731  134.9377  156.3695 LP  0  0  0  0  0  0  0  0  0  0  0  0  # atno 17395 bound_to 11000

$$$$
