AV-unprocessed.smi:2974|AV-procd|sdf|11353|dock3
  -GOLD-   2272016273D 1   1.00000     0.00000
 Structure written by MMmdl.
 27 28  0  0  0  0  0  0  0  0  3 V2000
  150.6207  141.2072  155.2055 O   0  0  0  0  0  0  0  0  0  0  0  0
  151.5498  141.1260  156.0388 C   0  0  0  0  0  0  0  0  0  0  0  0
  152.5110  140.3357  155.9076 O   0  5  0  0  0  0  0  0  0  0  0  0
  151.5136  142.0124  157.2486 C   0  0  0  0  0  0  0  0  0  0  0  0
  152.0953  141.6285  158.4789 C   0  0  0  0  0  0  0  0  0  0  0  0
  152.0316  142.5019  159.5855 C   0  0  0  0  0  0  0  0  0  0  0  0
  152.6133  142.1123  160.7997 N   0  0  0  0  0  0  0  0  0  0  0  0
  153.8850  141.4190  160.6377 C   0  0  0  0  0  0  0  0  0  0  0  0
  154.3893  140.9183  162.0025 C   0  0  0  0  0  0  0  0  0  0  0  0
  154.4778  142.0137  162.9094 O   0  0  0  0  0  0  0  0  0  0  0  0
  153.2135  142.6354  163.1217 C   0  0  0  0  0  0  0  0  0  0  0  0
  152.6782  143.1827  161.7870 C   0  0  0  0  0  0  0  0  0  0  0  0
  151.3823  143.7501  159.4346 C   0  0  0  0  0  0  0  0  0  0  0  0
  150.8190  144.0854  158.1876 C   0  0  0  0  0  0  0  0  0  0  0  0
  150.9048  143.2172  157.1575 N   0  3  0  0  0  0  0  0  0  0  0  0
  152.5881  140.6714  158.5773 H   0  0  0  0  0  0  0  0  0  0  0  0
  153.7642  140.5784  159.9529 H   0  0  0  0  0  0  0  0  0  0  0  0
  154.6215  142.0923  160.1974 H   0  0  0  0  0  0  0  0  0  0  0  0
  153.7261  140.1512  162.4053 H   0  0  0  0  0  0  0  0  0  0  0  0
  155.3745  140.4642  161.8963 H   0  0  0  0  0  0  0  0  0  0  0  0
  152.5134  141.9212  163.5586 H   0  0  0  0  0  0  0  0  0  0  0  0
  153.3322  143.4458  163.8408 H   0  0  0  0  0  0  0  0  0  0  0  0
  153.3304  143.9804  161.4287 H   0  0  0  0  0  0  0  0  0  0  0  0
  151.6869  143.6147  161.9308 H   0  0  0  0  0  0  0  0  0  0  0  0
  151.3155  144.4435  160.2602 H   0  0  0  0  0  0  0  0  0  0  0  0
  150.3069  145.0142  157.9836 H   0  0  0  0  0  0  0  0  0  0  0  0
  150.4921  143.4740  156.2600 H   0  0  0  0  0  0  0  0  0  0  0  0
  1  2  2  0  0  0  0
  2  3  1  0  0  0  0
  2  4  1  0  0  0  0
  4 15  1  0  0  0  0
  4  5  2  0  0  0  0
  5  6  1  0  0  0  0
  5 16  1  0  0  0  0
  6  7  1  0  0  0  0
  6 13  2  0  0  0  0
  7 12  1  0  0  0  0
  7  8  1  0  0  0  0
  8  9  1  0  0  0  0
  8 17  1  0  0  0  0
  8 18  1  0  0  0  0
  9 10  1  0  0  0  0
  9 19  1  0  0  0  0
  9 20  1  0  0  0  0
 10 11  1  0  0  0  0
 11 12  1  0  0  0  0
 11 21  1  0  0  0  0
 11 22  1  0  0  0  0
 12 23  1  0  0  0  0
 12 24  1  0  0  0  0
 13 14  1  0  0  0  0
 13 25  1  0  0  0  0
 14 15  2  0  0  0  0
 14 26  1  0  0  0  0
 15 27  1  0  0  0  0
M  CHG  1   3  -1
M  CHG  1  15   1
M  END
> <s_m_source_file>
AV-unprocessed.smi

> <i_m_source_file_index>
2974

> <i_lp_mmshare_version>
43012

> <i_f3d_flags>
0

> <s_epik_input>
Tz1DKFtPSF0pYzFbY0hdYyhbY0hdW2NIXW4xKU4yW0NIMl1bQ0gyXU9bQ0gyXVtDSDJdMg==

> <s_epik_cmdline>
J2VwaWtfcHl0aG9uJywgJy1waCcsICc3LjAnLCAnLXRuJywgJzgnLCAnLW1hJywgJzIwMCcsICctbWV0YWxfYmluZGluZycsICctaW1hZScsICc8aW5maWxlLm1hZT4nLCAnLW9tYWUnLCAnPG91dGZpbGUubWFlPic=

> <r_epik_Ionization_Penalty>
0.0248724

> <r_epik_Ionization_Penalty_Charging>
0.0248724

> <r_epik_Ionization_Penalty_Neutral>
3.18831e-12

> <r_epik_State_Penalty>
0.0202062

> <r_epik_Charging_Adjusted_Penalty>
0.0450787

> <i_epik_Tot_Q>
0

> <i_epik_Tot_abs_Q>
2

> <r_epik_Metal_State_Penalty>
2.1181

> <b_epik_Metal_Only>
0

> <s_lp_Force_Field>
OPLS_2005

> <r_lp_Energy>
18.0137

> <b_lp_Chiralities_Consistent>
1

> <s_lp_Variant>
AV-unprocessed.smi:2974-1

> <Gold.Version>
5.8.1

> <Gold.Id.Protein>
6NUR|6NUR_protein|mol2

> <Gold.PLP.Fitness>
42.0536

> <Gold.PLP.PLP>
-32.7553

> <Gold.PLP.part.hbond>
-4.0000

> <Gold.PLP.part.metal>
0.0000

> <Gold.PLP.part.buried>
-1.3063

> <Gold.PLP.part.nonpolar>
-25.3560

> <Gold.PLP.part.repulsive>
0.1230

> <Gold.PLP.ligand.clash>
0.1814

> <Gold.PLP.ligand.torsion>
0.7343

> <Gold.PLP.Chemscore.Hbond>
3.6123

> <Gold.PLP.Chemscore.CHOScore>
0.0000

> <Gold.PLP.Chemscore.Metal>
0.0000

> <Gold.Chemscore.Hbonds>
donor molecule, donor type, donor heavy atom, donor atom, acceptor molecule, acceptor atom, score
      L1  H    15    27       P1  8028  1.10
      P1  H  7989  7998       L1     1  0.61
      P1  H  7997  8010       L1     3  2.00

> <Gold.PLP.Chemscore.Internal.Correction>
0.1113

> <Gold.Rescore>
     Score         DG    S(hbond)    S(metal)    S(lipo)     H(rot)  DE(clash)    DE(int)     intcor
     16.55     -18.65       1.56        0.00      89.90       1.00       1.58       0.52       ----

> <Gold.Chemscore.Fitness>
16.5525

> <Gold.Chemscore.DG>
-18.6515

> <Gold.Chemscore.ZeroCoef>
-5.4800

> <Gold.Chemscore.Hbond>
1.5608

> <Gold.Chemscore.Metal>
0.0000

> <Gold.Chemscore.Lipo>
89.9020

> <Gold.Chemscore.Internal_Hbond>
0.0000

> <Gold.Chemscore.DEClash>
1.5769

> <Gold.Chemscore.DEInternal>
0.5221

> <Gold.Chemscore.Rot>
1.0000

> <Gold.Chemscore.Internal.Correction>
   9.000000E+99

> <Gold.Chemscore.Hbonds>
donor molecule, donor type, donor heavy atom, donor atom, acceptor molecule, acceptor atom, score
      L1  H    15    27       P1  8028  0.55
      P1  H  7989  7998       L1     1  0.17
      P1  H  7997  8010       L1     3  0.98

> <Gold.Chemscore.Hbond.Weighted>
-5.2129

> <Gold.Chemscore.Metal.Weighted>
-0.0000

> <Gold.Chemscore.Lipo.Weighted>
-10.5185

> <Gold.Chemscore.Internal_Hbond.Weighted>
0.0000

> <Gold.Chemscore.DEClash.Weighted>
1.5769

> <Gold.Chemscore.DEInternal.Weighted>
0.5221

> <Gold.Chemscore.Rot.Weighted>
2.5600

> <Gold.Chemscore.Internal.Correction.Weighted>
   9.000000E+99

> <Gold.Protein.RotatedTorsions>
[ 6907 6896 6895 6894 ] final   71.06 input  -60.11 | X-H torsion
[ 7974 7965 7964 7962 ] final  122.66 input  175.53 | X-H torsion
[ 8008 7997 7996 7995 ] final   85.06 input   59.86 | X-H torsion
[ 10167 10162 10161 10158 ] final  -52.55 input  -65.29 | X-H torsion
[ 10718 10713 10712 10709 ] final   91.71 input   66.30 | X-H torsion
[ 10763 10752 10751 10750 ] final -172.96 input  -60.55 | X-H torsion
[ 11005 11000 10999 10996 ] final -150.77 input  -57.11 | X-H torsion

> <Gold.Protein.ActiveResidues>
 VAL166  LYS551  ARG553  GLY616  TRP617  ASP618  TYR619  PRO620  LYS621  CYS622 
 ASP623  PHE694  ASN695  SER759  ASP760  ASP761  ALA762  ILE779  LEU786  VAL792 
 PHE793  MET794  SER795  GLU796  ALA797  LYS798  CYS799  TRP800  GLU811  SER814 

> <Gold.Protein.RotatedAtoms>
  152.4787  134.4776  159.9655 H   0  0  0  0  0  0  0  0  0  0  0  0  # atno 6907 bound_to 6896
  151.4786  133.3546  159.2842 H   0  0  0  0  0  0  0  0  0  0  0  0  # atno 6908 bound_to 6896
  150.8844  134.8266  159.7309 H   0  0  0  0  0  0  0  0  0  0  0  0  # atno 6909 bound_to 6896
  145.1050  139.3492  143.4792 H   0  0  0  0  0  0  0  0  0  0  0  0  # atno 7974 bound_to 7965
  155.9451  140.3405  155.6360 H   0  0  0  0  0  0  0  0  0  0  0  0  # atno 8008 bound_to 7997
  155.6991  140.0758  157.2436 H   0  0  0  0  0  0  0  0  0  0  0  0  # atno 8009 bound_to 7997
  154.4110  140.1643  156.2158 H   0  0  0  0  0  0  0  0  0  0  0  0  # atno 8010 bound_to 7997
  140.6531  143.2580  151.4664 H   0  0  0  0  0  0  0  0  0  0  0  0  # atno 10167 bound_to 10162
  157.6960  131.0417  150.3770 H   0  0  0  0  0  0  0  0  0  0  0  0  # atno 10718 bound_to 10713
  154.6134  135.2867  155.0407 H   0  0  0  0  0  0  0  0  0  0  0  0  # atno 10763 bound_to 10752
  154.1629  135.6485  153.4994 H   0  0  0  0  0  0  0  0  0  0  0  0  # atno 10764 bound_to 10752
  153.0204  135.5382  154.6896 H   0  0  0  0  0  0  0  0  0  0  0  0  # atno 10765 bound_to 10752
  140.7367  134.3560  157.5156 H   0  0  0  0  0  0  0  0  0  0  0  0  # atno 11005 bound_to 11000
  146.3528  140.0944  142.8611 LP  0  0  0  0  0  0  0  0  0  0  0  0  # atno 17320 bound_to 7965
  145.0912  140.9285  143.4768 LP  0  0  0  0  0  0  0  0  0  0  0  0  # atno 17321 bound_to 7965
  139.5749  144.1841  152.1889 LP  0  0  0  0  0  0  0  0  0  0  0  0  # atno 17342 bound_to 10162
  140.1149  144.5425  150.6901 LP  0  0  0  0  0  0  0  0  0  0  0  0  # atno 17343 bound_to 10162
  156.4188  130.3949  149.6839 LP  0  0  0  0  0  0  0  0  0  0  0  0  # atno 17370 bound_to 10713
  156.4097  130.7716  151.2728 LP  0  0  0  0  0  0  0  0  0  0  0  0  # atno 17371 bound_to 10713
  139.8815  134.9054  156.2898 LP  0  0  0  0  0  0  0  0  0  0  0  0  # atno 17394 bound_to 11000
  140.9873  133.7230  156.0761 LP  0  0  0  0  0  0  0  0  0  0  0  0  # atno 17395 bound_to 11000

$$$$
