AV-unprocessed.smi:3029|AV-procd|sdf|11528|dock7
  -GOLD-   2272016473D 1   1.00000     0.00000
 Structure written by MMmdl.
 42 43  0  0  0  0  0  0  0  0  4 V2000
  149.0167  141.4578  153.9573 O   0  0  0  0  0  0  0  0  0  0  0  0
  148.2301  141.6180  154.8906 C   0  0  0  0  0  0  0  0  0  0  0  0
  146.8979  142.2000  154.6972 C   0  0  0  0  0  0  0  0  0  0  0  0
  146.0516  142.3898  155.7287 C   0  0  0  0  0  0  0  0  0  0  0  0
  146.4402  142.0214  157.0766 C   0  0  0  0  0  0  0  0  0  0  0  0
  145.5478  142.2369  158.1940 N   0  3  0  0  0  0  0  0  0  0  0  0
  144.4340  142.7076  157.9836 O   0  0  0  0  0  0  0  0  0  0  0  0
  145.9327  141.9395  159.3201 O   0  5  0  0  0  0  0  0  0  0  0  0
  147.6616  141.4786  157.2500 C   0  0  0  0  0  0  0  0  0  0  0  0
  148.5457  141.2684  156.1743 N   0  0  0  0  0  0  0  0  0  0  0  0
  149.8505  140.6716  156.4891 C   0  0  0  0  0  0  0  0  0  0  0  0
  151.0060  141.5308  155.9510 C   0  0  0  0  0  0  0  0  0  0  0  0
  151.4012  142.5565  156.9385 N   0  3  0  0  0  0  0  0  0  0  0  0
  151.6162  142.0611  158.3181 C   0  0  1  0  0  0  0  0  0  0  0  0
  152.5125  140.8016  158.2865 C   0  0  0  0  0  0  0  0  0  0  0  0
  152.8177  140.2726  159.6930 C   0  0  0  0  0  0  0  0  0  0  0  0
  153.4641  141.3626  160.5532 C   0  0  0  0  0  0  0  0  0  0  0  0
  152.5671  142.6055  160.6184 C   0  0  0  0  0  0  0  0  0  0  0  0
  152.2360  143.1712  159.2169 C   0  0  2  0  0  0  0  0  0  0  0  0
  151.3356  144.4262  159.3522 C   0  0  0  0  0  0  0  0  0  0  0  0
  151.8576  145.2866  160.2265 F   0  0  0  0  0  0  0  0  0  0  0  0
  151.2208  145.0333  158.1710 F   0  0  0  0  0  0  0  0  0  0  0  0
  150.1077  144.1001  159.7548 F   0  0  0  0  0  0  0  0  0  0  0  0
  146.5884  142.4827  153.7015 H   0  0  0  0  0  0  0  0  0  0  0  0
  145.0800  142.8210  155.5366 H   0  0  0  0  0  0  0  0  0  0  0  0
  148.0464  141.1758  158.2135 H   0  0  0  0  0  0  0  0  0  0  0  0
  149.9557  140.5497  157.5683 H   0  0  0  0  0  0  0  0  0  0  0  0
  149.9144  139.6599  156.0833 H   0  0  0  0  0  0  0  0  0  0  0  0
  151.8687  140.9016  155.7276 H   0  0  0  0  0  0  0  0  0  0  0  0
  150.7044  142.0080  155.0186 H   0  0  0  0  0  0  0  0  0  0  0  0
  152.2393  143.0228  156.6221 H   0  0  0  0  0  0  0  0  0  0  0  0
  150.6474  141.7903  158.7410 H   0  0  0  0  0  0  0  0  0  0  0  0
  152.0384  140.0063  157.7117 H   0  0  0  0  0  0  0  0  0  0  0  0
  153.4502  141.0299  157.7775 H   0  0  0  0  0  0  0  0  0  0  0  0
  151.8970  139.9268  160.1648 H   0  0  0  0  0  0  0  0  0  0  0  0
  153.4781  139.4072  159.6303 H   0  0  0  0  0  0  0  0  0  0  0  0
  153.6475  140.9828  161.5589 H   0  0  0  0  0  0  0  0  0  0  0  0
  154.4378  141.6309  160.1411 H   0  0  0  0  0  0  0  0  0  0  0  0
  151.6439  142.3538  161.1419 H   0  0  0  0  0  0  0  0  0  0  0  0
  153.0626  143.3651  161.2237 H   0  0  0  0  0  0  0  0  0  0  0  0
  153.1765  143.4870  158.7621 H   0  0  0  0  0  0  0  0  0  0  0  0
  150.6532  143.2348  156.9735 H   0  0  0  0  0  0  0  0  0  0  0  0
  1  2  2  0  0  0  0
  2 10  1  0  0  0  0
  2  3  1  0  0  0  0
  3  4  2  0  0  0  0
  3 24  1  0  0  0  0
  4  5  1  0  0  0  0
  4 25  1  0  0  0  0
  5  6  1  0  0  0  0
  5  9  2  0  0  0  0
  6  7  2  0  0  0  0
  6  8  1  0  0  0  0
  9 10  1  0  0  0  0
  9 26  1  0  0  0  0
 10 11  1  0  0  0  0
 11 12  1  0  0  0  0
 11 27  1  0  0  0  0
 11 28  1  0  0  0  0
 12 13  1  0  0  0  0
 12 29  1  0  0  0  0
 12 30  1  0  0  0  0
 13 14  1  0  0  0  0
 13 31  1  0  0  0  0
 13 42  1  0  0  0  0
 14 19  1  0  0  0  0
 14 15  1  0  0  0  0
 14 32  1  0  0  0  0
 15 16  1  0  0  0  0
 15 33  1  0  0  0  0
 15 34  1  0  0  0  0
 16 17  1  0  0  0  0
 16 35  1  0  0  0  0
 16 36  1  0  0  0  0
 17 18  1  0  0  0  0
 17 37  1  0  0  0  0
 17 38  1  0  0  0  0
 18 19  1  0  0  0  0
 18 39  1  0  0  0  0
 18 40  1  0  0  0  0
 19 20  1  0  0  0  0
 19 41  1  0  0  0  0
 20 21  1  0  0  0  0
 20 22  1  0  0  0  0
 20 23  1  0  0  0  0
M  CHG  1   6   1
M  CHG  1   8  -1
M  CHG  1  13   1
M  END
> <s_m_source_file>
AV-unprocessed.smi

> <i_m_source_file_index>
3029

> <i_lp_mmshare_version>
43012

> <i_f3d_flags>
0

> <s_epik_input>
Tz1jMVtjSF1bY0hdYyhbTitdKD1PKVtPLV0pW2NIXW4xW0NIMl1bQ0gyXVtOSF1bQ0BASF0yW0NIMl1bQ0gyXVtDSDJdW0NIMl1bQ0BIXTJDKEYpKEYpRg==

> <s_epik_cmdline>
J2VwaWtfcHl0aG9uJywgJy1waCcsICc3LjAnLCAnLXRuJywgJzgnLCAnLW1hJywgJzIwMCcsICctbWV0YWxfYmluZGluZycsICctaW1hZScsICc8aW5maWxlLm1hZT4nLCAnLW9tYWUnLCAnPG91dGZpbGUubWFlPic=

> <r_lp_tautomer_probability>
1

> <r_epik_Ionization_Penalty>
0.037386

> <r_epik_Ionization_Penalty_Charging>
0.037386

> <r_epik_Ionization_Penalty_Neutral>
0

> <r_epik_State_Penalty>
0.0312892

> <r_epik_Charging_Adjusted_Penalty>
0.0686752

> <i_epik_Tot_Q>
1

> <i_epik_Tot_abs_Q>
3

> <r_epik_Metal_State_Penalty>
0.0312892

> <b_epik_Metal_Only>
0

> <s_lp_Force_Field>
OPLS_2005

> <r_lp_Energy>
31.4453

> <b_lp_Chiralities_Consistent>
1

> <s_lp_Variant>
AV-unprocessed.smi:3029-4

> <Gold.Version>
5.8.1

> <Gold.Id.Protein>
6NUR|6NUR_protein|mol2

> <Gold.PLP.Fitness>
49.1715

> <Gold.PLP.PLP>
-44.9312

> <Gold.PLP.part.hbond>
-2.3817

> <Gold.PLP.part.metal>
0.0000

> <Gold.PLP.part.buried>
-5.1427

> <Gold.PLP.part.nonpolar>
-36.8671

> <Gold.PLP.part.repulsive>
0.2746

> <Gold.PLP.ligand.clash>
0.0000

> <Gold.PLP.ligand.torsion>
0.4043

> <Gold.PLP.Chemscore.Hbond>
1.6630

> <Gold.PLP.Chemscore.CHOScore>
0.0000

> <Gold.PLP.Chemscore.Metal>
0.0000

> <Gold.Chemscore.Hbonds>
donor molecule, donor type, donor heavy atom, donor atom, acceptor molecule, acceptor atom, score
      P1  H  6934  6946       L1     8  1.00
      P1  H  8011  8017       L1     1  0.70

> <Gold.PLP.Chemscore.Internal.Correction>
0.0598

> <Gold.Rescore>
     Score         DG    S(hbond)    S(metal)    S(lipo)     H(rot)  DE(clash)    DE(int)     intcor
     13.72     -16.92       1.59        0.00      94.17       1.90       0.14       3.06       ----

> <Gold.Chemscore.Fitness>
13.7154

> <Gold.Chemscore.DG>
-16.9207

> <Gold.Chemscore.ZeroCoef>
-5.4800

> <Gold.Chemscore.Hbond>
1.5856

> <Gold.Chemscore.Metal>
0.0000

> <Gold.Chemscore.Lipo>
94.1746

> <Gold.Chemscore.Internal_Hbond>
0.0000

> <Gold.Chemscore.DEClash>
0.1447

> <Gold.Chemscore.DEInternal>
3.0607

> <Gold.Chemscore.Rot>
1.9037

> <Gold.Chemscore.Internal.Correction>
   9.000000E+99

> <Gold.Chemscore.Hbonds>
donor molecule, donor type, donor heavy atom, donor atom, acceptor molecule, acceptor atom, score
      P1  H  6934  6946       L1     8  0.93
      P1  H  8011  8017       L1     1  0.66

> <Gold.Chemscore.Hbond.Weighted>
-5.2958

> <Gold.Chemscore.Metal.Weighted>
-0.0000

> <Gold.Chemscore.Lipo.Weighted>
-11.0184

> <Gold.Chemscore.Internal_Hbond.Weighted>
0.0000

> <Gold.Chemscore.DEClash.Weighted>
0.1447

> <Gold.Chemscore.DEInternal.Weighted>
3.0607

> <Gold.Chemscore.Rot.Weighted>
4.8736

> <Gold.Chemscore.Internal.Correction.Weighted>
   9.000000E+99

> <Gold.Protein.RotatedTorsions>
[ 6907 6896 6895 6894 ] final  -95.28 input  -60.11 | X-H torsion
[ 7974 7965 7964 7962 ] final   38.66 input  175.53 | X-H torsion
[ 8008 7997 7996 7995 ] final  -69.91 input   59.86 | X-H torsion
[ 10167 10162 10161 10158 ] final  115.39 input  -65.29 | X-H torsion
[ 10718 10713 10712 10709 ] final   20.79 input   66.30 | X-H torsion
[ 10763 10752 10751 10750 ] final  -79.56 input  -60.55 | X-H torsion
[ 11005 11000 10999 10996 ] final  159.23 input  -57.11 | X-H torsion

> <Gold.Protein.ActiveResidues>
 VAL166  LYS551  ARG553  GLY616  TRP617  ASP618  TYR619  PRO620  LYS621  CYS622 
 ASP623  PHE694  ASN695  SER759  ASP760  ASP761  ALA762  ILE779  LEU786  VAL792 
 PHE793  MET794  SER795  GLU796  ALA797  LYS798  CYS799  TRP800  GLU811  SER814 

> <Gold.Protein.RotatedAtoms>
  150.6960  134.1681  159.4201 H   0  0  0  0  0  0  0  0  0  0  0  0  # atno 6907 bound_to 6896
  151.9660  135.0098  160.0559 H   0  0  0  0  0  0  0  0  0  0  0  0  # atno 6908 bound_to 6896
  152.1884  133.4721  159.5032 H   0  0  0  0  0  0  0  0  0  0  0  0  # atno 6909 bound_to 6896
  146.1045  139.5745  142.9393 H   0  0  0  0  0  0  0  0  0  0  0  0  # atno 7974 bound_to 7965
  154.4973  140.0844  156.7723 H   0  0  0  0  0  0  0  0  0  0  0  0  # atno 8008 bound_to 7997
  155.4087  140.3440  155.4244 H   0  0  0  0  0  0  0  0  0  0  0  0  # atno 8009 bound_to 7997
  156.1410  140.1529  156.8908 H   0  0  0  0  0  0  0  0  0  0  0  0  # atno 8010 bound_to 7997
  139.6320  144.7116  151.2412 H   0  0  0  0  0  0  0  0  0  0  0  0  # atno 10167 bound_to 10162
  157.1295  130.6584  149.5947 H   0  0  0  0  0  0  0  0  0  0  0  0  # atno 10718 bound_to 10713
  154.5401  135.5691  153.6832 H   0  0  0  0  0  0  0  0  0  0  0  0  # atno 10763 bound_to 10752
  152.9961  135.6226  154.2513 H   0  0  0  0  0  0  0  0  0  0  0  0  # atno 10764 bound_to 10752
  154.2444  135.2861  155.2821 H   0  0  0  0  0  0  0  0  0  0  0  0  # atno 10765 bound_to 10752
  140.1942  134.8385  157.2946 H   0  0  0  0  0  0  0  0  0  0  0  0  # atno 11005 bound_to 11000
  145.5789  141.0385  143.2133 LP  0  0  0  0  0  0  0  0  0  0  0  0  # atno 17320 bound_to 7965
  144.7459  139.7321  143.7292 LP  0  0  0  0  0  0  0  0  0  0  0  0  # atno 17321 bound_to 7965
  140.7444  143.6463  150.8289 LP  0  0  0  0  0  0  0  0  0  0  0  0  # atno 17342 bound_to 10162
  140.0089  143.5664  152.2847 LP  0  0  0  0  0  0  0  0  0  0  0  0  # atno 17343 bound_to 10162
  155.9811  130.4816  150.6809 LP  0  0  0  0  0  0  0  0  0  0  0  0  # atno 17370 bound_to 10713
  157.4405  131.0860  151.0948 LP  0  0  0  0  0  0  0  0  0  0  0  0  # atno 17371 bound_to 10713
  140.2126  134.4120  155.7605 LP  0  0  0  0  0  0  0  0  0  0  0  0  # atno 17394 bound_to 11000
  141.2227  133.7126  156.8362 LP  0  0  0  0  0  0  0  0  0  0  0  0  # atno 17395 bound_to 11000

$$$$
