AV-unprocessed.smi:3168|AV-procd|sdf|12101|dock5
  -GOLD-   2272017533D 1   1.00000     0.00000
 Structure written by MMmdl.
 33 34  0  0  0  0  0  0  0  0  1 V2000
  150.2053  138.5520  154.6487 C   0  0  0  0  0  0  0  0  0  0  0  0
  149.9904  140.0313  155.0296 C   0  0  2  0  0  0  0  0  0  0  0  0
  150.0169  140.2722  156.5493 C   0  0  0  0  0  0  0  0  0  0  0  0
  150.0091  139.3259  157.3377 O   0  0  0  0  0  0  0  0  0  0  0  0
  150.0627  141.5544  156.9459 N   0  0  0  0  0  0  0  0  0  0  0  0
  150.1286  142.0069  158.3304 C   0  0  0  0  0  0  0  0  0  0  0  0
  151.4420  142.7547  158.6107 C   0  0  1  0  0  0  0  0  0  0  0  0
  151.6546  143.9753  157.7183 C   0  0  0  0  0  0  0  0  0  0  0  0
  152.6330  144.7836  158.5396 C   0  0  0  0  0  0  0  0  0  0  0  0
  152.1350  144.5364  159.9617 C   0  0  0  0  0  0  0  0  0  0  0  0
  151.4639  143.2787  159.9359 O   0  0  0  0  0  0  0  0  0  0  0  0
  148.7706  140.5731  154.4401 N   0  0  0  0  0  0  0  0  0  0  0  0
  148.3129  141.8749  154.4826 C   0  0  0  0  0  0  0  0  0  0  0  0
  147.1165  141.9117  153.8257 C   0  0  0  0  0  0  0  0  0  0  0  0
  146.9146  140.5646  153.4161 C   0  0  0  0  0  0  0  0  0  0  0  0
  147.9006  139.7655  153.7895 N   0  0  0  0  0  0  0  0  0  0  0  0
  151.1500  138.1767  155.0440 H   0  0  0  0  0  0  0  0  0  0  0  0
  150.2345  138.4304  153.5656 H   0  0  0  0  0  0  0  0  0  0  0  0
  149.4095  137.9115  155.0314 H   0  0  0  0  0  0  0  0  0  0  0  0
  150.8259  140.5939  154.6101 H   0  0  0  0  0  0  0  0  0  0  0  0
  150.0657  142.2697  156.2334 H   0  0  0  0  0  0  0  0  0  0  0  0
  149.2846  142.6765  158.4977 H   0  0  0  0  0  0  0  0  0  0  0  0
  150.0024  141.1746  159.0249 H   0  0  0  0  0  0  0  0  0  0  0  0
  152.2926  142.0800  158.4990 H   0  0  0  0  0  0  0  0  0  0  0  0
  152.0355  143.7189  156.7295 H   0  0  0  0  0  0  0  0  0  0  0  0
  150.7232  144.5302  157.5949 H   0  0  0  0  0  0  0  0  0  0  0  0
  153.6401  144.3822  158.4192 H   0  0  0  0  0  0  0  0  0  0  0  0
  152.6516  145.8401  158.2710 H   0  0  0  0  0  0  0  0  0  0  0  0
  152.9488  144.5361  160.6872 H   0  0  0  0  0  0  0  0  0  0  0  0
  151.4188  145.3036  160.2574 H   0  0  0  0  0  0  0  0  0  0  0  0
  148.8709  142.6593  154.9725 H   0  0  0  0  0  0  0  0  0  0  0  0
  146.4807  142.7697  153.6652 H   0  0  0  0  0  0  0  0  0  0  0  0
  146.0854  140.1454  152.8653 H   0  0  0  0  0  0  0  0  0  0  0  0
  1  2  1  0  0  0  0
  1 17  1  0  0  0  0
  1 18  1  0  0  0  0
  1 19  1  0  0  0  0
  2  3  1  0  0  0  0
  2 12  1  0  0  0  0
  2 20  1  0  0  0  0
  3  4  2  0  0  0  0
  3  5  1  0  0  0  0
  5  6  1  0  0  0  0
  5 21  1  0  0  0  0
  6  7  1  0  0  0  0
  6 22  1  0  0  0  0
  6 23  1  0  0  0  0
  7 11  1  0  0  0  0
  7  8  1  0  0  0  0
  7 24  1  0  0  0  0
  8  9  1  0  0  0  0
  8 25  1  0  0  0  0
  8 26  1  0  0  0  0
  9 10  1  0  0  0  0
  9 27  1  0  0  0  0
  9 28  1  0  0  0  0
 10 11  1  0  0  0  0
 10 29  1  0  0  0  0
 10 30  1  0  0  0  0
 12 16  1  0  0  0  0
 12 13  1  0  0  0  0
 13 14  2  0  0  0  0
 13 31  1  0  0  0  0
 14 15  1  0  0  0  0
 14 32  1  0  0  0  0
 15 16  2  0  0  0  0
 15 33  1  0  0  0  0
M  END
> <s_m_source_file>
AV-unprocessed.smi

> <i_m_source_file_index>
3168

> <i_lp_mmshare_version>
43012

> <i_f3d_flags>
0

> <s_epik_input>
bjFbY0hdW2NIXVtjSF1uMVtDQEhdKFtDSDNdKUMoPU8pW05IXVtDSDJdW0NAQEhdMltDSDJdW0NIMl1bQ0gyXU8y

> <s_epik_cmdline>
J2VwaWtfcHl0aG9uJywgJy1waCcsICc3LjAnLCAnLXRuJywgJzgnLCAnLW1hJywgJzIwMCcsICctbWV0YWxfYmluZGluZycsICctaW1hZScsICc8aW5maWxlLm1hZT4nLCAnLW9tYWUnLCAnPG91dGZpbGUubWFlPic=

> <r_lp_tautomer_probability>
1

> <r_epik_Ionization_Penalty>
4.14877e-05

> <r_epik_Ionization_Penalty_Charging>
0

> <r_epik_Ionization_Penalty_Neutral>
4.14877e-05

> <r_epik_State_Penalty>
-0

> <r_epik_Charging_Adjusted_Penalty>
0

> <i_epik_Tot_Q>
0

> <i_epik_Tot_abs_Q>
0

> <r_epik_Metal_State_Penalty>
-0

> <b_epik_Metal_Only>
0

> <s_lp_Force_Field>
OPLS_2005

> <r_lp_Energy>
21.5397

> <b_lp_Chiralities_Consistent>
1

> <s_lp_Variant>
AV-unprocessed.smi:3168-3

> <Gold.Version>
5.8.1

> <Gold.Id.Protein>
6NUR|6NUR_protein|mol2

> <Gold.PLP.Fitness>
40.3197

> <Gold.PLP.PLP>
-34.5601

> <Gold.PLP.part.hbond>
0.0000

> <Gold.PLP.part.metal>
0.0000

> <Gold.PLP.part.buried>
-3.6954

> <Gold.PLP.part.nonpolar>
-32.0172

> <Gold.PLP.part.repulsive>
1.0542

> <Gold.PLP.ligand.clash>
0.0000

> <Gold.PLP.ligand.torsion>
0.1723

> <Gold.PLP.Chemscore.Hbond>
0.0000

> <Gold.PLP.Chemscore.CHOScore>
2.0000

> <Gold.PLP.Chemscore.Metal>
0.0000

> <Gold.Chemscore.Hbonds>
donor molecule, donor type, donor heavy atom, donor atom, acceptor molecule, acceptor atom, score
      L1  C    13    31       P1  8028  1.00
      L1  C    15    33       P1 10175  1.00

> <Gold.PLP.Chemscore.Internal.Correction>
0.1042

> <Gold.Rescore>
     Score         DG    S(hbond)    S(metal)    S(lipo)     H(rot)  DE(clash)    DE(int)     intcor
     11.77     -12.14       0.00        0.00      92.17       1.61       0.04       0.34       ----

> <Gold.Chemscore.Fitness>
11.7654

> <Gold.Chemscore.DG>
-12.1439

> <Gold.Chemscore.ZeroCoef>
-5.4800

> <Gold.Chemscore.Hbond>
0.0000

> <Gold.Chemscore.Metal>
0.0000

> <Gold.Chemscore.Lipo>
92.1708

> <Gold.Chemscore.Internal_Hbond>
0.0000

> <Gold.Chemscore.DEClash>
0.0424

> <Gold.Chemscore.DEInternal>
0.3361

> <Gold.Chemscore.Rot>
1.6094

> <Gold.Chemscore.Internal.Correction>
   9.000000E+99

> <Gold.Chemscore.Hbond.Weighted>
-0.0000

> <Gold.Chemscore.Metal.Weighted>
-0.0000

> <Gold.Chemscore.Lipo.Weighted>
-10.7840

> <Gold.Chemscore.Internal_Hbond.Weighted>
0.0000

> <Gold.Chemscore.DEClash.Weighted>
0.0424

> <Gold.Chemscore.DEInternal.Weighted>
0.3361

> <Gold.Chemscore.Rot.Weighted>
4.1201

> <Gold.Chemscore.Internal.Correction.Weighted>
   9.000000E+99

> <Gold.Protein.RotatedTorsions>
[ 6907 6896 6895 6894 ] final  165.29 input  -60.11 | X-H torsion
[ 7974 7965 7964 7962 ] final  -44.46 input  175.53 | X-H torsion
[ 8008 7997 7996 7995 ] final -119.35 input   59.86 | X-H torsion
[ 10167 10162 10161 10158 ] final   68.32 input  -65.29 | X-H torsion
[ 10718 10713 10712 10709 ] final -142.22 input   66.30 | X-H torsion
[ 10763 10752 10751 10750 ] final  -22.22 input  -60.55 | X-H torsion
[ 11005 11000 10999 10996 ] final -128.74 input  -57.11 | X-H torsion

> <Gold.Protein.ActiveResidues>
 VAL166  LYS551  ARG553  GLY616  TRP617  ASP618  TYR619  PRO620  LYS621  CYS622 
 ASP623  PHE694  ASN695  SER759  ASP760  ASP761  ALA762  ILE779  LEU786  VAL792 
 PHE793  MET794  SER795  GLU796  ALA797  LYS798  CYS799  TRP800  GLU811  SER814 

> <Gold.Protein.RotatedAtoms>
  151.8967  133.3528  159.3816 H   0  0  0  0  0  0  0  0  0  0  0  0  # atno 6907 bound_to 6896
  150.7090  134.4869  159.5506 H   0  0  0  0  0  0  0  0  0  0  0  0  # atno 6908 bound_to 6896
  152.2450  134.8191  160.0505 H   0  0  0  0  0  0  0  0  0  0  0  0  # atno 6909 bound_to 6896
  145.9919  140.7172  142.9313 H   0  0  0  0  0  0  0  0  0  0  0  0  # atno 7974 bound_to 7965
  155.1143  140.0397  157.2732 H   0  0  0  0  0  0  0  0  0  0  0  0  # atno 8008 bound_to 7997
  154.6662  140.2602  155.7030 H   0  0  0  0  0  0  0  0  0  0  0  0  # atno 8009 bound_to 7997
  156.2639  140.2807  156.1153 H   0  0  0  0  0  0  0  0  0  0  0  0  # atno 8010 bound_to 7997
  140.0799  144.5080  150.7169 H   0  0  0  0  0  0  0  0  0  0  0  0  # atno 10167 bound_to 10162
  156.3433  130.7649  151.1789 H   0  0  0  0  0  0  0  0  0  0  0  0  # atno 10718 bound_to 10713
  153.6486  135.6982  153.5217 H   0  0  0  0  0  0  0  0  0  0  0  0  # atno 10763 bound_to 10752
  153.2725  135.4210  155.1001 H   0  0  0  0  0  0  0  0  0  0  0  0  # atno 10764 bound_to 10752
  154.8482  135.3582  154.6030 H   0  0  0  0  0  0  0  0  0  0  0  0  # atno 10765 bound_to 10752
  140.9490  134.1091  157.4080 H   0  0  0  0  0  0  0  0  0  0  0  0  # atno 11005 bound_to 11000
  144.6891  140.3084  143.7252 LP  0  0  0  0  0  0  0  0  0  0  0  0  # atno 17320 bound_to 7965
  145.7618  139.1827  143.2263 LP  0  0  0  0  0  0  0  0  0  0  0  0  # atno 17321 bound_to 7965
  140.7083  143.2485  151.4660 LP  0  0  0  0  0  0  0  0  0  0  0  0  # atno 17342 bound_to 10162
  139.5785  144.1763  152.1937 LP  0  0  0  0  0  0  0  0  0  0  0  0  # atno 17343 bound_to 10162
  157.7450  131.0448  150.4812 LP  0  0  0  0  0  0  0  0  0  0  0  0  # atno 17370 bound_to 10713
  156.4996  130.4114  149.6360 LP  0  0  0  0  0  0  0  0  0  0  0  0  # atno 17371 bound_to 10713
  139.8842  135.0060  156.6352 LP  0  0  0  0  0  0  0  0  0  0  0  0  # atno 17394 bound_to 11000
  140.7628  133.8803  155.8431 LP  0  0  0  0  0  0  0  0  0  0  0  0  # atno 17395 bound_to 11000

$$$$
