AV-unprocessed.smi:1982|AV-procd|sdf|8023|dock6
  -GOLD-   2272010213D 1   1.00000     0.00000
 Structure written by MMmdl.
 36 37  0  0  0  0  0  0  0  0  1 V2000
  151.2816  144.3602  160.5754 C   0  0  0  0  0  0  0  0  0  0  0  0
  152.5732  143.8853  159.8786 C   0  0  1  0  0  0  0  0  0  0  0  0
  153.3656  142.8995  160.7619 C   0  0  0  0  0  0  0  0  0  0  0  0
  152.6942  141.5193  160.8399 C   0  0  0  0  0  0  0  0  0  0  0  0
  152.4736  140.9295  159.4401 C   0  0  0  0  0  0  0  0  0  0  0  0
  151.6780  141.8889  158.5319 C   0  0  2  0  0  0  0  0  0  0  0  0
  151.5714  141.3190  157.1918 N   0  0  0  0  0  0  0  0  0  0  0  0
  150.4303  140.9779  156.5730 C   0  0  0  0  0  0  0  0  0  0  0  0
  149.3211  141.0481  157.1013 O   0  0  0  0  0  0  0  0  0  0  0  0
  150.5613  140.4904  155.1298 C   0  0  0  0  0  0  0  0  0  0  0  0
  151.3641  139.2829  155.0620 N   0  0  0  0  0  0  0  0  0  0  0  0
  151.0444  138.0357  154.7108 C   0  0  0  0  0  0  0  0  0  0  0  0
  152.0928  137.2286  154.7667 N   0  0  0  0  0  0  0  0  0  0  0  0
  153.1134  138.0662  155.1849 N   0  0  0  0  0  0  0  0  0  0  0  0
  152.6872  139.2865  155.3619 N   0  0  0  0  0  0  0  0  0  0  0  0
  152.3494  143.2849  158.4648 C   0  0  1  0  0  0  0  0  0  0  0  0
  151.6178  144.2592  157.5190 C   0  0  0  0  0  0  0  0  0  0  0  0
  150.5585  143.5545  160.6977 H   0  0  0  0  0  0  0  0  0  0  0  0
  150.7948  145.1588  160.0164 H   0  0  0  0  0  0  0  0  0  0  0  0
  151.4998  144.7568  161.5672 H   0  0  0  0  0  0  0  0  0  0  0  0
  153.1977  144.7718  159.7601 H   0  0  0  0  0  0  0  0  0  0  0  0
  154.3708  142.7819  160.3546 H   0  0  0  0  0  0  0  0  0  0  0  0
  153.4941  143.3086  161.7647 H   0  0  0  0  0  0  0  0  0  0  0  0
  153.3107  140.8423  161.4318 H   0  0  0  0  0  0  0  0  0  0  0  0
  151.7398  141.5956  161.3614 H   0  0  0  0  0  0  0  0  0  0  0  0
  153.4419  140.7124  158.9867 H   0  0  0  0  0  0  0  0  0  0  0  0
  151.9531  139.9747  159.5255 H   0  0  0  0  0  0  0  0  0  0  0  0
  150.6748  142.0104  158.9439 H   0  0  0  0  0  0  0  0  0  0  0  0
  152.4332  141.2202  156.6746 H   0  0  0  0  0  0  0  0  0  0  0  0
  149.5725  140.2963  154.7107 H   0  0  0  0  0  0  0  0  0  0  0  0
  151.0311  141.2582  154.5137 H   0  0  0  0  0  0  0  0  0  0  0  0
  150.0548  137.7244  154.4103 H   0  0  0  0  0  0  0  0  0  0  0  0
  153.3421  143.1387  158.0356 H   0  0  0  0  0  0  0  0  0  0  0  0
  150.5690  144.3734  157.7933 H   0  0  0  0  0  0  0  0  0  0  0  0
  151.6475  143.9130  156.4854 H   0  0  0  0  0  0  0  0  0  0  0  0
  152.0791  145.2467  157.5392 H   0  0  0  0  0  0  0  0  0  0  0  0
  1  2  1  0  0  0  0
  1 18  1  0  0  0  0
  1 19  1  0  0  0  0
  1 20  1  0  0  0  0
  2 16  1  0  0  0  0
  2  3  1  0  0  0  0
  2 21  1  0  0  0  0
  3  4  1  0  0  0  0
  3 22  1  0  0  0  0
  3 23  1  0  0  0  0
  4  5  1  0  0  0  0
  4 24  1  0  0  0  0
  4 25  1  0  0  0  0
  5  6  1  0  0  0  0
  5 26  1  0  0  0  0
  5 27  1  0  0  0  0
  6  7  1  0  0  0  0
  6 16  1  0  0  0  0
  6 28  1  0  0  0  0
  7  8  1  0  0  0  0
  7 29  1  0  0  0  0
  8  9  2  0  0  0  0
  8 10  1  0  0  0  0
 10 11  1  0  0  0  0
 10 30  1  0  0  0  0
 10 31  1  0  0  0  0
 11 15  1  0  0  0  0
 11 12  1  0  0  0  0
 12 13  2  0  0  0  0
 12 32  1  0  0  0  0
 13 14  1  0  0  0  0
 14 15  2  0  0  0  0
 16 17  1  0  0  0  0
 16 33  1  0  0  0  0
 17 34  1  0  0  0  0
 17 35  1  0  0  0  0
 17 36  1  0  0  0  0
M  END
> <s_m_source_file>
AV-unprocessed.smi

> <i_m_source_file_index>
1982

> <i_lp_mmshare_version>
43012

> <i_f3d_flags>
0

> <s_epik_input>
W0NIM11bQ0BASF0xW0NIMl1bQ0gyXVtDSDJdW0NASF0oW0NASF0xW0NIM10pW05IXUMoPU8pW0NIMl1uMltjSF1ubm4y

> <s_epik_cmdline>
J2VwaWtfcHl0aG9uJywgJy1waCcsICc3LjAnLCAnLXRuJywgJzgnLCAnLW1hJywgJzIwMCcsICctbWV0YWxfYmluZGluZycsICctaW1hZScsICc8aW5maWxlLm1hZT4nLCAnLW9tYWUnLCAnPG91dGZpbGUubWFlPic=

> <r_lp_tautomer_probability>
1

> <r_epik_Ionization_Penalty>
5.03816e-07

> <r_epik_Ionization_Penalty_Charging>
0

> <r_epik_Ionization_Penalty_Neutral>
5.03816e-07

> <r_epik_State_Penalty>
-0

> <r_epik_Charging_Adjusted_Penalty>
0

> <i_epik_Tot_Q>
0

> <i_epik_Tot_abs_Q>
0

> <r_epik_Metal_State_Penalty>
-0

> <b_epik_Metal_Only>
0

> <s_lp_Force_Field>
OPLS_2005

> <r_lp_Energy>
15.2513

> <b_lp_Chiralities_Consistent>
1

> <s_lp_Variant>
AV-unprocessed.smi:1982-4

> <Gold.Version>
5.8.1

> <Gold.Id.Protein>
6NUR|6NUR_protein|mol2

> <Gold.PLP.Fitness>
41.6579

> <Gold.PLP.PLP>
-36.4356

> <Gold.PLP.part.hbond>
-2.8996

> <Gold.PLP.part.metal>
0.0000

> <Gold.PLP.part.buried>
-2.5257

> <Gold.PLP.part.nonpolar>
-31.1037

> <Gold.PLP.part.repulsive>
0.2670

> <Gold.PLP.ligand.clash>
0.0000

> <Gold.PLP.ligand.torsion>
0.0437

> <Gold.PLP.Chemscore.Hbond>
1.7680

> <Gold.PLP.Chemscore.CHOScore>
0.0000

> <Gold.PLP.Chemscore.Metal>
0.0000

> <Gold.Chemscore.Hbonds>
donor molecule, donor type, donor heavy atom, donor atom, acceptor molecule, acceptor atom, score
      P1  H  7997  8008       L1    15  0.99
      P1  H 10752 10764       L1    13  0.80

> <Gold.PLP.Chemscore.Internal.Correction>
0.0056

> <Gold.Rescore>
     Score         DG    S(hbond)    S(metal)    S(lipo)     H(rot)  DE(clash)    DE(int)     intcor
     15.83     -17.03       1.67        0.00      92.81       1.91       0.16       1.04       ----

> <Gold.Chemscore.Fitness>
15.8331

> <Gold.Chemscore.DG>
-17.0344

> <Gold.Chemscore.ZeroCoef>
-5.4800

> <Gold.Chemscore.Hbond>
1.6689

> <Gold.Chemscore.Metal>
0.0000

> <Gold.Chemscore.Lipo>
92.8135

> <Gold.Chemscore.Internal_Hbond>
0.0000

> <Gold.Chemscore.DEClash>
0.1588

> <Gold.Chemscore.DEInternal>
1.0424

> <Gold.Chemscore.Rot>
1.9058

> <Gold.Chemscore.Internal.Correction>
   9.000000E+99

> <Gold.Chemscore.Hbonds>
donor molecule, donor type, donor heavy atom, donor atom, acceptor molecule, acceptor atom, score
      P1  H  7997  8008       L1    15  0.24
      P1  H 10752 10764       L1    13  0.28

> <Gold.Chemscore.Hbond.Weighted>
-5.5740

> <Gold.Chemscore.Metal.Weighted>
-0.0000

> <Gold.Chemscore.Lipo.Weighted>
-10.8592

> <Gold.Chemscore.Internal_Hbond.Weighted>
0.0000

> <Gold.Chemscore.DEClash.Weighted>
0.1588

> <Gold.Chemscore.DEInternal.Weighted>
1.0424

> <Gold.Chemscore.Rot.Weighted>
4.8788

> <Gold.Chemscore.Internal.Correction.Weighted>
   9.000000E+99

> <Gold.Protein.RotatedTorsions>
[ 6907 6896 6895 6894 ] final  -21.73 input  -60.11 | X-H torsion
[ 7974 7965 7964 7962 ] final  -36.24 input  175.53 | X-H torsion
[ 8008 7997 7996 7995 ] final  -22.56 input   59.86 | X-H torsion
[ 10167 10162 10161 10158 ] final -124.84 input  -65.29 | X-H torsion
[ 10718 10713 10712 10709 ] final  -79.38 input   66.30 | X-H torsion
[ 10763 10752 10751 10750 ] final  -55.31 input  -60.55 | X-H torsion
[ 11005 11000 10999 10996 ] final  170.70 input  -57.11 | X-H torsion

> <Gold.Protein.ActiveResidues>
 VAL166  LYS551  ARG553  GLY616  TRP617  ASP618  TYR619  PRO620  LYS621  CYS622 
 ASP623  PHE694  ASN695  SER759  ASP760  ASP761  ALA762  ILE779  LEU786  VAL792 
 PHE793  MET794  SER795  GLU796  ALA797  LYS798  CYS799  TRP800  GLU811  SER814 

> <Gold.Protein.RotatedAtoms>
  151.2290  135.0547  159.8979 H   0  0  0  0  0  0  0  0  0  0  0  0  # atno 6907 bound_to 6896
  152.5407  134.0558  159.8140 H   0  0  0  0  0  0  0  0  0  0  0  0  # atno 6908 bound_to 6896
  151.0735  133.5398  159.2657 H   0  0  0  0  0  0  0  0  0  0  0  0  # atno 6909 bound_to 6896
  146.0678  140.6255  142.8966 H   0  0  0  0  0  0  0  0  0  0  0  0  # atno 7974 bound_to 7965
  154.4637  140.2004  156.0176 H   0  0  0  0  0  0  0  0  0  0  0  0  # atno 8008 bound_to 7997
  156.0887  140.3261  155.7759 H   0  0  0  0  0  0  0  0  0  0  0  0  # atno 8009 bound_to 7997
  155.4992  140.0552  157.2932 H   0  0  0  0  0  0  0  0  0  0  0  0  # atno 8010 bound_to 7997
  139.9885  143.5666  152.2351 H   0  0  0  0  0  0  0  0  0  0  0  0  # atno 10167 bound_to 10162
  156.0094  130.4544  150.3639 H   0  0  0  0  0  0  0  0  0  0  0  0  # atno 10718 bound_to 10713
  154.1888  135.6431  153.5054 H   0  0  0  0  0  0  0  0  0  0  0  0  # atno 10763 bound_to 10752
  153.0040  135.5423  154.6437 H   0  0  0  0  0  0  0  0  0  0  0  0  # atno 10764 bound_to 10752
  154.5820  135.2926  155.0695 H   0  0  0  0  0  0  0  0  0  0  0  0  # atno 10765 bound_to 10752
  140.3112  134.7515  157.3992 H   0  0  0  0  0  0  0  0  0  0  0  0  # atno 11005 bound_to 11000
  144.7213  140.4383  143.7006 LP  0  0  0  0  0  0  0  0  0  0  0  0  # atno 17320 bound_to 7965
  145.6445  139.1555  143.2897 LP  0  0  0  0  0  0  0  0  0  0  0  0  # atno 17321 bound_to 7965
  139.6357  144.7649  151.2442 LP  0  0  0  0  0  0  0  0  0  0  0  0  # atno 17342 bound_to 10162
  140.7463  143.6402  150.8342 LP  0  0  0  0  0  0  0  0  0  0  0  0  # atno 17343 bound_to 10162
  157.1726  131.0372  151.2788 LP  0  0  0  0  0  0  0  0  0  0  0  0  # atno 17370 bound_to 10713
  157.4215  130.7440  149.6917 LP  0  0  0  0  0  0  0  0  0  0  0  0  # atno 17371 bound_to 10713
  140.1023  134.5456  155.8341 LP  0  0  0  0  0  0  0  0  0  0  0  0  # atno 17394 bound_to 11000
  141.2108  133.6698  156.6533 LP  0  0  0  0  0  0  0  0  0  0  0  0  # atno 17395 bound_to 11000

$$$$
