AV-unprocessed.smi:2190|AV-procd|sdf|8888|dock1
  -GOLD-   2272012 93D 1   1.00000     0.00000
 Structure written by MMmdl.
 46 48  0  0  0  0  0  0  0  0  1 V2000
  154.1848  135.2363  164.5830 C   0  0  0  0  0  0  0  0  0  0  0  0
  154.4315  136.6154  164.0068 C   0  0  0  0  0  0  0  0  0  0  0  0
  154.9763  137.6352  164.8104 C   0  0  0  0  0  0  0  0  0  0  0  0
  155.2034  138.9120  164.2664 C   0  0  0  0  0  0  0  0  0  0  0  0
  154.8885  139.1772  162.9175 C   0  0  0  0  0  0  0  0  0  0  0  0
  155.1415  140.5601  162.3470 C   0  0  0  0  0  0  0  0  0  0  0  0
  154.3415  138.1621  162.0986 C   0  0  0  0  0  0  0  0  0  0  0  0
  154.0578  138.4870  160.7877 O   0  0  0  0  0  0  0  0  0  0  0  0
  153.0553  137.7458  160.1052 C   0  0  0  0  0  0  0  0  0  0  0  0
  152.1012  138.7258  159.4041 C   0  0  2  0  0  0  0  0  0  0  0  0
  151.0110  137.9945  158.8779 O   0  0  0  0  0  0  0  0  0  0  0  0
  152.8017  139.4853  158.2583 C   0  0  0  0  0  0  0  0  0  0  0  0
  152.0819  140.6836  157.8457 N   0  0  0  0  0  0  0  0  0  0  0  0
  151.3549  140.8730  156.7155 C   0  0  0  0  0  0  0  0  0  0  0  0
  151.1987  139.7816  155.6941 C   0  0  0  0  0  0  0  0  0  0  0  0
  150.4439  140.1585  154.5601 O   0  0  0  0  0  0  0  0  0  0  0  0
  150.7910  142.0766  156.5880 N   0  0  0  0  0  0  0  0  0  0  0  0
  151.1882  142.7255  157.7401 C   0  0  0  0  0  0  0  0  0  0  0  0
  150.9152  144.0347  158.1970 C   0  0  0  0  0  0  0  0  0  0  0  0
  151.4362  144.4843  159.4280 C   0  0  0  0  0  0  0  0  0  0  0  0
  152.2354  143.6330  160.2181 C   0  0  0  0  0  0  0  0  0  0  0  0
  152.5189  142.3245  159.7815 C   0  0  0  0  0  0  0  0  0  0  0  0
  151.9968  141.8806  158.5514 C   0  0  0  0  0  0  0  0  0  0  0  0
  154.1171  136.8781  162.6583 C   0  0  0  0  0  0  0  0  0  0  0  0
  154.3232  135.2265  165.6645 H   0  0  0  0  0  0  0  0  0  0  0  0
  154.8748  134.5156  164.1434 H   0  0  0  0  0  0  0  0  0  0  0  0
  153.1662  134.9117  164.3691 H   0  0  0  0  0  0  0  0  0  0  0  0
  155.2224  137.4436  165.8447 H   0  0  0  0  0  0  0  0  0  0  0  0
  155.6217  139.6879  164.8907 H   0  0  0  0  0  0  0  0  0  0  0  0
  154.2157  140.9860  161.9591 H   0  0  0  0  0  0  0  0  0  0  0  0
  155.8628  140.5050  161.5312 H   0  0  0  0  0  0  0  0  0  0  0  0
  155.5359  141.2393  163.1032 H   0  0  0  0  0  0  0  0  0  0  0  0
  153.5437  137.1215  159.3550 H   0  0  0  0  0  0  0  0  0  0  0  0
  152.5072  137.0879  160.7823 H   0  0  0  0  0  0  0  0  0  0  0  0
  151.7205  139.4435  160.1310 H   0  0  0  0  0  0  0  0  0  0  0  0
  151.0199  137.1279  159.2544 H   0  0  0  0  0  0  0  0  0  0  0  0
  153.8118  139.7695  158.5541 H   0  0  0  0  0  0  0  0  0  0  0  0
  152.9175  138.8344  157.3905 H   0  0  0  0  0  0  0  0  0  0  0  0
  152.1825  139.4580  155.3560 H   0  0  0  0  0  0  0  0  0  0  0  0
  150.7144  138.9241  156.1618 H   0  0  0  0  0  0  0  0  0  0  0  0
  149.9134  139.4233  154.2939 H   0  0  0  0  0  0  0  0  0  0  0  0
  150.3037  144.6937  157.5987 H   0  0  0  0  0  0  0  0  0  0  0  0
  151.2219  145.4872  159.7671 H   0  0  0  0  0  0  0  0  0  0  0  0
  152.6310  143.9852  161.1595 H   0  0  0  0  0  0  0  0  0  0  0  0
  153.1324  141.6717  160.3839 H   0  0  0  0  0  0  0  0  0  0  0  0
  153.7036  136.0735  162.0695 H   0  0  0  0  0  0  0  0  0  0  0  0
  1  2  1  0  0  0  0
  1 25  1  0  0  0  0
  1 26  1  0  0  0  0
  1 27  1  0  0  0  0
  2 24  1  0  0  0  0
  2  3  2  0  0  0  0
  3  4  1  0  0  0  0
  3 28  1  0  0  0  0
  4  5  2  0  0  0  0
  4 29  1  0  0  0  0
  5  6  1  0  0  0  0
  5  7  1  0  0  0  0
  6 30  1  0  0  0  0
  6 31  1  0  0  0  0
  6 32  1  0  0  0  0
  7  8  1  0  0  0  0
  7 24  2  0  0  0  0
  8  9  1  0  0  0  0
  9 10  1  0  0  0  0
  9 33  1  0  0  0  0
  9 34  1  0  0  0  0
 10 11  1  0  0  0  0
 10 12  1  0  0  0  0
 10 35  1  0  0  0  0
 11 36  1  0  0  0  0
 12 13  1  0  0  0  0
 12 37  1  0  0  0  0
 12 38  1  0  0  0  0
 13 23  1  0  0  0  0
 13 14  1  0  0  0  0
 14 15  1  0  0  0  0
 14 17  2  0  0  0  0
 15 16  1  0  0  0  0
 15 39  1  0  0  0  0
 15 40  1  0  0  0  0
 16 41  1  0  0  0  0
 17 18  1  0  0  0  0
 18 23  2  0  0  0  0
 18 19  1  0  0  0  0
 19 20  2  0  0  0  0
 19 42  1  0  0  0  0
 20 21  1  0  0  0  0
 20 43  1  0  0  0  0
 21 22  2  0  0  0  0
 21 44  1  0  0  0  0
 22 23  1  0  0  0  0
 22 45  1  0  0  0  0
 24 46  1  0  0  0  0
M  END
> <s_m_source_file>
AV-unprocessed.smi

> <i_m_source_file_index>
2190

> <i_lp_mmshare_version>
43012

> <i_f3d_flags>
0

> <s_epik_input>
W0NIM11jMVtjSF1bY0hdYyhbQ0gzXSljKFtjSF0xKU9bQ0gyXVtDQEhdKFtPSF0pW0NIMl1uKGMobjIpW0NIMl1bT0hdKWMoYzIzKVtjSF1bY0hdW2NIXVtjSF0z

> <s_epik_cmdline>
J2VwaWtfcHl0aG9uJywgJy1waCcsICc3LjAnLCAnLXRuJywgJzgnLCAnLW1hJywgJzIwMCcsICctbWV0YWxfYmluZGluZycsICctaW1hZScsICc8aW5maWxlLm1hZT4nLCAnLW9tYWUnLCAnPG91dGZpbGUubWFlPic=

> <r_lp_tautomer_probability>
1

> <r_epik_Ionization_Penalty>
0.0555874

> <r_epik_Ionization_Penalty_Charging>
0

> <r_epik_Ionization_Penalty_Neutral>
0.0555874

> <r_epik_State_Penalty>
0.0478234

> <r_epik_Charging_Adjusted_Penalty>
0.0478234

> <i_epik_Tot_Q>
0

> <i_epik_Tot_abs_Q>
0

> <r_epik_Metal_State_Penalty>
4.98044e-05

> <b_epik_Metal_Only>
0

> <s_lp_Force_Field>
OPLS_2005

> <r_lp_Energy>
17.5677

> <b_lp_Chiralities_Consistent>
1

> <s_lp_Variant>
AV-unprocessed.smi:2190-1

> <Gold.Version>
5.8.1

> <Gold.Id.Protein>
6NUR|6NUR_protein|mol2

> <Gold.PLP.Fitness>
51.8167

> <Gold.PLP.PLP>
-50.6580

> <Gold.PLP.part.hbond>
-1.0000

> <Gold.PLP.part.metal>
0.0000

> <Gold.PLP.part.buried>
-4.9463

> <Gold.PLP.part.nonpolar>
-44.1237

> <Gold.PLP.part.repulsive>
0.0971

> <Gold.PLP.ligand.clash>
0.0000

> <Gold.PLP.ligand.torsion>
1.0275

> <Gold.PLP.Chemscore.Hbond>
0.9920

> <Gold.PLP.Chemscore.CHOScore>
0.0000

> <Gold.PLP.Chemscore.Metal>
0.0000

> <Gold.Chemscore.Hbonds>
donor molecule, donor type, donor heavy atom, donor atom, acceptor molecule, acceptor atom, score
      P1  H  7989  7998       L1    16  1.00

> <Gold.PLP.Chemscore.Internal.Correction>
0.2377

> <Gold.Rescore>
     Score         DG    S(hbond)    S(metal)    S(lipo)     H(rot)  DE(clash)    DE(int)     intcor
     16.97     -18.23       0.96        0.00     146.21       2.96       0.27       0.99       ----

> <Gold.Chemscore.Fitness>
16.9698

> <Gold.Chemscore.DG>
-18.2317

> <Gold.Chemscore.ZeroCoef>
-5.4800

> <Gold.Chemscore.Hbond>
0.9619

> <Gold.Chemscore.Metal>
0.0000

> <Gold.Chemscore.Lipo>
146.2109

> <Gold.Chemscore.Internal_Hbond>
0.0000

> <Gold.Chemscore.DEClash>
0.2707

> <Gold.Chemscore.DEInternal>
0.9912

> <Gold.Chemscore.Rot>
2.9561

> <Gold.Chemscore.Internal.Correction>
   9.000000E+99

> <Gold.Chemscore.Hbonds>
donor molecule, donor type, donor heavy atom, donor atom, acceptor molecule, acceptor atom, score
      P1  H  7989  7998       L1    16  0.44

> <Gold.Chemscore.Hbond.Weighted>
-3.2127

> <Gold.Chemscore.Metal.Weighted>
-0.0000

> <Gold.Chemscore.Lipo.Weighted>
-17.1067

> <Gold.Chemscore.Internal_Hbond.Weighted>
0.0000

> <Gold.Chemscore.DEClash.Weighted>
0.2707

> <Gold.Chemscore.DEInternal.Weighted>
0.9912

> <Gold.Chemscore.Rot.Weighted>
7.5677

> <Gold.Chemscore.Internal.Correction.Weighted>
   9.000000E+99

> <Gold.Protein.RotatedTorsions>
[ 6907 6896 6895 6894 ] final  -99.31 input  -60.11 | X-H torsion
[ 7974 7965 7964 7962 ] final   96.85 input  175.53 | X-H torsion
[ 8008 7997 7996 7995 ] final  100.87 input   59.86 | X-H torsion
[ 10167 10162 10161 10158 ] final -166.74 input  -65.29 | X-H torsion
[ 10718 10713 10712 10709 ] final   20.73 input   66.30 | X-H torsion
[ 10763 10752 10751 10750 ] final   41.73 input  -60.55 | X-H torsion
[ 11005 11000 10999 10996 ] final -125.31 input  -57.11 | X-H torsion

> <Gold.Protein.ActiveResidues>
 VAL166  LYS551  ARG553  GLY616  TRP617  ASP618  TYR619  PRO620  LYS621  CYS622 
 ASP623  PHE694  ASN695  SER759  ASP760  ASP761  ALA762  ILE779  LEU786  VAL792 
 PHE793  MET794  SER795  GLU796  ALA797  LYS798  CYS799  TRP800  GLU811  SER814 

> <Gold.Protein.RotatedAtoms>
  150.7075  134.1060  159.3982 H   0  0  0  0  0  0  0  0  0  0  0  0  # atno 6907 bound_to 6896
  151.9047  135.0361  160.0518 H   0  0  0  0  0  0  0  0  0  0  0  0  # atno 6908 bound_to 6896
  152.2385  133.5081  159.5293 H   0  0  0  0  0  0  0  0  0  0  0  0  # atno 6909 bound_to 6896
  145.4334  139.2308  143.3132 H   0  0  0  0  0  0  0  0  0  0  0  0  # atno 7974 bound_to 7965
  156.1245  140.3206  155.8257 H   0  0  0  0  0  0  0  0  0  0  0  0  # atno 8008 bound_to 7997
  155.4444  140.0528  157.3024 H   0  0  0  0  0  0  0  0  0  0  0  0  # atno 8009 bound_to 7997
  154.4852  140.2070  155.9685 H   0  0  0  0  0  0  0  0  0  0  0  0  # atno 8010 bound_to 7997
  139.6095  144.0844  152.1827 H   0  0  0  0  0  0  0  0  0  0  0  0  # atno 10167 bound_to 10162
  157.1286  130.6581  149.5945 H   0  0  0  0  0  0  0  0  0  0  0  0  # atno 10718 bound_to 10713
  152.9900  135.6153  154.2835 H   0  0  0  0  0  0  0  0  0  0  0  0  # atno 10763 bound_to 10752
  154.2564  135.2783  155.2798 H   0  0  0  0  0  0  0  0  0  0  0  0  # atno 10764 bound_to 10752
  154.5244  135.5806  153.6764 H   0  0  0  0  0  0  0  0  0  0  0  0  # atno 10765 bound_to 10752
  140.9772  134.0724  157.3805 H   0  0  0  0  0  0  0  0  0  0  0  0  # atno 11005 bound_to 11000
  146.2595  140.5073  142.8859 LP  0  0  0  0  0  0  0  0  0  0  0  0  # atno 17320 bound_to 7965
  144.8168  140.6482  143.6379 LP  0  0  0  0  0  0  0  0  0  0  0  0  # atno 17321 bound_to 7965
  140.0459  144.5971  150.7374 LP  0  0  0  0  0  0  0  0  0  0  0  0  # atno 17342 bound_to 10162
  140.7309  143.2688  151.3955 LP  0  0  0  0  0  0  0  0  0  0  0  0  # atno 17343 bound_to 10162
  155.9813  130.4819  150.6819 LP  0  0  0  0  0  0  0  0  0  0  0  0  # atno 17370 bound_to 10713
  157.4413  131.0861  151.0941 LP  0  0  0  0  0  0  0  0  0  0  0  0  # atno 17371 bound_to 10713
  139.8935  135.0131  156.6903 LP  0  0  0  0  0  0  0  0  0  0  0  0  # atno 17394 bound_to 11000
  140.7241  133.9115  155.8167 LP  0  0  0  0  0  0  0  0  0  0  0  0  # atno 17395 bound_to 11000

$$$$
