AV-unprocessed.smi:2035|AV-procd|sdf|8270|dock3
  -GOLD-   2272010543D 1   1.00000     0.00000
 Structure written by MMmdl.
 34 35  0  0  0  0  0  0  0  0  1 V2000
  149.9461  140.8606  157.4219 O   0  0  0  0  0  0  0  0  0  0  0  0
  149.8104  141.9913  156.9560 C   0  0  0  0  0  0  0  0  0  0  0  0
  150.2988  143.1260  157.4878 N   0  0  0  0  0  0  0  0  0  0  0  0
  151.0658  143.3229  158.6706 C   0  0  0  0  0  0  0  0  0  0  0  0
  151.0954  144.6268  159.2082 C   0  0  0  0  0  0  0  0  0  0  0  0
  151.8421  144.8658  160.3791 C   0  0  0  0  0  0  0  0  0  0  0  0
  152.5388  143.9063  161.0224 N   0  0  0  0  0  0  0  0  0  0  0  0
  152.5117  142.6590  160.5080 C   0  0  0  0  0  0  0  0  0  0  0  0
  151.7974  142.3130  159.3431 C   0  0  0  0  0  0  0  0  0  0  0  0
  149.1360  142.2442  155.8246 N   0  0  0  0  0  0  0  0  0  0  0  0
  148.4951  141.2445  154.9680 C   0  0  1  0  0  0  0  0  0  0  0  0
  147.7282  141.9397  153.8206 C   0  0  0  0  0  0  0  0  0  0  0  0
  146.6081  141.0828  153.2085 C   0  0  0  0  0  0  0  0  0  0  0  0
  147.0811  139.7878  152.5313 C   0  0  0  0  0  0  0  0  0  0  0  0
  147.7036  138.7722  153.5047 C   0  0  0  0  0  0  0  0  0  0  0  0
  149.0807  139.1001  153.8519 N   0  0  0  0  0  0  0  0  0  0  0  0
  149.5171  140.1920  154.4982 C   0  0  0  0  0  0  0  0  0  0  0  0
  150.7192  140.3550  154.7068 O   0  0  0  0  0  0  0  0  0  0  0  0
  150.0910  143.9696  156.9737 H   0  0  0  0  0  0  0  0  0  0  0  0
  150.5564  145.4346  158.7351 H   0  0  0  0  0  0  0  0  0  0  0  0
  151.8803  145.8554  160.8100 H   0  0  0  0  0  0  0  0  0  0  0  0
  153.0780  141.9104  161.0424 H   0  0  0  0  0  0  0  0  0  0  0  0
  151.8324  141.2909  159.0029 H   0  0  0  0  0  0  0  0  0  0  0  0
  149.0765  143.2024  155.5113 H   0  0  0  0  0  0  0  0  0  0  0  0
  147.7743  140.7107  155.5905 H   0  0  0  0  0  0  0  0  0  0  0  0
  147.2665  142.8553  154.1928 H   0  0  0  0  0  0  0  0  0  0  0  0
  148.4241  142.2575  153.0428 H   0  0  0  0  0  0  0  0  0  0  0  0
  145.8725  140.8440  153.9776 H   0  0  0  0  0  0  0  0  0  0  0  0
  146.0783  141.6850  152.4698 H   0  0  0  0  0  0  0  0  0  0  0  0
  146.2153  139.3216  152.0597 H   0  0  0  0  0  0  0  0  0  0  0  0
  147.7761  140.0139  151.7214 H   0  0  0  0  0  0  0  0  0  0  0  0
  147.0979  138.6659  154.4057 H   0  0  0  0  0  0  0  0  0  0  0  0
  147.7213  137.7903  153.0313 H   0  0  0  0  0  0  0  0  0  0  0  0
  149.7808  138.4322  153.5628 H   0  0  0  0  0  0  0  0  0  0  0  0
  1  2  2  0  0  0  0
  2  3  1  0  0  0  0
  2 10  1  0  0  0  0
  3  4  1  0  0  0  0
  3 19  1  0  0  0  0
  4  9  1  0  0  0  0
  4  5  2  0  0  0  0
  5  6  1  0  0  0  0
  5 20  1  0  0  0  0
  6  7  2  0  0  0  0
  6 21  1  0  0  0  0
  7  8  1  0  0  0  0
  8  9  2  0  0  0  0
  8 22  1  0  0  0  0
  9 23  1  0  0  0  0
 10 11  1  0  0  0  0
 10 24  1  0  0  0  0
 11 17  1  0  0  0  0
 11 12  1  0  0  0  0
 11 25  1  0  0  0  0
 12 13  1  0  0  0  0
 12 26  1  0  0  0  0
 12 27  1  0  0  0  0
 13 14  1  0  0  0  0
 13 28  1  0  0  0  0
 13 29  1  0  0  0  0
 14 15  1  0  0  0  0
 14 30  1  0  0  0  0
 14 31  1  0  0  0  0
 15 16  1  0  0  0  0
 15 32  1  0  0  0  0
 15 33  1  0  0  0  0
 16 17  1  0  0  0  0
 16 34  1  0  0  0  0
 17 18  2  0  0  0  0
M  END
> <s_m_source_file>
AV-unprocessed.smi

> <i_m_source_file_index>
2035

> <i_lp_mmshare_version>
43012

> <i_f3d_flags>
0

> <s_epik_input>
W2NIXTFbY0hdbltjSF1bY0hdYzFbTkhdQyg9TylbTkhdW0NAQEhdMltDSDJdW0NIMl1bQ0gyXVtDSDJdW05IXUMyPU8=

> <s_epik_cmdline>
J2VwaWtfcHl0aG9uJywgJy1waCcsICc3LjAnLCAnLXRuJywgJzgnLCAnLW1hJywgJzIwMCcsICctbWV0YWxfYmluZGluZycsICctaW1hZScsICc8aW5maWxlLm1hZT4nLCAnLW9tYWUnLCAnPG91dGZpbGUubWFlPic=

> <r_epik_Ionization_Penalty>
0.100041

> <r_epik_Ionization_Penalty_Charging>
0

> <r_epik_Ionization_Penalty_Neutral>
0.100041

> <r_epik_State_Penalty>
0.0900442

> <r_epik_Charging_Adjusted_Penalty>
0.0900442

> <i_epik_Tot_Q>
0

> <i_epik_Tot_abs_Q>
0

> <r_epik_Metal_State_Penalty>
0.0769377

> <b_epik_Metal_Only>
0

> <s_lp_Force_Field>
OPLS_2005

> <r_lp_Energy>
15.5607

> <b_lp_Chiralities_Consistent>
1

> <s_lp_Variant>
AV-unprocessed.smi:2035-2

> <Gold.Version>
5.8.1

> <Gold.Id.Protein>
6NUR|6NUR_protein|mol2

> <Gold.PLP.Fitness>
42.5098

> <Gold.PLP.PLP>
-33.9808

> <Gold.PLP.part.hbond>
-3.8766

> <Gold.PLP.part.metal>
0.0000

> <Gold.PLP.part.buried>
0.5020

> <Gold.PLP.part.nonpolar>
-29.6536

> <Gold.PLP.part.repulsive>
0.4198

> <Gold.PLP.ligand.clash>
0.0000

> <Gold.PLP.ligand.torsion>
0.0932

> <Gold.PLP.Chemscore.Hbond>
2.8960

> <Gold.PLP.Chemscore.CHOScore>
0.0000

> <Gold.PLP.Chemscore.Metal>
0.0000

> <Gold.Chemscore.Hbonds>
donor molecule, donor type, donor heavy atom, donor atom, acceptor molecule, acceptor atom, score
      L1  H     3    19       P1  8028  0.88
      L1  H    10    24       P1  8028  1.00
      P1  H  7989  7998       L1    18  1.00

> <Gold.PLP.Chemscore.Internal.Correction>
0.0273

> <Gold.Rescore>
     Score         DG    S(hbond)    S(metal)    S(lipo)     H(rot)  DE(clash)    DE(int)     intcor
     19.97     -21.58       2.66        0.00      83.62       1.00       0.58       1.02       ----

> <Gold.Chemscore.Fitness>
19.9745

> <Gold.Chemscore.DG>
-21.5801

> <Gold.Chemscore.ZeroCoef>
-5.4800

> <Gold.Chemscore.Hbond>
2.6575

> <Gold.Chemscore.Metal>
0.0000

> <Gold.Chemscore.Lipo>
83.6234

> <Gold.Chemscore.Internal_Hbond>
0.0000

> <Gold.Chemscore.DEClash>
0.5827

> <Gold.Chemscore.DEInternal>
1.0228

> <Gold.Chemscore.Rot>
1.0000

> <Gold.Chemscore.Internal.Correction>
   9.000000E+99

> <Gold.Chemscore.Hbonds>
donor molecule, donor type, donor heavy atom, donor atom, acceptor molecule, acceptor atom, score
      L1  H     3    19       P1  8028  0.83
      L1  H    10    24       P1  8028  0.92
      P1  H  7989  7998       L1    18  0.94

> <Gold.Chemscore.Hbond.Weighted>
-8.8762

> <Gold.Chemscore.Metal.Weighted>
-0.0000

> <Gold.Chemscore.Lipo.Weighted>
-9.7839

> <Gold.Chemscore.Internal_Hbond.Weighted>
0.0000

> <Gold.Chemscore.DEClash.Weighted>
0.5827

> <Gold.Chemscore.DEInternal.Weighted>
1.0228

> <Gold.Chemscore.Rot.Weighted>
2.5600

> <Gold.Chemscore.Internal.Correction.Weighted>
   9.000000E+99

> <Gold.Protein.RotatedTorsions>
[ 6907 6896 6895 6894 ] final  -89.29 input  -60.11 | X-H torsion
[ 7974 7965 7964 7962 ] final   77.24 input  175.53 | X-H torsion
[ 8008 7997 7996 7995 ] final  111.29 input   59.86 | X-H torsion
[ 10167 10162 10161 10158 ] final  -16.07 input  -65.29 | X-H torsion
[ 10718 10713 10712 10709 ] final   47.03 input   66.30 | X-H torsion
[ 10763 10752 10751 10750 ] final -148.72 input  -60.55 | X-H torsion
[ 11005 11000 10999 10996 ] final  -62.48 input  -57.11 | X-H torsion

> <Gold.Protein.ActiveResidues>
 VAL166  LYS551  ARG553  GLY616  TRP617  ASP618  TYR619  PRO620  LYS621  CYS622 
 ASP623  PHE694  ASN695  SER759  ASP760  ASP761  ALA762  ILE779  LEU786  VAL792 
 PHE793  MET794  SER795  GLU796  ALA797  LYS798  CYS799  TRP800  GLU811  SER814 

> <Gold.Protein.RotatedAtoms>
  150.6873  134.2609  159.4548 H   0  0  0  0  0  0  0  0  0  0  0  0  # atno 6907 bound_to 6896
  152.0539  134.9634  160.0584 H   0  0  0  0  0  0  0  0  0  0  0  0  # atno 6908 bound_to 6896
  152.1087  133.4254  159.4658 H   0  0  0  0  0  0  0  0  0  0  0  0  # atno 6909 bound_to 6896
  145.6926  139.2557  143.1751 H   0  0  0  0  0  0  0  0  0  0  0  0  # atno 7974 bound_to 7965
  156.2113  140.3022  155.9740 H   0  0  0  0  0  0  0  0  0  0  0  0  # atno 8008 bound_to 7997
  155.2715  140.0434  157.3024 H   0  0  0  0  0  0  0  0  0  0  0  0  # atno 8009 bound_to 7997
  154.5704  140.2346  155.8208 H   0  0  0  0  0  0  0  0  0  0  0  0  # atno 8010 bound_to 7997
  140.7228  143.5154  150.9699 H   0  0  0  0  0  0  0  0  0  0  0  0  # atno 10167 bound_to 10162
  157.4542  130.8157  149.7820 H   0  0  0  0  0  0  0  0  0  0  0  0  # atno 10718 bound_to 10713
  154.8217  135.3327  154.7018 H   0  0  0  0  0  0  0  0  0  0  0  0  # atno 10763 bound_to 10752
  153.7650  135.6930  153.4922 H   0  0  0  0  0  0  0  0  0  0  0  0  # atno 10764 bound_to 10752
  153.2084  135.4491  155.0299 H   0  0  0  0  0  0  0  0  0  0  0  0  # atno 10765 bound_to 10752
  141.1361  133.6640  156.5533 H   0  0  0  0  0  0  0  0  0  0  0  0  # atno 11005 bound_to 11000
  146.0868  140.7701  142.9614 LP  0  0  0  0  0  0  0  0  0  0  0  0  # atno 17320 bound_to 7965
  144.6992  140.3575  143.7170 LP  0  0  0  0  0  0  0  0  0  0  0  0  # atno 17321 bound_to 7965
  139.8869  143.7002  152.3150 LP  0  0  0  0  0  0  0  0  0  0  0  0  # atno 17342 bound_to 10162
  139.7304  144.7583  151.0811 LP  0  0  0  0  0  0  0  0  0  0  0  0  # atno 17343 bound_to 10162
  156.0000  130.3885  150.2642 LP  0  0  0  0  0  0  0  0  0  0  0  0  # atno 17370 bound_to 10713
  157.0816  131.0145  151.3154 LP  0  0  0  0  0  0  0  0  0  0  0  0  # atno 17371 bound_to 10713
  140.4046  134.7326  157.4800 LP  0  0  0  0  0  0  0  0  0  0  0  0  # atno 17394 bound_to 11000
  140.0471  134.6184  155.8907 LP  0  0  0  0  0  0  0  0  0  0  0  0  # atno 17395 bound_to 11000

$$$$
