AV-unprocessed.smi:2746|AV-procd|sdf|10573|dock6
  -GOLD-   2272015 23D 1   1.00000     0.00000
 Structure written by MMmdl.
 39 40  0  0  0  0  0  0  0  0  2 V2000
  142.0058  135.5389  153.5362 C   0  0  0  0  0  0  0  0  0  0  0  0
  142.9770  136.4684  153.5190 C   0  0  0  0  0  0  0  0  0  0  0  0
  143.7741  136.9353  152.3074 C   0  0  2  0  0  0  0  0  0  0  0  0
  144.4908  135.7577  151.6342 C   0  0  0  0  0  0  0  0  0  0  0  0
  144.7520  137.9703  152.6420 N   0  0  0  0  0  0  0  0  0  0  0  0
  145.8912  137.7846  153.3297 C   0  0  0  0  0  0  0  0  0  0  0  0
  146.2318  136.7070  153.8180 O   0  0  0  0  0  0  0  0  0  0  0  0
  146.7308  139.0116  153.5284 C   0  0  0  0  0  0  0  0  0  0  0  0
  148.0862  138.9452  153.9294 C   0  0  0  0  0  0  0  0  0  0  0  0
  148.8150  140.1410  154.1327 C   0  0  0  0  0  0  0  0  0  0  0  0
  150.1586  140.1298  154.5309 N   0  0  0  0  0  0  0  0  0  0  0  0
  150.7663  138.8062  154.4769 C   0  0  0  0  0  0  0  0  0  0  0  0
  152.2664  138.9027  154.8047 C   0  0  0  0  0  0  0  0  0  0  0  0
  152.4374  139.5273  156.0738 O   0  0  0  0  0  0  0  0  0  0  0  0
  151.9089  140.8504  156.0947 C   0  0  0  0  0  0  0  0  0  0  0  0
  150.3995  140.8061  155.8000 C   0  0  0  0  0  0  0  0  0  0  0  0
  148.1659  141.3774  153.9309 C   0  0  0  0  0  0  0  0  0  0  0  0
  146.8120  141.3895  153.5425 C   0  0  0  0  0  0  0  0  0  0  0  0
  146.1538  140.2242  153.3630 N   0  3  0  0  0  0  0  0  0  0  0  0
  141.6909  135.0167  152.6450 H   0  0  0  0  0  0  0  0  0  0  0  0
  141.5067  135.2868  154.4603 H   0  0  0  0  0  0  0  0  0  0  0  0
  143.2367  136.9476  154.4520 H   0  0  0  0  0  0  0  0  0  0  0  0
  143.0501  137.3299  151.5925 H   0  0  0  0  0  0  0  0  0  0  0  0
  143.7819  134.9838  151.3377 H   0  0  0  0  0  0  0  0  0  0  0  0
  145.2209  135.3007  152.3033 H   0  0  0  0  0  0  0  0  0  0  0  0
  145.0182  136.0806  150.7360 H   0  0  0  0  0  0  0  0  0  0  0  0
  144.5500  138.9015  152.3081 H   0  0  0  0  0  0  0  0  0  0  0  0
  148.5646  137.9894  154.0875 H   0  0  0  0  0  0  0  0  0  0  0  0
  150.2754  138.1434  155.1910 H   0  0  0  0  0  0  0  0  0  0  0  0
  150.6270  138.3742  153.4850 H   0  0  0  0  0  0  0  0  0  0  0  0
  152.7099  137.9073  154.8350 H   0  0  0  0  0  0  0  0  0  0  0  0
  152.7977  139.4659  154.0359 H   0  0  0  0  0  0  0  0  0  0  0  0
  152.0879  141.2894  157.0763 H   0  0  0  0  0  0  0  0  0  0  0  0
  152.4303  141.4734  155.3662 H   0  0  0  0  0  0  0  0  0  0  0  0
  149.9957  141.8187  155.7624 H   0  0  0  0  0  0  0  0  0  0  0  0
  149.8845  140.2820  156.6062 H   0  0  0  0  0  0  0  0  0  0  0  0
  148.6967  142.3069  154.0786 H   0  0  0  0  0  0  0  0  0  0  0  0
  146.2383  142.2893  153.3752 H   0  0  0  0  0  0  0  0  0  0  0  0
  145.1711  140.2561  153.0886 H   0  0  0  0  0  0  0  0  0  0  0  0
  1  2  2  0  0  0  0
  1 20  1  0  0  0  0
  1 21  1  0  0  0  0
  2  3  1  0  0  0  0
  2 22  1  0  0  0  0
  3  4  1  0  0  0  0
  3  5  1  0  0  0  0
  3 23  1  0  0  0  0
  4 24  1  0  0  0  0
  4 25  1  0  0  0  0
  4 26  1  0  0  0  0
  5  6  1  0  0  0  0
  5 27  1  0  0  0  0
  6  7  2  0  0  0  0
  6  8  1  0  0  0  0
  8 19  1  0  0  0  0
  8  9  2  0  0  0  0
  9 10  1  0  0  0  0
  9 28  1  0  0  0  0
 10 11  1  0  0  0  0
 10 17  2  0  0  0  0
 11 16  1  0  0  0  0
 11 12  1  0  0  0  0
 12 13  1  0  0  0  0
 12 29  1  0  0  0  0
 12 30  1  0  0  0  0
 13 14  1  0  0  0  0
 13 31  1  0  0  0  0
 13 32  1  0  0  0  0
 14 15  1  0  0  0  0
 15 16  1  0  0  0  0
 15 33  1  0  0  0  0
 15 34  1  0  0  0  0
 16 35  1  0  0  0  0
 16 36  1  0  0  0  0
 17 18  1  0  0  0  0
 17 37  1  0  0  0  0
 18 19  2  0  0  0  0
 18 38  1  0  0  0  0
 19 39  1  0  0  0  0
M  CHG  1  19   1
M  END
> <s_m_source_file>
AV-unprocessed.smi

> <i_m_source_file_index>
2746

> <i_lp_mmshare_version>
43012

> <i_f3d_flags>
0

> <s_epik_input>
W0NIMl09W0NIXVtDQEhdKFtDSDNdKVtOSF1DKD1PKWMxW2NIXWMoW2NIXVtjSF1uMSlOMltDSDJdW0NIMl1PW0NIMl1bQ0gyXTI=

> <s_epik_cmdline>
J2VwaWtfcHl0aG9uJywgJy1waCcsICc3LjAnLCAnLXRuJywgJzgnLCAnLW1hJywgJzIwMCcsICctbWV0YWxfYmluZGluZycsICctaW1hZScsICc8aW5maWxlLm1hZT4nLCAnLW9tYWUnLCAnPG91dGZpbGUubWFlPic=

> <r_lp_tautomer_probability>
1

> <r_epik_Ionization_Penalty>
0.451073

> <r_epik_Ionization_Penalty_Charging>
0.450607

> <r_epik_Ionization_Penalty_Neutral>
0.000466544

> <r_epik_State_Penalty>
0.453375

> <r_epik_Charging_Adjusted_Penalty>
0.903982

> <i_epik_Tot_Q>
1

> <i_epik_Tot_abs_Q>
1

> <r_epik_Metal_State_Penalty>
1.0249

> <b_epik_Metal_Only>
0

> <s_lp_Force_Field>
OPLS_2005

> <r_lp_Energy>
26.9967

> <b_lp_Chiralities_Consistent>
1

> <s_lp_Variant>
AV-unprocessed.smi:2746-3

> <Gold.Version>
5.8.1

> <Gold.Id.Protein>
6NUR|6NUR_protein|mol2

> <Gold.PLP.Fitness>
46.4442

> <Gold.PLP.PLP>
-34.6505

> <Gold.PLP.part.hbond>
-5.0000

> <Gold.PLP.part.metal>
0.0000

> <Gold.PLP.part.buried>
-3.4058

> <Gold.PLP.part.nonpolar>
-26.5748

> <Gold.PLP.part.repulsive>
0.1953

> <Gold.PLP.ligand.clash>
0.4006

> <Gold.PLP.ligand.torsion>
0.3457

> <Gold.PLP.Chemscore.Hbond>
4.2500

> <Gold.PLP.Chemscore.CHOScore>
0.0000

> <Gold.PLP.Chemscore.Metal>
0.0000

> <Gold.Chemscore.Hbonds>
donor molecule, donor type, donor heavy atom, donor atom, acceptor molecule, acceptor atom, score
      L1  H     5    27       P1 10175  1.00
      L1  H    19    39       P1 10175  2.00
      P1  H  7989  7998       L1    11  0.55
      P1  H  7997  8008       L1    14  0.70

> <Gold.PLP.Chemscore.Internal.Correction>
0.1357

> <Gold.Rescore>
     Score         DG    S(hbond)    S(metal)    S(lipo)     H(rot)  DE(clash)    DE(int)     intcor
     17.05     -18.10       2.03        0.00      78.50       1.30       0.13       0.92       ----

> <Gold.Chemscore.Fitness>
17.0541

> <Gold.Chemscore.DG>
-18.1033

> <Gold.Chemscore.ZeroCoef>
-5.4800

> <Gold.Chemscore.Hbond>
2.0269

> <Gold.Chemscore.Metal>
0.0000

> <Gold.Chemscore.Lipo>
78.5008

> <Gold.Chemscore.Internal_Hbond>
0.0000

> <Gold.Chemscore.DEClash>
0.1259

> <Gold.Chemscore.DEInternal>
0.9233

> <Gold.Chemscore.Rot>
1.3013

> <Gold.Chemscore.Internal.Correction>
   9.000000E+99

> <Gold.Chemscore.Hbonds>
donor molecule, donor type, donor heavy atom, donor atom, acceptor molecule, acceptor atom, score
      L1  H     5    27       P1 10175  0.95
      L1  H    19    39       P1 10175  0.99
      P1  H  7989  7998       L1    11  0.01
      P1  H  7997  8008       L1    14  0.04

> <Gold.Chemscore.Hbond.Weighted>
-6.7700

> <Gold.Chemscore.Metal.Weighted>
-0.0000

> <Gold.Chemscore.Lipo.Weighted>
-9.1846

> <Gold.Chemscore.Internal_Hbond.Weighted>
0.0000

> <Gold.Chemscore.DEClash.Weighted>
0.1259

> <Gold.Chemscore.DEInternal.Weighted>
0.9233

> <Gold.Chemscore.Rot.Weighted>
3.3313

> <Gold.Chemscore.Internal.Correction.Weighted>
   9.000000E+99

> <Gold.Protein.RotatedTorsions>
[ 6907 6896 6895 6894 ] final -146.22 input  -60.11 | X-H torsion
[ 7974 7965 7964 7962 ] final  135.54 input  175.53 | X-H torsion
[ 8008 7997 7996 7995 ] final  -32.54 input   59.86 | X-H torsion
[ 10167 10162 10161 10158 ] final -111.22 input  -65.29 | X-H torsion
[ 10718 10713 10712 10709 ] final  177.72 input   66.30 | X-H torsion
[ 10763 10752 10751 10750 ] final  163.68 input  -60.55 | X-H torsion
[ 11005 11000 10999 10996 ] final -173.29 input  -57.11 | X-H torsion

> <Gold.Protein.ActiveResidues>
 VAL166  LYS551  ARG553  GLY616  TRP617  ASP618  TYR619  PRO620  LYS621  CYS622 
 ASP623  PHE694  ASN695  SER759  ASP760  ASP761  ALA762  ILE779  LEU786  VAL792 
 PHE793  MET794  SER795  GLU796  ALA797  LYS798  CYS799  TRP800  GLU811  SER814 

> <Gold.Protein.RotatedAtoms>
  151.1387  133.4986  159.2597 H   0  0  0  0  0  0  0  0  0  0  0  0  # atno 6907 bound_to 6896
  151.1679  135.0304  159.8749 H   0  0  0  0  0  0  0  0  0  0  0  0  # atno 6908 bound_to 6896
  152.5462  134.1253  159.8469 H   0  0  0  0  0  0  0  0  0  0  0  0  # atno 6909 bound_to 6896
  144.9653  139.4664  143.5459 H   0  0  0  0  0  0  0  0  0  0  0  0  # atno 7974 bound_to 7965
  154.4177  140.1735  156.1743 H   0  0  0  0  0  0  0  0  0  0  0  0  # atno 8008 bound_to 7997
  155.9734  140.3384  155.6572 H   0  0  0  0  0  0  0  0  0  0  0  0  # atno 8009 bound_to 7997
  155.6595  140.0699  157.2550 H   0  0  0  0  0  0  0  0  0  0  0  0  # atno 8010 bound_to 7997
  140.1360  143.4320  152.1595 H   0  0  0  0  0  0  0  0  0  0  0  0  # atno 10167 bound_to 10162
  156.9011  130.9879  151.3035 H   0  0  0  0  0  0  0  0  0  0  0  0  # atno 10718 bound_to 10713
  154.2974  135.2759  155.2627 H   0  0  0  0  0  0  0  0  0  0  0  0  # atno 10763 bound_to 10752
  154.5079  135.5790  153.6585 H   0  0  0  0  0  0  0  0  0  0  0  0  # atno 10764 bound_to 10752
  152.9905  135.6174  154.3143 H   0  0  0  0  0  0  0  0  0  0  0  0  # atno 10765 bound_to 10752
  140.4874  134.6018  157.4942 H   0  0  0  0  0  0  0  0  0  0  0  0  # atno 11005 bound_to 11000
  146.3366  139.8830  142.8821 LP  0  0  0  0  0  0  0  0  0  0  0  0  # atno 17320 bound_to 7965
  145.2638  141.0086  143.3811 LP  0  0  0  0  0  0  0  0  0  0  0  0  # atno 17321 bound_to 7965
  139.5496  144.7327  151.4477 LP  0  0  0  0  0  0  0  0  0  0  0  0  # atno 17342 bound_to 10162
  140.6789  143.8127  150.7095 LP  0  0  0  0  0  0  0  0  0  0  0  0  # atno 17343 bound_to 10162
  157.6025  130.8523  149.8824 LP  0  0  0  0  0  0  0  0  0  0  0  0  # atno 17370 bound_to 10713
  156.0581  130.3704  150.1044 LP  0  0  0  0  0  0  0  0  0  0  0  0  # atno 17371 bound_to 10713
  139.9790  134.7168  155.9895 LP  0  0  0  0  0  0  0  0  0  0  0  0  # atno 17394 bound_to 11000
  141.1501  133.6550  156.3987 LP  0  0  0  0  0  0  0  0  0  0  0  0  # atno 17395 bound_to 11000

$$$$
