AV-unprocessed.smi:1048|AV-procd|sdf|4607|dock2
  -GOLD-   22720 3103D 1   1.00000     0.00000
 Structure written by MMmdl.
 46 47  0  0  0  0  0  0  0  0  2 V2000
  143.6794  143.2290  157.7518 C   0  0  0  0  0  0  0  0  0  0  0  0
  143.1738  142.4469  156.5269 C   0  0  2  0  0  0  0  0  0  0  0  0
  143.9055  141.1061  156.3311 C   0  0  0  0  0  0  0  0  0  0  0  0
  145.3329  141.2941  155.7867 C   0  0  0  0  0  0  0  0  0  0  0  0
  145.3259  142.0772  154.5231 N   0  3  2  0  0  0  0  0  0  0  0  0
  146.6632  142.1700  153.8830 C   0  0  0  0  0  0  0  0  0  0  0  0
  147.3462  140.7937  153.7463 C   0  0  1  0  0  0  0  0  0  0  0  0
  147.0359  140.3081  152.4547 O   0  0  0  0  0  0  0  0  0  0  0  0
  148.8793  140.9104  153.8700 C   0  0  0  0  0  0  0  0  0  0  0  0
  149.2774  141.9183  154.8483 N   0  0  0  0  0  0  0  0  0  0  0  0
  150.1918  141.7355  155.8116 C   0  0  0  0  0  0  0  0  0  0  0  0
  150.7761  140.6683  155.9947 O   0  0  0  0  0  0  0  0  0  0  0  0
  150.3584  142.8493  156.5451 N   0  0  0  0  0  0  0  0  0  0  0  0
  151.2553  143.0703  157.6255 C   0  0  0  0  0  0  0  0  0  0  0  0
  151.6006  144.4017  157.9367 C   0  0  0  0  0  0  0  0  0  0  0  0
  152.5017  144.6498  158.9896 C   0  0  0  0  0  0  0  0  0  0  0  0
  153.0330  143.5491  159.6891 C   0  0  0  0  0  0  0  0  0  0  0  0
  152.7265  142.2682  159.3951 N   0  0  0  0  0  0  0  0  0  0  0  0
  151.8603  142.0375  158.3849 C   0  0  0  0  0  0  0  0  0  0  0  0
  144.6898  143.4067  154.7056 C   0  0  0  0  0  0  0  0  0  0  0  0
  143.2479  143.2666  155.2258 C   0  0  0  0  0  0  0  0  0  0  0  0
  144.7295  143.5053  157.6607 H   0  0  0  0  0  0  0  0  0  0  0  0
  143.5717  142.6388  158.6621 H   0  0  0  0  0  0  0  0  0  0  0  0
  143.1087  144.1476  157.8901 H   0  0  0  0  0  0  0  0  0  0  0  0
  142.1228  142.2239  156.7163 H   0  0  0  0  0  0  0  0  0  0  0  0
  143.9319  140.5496  157.2686 H   0  0  0  0  0  0  0  0  0  0  0  0
  143.3397  140.4899  155.6309 H   0  0  0  0  0  0  0  0  0  0  0  0
  145.9588  141.7960  156.5258 H   0  0  0  0  0  0  0  0  0  0  0  0
  145.7777  140.3139  155.6186 H   0  0  0  0  0  0  0  0  0  0  0  0
  146.5700  142.6076  152.8875 H   0  0  0  0  0  0  0  0  0  0  0  0
  147.2880  142.8572  154.4553 H   0  0  0  0  0  0  0  0  0  0  0  0
  146.9672  140.1007  154.4979 H   0  0  0  0  0  0  0  0  0  0  0  0
  147.8254  139.9603  152.0661 H   0  0  0  0  0  0  0  0  0  0  0  0
  149.3411  139.9436  154.0802 H   0  0  0  0  0  0  0  0  0  0  0  0
  149.2949  141.2397  152.9172 H   0  0  0  0  0  0  0  0  0  0  0  0
  148.8404  142.8253  154.7728 H   0  0  0  0  0  0  0  0  0  0  0  0
  149.7437  143.6205  156.3300 H   0  0  0  0  0  0  0  0  0  0  0  0
  151.1786  145.2257  157.3797 H   0  0  0  0  0  0  0  0  0  0  0  0
  152.7797  145.6591  159.2544 H   0  0  0  0  0  0  0  0  0  0  0  0
  153.7271  143.7015  160.5023 H   0  0  0  0  0  0  0  0  0  0  0  0
  151.6768  140.9943  158.1815 H   0  0  0  0  0  0  0  0  0  0  0  0
  145.2896  144.0116  155.3871 H   0  0  0  0  0  0  0  0  0  0  0  0
  144.6689  143.9358  153.7520 H   0  0  0  0  0  0  0  0  0  0  0  0
  142.6437  142.7767  154.4610 H   0  0  0  0  0  0  0  0  0  0  0  0
  142.8051  144.2523  155.3732 H   0  0  0  0  0  0  0  0  0  0  0  0
  144.7400  141.5781  153.8686 H   0  0  0  0  0  0  0  0  0  0  0  0
  1  2  1  0  0  0  0
  1 22  1  0  0  0  0
  1 23  1  0  0  0  0
  1 24  1  0  0  0  0
  2 21  1  0  0  0  0
  2  3  1  0  0  0  0
  2 25  1  0  0  0  0
  3  4  1  0  0  0  0
  3 26  1  0  0  0  0
  3 27  1  0  0  0  0
  4  5  1  0  0  0  0
  4 28  1  0  0  0  0
  4 29  1  0  0  0  0
  5  6  1  0  0  0  0
  5 20  1  0  0  0  0
  5 46  1  0  0  0  0
  6  7  1  0  0  0  0
  6 30  1  0  0  0  0
  6 31  1  0  0  0  0
  7  8  1  0  0  0  0
  7  9  1  0  0  0  0
  7 32  1  0  0  0  0
  8 33  1  0  0  0  0
  9 10  1  0  0  0  0
  9 34  1  0  0  0  0
  9 35  1  0  0  0  0
 10 11  1  0  0  0  0
 10 36  1  0  0  0  0
 11 12  2  0  0  0  0
 11 13  1  0  0  0  0
 13 14  1  0  0  0  0
 13 37  1  0  0  0  0
 14 19  1  0  0  0  0
 14 15  2  0  0  0  0
 15 16  1  0  0  0  0
 15 38  1  0  0  0  0
 16 17  2  0  0  0  0
 16 39  1  0  0  0  0
 17 18  1  0  0  0  0
 17 40  1  0  0  0  0
 18 19  2  0  0  0  0
 19 41  1  0  0  0  0
 20 21  1  0  0  0  0
 20 42  1  0  0  0  0
 20 43  1  0  0  0  0
 21 44  1  0  0  0  0
 21 45  1  0  0  0  0
M  CHG  1   5   1
M  END
> <s_m_source_file>
AV-unprocessed.smi

> <i_m_source_file_index>
1048

> <i_lp_mmshare_version>
43012

> <i_f3d_flags>
0

> <s_epik_input>
W0NIM11bQ0hdMVtDSDJdW0NIMl1OKFtDSDJdW0NIMl0xKVtDSDJdW0NASF0oW09IXSlbQ0gyXVtOSF1DKD1PKVtOSF1jMltjSF1bY0hdW2NIXW5bY0hdMg==

> <s_epik_cmdline>
J2VwaWtfcHl0aG9uJywgJy1waCcsICc3LjAnLCAnLXRuJywgJzgnLCAnLW1hJywgJzIwMCcsICctbWV0YWxfYmluZGluZycsICctaW1hZScsICc8aW5maWxlLm1hZT4nLCAnLW9tYWUnLCAnPG91dGZpbGUubWFlPic=

> <r_lp_tautomer_probability>
1

> <r_epik_Ionization_Penalty>
0.00581049

> <r_epik_Ionization_Penalty_Charging>
0.00147689

> <r_epik_Ionization_Penalty_Neutral>
0.0043336

> <r_epik_State_Penalty>
-0

> <r_epik_Charging_Adjusted_Penalty>
0.00147689

> <i_epik_Tot_Q>
1

> <i_epik_Tot_abs_Q>
1

> <r_epik_Metal_State_Penalty>
-0

> <b_epik_Metal_Only>
0

> <s_lp_Force_Field>
OPLS_2005

> <r_lp_Energy>
24.6749

> <b_lp_Chiralities_Consistent>
1

> <s_lp_Variant>
AV-unprocessed.smi:1048-4

> <Gold.Version>
5.8.1

> <Gold.Id.Protein>
6NUR|6NUR_protein|mol2

> <Gold.PLP.Fitness>
51.4504

> <Gold.PLP.PLP>
-38.9607

> <Gold.PLP.part.hbond>
-3.9710

> <Gold.PLP.part.metal>
0.0000

> <Gold.PLP.part.buried>
-5.6286

> <Gold.PLP.part.nonpolar>
-30.7315

> <Gold.PLP.part.repulsive>
0.3043

> <Gold.PLP.ligand.clash>
0.0000

> <Gold.PLP.ligand.torsion>
0.9033

> <Gold.PLP.Chemscore.Hbond>
4.7166

> <Gold.PLP.Chemscore.CHOScore>
0.0000

> <Gold.PLP.Chemscore.Metal>
0.0000

> <Gold.Chemscore.Hbonds>
donor molecule, donor type, donor heavy atom, donor atom, acceptor molecule, acceptor atom, score
      L1  H     5    46       P1 10175  1.66
      L1  H     8    33       P1  7957  1.00
      L1  H    10    36       P1  8028  0.74
      L1  H    13    37       P1  8028  1.00

> <Gold.PLP.Chemscore.Internal.Correction>
0.1467

> <Gold.Rescore>
     Score         DG    S(hbond)    S(metal)    S(lipo)     H(rot)  DE(clash)    DE(int)     intcor
     18.70     -21.07       3.20        0.00      91.96       2.29       0.36       2.01       ----

> <Gold.Chemscore.Fitness>
18.6960

> <Gold.Chemscore.DG>
-21.0653

> <Gold.Chemscore.ZeroCoef>
-5.4800

> <Gold.Chemscore.Hbond>
3.1975

> <Gold.Chemscore.Metal>
0.0000

> <Gold.Chemscore.Lipo>
91.9575

> <Gold.Chemscore.Internal_Hbond>
0.0000

> <Gold.Chemscore.DEClash>
0.3626

> <Gold.Chemscore.DEInternal>
2.0067

> <Gold.Chemscore.Rot>
2.2865

> <Gold.Chemscore.Internal.Correction>
   9.000000E+99

> <Gold.Chemscore.Hbonds>
donor molecule, donor type, donor heavy atom, donor atom, acceptor molecule, acceptor atom, score
      L1  H     5    46       P1 10175  0.14
      L1  H     8    33       P1  7957  0.96
      L1  H    10    36       P1  8028  0.71
      L1  H    13    37       P1  8028  0.94

> <Gold.Chemscore.Hbond.Weighted>
-10.6798

> <Gold.Chemscore.Metal.Weighted>
-0.0000

> <Gold.Chemscore.Lipo.Weighted>
-10.7590

> <Gold.Chemscore.Internal_Hbond.Weighted>
0.0000

> <Gold.Chemscore.DEClash.Weighted>
0.3626

> <Gold.Chemscore.DEInternal.Weighted>
2.0067

> <Gold.Chemscore.Rot.Weighted>
5.8536

> <Gold.Chemscore.Internal.Correction.Weighted>
   9.000000E+99

> <Gold.Protein.RotatedTorsions>
[ 6907 6896 6895 6894 ] final -159.57 input  -60.11 | X-H torsion
[ 7974 7965 7964 7962 ] final  -20.06 input  175.53 | X-H torsion
[ 8008 7997 7996 7995 ] final  110.05 input   59.86 | X-H torsion
[ 10167 10162 10161 10158 ] final -138.97 input  -65.29 | X-H torsion
[ 10718 10713 10712 10709 ] final   68.29 input   66.30 | X-H torsion
[ 10763 10752 10751 10750 ] final -159.97 input  -60.55 | X-H torsion
[ 11005 11000 10999 10996 ] final  158.71 input  -57.11 | X-H torsion

> <Gold.Protein.ActiveResidues>
 VAL166  LYS551  ARG553  GLY616  TRP617  ASP618  TYR619  PRO620  LYS621  CYS622 
 ASP623  PHE694  ASN695  SER759  ASP760  ASP761  ALA762  ILE779  LEU786  VAL792 
 PHE793  MET794  SER795  GLU796  ALA797  LYS798  CYS799  TRP800  GLU811  SER814 

> <Gold.Protein.RotatedAtoms>
  151.3357  133.3982  159.2666 H   0  0  0  0  0  0  0  0  0  0  0  0  # atno 6907 bound_to 6896
  150.9919  134.9252  159.7915 H   0  0  0  0  0  0  0  0  0  0  0  0  # atno 6908 bound_to 6896
  152.5250  134.3322  159.9239 H   0  0  0  0  0  0  0  0  0  0  0  0  # atno 6909 bound_to 6896
  146.1809  140.4148  142.8495 H   0  0  0  0  0  0  0  0  0  0  0  0  # atno 7974 bound_to 7965
  156.2024  140.3046  155.9555 H   0  0  0  0  0  0  0  0  0  0  0  0  # atno 8008 bound_to 7997
  155.2922  140.0442  157.3041 H   0  0  0  0  0  0  0  0  0  0  0  0  # atno 8009 bound_to 7997
  154.5588  140.2314  155.8376 H   0  0  0  0  0  0  0  0  0  0  0  0  # atno 8010 bound_to 7997
  139.8426  143.7302  152.2662 H   0  0  0  0  0  0  0  0  0  0  0  0  # atno 10167 bound_to 10162
  157.6281  130.9366  150.0358 H   0  0  0  0  0  0  0  0  0  0  0  0  # atno 10718 bound_to 10713
  154.7430  135.3073  154.8695 H   0  0  0  0  0  0  0  0  0  0  0  0  # atno 10763 bound_to 10752
  153.9504  135.6764  153.4748 H   0  0  0  0  0  0  0  0  0  0  0  0  # atno 10764 bound_to 10752
  153.1028  135.4904  154.8822 H   0  0  0  0  0  0  0  0  0  0  0  0  # atno 10765 bound_to 10752
  140.1891  134.8420  157.2892 H   0  0  0  0  0  0  0  0  0  0  0  0  # atno 11005 bound_to 11000
  144.8313  140.6711  143.6289 LP  0  0  0  0  0  0  0  0  0  0  0  0  # atno 17320 bound_to 7965
  145.4080  139.1585  143.4141 LP  0  0  0  0  0  0  0  0  0  0  0  0  # atno 17321 bound_to 7965
  139.7544  144.7525  151.0458 LP  0  0  0  0  0  0  0  0  0  0  0  0  # atno 17342 bound_to 10162
  140.7796  143.4823  151.0002 LP  0  0  0  0  0  0  0  0  0  0  0  0  # atno 17343 bound_to 10162
  156.1465  130.3642  149.9502 LP  0  0  0  0  0  0  0  0  0  0  0  0  # atno 17370 bound_to 10713
  156.7531  130.9123  151.3638 LP  0  0  0  0  0  0  0  0  0  0  0  0  # atno 17371 bound_to 10713
  140.2180  134.4058  155.7580 LP  0  0  0  0  0  0  0  0  0  0  0  0  # atno 17394 bound_to 11000
  141.2226  133.7151  156.8444 LP  0  0  0  0  0  0  0  0  0  0  0  0  # atno 17395 bound_to 11000

$$$$
