AV-unprocessed.smi:750|AV-procd|sdf|3589|dock9
  -GOLD-   22720 0583D 1   1.00000     0.00000
 Structure written by MMmdl.
 23 24  0  0  0  0  0  0  0  0  1 V2000
  145.5485  135.4928  154.1402 C   0  0  0  0  0  0  0  0  0  0  0  0
  145.1645  135.8922  152.7012 C   0  0  2  0  0  0  0  0  0  0  0  0
  144.5769  134.7174  151.9036 C   0  0  0  0  0  0  0  0  0  0  0  0
  145.2582  134.2011  150.7765 C   0  0  0  0  0  0  0  0  0  0  0  0
  144.6988  133.1256  150.0614 C   0  0  0  0  0  0  0  0  0  0  0  0
  143.4689  132.5992  150.4979 C   0  0  0  0  0  0  0  0  0  0  0  0
  142.8010  133.0758  151.5687 N   0  0  0  0  0  0  0  0  0  0  0  0
  143.3457  134.1072  152.2491 C   0  0  0  0  0  0  0  0  0  0  0  0
  146.2963  136.5411  152.0504 N   0  0  0  0  0  0  0  0  0  0  0  0
  146.0377  137.8029  151.6810 C   0  0  0  0  0  0  0  0  0  0  0  0
  146.8114  138.5593  151.0992 O   0  0  0  0  0  0  0  0  0  0  0  0
  144.7925  138.0944  152.0664 N   0  0  0  0  0  0  0  0  0  0  0  0
  144.1997  137.0754  152.6858 C   0  0  0  0  0  0  0  0  0  0  0  0
  143.0702  137.0725  153.1732 O   0  0  0  0  0  0  0  0  0  0  0  0
  144.6919  135.1231  154.7043 H   0  0  0  0  0  0  0  0  0  0  0  0
  145.9578  136.3384  154.6951 H   0  0  0  0  0  0  0  0  0  0  0  0
  146.3045  134.7071  154.1382 H   0  0  0  0  0  0  0  0  0  0  0  0
  146.2032  134.6177  150.4615 H   0  0  0  0  0  0  0  0  0  0  0  0
  145.2020  132.7134  149.1994 H   0  0  0  0  0  0  0  0  0  0  0  0
  143.0101  131.7736  149.9743 H   0  0  0  0  0  0  0  0  0  0  0  0
  142.7668  134.4452  153.0954 H   0  0  0  0  0  0  0  0  0  0  0  0
  147.1738  136.0701  151.8840 H   0  0  0  0  0  0  0  0  0  0  0  0
  144.3556  138.9926  151.9198 H   0  0  0  0  0  0  0  0  0  0  0  0
  1  2  1  0  0  0  0
  1 15  1  0  0  0  0
  1 16  1  0  0  0  0
  1 17  1  0  0  0  0
  2 13  1  0  0  0  0
  2  3  1  0  0  0  0
  2  9  1  0  0  0  0
  3  8  1  0  0  0  0
  3  4  2  0  0  0  0
  4  5  1  0  0  0  0
  4 18  1  0  0  0  0
  5  6  2  0  0  0  0
  5 19  1  0  0  0  0
  6  7  1  0  0  0  0
  6 20  1  0  0  0  0
  7  8  2  0  0  0  0
  8 21  1  0  0  0  0
  9 10  1  0  0  0  0
  9 22  1  0  0  0  0
 10 11  2  0  0  0  0
 10 12  1  0  0  0  0
 12 13  1  0  0  0  0
 12 23  1  0  0  0  0
 13 14  2  0  0  0  0
M  END
> <s_m_source_file>
AV-unprocessed.smi

> <i_m_source_file_index>
750

> <i_lp_mmshare_version>
43012

> <i_f3d_flags>
0

> <s_epik_input>
Tz1DMVtOSF1DKD1PKVtOSF1bQ0BAXTEoW0NIM10pYzJbY0hdW2NIXVtjSF1uW2NIXTI=

> <s_epik_cmdline>
J2VwaWtfcHl0aG9uJywgJy1waCcsICc3LjAnLCAnLXRuJywgJzgnLCAnLW1hJywgJzIwMCcsICctbWV0YWxfYmluZGluZycsICctaW1hZScsICc8aW5maWxlLm1hZT4nLCAnLW9tYWUnLCAnPG91dGZpbGUubWFlPic=

> <r_lp_tautomer_probability>
1

> <r_epik_Ionization_Penalty>
0.0296909

> <r_epik_Ionization_Penalty_Charging>
0

> <r_epik_Ionization_Penalty_Neutral>
0.0296909

> <r_epik_State_Penalty>
0.022996

> <r_epik_Charging_Adjusted_Penalty>
0.022996

> <i_epik_Tot_Q>
0

> <i_epik_Tot_abs_Q>
0

> <r_epik_Metal_State_Penalty>
0.427807

> <b_epik_Metal_Only>
0

> <s_lp_Force_Field>
OPLS_2005

> <r_lp_Energy>
18.5111

> <b_lp_Chiralities_Consistent>
1

> <s_lp_Variant>
AV-unprocessed.smi:750-2

> <Gold.Version>
5.8.1

> <Gold.Id.Protein>
6NUR|6NUR_protein|mol2

> <Gold.PLP.Fitness>
31.9743

> <Gold.PLP.PLP>
-21.2395

> <Gold.PLP.part.hbond>
-3.8590

> <Gold.PLP.part.metal>
0.0000

> <Gold.PLP.part.buried>
-3.6390

> <Gold.PLP.part.nonpolar>
-16.7775

> <Gold.PLP.part.repulsive>
1.2735

> <Gold.PLP.ligand.clash>
0.0000

> <Gold.PLP.ligand.torsion>
0.1356

> <Gold.PLP.Chemscore.Hbond>
2.9440

> <Gold.PLP.Chemscore.CHOScore>
0.6853

> <Gold.PLP.Chemscore.Metal>
0.0000

> <Gold.Chemscore.Hbonds>
donor molecule, donor type, donor heavy atom, donor atom, acceptor molecule, acceptor atom, score
      L1  H     9    22       P1  7948  0.93
      L1  H    12    23       P1 10175  1.00
      P1  H  7954  7966       L1    11  1.00
      L1  C     6    20       P1 10952  0.72

> <Gold.PLP.Chemscore.Internal.Correction>
0.1182

> <Gold.Rescore>
     Score         DG    S(hbond)    S(metal)    S(lipo)     H(rot)  DE(clash)    DE(int)     intcor
     16.47     -16.79       2.87        0.00      36.56       1.00       0.23       0.08       ----

> <Gold.Chemscore.Fitness>
16.4733

> <Gold.Chemscore.DG>
-16.7867

> <Gold.Chemscore.ZeroCoef>
-5.4800

> <Gold.Chemscore.Hbond>
2.8711

> <Gold.Chemscore.Metal>
0.0000

> <Gold.Chemscore.Lipo>
36.5573

> <Gold.Chemscore.Internal_Hbond>
0.0000

> <Gold.Chemscore.DEClash>
0.2308

> <Gold.Chemscore.DEInternal>
0.0826

> <Gold.Chemscore.Rot>
1.0000

> <Gold.Chemscore.Internal.Correction>
   9.000000E+99

> <Gold.Chemscore.Hbonds>
donor molecule, donor type, donor heavy atom, donor atom, acceptor molecule, acceptor atom, score
      L1  H     9    22       P1  7948  0.91
      L1  H    12    23       P1 10175  0.97
      P1  H  7954  7966       L1    11  0.95

> <Gold.Chemscore.Hbond.Weighted>
-9.5895

> <Gold.Chemscore.Metal.Weighted>
-0.0000

> <Gold.Chemscore.Lipo.Weighted>
-4.2772

> <Gold.Chemscore.Internal_Hbond.Weighted>
0.0000

> <Gold.Chemscore.DEClash.Weighted>
0.2308

> <Gold.Chemscore.DEInternal.Weighted>
0.0826

> <Gold.Chemscore.Rot.Weighted>
2.5600

> <Gold.Chemscore.Internal.Correction.Weighted>
   9.000000E+99

> <Gold.Protein.RotatedTorsions>
[ 6907 6896 6895 6894 ] final  179.00 input  -60.11 | X-H torsion
[ 7974 7965 7964 7962 ] final   30.18 input  175.53 | X-H torsion
[ 8008 7997 7996 7995 ] final   89.95 input   59.86 | X-H torsion
[ 10167 10162 10161 10158 ] final  -54.91 input  -65.29 | X-H torsion
[ 10718 10713 10712 10709 ] final  -43.42 input   66.30 | X-H torsion
[ 10763 10752 10751 10750 ] final    1.18 input  -60.55 | X-H torsion
[ 11005 11000 10999 10996 ] final  -13.89 input  -57.11 | X-H torsion

> <Gold.Protein.ActiveResidues>
 VAL166  LYS551  ARG553  GLY616  TRP617  ASP618  TYR619  PRO620  LYS621  CYS622 
 ASP623  PHE694  ASN695  SER759  ASP760  ASP761  ALA762  ILE779  LEU786  VAL792 
 PHE793  MET794  SER795  GLU796  ALA797  LYS798  CYS799  TRP800  GLU811  SER814 

> <Gold.Protein.RotatedAtoms>
  151.6787  133.3312  159.3214 H   0  0  0  0  0  0  0  0  0  0  0  0  # atno 6907 bound_to 6896
  150.7833  134.6799  159.6447 H   0  0  0  0  0  0  0  0  0  0  0  0  # atno 6908 bound_to 6896
  152.3896  134.6466  160.0164 H   0  0  0  0  0  0  0  0  0  0  0  0  # atno 6909 bound_to 6896
  146.1627  139.6823  142.9022 H   0  0  0  0  0  0  0  0  0  0  0  0  # atno 7974 bound_to 7965
  156.0062  140.3355  155.6894 H   0  0  0  0  0  0  0  0  0  0  0  0  # atno 8008 bound_to 7997
  155.6222  140.0676  157.2692 H   0  0  0  0  0  0  0  0  0  0  0  0  # atno 8009 bound_to 7997
  154.4265  140.1774  156.1371 H   0  0  0  0  0  0  0  0  0  0  0  0  # atno 8010 bound_to 7997
  140.6404  143.2505  151.5004 H   0  0  0  0  0  0  0  0  0  0  0  0  # atno 10167 bound_to 10162
  156.2492  130.4186  149.8670 H   0  0  0  0  0  0  0  0  0  0  0  0  # atno 10718 bound_to 10713
  153.3113  135.6963  153.7113 H   0  0  0  0  0  0  0  0  0  0  0  0  # atno 10763 bound_to 10752
  153.5989  135.3466  155.2939 H   0  0  0  0  0  0  0  0  0  0  0  0  # atno 10764 bound_to 10752
  154.8576  135.4336  154.2252 H   0  0  0  0  0  0  0  0  0  0  0  0  # atno 10765 bound_to 10752
  140.7807  133.8365  155.9290 H   0  0  0  0  0  0  0  0  0  0  0  0  # atno 11005 bound_to 11000
  145.4547  141.0430  143.2785 LP  0  0  0  0  0  0  0  0  0  0  0  0  # atno 17320 bound_to 7965
  144.8049  139.6070  143.7055 LP  0  0  0  0  0  0  0  0  0  0  0  0  # atno 17321 bound_to 7965
  139.5613  144.2149  152.1696 LP  0  0  0  0  0  0  0  0  0  0  0  0  # atno 17342 bound_to 10162
  140.1417  144.5196  150.6740 LP  0  0  0  0  0  0  0  0  0  0  0  0  # atno 17343 bound_to 10162
  156.6224  130.8632  151.3478 LP  0  0  0  0  0  0  0  0  0  0  0  0  # atno 17370 bound_to 10713
  157.7207  130.9555  150.1429 LP  0  0  0  0  0  0  0  0  0  0  0  0  # atno 17371 bound_to 10713
  140.9485  134.1809  157.4745 LP  0  0  0  0  0  0  0  0  0  0  0  0  # atno 17394 bound_to 11000
  139.8743  134.9900  156.5482 LP  0  0  0  0  0  0  0  0  0  0  0  0  # atno 17395 bound_to 11000

$$$$
