AV-unprocessed.smi:36|AV-procd|sdf|298|dock5
  -GOLD-   2262016103D 1   1.00000     0.00000
 Structure written by MMmdl.
 63 66  0  0  0  0  0  0  0  0  2 V2000
  146.8333  134.1003  162.2640 C   0  0  0  0  0  0  0  0  0  0  0  0
  145.7831  134.6801  161.3020 C   0  0  0  0  0  0  0  0  0  0  0  0
  144.4200  134.7692  162.0080 C   0  0  0  0  0  0  0  0  0  0  0  0
  146.2160  136.0802  160.8351 C   0  0  0  0  0  0  0  0  0  0  0  0
  145.6205  133.5419  159.7763 Si  0  0  0  0  0  0  0  0  0  0  0  0
  145.3422  131.7361  160.3014 C   0  0  0  0  0  0  0  0  0  0  0  0
  144.2079  134.1087  158.6396 C   0  0  0  0  0  0  0  0  0  0  0  0
  147.0679  133.6366  158.9066 O   0  0  0  0  0  0  0  0  0  0  0  0
  147.1942  133.2751  157.5474 C   0  0  0  0  0  0  0  0  0  0  0  0
  147.9525  134.3898  156.8134 C   0  0  1  0  0  0  0  0  0  0  0  0
  149.0739  134.8398  157.5726 O   0  0  0  0  0  0  0  0  0  0  0  0
  150.1178  135.2138  156.7237 C   0  0  2  0  0  0  0  0  0  0  0  0
  150.4889  136.6334  157.0078 N   0  0  0  0  0  0  0  0  0  0  0  0
  150.7867  137.1763  158.2049 C   0  0  0  0  0  0  0  0  0  0  0  0
  151.1003  138.4698  158.2327 N   0  0  0  0  0  0  0  0  0  0  0  0
  150.9871  138.8144  156.8938 C   0  0  0  0  0  0  0  0  0  0  0  0
  151.1916  140.0391  156.1999 C   0  0  0  0  0  0  0  0  0  0  0  0
  151.5695  141.1699  156.8162 N   0  5  0  0  0  0  0  0  0  0  0  0
  152.2572  141.1040  157.9845 C   0  0  0  0  0  0  0  0  0  0  0  0
  152.9310  140.1648  158.4138 O   0  0  0  0  0  0  0  0  0  0  0  0
  152.2084  142.3823  158.7780 C   0  0  0  0  0  0  0  0  0  0  0  0
  152.4296  142.3485  160.1740 C   0  0  0  0  0  0  0  0  0  0  0  0
  152.3630  143.5294  160.9390 C   0  0  0  0  0  0  0  0  0  0  0  0
  152.0643  144.7562  160.3173 C   0  0  0  0  0  0  0  0  0  0  0  0
  151.8289  144.8007  158.9305 C   0  0  0  0  0  0  0  0  0  0  0  0
  151.8960  143.6203  158.1645 C   0  0  0  0  0  0  0  0  0  0  0  0
  150.9729  140.0301  154.8601 N   0  0  0  0  0  0  0  0  0  0  0  0
  150.6014  138.9025  154.2429 C   0  0  0  0  0  0  0  0  0  0  0  0
  150.3928  137.6896  154.7635 N   0  0  0  0  0  0  0  0  0  0  0  0
  150.5968  137.6870  156.1132 C   0  0  0  0  0  0  0  0  0  0  0  0
  149.6295  135.0495  155.2816 C   0  0  0  0  0  0  0  0  0  0  0  0
  148.5312  134.0184  155.4419 C   0  0  1  0  0  0  0  0  0  0  0  0
  149.0621  132.7061  155.4227 O   0  0  0  0  0  0  0  0  0  0  0  0
  146.9537  134.7313  163.1452 H   0  0  0  0  0  0  0  0  0  0  0  0
  147.8090  134.0168  161.7845 H   0  0  0  0  0  0  0  0  0  0  0  0
  146.5494  133.1058  162.6091 H   0  0  0  0  0  0  0  0  0  0  0  0
  144.0873  133.7912  162.3566 H   0  0  0  0  0  0  0  0  0  0  0  0
  143.6526  135.1584  161.3379 H   0  0  0  0  0  0  0  0  0  0  0  0
  144.4650  135.4286  162.8754 H   0  0  0  0  0  0  0  0  0  0  0  0
  146.3003  136.7708  161.6748 H   0  0  0  0  0  0  0  0  0  0  0  0
  145.4973  136.5031  160.1319 H   0  0  0  0  0  0  0  0  0  0  0  0
  147.1846  136.0516  160.3360 H   0  0  0  0  0  0  0  0  0  0  0  0
  144.4365  131.6281  160.8977 H   0  0  0  0  0  0  0  0  0  0  0  0
  146.1729  131.3605  160.8985 H   0  0  0  0  0  0  0  0  0  0  0  0
  145.2399  131.0775  159.4393 H   0  0  0  0  0  0  0  0  0  0  0  0
  143.2464  134.0851  159.1519 H   0  0  0  0  0  0  0  0  0  0  0  0
  144.1224  133.4699  157.7608 H   0  0  0  0  0  0  0  0  0  0  0  0
  144.3633  135.1271  158.2852 H   0  0  0  0  0  0  0  0  0  0  0  0
  147.7057  132.3178  157.4449 H   0  0  0  0  0  0  0  0  0  0  0  0
  146.1934  133.1589  157.1308 H   0  0  0  0  0  0  0  0  0  0  0  0
  147.2842  135.2405  156.6739 H   0  0  0  0  0  0  0  0  0  0  0  0
  151.0096  134.6273  156.9484 H   0  0  0  0  0  0  0  0  0  0  0  0
  150.7797  136.5864  159.1094 H   0  0  0  0  0  0  0  0  0  0  0  0
  152.6580  141.4146  160.6669 H   0  0  0  0  0  0  0  0  0  0  0  0
  152.5397  143.4925  162.0038 H   0  0  0  0  0  0  0  0  0  0  0  0
  152.0121  145.6612  160.9042 H   0  0  0  0  0  0  0  0  0  0  0  0
  151.5931  145.7404  158.4531 H   0  0  0  0  0  0  0  0  0  0  0  0
  151.7019  143.6747  157.1028 H   0  0  0  0  0  0  0  0  0  0  0  0
  150.4524  138.9833  153.1764 H   0  0  0  0  0  0  0  0  0  0  0  0
  149.2079  135.9882  154.9195 H   0  0  0  0  0  0  0  0  0  0  0  0
  150.4396  134.7491  154.6161 H   0  0  0  0  0  0  0  0  0  0  0  0
  147.7827  134.0983  154.6530 H   0  0  0  0  0  0  0  0  0  0  0  0
  149.9716  132.7557  155.1708 H   0  0  0  0  0  0  0  0  0  0  0  0
  1  2  1  0  0  0  0
  1 34  1  0  0  0  0
  1 35  1  0  0  0  0
  1 36  1  0  0  0  0
  2  3  1  0  0  0  0
  2  4  1  0  0  0  0
  2  5  1  0  0  0  0
  3 37  1  0  0  0  0
  3 38  1  0  0  0  0
  3 39  1  0  0  0  0
  4 40  1  0  0  0  0
  4 41  1  0  0  0  0
  4 42  1  0  0  0  0
  5  6  1  0  0  0  0
  5  7  1  0  0  0  0
  5  8  1  0  0  0  0
  6 43  1  0  0  0  0
  6 44  1  0  0  0  0
  6 45  1  0  0  0  0
  7 46  1  0  0  0  0
  7 47  1  0  0  0  0
  7 48  1  0  0  0  0
  8  9  1  0  0  0  0
  9 10  1  0  0  0  0
  9 49  1  0  0  0  0
  9 50  1  0  0  0  0
 10 32  1  0  0  0  0
 10 11  1  0  0  0  0
 10 51  1  0  0  0  0
 11 12  1  0  0  0  0
 12 13  1  0  0  0  0
 12 31  1  0  0  0  0
 12 52  1  0  0  0  0
 13 30  1  0  0  0  0
 13 14  1  0  0  0  0
 14 15  2  0  0  0  0
 14 53  1  0  0  0  0
 15 16  1  0  0  0  0
 16 30  2  0  0  0  0
 16 17  1  0  0  0  0
 17 18  1  0  0  0  0
 17 27  2  0  0  0  0
 18 19  1  0  0  0  0
 19 20  2  0  0  0  0
 19 21  1  0  0  0  0
 21 26  1  0  0  0  0
 21 22  2  0  0  0  0
 22 23  1  0  0  0  0
 22 54  1  0  0  0  0
 23 24  2  0  0  0  0
 23 55  1  0  0  0  0
 24 25  1  0  0  0  0
 24 56  1  0  0  0  0
 25 26  2  0  0  0  0
 25 57  1  0  0  0  0
 26 58  1  0  0  0  0
 27 28  1  0  0  0  0
 28 29  2  0  0  0  0
 28 59  1  0  0  0  0
 29 30  1  0  0  0  0
 31 32  1  0  0  0  0
 31 60  1  0  0  0  0
 31 61  1  0  0  0  0
 32 33  1  0  0  0  0
 32 62  1  0  0  0  0
 33 63  1  0  0  0  0
M  CHG  1  18  -1
M  END
> <s_m_source_file>
AV-unprocessed.smi

> <i_m_source_file_index>
36

> <i_lp_mmshare_version>
43012

> <i_f3d_flags>
0

> <s_epik_input>
W0NIM11DKFtDSDNdKShbQ0gzXSlbU2ldKFtDSDNdKShbQ0gzXSlPW0NIMl1bQ0BASF0xT1tDQEhdKFtDSDJdW0NASF0xW09IXSluKFtjSF1uMiljKGMyMyluW2NIXW5jM1tOSF1DKD1PKWM0W2NIXVtjSF1bY0hdW2NIXVtjSF00

> <s_epik_cmdline>
J2VwaWtfcHl0aG9uJywgJy1waCcsICc3LjAnLCAnLXRuJywgJzgnLCAnLW1hJywgJzIwMCcsICctbWV0YWxfYmluZGluZycsICctaW1hZScsICc8aW5maWxlLm1hZT4nLCAnLW9tYWUnLCAnPG91dGZpbGUubWFlPic=

> <r_lp_tautomer_probability>
1

> <r_epik_Ionization_Penalty>
4.75685

> <r_epik_Ionization_Penalty_Charging>
3.55822

> <r_epik_Ionization_Penalty_Neutral>
1.19863

> <r_epik_State_Penalty>
3.564

> <r_epik_Charging_Adjusted_Penalty>
7.12222

> <i_epik_Tot_Q>
-1

> <i_epik_Tot_abs_Q>
1

> <r_epik_Metal_State_Penalty>
0.523258

> <b_epik_Metal_Only>
1

> <s_epik_Chemistry_Notes>
This compound contains an acetal/aminal-like group ( X-CH(R)-Y where X, Y are N, S, or O) that may be acid/base labile, releasing an aldehyde.

> <s_lp_Force_Field>
OPLS_2005

> <r_lp_Energy>
38.0647

> <b_lp_Chiralities_Consistent>
1

> <s_lp_Variant>
AV-unprocessed.smi:36-20

> <Gold.Version>
5.8.1

> <Gold.Id.Protein>
6NUR|6NUR_protein|mol2

> <Gold.PLP.Fitness>
59.0194

> <Gold.PLP.PLP>
-50.1297

> <Gold.PLP.part.hbond>
-3.0000

> <Gold.PLP.part.metal>
0.0000

> <Gold.PLP.part.buried>
-6.8447

> <Gold.PLP.part.nonpolar>
-39.3894

> <Gold.PLP.part.repulsive>
0.2420

> <Gold.PLP.ligand.clash>
0.0000

> <Gold.PLP.ligand.torsion>
1.4781

> <Gold.PLP.Chemscore.Hbond>
2.8960

> <Gold.PLP.Chemscore.CHOScore>
1.0000

> <Gold.PLP.Chemscore.Metal>
0.0000

> <Gold.Chemscore.Hbonds>
donor molecule, donor type, donor heavy atom, donor atom, acceptor molecule, acceptor atom, score
      P1  H  7989  7998       L1    27  0.95
      P1  H  7997  8009       L1    20  0.68
      L1  C    28    59       P1  7957  1.00

> <Gold.PLP.Chemscore.Internal.Correction>
0.1578

> <Gold.Rescore>
     Score         DG    S(hbond)    S(metal)    S(lipo)     H(rot)  DE(clash)    DE(int)     intcor
     11.79     -18.86       1.97        0.00     116.44       2.67       0.12       6.95       ----

> <Gold.Chemscore.Fitness>
11.7932

> <Gold.Chemscore.DG>
-18.8615

> <Gold.Chemscore.ZeroCoef>
-5.4800

> <Gold.Chemscore.Hbond>
1.9742

> <Gold.Chemscore.Metal>
0.0000

> <Gold.Chemscore.Lipo>
116.4383

> <Gold.Chemscore.Internal_Hbond>
0.0000

> <Gold.Chemscore.DEClash>
0.1212

> <Gold.Chemscore.DEInternal>
6.9471

> <Gold.Chemscore.Rot>
2.6702

> <Gold.Chemscore.Internal.Correction>
   9.000000E+99

> <Gold.Chemscore.Hbonds>
donor molecule, donor type, donor heavy atom, donor atom, acceptor molecule, acceptor atom, score
      P1  H  7989  7998       L1    27  0.22
      P1  H  7997  8009       L1    20  0.22

> <Gold.Chemscore.Hbond.Weighted>
-6.5940

> <Gold.Chemscore.Metal.Weighted>
-0.0000

> <Gold.Chemscore.Lipo.Weighted>
-13.6233

> <Gold.Chemscore.Internal_Hbond.Weighted>
0.0000

> <Gold.Chemscore.DEClash.Weighted>
0.1212

> <Gold.Chemscore.DEInternal.Weighted>
6.9471

> <Gold.Chemscore.Rot.Weighted>
6.8358

> <Gold.Chemscore.Internal.Correction.Weighted>
   9.000000E+99

> <Gold.Protein.RotatedTorsions>
[ 6907 6896 6895 6894 ] final  -96.90 input  -60.11 | X-H torsion
[ 7974 7965 7964 7962 ] final   47.76 input  175.53 | X-H torsion
[ 8008 7997 7996 7995 ] final  158.19 input   59.86 | X-H torsion
[ 10167 10162 10161 10158 ] final  147.46 input  -65.29 | X-H torsion
[ 10718 10713 10712 10709 ] final   78.30 input   66.30 | X-H torsion
[ 10763 10752 10751 10750 ] final   94.40 input  -60.55 | X-H torsion
[ 11005 11000 10999 10996 ] final  139.13 input  -57.11 | X-H torsion

> <Gold.Protein.ActiveResidues>
 VAL166  LYS551  ARG553  GLY616  TRP617  ASP618  TYR619  PRO620  LYS621  CYS622 
 ASP623  PHE694  ASN695  SER759  ASP760  ASP761  ALA762  ILE779  LEU786  VAL792 
 PHE793  MET794  SER795  GLU796  ALA797  LYS798  CYS799  TRP800  GLU811  SER814 

> <Gold.Protein.RotatedAtoms>
  150.7001  134.1431  159.4112 H   0  0  0  0  0  0  0  0  0  0  0  0  # atno 6907 bound_to 6896
  151.9415  135.0209  160.0545 H   0  0  0  0  0  0  0  0  0  0  0  0  # atno 6908 bound_to 6896
  152.2089  133.4861  159.5136 H   0  0  0  0  0  0  0  0  0  0  0  0  # atno 6909 bound_to 6896
  146.0268  139.4716  142.9863 H   0  0  0  0  0  0  0  0  0  0  0  0  # atno 7974 bound_to 7965
  156.2318  140.1865  156.7223 H   0  0  0  0  0  0  0  0  0  0  0  0  # atno 8008 bound_to 7997
  154.6036  140.0632  156.9428 H   0  0  0  0  0  0  0  0  0  0  0  0  # atno 8009 bound_to 7997
  155.2134  140.3301  155.4328 H   0  0  0  0  0  0  0  0  0  0  0  0  # atno 8010 bound_to 7997
  139.4890  144.5753  151.6977 H   0  0  0  0  0  0  0  0  0  0  0  0  # atno 10167 bound_to 10162
  157.6740  130.9862  150.1767 H   0  0  0  0  0  0  0  0  0  0  0  0  # atno 10718 bound_to 10713
  153.2412  135.4291  155.0700 H   0  0  0  0  0  0  0  0  0  0  0  0  # atno 10763 bound_to 10752
  154.8341  135.3403  154.6647 H   0  0  0  0  0  0  0  0  0  0  0  0  # atno 10764 bound_to 10752
  153.7070  135.7025  153.5104 H   0  0  0  0  0  0  0  0  0  0  0  0  # atno 10765 bound_to 10752
  140.0233  134.9386  157.0517 H   0  0  0  0  0  0  0  0  0  0  0  0  # atno 11005 bound_to 11000
  145.7105  141.0108  143.1456 LP  0  0  0  0  0  0  0  0  0  0  0  0  # atno 17320 bound_to 7965
  144.7013  139.8751  143.7443 LP  0  0  0  0  0  0  0  0  0  0  0  0  # atno 17321 bound_to 7965
  140.5348  144.0673  150.6066 LP  0  0  0  0  0  0  0  0  0  0  0  0  # atno 17342 bound_to 10162
  140.3675  143.2873  152.0315 LP  0  0  0  0  0  0  0  0  0  0  0  0  # atno 17343 bound_to 10162
  156.2509  130.3700  149.8234 LP  0  0  0  0  0  0  0  0  0  0  0  0  # atno 17370 bound_to 10713
  156.6007  130.8545  151.3431 LP  0  0  0  0  0  0  0  0  0  0  0  0  # atno 17371 bound_to 10713
  140.4350  134.1741  155.7170 LP  0  0  0  0  0  0  0  0  0  0  0  0  # atno 17394 bound_to 11000
  141.1787  133.8460  157.1333 LP  0  0  0  0  0  0  0  0  0  0  0  0  # atno 17395 bound_to 11000

$$$$
