AV-unprocessed.smi:2615|AV-procd|sdf|10215|dock2
  -GOLD-   2272014223D 1   1.00000     0.00000
 Structure written by MMmdl.
 36 37  0  0  0  0  0  0  0  0  1 V2000
  146.4986  138.4096  151.9654 C   0  0  0  0  0  0  0  0  0  0  0  0
  147.2054  139.3872  152.8809 C   0  0  0  0  0  0  0  0  0  0  0  0
  146.8369  140.7454  152.9244 C   0  0  0  0  0  0  0  0  0  0  0  0
  147.5293  141.6085  153.7953 C   0  0  0  0  0  0  0  0  0  0  0  0
  148.5712  141.0958  154.6005 C   0  0  0  0  0  0  0  0  0  0  0  0
  149.2047  142.0486  155.4423 N   0  0  0  0  0  0  0  0  0  0  0  0
  150.2154  141.8521  156.3073 C   0  0  0  0  0  0  0  0  0  0  0  0
  150.7746  140.7753  156.5176 O   0  0  0  0  0  0  0  0  0  0  0  0
  150.5486  142.9924  156.9299 N   0  0  0  0  0  0  0  0  0  0  0  0
  151.6048  143.1309  157.9282 C   0  0  0  0  0  0  0  0  0  0  0  0
  151.5682  141.9555  158.9274 C   0  0  0  0  0  0  0  0  0  0  0  0
  152.6229  142.1238  160.0329 C   0  0  0  0  0  0  0  0  0  0  0  0
  152.4617  143.4686  160.7585 C   0  0  0  0  0  0  0  0  0  0  0  0
  152.5045  144.6415  159.7667 C   0  0  0  0  0  0  0  0  0  0  0  0
  151.4482  144.4765  158.6619 C   0  0  0  0  0  0  0  0  0  0  0  0
  148.9185  139.7855  154.5514 N   0  0  0  0  0  0  0  0  0  0  0  0
  148.2544  138.9588  153.7166 C   0  0  0  0  0  0  0  0  0  0  0  0
  145.7450  138.9103  151.3566 H   0  0  0  0  0  0  0  0  0  0  0  0
  146.0049  137.6339  152.5513 H   0  0  0  0  0  0  0  0  0  0  0  0
  147.2152  137.9322  151.2966 H   0  0  0  0  0  0  0  0  0  0  0  0
  146.0384  141.1239  152.3031 H   0  0  0  0  0  0  0  0  0  0  0  0
  147.2598  142.6537  153.8409 H   0  0  0  0  0  0  0  0  0  0  0  0
  148.8460  142.9895  155.3787 H   0  0  0  0  0  0  0  0  0  0  0  0
  150.0351  143.8292  156.6954 H   0  0  0  0  0  0  0  0  0  0  0  0
  152.5725  143.1333  157.4222 H   0  0  0  0  0  0  0  0  0  0  0  0
  150.5782  141.8869  159.3808 H   0  0  0  0  0  0  0  0  0  0  0  0
  151.7350  141.0117  158.4066 H   0  0  0  0  0  0  0  0  0  0  0  0
  152.5457  141.3041  160.7479 H   0  0  0  0  0  0  0  0  0  0  0  0
  153.6210  142.0613  159.5975 H   0  0  0  0  0  0  0  0  0  0  0  0
  151.5146  143.4808  161.2994 H   0  0  0  0  0  0  0  0  0  0  0  0
  153.2469  143.5845  161.5063 H   0  0  0  0  0  0  0  0  0  0  0  0
  152.3457  145.5815  160.2959 H   0  0  0  0  0  0  0  0  0  0  0  0
  153.4961  144.7037  159.3167 H   0  0  0  0  0  0  0  0  0  0  0  0
  151.5289  145.3009  157.9525 H   0  0  0  0  0  0  0  0  0  0  0  0
  150.4524  144.5442  159.1027 H   0  0  0  0  0  0  0  0  0  0  0  0
  148.5707  137.9260  153.7169 H   0  0  0  0  0  0  0  0  0  0  0  0
  1  2  1  0  0  0  0
  1 18  1  0  0  0  0
  1 19  1  0  0  0  0
  1 20  1  0  0  0  0
  2 17  1  0  0  0  0
  2  3  2  0  0  0  0
  3  4  1  0  0  0  0
  3 21  1  0  0  0  0
  4  5  2  0  0  0  0
  4 22  1  0  0  0  0
  5  6  1  0  0  0  0
  5 16  1  0  0  0  0
  6  7  1  0  0  0  0
  6 23  1  0  0  0  0
  7  8  2  0  0  0  0
  7  9  1  0  0  0  0
  9 10  1  0  0  0  0
  9 24  1  0  0  0  0
 10 15  1  0  0  0  0
 10 11  1  0  0  0  0
 10 25  1  0  0  0  0
 11 12  1  0  0  0  0
 11 26  1  0  0  0  0
 11 27  1  0  0  0  0
 12 13  1  0  0  0  0
 12 28  1  0  0  0  0
 12 29  1  0  0  0  0
 13 14  1  0  0  0  0
 13 30  1  0  0  0  0
 13 31  1  0  0  0  0
 14 15  1  0  0  0  0
 14 32  1  0  0  0  0
 14 33  1  0  0  0  0
 15 34  1  0  0  0  0
 15 35  1  0  0  0  0
 16 17  2  0  0  0  0
 17 36  1  0  0  0  0
M  END
> <s_m_source_file>
AV-unprocessed.smi

> <i_m_source_file_index>
2615

> <i_lp_mmshare_version>
43012

> <i_f3d_flags>
0

> <s_epik_input>
W0NIM11jMVtjSF1bY0hdYyhuW2NIXTEpW05IXUMoPU8pW05IXVtDSF0yW0NIMl1bQ0gyXVtDSDJdW0NIMl1bQ0gyXTI=

> <s_epik_cmdline>
J2VwaWtfcHl0aG9uJywgJy1waCcsICc3LjAnLCAnLXRuJywgJzgnLCAnLW1hJywgJzIwMCcsICctbWV0YWxfYmluZGluZycsICctaW1hZScsICc8aW5maWxlLm1hZT4nLCAnLW9tYWUnLCAnPG91dGZpbGUubWFlPic=

> <r_lp_tautomer_probability>
1

> <r_epik_Ionization_Penalty>
6.39786e-05

> <r_epik_Ionization_Penalty_Charging>
0

> <r_epik_Ionization_Penalty_Neutral>
6.39786e-05

> <r_epik_State_Penalty>
-0

> <r_epik_Charging_Adjusted_Penalty>
0

> <i_epik_Tot_Q>
0

> <i_epik_Tot_abs_Q>
0

> <r_epik_Metal_State_Penalty>
-0

> <b_epik_Metal_Only>
0

> <s_lp_Force_Field>
OPLS_2005

> <r_lp_Energy>
11.2563

> <b_lp_Chiralities_Consistent>
1

> <s_lp_Variant>
AV-unprocessed.smi:2615-1

> <Gold.Version>
5.8.1

> <Gold.Id.Protein>
6NUR|6NUR_protein|mol2

> <Gold.PLP.Fitness>
47.7052

> <Gold.PLP.PLP>
-39.0979

> <Gold.PLP.part.hbond>
-2.0000

> <Gold.PLP.part.metal>
0.0000

> <Gold.PLP.part.buried>
-2.3560

> <Gold.PLP.part.nonpolar>
-34.7312

> <Gold.PLP.part.repulsive>
0.3228

> <Gold.PLP.ligand.clash>
0.0000

> <Gold.PLP.ligand.torsion>
0.1979

> <Gold.PLP.Chemscore.Hbond>
2.0000

> <Gold.PLP.Chemscore.CHOScore>
1.0000

> <Gold.PLP.Chemscore.Metal>
0.0000

> <Gold.Chemscore.Hbonds>
donor molecule, donor type, donor heavy atom, donor atom, acceptor molecule, acceptor atom, score
      L1  H     6    23       P1  8028  1.00
      L1  H     9    24       P1  8028  1.00
      L1  C    17    36       P1  7948  1.00

> <Gold.PLP.Chemscore.Internal.Correction>
0.0031

> <Gold.Rescore>
     Score         DG    S(hbond)    S(metal)    S(lipo)     H(rot)  DE(clash)    DE(int)     intcor
     19.07     -22.09       1.93        0.00     108.66       1.00       0.25       2.78       ----

> <Gold.Chemscore.Fitness>
19.0712

> <Gold.Chemscore.DG>
-22.0948

> <Gold.Chemscore.ZeroCoef>
-5.4800

> <Gold.Chemscore.Hbond>
1.9347

> <Gold.Chemscore.Metal>
0.0000

> <Gold.Chemscore.Lipo>
108.6575

> <Gold.Chemscore.Internal_Hbond>
0.0000

> <Gold.Chemscore.DEClash>
0.2457

> <Gold.Chemscore.DEInternal>
2.7779

> <Gold.Chemscore.Rot>
1.0000

> <Gold.Chemscore.Internal.Correction>
   9.000000E+99

> <Gold.Chemscore.Hbonds>
donor molecule, donor type, donor heavy atom, donor atom, acceptor molecule, acceptor atom, score
      L1  H     6    23       P1  8028  0.99
      L1  H     9    24       P1  8028  0.96

> <Gold.Chemscore.Hbond.Weighted>
-6.4619

> <Gold.Chemscore.Metal.Weighted>
-0.0000

> <Gold.Chemscore.Lipo.Weighted>
-12.7129

> <Gold.Chemscore.Internal_Hbond.Weighted>
0.0000

> <Gold.Chemscore.DEClash.Weighted>
0.2457

> <Gold.Chemscore.DEInternal.Weighted>
2.7779

> <Gold.Chemscore.Rot.Weighted>
2.5600

> <Gold.Chemscore.Internal.Correction.Weighted>
   9.000000E+99

> <Gold.Protein.RotatedTorsions>
[ 6907 6896 6895 6894 ] final  -41.29 input  -60.11 | X-H torsion
[ 7974 7965 7964 7962 ] final  -87.93 input  175.53 | X-H torsion
[ 8008 7997 7996 7995 ] final -123.50 input   59.86 | X-H torsion
[ 10167 10162 10161 10158 ] final  -21.89 input  -65.29 | X-H torsion
[ 10718 10713 10712 10709 ] final  168.77 input   66.30 | X-H torsion
[ 10763 10752 10751 10750 ] final  107.08 input  -60.55 | X-H torsion
[ 11005 11000 10999 10996 ] final  145.14 input  -57.11 | X-H torsion

> <Gold.Protein.ActiveResidues>
 VAL166  LYS551  ARG553  GLY616  TRP617  ASP618  TYR619  PRO620  LYS621  CYS622 
 ASP623  PHE694  ASN695  SER759  ASP760  ASP761  ALA762  ILE779  LEU786  VAL792 
 PHE793  MET794  SER795  GLU796  ALA797  LYS798  CYS799  TRP800  GLU811  SER814 

> <Gold.Protein.RotatedAtoms>
  150.9685  134.9062  159.7773 H   0  0  0  0  0  0  0  0  0  0  0  0  # atno 6907 bound_to 6896
  152.5182  134.3574  159.9282 H   0  0  0  0  0  0  0  0  0  0  0  0  # atno 6908 bound_to 6896
  151.3584  133.3858  159.2722 H   0  0  0  0  0  0  0  0  0  0  0  0  # atno 6909 bound_to 6896
  145.4599  140.9561  143.1975 H   0  0  0  0  0  0  0  0  0  0  0  0  # atno 7974 bound_to 7965
  155.1815  140.0410  157.2883 H   0  0  0  0  0  0  0  0  0  0  0  0  # atno 8008 bound_to 7997
  154.6200  140.2498  155.7533 H   0  0  0  0  0  0  0  0  0  0  0  0  # atno 8009 bound_to 7997
  156.2428  140.2897  156.0503 H   0  0  0  0  0  0  0  0  0  0  0  0  # atno 8010 bound_to 7997
  140.7284  143.4586  151.0413 H   0  0  0  0  0  0  0  0  0  0  0  0  # atno 10167 bound_to 10162
  157.0323  131.0263  151.2740 H   0  0  0  0  0  0  0  0  0  0  0  0  # atno 10718 bound_to 10713
  153.4018  135.3856  155.1992 H   0  0  0  0  0  0  0  0  0  0  0  0  # atno 10763 bound_to 10752
  154.8730  135.3773  154.4609 H   0  0  0  0  0  0  0  0  0  0  0  0  # atno 10764 bound_to 10752
  153.5107  135.7087  153.5844 H   0  0  0  0  0  0  0  0  0  0  0  0  # atno 10765 bound_to 10752
  140.0688  134.9163  157.1310 H   0  0  0  0  0  0  0  0  0  0  0  0  # atno 11005 bound_to 11000
  144.8009  139.6143  143.7072 LP  0  0  0  0  0  0  0  0  0  0  0  0  # atno 17320 bound_to 7965
  146.2457  139.6092  142.9461 LP  0  0  0  0  0  0  0  0  0  0  0  0  # atno 17321 bound_to 7965
  139.8268  143.7745  152.3179 LP  0  0  0  0  0  0  0  0  0  0  0  0  # atno 17342 bound_to 10162
  139.7846  144.7432  151.0039 LP  0  0  0  0  0  0  0  0  0  0  0  0  # atno 17343 bound_to 10162
  157.5168  130.7973  149.7765 LP  0  0  0  0  0  0  0  0  0  0  0  0  # atno 17370 bound_to 10713
  156.0065  130.3853  150.2412 LP  0  0  0  0  0  0  0  0  0  0  0  0  # atno 17371 bound_to 10713
  140.3658  134.2444  155.7182 LP  0  0  0  0  0  0  0  0  0  0  0  0  # atno 17394 bound_to 11000
  141.2003  133.7989  157.0493 LP  0  0  0  0  0  0  0  0  0  0  0  0  # atno 17395 bound_to 11000

$$$$
