AV-unprocessed.smi:1723|AV-procd|sdf|6948|dock3
  -GOLD-   22720 8163D 1   1.00000     0.00000
 Structure written by MMmdl.
 37 37  0  0  0  0  0  0  0  0  2 V2000
  146.8941  142.2523  154.5085 C   0  0  0  0  0  0  0  0  0  0  0  0
  148.1459  141.3719  154.4304 C   0  0  0  0  0  0  0  0  0  0  0  0
  147.9630  140.1708  153.4919 C   0  0  0  0  0  0  0  0  0  0  0  0
  149.1262  139.1755  153.5713 C   0  0  0  0  0  0  0  0  0  0  0  0
  150.1495  139.7432  154.3754 O   0  0  0  0  0  0  0  0  0  0  0  0
  150.9086  138.8057  155.1296 C   0  0  1  0  0  0  0  0  0  0  0  0
  151.6965  137.8514  154.2094 C   0  0  0  0  0  0  0  0  0  0  0  0
  151.8423  139.6069  156.0452 C   0  0  0  0  0  0  0  0  0  0  0  0
  153.0556  139.5996  155.8351 O   0  0  0  0  0  0  0  0  0  0  0  0
  151.2319  140.2688  157.0482 N   0  0  0  0  0  0  0  0  0  0  0  0
  151.7845  141.0918  158.0445 C   0  0  0  0  0  0  0  0  0  0  0  0
  151.2789  142.2975  158.4262 C   0  0  0  0  0  0  0  0  0  0  0  0
  151.8922  143.1047  159.4734 C   0  0  0  0  0  0  0  0  0  0  0  0
  151.4207  144.4985  159.8484 C   0  0  0  0  0  0  0  0  0  0  0  0
  151.6195  145.3570  158.8482 F   0  0  0  0  0  0  0  0  0  0  0  0
  150.1224  144.4987  160.1512 F   0  0  0  0  0  0  0  0  0  0  0  0
  152.0953  144.9355  160.9108 F   0  0  0  0  0  0  0  0  0  0  0  0
  153.0174  142.5056  160.0054 C   0  0  0  0  0  0  0  0  0  0  0  0
  153.5635  141.3060  159.7086 N   0  5  0  0  0  0  0  0  0  0  0  0
  152.9832  140.5607  158.7260 C   0  0  0  0  0  0  0  0  0  0  0  0
  153.4345  139.4624  158.3990 O   0  0  0  0  0  0  0  0  0  0  0  0
  147.0535  143.0953  155.1808 H   0  0  0  0  0  0  0  0  0  0  0  0
  146.0380  141.6880  154.8795 H   0  0  0  0  0  0  0  0  0  0  0  0
  146.6329  142.6527  153.5287 H   0  0  0  0  0  0  0  0  0  0  0  0
  148.9886  141.9761  154.0929 H   0  0  0  0  0  0  0  0  0  0  0  0
  148.4000  141.0195  155.4305 H   0  0  0  0  0  0  0  0  0  0  0  0
  147.0327  139.6563  153.7350 H   0  0  0  0  0  0  0  0  0  0  0  0
  147.8613  140.5234  152.4649 H   0  0  0  0  0  0  0  0  0  0  0  0
  148.7838  138.2363  154.0082 H   0  0  0  0  0  0  0  0  0  0  0  0
  149.4965  138.9600  152.5691 H   0  0  0  0  0  0  0  0  0  0  0  0
  150.2406  138.2169  155.7616 H   0  0  0  0  0  0  0  0  0  0  0  0
  152.3954  137.2400  154.7815 H   0  0  0  0  0  0  0  0  0  0  0  0
  152.2691  138.4007  153.4613 H   0  0  0  0  0  0  0  0  0  0  0  0
  151.0343  137.1653  153.6824 H   0  0  0  0  0  0  0  0  0  0  0  0
  150.2355  140.1284  157.1324 H   0  0  0  0  0  0  0  0  0  0  0  0
  150.3842  142.6910  157.9730 H   0  0  0  0  0  0  0  0  0  0  0  0
  153.5657  143.0802  160.7821 H   0  0  0  0  0  0  0  0  0  0  0  0
  1  2  1  0  0  0  0
  1 22  1  0  0  0  0
  1 23  1  0  0  0  0
  1 24  1  0  0  0  0
  2  3  1  0  0  0  0
  2 25  1  0  0  0  0
  2 26  1  0  0  0  0
  3  4  1  0  0  0  0
  3 27  1  0  0  0  0
  3 28  1  0  0  0  0
  4  5  1  0  0  0  0
  4 29  1  0  0  0  0
  4 30  1  0  0  0  0
  5  6  1  0  0  0  0
  6  7  1  0  0  0  0
  6  8  1  0  0  0  0
  6 31  1  0  0  0  0
  7 32  1  0  0  0  0
  7 33  1  0  0  0  0
  7 34  1  0  0  0  0
  8  9  2  0  0  0  0
  8 10  1  0  0  0  0
 10 11  1  0  0  0  0
 10 35  1  0  0  0  0
 11 20  1  0  0  0  0
 11 12  2  0  0  0  0
 12 13  1  0  0  0  0
 12 36  1  0  0  0  0
 13 14  1  0  0  0  0
 13 18  2  0  0  0  0
 14 15  1  0  0  0  0
 14 16  1  0  0  0  0
 14 17  1  0  0  0  0
 18 19  1  0  0  0  0
 18 37  1  0  0  0  0
 19 20  1  0  0  0  0
 20 21  2  0  0  0  0
M  CHG  1  19  -1
M  END
> <s_m_source_file>
AV-unprocessed.smi

> <i_m_source_file_index>
1723

> <i_lp_mmshare_version>
43012

> <i_f3d_flags>
0

> <s_epik_input>
W0NIM11bQ0gyXVtDSDJdW0NIMl1PW0NASF0oW0NIM10pQyg9TylbTkhdYzFbY0hdYyhDKEYpKEYpRilbY0hdW25IXWMxPU8=

> <s_epik_cmdline>
J2VwaWtfcHl0aG9uJywgJy1waCcsICc3LjAnLCAnLXRuJywgJzgnLCAnLW1hJywgJzIwMCcsICctbWV0YWxfYmluZGluZycsICctaW1hZScsICc8aW5maWxlLm1hZT4nLCAnLW9tYWUnLCAnPG91dGZpbGUubWFlPic=

> <r_lp_tautomer_probability>
0.999

> <r_epik_Ionization_Penalty>
2.64397

> <r_epik_Ionization_Penalty_Charging>
0.0618254

> <r_epik_Ionization_Penalty_Neutral>
2.58215

> <r_epik_State_Penalty>
2.58023

> <r_epik_Charging_Adjusted_Penalty>
2.64205

> <i_epik_Tot_Q>
-1

> <i_epik_Tot_abs_Q>
1

> <r_epik_Metal_State_Penalty>
0.429101

> <b_epik_Metal_Only>
1

> <s_lp_Force_Field>
OPLS_2005

> <r_lp_Energy>
21.9007

> <b_lp_Chiralities_Consistent>
1

> <s_lp_Variant>
AV-unprocessed.smi:1723-4

> <Gold.Version>
5.8.1

> <Gold.Id.Protein>
6NUR|6NUR_protein|mol2

> <Gold.PLP.Fitness>
46.5962

> <Gold.PLP.PLP>
-43.5305

> <Gold.PLP.part.hbond>
-3.0000

> <Gold.PLP.part.metal>
0.0000

> <Gold.PLP.part.buried>
1.3233

> <Gold.PLP.part.nonpolar>
-41.4690

> <Gold.PLP.part.repulsive>
0.1955

> <Gold.PLP.ligand.clash>
0.0000

> <Gold.PLP.ligand.torsion>
1.4162

> <Gold.PLP.Chemscore.Hbond>
1.8500

> <Gold.PLP.Chemscore.CHOScore>
0.0000

> <Gold.PLP.Chemscore.Metal>
0.0000

> <Gold.Chemscore.Hbonds>
donor molecule, donor type, donor heavy atom, donor atom, acceptor molecule, acceptor atom, score
      P1  H  7989  7998       L1     5  0.94
      P1  H  7997  8008       L1    21  0.90

> <Gold.PLP.Chemscore.Internal.Correction>
0.3480

> <Gold.Rescore>
     Score         DG    S(hbond)    S(metal)    S(lipo)     H(rot)  DE(clash)    DE(int)     intcor
      7.93     -14.48       1.07        0.00      88.96       1.95       0.60       5.95       ----

> <Gold.Chemscore.Fitness>
7.9256

> <Gold.Chemscore.DG>
-14.4789

> <Gold.Chemscore.ZeroCoef>
-5.4800

> <Gold.Chemscore.Hbond>
1.0734

> <Gold.Chemscore.Metal>
0.0000

> <Gold.Chemscore.Lipo>
88.9555

> <Gold.Chemscore.Internal_Hbond>
0.0000

> <Gold.Chemscore.DEClash>
0.6038

> <Gold.Chemscore.DEInternal>
5.9495

> <Gold.Chemscore.Rot>
1.9507

> <Gold.Chemscore.Internal.Correction>
   9.000000E+99

> <Gold.Chemscore.Hbonds>
donor molecule, donor type, donor heavy atom, donor atom, acceptor molecule, acceptor atom, score
      P1  H  7989  7998       L1     5  0.30
      P1  H  7997  8008       L1    21  0.18
      P1  H  7997  8009       L1     9  0.01

> <Gold.Chemscore.Hbond.Weighted>
-3.5850

> <Gold.Chemscore.Metal.Weighted>
-0.0000

> <Gold.Chemscore.Lipo.Weighted>
-10.4078

> <Gold.Chemscore.Internal_Hbond.Weighted>
0.0000

> <Gold.Chemscore.DEClash.Weighted>
0.6038

> <Gold.Chemscore.DEInternal.Weighted>
5.9495

> <Gold.Chemscore.Rot.Weighted>
4.9939

> <Gold.Chemscore.Internal.Correction.Weighted>
   9.000000E+99

> <Gold.Protein.RotatedTorsions>
[ 6907 6896 6895 6894 ] final  -76.23 input  -60.11 | X-H torsion
[ 7974 7965 7964 7962 ] final   83.10 input  175.53 | X-H torsion
[ 8008 7997 7996 7995 ] final  -85.86 input   59.86 | X-H torsion
[ 10167 10162 10161 10158 ] final   53.72 input  -65.29 | X-H torsion
[ 10718 10713 10712 10709 ] final   40.48 input   66.30 | X-H torsion
[ 10763 10752 10751 10750 ] final    0.19 input  -60.55 | X-H torsion
[ 11005 11000 10999 10996 ] final   22.71 input  -57.11 | X-H torsion

> <Gold.Protein.ActiveResidues>
 VAL166  LYS551  ARG553  GLY616  TRP617  ASP618  TYR619  PRO620  LYS621  CYS622 
 ASP623  PHE694  ASN695  SER759  ASP760  ASP761  ALA762  ILE779  LEU786  VAL792 
 PHE793  MET794  SER795  GLU796  ALA797  LYS798  CYS799  TRP800  GLU811  SER814 

> <Gold.Protein.RotatedAtoms>
  150.7034  134.4604  159.5377 H   0  0  0  0  0  0  0  0  0  0  0  0  # atno 6907 bound_to 6896
  152.2279  134.8347  160.0486 H   0  0  0  0  0  0  0  0  0  0  0  0  # atno 6908 bound_to 6896
  151.9174  133.3541  159.3921 H   0  0  0  0  0  0  0  0  0  0  0  0  # atno 6909 bound_to 6896
  145.6164  139.2377  143.2163 H   0  0  0  0  0  0  0  0  0  0  0  0  # atno 7974 bound_to 7965
  154.6454  140.0586  156.9894 H   0  0  0  0  0  0  0  0  0  0  0  0  # atno 8008 bound_to 7997
  155.1452  140.3269  155.4424 H   0  0  0  0  0  0  0  0  0  0  0  0  # atno 8009 bound_to 7997
  156.2551  140.1957  156.6566 H   0  0  0  0  0  0  0  0  0  0  0  0  # atno 8010 bound_to 7997
  140.2378  144.3617  150.6391 H   0  0  0  0  0  0  0  0  0  0  0  0  # atno 10167 bound_to 10162
  157.3826  130.7762  149.7205 H   0  0  0  0  0  0  0  0  0  0  0  0  # atno 10718 bound_to 10713
  153.3238  135.6971  153.7007 H   0  0  0  0  0  0  0  0  0  0  0  0  # atno 10763 bound_to 10752
  153.5837  135.3493  155.2885 H   0  0  0  0  0  0  0  0  0  0  0  0  # atno 10764 bound_to 10752
  154.8603  135.4301  154.2409 H   0  0  0  0  0  0  0  0  0  0  0  0  # atno 10765 bound_to 10752
  140.3776  134.1956  155.7664 H   0  0  0  0  0  0  0  0  0  0  0  0  # atno 11005 bound_to 11000
  146.1465  140.6986  142.9342 LP  0  0  0  0  0  0  0  0  0  0  0  0  # atno 17320 bound_to 7965
  144.7249  140.4492  143.6981 LP  0  0  0  0  0  0  0  0  0  0  0  0  # atno 17321 bound_to 7965
  140.6137  143.2171  151.6835 LP  0  0  0  0  0  0  0  0  0  0  0  0  # atno 17342 bound_to 10162
  139.5088  144.3600  152.0571 LP  0  0  0  0  0  0  0  0  0  0  0  0  # atno 17343 bound_to 10162
  155.9779  130.4057  150.3681 LP  0  0  0  0  0  0  0  0  0  0  0  0  # atno 17370 bound_to 10713
  157.1787  131.0387  151.2759 LP  0  0  0  0  0  0  0  0  0  0  0  0  # atno 17371 bound_to 10713
  141.1934  133.8151  157.0799 LP  0  0  0  0  0  0  0  0  0  0  0  0  # atno 17394 bound_to 11000
  140.0503  134.9809  157.1125 LP  0  0  0  0  0  0  0  0  0  0  0  0  # atno 17395 bound_to 11000

$$$$
