AV-unprocessed.smi:702|AV-procd|sdf|3422|dock9
  -GOLD-   22720 0403D 1   1.00000     0.00000
 Structure written by MMmdl.
 50 52  0  0  0  0  0  0  0  0  2 V2000
  157.4210  139.5291  160.9245 C   0  0  0  0  0  0  0  0  0  0  0  0
  155.9368  139.1111  161.0353 C   0  0  2  0  0  0  0  0  0  0  0  0
  155.1044  140.3139  160.9136 N   0  0  0  0  0  0  0  0  0  0  0  0
  154.4207  140.6918  159.8235 C   0  0  0  0  0  0  0  0  0  0  0  0
  154.4087  140.0540  158.7709 O   0  0  0  0  0  0  0  0  0  0  0  0
  153.7804  141.8557  160.0295 N   0  0  0  0  0  0  0  0  0  0  0  0
  152.9618  142.5794  159.1207 C   0  0  0  0  0  0  0  0  0  0  0  0
  152.1466  141.8393  158.2358 C   0  0  0  0  0  0  0  0  0  0  0  0
  151.3301  142.5196  157.3091 C   0  0  0  0  0  0  0  0  0  0  0  0
  151.3423  143.8692  157.2658 N   0  3  0  0  0  0  0  0  0  0  0  0
  152.1167  144.6187  158.0793 C   0  0  0  0  0  0  0  0  0  0  0  0
  152.9531  143.9944  159.0272 C   0  0  0  0  0  0  0  0  0  0  0  0
  155.5950  138.2826  162.3315 C   0  0  0  0  0  0  0  0  0  0  0  0
  156.0313  138.9953  163.5734 N   0  0  0  0  0  0  0  0  0  0  0  0
  155.2555  140.1995  163.9122 C   0  0  0  0  0  0  0  0  0  0  0  0
  155.8545  140.9564  165.1087 C   0  0  0  0  0  0  0  0  0  0  0  0
  155.9115  140.0906  166.2351 O   0  0  0  0  0  0  0  0  0  0  0  0
  156.6879  138.9264  165.9834 C   0  0  0  0  0  0  0  0  0  0  0  0
  156.1094  138.1591  164.7814 C   0  0  0  0  0  0  0  0  0  0  0  0
  154.0541  137.9965  162.3309 C   0  0  0  0  0  0  0  0  0  0  0  0
  153.8553  136.4935  162.1156 C   0  0  0  0  0  0  0  0  0  0  0  0
  155.1451  135.8512  162.6013 C   0  0  0  0  0  0  0  0  0  0  0  0
  156.2309  136.8591  162.2253 C   0  0  0  0  0  0  0  0  0  0  0  0
  158.0932  138.6719  160.9469 H   0  0  0  0  0  0  0  0  0  0  0  0
  157.7197  140.1976  161.7312 H   0  0  0  0  0  0  0  0  0  0  0  0
  157.6088  140.0509  159.9856 H   0  0  0  0  0  0  0  0  0  0  0  0
  155.7029  138.4879  160.1718 H   0  0  0  0  0  0  0  0  0  0  0  0
  155.0548  140.9043  161.7310 H   0  0  0  0  0  0  0  0  0  0  0  0
  153.9583  142.3103  160.9133 H   0  0  0  0  0  0  0  0  0  0  0  0
  152.1378  140.7593  158.2693 H   0  0  0  0  0  0  0  0  0  0  0  0
  150.6738  142.0282  156.6056 H   0  0  0  0  0  0  0  0  0  0  0  0
  152.0493  145.6884  157.9449 H   0  0  0  0  0  0  0  0  0  0  0  0
  153.5795  144.6097  159.6551 H   0  0  0  0  0  0  0  0  0  0  0  0
  155.1929  140.8928  163.0775 H   0  0  0  0  0  0  0  0  0  0  0  0
  154.2291  139.9279  164.1593 H   0  0  0  0  0  0  0  0  0  0  0  0
  156.8523  141.3290  164.8720 H   0  0  0  0  0  0  0  0  0  0  0  0
  155.2391  141.8213  165.3561 H   0  0  0  0  0  0  0  0  0  0  0  0
  157.7259  139.2059  165.7969 H   0  0  0  0  0  0  0  0  0  0  0  0
  156.6815  138.2965  166.8729 H   0  0  0  0  0  0  0  0  0  0  0  0
  155.1238  137.7770  165.0453 H   0  0  0  0  0  0  0  0  0  0  0  0
  156.7470  137.2924  164.6236 H   0  0  0  0  0  0  0  0  0  0  0  0
  153.5714  138.3013  163.2567 H   0  0  0  0  0  0  0  0  0  0  0  0
  153.5072  138.5470  161.5664 H   0  0  0  0  0  0  0  0  0  0  0  0
  152.9762  136.1092  162.6334 H   0  0  0  0  0  0  0  0  0  0  0  0
  153.7275  136.2900  161.0518 H   0  0  0  0  0  0  0  0  0  0  0  0
  155.1086  135.7230  163.6833 H   0  0  0  0  0  0  0  0  0  0  0  0
  155.3157  134.8693  162.1591 H   0  0  0  0  0  0  0  0  0  0  0  0
  156.5545  136.6401  161.2079 H   0  0  0  0  0  0  0  0  0  0  0  0
  157.1200  136.7229  162.8393 H   0  0  0  0  0  0  0  0  0  0  0  0
  150.7450  144.3423  156.5870 H   0  0  0  0  0  0  0  0  0  0  0  0
  1  2  1  0  0  0  0
  1 24  1  0  0  0  0
  1 25  1  0  0  0  0
  1 26  1  0  0  0  0
  2  3  1  0  0  0  0
  2 13  1  0  0  0  0
  2 27  1  0  0  0  0
  3  4  1  0  0  0  0
  3 28  1  0  0  0  0
  4  5  2  0  0  0  0
  4  6  1  0  0  0  0
  6  7  1  0  0  0  0
  6 29  1  0  0  0  0
  7 12  1  0  0  0  0
  7  8  2  0  0  0  0
  8  9  1  0  0  0  0
  8 30  1  0  0  0  0
  9 10  2  0  0  0  0
  9 31  1  0  0  0  0
 10 11  1  0  0  0  0
 10 50  1  0  0  0  0
 11 12  2  0  0  0  0
 11 32  1  0  0  0  0
 12 33  1  0  0  0  0
 13 23  1  0  0  0  0
 13 14  1  0  0  0  0
 13 20  1  0  0  0  0
 14 19  1  0  0  0  0
 14 15  1  0  0  0  0
 15 16  1  0  0  0  0
 15 34  1  0  0  0  0
 15 35  1  0  0  0  0
 16 17  1  0  0  0  0
 16 36  1  0  0  0  0
 16 37  1  0  0  0  0
 17 18  1  0  0  0  0
 18 19  1  0  0  0  0
 18 38  1  0  0  0  0
 18 39  1  0  0  0  0
 19 40  1  0  0  0  0
 19 41  1  0  0  0  0
 20 21  1  0  0  0  0
 20 42  1  0  0  0  0
 20 43  1  0  0  0  0
 21 22  1  0  0  0  0
 21 44  1  0  0  0  0
 21 45  1  0  0  0  0
 22 23  1  0  0  0  0
 22 46  1  0  0  0  0
 22 47  1  0  0  0  0
 23 48  1  0  0  0  0
 23 49  1  0  0  0  0
M  CHG  1  10   1
M  END
> <s_m_source_file>
AV-unprocessed.smi

> <i_m_source_file_index>
702

> <i_lp_mmshare_version>
43012

> <i_f3d_flags>
0

> <s_epik_input>
W0NIMl0xW0NIMl1PW0NIMl1bQ0gyXU4xQzIoW0NIMl1bQ0gyXVtDSDJdW0NIMl0yKVtDQEhdKFtDSDNdKVtOSF1DKD1PKVtOSF1jM1tjSF1bY0hdbltjSF1bY0hdMw==

> <s_epik_cmdline>
J2VwaWtfcHl0aG9uJywgJy1waCcsICc3LjAnLCAnLXRuJywgJzgnLCAnLW1hJywgJzIwMCcsICctbWV0YWxfYmluZGluZycsICctaW1hZScsICc8aW5maWxlLm1hZT4nLCAnLW9tYWUnLCAnPG91dGZpbGUubWFlPic=

> <r_epik_Ionization_Penalty>
1.54019

> <r_epik_Ionization_Penalty_Charging>
1.02845

> <r_epik_Ionization_Penalty_Neutral>
0.511739

> <r_epik_State_Penalty>
1.62583

> <r_epik_Charging_Adjusted_Penalty>
2.65428

> <i_epik_Tot_Q>
1

> <i_epik_Tot_abs_Q>
1

> <r_epik_Metal_State_Penalty>
1.71803

> <b_epik_Metal_Only>
0

> <s_lp_Force_Field>
OPLS_2005

> <r_lp_Energy>
73.3397

> <b_lp_Chiralities_Consistent>
1

> <s_lp_Variant>
AV-unprocessed.smi:702-7

> <Gold.Version>
5.8.1

> <Gold.Id.Protein>
6NUR|6NUR_protein|mol2

> <Gold.PLP.Fitness>
43.8312

> <Gold.PLP.PLP>
-36.4583

> <Gold.PLP.part.hbond>
-2.0000

> <Gold.PLP.part.metal>
0.0000

> <Gold.PLP.part.buried>
-4.7090

> <Gold.PLP.part.nonpolar>
-29.8652

> <Gold.PLP.part.repulsive>
0.0765

> <Gold.PLP.ligand.clash>
0.0000

> <Gold.PLP.ligand.torsion>
0.8726

> <Gold.PLP.Chemscore.Hbond>
3.0000

> <Gold.PLP.Chemscore.CHOScore>
0.0000

> <Gold.PLP.Chemscore.Metal>
0.0000

> <Gold.Chemscore.Hbonds>
donor molecule, donor type, donor heavy atom, donor atom, acceptor molecule, acceptor atom, score
      L1  H    10    50       P1  8028  1.76
      P1  H  7997  8010       L1     5  0.94

> <Gold.PLP.Chemscore.Internal.Correction>
0.1181

> <Gold.Rescore>
     Score         DG    S(hbond)    S(metal)    S(lipo)     H(rot)  DE(clash)    DE(int)     intcor
     18.52     -21.12       1.99        0.00     108.44       1.44       0.12       2.48       ----

> <Gold.Chemscore.Fitness>
18.5212

> <Gold.Chemscore.DG>
-21.1224

> <Gold.Chemscore.ZeroCoef>
-5.4800

> <Gold.Chemscore.Hbond>
1.9878

> <Gold.Chemscore.Metal>
0.0000

> <Gold.Chemscore.Lipo>
108.4438

> <Gold.Chemscore.Internal_Hbond>
0.0000

> <Gold.Chemscore.DEClash>
0.1211

> <Gold.Chemscore.DEInternal>
2.4801

> <Gold.Chemscore.Rot>
1.4394

> <Gold.Chemscore.Internal.Correction>
   9.000000E+99

> <Gold.Chemscore.Hbonds>
donor molecule, donor type, donor heavy atom, donor atom, acceptor molecule, acceptor atom, score
      L1  H    10    50       P1  8028  0.83
      P1  H  7997  8010       L1     5  0.91

> <Gold.Chemscore.Hbond.Weighted>
-6.6393

> <Gold.Chemscore.Metal.Weighted>
-0.0000

> <Gold.Chemscore.Lipo.Weighted>
-12.6879

> <Gold.Chemscore.Internal_Hbond.Weighted>
0.0000

> <Gold.Chemscore.DEClash.Weighted>
0.1211

> <Gold.Chemscore.DEInternal.Weighted>
2.4801

> <Gold.Chemscore.Rot.Weighted>
3.6848

> <Gold.Chemscore.Internal.Correction.Weighted>
   9.000000E+99

> <Gold.Protein.RotatedTorsions>
[ 6907 6896 6895 6894 ] final   59.19 input  -60.11 | X-H torsion
[ 7974 7965 7964 7962 ] final  -29.72 input  175.53 | X-H torsion
[ 8008 7997 7996 7995 ] final   16.45 input   59.86 | X-H torsion
[ 10167 10162 10161 10158 ] final  -84.73 input  -65.29 | X-H torsion
[ 10718 10713 10712 10709 ] final -121.61 input   66.30 | X-H torsion
[ 10763 10752 10751 10750 ] final    4.69 input  -60.55 | X-H torsion
[ 11005 11000 10999 10996 ] final  118.65 input  -57.11 | X-H torsion

> <Gold.Protein.ActiveResidues>
 VAL166  LYS551  ARG553  GLY616  TRP617  ASP618  TYR619  PRO620  LYS621  CYS622 
 ASP623  PHE694  ASN695  SER759  ASP760  ASP761  ALA762  ILE779  LEU786  VAL792 
 PHE793  MET794  SER795  GLU796  ALA797  LYS798  CYS799  TRP800  GLU811  SER814 

> <Gold.Protein.RotatedAtoms>
  152.3892  134.6468  160.0113 H   0  0  0  0  0  0  0  0  0  0  0  0  # atno 6907 bound_to 6896
  151.6708  133.3308  159.3204 H   0  0  0  0  0  0  0  0  0  0  0  0  # atno 6908 bound_to 6896
  150.7811  134.6801  159.6484 H   0  0  0  0  0  0  0  0  0  0  0  0  # atno 6909 bound_to 6896
  146.1196  140.5448  142.8741 H   0  0  0  0  0  0  0  0  0  0  0  0  # atno 7974 bound_to 7965
  154.8772  140.2967  155.5446 H   0  0  0  0  0  0  0  0  0  0  0  0  # atno 8008 bound_to 7997
  156.3022  140.2449  156.3703 H   0  0  0  0  0  0  0  0  0  0  0  0  # atno 8009 bound_to 7997
  154.8755  140.0400  157.1739 H   0  0  0  0  0  0  0  0  0  0  0  0  # atno 8010 bound_to 7997
  140.4105  143.2624  151.9024 H   0  0  0  0  0  0  0  0  0  0  0  0  # atno 10167 bound_to 10162
  156.1351  130.6424  150.9683 H   0  0  0  0  0  0  0  0  0  0  0  0  # atno 10718 bound_to 10713
  153.2683  135.6930  153.7507 H   0  0  0  0  0  0  0  0  0  0  0  0  # atno 10763 bound_to 10752
  153.6540  135.3372  155.3109 H   0  0  0  0  0  0  0  0  0  0  0  0  # atno 10764 bound_to 10752
  154.8455  135.4461  154.1697 H   0  0  0  0  0  0  0  0  0  0  0  0  # atno 10765 bound_to 10752
  139.9117  134.9622  156.7535 H   0  0  0  0  0  0  0  0  0  0  0  0  # atno 11005 bound_to 11000
  144.7584  140.5364  143.6752 LP  0  0  0  0  0  0  0  0  0  0  0  0  # atno 17320 bound_to 7965
  145.5494  139.1476  143.3402 LP  0  0  0  0  0  0  0  0  0  0  0  0  # atno 17321 bound_to 7965
  139.4782  144.5542  151.8340 LP  0  0  0  0  0  0  0  0  0  0  0  0  # atno 17342 bound_to 10162
  140.4643  144.1678  150.5910 LP  0  0  0  0  0  0  0  0  0  0  0  0  # atno 17343 bound_to 10162
  157.6524  131.0895  150.8021 LP  0  0  0  0  0  0  0  0  0  0  0  0  # atno 17370 bound_to 10713
  156.8102  130.4950  149.5357 LP  0  0  0  0  0  0  0  0  0  0  0  0  # atno 17371 bound_to 10713
  140.6754  133.9522  155.7880 LP  0  0  0  0  0  0  0  0  0  0  0  0  # atno 17394 bound_to 11000
  141.0548  134.0433  157.3737 LP  0  0  0  0  0  0  0  0  0  0  0  0  # atno 17395 bound_to 11000

$$$$
