AV-unprocessed.smi:878|AV-procd|sdf|4031|dock5
  -GOLD-   22720 1523D 1   1.00000     0.00000
 Structure written by MMmdl.
 33 34  0  0  0  0  0  0  0  0  1 V2000
  154.4025  142.9730  164.2387 C   0  0  0  0  0  0  0  0  0  0  0  0
  153.1655  143.9033  163.2939 S   0  0  0  0  0  0  0  0  0  0  0  0
  152.8717  143.0448  161.7742 C   0  0  0  0  0  0  0  0  0  0  0  0
  151.9103  143.4953  160.8453 C   0  0  0  0  0  0  0  0  0  0  0  0
  151.7002  142.7882  159.6450 C   0  0  0  0  0  0  0  0  0  0  0  0
  152.4512  141.6212  159.3565 C   0  0  0  0  0  0  0  0  0  0  0  0
  152.3151  140.8749  158.2064 O   0  0  0  0  0  0  0  0  0  0  0  0
  151.2428  141.1797  157.3250 C   0  0  0  0  0  0  0  0  0  0  0  0
  151.5449  140.6224  155.9241 C   0  0  0  0  0  0  0  0  0  0  0  0
  150.3555  140.2985  155.1731 N   0  0  0  0  0  0  0  0  0  0  0  0
  149.2956  141.1841  155.0555 C   0  0  0  0  0  0  0  0  0  0  0  0
  148.1616  140.8999  154.3706 C   0  0  0  0  0  0  0  0  0  0  0  0
  146.8836  142.0577  154.2705 Cl  0  0  0  0  0  0  0  0  0  0  0  0
  148.0108  139.6038  153.7106 C   0  0  0  0  0  0  0  0  0  0  0  0
  147.0301  139.2445  153.0619 O   0  0  0  0  0  0  0  0  0  0  0  0
  149.0994  138.7397  153.8626 N   0  0  0  0  0  0  0  0  0  0  0  0
  150.2692  139.0223  154.5685 C   0  0  0  0  0  0  0  0  0  0  0  0
  151.1592  138.1749  154.6397 O   0  0  0  0  0  0  0  0  0  0  0  0
  153.4075  141.1804  160.2935 C   0  0  0  0  0  0  0  0  0  0  0  0
  153.6164  141.8833  161.4952 C   0  0  0  0  0  0  0  0  0  0  0  0
  149.0327  137.8319  153.4257 H   0  0  0  0  0  0  0  0  0  0  0  0
  154.5554  143.4395  165.2119 H   0  0  0  0  0  0  0  0  0  0  0  0
  155.3575  142.9578  163.7138 H   0  0  0  0  0  0  0  0  0  0  0  0
  154.0691  141.9475  164.3982 H   0  0  0  0  0  0  0  0  0  0  0  0
  151.3227  144.3796  161.0354 H   0  0  0  0  0  0  0  0  0  0  0  0
  150.9569  143.1649  158.9592 H   0  0  0  0  0  0  0  0  0  0  0  0
  150.3065  140.7619  157.6994 H   0  0  0  0  0  0  0  0  0  0  0  0
  151.1231  142.2617  157.2555 H   0  0  0  0  0  0  0  0  0  0  0  0
  152.0700  141.3701  155.3277 H   0  0  0  0  0  0  0  0  0  0  0  0
  152.1978  139.7475  155.9475 H   0  0  0  0  0  0  0  0  0  0  0  0
  149.3736  142.1497  155.5350 H   0  0  0  0  0  0  0  0  0  0  0  0
  153.9867  140.2921  160.0883 H   0  0  0  0  0  0  0  0  0  0  0  0
  154.3530  141.5289  162.2013 H   0  0  0  0  0  0  0  0  0  0  0  0
  1  2  1  0  0  0  0
  1 22  1  0  0  0  0
  1 23  1  0  0  0  0
  1 24  1  0  0  0  0
  2  3  1  0  0  0  0
  3 20  1  0  0  0  0
  3  4  2  0  0  0  0
  4  5  1  0  0  0  0
  4 25  1  0  0  0  0
  5  6  2  0  0  0  0
  5 26  1  0  0  0  0
  6  7  1  0  0  0  0
  6 19  1  0  0  0  0
  7  8  1  0  0  0  0
  8  9  1  0  0  0  0
  8 27  1  0  0  0  0
  8 28  1  0  0  0  0
  9 10  1  0  0  0  0
  9 29  1  0  0  0  0
  9 30  1  0  0  0  0
 10 17  1  0  0  0  0
 10 11  1  0  0  0  0
 11 12  2  0  0  0  0
 11 31  1  0  0  0  0
 12 13  1  0  0  0  0
 12 14  1  0  0  0  0
 14 15  2  0  0  0  0
 14 16  1  0  0  0  0
 16 21  1  0  0  0  0
 16 17  1  0  0  0  0
 17 18  2  0  0  0  0
 19 20  2  0  0  0  0
 19 32  1  0  0  0  0
 20 33  1  0  0  0  0
M  END
> <s_m_source_file>
AV-unprocessed.smi

> <i_m_source_file_index>
878

> <i_lp_mmshare_version>
43012

> <i_f3d_flags>
0

> <s_epik_input>
W0NIM11TYzFbY0hdW2NIXWMoW2NIXVtjSF0xKU9bQ0gyXVtDSDJdbjJbY0hdYyhDbCljKD1PKVtuSF1jMj1P

> <s_epik_cmdline>
J2VwaWtfcHl0aG9uJywgJy1waCcsICc3LjAnLCAnLXRuJywgJzgnLCAnLW1hJywgJzIwMCcsICctbWV0YWxfYmluZGluZycsICctaW1hZScsICc8aW5maWxlLm1hZT4nLCAnLW9tYWUnLCAnPG91dGZpbGUubWFlPic=

> <r_lp_tautomer_probability>
0.999537

> <r_epik_Ionization_Penalty>
0.037527

> <r_epik_Ionization_Penalty_Charging>
0.037527

> <r_epik_Ionization_Penalty_Neutral>
0

> <r_epik_State_Penalty>
0.0314158

> <r_epik_Charging_Adjusted_Penalty>
0.0689428

> <i_epik_Tot_Q>
0

> <i_epik_Tot_abs_Q>
0

> <r_epik_Metal_State_Penalty>
2.37917

> <b_epik_Metal_Only>
0

> <s_lp_Force_Field>
OPLS_2005

> <r_lp_Energy>
14.7844

> <b_lp_Chiralities_Consistent>
1

> <s_lp_Variant>
AV-unprocessed.smi:878-1

> <Gold.Version>
5.8.1

> <Gold.Id.Protein>
6NUR|6NUR_protein|mol2

> <Gold.PLP.Fitness>
52.0223

> <Gold.PLP.PLP>
-48.5442

> <Gold.PLP.part.hbond>
-1.3211

> <Gold.PLP.part.metal>
0.0000

> <Gold.PLP.part.buried>
-2.3157

> <Gold.PLP.part.nonpolar>
-44.6000

> <Gold.PLP.part.repulsive>
0.8203

> <Gold.PLP.ligand.clash>
0.0000

> <Gold.PLP.ligand.torsion>
0.4443

> <Gold.PLP.Chemscore.Hbond>
0.4550

> <Gold.PLP.Chemscore.CHOScore>
0.9930

> <Gold.PLP.Chemscore.Metal>
0.0000

> <Gold.Chemscore.Hbonds>
donor molecule, donor type, donor heavy atom, donor atom, acceptor molecule, acceptor atom, score
      L1  H    16    21       P1  7948  0.54
      L1  C    11    31       P1  8028  0.79

> <Gold.PLP.Chemscore.Internal.Correction>
0.0226

> <Gold.Rescore>
     Score         DG    S(hbond)    S(metal)    S(lipo)     H(rot)  DE(clash)    DE(int)     intcor
     15.65     -16.91       0.73        0.00     120.03       1.98       0.79       0.47       ----

> <Gold.Chemscore.Fitness>
15.6461

> <Gold.Chemscore.DG>
-16.9062

> <Gold.Chemscore.ZeroCoef>
-5.4800

> <Gold.Chemscore.Hbond>
0.7306

> <Gold.Chemscore.Metal>
0.0000

> <Gold.Chemscore.Lipo>
120.0297

> <Gold.Chemscore.Internal_Hbond>
0.0000

> <Gold.Chemscore.DEClash>
0.7895

> <Gold.Chemscore.DEInternal>
0.4706

> <Gold.Chemscore.Rot>
1.9755

> <Gold.Chemscore.Internal.Correction>
   9.000000E+99

> <Gold.Chemscore.Hbonds>
donor molecule, donor type, donor heavy atom, donor atom, acceptor molecule, acceptor atom, score
      L1  H    16    21       P1  7948  0.54

> <Gold.Chemscore.Hbond.Weighted>
-2.4401

> <Gold.Chemscore.Metal.Weighted>
-0.0000

> <Gold.Chemscore.Lipo.Weighted>
-14.0435

> <Gold.Chemscore.Internal_Hbond.Weighted>
0.0000

> <Gold.Chemscore.DEClash.Weighted>
0.7895

> <Gold.Chemscore.DEInternal.Weighted>
0.4706

> <Gold.Chemscore.Rot.Weighted>
5.0574

> <Gold.Chemscore.Internal.Correction.Weighted>
   9.000000E+99

> <Gold.Protein.RotatedTorsions>
[ 6907 6896 6895 6894 ] final  170.73 input  -60.11 | X-H torsion
[ 7974 7965 7964 7962 ] final   95.34 input  175.53 | X-H torsion
[ 8008 7997 7996 7995 ] final   48.13 input   59.86 | X-H torsion
[ 10167 10162 10161 10158 ] final  -41.73 input  -65.29 | X-H torsion
[ 10718 10713 10712 10709 ] final -119.30 input   66.30 | X-H torsion
[ 10763 10752 10751 10750 ] final   22.31 input  -60.55 | X-H torsion
[ 11005 11000 10999 10996 ] final -136.10 input  -57.11 | X-H torsion

> <Gold.Protein.ActiveResidues>
 VAL166  LYS551  ARG553  GLY616  TRP617  ASP618  TYR619  PRO620  LYS621  CYS622 
 ASP623  PHE694  ASN695  SER759  ASP760  ASP761  ALA762  ILE779  LEU786  VAL792 
 PHE793  MET794  SER795  GLU796  ALA797  LYS798  CYS799  TRP800  GLU811  SER814 

> <Gold.Protein.RotatedAtoms>
  151.8115  133.3382  159.3556 H   0  0  0  0  0  0  0  0  0  0  0  0  # atno 6907 bound_to 6896
  150.7324  134.5660  159.5875 H   0  0  0  0  0  0  0  0  0  0  0  0  # atno 6908 bound_to 6896
  152.3072  134.7542  160.0396 H   0  0  0  0  0  0  0  0  0  0  0  0  # atno 6909 bound_to 6896
  145.4535  139.2291  143.3027 H   0  0  0  0  0  0  0  0  0  0  0  0  # atno 7974 bound_to 7965
  155.3806  140.3428  155.4246 H   0  0  0  0  0  0  0  0  0  0  0  0  # atno 8008 bound_to 7997
  156.1612  140.1601  156.8642 H   0  0  0  0  0  0  0  0  0  0  0  0  # atno 8009 bound_to 7997
  154.5142  140.0782  156.8030 H   0  0  0  0  0  0  0  0  0  0  0  0  # atno 8010 bound_to 7997
  140.6993  143.3077  151.3109 H   0  0  0  0  0  0  0  0  0  0  0  0  # atno 10167 bound_to 10162
  156.1171  130.6294  150.9399 H   0  0  0  0  0  0  0  0  0  0  0  0  # atno 10718 bound_to 10713
  153.0926  135.6651  153.9825 H   0  0  0  0  0  0  0  0  0  0  0  0  # atno 10763 bound_to 10752
  153.9418  135.2993  155.3444 H   0  0  0  0  0  0  0  0  0  0  0  0  # atno 10764 bound_to 10752
  154.7341  135.5109  153.9087 H   0  0  0  0  0  0  0  0  0  0  0  0  # atno 10765 bound_to 10752
  140.8836  134.1900  157.4574 H   0  0  0  0  0  0  0  0  0  0  0  0  # atno 11005 bound_to 11000
  146.2491  140.5296  142.8901 LP  0  0  0  0  0  0  0  0  0  0  0  0  # atno 17320 bound_to 7965
  144.8047  140.6277  143.6455 LP  0  0  0  0  0  0  0  0  0  0  0  0  # atno 17321 bound_to 7965
  139.6489  144.0399  152.2612 LP  0  0  0  0  0  0  0  0  0  0  0  0  # atno 17342 bound_to 10162
  139.9928  144.6349  150.7798 LP  0  0  0  0  0  0  0  0  0  0  0  0  # atno 17343 bound_to 10162
  157.6354  131.0916  150.8358 LP  0  0  0  0  0  0  0  0  0  0  0  0  # atno 17370 bound_to 10713
  156.8460  130.5064  149.5316 LP  0  0  0  0  0  0  0  0  0  0  0  0  # atno 17371 bound_to 10713
  139.8722  134.9828  156.5172 LP  0  0  0  0  0  0  0  0  0  0  0  0  # atno 17394 bound_to 11000
  140.8431  133.8190  155.9094 LP  0  0  0  0  0  0  0  0  0  0  0  0  # atno 17395 bound_to 11000

$$$$
