AV-unprocessed.smi:1677|AV-procd|sdf|6723|dock7
  -GOLD-   22720 7463D 1   1.00000     0.00000
 Structure written by MMmdl.
 37 38  0  0  0  0  0  0  0  0  2 V2000
  146.7847  141.9305  156.7949 C   0  0  0  0  0  0  0  0  0  0  0  0
  148.0756  141.4020  156.1487 C   0  0  1  0  0  0  0  0  0  0  0  0
  148.1679  141.7067  154.6378 C   0  0  0  0  0  0  0  0  0  0  0  0
  147.9296  140.5251  153.8034 N   0  0  0  0  0  0  0  0  0  0  0  0
  146.8875  140.3215  152.9356 C   0  0  0  0  0  0  0  0  0  0  0  0
  147.0775  139.0822  152.3804 C   0  0  0  0  0  0  0  0  0  0  0  0
  148.2248  138.5808  152.9349 N   0  3  0  0  0  0  0  0  0  0  0  0
  148.7397  139.4582  153.8026 C   0  0  0  0  0  0  0  0  0  0  0  0
  149.2252  141.9680  156.8479 N   0  0  0  0  0  0  0  0  0  0  0  0
  150.5108  141.7802  156.5095 C   0  0  0  0  0  0  0  0  0  0  0  0
  150.8611  141.1114  155.5367 O   0  0  0  0  0  0  0  0  0  0  0  0
  151.5583  142.4527  157.4065 C   0  0  1  0  0  0  0  0  0  0  0  0
  151.4112  143.9911  157.3743 C   0  0  0  0  0  0  0  0  0  0  0  0
  152.2672  144.6691  158.4293 C   0  0  0  0  0  0  0  0  0  0  0  0
  152.8037  144.0180  159.4756 C   0  0  0  0  0  0  0  0  0  0  0  0
  152.6094  142.5323  159.7246 C   0  0  0  0  0  0  0  0  0  0  0  0
  151.4832  141.9368  158.8578 C   0  0  0  0  0  0  0  0  0  0  0  0
  145.8989  141.4679  156.3595 H   0  0  0  0  0  0  0  0  0  0  0  0
  146.6929  143.0103  156.6716 H   0  0  0  0  0  0  0  0  0  0  0  0
  146.7672  141.7157  157.8642 H   0  0  0  0  0  0  0  0  0  0  0  0
  148.0868  140.3191  156.2863 H   0  0  0  0  0  0  0  0  0  0  0  0
  147.4500  142.4788  154.3561 H   0  0  0  0  0  0  0  0  0  0  0  0
  149.1572  142.0879  154.3809 H   0  0  0  0  0  0  0  0  0  0  0  0
  146.1097  141.0557  152.7809 H   0  0  0  0  0  0  0  0  0  0  0  0
  146.4973  138.5339  151.6524 H   0  0  0  0  0  0  0  0  0  0  0  0
  149.6359  139.3310  154.3835 H   0  0  0  0  0  0  0  0  0  0  0  0
  149.0310  142.5339  157.6616 H   0  0  0  0  0  0  0  0  0  0  0  0
  152.5478  142.1998  157.0204 H   0  0  0  0  0  0  0  0  0  0  0  0
  151.7036  144.3690  156.3940 H   0  0  0  0  0  0  0  0  0  0  0  0
  150.3755  144.2944  157.5356 H   0  0  0  0  0  0  0  0  0  0  0  0
  152.4293  145.7311  158.3168 H   0  0  0  0  0  0  0  0  0  0  0  0
  153.4163  144.5549  160.1850 H   0  0  0  0  0  0  0  0  0  0  0  0
  153.5533  142.0290  159.5140 H   0  0  0  0  0  0  0  0  0  0  0  0
  152.3910  142.3698  160.7803 H   0  0  0  0  0  0  0  0  0  0  0  0
  150.5197  142.2094  159.2918 H   0  0  0  0  0  0  0  0  0  0  0  0
  151.5351  140.8474  158.8865 H   0  0  0  0  0  0  0  0  0  0  0  0
  148.6270  137.6765  152.7214 H   0  0  0  0  0  0  0  0  0  0  0  0
  1  2  1  0  0  0  0
  1 18  1  0  0  0  0
  1 19  1  0  0  0  0
  1 20  1  0  0  0  0
  2  3  1  0  0  0  0
  2  9  1  0  0  0  0
  2 21  1  0  0  0  0
  3  4  1  0  0  0  0
  3 22  1  0  0  0  0
  3 23  1  0  0  0  0
  4  8  1  0  0  0  0
  4  5  1  0  0  0  0
  5  6  2  0  0  0  0
  5 24  1  0  0  0  0
  6  7  1  0  0  0  0
  6 25  1  0  0  0  0
  7  8  2  0  0  0  0
  7 37  1  0  0  0  0
  8 26  1  0  0  0  0
  9 10  1  0  0  0  0
  9 27  1  0  0  0  0
 10 11  2  0  0  0  0
 10 12  1  0  0  0  0
 12 17  1  0  0  0  0
 12 13  1  0  0  0  0
 12 28  1  0  0  0  0
 13 14  1  0  0  0  0
 13 29  1  0  0  0  0
 13 30  1  0  0  0  0
 14 15  2  0  0  0  0
 14 31  1  0  0  0  0
 15 16  1  0  0  0  0
 15 32  1  0  0  0  0
 16 17  1  0  0  0  0
 16 33  1  0  0  0  0
 16 34  1  0  0  0  0
 17 35  1  0  0  0  0
 17 36  1  0  0  0  0
M  CHG  1   7   1
M  END
> <s_m_source_file>
AV-unprocessed.smi

> <i_m_source_file_index>
1677

> <i_lp_mmshare_version>
43012

> <i_f3d_flags>
0

> <s_epik_input>
W2NIXTFuW2NIXVtjSF1uMVtDSDJdW0NAQEhdKFtDSDNdKVtOSF1DKD1PKVtDQEBIXTJbQ0gyXVtDSF09W0NIXVtDSDJdW0NIMl0y

> <s_epik_cmdline>
J2VwaWtfcHl0aG9uJywgJy1waCcsICc3LjAnLCAnLXRuJywgJzgnLCAnLW1hJywgJzIwMCcsICctbWV0YWxfYmluZGluZycsICctaW1hZScsICc8aW5maWxlLm1hZT4nLCAnLW9tYWUnLCAnPG91dGZpbGUubWFlPic=

> <r_lp_tautomer_probability>
1

> <r_epik_Ionization_Penalty>
0.245541

> <r_epik_Ionization_Penalty_Charging>
0

> <r_epik_Ionization_Penalty_Neutral>
0.245541

> <r_epik_State_Penalty>
0.236686

> <r_epik_Charging_Adjusted_Penalty>
0.236686

> <i_epik_Tot_Q>
1

> <i_epik_Tot_abs_Q>
1

> <r_epik_Metal_State_Penalty>
0.529594

> <b_epik_Metal_Only>
0

> <s_lp_Force_Field>
OPLS_2005

> <r_lp_Energy>
11.602

> <b_lp_Chiralities_Consistent>
1

> <s_lp_Variant>
AV-unprocessed.smi:1677-4

> <Gold.Version>
5.8.1

> <Gold.Id.Protein>
6NUR|6NUR_protein|mol2

> <Gold.PLP.Fitness>
45.9715

> <Gold.PLP.PLP>
-37.7114

> <Gold.PLP.part.hbond>
-4.0000

> <Gold.PLP.part.metal>
0.0000

> <Gold.PLP.part.buried>
1.6753

> <Gold.PLP.part.nonpolar>
-35.1335

> <Gold.PLP.part.repulsive>
0.1120

> <Gold.PLP.ligand.clash>
0.0000

> <Gold.PLP.ligand.torsion>
0.7380

> <Gold.PLP.Chemscore.Hbond>
2.3385

> <Gold.PLP.Chemscore.CHOScore>
0.8935

> <Gold.PLP.Chemscore.Metal>
0.0000

> <Gold.Chemscore.Hbonds>
donor molecule, donor type, donor heavy atom, donor atom, acceptor molecule, acceptor atom, score
      L1  H     7    37       P1  7948  2.00
      P1  H  7989  7998       L1    11  0.41
      L1  C     5    24       P1 10175  0.81

> <Gold.PLP.Chemscore.Internal.Correction>
0.0400

> <Gold.Rescore>
     Score         DG    S(hbond)    S(metal)    S(lipo)     H(rot)  DE(clash)    DE(int)     intcor
     13.59     -15.91       1.22        0.00      94.01       1.81       0.17       2.15       ----

> <Gold.Chemscore.Fitness>
13.5928

> <Gold.Chemscore.DG>
-15.9100

> <Gold.Chemscore.ZeroCoef>
-5.4800

> <Gold.Chemscore.Hbond>
1.2206

> <Gold.Chemscore.Metal>
0.0000

> <Gold.Chemscore.Lipo>
94.0061

> <Gold.Chemscore.Internal_Hbond>
0.0000

> <Gold.Chemscore.DEClash>
0.1650

> <Gold.Chemscore.DEInternal>
2.1522

> <Gold.Chemscore.Rot>
1.8147

> <Gold.Chemscore.Internal.Correction>
   9.000000E+99

> <Gold.Chemscore.Hbonds>
donor molecule, donor type, donor heavy atom, donor atom, acceptor molecule, acceptor atom, score
      L1  H     7    37       P1  7948  0.99
      P1  H  7989  7998       L1    11  0.40

> <Gold.Chemscore.Hbond.Weighted>
-4.0769

> <Gold.Chemscore.Metal.Weighted>
-0.0000

> <Gold.Chemscore.Lipo.Weighted>
-10.9987

> <Gold.Chemscore.Internal_Hbond.Weighted>
0.0000

> <Gold.Chemscore.DEClash.Weighted>
0.1650

> <Gold.Chemscore.DEInternal.Weighted>
2.1522

> <Gold.Chemscore.Rot.Weighted>
4.6456

> <Gold.Chemscore.Internal.Correction.Weighted>
   9.000000E+99

> <Gold.Protein.RotatedTorsions>
[ 6907 6896 6895 6894 ] final   20.58 input  -60.11 | X-H torsion
[ 7974 7965 7964 7962 ] final -170.31 input  175.53 | X-H torsion
[ 8008 7997 7996 7995 ] final  -64.59 input   59.86 | X-H torsion
[ 10167 10162 10161 10158 ] final  -59.80 input  -65.29 | X-H torsion
[ 10718 10713 10712 10709 ] final -143.95 input   66.30 | X-H torsion
[ 10763 10752 10751 10750 ] final -147.32 input  -60.55 | X-H torsion
[ 11005 11000 10999 10996 ] final   -0.99 input  -57.11 | X-H torsion

> <Gold.Protein.ActiveResidues>
 VAL166  LYS551  ARG553  GLY616  TRP617  ASP618  TYR619  PRO620  LYS621  CYS622 
 ASP623  PHE694  ASN695  SER759  ASP760  ASP761  ALA762  ILE779  LEU786  VAL792 
 PHE793  MET794  SER795  GLU796  ALA797  LYS798  CYS799  TRP800  GLU811  SER814 

> <Gold.Protein.RotatedAtoms>
  151.8986  135.0387  160.0504 H   0  0  0  0  0  0  0  0  0  0  0  0  # atno 6907 bound_to 6896
  152.2377  133.5105  159.5260 H   0  0  0  0  0  0  0  0  0  0  0  0  # atno 6908 bound_to 6896
  150.7044  134.1048  159.4021 H   0  0  0  0  0  0  0  0  0  0  0  0  # atno 6909 bound_to 6896
  144.7172  140.2090  143.6329 H   0  0  0  0  0  0  0  0  0  0  0  0  # atno 7974 bound_to 7965
  154.4621  140.0950  156.6921 H   0  0  0  0  0  0  0  0  0  0  0  0  # atno 8008 bound_to 7997
  155.4965  140.3472  155.4345 H   0  0  0  0  0  0  0  0  0  0  0  0  # atno 8009 bound_to 7997
  156.0889  140.1392  156.9606 H   0  0  0  0  0  0  0  0  0  0  0  0  # atno 8010 bound_to 7997
  140.6112  143.2388  151.5705 H   0  0  0  0  0  0  0  0  0  0  0  0  # atno 10167 bound_to 10162
  156.3642  130.7754  151.1926 H   0  0  0  0  0  0  0  0  0  0  0  0  # atno 10718 bound_to 10713
  154.8292  135.3363  154.6800 H   0  0  0  0  0  0  0  0  0  0  0  0  # atno 10763 bound_to 10752
  153.7422  135.6945  153.4969 H   0  0  0  0  0  0  0  0  0  0  0  0  # atno 10764 bound_to 10752
  153.2236  135.4440  155.0468 H   0  0  0  0  0  0  0  0  0  0  0  0  # atno 10765 bound_to 10752
  140.6424  133.9478  155.8333 H   0  0  0  0  0  0  0  0  0  0  0  0  # atno 11005 bound_to 11000
  145.8608  139.2222  143.1717 LP  0  0  0  0  0  0  0  0  0  0  0  0  # atno 17320 bound_to 7965
  146.0175  140.8379  142.9940 LP  0  0  0  0  0  0  0  0  0  0  0  0  # atno 17321 bound_to 7965
  139.5362  144.2773  152.1257 LP  0  0  0  0  0  0  0  0  0  0  0  0  # atno 17342 bound_to 10162
  140.1973  144.4693  150.6449 LP  0  0  0  0  0  0  0  0  0  0  0  0  # atno 17343 bound_to 10162
  157.7477  131.0391  150.4535 LP  0  0  0  0  0  0  0  0  0  0  0  0  # atno 17370 bound_to 10713
  156.4751  130.4061  149.6495 LP  0  0  0  0  0  0  0  0  0  0  0  0  # atno 17371 bound_to 10713
  141.0597  134.0364  157.3675 LP  0  0  0  0  0  0  0  0  0  0  0  0  # atno 17394 bound_to 11000
  139.9075  135.0183  156.7551 LP  0  0  0  0  0  0  0  0  0  0  0  0  # atno 17395 bound_to 11000

$$$$
