AV-unprocessed.smi:235|AV-procd|sdf|1807|dock2
  -GOLD-   2262020383D 1   1.00000     0.00000
 Structure written by MMmdl.
 54 58  0  0  0  0  0  0  0  0  1 V2000
  147.5952  133.9450  151.8507 O   0  0  0  0  0  0  0  0  0  0  0  0
  146.9671  132.9208  152.1224 C   0  0  0  0  0  0  0  0  0  0  0  0
  147.4863  131.8974  152.8162 N   0  0  0  0  0  0  0  0  0  0  0  0
  148.8106  131.8388  153.3438 C   0  0  0  0  0  0  0  0  0  0  0  0
  148.9654  131.8147  154.8495 C   0  0  0  0  0  0  0  0  0  0  0  0
  149.3263  133.0560  154.0807 C   0  0  0  0  0  0  0  0  0  0  0  0
  145.5152  132.7484  151.6542 C   0  0  2  0  0  0  0  0  0  0  0  0
  145.3428  131.5280  150.7411 C   0  0  0  0  0  0  0  0  0  0  0  0
  144.0891  131.8727  149.9467 C   0  0  0  0  0  0  0  0  0  0  0  0
  144.2079  133.3845  149.7518 C   0  0  0  0  0  0  0  0  0  0  0  0
  145.0628  133.8719  150.8310 N   0  0  0  0  0  0  0  0  0  0  0  0
  144.5960  134.9407  151.5135 C   0  0  0  0  0  0  0  0  0  0  0  0
  145.3670  136.0551  151.5250 N   0  0  0  0  0  0  0  0  0  0  0  0
  144.9620  137.1393  152.1939 C   0  0  0  0  0  0  0  0  0  0  0  0
  143.8445  137.3147  152.9036 N   0  0  0  0  0  0  0  0  0  0  0  0
  143.0690  136.1926  152.8915 C   0  0  0  0  0  0  0  0  0  0  0  0
  143.3648  134.9706  152.2263 C   0  0  0  0  0  0  0  0  0  0  0  0
  142.3430  134.0527  152.4396 N   0  0  0  0  0  0  0  0  0  0  0  0
  141.4897  134.6974  153.1884 C   0  0  0  0  0  0  0  0  0  0  0  0
  141.8477  135.9880  153.5068 N   0  0  0  0  0  0  0  0  0  0  0  0
  141.0942  136.9279  154.3167 C   0  0  0  0  0  0  0  0  0  0  0  0
  140.0020  137.6523  153.5066 C   0  0  1  0  0  0  0  0  0  0  0  0
  138.9872  136.7462  153.1158 O   0  0  0  0  0  0  0  0  0  0  0  0
  139.3905  138.8484  154.2630 C   0  0  1  0  0  0  0  0  0  0  0  0
  140.3737  139.9495  154.6975 C   0  0  0  0  0  0  0  0  0  0  0  0
  139.7572  141.2254  154.1478 C   0  0  0  0  0  0  0  0  0  0  0  0
  138.3007  140.8379  153.9237 C   0  0  0  0  0  0  0  0  0  0  0  0
  138.3950  139.4958  153.4773 O   0  0  0  0  0  0  0  0  0  0  0  0
  146.8950  131.0968  152.9863 H   0  0  0  0  0  0  0  0  0  0  0  0
  149.5502  131.2734  152.7787 H   0  0  0  0  0  0  0  0  0  0  0  0
  148.0620  131.8453  155.4558 H   0  0  0  0  0  0  0  0  0  0  0  0
  149.7816  131.2240  155.2607 H   0  0  0  0  0  0  0  0  0  0  0  0
  150.3831  133.2935  153.9773 H   0  0  0  0  0  0  0  0  0  0  0  0
  148.6634  133.9147  154.1715 H   0  0  0  0  0  0  0  0  0  0  0  0
  144.8637  132.6343  152.5230 H   0  0  0  0  0  0  0  0  0  0  0  0
  146.1904  131.4207  150.0615 H   0  0  0  0  0  0  0  0  0  0  0  0
  145.2386  130.5969  151.2992 H   0  0  0  0  0  0  0  0  0  0  0  0
  144.0147  131.3267  149.0058 H   0  0  0  0  0  0  0  0  0  0  0  0
  143.2036  131.6454  150.5419 H   0  0  0  0  0  0  0  0  0  0  0  0
  144.7072  133.6035  148.8074 H   0  0  0  0  0  0  0  0  0  0  0  0
  143.2262  133.8602  149.7167 H   0  0  0  0  0  0  0  0  0  0  0  0
  145.6299  137.9872  152.1556 H   0  0  0  0  0  0  0  0  0  0  0  0
  140.5685  134.2472  153.5288 H   0  0  0  0  0  0  0  0  0  0  0  0
  140.6571  136.3892  155.1584 H   0  0  0  0  0  0  0  0  0  0  0  0
  141.7935  137.6512  154.7379 H   0  0  0  0  0  0  0  0  0  0  0  0
  140.4492  138.0329  152.5873 H   0  0  0  0  0  0  0  0  0  0  0  0
  139.1970  136.4185  152.2545 H   0  0  0  0  0  0  0  0  0  0  0  0
  138.8873  138.4730  155.1558 H   0  0  0  0  0  0  0  0  0  0  0  0
  140.4332  139.9880  155.7860 H   0  0  0  0  0  0  0  0  0  0  0  0
  141.3865  139.8043  154.3208 H   0  0  0  0  0  0  0  0  0  0  0  0
  139.8722  142.0789  154.8163 H   0  0  0  0  0  0  0  0  0  0  0  0
  140.2208  141.4770  153.1931 H   0  0  0  0  0  0  0  0  0  0  0  0
  137.7373  140.8760  154.8573 H   0  0  0  0  0  0  0  0  0  0  0  0
  137.8020  141.4729  153.1912 H   0  0  0  0  0  0  0  0  0  0  0  0
  1  2  2  0  0  0  0
  2  3  1  0  0  0  0
  2  7  1  0  0  0  0
  3  4  1  0  0  0  0
  3 29  1  0  0  0  0
  4  6  1  0  0  0  0
  4  5  1  0  0  0  0
  4 30  1  0  0  0  0
  5  6  1  0  0  0  0
  5 31  1  0  0  0  0
  5 32  1  0  0  0  0
  6 33  1  0  0  0  0
  6 34  1  0  0  0  0
  7 11  1  0  0  0  0
  7  8  1  0  0  0  0
  7 35  1  0  0  0  0
  8  9  1  0  0  0  0
  8 36  1  0  0  0  0
  8 37  1  0  0  0  0
  9 10  1  0  0  0  0
  9 38  1  0  0  0  0
  9 39  1  0  0  0  0
 10 11  1  0  0  0  0
 10 40  1  0  0  0  0
 10 41  1  0  0  0  0
 11 12  1  0  0  0  0
 12 17  1  0  0  0  0
 12 13  2  0  0  0  0
 13 14  1  0  0  0  0
 14 15  2  0  0  0  0
 14 42  1  0  0  0  0
 15 16  1  0  0  0  0
 16 20  1  0  0  0  0
 16 17  2  0  0  0  0
 17 18  1  0  0  0  0
 18 19  2  0  0  0  0
 19 20  1  0  0  0  0
 19 43  1  0  0  0  0
 20 21  1  0  0  0  0
 21 22  1  0  0  0  0
 21 44  1  0  0  0  0
 21 45  1  0  0  0  0
 22 23  1  0  0  0  0
 22 24  1  0  0  0  0
 22 46  1  0  0  0  0
 23 47  1  0  0  0  0
 24 28  1  0  0  0  0
 24 25  1  0  0  0  0
 24 48  1  0  0  0  0
 25 26  1  0  0  0  0
 25 49  1  0  0  0  0
 25 50  1  0  0  0  0
 26 27  1  0  0  0  0
 26 51  1  0  0  0  0
 26 52  1  0  0  0  0
 27 28  1  0  0  0  0
 27 53  1  0  0  0  0
 27 54  1  0  0  0  0
M  END
> <s_m_source_file>
AV-unprocessed.smi

> <i_m_source_file_index>
235

> <i_lp_mmshare_version>
43012

> <i_f3d_flags>
0

> <s_epik_input>
W0NIMl0xW0NIMl1bQ0hdMVtOSF1DKD1PKVtDQEBIXTJbQ0gyXVtDSDJdW0NIMl1OMmMobltjSF1uMyljKGMzNCluW2NIXW40W0NIMl1bQ0BIXShbT0hdKVtDQEBIXTVbQ0gyXVtDSDJdW0NIMl1PNQ==

> <s_epik_cmdline>
J2VwaWtfcHl0aG9uJywgJy1waCcsICc3LjAnLCAnLXRuJywgJzgnLCAnLW1hJywgJzIwMCcsICctbWV0YWxfYmluZGluZycsICctaW1hZScsICc8aW5maWxlLm1hZT4nLCAnLW9tYWUnLCAnPG91dGZpbGUubWFlPic=

> <r_lp_tautomer_probability>
1

> <r_epik_Ionization_Penalty>
0.000526714

> <r_epik_Ionization_Penalty_Charging>
0

> <r_epik_Ionization_Penalty_Neutral>
0.000526714

> <r_epik_State_Penalty>
0.000272704

> <r_epik_Charging_Adjusted_Penalty>
0.000272704

> <i_epik_Tot_Q>
0

> <i_epik_Tot_abs_Q>
0

> <r_epik_Metal_State_Penalty>
-0

> <b_epik_Metal_Only>
0

> <s_lp_Force_Field>
OPLS_2005

> <r_lp_Energy>
60.9584

> <b_lp_Chiralities_Consistent>
1

> <s_lp_Variant>
AV-unprocessed.smi:235-7

> <Gold.Version>
5.8.1

> <Gold.Id.Protein>
6NUR|6NUR_protein|mol2

> <Gold.PLP.Fitness>
45.5508

> <Gold.PLP.PLP>
-43.5194

> <Gold.PLP.part.hbond>
-1.2077

> <Gold.PLP.part.metal>
0.0000

> <Gold.PLP.part.buried>
-7.9793

> <Gold.PLP.part.nonpolar>
-37.6932

> <Gold.PLP.part.repulsive>
2.2503

> <Gold.PLP.ligand.clash>
0.0000

> <Gold.PLP.ligand.torsion>
0.6080

> <Gold.PLP.Chemscore.Hbond>
1.0000

> <Gold.PLP.Chemscore.CHOScore>
0.0000

> <Gold.PLP.Chemscore.Metal>
0.0000

> <Gold.Chemscore.Hbonds>
donor molecule, donor type, donor heavy atom, donor atom, acceptor molecule, acceptor atom, score
      L1  H    23    47       P1 10187  1.00

> <Gold.PLP.Chemscore.Internal.Correction>
0.2474

> <Gold.Rescore>
     Score         DG    S(hbond)    S(metal)    S(lipo)     H(rot)  DE(clash)    DE(int)     intcor
     10.04     -10.72       0.87        0.00      85.67       3.00       0.30       0.38       ----

> <Gold.Chemscore.Fitness>
10.0405

> <Gold.Chemscore.DG>
-10.7210

> <Gold.Chemscore.ZeroCoef>
-5.4800

> <Gold.Chemscore.Hbond>
0.8667

> <Gold.Chemscore.Metal>
0.0000

> <Gold.Chemscore.Lipo>
85.6694

> <Gold.Chemscore.Internal_Hbond>
0.0000

> <Gold.Chemscore.DEClash>
0.2971

> <Gold.Chemscore.DEInternal>
0.3834

> <Gold.Chemscore.Rot>
2.9989

> <Gold.Chemscore.Internal.Correction>
   9.000000E+99

> <Gold.Chemscore.Hbonds>
donor molecule, donor type, donor heavy atom, donor atom, acceptor molecule, acceptor atom, score
      L1  H    23    47       P1 10187  0.65

> <Gold.Chemscore.Hbond.Weighted>
-2.8949

> <Gold.Chemscore.Metal.Weighted>
-0.0000

> <Gold.Chemscore.Lipo.Weighted>
-10.0233

> <Gold.Chemscore.Internal_Hbond.Weighted>
0.0000

> <Gold.Chemscore.DEClash.Weighted>
0.2971

> <Gold.Chemscore.DEInternal.Weighted>
0.3834

> <Gold.Chemscore.Rot.Weighted>
7.6772

> <Gold.Chemscore.Internal.Correction.Weighted>
   9.000000E+99

> <Gold.Protein.RotatedTorsions>
[ 6907 6896 6895 6894 ] final   53.87 input  -60.11 | X-H torsion
[ 7974 7965 7964 7962 ] final -168.98 input  175.53 | X-H torsion
[ 8008 7997 7996 7995 ] final   56.94 input   59.86 | X-H torsion
[ 10167 10162 10161 10158 ] final   13.83 input  -65.29 | X-H torsion
[ 10718 10713 10712 10709 ] final -138.67 input   66.30 | X-H torsion
[ 10763 10752 10751 10750 ] final  -98.24 input  -60.55 | X-H torsion
[ 11005 11000 10999 10996 ] final -142.08 input  -57.11 | X-H torsion

> <Gold.Protein.ActiveResidues>
 VAL166  LYS551  ARG553  GLY616  TRP617  ASP618  TYR619  PRO620  LYS621  CYS622 
 ASP623  PHE694  ASN695  SER759  ASP760  ASP761  ALA762  ILE779  LEU786  VAL792 
 PHE793  MET794  SER795  GLU796  ALA797  LYS798  CYS799  TRP800  GLU811  SER814 

> <Gold.Protein.RotatedAtoms>
  152.3381  134.7171  160.0271 H   0  0  0  0  0  0  0  0  0  0  0  0  # atno 6907 bound_to 6896
  151.7566  133.3325  159.3414 H   0  0  0  0  0  0  0  0  0  0  0  0  # atno 6908 bound_to 6896
  150.7463  134.6077  159.6114 H   0  0  0  0  0  0  0  0  0  0  0  0  # atno 6909 bound_to 6896
  144.7193  140.2289  143.6306 H   0  0  0  0  0  0  0  0  0  0  0  0  # atno 7974 bound_to 7965
  155.5256  140.3481  155.4416 H   0  0  0  0  0  0  0  0  0  0  0  0  # atno 8008 bound_to 7997
  156.0754  140.1373  156.9805 H   0  0  0  0  0  0  0  0  0  0  0  0  # atno 8009 bound_to 7997
  154.4550  140.0957  156.6707 H   0  0  0  0  0  0  0  0  0  0  0  0  # atno 8010 bound_to 7997
  140.5976  143.8669  150.6933 H   0  0  0  0  0  0  0  0  0  0  0  0  # atno 10167 bound_to 10162
  156.3020  130.7434  151.1488 H   0  0  0  0  0  0  0  0  0  0  0  0  # atno 10718 bound_to 10713
  154.7397  135.5017  153.9101 H   0  0  0  0  0  0  0  0  0  0  0  0  # atno 10763 bound_to 10752
  153.1030  135.6690  153.9645 H   0  0  0  0  0  0  0  0  0  0  0  0  # atno 10764 bound_to 10752
  153.9426  135.3066  155.3421 H   0  0  0  0  0  0  0  0  0  0  0  0  # atno 10765 bound_to 10752
  140.8260  134.2574  157.4879 H   0  0  0  0  0  0  0  0  0  0  0  0  # atno 11005 bound_to 11000
  145.8429  139.2138  143.1817 LP  0  0  0  0  0  0  0  0  0  0  0  0  # atno 17320 bound_to 7965
  146.0330  140.8240  142.9866 LP  0  0  0  0  0  0  0  0  0  0  0  0  # atno 17321 bound_to 7965
  140.2207  143.3811  152.1645 LP  0  0  0  0  0  0  0  0  0  0  0  0  # atno 17342 bound_to 10162
  139.5269  144.7113  151.5197 LP  0  0  0  0  0  0  0  0  0  0  0  0  # atno 17343 bound_to 10162
  157.7370  131.0556  150.5380 LP  0  0  0  0  0  0  0  0  0  0  0  0  # atno 17370 bound_to 10713
  156.5509  130.4231  149.6108 LP  0  0  0  0  0  0  0  0  0  0  0  0  # atno 17371 bound_to 10713
  139.8706  134.9561  156.4226 LP  0  0  0  0  0  0  0  0  0  0  0  0  # atno 17394 bound_to 11000
  140.9048  133.7753  155.9723 LP  0  0  0  0  0  0  0  0  0  0  0  0  # atno 17395 bound_to 11000

$$$$
