AV-unprocessed.smi:3227|AV-procd|sdf|12317|dock9
  -GOLD-   2272018163D 1   1.00000     0.00000
 Structure written by MMmdl.
 37 38  0  0  0  0  0  0  0  0  1 V2000
  148.3910  139.3839  154.0653 C   0  0  0  0  0  0  0  0  0  0  0  0
  149.1518  139.8486  155.2168 N   0  0  0  0  0  0  0  0  0  0  0  0
  149.2541  141.2936  155.3786 C   0  0  0  0  0  0  0  0  0  0  0  0
  150.3332  139.1105  155.4304 C   0  0  0  0  0  0  0  0  0  0  0  0
  151.3675  139.3412  154.5845 N   0  0  0  0  0  0  0  0  0  0  0  0
  152.5087  138.6409  154.7431 C   0  0  0  0  0  0  0  0  0  0  0  0
  152.6864  137.6793  155.7528 C   0  0  0  0  0  0  0  0  0  0  0  0
  151.6206  137.4347  156.6369 C   0  0  0  0  0  0  0  0  0  0  0  0
  150.4089  138.1502  156.4757 C   0  0  0  0  0  0  0  0  0  0  0  0
  149.3052  137.9888  157.3615 N   0  0  0  0  0  0  0  0  0  0  0  0
  149.1249  137.0516  158.3097 C   0  0  0  0  0  0  0  0  0  0  0  0
  149.9146  136.1389  158.5509 O   0  0  0  0  0  0  0  0  0  0  0  0
  147.8211  137.1425  159.0997 C   0  0  0  0  0  0  0  0  0  0  0  0
  148.1254  137.0791  160.4830 O   0  0  0  0  0  0  0  0  0  0  0  0
  148.4270  135.7632  160.9132 C   0  0  0  0  0  0  0  0  0  0  0  0
  147.1346  135.0208  161.1775 C   0  0  0  0  0  0  0  0  0  0  0  0
  146.4493  135.1142  162.5220 C   0  0  0  0  0  0  0  0  0  0  0  0
  147.1185  133.8288  162.1078 C   0  0  0  0  0  0  0  0  0  0  0  0
  148.1324  138.3289  154.1552 H   0  0  0  0  0  0  0  0  0  0  0  0
  148.9665  139.5182  153.1486 H   0  0  0  0  0  0  0  0  0  0  0  0
  147.4627  139.9475  153.9694 H   0  0  0  0  0  0  0  0  0  0  0  0
  149.8317  141.5470  156.2684 H   0  0  0  0  0  0  0  0  0  0  0  0
  148.2616  141.7311  155.4886 H   0  0  0  0  0  0  0  0  0  0  0  0
  149.7330  141.7498  154.5116 H   0  0  0  0  0  0  0  0  0  0  0  0
  153.3061  138.8585  154.0479 H   0  0  0  0  0  0  0  0  0  0  0  0
  153.6214  137.1483  155.8527 H   0  0  0  0  0  0  0  0  0  0  0  0
  151.7576  136.7191  157.4330 H   0  0  0  0  0  0  0  0  0  0  0  0
  148.5263  138.6107  157.1990 H   0  0  0  0  0  0  0  0  0  0  0  0
  147.3267  138.0851  158.8598 H   0  0  0  0  0  0  0  0  0  0  0  0
  147.1449  136.3315  158.8222 H   0  0  0  0  0  0  0  0  0  0  0  0
  148.9876  135.2323  160.1423 H   0  0  0  0  0  0  0  0  0  0  0  0
  149.0357  135.7833  161.8186 H   0  0  0  0  0  0  0  0  0  0  0  0
  146.4845  134.9469  160.3078 H   0  0  0  0  0  0  0  0  0  0  0  0
  146.9323  135.7044  163.2982 H   0  0  0  0  0  0  0  0  0  0  0  0
  145.3614  135.1360  162.5292 H   0  0  0  0  0  0  0  0  0  0  0  0
  146.4773  132.9914  161.8396 H   0  0  0  0  0  0  0  0  0  0  0  0
  148.0467  133.5631  162.6100 H   0  0  0  0  0  0  0  0  0  0  0  0
  1  2  1  0  0  0  0
  1 19  1  0  0  0  0
  1 20  1  0  0  0  0
  1 21  1  0  0  0  0
  2  3  1  0  0  0  0
  2  4  1  0  0  0  0
  3 22  1  0  0  0  0
  3 23  1  0  0  0  0
  3 24  1  0  0  0  0
  4  9  1  0  0  0  0
  4  5  2  0  0  0  0
  5  6  1  0  0  0  0
  6  7  2  0  0  0  0
  6 25  1  0  0  0  0
  7  8  1  0  0  0  0
  7 26  1  0  0  0  0
  8  9  2  0  0  0  0
  8 27  1  0  0  0  0
  9 10  1  0  0  0  0
 10 11  1  0  0  0  0
 10 28  1  0  0  0  0
 11 12  2  0  0  0  0
 11 13  1  0  0  0  0
 13 14  1  0  0  0  0
 13 29  1  0  0  0  0
 13 30  1  0  0  0  0
 14 15  1  0  0  0  0
 15 16  1  0  0  0  0
 15 31  1  0  0  0  0
 15 32  1  0  0  0  0
 16 18  1  0  0  0  0
 16 17  1  0  0  0  0
 16 33  1  0  0  0  0
 17 18  1  0  0  0  0
 17 34  1  0  0  0  0
 17 35  1  0  0  0  0
 18 36  1  0  0  0  0
 18 37  1  0  0  0  0
M  END
> <s_m_source_file>
AV-unprocessed.smi

> <i_m_source_file_index>
3227

> <i_lp_mmshare_version>
43012

> <i_f3d_flags>
0

> <s_epik_input>
W0NIM11OKFtDSDNdKWMxbltjSF1bY0hdW2NIXWMxW05IXUMoPU8pW0NIMl1PW0NIMl1bQ0hdMltDSDJdW0NIMl0y

> <s_epik_cmdline>
J2VwaWtfcHl0aG9uJywgJy1waCcsICc3LjAnLCAnLXRuJywgJzgnLCAnLW1hJywgJzIwMCcsICctbWV0YWxfYmluZGluZycsICctaW1hZScsICc8aW5maWxlLm1hZT4nLCAnLW9tYWUnLCAnPG91dGZpbGUubWFlPic=

> <r_lp_tautomer_probability>
1

> <r_epik_Ionization_Penalty>
0.25353

> <r_epik_Ionization_Penalty_Charging>
0

> <r_epik_Ionization_Penalty_Neutral>
0.25353

> <r_epik_State_Penalty>
0.244789

> <r_epik_Charging_Adjusted_Penalty>
0.244789

> <i_epik_Tot_Q>
0

> <i_epik_Tot_abs_Q>
0

> <r_epik_Metal_State_Penalty>
0.170372

> <b_epik_Metal_Only>
0

> <s_lp_Force_Field>
OPLS_2005

> <r_lp_Energy>
22.5303

> <b_lp_Chiralities_Consistent>
1

> <s_lp_Variant>
AV-unprocessed.smi:3227-1

> <Gold.Version>
5.8.1

> <Gold.Id.Protein>
6NUR|6NUR_protein|mol2

> <Gold.PLP.Fitness>
37.9429

> <Gold.PLP.PLP>
-28.7649

> <Gold.PLP.part.hbond>
-4.0000

> <Gold.PLP.part.metal>
0.0000

> <Gold.PLP.part.buried>
-4.0570

> <Gold.PLP.part.nonpolar>
-21.2652

> <Gold.PLP.part.repulsive>
0.1653

> <Gold.PLP.ligand.clash>
0.0000

> <Gold.PLP.ligand.torsion>
0.7615

> <Gold.PLP.Chemscore.Hbond>
3.2784

> <Gold.PLP.Chemscore.CHOScore>
0.0000

> <Gold.PLP.Chemscore.Metal>
0.0000

> <Gold.Chemscore.Hbonds>
donor molecule, donor type, donor heavy atom, donor atom, acceptor molecule, acceptor atom, score
      P1  H  6896  6909       L1    12  1.00
      P1  H  6931  6943       L1    14  0.77
      P1  H  6934  6947       L1    14  0.29
      P1  H  7989  7998       L1     5  1.00

> <Gold.PLP.Chemscore.Internal.Correction>
0.8657

> <Gold.Rescore>
     Score         DG    S(hbond)    S(metal)    S(lipo)     H(rot)  DE(clash)    DE(int)     intcor
     14.95     -18.46       2.67        0.00      71.49       1.68       0.24       3.27       ----

> <Gold.Chemscore.Fitness>
14.9485

> <Gold.Chemscore.DG>
-18.4634

> <Gold.Chemscore.ZeroCoef>
-5.4800

> <Gold.Chemscore.Hbond>
2.6684

> <Gold.Chemscore.Metal>
0.0000

> <Gold.Chemscore.Lipo>
71.4905

> <Gold.Chemscore.Internal_Hbond>
0.0000

> <Gold.Chemscore.DEClash>
0.2407

> <Gold.Chemscore.DEInternal>
3.2742

> <Gold.Chemscore.Rot>
1.6771

> <Gold.Chemscore.Internal.Correction>
   9.000000E+99

> <Gold.Chemscore.Hbonds>
donor molecule, donor type, donor heavy atom, donor atom, acceptor molecule, acceptor atom, score
      P1  H  6896  6909       L1    12  0.98
      P1  H  6931  6943       L1    14  0.29
      P1  H  6934  6947       L1    14  0.03
      P1  H  7989  7998       L1     5  0.78

> <Gold.Chemscore.Hbond.Weighted>
-8.9125

> <Gold.Chemscore.Metal.Weighted>
-0.0000

> <Gold.Chemscore.Lipo.Weighted>
-8.3644

> <Gold.Chemscore.Internal_Hbond.Weighted>
0.0000

> <Gold.Chemscore.DEClash.Weighted>
0.2407

> <Gold.Chemscore.DEInternal.Weighted>
3.2742

> <Gold.Chemscore.Rot.Weighted>
4.2935

> <Gold.Chemscore.Internal.Correction.Weighted>
   9.000000E+99

> <Gold.Protein.RotatedTorsions>
[ 6907 6896 6895 6894 ] final   63.51 input  -60.11 | X-H torsion
[ 7974 7965 7964 7962 ] final   49.48 input  175.53 | X-H torsion
[ 8008 7997 7996 7995 ] final   74.76 input   59.86 | X-H torsion
[ 10167 10162 10161 10158 ] final    4.00 input  -65.29 | X-H torsion
[ 10718 10713 10712 10709 ] final -103.23 input   66.30 | X-H torsion
[ 10763 10752 10751 10750 ] final   93.98 input  -60.55 | X-H torsion
[ 11005 11000 10999 10996 ] final -144.76 input  -57.11 | X-H torsion

> <Gold.Protein.ActiveResidues>
 VAL166  LYS551  ARG553  GLY616  TRP617  ASP618  TYR619  PRO620  LYS621  CYS622 
 ASP623  PHE694  ASN695  SER759  ASP760  ASP761  ALA762  ILE779  LEU786  VAL792 
 PHE793  MET794  SER795  GLU796  ALA797  LYS798  CYS799  TRP800  GLU811  SER814 

> <Gold.Protein.RotatedAtoms>
  152.4258  134.5870  159.9963 H   0  0  0  0  0  0  0  0  0  0  0  0  # atno 6907 bound_to 6896
  151.6007  133.3351  159.3055 H   0  0  0  0  0  0  0  0  0  0  0  0  # atno 6908 bound_to 6896
  150.8148  134.7360  159.6785 H   0  0  0  0  0  0  0  0  0  0  0  0  # atno 6909 bound_to 6896
  146.0105  139.4538  142.9959 H   0  0  0  0  0  0  0  0  0  0  0  0  # atno 7974 bound_to 7965
  155.8031  140.3475  155.5414 H   0  0  0  0  0  0  0  0  0  0  0  0  # atno 8008 bound_to 7997
  155.8517  140.0957  157.1690 H   0  0  0  0  0  0  0  0  0  0  0  0  # atno 8009 bound_to 7997
  154.4008  140.1375  156.3840 H   0  0  0  0  0  0  0  0  0  0  0  0  # atno 8010 bound_to 7997
  140.6557  143.7433  150.7650 H   0  0  0  0  0  0  0  0  0  0  0  0  # atno 10167 bound_to 10162
  156.0257  130.5457  150.7223 H   0  0  0  0  0  0  0  0  0  0  0  0  # atno 10718 bound_to 10713
  153.2365  135.4306  155.0651 H   0  0  0  0  0  0  0  0  0  0  0  0  # atno 10763 bound_to 10752
  154.8321  135.3392  154.6712 H   0  0  0  0  0  0  0  0  0  0  0  0  # atno 10764 bound_to 10752
  153.7137  135.7021  153.5087 H   0  0  0  0  0  0  0  0  0  0  0  0  # atno 10765 bound_to 10752
  140.7992  134.2877  157.4985 H   0  0  0  0  0  0  0  0  0  0  0  0  # atno 11005 bound_to 11000
  145.7349  141.0029  143.1332 LP  0  0  0  0  0  0  0  0  0  0  0  0  # atno 17320 bound_to 7965
  144.6951  139.9029  143.7459 LP  0  0  0  0  0  0  0  0  0  0  0  0  # atno 17321 bound_to 7965
  140.1092  143.4715  152.2380 LP  0  0  0  0  0  0  0  0  0  0  0  0  # atno 17342 bound_to 10162
  139.5779  144.7496  151.3716 LP  0  0  0  0  0  0  0  0  0  0  0  0  # atno 17343 bound_to 10162
  157.4835  131.0904  151.0509 LP  0  0  0  0  0  0  0  0  0  0  0  0  # atno 17370 bound_to 10713
  157.0935  130.5952  149.5445 LP  0  0  0  0  0  0  0  0  0  0  0  0  # atno 17371 bound_to 10713
  139.8723  134.9419  156.3811 LP  0  0  0  0  0  0  0  0  0  0  0  0  # atno 17394 bound_to 11000
  140.9312  133.7578  156.0027 LP  0  0  0  0  0  0  0  0  0  0  0  0  # atno 17395 bound_to 11000

$$$$
