AV-unprocessed.smi:1552|AV-procd|sdf|6235|dock1
  -GOLD-   22720 6413D 1   1.00000     0.00000
 Structure written by MMmdl.
 50 51  0  0  0  0  0  0  0  0  2 V2000
  145.4812  140.4454  155.6688 C   0  0  0  0  0  0  0  0  0  0  0  0
  146.0507  140.5385  154.3012 N   0  3  0  0  0  0  0  0  0  0  0  0
  146.4274  141.9320  153.9698 C   0  0  0  0  0  0  0  0  0  0  0  0
  147.1234  139.5506  153.9606 C   0  0  1  0  0  0  0  0  0  0  0  0
  147.0228  138.9993  152.5145 C   0  0  0  0  0  0  0  0  0  0  0  0
  145.6891  138.4834  152.2281 N   0  0  0  0  0  0  0  0  0  0  0  0
  145.2504  137.2199  152.3554 C   0  0  0  0  0  0  0  0  0  0  0  0
  146.0003  136.3441  152.7812 O   0  0  0  0  0  0  0  0  0  0  0  0
  143.7949  136.8579  152.0021 C   0  0  0  0  0  0  0  0  0  0  0  0
  143.6851  135.4666  151.5433 N   0  0  0  0  0  0  0  0  0  0  0  0
  144.4064  135.0520  150.4326 C   0  0  0  0  0  0  0  0  0  0  0  0
  144.3750  133.7872  149.9505 C   0  0  0  0  0  0  0  0  0  0  0  0
  143.5548  132.7703  150.5993 C   0  0  0  0  0  0  0  0  0  0  0  0
  143.4586  131.5999  150.2373 O   0  0  0  0  0  0  0  0  0  0  0  0
  142.8465  133.2241  151.7150 N   0  0  0  0  0  0  0  0  0  0  0  0
  142.8759  134.5258  152.2184 C   0  0  0  0  0  0  0  0  0  0  0  0
  142.2147  134.8160  153.2145 O   0  0  0  0  0  0  0  0  0  0  0  0
  148.5365  140.0768  154.3491 C   0  0  0  0  0  0  0  0  0  0  0  0
  149.6235  138.9847  154.2352 C   0  0  0  0  0  0  0  0  0  0  0  0
  151.0274  139.5572  154.4933 C   0  0  0  0  0  0  0  0  0  0  0  0
  151.1029  140.2656  155.8548 C   0  0  0  0  0  0  0  0  0  0  0  0
  150.0222  141.3509  155.9766 C   0  0  0  0  0  0  0  0  0  0  0  0
  148.6211  140.7699  155.7280 C   0  0  0  0  0  0  0  0  0  0  0  0
  142.2667  132.5545  152.1997 H   0  0  0  0  0  0  0  0  0  0  0  0
  146.1908  140.7923  156.4208 H   0  0  0  0  0  0  0  0  0  0  0  0
  145.1876  139.4287  155.9233 H   0  0  0  0  0  0  0  0  0  0  0  0
  144.5893  141.0681  155.7456 H   0  0  0  0  0  0  0  0  0  0  0  0
  147.2791  142.2595  154.5675 H   0  0  0  0  0  0  0  0  0  0  0  0
  145.5964  142.6127  154.1574 H   0  0  0  0  0  0  0  0  0  0  0  0
  146.6911  142.0231  152.9154 H   0  0  0  0  0  0  0  0  0  0  0  0
  146.9696  138.6848  154.6076 H   0  0  0  0  0  0  0  0  0  0  0  0
  147.2516  139.7861  151.7944 H   0  0  0  0  0  0  0  0  0  0  0  0
  147.7482  138.1999  152.3661 H   0  0  0  0  0  0  0  0  0  0  0  0
  145.0058  139.1663  151.9334 H   0  0  0  0  0  0  0  0  0  0  0  0
  143.1842  137.0281  152.8901 H   0  0  0  0  0  0  0  0  0  0  0  0
  143.3565  137.5163  151.2539 H   0  0  0  0  0  0  0  0  0  0  0  0
  145.0306  135.7725  149.9231 H   0  0  0  0  0  0  0  0  0  0  0  0
  144.9607  133.5260  149.0808 H   0  0  0  0  0  0  0  0  0  0  0  0
  148.8034  140.8322  153.6089 H   0  0  0  0  0  0  0  0  0  0  0  0
  149.4285  138.1826  154.9480 H   0  0  0  0  0  0  0  0  0  0  0  0
  149.5969  138.5299  153.2444 H   0  0  0  0  0  0  0  0  0  0  0  0
  151.7686  138.7590  154.4488 H   0  0  0  0  0  0  0  0  0  0  0  0
  151.2858  140.2616  153.7014 H   0  0  0  0  0  0  0  0  0  0  0  0
  150.9796  139.5351  156.6553 H   0  0  0  0  0  0  0  0  0  0  0  0
  152.0907  140.7076  155.9899 H   0  0  0  0  0  0  0  0  0  0  0  0
  150.0649  141.8075  156.9660 H   0  0  0  0  0  0  0  0  0  0  0  0
  150.2210  142.1488  155.2600 H   0  0  0  0  0  0  0  0  0  0  0  0
  147.8863  141.5713  155.8030 H   0  0  0  0  0  0  0  0  0  0  0  0
  148.3966  140.0580  156.5216 H   0  0  0  0  0  0  0  0  0  0  0  0
  145.2897  140.3207  153.6735 H   0  0  0  0  0  0  0  0  0  0  0  0
  1  2  1  0  0  0  0
  1 25  1  0  0  0  0
  1 26  1  0  0  0  0
  1 27  1  0  0  0  0
  2  3  1  0  0  0  0
  2  4  1  0  0  0  0
  2 50  1  0  0  0  0
  3 28  1  0  0  0  0
  3 29  1  0  0  0  0
  3 30  1  0  0  0  0
  4  5  1  0  0  0  0
  4 18  1  0  0  0  0
  4 31  1  0  0  0  0
  5  6  1  0  0  0  0
  5 32  1  0  0  0  0
  5 33  1  0  0  0  0
  6  7  1  0  0  0  0
  6 34  1  0  0  0  0
  7  8  2  0  0  0  0
  7  9  1  0  0  0  0
  9 10  1  0  0  0  0
  9 35  1  0  0  0  0
  9 36  1  0  0  0  0
 10 16  1  0  0  0  0
 10 11  1  0  0  0  0
 11 12  2  0  0  0  0
 11 37  1  0  0  0  0
 12 13  1  0  0  0  0
 12 38  1  0  0  0  0
 13 14  2  0  0  0  0
 13 15  1  0  0  0  0
 15 24  1  0  0  0  0
 15 16  1  0  0  0  0
 16 17  2  0  0  0  0
 18 23  1  0  0  0  0
 18 19  1  0  0  0  0
 18 39  1  0  0  0  0
 19 20  1  0  0  0  0
 19 40  1  0  0  0  0
 19 41  1  0  0  0  0
 20 21  1  0  0  0  0
 20 42  1  0  0  0  0
 20 43  1  0  0  0  0
 21 22  1  0  0  0  0
 21 44  1  0  0  0  0
 21 45  1  0  0  0  0
 22 23  1  0  0  0  0
 22 46  1  0  0  0  0
 22 47  1  0  0  0  0
 23 48  1  0  0  0  0
 23 49  1  0  0  0  0
M  CHG  1   2   1
M  END
> <s_m_source_file>
AV-unprocessed.smi

> <i_m_source_file_index>
1552

> <i_lp_mmshare_version>
43012

> <i_f3d_flags>
0

> <s_epik_input>
W0NIMl0xW0NIMl1bQ0gyXVtDSDJdW0NIMl1bQ0hdMVtDQEhdKE4oW0NIM10pW0NIM10pW0NIMl1bTkhdQyg9TylbQ0gyXW4yW2NIXVtjSF1jKD1PKVtuSF1jMj1P

> <s_epik_cmdline>
J2VwaWtfcHl0aG9uJywgJy1waCcsICc3LjAnLCAnLXRuJywgJzgnLCAnLW1hJywgJzIwMCcsICctbWV0YWxfYmluZGluZycsICctaW1hZScsICc8aW5maWxlLm1hZT4nLCAnLW9tYWUnLCAnPG91dGZpbGUubWFlPic=

> <r_lp_tautomer_probability>
1

> <r_epik_Ionization_Penalty>
0.00705217

> <r_epik_Ionization_Penalty_Charging>
0.00705209

> <r_epik_Ionization_Penalty_Neutral>
7.66101e-08

> <r_epik_State_Penalty>
-0

> <r_epik_Charging_Adjusted_Penalty>
0.00705209

> <i_epik_Tot_Q>
1

> <i_epik_Tot_abs_Q>
1

> <r_epik_Metal_State_Penalty>
0.375122

> <b_epik_Metal_Only>
0

> <s_lp_Force_Field>
OPLS_2005

> <r_lp_Energy>
31.5593

> <b_lp_Chiralities_Consistent>
1

> <s_lp_Variant>
AV-unprocessed.smi:1552-2

> <Gold.Version>
5.8.1

> <Gold.Id.Protein>
6NUR|6NUR_protein|mol2

> <Gold.PLP.Fitness>
47.0712

> <Gold.PLP.PLP>
-36.6018

> <Gold.PLP.part.hbond>
-4.1180

> <Gold.PLP.part.metal>
0.0000

> <Gold.PLP.part.buried>
2.2678

> <Gold.PLP.part.nonpolar>
-36.3418

> <Gold.PLP.part.repulsive>
1.6289

> <Gold.PLP.ligand.clash>
0.0000

> <Gold.PLP.ligand.torsion>
1.3810

> <Gold.PLP.Chemscore.Hbond>
3.7213

> <Gold.PLP.Chemscore.CHOScore>
0.4882

> <Gold.PLP.Chemscore.Metal>
0.0000

> <Gold.Chemscore.Hbonds>
donor molecule, donor type, donor heavy atom, donor atom, acceptor molecule, acceptor atom, score
      L1  H     2    50       P1 10175  2.00
      L1  H     6    34       P1 10175  0.96
      P1  H 10785 10796       L1    14  0.80
      L1  C    11    37       P1  7921  0.38

> <Gold.PLP.Chemscore.Internal.Correction>
0.6027

> <Gold.Rescore>
     Score         DG    S(hbond)    S(metal)    S(lipo)     H(rot)  DE(clash)    DE(int)     intcor
     12.71     -16.35       2.65        0.00      71.87       2.50       2.34       1.30       ----

> <Gold.Chemscore.Fitness>
12.7077

> <Gold.Chemscore.DG>
-16.3489

> <Gold.Chemscore.ZeroCoef>
-5.4800

> <Gold.Chemscore.Hbond>
2.6502

> <Gold.Chemscore.Metal>
0.0000

> <Gold.Chemscore.Lipo>
71.8701

> <Gold.Chemscore.Internal_Hbond>
0.0000

> <Gold.Chemscore.DEClash>
2.3388

> <Gold.Chemscore.DEInternal>
1.3025

> <Gold.Chemscore.Rot>
2.4968

> <Gold.Chemscore.Internal.Correction>
   9.000000E+99

> <Gold.Chemscore.Hbonds>
donor molecule, donor type, donor heavy atom, donor atom, acceptor molecule, acceptor atom, score
      L1  H     2    50       P1 10175  0.95
      L1  H     6    34       P1 10175  0.91
      P1  H 10785 10796       L1    14  0.74

> <Gold.Chemscore.Hbond.Weighted>
-8.8518

> <Gold.Chemscore.Metal.Weighted>
-0.0000

> <Gold.Chemscore.Lipo.Weighted>
-8.4088

> <Gold.Chemscore.Internal_Hbond.Weighted>
0.0000

> <Gold.Chemscore.DEClash.Weighted>
2.3388

> <Gold.Chemscore.DEInternal.Weighted>
1.3025

> <Gold.Chemscore.Rot.Weighted>
6.3917

> <Gold.Chemscore.Internal.Correction.Weighted>
   9.000000E+99

> <Gold.Protein.RotatedTorsions>
[ 6907 6896 6895 6894 ] final  178.23 input  -60.11 | X-H torsion
[ 7974 7965 7964 7962 ] final   17.57 input  175.53 | X-H torsion
[ 8008 7997 7996 7995 ] final -125.43 input   59.86 | X-H torsion
[ 10167 10162 10161 10158 ] final  -64.33 input  -65.29 | X-H torsion
[ 10718 10713 10712 10709 ] final   67.28 input   66.30 | X-H torsion
[ 10763 10752 10751 10750 ] final   30.39 input  -60.55 | X-H torsion
[ 11005 11000 10999 10996 ] final  104.63 input  -57.11 | X-H torsion

> <Gold.Protein.ActiveResidues>
 VAL166  LYS551  ARG553  GLY616  TRP617  ASP618  TYR619  PRO620  LYS621  CYS622 
 ASP623  PHE694  ASN695  SER759  ASP760  ASP761  ALA762  ILE779  LEU786  VAL792 
 PHE793  MET794  SER795  GLU796  ALA797  LYS798  CYS799  TRP800  GLU811  SER814 

> <Gold.Protein.RotatedAtoms>
  151.6911  133.3311  159.3242 H   0  0  0  0  0  0  0  0  0  0  0  0  # atno 6907 bound_to 6896
  150.7778  134.6697  159.6394 H   0  0  0  0  0  0  0  0  0  0  0  0  # atno 6908 bound_to 6896
  152.3826  134.6569  160.0189 H   0  0  0  0  0  0  0  0  0  0  0  0  # atno 6909 bound_to 6896
  146.2214  139.8583  142.8609 H   0  0  0  0  0  0  0  0  0  0  0  0  # atno 7974 bound_to 7965
  155.2132  140.0419  157.2936 H   0  0  0  0  0  0  0  0  0  0  0  0  # atno 8008 bound_to 7997
  154.5998  140.2449  155.7779 H   0  0  0  0  0  0  0  0  0  0  0  0  # atno 8009 bound_to 7997
  156.2314  140.2937  156.0207 H   0  0  0  0  0  0  0  0  0  0  0  0  # atno 8010 bound_to 7997
  140.5808  143.2327  151.6346 H   0  0  0  0  0  0  0  0  0  0  0  0  # atno 10167 bound_to 10162
  157.6221  130.9312  150.0221 H   0  0  0  0  0  0  0  0  0  0  0  0  # atno 10718 bound_to 10713
  153.0375  135.6465  154.1037 H   0  0  0  0  0  0  0  0  0  0  0  0  # atno 10763 bound_to 10752
  154.0749  135.2877  155.3303 H   0  0  0  0  0  0  0  0  0  0  0  0  # atno 10764 bound_to 10752
  154.6569  135.5405  153.8034 H   0  0  0  0  0  0  0  0  0  0  0  0  # atno 10765 bound_to 10752
  139.8794  134.9307  156.5390 H   0  0  0  0  0  0  0  0  0  0  0  0  # atno 11005 bound_to 11000
  145.2731  141.0115  143.3760 LP  0  0  0  0  0  0  0  0  0  0  0  0  # atno 17320 bound_to 7965
  144.9208  139.4414  143.6542 LP  0  0  0  0  0  0  0  0  0  0  0  0  # atno 17321 bound_to 7965
  139.5169  144.3333  152.0806 LP  0  0  0  0  0  0  0  0  0  0  0  0  # atno 17342 bound_to 10162
  140.2483  144.4196  150.6232 LP  0  0  0  0  0  0  0  0  0  0  0  0  # atno 17343 bound_to 10162
  156.1372  130.3642  149.9639 LP  0  0  0  0  0  0  0  0  0  0  0  0  # atno 17370 bound_to 10713
  156.7688  130.9178  151.3643 LP  0  0  0  0  0  0  0  0  0  0  0  0  # atno 17371 bound_to 10713
  140.8324  133.8268  155.8997 LP  0  0  0  0  0  0  0  0  0  0  0  0  # atno 17394 bound_to 11000
  140.9316  134.2015  157.4860 LP  0  0  0  0  0  0  0  0  0  0  0  0  # atno 17395 bound_to 11000

$$$$
