AV-unprocessed.smi:2457|AV-procd|sdf|9706|dock9
  -GOLD-   2272013343D 1   1.00000     0.00000
 Structure written by MMmdl.
 40 41  0  0  0  0  0  0  0  0  1 V2000
  150.8660  142.2391  156.3646 C   0  0  0  0  0  0  0  0  0  0  0  0
  150.4476  141.0666  155.5348 C   0  0  0  0  0  0  0  0  0  0  0  0
  151.1549  139.9096  155.3230 C   0  0  0  0  0  0  0  0  0  0  0  0
  150.2966  138.8047  154.2853 S   0  0  0  0  0  0  0  0  0  0  0  0
  148.9864  139.9755  154.1726 C   0  0  0  0  0  0  0  0  0  0  0  0
  147.7347  139.7303  153.3855 C   0  0  2  0  0  0  0  0  0  0  0  0
  146.9473  141.0235  153.1315 C   0  0  0  0  0  0  0  0  0  0  0  0
  146.8603  138.5980  153.9701 C   0  0  0  0  0  0  0  0  0  0  0  0
  147.0693  137.3147  153.3045 N   0  0  0  0  0  0  0  0  0  0  0  0
  146.1507  136.3451  153.2008 C   0  0  0  0  0  0  0  0  0  0  0  0
  145.0252  136.4060  153.6955 O   0  0  0  0  0  0  0  0  0  0  0  0
  146.5982  135.3127  152.4732 N   0  0  0  0  0  0  0  0  0  0  0  0
  145.8190  134.1274  152.1283 C   0  0  1  0  0  0  0  0  0  0  0  0
  144.4074  134.5388  151.6597 C   0  0  0  0  0  0  0  0  0  0  0  0
  143.5174  133.3281  151.3360 C   0  0  0  0  0  0  0  0  0  0  0  0
  144.0931  132.4654  150.2042 C   0  0  0  0  0  0  0  0  0  0  0  0
  145.7063  131.7743  150.6608 S   0  0  0  0  0  0  0  0  0  0  0  0
  146.5668  133.3231  151.0512 C   0  0  0  0  0  0  0  0  0  0  0  0
  149.2140  141.0874  154.8787 N   0  0  0  0  0  0  0  0  0  0  0  0
  151.8631  142.0973  156.7822 H   0  0  0  0  0  0  0  0  0  0  0  0
  150.1794  142.3971  157.1966 H   0  0  0  0  0  0  0  0  0  0  0  0
  150.8848  143.1542  155.7720 H   0  0  0  0  0  0  0  0  0  0  0  0
  152.1258  139.6410  155.7119 H   0  0  0  0  0  0  0  0  0  0  0  0
  148.0642  139.3911  152.4028 H   0  0  0  0  0  0  0  0  0  0  0  0
  147.5658  141.7664  152.6271 H   0  0  0  0  0  0  0  0  0  0  0  0
  146.5928  141.4619  154.0648 H   0  0  0  0  0  0  0  0  0  0  0  0
  146.0775  140.8353  152.5017 H   0  0  0  0  0  0  0  0  0  0  0  0
  147.1048  138.4572  155.0234 H   0  0  0  0  0  0  0  0  0  0  0  0
  145.8042  138.8700  153.9324 H   0  0  0  0  0  0  0  0  0  0  0  0
  147.9656  137.1723  152.8623 H   0  0  0  0  0  0  0  0  0  0  0  0
  147.5388  135.3594  152.1099 H   0  0  0  0  0  0  0  0  0  0  0  0
  145.7283  133.4980  153.0158 H   0  0  0  0  0  0  0  0  0  0  0  0
  143.9211  135.1329  152.4344 H   0  0  0  0  0  0  0  0  0  0  0  0
  144.4800  135.1845  150.7834 H   0  0  0  0  0  0  0  0  0  0  0  0
  143.3816  132.7196  152.2310 H   0  0  0  0  0  0  0  0  0  0  0  0
  142.5248  133.6783  151.0513 H   0  0  0  0  0  0  0  0  0  0  0  0
  143.4142  131.6442  149.9735 H   0  0  0  0  0  0  0  0  0  0  0  0
  144.2029  133.0553  149.2936 H   0  0  0  0  0  0  0  0  0  0  0  0
  146.6716  133.9091  150.1372 H   0  0  0  0  0  0  0  0  0  0  0  0
  147.5734  133.0773  151.3911 H   0  0  0  0  0  0  0  0  0  0  0  0
  1  2  1  0  0  0  0
  1 20  1  0  0  0  0
  1 21  1  0  0  0  0
  1 22  1  0  0  0  0
  2 19  1  0  0  0  0
  2  3  2  0  0  0  0
  3  4  1  0  0  0  0
  3 23  1  0  0  0  0
  4  5  1  0  0  0  0
  5  6  1  0  0  0  0
  5 19  2  0  0  0  0
  6  7  1  0  0  0  0
  6  8  1  0  0  0  0
  6 24  1  0  0  0  0
  7 25  1  0  0  0  0
  7 26  1  0  0  0  0
  7 27  1  0  0  0  0
  8  9  1  0  0  0  0
  8 28  1  0  0  0  0
  8 29  1  0  0  0  0
  9 10  1  0  0  0  0
  9 30  1  0  0  0  0
 10 11  2  0  0  0  0
 10 12  1  0  0  0  0
 12 13  1  0  0  0  0
 12 31  1  0  0  0  0
 13 18  1  0  0  0  0
 13 14  1  0  0  0  0
 13 32  1  0  0  0  0
 14 15  1  0  0  0  0
 14 33  1  0  0  0  0
 14 34  1  0  0  0  0
 15 16  1  0  0  0  0
 15 35  1  0  0  0  0
 15 36  1  0  0  0  0
 16 17  1  0  0  0  0
 16 37  1  0  0  0  0
 16 38  1  0  0  0  0
 17 18  1  0  0  0  0
 18 39  1  0  0  0  0
 18 40  1  0  0  0  0
M  END
> <s_m_source_file>
AV-unprocessed.smi

> <i_m_source_file_index>
2457

> <i_lp_mmshare_version>
43012

> <i_f3d_flags>
0

> <s_epik_input>
W0NIM11jMVtjSF1zYyhuMSlbQ0BIXShbQ0gzXSlbQ0gyXVtOSF1DKD1PKVtOSF1bQ0BASF0yW0NIMl1bQ0gyXVtDSDJdU1tDSDJdMg==

> <s_epik_cmdline>
J2VwaWtfcHl0aG9uJywgJy1waCcsICc3LjAnLCAnLXRuJywgJzgnLCAnLW1hJywgJzIwMCcsICctbWV0YWxfYmluZGluZycsICctaW1hZScsICc8aW5maWxlLm1hZT4nLCAnLW9tYWUnLCAnPG91dGZpbGUubWFlPic=

> <r_epik_Ionization_Penalty>
0.00154805

> <r_epik_Ionization_Penalty_Charging>
0

> <r_epik_Ionization_Penalty_Neutral>
0.00154805

> <r_epik_State_Penalty>
0.00100357

> <r_epik_Charging_Adjusted_Penalty>
0.00100357

> <i_epik_Tot_Q>
0

> <i_epik_Tot_abs_Q>
0

> <r_epik_Metal_State_Penalty>
-0

> <b_epik_Metal_Only>
0

> <s_lp_Force_Field>
OPLS_2005

> <r_lp_Energy>
-7.39809

> <b_lp_Chiralities_Consistent>
1

> <s_lp_Variant>
AV-unprocessed.smi:2457-3

> <Gold.Version>
5.8.1

> <Gold.Id.Protein>
6NUR|6NUR_protein|mol2

> <Gold.PLP.Fitness>
39.6421

> <Gold.PLP.PLP>
-35.9485

> <Gold.PLP.part.hbond>
-2.0000

> <Gold.PLP.part.metal>
0.0000

> <Gold.PLP.part.buried>
-3.2283

> <Gold.PLP.part.nonpolar>
-31.3063

> <Gold.PLP.part.repulsive>
0.1796

> <Gold.PLP.ligand.clash>
0.0000

> <Gold.PLP.ligand.torsion>
1.2019

> <Gold.PLP.Chemscore.Hbond>
1.9920

> <Gold.PLP.Chemscore.CHOScore>
0.0000

> <Gold.PLP.Chemscore.Metal>
0.0000

> <Gold.Chemscore.Hbonds>
donor molecule, donor type, donor heavy atom, donor atom, acceptor molecule, acceptor atom, score
      L1  H     9    30       P1  7948  0.99
      L1  H    12    31       P1  7948  1.00

> <Gold.PLP.Chemscore.Internal.Correction>
0.1214

> <Gold.Rescore>
     Score         DG    S(hbond)    S(metal)    S(lipo)     H(rot)  DE(clash)    DE(int)     intcor
     17.13     -19.47       1.93        0.00      96.46       1.46       0.05       2.30       ----

> <Gold.Chemscore.Fitness>
17.1269

> <Gold.Chemscore.DG>
-19.4704

> <Gold.Chemscore.ZeroCoef>
-5.4800

> <Gold.Chemscore.Hbond>
1.9300

> <Gold.Chemscore.Metal>
0.0000

> <Gold.Chemscore.Lipo>
96.4586

> <Gold.Chemscore.Internal_Hbond>
0.0000

> <Gold.Chemscore.DEClash>
0.0480

> <Gold.Chemscore.DEInternal>
2.2955

> <Gold.Chemscore.Rot>
1.4616

> <Gold.Chemscore.Internal.Correction>
   9.000000E+99

> <Gold.Chemscore.Hbonds>
donor molecule, donor type, donor heavy atom, donor atom, acceptor molecule, acceptor atom, score
      L1  H     9    30       P1  7948  0.93
      L1  H    12    31       P1  7948  0.95

> <Gold.Chemscore.Hbond.Weighted>
-6.4464

> <Gold.Chemscore.Metal.Weighted>
-0.0000

> <Gold.Chemscore.Lipo.Weighted>
-11.2857

> <Gold.Chemscore.Internal_Hbond.Weighted>
0.0000

> <Gold.Chemscore.DEClash.Weighted>
0.0480

> <Gold.Chemscore.DEInternal.Weighted>
2.2955

> <Gold.Chemscore.Rot.Weighted>
3.7416

> <Gold.Chemscore.Internal.Correction.Weighted>
   9.000000E+99

> <Gold.Protein.RotatedTorsions>
[ 6907 6896 6895 6894 ] final  116.30 input  -60.11 | X-H torsion
[ 7974 7965 7964 7962 ] final   81.70 input  175.53 | X-H torsion
[ 8008 7997 7996 7995 ] final   87.87 input   59.86 | X-H torsion
[ 10167 10162 10161 10158 ] final  153.79 input  -65.29 | X-H torsion
[ 10718 10713 10712 10709 ] final  143.25 input   66.30 | X-H torsion
[ 10763 10752 10751 10750 ] final  -68.35 input  -60.55 | X-H torsion
[ 11005 11000 10999 10996 ] final   68.24 input  -57.11 | X-H torsion

> <Gold.Protein.ActiveResidues>
 VAL166  LYS551  ARG553  GLY616  TRP617  ASP618  TYR619  PRO620  LYS621  CYS622 
 ASP623  PHE694  ASN695  SER759  ASP760  ASP761  ALA762  ILE779  LEU786  VAL792 
 PHE793  MET794  SER795  GLU796  ALA797  LYS798  CYS799  TRP800  GLU811  SER814 

> <Gold.Protein.RotatedAtoms>
  152.4686  133.7979  159.6936 H   0  0  0  0  0  0  0  0  0  0  0  0  # atno 6907 bound_to 6896
  150.8664  133.7559  159.2982 H   0  0  0  0  0  0  0  0  0  0  0  0  # atno 6908 bound_to 6896
  151.5108  135.1068  159.9905 H   0  0  0  0  0  0  0  0  0  0  0  0  # atno 6909 bound_to 6896
  145.6347  139.2412  143.2065 H   0  0  0  0  0  0  0  0  0  0  0  0  # atno 7974 bound_to 7965
  155.9807  140.3377  155.6660 H   0  0  0  0  0  0  0  0  0  0  0  0  # atno 8008 bound_to 7997
  155.6552  140.0710  157.2591 H   0  0  0  0  0  0  0  0  0  0  0  0  # atno 8009 bound_to 7997
  154.4191  140.1718  156.1705 H   0  0  0  0  0  0  0  0  0  0  0  0  # atno 8010 bound_to 7997
  139.4825  144.5242  151.7827 H   0  0  0  0  0  0  0  0  0  0  0  0  # atno 10167 bound_to 10162
  157.3712  131.0979  151.0826 H   0  0  0  0  0  0  0  0  0  0  0  0  # atno 10718 bound_to 10713
  154.3878  135.6059  153.5826 H   0  0  0  0  0  0  0  0  0  0  0  0  # atno 10763 bound_to 10752
  152.9787  135.5876  154.4334 H   0  0  0  0  0  0  0  0  0  0  0  0  # atno 10764 bound_to 10752
  154.4113  135.2844  155.2013 H   0  0  0  0  0  0  0  0  0  0  0  0  # atno 10765 bound_to 10752
  139.9723  134.6880  156.0422 H   0  0  0  0  0  0  0  0  0  0  0  0  # atno 11005 bound_to 11000
  146.1329  140.7162  142.9404 LP  0  0  0  0  0  0  0  0  0  0  0  0  # atno 17320 bound_to 7965
  144.7180  140.4277  143.7029 LP  0  0  0  0  0  0  0  0  0  0  0  0  # atno 17321 bound_to 7965
  140.4760  144.1518  150.5925 LP  0  0  0  0  0  0  0  0  0  0  0  0  # atno 17342 bound_to 10162
  140.4330  143.2560  151.9571 LP  0  0  0  0  0  0  0  0  0  0  0  0  # atno 17343 bound_to 10162
  157.1930  130.6360  149.5711 LP  0  0  0  0  0  0  0  0  0  0  0  0  # atno 17370 bound_to 10713
  155.9756  130.4716  150.6470 LP  0  0  0  0  0  0  0  0  0  0  0  0  # atno 17371 bound_to 10713
  141.1402  133.6566  156.3708 LP  0  0  0  0  0  0  0  0  0  0  0  0  # atno 17394 bound_to 11000
  140.5267  134.6252  157.5336 LP  0  0  0  0  0  0  0  0  0  0  0  0  # atno 17395 bound_to 11000

$$$$
