AV-unprocessed.smi:2144|AV-procd|sdf|8730|dock1
  -GOLD-   2272011493D 1   1.00000     0.00000
 Structure written by MMmdl.
 40 42  0  0  0  0  0  0  0  0  1 V2000
  150.1808  140.6215  154.1264 O   0  0  0  0  0  0  0  0  0  0  0  0
  149.5610  140.5712  155.3927 C   0  0  0  0  0  0  0  0  0  0  0  0
  150.4801  140.9670  156.5084 C   0  0  0  0  0  0  0  0  0  0  0  0
  150.8389  142.2371  156.6992 N   0  0  0  0  0  0  0  0  0  0  0  0
  151.6493  142.1615  157.8143 C   0  0  0  0  0  0  0  0  0  0  0  0
  152.3371  143.1745  158.5201 C   0  0  0  0  0  0  0  0  0  0  0  0
  153.1108  142.8545  159.6549 C   0  0  0  0  0  0  0  0  0  0  0  0
  153.2067  141.5202  160.0999 C   0  0  0  0  0  0  0  0  0  0  0  0
  152.5310  140.4955  159.4098 C   0  0  0  0  0  0  0  0  0  0  0  0
  151.7626  140.8199  158.2755 C   0  0  0  0  0  0  0  0  0  0  0  0
  150.9967  140.0697  157.3880 N   0  0  0  0  0  0  0  0  0  0  0  0
  150.8012  138.6258  157.4431 C   0  0  0  0  0  0  0  0  0  0  0  0
  150.1989  138.1556  158.7833 C   0  0  2  0  0  0  0  0  0  0  0  0
  150.9220  137.0464  159.2766 O   0  0  0  0  0  0  0  0  0  0  0  0
  148.7233  137.7529  158.6503 C   0  0  0  0  0  0  0  0  0  0  0  0
  148.1400  137.7209  159.9461 O   0  0  0  0  0  0  0  0  0  0  0  0
  147.3570  136.6385  160.2860 C   0  0  0  0  0  0  0  0  0  0  0  0
  147.0682  135.5597  159.4115 C   0  0  0  0  0  0  0  0  0  0  0  0
  146.2578  134.4908  159.8411 C   0  0  0  0  0  0  0  0  0  0  0  0
  145.7274  134.4850  161.1441 C   0  0  0  0  0  0  0  0  0  0  0  0
  146.0081  135.5510  162.0184 C   0  0  0  0  0  0  0  0  0  0  0  0
  146.8182  136.6204  161.5903 C   0  0  0  0  0  0  0  0  0  0  0  0
  147.0810  137.6407  162.4417 F   0  0  0  0  0  0  0  0  0  0  0  0
  150.2309  139.7432  153.7819 H   0  0  0  0  0  0  0  0  0  0  0  0
  148.7008  141.2413  155.3814 H   0  0  0  0  0  0  0  0  0  0  0  0
  149.1678  139.5708  155.5726 H   0  0  0  0  0  0  0  0  0  0  0  0
  152.2672  144.1999  158.1886 H   0  0  0  0  0  0  0  0  0  0  0  0
  153.6317  143.6369  160.1872 H   0  0  0  0  0  0  0  0  0  0  0  0
  153.7993  141.2835  160.9716 H   0  0  0  0  0  0  0  0  0  0  0  0
  152.6019  139.4728  159.7489 H   0  0  0  0  0  0  0  0  0  0  0  0
  150.1391  138.3506  156.6214 H   0  0  0  0  0  0  0  0  0  0  0  0
  151.7429  138.1124  157.2548 H   0  0  0  0  0  0  0  0  0  0  0  0
  150.2800  138.9507  159.5249 H   0  0  0  0  0  0  0  0  0  0  0  0
  151.3661  137.3067  160.0694 H   0  0  0  0  0  0  0  0  0  0  0  0
  148.1994  138.4602  158.0050 H   0  0  0  0  0  0  0  0  0  0  0  0
  148.6512  136.7624  158.1974 H   0  0  0  0  0  0  0  0  0  0  0  0
  147.4575  135.5274  158.4054 H   0  0  0  0  0  0  0  0  0  0  0  0
  146.0431  133.6734  159.1685 H   0  0  0  0  0  0  0  0  0  0  0  0
  145.1064  133.6644  161.4723 H   0  0  0  0  0  0  0  0  0  0  0  0
  145.6022  135.5493  163.0191 H   0  0  0  0  0  0  0  0  0  0  0  0
  1  2  1  0  0  0  0
  1 24  1  0  0  0  0
  2  3  1  0  0  0  0
  2 25  1  0  0  0  0
  2 26  1  0  0  0  0
  3 11  1  0  0  0  0
  3  4  2  0  0  0  0
  4  5  1  0  0  0  0
  5 10  2  0  0  0  0
  5  6  1  0  0  0  0
  6  7  2  0  0  0  0
  6 27  1  0  0  0  0
  7  8  1  0  0  0  0
  7 28  1  0  0  0  0
  8  9  2  0  0  0  0
  8 29  1  0  0  0  0
  9 10  1  0  0  0  0
  9 30  1  0  0  0  0
 10 11  1  0  0  0  0
 11 12  1  0  0  0  0
 12 13  1  0  0  0  0
 12 31  1  0  0  0  0
 12 32  1  0  0  0  0
 13 14  1  0  0  0  0
 13 15  1  0  0  0  0
 13 33  1  0  0  0  0
 14 34  1  0  0  0  0
 15 16  1  0  0  0  0
 15 35  1  0  0  0  0
 15 36  1  0  0  0  0
 16 17  1  0  0  0  0
 17 22  1  0  0  0  0
 17 18  2  0  0  0  0
 18 19  1  0  0  0  0
 18 37  1  0  0  0  0
 19 20  2  0  0  0  0
 19 38  1  0  0  0  0
 20 21  1  0  0  0  0
 20 39  1  0  0  0  0
 21 22  2  0  0  0  0
 21 40  1  0  0  0  0
 22 23  1  0  0  0  0
M  END
> <s_m_source_file>
AV-unprocessed.smi

> <i_m_source_file_index>
2144

> <i_lp_mmshare_version>
43012

> <i_f3d_flags>
0

> <s_epik_input>
W2NIXTFbY0hdW2NIXVtjSF1jKGMxMiluKGMobjIpW0NIMl1bT0hdKVtDSDJdW0NASF0oW09IXSlbQ0gyXU9jM1tjSF1bY0hdW2NIXVtjSF1jM0Y=

> <s_epik_cmdline>
J2VwaWtfcHl0aG9uJywgJy1waCcsICc3LjAnLCAnLXRuJywgJzgnLCAnLW1hJywgJzIwMCcsICctbWV0YWxfYmluZGluZycsICctaW1hZScsICc8aW5maWxlLm1hZT4nLCAnLW9tYWUnLCAnPG91dGZpbGUubWFlPic=

> <r_lp_tautomer_probability>
1

> <r_epik_Ionization_Penalty>
0.0547315

> <r_epik_Ionization_Penalty_Charging>
0

> <r_epik_Ionization_Penalty_Neutral>
0.0547315

> <r_epik_State_Penalty>
0.047032

> <r_epik_Charging_Adjusted_Penalty>
0.047032

> <i_epik_Tot_Q>
0

> <i_epik_Tot_abs_Q>
0

> <r_epik_Metal_State_Penalty>
4.89471e-05

> <b_epik_Metal_Only>
0

> <s_lp_Force_Field>
OPLS_2005

> <r_lp_Energy>
15.0425

> <b_lp_Chiralities_Consistent>
1

> <s_lp_Variant>
AV-unprocessed.smi:2144-1

> <Gold.Version>
5.8.1

> <Gold.Id.Protein>
6NUR|6NUR_protein|mol2

> <Gold.PLP.Fitness>
54.6145

> <Gold.PLP.PLP>
-48.9392

> <Gold.PLP.part.hbond>
-3.4630

> <Gold.PLP.part.metal>
0.0000

> <Gold.PLP.part.buried>
-4.5353

> <Gold.PLP.part.nonpolar>
-41.2626

> <Gold.PLP.part.repulsive>
0.0692

> <Gold.PLP.ligand.clash>
0.0000

> <Gold.PLP.ligand.torsion>
1.2713

> <Gold.PLP.Chemscore.Hbond>
2.6240

> <Gold.PLP.Chemscore.CHOScore>
0.0000

> <Gold.PLP.Chemscore.Metal>
0.0000

> <Gold.Chemscore.Hbonds>
donor molecule, donor type, donor heavy atom, donor atom, acceptor molecule, acceptor atom, score
      P1  H  6896  6909       L1    14  0.24
      P1  H  6931  6943       L1    16  0.22
      P1  H  6934  6947       L1    16  0.47
      P1  H  7989  7998       L1     1  0.30

> <Gold.PLP.Chemscore.Internal.Correction>
0.3458

> <Gold.Rescore>
     Score         DG    S(hbond)    S(metal)    S(lipo)     H(rot)  DE(clash)    DE(int)     intcor
     18.22     -19.44       2.62        0.00     114.95       3.22       0.06       1.16       ----

> <Gold.Chemscore.Fitness>
18.2180

> <Gold.Chemscore.DG>
-19.4415

> <Gold.Chemscore.ZeroCoef>
-5.4800

> <Gold.Chemscore.Hbond>
2.6212

> <Gold.Chemscore.Metal>
0.0000

> <Gold.Chemscore.Lipo>
114.9476

> <Gold.Chemscore.Internal_Hbond>
0.0000

> <Gold.Chemscore.DEClash>
0.0597

> <Gold.Chemscore.DEInternal>
1.1638

> <Gold.Chemscore.Rot>
3.2196

> <Gold.Chemscore.Internal.Correction>
   9.000000E+99

> <Gold.Chemscore.Hbonds>
donor molecule, donor type, donor heavy atom, donor atom, acceptor molecule, acceptor atom, score
      P1  H  6931  6943       L1    16  0.08
      P1  H  6934  6947       L1    16  0.11
      P1  H  7989  7998       L1     1  0.01

> <Gold.Chemscore.Hbond.Weighted>
-8.7549

> <Gold.Chemscore.Metal.Weighted>
-0.0000

> <Gold.Chemscore.Lipo.Weighted>
-13.4489

> <Gold.Chemscore.Internal_Hbond.Weighted>
0.0000

> <Gold.Chemscore.DEClash.Weighted>
0.0597

> <Gold.Chemscore.DEInternal.Weighted>
1.1638

> <Gold.Chemscore.Rot.Weighted>
8.2422

> <Gold.Chemscore.Internal.Correction.Weighted>
   9.000000E+99

> <Gold.Protein.RotatedTorsions>
[ 6907 6896 6895 6894 ] final  102.60 input  -60.11 | X-H torsion
[ 7974 7965 7964 7962 ] final  -75.16 input  175.53 | X-H torsion
[ 8008 7997 7996 7995 ] final   69.80 input   59.86 | X-H torsion
[ 10167 10162 10161 10158 ] final  -30.01 input  -65.29 | X-H torsion
[ 10718 10713 10712 10709 ] final   69.77 input   66.30 | X-H torsion
[ 10763 10752 10751 10750 ] final -126.73 input  -60.55 | X-H torsion
[ 11005 11000 10999 10996 ] final  168.69 input  -57.11 | X-H torsion

> <Gold.Protein.ActiveResidues>
 VAL166  LYS551  ARG553  GLY616  TRP617  ASP618  TYR619  PRO620  LYS621  CYS622 
 ASP623  PHE694  ASN695  SER759  ASP760  ASP761  ALA762  ILE779  LEU786  VAL792 
 PHE793  MET794  SER795  GLU796  ALA797  LYS798  CYS799  TRP800  GLU811  SER814 

> <Gold.Protein.RotatedAtoms>
  152.5319  133.9951  159.7868 H   0  0  0  0  0  0  0  0  0  0  0  0  # atno 6907 bound_to 6896
  151.0180  133.5895  159.2682 H   0  0  0  0  0  0  0  0  0  0  0  0  # atno 6908 bound_to 6896
  151.2945  135.0758  159.9270 H   0  0  0  0  0  0  0  0  0  0  0  0  # atno 6909 bound_to 6896
  145.6297  140.9341  143.1094 H   0  0  0  0  0  0  0  0  0  0  0  0  # atno 7974 bound_to 7965
  155.7291  140.3492  155.5051 H   0  0  0  0  0  0  0  0  0  0  0  0  # atno 8008 bound_to 7997
  155.9199  140.1065  157.1236 H   0  0  0  0  0  0  0  0  0  0  0  0  # atno 8009 bound_to 7997
  154.4068  140.1251  156.4653 H   0  0  0  0  0  0  0  0  0  0  0  0  # atno 8010 bound_to 7997
  140.7254  143.3883  151.1475 H   0  0  0  0  0  0  0  0  0  0  0  0  # atno 10167 bound_to 10162
  157.6364  130.9443  150.0559 H   0  0  0  0  0  0  0  0  0  0  0  0  # atno 10718 bound_to 10713
  154.8748  135.3986  154.3478 H   0  0  0  0  0  0  0  0  0  0  0  0  # atno 10763 bound_to 10752
  153.4268  135.7024  153.6262 H   0  0  0  0  0  0  0  0  0  0  0  0  # atno 10764 bound_to 10752
  153.4901  135.3750  155.2457 H   0  0  0  0  0  0  0  0  0  0  0  0  # atno 10765 bound_to 10752
  140.2899  134.7682  157.3829 H   0  0  0  0  0  0  0  0  0  0  0  0  # atno 11005 bound_to 11000
  144.7198  139.8068  143.7386 LP  0  0  0  0  0  0  0  0  0  0  0  0  # atno 17320 bound_to 7965
  146.1367  139.4414  143.0135 LP  0  0  0  0  0  0  0  0  0  0  0  0  # atno 17321 bound_to 7965
  139.7484  143.8817  152.3070 LP  0  0  0  0  0  0  0  0  0  0  0  0  # atno 17342 bound_to 10162
  139.8662  144.7092  150.9041 LP  0  0  0  0  0  0  0  0  0  0  0  0  # atno 17343 bound_to 10162
  156.1607  130.3644  149.9304 LP  0  0  0  0  0  0  0  0  0  0  0  0  # atno 17370 bound_to 10713
  156.7302  130.9040  151.3625 LP  0  0  0  0  0  0  0  0  0  0  0  0  # atno 17371 bound_to 10713
  140.1205  134.5226  155.8188 LP  0  0  0  0  0  0  0  0  0  0  0  0  # atno 17394 bound_to 11000
  141.2148  133.6755  156.6857 LP  0  0  0  0  0  0  0  0  0  0  0  0  # atno 17395 bound_to 11000

$$$$
