AV-unprocessed.smi:2671|AV-procd|sdf|10347|dock2
  -GOLD-   2272014373D 1   1.00000     0.00000
 Structure written by MMmdl.
 28 29  0  0  0  0  0  0  0  0  2 V2000
  152.2390  138.7103  155.1592 O   0  0  0  0  0  0  0  0  0  0  0  0
  151.7236  138.9610  156.2467 C   0  0  0  0  0  0  0  0  0  0  0  0
  150.2906  139.2425  156.3163 C   0  0  0  0  0  0  0  0  0  0  0  0
  149.7293  139.5096  157.5222 C   0  0  0  0  0  0  0  0  0  0  0  0
  148.2495  139.8283  157.6543 C   0  0  0  0  0  0  0  0  0  0  0  0
  147.6714  139.8621  156.4534 F   0  0  0  0  0  0  0  0  0  0  0  0
  147.6411  138.8906  158.3801 F   0  0  0  0  0  0  0  0  0  0  0  0
  148.0514  141.0078  158.2456 F   0  0  0  0  0  0  0  0  0  0  0  0
  150.5199  139.5276  158.6866 N   0  0  0  0  0  0  0  0  0  0  0  0
  151.7739  139.2809  158.6006 C   0  0  0  0  0  0  0  0  0  0  0  0
  152.7901  139.2996  160.0885 S   0  0  0  0  0  0  0  0  0  0  0  0
  154.1372  140.4504  159.6813 C   0  0  0  0  0  0  0  0  0  0  0  0
  153.9228  141.8282  160.3221 C   0  0  1  0  0  0  0  0  0  0  0  0
  152.5770  142.4839  159.9932 C   0  0  0  0  0  0  0  0  0  0  0  0
  152.2172  143.2577  161.2552 C   0  0  0  0  0  0  0  0  0  0  0  0
  153.3468  142.9297  162.2309 C   0  0  0  0  0  0  0  0  0  0  0  0
  153.8876  141.7153  161.7363 O   0  0  0  0  0  0  0  0  0  0  0  0
  152.4224  138.9936  157.4183 N   0  5  0  0  0  0  0  0  0  0  0  0
  149.6903  139.2380  155.4184 H   0  0  0  0  0  0  0  0  0  0  0  0
  154.1856  140.5563  158.5971 H   0  0  0  0  0  0  0  0  0  0  0  0
  155.0884  140.0269  160.0055 H   0  0  0  0  0  0  0  0  0  0  0  0
  154.7406  142.4996  160.0534 H   0  0  0  0  0  0  0  0  0  0  0  0
  152.6435  143.1251  159.1137 H   0  0  0  0  0  0  0  0  0  0  0  0
  151.8142  141.7293  159.7970 H   0  0  0  0  0  0  0  0  0  0  0  0
  152.1386  144.3308  161.0790 H   0  0  0  0  0  0  0  0  0  0  0  0
  151.2600  142.9108  161.6463 H   0  0  0  0  0  0  0  0  0  0  0  0
  154.1160  143.7034  162.2055 H   0  0  0  0  0  0  0  0  0  0  0  0
  152.9999  142.8263  163.2593 H   0  0  0  0  0  0  0  0  0  0  0  0
  1  2  2  0  0  0  0
  2 18  1  0  0  0  0
  2  3  1  0  0  0  0
  3 19  1  0  0  0  0
  3  4  2  0  0  0  0
  4  5  1  0  0  0  0
  4  9  1  0  0  0  0
  5  6  1  0  0  0  0
  5  7  1  0  0  0  0
  5  8  1  0  0  0  0
  9 10  2  0  0  0  0
 10 11  1  0  0  0  0
 10 18  1  0  0  0  0
 11 12  1  0  0  0  0
 12 13  1  0  0  0  0
 12 20  1  0  0  0  0
 12 21  1  0  0  0  0
 13 17  1  0  0  0  0
 13 14  1  0  0  0  0
 13 22  1  0  0  0  0
 14 15  1  0  0  0  0
 14 23  1  0  0  0  0
 14 24  1  0  0  0  0
 15 16  1  0  0  0  0
 15 25  1  0  0  0  0
 15 26  1  0  0  0  0
 16 17  1  0  0  0  0
 16 27  1  0  0  0  0
 16 28  1  0  0  0  0
M  CHG  1  18  -1
M  END
> <s_m_source_file>
AV-unprocessed.smi

> <i_m_source_file_index>
2671

> <i_lp_mmshare_version>
43012

> <i_f3d_flags>
0

> <s_epik_input>
W09IXWMxW2NIXWMoQyhGKShGKUYpbmMobjEpU1tDSDJdW0NAQEhdMltDSDJdW0NIMl1bQ0gyXU8y

> <s_epik_cmdline>
J2VwaWtfcHl0aG9uJywgJy1waCcsICc3LjAnLCAnLXRuJywgJzgnLCAnLW1hJywgJzIwMCcsICctbWV0YWxfYmluZGluZycsICctaW1hZScsICc8aW5maWxlLm1hZT4nLCAnLW9tYWUnLCAnPG91dGZpbGUubWFlPic=

> <r_lp_tautomer_probability>
1

> <r_epik_Ionization_Penalty>
0.972901

> <r_epik_Ionization_Penalty_Charging>
0.00136034

> <r_epik_Ionization_Penalty_Neutral>
0.971541

> <r_epik_State_Penalty>
0.242243

> <r_epik_Charging_Adjusted_Penalty>
0.243604

> <i_epik_Tot_Q>
-1

> <i_epik_Tot_abs_Q>
1

> <r_epik_Metal_State_Penalty>
0.0617458

> <b_epik_Metal_Only>
0

> <s_lp_Force_Field>
OPLS_2005

> <r_lp_Energy>
24.5089

> <b_lp_Chiralities_Consistent>
1

> <s_lp_Variant>
AV-unprocessed.smi:2671-2

> <Gold.Version>
5.8.1

> <Gold.Id.Protein>
6NUR|6NUR_protein|mol2

> <Gold.PLP.Fitness>
40.8601

> <Gold.PLP.PLP>
-36.2821

> <Gold.PLP.part.hbond>
-2.7840

> <Gold.PLP.part.metal>
0.0000

> <Gold.PLP.part.buried>
-4.5909

> <Gold.PLP.part.nonpolar>
-29.1208

> <Gold.PLP.part.repulsive>
0.0438

> <Gold.PLP.ligand.clash>
1.9792

> <Gold.PLP.ligand.torsion>
0.3978

> <Gold.PLP.Chemscore.Hbond>
2.4408

> <Gold.PLP.Chemscore.CHOScore>
0.0000

> <Gold.PLP.Chemscore.Metal>
0.0000

> <Gold.Chemscore.Hbonds>
donor molecule, donor type, donor heavy atom, donor atom, acceptor molecule, acceptor atom, score
      P1  H  7997  8008       L1    18  0.29

> <Gold.PLP.Chemscore.Internal.Correction>
0.0303

> <Gold.Rescore>
     Score         DG    S(hbond)    S(metal)    S(lipo)     H(rot)  DE(clash)    DE(int)     intcor
     13.12     -13.65       1.28        0.00      69.69       1.66       0.03       0.50       ----

> <Gold.Chemscore.Fitness>
13.1185

> <Gold.Chemscore.DG>
-13.6466

> <Gold.Chemscore.ZeroCoef>
-5.4800

> <Gold.Chemscore.Hbond>
1.2800

> <Gold.Chemscore.Metal>
0.0000

> <Gold.Chemscore.Lipo>
69.6880

> <Gold.Chemscore.Internal_Hbond>
0.0000

> <Gold.Chemscore.DEClash>
0.0251

> <Gold.Chemscore.DEInternal>
0.5030

> <Gold.Chemscore.Rot>
1.6649

> <Gold.Chemscore.Internal.Correction>
   9.000000E+99

> <Gold.Chemscore.Hbonds>
donor molecule, donor type, donor heavy atom, donor atom, acceptor molecule, acceptor atom, score
      P1  H  7997  8008       L1    18  0.08

> <Gold.Chemscore.Hbond.Weighted>
-4.2751

> <Gold.Chemscore.Metal.Weighted>
-0.0000

> <Gold.Chemscore.Lipo.Weighted>
-8.1535

> <Gold.Chemscore.Internal_Hbond.Weighted>
0.0000

> <Gold.Chemscore.DEClash.Weighted>
0.0251

> <Gold.Chemscore.DEInternal.Weighted>
0.5030

> <Gold.Chemscore.Rot.Weighted>
4.2620

> <Gold.Chemscore.Internal.Correction.Weighted>
   9.000000E+99

> <Gold.Protein.RotatedTorsions>
[ 6907 6896 6895 6894 ] final  178.76 input  -60.11 | X-H torsion
[ 7974 7965 7964 7962 ] final -140.63 input  175.53 | X-H torsion
[ 8008 7997 7996 7995 ] final  -74.97 input   59.86 | X-H torsion
[ 10167 10162 10161 10158 ] final   50.68 input  -65.29 | X-H torsion
[ 10718 10713 10712 10709 ] final   94.22 input   66.30 | X-H torsion
[ 10763 10752 10751 10750 ] final -168.46 input  -60.55 | X-H torsion
[ 11005 11000 10999 10996 ] final  110.18 input  -57.11 | X-H torsion

> <Gold.Protein.ActiveResidues>
 VAL166  LYS551  ARG553  GLY616  TRP617  ASP618  TYR619  PRO620  LYS621  CYS622 
 ASP623  PHE694  ASN695  SER759  ASP760  ASP761  ALA762  ILE779  LEU786  VAL792 
 PHE793  MET794  SER795  GLU796  ALA797  LYS798  CYS799  TRP800  GLU811  SER814 

> <Gold.Protein.RotatedAtoms>
  151.6826  133.3312  159.3222 H   0  0  0  0  0  0  0  0  0  0  0  0  # atno 6907 bound_to 6896
  150.7816  134.6768  159.6431 H   0  0  0  0  0  0  0  0  0  0  0  0  # atno 6908 bound_to 6896
  152.3875  134.6498  160.0172 H   0  0  0  0  0  0  0  0  0  0  0  0  # atno 6909 bound_to 6896
  144.8582  140.6177  143.5345 H   0  0  0  0  0  0  0  0  0  0  0  0  # atno 7974 bound_to 7965
  154.5376  140.0752  156.8455 H   0  0  0  0  0  0  0  0  0  0  0  0  # atno 8008 bound_to 7997
  155.3245  140.3398  155.4222 H   0  0  0  0  0  0  0  0  0  0  0  0  # atno 8009 bound_to 7997
  156.1844  140.1663  156.8200 H   0  0  0  0  0  0  0  0  0  0  0  0  # atno 8010 bound_to 7997
  140.2699  144.3277  150.6293 H   0  0  0  0  0  0  0  0  0  0  0  0  # atno 10167 bound_to 10162
  157.6949  131.0505  150.4154 H   0  0  0  0  0  0  0  0  0  0  0  0  # atno 10718 bound_to 10713
  154.6627  135.2927  154.9846 H   0  0  0  0  0  0  0  0  0  0  0  0  # atno 10763 bound_to 10752
  154.0900  135.6592  153.4855 H   0  0  0  0  0  0  0  0  0  0  0  0  # atno 10764 bound_to 10752
  153.0439  135.5218  154.7585 H   0  0  0  0  0  0  0  0  0  0  0  0  # atno 10765 bound_to 10752
  139.8876  134.9477  156.6239 H   0  0  0  0  0  0  0  0  0  0  0  0  # atno 11005 bound_to 11000
  145.4363  139.1542  143.3994 LP  0  0  0  0  0  0  0  0  0  0  0  0  # atno 17320 bound_to 7965
  146.2840  140.4482  142.8765 LP  0  0  0  0  0  0  0  0  0  0  0  0  # atno 17321 bound_to 7965
  140.5898  143.2168  151.7274 LP  0  0  0  0  0  0  0  0  0  0  0  0  # atno 17342 bound_to 10162
  139.4992  144.3956  152.0234 LP  0  0  0  0  0  0  0  0  0  0  0  0  # atno 17343 bound_to 10162
  156.4534  130.4016  149.6621 LP  0  0  0  0  0  0  0  0  0  0  0  0  # atno 17370 bound_to 10713
  156.3763  130.7556  151.2544 LP  0  0  0  0  0  0  0  0  0  0  0  0  # atno 17371 bound_to 10713
  140.7718  133.8732  155.8498 LP  0  0  0  0  0  0  0  0  0  0  0  0  # atno 17394 bound_to 11000
  140.9835  134.1374  157.4473 LP  0  0  0  0  0  0  0  0  0  0  0  0  # atno 17395 bound_to 11000

$$$$
