AV-unprocessed.smi:623|AV-procd|sdf|3098|dock8
  -GOLD-   22720 0 23D 1   1.00000     0.00000
 Structure written by MMmdl.
 44 46  0  0  0  0  0  0  0  0  2 V2000
  145.0784  134.2682  162.6217 C   0  0  0  0  0  0  0  0  0  0  0  0
  146.3363  134.4241  161.7212 C   0  0  0  0  0  0  0  0  0  0  0  0
  147.4770  133.6807  162.4707 C   0  0  0  0  0  0  0  0  0  0  0  0
  146.1311  133.9608  160.2647 C   0  0  1  0  0  0  0  0  0  0  0  0
  145.0554  134.9269  159.7217 C   0  0  0  0  0  0  0  0  0  0  0  0
  145.4019  136.2479  160.4360 C   0  0  0  0  0  0  0  0  0  0  0  0
  146.6640  135.8714  161.2622 C   0  0  1  0  0  0  0  0  0  0  0  0
  146.9734  136.8790  162.3823 C   0  0  0  0  0  0  0  0  0  0  0  0
  147.8521  135.6598  160.2743 C   0  0  2  0  0  0  0  0  0  0  0  0
  148.0374  136.7649  159.3347 N   0  0  0  0  0  0  0  0  0  0  0  0
  149.0703  136.8969  158.4900 C   0  0  0  0  0  0  0  0  0  0  0  0
  149.9817  136.0722  158.4076 O   0  0  0  0  0  0  0  0  0  0  0  0
  149.0400  138.1384  157.5876 C   0  0  0  0  0  0  0  0  0  0  0  0
  150.3260  138.4113  156.9258 N   0  0  0  0  0  0  0  0  0  0  0  0
  150.3807  138.2759  155.5276 C   0  0  0  0  0  0  0  0  0  0  0  0
  151.5140  138.5001  154.8356 C   0  0  0  0  0  0  0  0  0  0  0  0
  152.7070  138.8938  155.5746 C   0  0  0  0  0  0  0  0  0  0  0  0
  153.7495  139.1075  154.9587 O   0  0  0  0  0  0  0  0  0  0  0  0
  152.6048  139.0071  156.9313 N   0  5  0  0  0  0  0  0  0  0  0  0
  151.4461  138.7720  157.6221 C   0  0  0  0  0  0  0  0  0  0  0  0
  151.3767  138.8757  158.8473 O   0  0  0  0  0  0  0  0  0  0  0  0
  147.4595  134.3366  159.5719 C   0  0  0  0  0  0  0  0  0  0  0  0
  144.8465  133.2139  162.7758 H   0  0  0  0  0  0  0  0  0  0  0  0
  144.1711  134.7259  162.2337 H   0  0  0  0  0  0  0  0  0  0  0  0
  145.2500  134.7041  163.6061 H   0  0  0  0  0  0  0  0  0  0  0  0
  148.4416  133.6854  161.9687 H   0  0  0  0  0  0  0  0  0  0  0  0
  147.2160  132.6326  162.6211 H   0  0  0  0  0  0  0  0  0  0  0  0
  147.6389  134.1146  163.4578 H   0  0  0  0  0  0  0  0  0  0  0  0
  145.8664  132.9094  160.1478 H   0  0  0  0  0  0  0  0  0  0  0  0
  145.0966  135.0238  158.6361 H   0  0  0  0  0  0  0  0  0  0  0  0
  144.0492  134.5923  159.9746 H   0  0  0  0  0  0  0  0  0  0  0  0
  145.5590  137.0660  159.7337 H   0  0  0  0  0  0  0  0  0  0  0  0
  144.5827  136.5660  161.0810 H   0  0  0  0  0  0  0  0  0  0  0  0
  147.1796  137.8675  161.9714 H   0  0  0  0  0  0  0  0  0  0  0  0
  147.8457  136.5745  162.9607 H   0  0  0  0  0  0  0  0  0  0  0  0
  146.1347  136.9777  163.0716 H   0  0  0  0  0  0  0  0  0  0  0  0
  148.7844  135.5340  160.8269 H   0  0  0  0  0  0  0  0  0  0  0  0
  147.3338  137.4889  159.3382 H   0  0  0  0  0  0  0  0  0  0  0  0
  148.2550  137.9977  156.8434 H   0  0  0  0  0  0  0  0  0  0  0  0
  148.7259  139.0046  158.1729 H   0  0  0  0  0  0  0  0  0  0  0  0
  149.4555  137.9744  155.0586 H   0  0  0  0  0  0  0  0  0  0  0  0
  151.5397  138.3884  153.7617 H   0  0  0  0  0  0  0  0  0  0  0  0
  148.2213  133.5721  159.7255 H   0  0  0  0  0  0  0  0  0  0  0  0
  147.3377  134.4424  158.4928 H   0  0  0  0  0  0  0  0  0  0  0  0
  1  2  1  0  0  0  0
  1 23  1  0  0  0  0
  1 24  1  0  0  0  0
  1 25  1  0  0  0  0
  2  7  1  0  0  0  0
  2  3  1  0  0  0  0
  2  4  1  0  0  0  0
  3 26  1  0  0  0  0
  3 27  1  0  0  0  0
  3 28  1  0  0  0  0
  4 22  1  0  0  0  0
  4  5  1  0  0  0  0
  4 29  1  0  0  0  0
  5  6  1  0  0  0  0
  5 30  1  0  0  0  0
  5 31  1  0  0  0  0
  6  7  1  0  0  0  0
  6 32  1  0  0  0  0
  6 33  1  0  0  0  0
  7  8  1  0  0  0  0
  7  9  1  0  0  0  0
  8 34  1  0  0  0  0
  8 35  1  0  0  0  0
  8 36  1  0  0  0  0
  9 10  1  0  0  0  0
  9 22  1  0  0  0  0
  9 37  1  0  0  0  0
 10 11  1  0  0  0  0
 10 38  1  0  0  0  0
 11 12  2  0  0  0  0
 11 13  1  0  0  0  0
 13 14  1  0  0  0  0
 13 39  1  0  0  0  0
 13 40  1  0  0  0  0
 14 20  1  0  0  0  0
 14 15  1  0  0  0  0
 15 16  2  0  0  0  0
 15 41  1  0  0  0  0
 16 17  1  0  0  0  0
 16 42  1  0  0  0  0
 17 18  2  0  0  0  0
 17 19  1  0  0  0  0
 19 20  1  0  0  0  0
 20 21  2  0  0  0  0
 22 43  1  0  0  0  0
 22 44  1  0  0  0  0
M  CHG  1  19  -1
M  END
> <s_m_source_file>
AV-unprocessed.smi

> <i_m_source_file_index>
623

> <i_lp_mmshare_version>
43012

> <i_f3d_flags>
0

> <s_epik_input>
W0NIM11bQ0BdMTJDKFtDSDNdKShbQ0gzXSlbQ0BIXShbQ0gyXVtDSDJdMSlbQ0gyXVtDQEBIXTJbTkhdQyg9TylbQ0gyXW4zW2NIXVtjSF1jKD1PKVtuSF1jMz1P

> <s_epik_cmdline>
J2VwaWtfcHl0aG9uJywgJy1waCcsICc3LjAnLCAnLXRuJywgJzgnLCAnLW1hJywgJzIwMCcsICctbWV0YWxfYmluZGluZycsICctaW1hZScsICc8aW5maWxlLm1hZT4nLCAnLW9tYWUnLCAnPG91dGZpbGUubWFlPic=

> <r_lp_tautomer_probability>
0.999537

> <r_epik_Ionization_Penalty>
3.12624

> <r_epik_Ionization_Penalty_Charging>
3.01273e-08

> <r_epik_Ionization_Penalty_Neutral>
3.12624

> <r_epik_State_Penalty>
3.12534

> <r_epik_Charging_Adjusted_Penalty>
3.12534

> <i_epik_Tot_Q>
-1

> <i_epik_Tot_abs_Q>
1

> <r_epik_Metal_State_Penalty>
0.46406

> <b_epik_Metal_Only>
1

> <s_lp_Force_Field>
OPLS_2005

> <r_lp_Energy>
65.8638

> <b_lp_Chiralities_Consistent>
1

> <s_lp_Variant>
AV-unprocessed.smi:623-8

> <Gold.Version>
5.8.1

> <Gold.Id.Protein>
6NUR|6NUR_protein|mol2

> <Gold.PLP.Fitness>
37.0217

> <Gold.PLP.PLP>
-31.7729

> <Gold.PLP.part.hbond>
-2.9803

> <Gold.PLP.part.metal>
0.0000

> <Gold.PLP.part.buried>
-3.9703

> <Gold.PLP.part.nonpolar>
-25.0556

> <Gold.PLP.part.repulsive>
0.1830

> <Gold.PLP.ligand.clash>
0.0000

> <Gold.PLP.ligand.torsion>
0.3217

> <Gold.PLP.Chemscore.Hbond>
1.9600

> <Gold.PLP.Chemscore.CHOScore>
0.0000

> <Gold.PLP.Chemscore.Metal>
0.0000

> <Gold.Chemscore.Hbonds>
donor molecule, donor type, donor heavy atom, donor atom, acceptor molecule, acceptor atom, score
      P1  H  6896  6909       L1    12  0.99
      P1  H  7997  8010       L1    18  0.99

> <Gold.PLP.Chemscore.Internal.Correction>
0.0123

> <Gold.Rescore>
     Score         DG    S(hbond)    S(metal)    S(lipo)     H(rot)  DE(clash)    DE(int)     intcor
     15.81     -16.29       1.90        0.00      73.75       1.63       0.06       0.41       ----

> <Gold.Chemscore.Fitness>
15.8141

> <Gold.Chemscore.DG>
-16.2883

> <Gold.Chemscore.ZeroCoef>
-5.4800

> <Gold.Chemscore.Hbond>
1.9035

> <Gold.Chemscore.Metal>
0.0000

> <Gold.Chemscore.Lipo>
73.7509

> <Gold.Chemscore.Internal_Hbond>
0.0000

> <Gold.Chemscore.DEClash>
0.0594

> <Gold.Chemscore.DEInternal>
0.4148

> <Gold.Chemscore.Rot>
1.6322

> <Gold.Chemscore.Internal.Correction>
   9.000000E+99

> <Gold.Chemscore.Hbonds>
donor molecule, donor type, donor heavy atom, donor atom, acceptor molecule, acceptor atom, score
      P1  H  6896  6909       L1    12  0.92
      P1  H  7997  8010       L1    18  0.76

> <Gold.Chemscore.Hbond.Weighted>
-6.3578

> <Gold.Chemscore.Metal.Weighted>
-0.0000

> <Gold.Chemscore.Lipo.Weighted>
-8.6289

> <Gold.Chemscore.Internal_Hbond.Weighted>
0.0000

> <Gold.Chemscore.DEClash.Weighted>
0.0594

> <Gold.Chemscore.DEInternal.Weighted>
0.4148

> <Gold.Chemscore.Rot.Weighted>
4.1783

> <Gold.Chemscore.Internal.Correction.Weighted>
   9.000000E+99

> <Gold.Protein.RotatedTorsions>
[ 6907 6896 6895 6894 ] final   54.17 input  -60.11 | X-H torsion
[ 7974 7965 7964 7962 ] final -108.06 input  175.53 | X-H torsion
[ 8008 7997 7996 7995 ] final  121.58 input   59.86 | X-H torsion
[ 10167 10162 10161 10158 ] final   30.74 input  -65.29 | X-H torsion
[ 10718 10713 10712 10709 ] final -150.99 input   66.30 | X-H torsion
[ 10763 10752 10751 10750 ] final   80.18 input  -60.55 | X-H torsion
[ 11005 11000 10999 10996 ] final -167.09 input  -57.11 | X-H torsion

> <Gold.Protein.ActiveResidues>
 VAL166  LYS551  ARG553  GLY616  TRP617  ASP618  TYR619  PRO620  LYS621  CYS622 
 ASP623  PHE694  ASN695  SER759  ASP760  ASP761  ALA762  ILE779  LEU786  VAL792 
 PHE793  MET794  SER795  GLU796  ALA797  LYS798  CYS799  TRP800  GLU811  SER814 

> <Gold.Protein.RotatedAtoms>
  152.3411  134.7132  160.0263 H   0  0  0  0  0  0  0  0  0  0  0  0  # atno 6907 bound_to 6896
  151.7517  133.3322  159.3401 H   0  0  0  0  0  0  0  0  0  0  0  0  # atno 6908 bound_to 6896
  150.7480  134.6119  159.6135 H   0  0  0  0  0  0  0  0  0  0  0  0  # atno 6909 bound_to 6896
  145.1976  140.9042  143.3388 H   0  0  0  0  0  0  0  0  0  0  0  0  # atno 7974 bound_to 7965
  156.2692  140.2805  156.1331 H   0  0  0  0  0  0  0  0  0  0  0  0  # atno 8008 bound_to 7997
  155.1033  140.0390  157.2721 H   0  0  0  0  0  0  0  0  0  0  0  0  # atno 8009 bound_to 7997
  154.6799  140.2606  155.6925 H   0  0  0  0  0  0  0  0  0  0  0  0  # atno 8010 bound_to 7997
  140.4651  144.0848  150.6222 H   0  0  0  0  0  0  0  0  0  0  0  0  # atno 10167 bound_to 10162
  156.4534  130.8179  151.2410 H   0  0  0  0  0  0  0  0  0  0  0  0  # atno 10718 bound_to 10713
  153.1013  135.4812  154.8871 H   0  0  0  0  0  0  0  0  0  0  0  0  # atno 10763 bound_to 10752
  154.7381  135.3076  154.8778 H   0  0  0  0  0  0  0  0  0  0  0  0  # atno 10764 bound_to 10752
  153.9394  135.6836  153.4798 H   0  0  0  0  0  0  0  0  0  0  0  0  # atno 10765 bound_to 10752
  140.5571  134.5370  157.5135 H   0  0  0  0  0  0  0  0  0  0  0  0  # atno 11005 bound_to 11000
  144.9979  139.3626  143.6182 LP  0  0  0  0  0  0  0  0  0  0  0  0  # atno 17320 bound_to 7965
  146.3424  139.9190  142.8769 LP  0  0  0  0  0  0  0  0  0  0  0  0  # atno 17321 bound_to 7965
  140.4046  143.2686  151.9906 LP  0  0  0  0  0  0  0  0  0  0  0  0  # atno 17342 bound_to 10162
  139.4811  144.5968  151.7676 LP  0  0  0  0  0  0  0  0  0  0  0  0  # atno 17343 bound_to 10162
  157.7502  131.0130  150.3408 LP  0  0  0  0  0  0  0  0  0  0  0  0  # atno 17370 bound_to 10713
  156.3792  130.3877  149.7115 LP  0  0  0  0  0  0  0  0  0  0  0  0  # atno 17371 bound_to 10713
  139.9426  134.7759  156.0641 LP  0  0  0  0  0  0  0  0  0  0  0  0  # atno 17394 bound_to 11000
  141.1137  133.6635  156.3040 LP  0  0  0  0  0  0  0  0  0  0  0  0  # atno 17395 bound_to 11000

$$$$
