AV-unprocessed.smi:2528|AV-procd|sdf|9957|dock1
  -GOLD-   2272013593D 1   1.00000     0.00000
 Structure written by MMmdl.
 43 45  0  0  0  0  0  0  0  0  1 V2000
  148.7494  133.8839  155.7412 O   0  0  0  0  0  0  0  0  0  0  0  0
  148.7429  134.4836  154.6662 C   0  0  0  0  0  0  0  0  0  0  0  0
  149.2250  135.7245  154.5057 N   0  0  0  0  0  0  0  0  0  0  0  0
  149.8444  136.5344  155.5498 C   0  0  0  0  0  0  0  0  0  0  0  0
  151.1454  137.1977  155.0498 C   0  0  1  0  0  0  0  0  0  0  0  0
  150.9914  138.7064  154.7717 C   0  0  0  0  0  0  0  0  0  0  0  0
  150.9125  139.5053  155.9889 N   0  0  0  0  0  0  0  0  0  0  0  0
  150.7968  140.9293  155.6756 C   0  0  0  0  0  0  0  0  0  0  0  0
  150.6857  141.8027  156.9350 C   0  0  0  0  0  0  0  0  0  0  0  0
  151.8883  141.5599  157.8574 C   0  0  0  0  0  0  0  0  0  0  0  0
  152.0338  140.0581  158.1452 C   0  0  0  0  0  0  0  0  0  0  0  0
  152.0801  139.2440  156.8351 C   0  0  1  0  0  0  0  0  0  0  0  0
  152.2076  137.7401  157.1434 C   0  0  0  0  0  0  0  0  0  0  0  0
  152.2461  136.9837  155.9355 O   0  0  0  0  0  0  0  0  0  0  0  0
  148.2619  133.9967  153.5086 N   0  0  0  0  0  0  0  0  0  0  0  0
  147.6655  132.7299  153.2682 C   0  0  0  0  0  0  0  0  0  0  0  0
  146.7213  132.7025  152.2167 C   0  0  0  0  0  0  0  0  0  0  0  0
  146.0713  131.4938  151.8996 C   0  0  0  0  0  0  0  0  0  0  0  0
  146.3826  130.3416  152.6433 C   0  0  0  0  0  0  0  0  0  0  0  0
  147.3338  130.4547  153.6738 C   0  0  0  0  0  0  0  0  0  0  0  0
  147.9576  131.6121  153.9792 N   0  0  0  0  0  0  0  0  0  0  0  0
  149.1756  136.1367  153.5857 H   0  0  0  0  0  0  0  0  0  0  0  0
  149.1273  137.3092  155.8218 H   0  0  0  0  0  0  0  0  0  0  0  0
  150.0110  135.9537  156.4579 H   0  0  0  0  0  0  0  0  0  0  0  0
  151.4105  136.7188  154.1064 H   0  0  0  0  0  0  0  0  0  0  0  0
  151.8451  139.0386  154.1790 H   0  0  0  0  0  0  0  0  0  0  0  0
  150.1078  138.8780  154.1558 H   0  0  0  0  0  0  0  0  0  0  0  0
  151.6593  141.2505  155.0893 H   0  0  0  0  0  0  0  0  0  0  0  0
  149.9195  141.0960  155.0496 H   0  0  0  0  0  0  0  0  0  0  0  0
  150.6297  142.8560  156.6591 H   0  0  0  0  0  0  0  0  0  0  0  0
  149.7609  141.5682  157.4640 H   0  0  0  0  0  0  0  0  0  0  0  0
  152.7965  141.9311  157.3810 H   0  0  0  0  0  0  0  0  0  0  0  0
  151.7722  142.1155  158.7883 H   0  0  0  0  0  0  0  0  0  0  0  0
  152.9362  139.8812  158.7316 H   0  0  0  0  0  0  0  0  0  0  0  0
  151.1950  139.7241  158.7579 H   0  0  0  0  0  0  0  0  0  0  0  0
  152.9762  139.5442  156.2891 H   0  0  0  0  0  0  0  0  0  0  0  0
  153.1234  137.5435  157.7009 H   0  0  0  0  0  0  0  0  0  0  0  0
  151.3837  137.4056  157.7734 H   0  0  0  0  0  0  0  0  0  0  0  0
  148.3297  134.6036  152.7054 H   0  0  0  0  0  0  0  0  0  0  0  0
  146.4938  133.5972  151.6553 H   0  0  0  0  0  0  0  0  0  0  0  0
  145.3470  131.4522  151.0999 H   0  0  0  0  0  0  0  0  0  0  0  0
  145.9052  129.3965  152.4303 H   0  0  0  0  0  0  0  0  0  0  0  0
  147.6011  129.5942  154.2690 H   0  0  0  0  0  0  0  0  0  0  0  0
  1  2  2  0  0  0  0
  2  3  1  0  0  0  0
  2 15  1  0  0  0  0
  3  4  1  0  0  0  0
  3 22  1  0  0  0  0
  4  5  1  0  0  0  0
  4 23  1  0  0  0  0
  4 24  1  0  0  0  0
  5 14  1  0  0  0  0
  5  6  1  0  0  0  0
  5 25  1  0  0  0  0
  6  7  1  0  0  0  0
  6 26  1  0  0  0  0
  6 27  1  0  0  0  0
  7 12  1  0  0  0  0
  7  8  1  0  0  0  0
  8  9  1  0  0  0  0
  8 28  1  0  0  0  0
  8 29  1  0  0  0  0
  9 10  1  0  0  0  0
  9 30  1  0  0  0  0
  9 31  1  0  0  0  0
 10 11  1  0  0  0  0
 10 32  1  0  0  0  0
 10 33  1  0  0  0  0
 11 12  1  0  0  0  0
 11 34  1  0  0  0  0
 11 35  1  0  0  0  0
 12 13  1  0  0  0  0
 12 36  1  0  0  0  0
 13 14  1  0  0  0  0
 13 37  1  0  0  0  0
 13 38  1  0  0  0  0
 15 16  1  0  0  0  0
 15 39  1  0  0  0  0
 16 21  1  0  0  0  0
 16 17  2  0  0  0  0
 17 18  1  0  0  0  0
 17 40  1  0  0  0  0
 18 19  2  0  0  0  0
 18 41  1  0  0  0  0
 19 20  1  0  0  0  0
 19 42  1  0  0  0  0
 20 21  2  0  0  0  0
 20 43  1  0  0  0  0
M  END
> <s_m_source_file>
AV-unprocessed.smi

> <i_m_source_file_index>
2528

> <i_lp_mmshare_version>
43012

> <i_f3d_flags>
0

> <s_epik_input>
bjFbY0hdW2NIXVtjSF1bY0hdYzFbTkhdQyg9TylbTkhdW0NIMl1bQ0BIXShbQ0gyXTIpT1tDSDJdW0NAQEhdKE4yMylbQ0gyXVtDSDJdW0NIMl1bQ0gyXTM=

> <s_epik_cmdline>
J2VwaWtfcHl0aG9uJywgJy1waCcsICc3LjAnLCAnLXRuJywgJzgnLCAnLW1hJywgJzIwMCcsICctbWV0YWxfYmluZGluZycsICctaW1hZScsICc8aW5maWxlLm1hZT4nLCAnLW9tYWUnLCAnPG91dGZpbGUubWFlPic=

> <r_epik_Ionization_Penalty>
1.14192

> <r_epik_Ionization_Penalty_Charging>
0

> <r_epik_Ionization_Penalty_Neutral>
1.14192

> <r_epik_State_Penalty>
1.20248

> <r_epik_Charging_Adjusted_Penalty>
1.20248

> <i_epik_Tot_Q>
0

> <i_epik_Tot_abs_Q>
0

> <r_epik_Metal_State_Penalty>
1.20248

> <b_epik_Metal_Only>
0

> <s_lp_Force_Field>
OPLS_2005

> <r_lp_Energy>
38.6775

> <b_lp_Chiralities_Consistent>
1

> <s_lp_Variant>
AV-unprocessed.smi:2528-10

> <Gold.Version>
5.8.1

> <Gold.Id.Protein>
6NUR|6NUR_protein|mol2

> <Gold.PLP.Fitness>
39.8199

> <Gold.PLP.PLP>
-33.1852

> <Gold.PLP.part.hbond>
-3.0000

> <Gold.PLP.part.metal>
0.0000

> <Gold.PLP.part.buried>
-4.8316

> <Gold.PLP.part.nonpolar>
-26.0572

> <Gold.PLP.part.repulsive>
0.1362

> <Gold.PLP.ligand.clash>
0.0000

> <Gold.PLP.ligand.torsion>
0.9349

> <Gold.PLP.Chemscore.Hbond>
2.8320

> <Gold.PLP.Chemscore.CHOScore>
0.0000

> <Gold.PLP.Chemscore.Metal>
0.0000

> <Gold.Chemscore.Hbonds>
donor molecule, donor type, donor heavy atom, donor atom, acceptor molecule, acceptor atom, score
      L1  H     3    22       P1  7948  1.00
      L1  H    15    39       P1  7948  1.00
      P1  H 10752 10765       L1    14  0.96

> <Gold.PLP.Chemscore.Internal.Correction>
0.0085

> <Gold.Rescore>
     Score         DG    S(hbond)    S(metal)    S(lipo)     H(rot)  DE(clash)    DE(int)     intcor
     17.89     -20.04       2.59        0.00      78.25       1.27       0.06       2.09       ----

> <Gold.Chemscore.Fitness>
17.8903

> <Gold.Chemscore.DG>
-20.0418

> <Gold.Chemscore.ZeroCoef>
-5.4800

> <Gold.Chemscore.Hbond>
2.5919

> <Gold.Chemscore.Metal>
0.0000

> <Gold.Chemscore.Lipo>
78.2470

> <Gold.Chemscore.Internal_Hbond>
0.0000

> <Gold.Chemscore.DEClash>
0.0595

> <Gold.Chemscore.DEInternal>
2.0920

> <Gold.Chemscore.Rot>
1.2696

> <Gold.Chemscore.Internal.Correction>
   9.000000E+99

> <Gold.Chemscore.Hbonds>
donor molecule, donor type, donor heavy atom, donor atom, acceptor molecule, acceptor atom, score
      L1  H     3    22       P1  7948  0.90
      L1  H    15    39       P1  7948  0.33
      P1  H 10752 10765       L1    14  0.23

> <Gold.Chemscore.Hbond.Weighted>
-8.6571

> <Gold.Chemscore.Metal.Weighted>
-0.0000

> <Gold.Chemscore.Lipo.Weighted>
-9.1549

> <Gold.Chemscore.Internal_Hbond.Weighted>
0.0000

> <Gold.Chemscore.DEClash.Weighted>
0.0595

> <Gold.Chemscore.DEInternal.Weighted>
2.0920

> <Gold.Chemscore.Rot.Weighted>
3.2502

> <Gold.Chemscore.Internal.Correction.Weighted>
   9.000000E+99

> <Gold.Protein.RotatedTorsions>
[ 6907 6896 6895 6894 ] final  105.32 input  -60.11 | X-H torsion
[ 7974 7965 7964 7962 ] final   57.73 input  175.53 | X-H torsion
[ 8008 7997 7996 7995 ] final -177.36 input   59.86 | X-H torsion
[ 10167 10162 10161 10158 ] final  125.99 input  -65.29 | X-H torsion
[ 10718 10713 10712 10709 ] final  -62.11 input   66.30 | X-H torsion
[ 10763 10752 10751 10750 ] final -152.20 input  -60.55 | X-H torsion
[ 11005 11000 10999 10996 ] final  137.19 input  -57.11 | X-H torsion

> <Gold.Protein.ActiveResidues>
 VAL166  LYS551  ARG553  GLY616  TRP617  ASP618  TYR619  PRO620  LYS621  CYS622 
 ASP623  PHE694  ASN695  SER759  ASP760  ASP761  ALA762  ILE779  LEU786  VAL792 
 PHE793  MET794  SER795  GLU796  ALA797  LYS798  CYS799  TRP800  GLU811  SER814 

> <Gold.Protein.RotatedAtoms>
  152.5234  133.9546  159.7687 H   0  0  0  0  0  0  0  0  0  0  0  0  # atno 6907 bound_to 6896
  150.9849  133.6200  159.2724 H   0  0  0  0  0  0  0  0  0  0  0  0  # atno 6908 bound_to 6896
  151.3364  135.0859  159.9409 H   0  0  0  0  0  0  0  0  0  0  0  0  # atno 6909 bound_to 6896
  145.9259  139.3767  143.0450 H   0  0  0  0  0  0  0  0  0  0  0  0  # atno 7974 bound_to 7965
  156.0060  140.1230  157.0501 H   0  0  0  0  0  0  0  0  0  0  0  0  # atno 8008 bound_to 7997
  154.4259  140.1097  156.5832 H   0  0  0  0  0  0  0  0  0  0  0  0  # atno 8009 bound_to 7997
  155.6147  140.3472  155.4635 H   0  0  0  0  0  0  0  0  0  0  0  0  # atno 8010 bound_to 7997
  139.5655  144.6909  151.3921 H   0  0  0  0  0  0  0  0  0  0  0  0  # atno 10167 bound_to 10162
  156.0877  130.4205  150.1088 H   0  0  0  0  0  0  0  0  0  0  0  0  # atno 10718 bound_to 10713
  154.8009  135.3242  154.7552 H   0  0  0  0  0  0  0  0  0  0  0  0  # atno 10763 bound_to 10752
  153.8220  135.6887  153.4830 H   0  0  0  0  0  0  0  0  0  0  0  0  # atno 10764 bound_to 10752
  153.1725  135.4617  154.9865 H   0  0  0  0  0  0  0  0  0  0  0  0  # atno 10765 bound_to 10752
  140.0097  134.9444  157.0251 H   0  0  0  0  0  0  0  0  0  0  0  0  # atno 11005 bound_to 11000
  145.8490  140.9539  143.0760 LP  0  0  0  0  0  0  0  0  0  0  0  0  # atno 17320 bound_to 7965
  144.6758  140.0382  143.7481 LP  0  0  0  0  0  0  0  0  0  0  0  0  # atno 17321 bound_to 7965
  140.6939  143.7797  150.7296 LP  0  0  0  0  0  0  0  0  0  0  0  0  # atno 17342 bound_to 10162
  140.1287  143.4545  152.2268 LP  0  0  0  0  0  0  0  0  0  0  0  0  # atno 17343 bound_to 10162
  156.9105  130.9650  151.3563 LP  0  0  0  0  0  0  0  0  0  0  0  0  # atno 17370 bound_to 10713
  157.6017  130.8517  149.8812 LP  0  0  0  0  0  0  0  0  0  0  0  0  # atno 17371 bound_to 10713
  140.4577  134.1516  155.7188 LP  0  0  0  0  0  0  0  0  0  0  0  0  # atno 17394 bound_to 11000
  141.1702  133.8624  157.1594 LP  0  0  0  0  0  0  0  0  0  0  0  0  # atno 17395 bound_to 11000

$$$$
