AV-unprocessed.smi:1149|AV-procd|sdf|4891|dock10
  -GOLD-   22720 3463D 1   1.00000     0.00000
 Structure written by MMmdl.
 51 52  0  0  0  0  0  0  0  0  2 V2000
  150.7519  141.9159  157.3073 C   0  0  0  0  0  0  0  0  0  0  0  0
  151.1189  141.3543  156.0519 O   0  0  0  0  0  0  0  0  0  0  0  0
  150.2451  140.4733  155.4483 C   0  0  0  0  0  0  0  0  0  0  0  0
  148.9175  140.4124  155.9163 C   0  0  0  0  0  0  0  0  0  0  0  0
  148.0196  139.5159  155.3060 C   0  0  0  0  0  0  0  0  0  0  0  0
  148.4781  138.7111  154.2354 C   0  0  0  0  0  0  0  0  0  0  0  0
  147.6810  137.7568  153.5467 N   0  0  0  0  0  0  0  0  0  0  0  0
  146.3510  137.5717  153.6064 C   0  0  0  0  0  0  0  0  0  0  0  0
  145.5662  138.2403  154.2781 O   0  0  0  0  0  0  0  0  0  0  0  0
  145.9669  136.5655  152.8074 N   0  0  0  0  0  0  0  0  0  0  0  0
  144.5917  136.1019  152.6237 C   0  0  0  0  0  0  0  0  0  0  0  0
  144.2057  134.9169  153.5602 C   0  0  0  0  0  0  0  0  0  0  0  0
  145.1000  134.9122  154.8259 C   0  0  0  0  0  0  0  0  0  0  0  0
  142.7530  135.1049  154.0647 C   0  0  0  0  0  0  0  0  0  0  0  0
  144.3292  133.5929  152.8487 N   0  3  0  0  0  0  0  0  0  0  0  0
  145.7082  133.0342  152.7471 C   0  0  0  0  0  0  0  0  0  0  0  0
  145.6752  131.5891  152.2069 C   0  0  0  0  0  0  0  0  0  0  0  0
  145.0189  131.4988  150.9035 N   0  0  0  0  0  0  0  0  0  0  0  0
  145.8096  132.0758  149.8214 C   0  0  0  0  0  0  0  0  0  0  0  0
  143.6692  132.0546  150.9944 C   0  0  0  0  0  0  0  0  0  0  0  0
  143.6683  133.5075  151.5147 C   0  0  0  0  0  0  0  0  0  0  0  0
  149.8291  138.8394  153.8515 C   0  0  0  0  0  0  0  0  0  0  0  0
  150.6947  139.6961  154.4324 N   0  0  0  0  0  0  0  0  0  0  0  0
  151.5438  142.5816  157.6500 H   0  0  0  0  0  0  0  0  0  0  0  0
  150.6176  141.1439  158.0664 H   0  0  0  0  0  0  0  0  0  0  0  0
  149.8365  142.5041  157.2285 H   0  0  0  0  0  0  0  0  0  0  0  0
  148.5939  141.0396  156.7339 H   0  0  0  0  0  0  0  0  0  0  0  0
  147.0097  139.4574  155.6803 H   0  0  0  0  0  0  0  0  0  0  0  0
  148.1803  137.1755  152.8896 H   0  0  0  0  0  0  0  0  0  0  0  0
  146.6819  136.0774  152.2879 H   0  0  0  0  0  0  0  0  0  0  0  0
  143.9556  136.9644  152.8197 H   0  0  0  0  0  0  0  0  0  0  0  0
  144.4267  135.8446  151.5770 H   0  0  0  0  0  0  0  0  0  0  0  0
  144.8793  135.7545  155.4823 H   0  0  0  0  0  0  0  0  0  0  0  0
  146.1601  134.9896  154.5848 H   0  0  0  0  0  0  0  0  0  0  0  0
  144.9530  134.0059  155.4145 H   0  0  0  0  0  0  0  0  0  0  0  0
  142.6708  135.9489  154.7507 H   0  0  0  0  0  0  0  0  0  0  0  0
  142.4005  134.2229  154.6009 H   0  0  0  0  0  0  0  0  0  0  0  0
  142.0537  135.3077  153.2541 H   0  0  0  0  0  0  0  0  0  0  0  0
  146.3352  133.6636  152.1165 H   0  0  0  0  0  0  0  0  0  0  0  0
  146.1901  132.9951  153.7217 H   0  0  0  0  0  0  0  0  0  0  0  0
  146.6864  131.1871  152.1346 H   0  0  0  0  0  0  0  0  0  0  0  0
  145.1400  130.9496  152.9104 H   0  0  0  0  0  0  0  0  0  0  0  0
  145.3029  131.9325  148.8667 H   0  0  0  0  0  0  0  0  0  0  0  0
  146.7789  131.5800  149.7580 H   0  0  0  0  0  0  0  0  0  0  0  0
  145.9860  133.1429  149.9515 H   0  0  0  0  0  0  0  0  0  0  0  0
  143.1862  132.0002  150.0179 H   0  0  0  0  0  0  0  0  0  0  0  0
  143.0795  131.4271  151.6640 H   0  0  0  0  0  0  0  0  0  0  0  0
  142.6297  133.8266  151.5709 H   0  0  0  0  0  0  0  0  0  0  0  0
  144.1571  134.1663  150.7975 H   0  0  0  0  0  0  0  0  0  0  0  0
  150.2298  138.2384  153.0483 H   0  0  0  0  0  0  0  0  0  0  0  0
  143.8262  132.9411  153.4338 H   0  0  0  0  0  0  0  0  0  0  0  0
  1  2  1  0  0  0  0
  1 24  1  0  0  0  0
  1 25  1  0  0  0  0
  1 26  1  0  0  0  0
  2  3  1  0  0  0  0
  3 23  1  0  0  0  0
  3  4  2  0  0  0  0
  4  5  1  0  0  0  0
  4 27  1  0  0  0  0
  5  6  2  0  0  0  0
  5 28  1  0  0  0  0
  6  7  1  0  0  0  0
  6 22  1  0  0  0  0
  7  8  1  0  0  0  0
  7 29  1  0  0  0  0
  8  9  2  0  0  0  0
  8 10  1  0  0  0  0
 10 11  1  0  0  0  0
 10 30  1  0  0  0  0
 11 12  1  0  0  0  0
 11 31  1  0  0  0  0
 11 32  1  0  0  0  0
 12 13  1  0  0  0  0
 12 14  1  0  0  0  0
 12 15  1  0  0  0  0
 13 33  1  0  0  0  0
 13 34  1  0  0  0  0
 13 35  1  0  0  0  0
 14 36  1  0  0  0  0
 14 37  1  0  0  0  0
 14 38  1  0  0  0  0
 15 21  1  0  0  0  0
 15 16  1  0  0  0  0
 15 51  1  0  0  0  0
 16 17  1  0  0  0  0
 16 39  1  0  0  0  0
 16 40  1  0  0  0  0
 17 18  1  0  0  0  0
 17 41  1  0  0  0  0
 17 42  1  0  0  0  0
 18 19  1  0  0  0  0
 18 20  1  0  0  0  0
 19 43  1  0  0  0  0
 19 44  1  0  0  0  0
 19 45  1  0  0  0  0
 20 21  1  0  0  0  0
 20 46  1  0  0  0  0
 20 47  1  0  0  0  0
 21 48  1  0  0  0  0
 21 49  1  0  0  0  0
 22 23  2  0  0  0  0
 22 50  1  0  0  0  0
M  CHG  1  15   1
M  END
> <s_m_source_file>
AV-unprocessed.smi

> <i_m_source_file_index>
1149

> <i_lp_mmshare_version>
43012

> <i_f3d_flags>
0

> <s_epik_input>
W0NIM11PYzFbY0hdW2NIXWMoW2NIXW4xKVtOSF1DKD1PKVtOSF1bQ0gyXUMoW0NIM10pKFtDSDNdKU4yW0NIMl1bQ0gyXU4oW0NIM10pW0NIMl1bQ0gyXTI=

> <s_epik_cmdline>
J2VwaWtfcHl0aG9uJywgJy1waCcsICc3LjAnLCAnLXRuJywgJzgnLCAnLW1hJywgJzIwMCcsICctbWV0YWxfYmluZGluZycsICctaW1hZScsICc8aW5maWxlLm1hZT4nLCAnLW9tYWUnLCAnPG91dGZpbGUubWFlPic=

> <r_epik_Ionization_Penalty>
0.0907124

> <r_epik_Ionization_Penalty_Charging>
0.0886444

> <r_epik_Ionization_Penalty_Neutral>
0.00206799

> <r_epik_State_Penalty>
1.00524

> <r_epik_Charging_Adjusted_Penalty>
1.09388

> <i_epik_Tot_Q>
1

> <i_epik_Tot_abs_Q>
1

> <r_epik_Metal_State_Penalty>
1.00525

> <b_epik_Metal_Only>
0

> <s_lp_Force_Field>
OPLS_2005

> <r_lp_Energy>
30.5246

> <b_lp_Chiralities_Consistent>
1

> <s_lp_Variant>
AV-unprocessed.smi:1149-2

> <Gold.Version>
5.8.1

> <Gold.Id.Protein>
6NUR|6NUR_protein|mol2

> <Gold.PLP.Fitness>
41.2569

> <Gold.PLP.PLP>
-30.0312

> <Gold.PLP.part.hbond>
-3.3914

> <Gold.PLP.part.metal>
0.0000

> <Gold.PLP.part.buried>
-5.9102

> <Gold.PLP.part.nonpolar>
-23.3557

> <Gold.PLP.part.repulsive>
0.4142

> <Gold.PLP.ligand.clash>
0.0358

> <Gold.PLP.ligand.torsion>
1.5277

> <Gold.PLP.Chemscore.Hbond>
3.8330

> <Gold.PLP.Chemscore.CHOScore>
0.9071

> <Gold.PLP.Chemscore.Metal>
0.0000

> <Gold.Chemscore.Hbonds>
donor molecule, donor type, donor heavy atom, donor atom, acceptor molecule, acceptor atom, score
      L1  H     7    29       P1  7948  1.00
      L1  H    10    30       P1  7948  0.26
      L1  H    15    51       P1 10957  1.53
      P1  H  7989  7998       L1    23  1.00
      L1  C    22    50       P1  7948  0.73
      L1  C    22    50       P1  7949  0.04
      L1  C    22    50       P1  7957  0.20

> <Gold.PLP.Chemscore.Internal.Correction>
0.0965

> <Gold.Rescore>
     Score         DG    S(hbond)    S(metal)    S(lipo)     H(rot)  DE(clash)    DE(int)     intcor
     16.25     -18.81       2.81        0.00      71.33       1.72       0.00       2.56       ----

> <Gold.Chemscore.Fitness>
16.2466

> <Gold.Chemscore.DG>
-18.8107

> <Gold.Chemscore.ZeroCoef>
-5.4800

> <Gold.Chemscore.Hbond>
2.8118

> <Gold.Chemscore.Metal>
0.0000

> <Gold.Chemscore.Lipo>
71.3325

> <Gold.Chemscore.Internal_Hbond>
0.0000

> <Gold.Chemscore.DEClash>
0.0021

> <Gold.Chemscore.DEInternal>
2.5620

> <Gold.Chemscore.Rot>
1.7213

> <Gold.Chemscore.Internal.Correction>
   9.000000E+99

> <Gold.Chemscore.Hbonds>
donor molecule, donor type, donor heavy atom, donor atom, acceptor molecule, acceptor atom, score
      L1  H     7    29       P1  7948  0.98
      L1  H    10    30       P1  7948  0.26
      L1  H    15    51       P1 10957  0.56
      P1  H  7989  7998       L1    23  0.34

> <Gold.Chemscore.Hbond.Weighted>
-9.3913

> <Gold.Chemscore.Metal.Weighted>
-0.0000

> <Gold.Chemscore.Lipo.Weighted>
-8.3459

> <Gold.Chemscore.Internal_Hbond.Weighted>
0.0000

> <Gold.Chemscore.DEClash.Weighted>
0.0021

> <Gold.Chemscore.DEInternal.Weighted>
2.5620

> <Gold.Chemscore.Rot.Weighted>
4.4066

> <Gold.Chemscore.Internal.Correction.Weighted>
   9.000000E+99

> <Gold.Protein.RotatedTorsions>
[ 6907 6896 6895 6894 ] final  120.05 input  -60.11 | X-H torsion
[ 7974 7965 7964 7962 ] final -134.79 input  175.53 | X-H torsion
[ 8008 7997 7996 7995 ] final  -32.89 input   59.86 | X-H torsion
[ 10167 10162 10161 10158 ] final   20.10 input  -65.29 | X-H torsion
[ 10718 10713 10712 10709 ] final -109.52 input   66.30 | X-H torsion
[ 10763 10752 10751 10750 ] final -156.31 input  -60.55 | X-H torsion
[ 11005 11000 10999 10996 ] final  112.67 input  -57.11 | X-H torsion

> <Gold.Protein.ActiveResidues>
 VAL166  LYS551  ARG553  GLY616  TRP617  ASP618  TYR619  PRO620  LYS621  CYS622 
 ASP623  PHE694  ASN695  SER759  ASP760  ASP761  ALA762  ILE779  LEU786  VAL792 
 PHE793  MET794  SER795  GLU796  ALA797  LYS798  CYS799  TRP800  GLU811  SER814 

> <Gold.Protein.RotatedAtoms>
  152.4427  133.7478  159.6676 H   0  0  0  0  0  0  0  0  0  0  0  0  # atno 6907 bound_to 6896
  150.8321  133.8064  159.3100 H   0  0  0  0  0  0  0  0  0  0  0  0  # atno 6908 bound_to 6896
  151.5715  135.1065  160.0048 H   0  0  0  0  0  0  0  0  0  0  0  0  # atno 6909 bound_to 6896
  144.9071  140.6847  143.5048 H   0  0  0  0  0  0  0  0  0  0  0  0  # atno 7974 bound_to 7965
  154.4166  140.1725  156.1800 H   0  0  0  0  0  0  0  0  0  0  0  0  # atno 8008 bound_to 7997
  155.9690  140.3387  155.6535 H   0  0  0  0  0  0  0  0  0  0  0  0  # atno 8009 bound_to 7997
  155.6650  140.0705  157.2531 H   0  0  0  0  0  0  0  0  0  0  0  0  # atno 8010 bound_to 7997
  140.5529  143.9477  150.6590 H   0  0  0  0  0  0  0  0  0  0  0  0  # atno 10167 bound_to 10162
  156.0541  130.5768  150.8111 H   0  0  0  0  0  0  0  0  0  0  0  0  # atno 10718 bound_to 10713
  154.7722  135.3149  154.8165 H   0  0  0  0  0  0  0  0  0  0  0  0  # atno 10763 bound_to 10752
  153.8898  135.6826  153.4765 H   0  0  0  0  0  0  0  0  0  0  0  0  # atno 10764 bound_to 10752
  153.1339  135.4768  154.9326 H   0  0  0  0  0  0  0  0  0  0  0  0  # atno 10765 bound_to 10752
  139.8933  134.9534  156.6622 H   0  0  0  0  0  0  0  0  0  0  0  0  # atno 11005 bound_to 11000
  145.3517  139.1704  143.4431 LP  0  0  0  0  0  0  0  0  0  0  0  0  # atno 17320 bound_to 7965
  146.3139  140.3570  142.8661 LP  0  0  0  0  0  0  0  0  0  0  0  0  # atno 17321 bound_to 7965
  140.2907  143.3326  152.1065 LP  0  0  0  0  0  0  0  0  0  0  0  0  # atno 17342 bound_to 10162
  139.5035  144.6757  151.6135 LP  0  0  0  0  0  0  0  0  0  0  0  0  # atno 17343 bound_to 10162
  157.5496  131.0943  150.9715 LP  0  0  0  0  0  0  0  0  0  0  0  0  # atno 17370 bound_to 10713
  156.9978  130.5588  149.5309 LP  0  0  0  0  0  0  0  0  0  0  0  0  # atno 17371 bound_to 10713
  140.7438  133.8955  155.8297 LP  0  0  0  0  0  0  0  0  0  0  0  0  # atno 17394 bound_to 11000
  141.0056  134.1091  157.4274 LP  0  0  0  0  0  0  0  0  0  0  0  0  # atno 17395 bound_to 11000

$$$$
