AV-unprocessed.smi:2069|AV-procd|sdf|8438|dock3
  -GOLD-   2272011133D 1   1.00000     0.00000
 Structure written by MMmdl.
 38 39  0  0  0  0  0  0  0  0  3 V2000
  147.0598  141.2351  153.5298 C   0  0  0  0  0  0  0  0  0  0  0  0
  148.3492  140.5590  153.8481 C   0  0  0  0  0  0  0  0  0  0  0  0
  149.4927  141.2268  154.0192 N   0  0  0  0  0  0  0  0  0  0  0  0
  150.5541  140.3807  154.3076 N   0  0  0  0  0  0  0  0  0  0  0  0
  150.1976  139.0896  154.3612 C   0  0  0  0  0  0  0  0  0  0  0  0
  151.0769  138.1085  154.6234 N   0  5  0  0  0  0  0  0  0  0  0  0
  150.6826  137.0147  155.3122 C   0  0  0  0  0  0  0  0  0  0  0  0
  150.9102  136.7763  156.5006 O   0  0  0  0  0  0  0  0  0  0  0  0
  149.9717  136.1445  154.5812 N   0  0  0  0  0  0  0  0  0  0  0  0
  149.3983  134.8937  155.0689 C   0  0  0  0  0  0  0  0  0  0  0  0
  149.2516  133.8184  153.9581 C   0  0  1  0  0  0  0  0  0  0  0  0
  149.4478  132.4046  154.5589 C   0  0  0  0  0  0  0  0  0  0  0  0
  147.9469  133.9804  153.2365 N   0  3  0  0  0  0  0  0  0  0  0  0
  147.7260  132.9255  152.2084 C   0  0  0  0  0  0  0  0  0  0  0  0
  146.4152  133.1604  151.4410 C   0  0  0  0  0  0  0  0  0  0  0  0
  145.3297  133.1903  152.3550 O   0  0  0  0  0  0  0  0  0  0  0  0
  145.4624  134.2577  153.2812 C   0  0  0  0  0  0  0  0  0  0  0  0
  146.7450  134.0774  154.1113 C   0  0  0  0  0  0  0  0  0  0  0  0
  148.4864  138.8186  154.0321 S   0  0  0  0  0  0  0  0  0  0  0  0
  146.6280  141.6591  154.4364 H   0  0  0  0  0  0  0  0  0  0  0  0
  146.3528  140.5221  153.1054 H   0  0  0  0  0  0  0  0  0  0  0  0
  147.2212  142.0364  152.8083 H   0  0  0  0  0  0  0  0  0  0  0  0
  149.8122  136.3756  153.6113 H   0  0  0  0  0  0  0  0  0  0  0  0
  150.0452  134.5179  155.8621 H   0  0  0  0  0  0  0  0  0  0  0  0
  148.4477  135.1312  155.5438 H   0  0  0  0  0  0  0  0  0  0  0  0
  150.0461  133.9593  153.2237 H   0  0  0  0  0  0  0  0  0  0  0  0
  150.3863  132.3243  155.1075 H   0  0  0  0  0  0  0  0  0  0  0  0
  149.4958  131.6347  153.7891 H   0  0  0  0  0  0  0  0  0  0  0  0
  148.6438  132.1501  155.2502 H   0  0  0  0  0  0  0  0  0  0  0  0
  148.5395  132.8979  151.4865 H   0  0  0  0  0  0  0  0  0  0  0  0
  147.6997  131.9467  152.6901 H   0  0  0  0  0  0  0  0  0  0  0  0
  146.4568  134.0891  150.8695 H   0  0  0  0  0  0  0  0  0  0  0  0
  146.2505  132.3539  150.7260 H   0  0  0  0  0  0  0  0  0  0  0  0
  145.4704  135.2137  152.7549 H   0  0  0  0  0  0  0  0  0  0  0  0
  144.5910  134.2644  153.9360 H   0  0  0  0  0  0  0  0  0  0  0  0
  146.6691  133.1811  154.7290 H   0  0  0  0  0  0  0  0  0  0  0  0
  146.8191  134.9330  154.7816 H   0  0  0  0  0  0  0  0  0  0  0  0
  148.0037  134.8618  152.7467 H   0  0  0  0  0  0  0  0  0  0  0  0
  1  2  1  0  0  0  0
  1 20  1  0  0  0  0
  1 21  1  0  0  0  0
  1 22  1  0  0  0  0
  2 19  1  0  0  0  0
  2  3  2  0  0  0  0
  3  4  1  0  0  0  0
  4  5  2  0  0  0  0
  5  6  1  0  0  0  0
  5 19  1  0  0  0  0
  6  7  1  0  0  0  0
  7  8  2  0  0  0  0
  7  9  1  0  0  0  0
  9 10  1  0  0  0  0
  9 23  1  0  0  0  0
 10 11  1  0  0  0  0
 10 24  1  0  0  0  0
 10 25  1  0  0  0  0
 11 12  1  0  0  0  0
 11 13  1  0  0  0  0
 11 26  1  0  0  0  0
 12 27  1  0  0  0  0
 12 28  1  0  0  0  0
 12 29  1  0  0  0  0
 13 18  1  0  0  0  0
 13 14  1  0  0  0  0
 13 38  1  0  0  0  0
 14 15  1  0  0  0  0
 14 30  1  0  0  0  0
 14 31  1  0  0  0  0
 15 16  1  0  0  0  0
 15 32  1  0  0  0  0
 15 33  1  0  0  0  0
 16 17  1  0  0  0  0
 17 18  1  0  0  0  0
 17 34  1  0  0  0  0
 17 35  1  0  0  0  0
 18 36  1  0  0  0  0
 18 37  1  0  0  0  0
M  CHG  1   6  -1
M  CHG  1  13   1
M  END
> <s_m_source_file>
AV-unprocessed.smi

> <i_m_source_file_index>
2069

> <i_lp_mmshare_version>
43012

> <i_f3d_flags>
0

> <s_epik_input>
W0NIM11jMW5uYyhzMSlbTkhdQyg9TylbTkhdW0NIMl1bQ0BIXShbQ0gzXSlOMltDSDJdW0NIMl1PW0NIMl1bQ0gyXTI=

> <s_epik_cmdline>
J2VwaWtfcHl0aG9uJywgJy1waCcsICc3LjAnLCAnLXRuJywgJzgnLCAnLW1hJywgJzIwMCcsICctbWV0YWxfYmluZGluZycsICctaW1hZScsICc8aW5maWxlLm1hZT4nLCAnLW9tYWUnLCAnPG91dGZpbGUubWFlPic=

> <r_lp_tautomer_probability>
1

> <r_epik_Ionization_Penalty>
3.53072

> <r_epik_Ionization_Penalty_Charging>
3.4216

> <r_epik_Ionization_Penalty_Neutral>
0.109115

> <r_epik_State_Penalty>
3.61496

> <r_epik_Charging_Adjusted_Penalty>
7.03656

> <i_epik_Tot_Q>
0

> <i_epik_Tot_abs_Q>
2

> <r_epik_Metal_State_Penalty>
1.13918

> <b_epik_Metal_Only>
1

> <s_lp_Force_Field>
OPLS_2005

> <r_lp_Energy>
13.0561

> <b_lp_Chiralities_Consistent>
1

> <s_lp_Variant>
AV-unprocessed.smi:2069-8

> <Gold.Version>
5.8.1

> <Gold.Id.Protein>
6NUR|6NUR_protein|mol2

> <Gold.PLP.Fitness>
39.7145

> <Gold.PLP.PLP>
-29.4501

> <Gold.PLP.part.hbond>
-4.6757

> <Gold.PLP.part.metal>
0.0000

> <Gold.PLP.part.buried>
-1.6672

> <Gold.PLP.part.nonpolar>
-22.7462

> <Gold.PLP.part.repulsive>
0.5781

> <Gold.PLP.ligand.clash>
0.0000

> <Gold.PLP.ligand.torsion>
1.5819

> <Gold.PLP.Chemscore.Hbond>
4.4355

> <Gold.PLP.Chemscore.CHOScore>
0.0000

> <Gold.PLP.Chemscore.Metal>
0.0000

> <Gold.Chemscore.Hbonds>
donor molecule, donor type, donor heavy atom, donor atom, acceptor molecule, acceptor atom, score
      L1  H     9    23       P1  7948  1.00
      L1  H    13    38       P1  7948  2.00
      P1  H  7989  7998       L1     4  0.75
      P1  H  8011  8017       L1     3  0.69

> <Gold.PLP.Chemscore.Internal.Correction>
0.1218

> <Gold.Rescore>
     Score         DG    S(hbond)    S(metal)    S(lipo)     H(rot)  DE(clash)    DE(int)     intcor
     14.15     -15.71       2.67        0.00      46.69       1.62       0.01       1.55       ----

> <Gold.Chemscore.Fitness>
14.1528

> <Gold.Chemscore.DG>
-15.7123

> <Gold.Chemscore.ZeroCoef>
-5.4800

> <Gold.Chemscore.Hbond>
2.6691

> <Gold.Chemscore.Metal>
0.0000

> <Gold.Chemscore.Lipo>
46.6913

> <Gold.Chemscore.Internal_Hbond>
0.0000

> <Gold.Chemscore.DEClash>
0.0060

> <Gold.Chemscore.DEInternal>
1.5535

> <Gold.Chemscore.Rot>
1.6192

> <Gold.Chemscore.Internal.Correction>
   9.000000E+99

> <Gold.Chemscore.Hbonds>
donor molecule, donor type, donor heavy atom, donor atom, acceptor molecule, acceptor atom, score
      L1  H     9    23       P1  7948  0.25
      L1  H    13    38       P1  7948  0.82
      P1  H  7989  7998       L1     4  0.33
      P1  H  8011  8017       L1     3  0.38

> <Gold.Chemscore.Hbond.Weighted>
-8.9146

> <Gold.Chemscore.Metal.Weighted>
-0.0000

> <Gold.Chemscore.Lipo.Weighted>
-5.4629

> <Gold.Chemscore.Internal_Hbond.Weighted>
0.0000

> <Gold.Chemscore.DEClash.Weighted>
0.0060

> <Gold.Chemscore.DEInternal.Weighted>
1.5535

> <Gold.Chemscore.Rot.Weighted>
4.1452

> <Gold.Chemscore.Internal.Correction.Weighted>
   9.000000E+99

> <Gold.Protein.RotatedTorsions>
[ 6907 6896 6895 6894 ] final -143.89 input  -60.11 | X-H torsion
[ 7974 7965 7964 7962 ] final   -3.95 input  175.53 | X-H torsion
[ 8008 7997 7996 7995 ] final  -89.27 input   59.86 | X-H torsion
[ 10167 10162 10161 10158 ] final   12.36 input  -65.29 | X-H torsion
[ 10718 10713 10712 10709 ] final   95.13 input   66.30 | X-H torsion
[ 10763 10752 10751 10750 ] final  -65.02 input  -60.55 | X-H torsion
[ 11005 11000 10999 10996 ] final  162.81 input  -57.11 | X-H torsion

> <Gold.Protein.ActiveResidues>
 VAL166  LYS551  ARG553  GLY616  TRP617  ASP618  TYR619  PRO620  LYS621  CYS622 
 ASP623  PHE694  ASN695  SER759  ASP760  ASP761  ALA762  ILE779  LEU786  VAL792 
 PHE793  MET794  SER795  GLU796  ALA797  LYS798  CYS799  TRP800  GLU811  SER814 

> <Gold.Protein.RotatedAtoms>
  151.1067  133.5203  159.2607 H   0  0  0  0  0  0  0  0  0  0  0  0  # atno 6907 bound_to 6896
  151.2013  135.0443  159.8883 H   0  0  0  0  0  0  0  0  0  0  0  0  # atno 6908 bound_to 6896
  152.5447  134.0894  159.8324 H   0  0  0  0  0  0  0  0  0  0  0  0  # atno 6909 bound_to 6896
  146.2381  140.1799  142.8332 H   0  0  0  0  0  0  0  0  0  0  0  0  # atno 7974 bound_to 7965
  154.6846  140.0544  157.0301 H   0  0  0  0  0  0  0  0  0  0  0  0  # atno 8008 bound_to 7997
  155.0902  140.3218  155.4557 H   0  0  0  0  0  0  0  0  0  0  0  0  # atno 8009 bound_to 7997
  156.2707  140.2049  156.6029 H   0  0  0  0  0  0  0  0  0  0  0  0  # atno 8010 bound_to 7997
  140.6073  143.8481  150.7027 H   0  0  0  0  0  0  0  0  0  0  0  0  # atno 10167 bound_to 10162
  157.6942  131.0535  150.4292 H   0  0  0  0  0  0  0  0  0  0  0  0  # atno 10718 bound_to 10713
  154.3388  135.6161  153.5586 H   0  0  0  0  0  0  0  0  0  0  0  0  # atno 10763 bound_to 10752
  152.9806  135.5764  154.4877 H   0  0  0  0  0  0  0  0  0  0  0  0  # atno 10764 bound_to 10752
  154.4577  135.2855  155.1712 H   0  0  0  0  0  0  0  0  0  0  0  0  # atno 10765 bound_to 10752
  140.2295  134.8135  157.3302 H   0  0  0  0  0  0  0  0  0  0  0  0  # atno 11005 bound_to 11000
  144.9943  140.8575  143.5320 LP  0  0  0  0  0  0  0  0  0  0  0  0  # atno 17320 bound_to 7965
  145.1809  139.2352  143.5293 LP  0  0  0  0  0  0  0  0  0  0  0  0  # atno 17321 bound_to 7965
  140.2041  143.3935  152.1769 LP  0  0  0  0  0  0  0  0  0  0  0  0  # atno 17342 bound_to 10162
  139.5334  144.7184  151.4975 LP  0  0  0  0  0  0  0  0  0  0  0  0  # atno 17343 bound_to 10162
  156.4660  130.4042  149.6547 LP  0  0  0  0  0  0  0  0  0  0  0  0  # atno 17370 bound_to 10713
  156.3645  130.7498  151.2474 LP  0  0  0  0  0  0  0  0  0  0  0  0  # atno 17371 bound_to 10713
  140.1765  134.4543  155.7798 LP  0  0  0  0  0  0  0  0  0  0  0  0  # atno 17394 bound_to 11000
  141.2218  133.6965  156.7796 LP  0  0  0  0  0  0  0  0  0  0  0  0  # atno 17395 bound_to 11000

$$$$
