AV-unprocessed.smi:54|AV-procd|sdf|539|dock9
  -GOLD-   2262016423D 1   1.00000     0.00000
 Structure written by MMmdl.
 44 46  0  0  0  0  0  0  0  0  1 V2000
  152.1355  144.8153  159.2128 C   0  0  0  0  0  0  0  0  0  0  0  0
  151.8323  143.3665  159.6283 C   0  0  0  0  0  0  0  0  0  0  0  0
  152.9915  142.7641  160.4385 C   0  0  0  0  0  0  0  0  0  0  0  0
  151.5292  142.5031  158.3984 C   0  0  0  0  0  0  0  0  0  0  0  0
  151.0002  142.9692  157.3886 O   0  0  0  0  0  0  0  0  0  0  0  0
  151.9134  141.1069  158.5089 N   0  0  0  0  0  0  0  0  0  0  0  0
  151.7635  140.1350  157.5791 C   0  0  0  0  0  0  0  0  0  0  0  0
  150.6606  139.9805  156.8606 N   0  0  0  0  0  0  0  0  0  0  0  0
  150.7011  138.9414  155.9735 C   0  0  0  0  0  0  0  0  0  0  0  0
  151.7499  138.0690  155.7741 C   0  0  0  0  0  0  0  0  0  0  0  0
  151.4219  137.1434  154.7897 N   0  0  0  0  0  0  0  0  0  0  0  0
  150.2144  137.4788  154.4289 C   0  0  0  0  0  0  0  0  0  0  0  0
  149.7071  138.5710  155.0946 N   0  0  0  0  0  0  0  0  0  0  0  0
  148.3764  139.2479  154.9550 C   0  0  2  0  0  0  0  0  0  0  0  0
  147.5362  138.4165  154.2114 O   0  0  0  0  0  0  0  0  0  0  0  0
  147.4366  138.9058  152.8808 C   0  0  1  0  0  0  0  0  0  0  0  0
  146.2092  138.3175  152.1645 C   0  0  0  0  0  0  0  0  0  0  0  0
  146.5499  137.9315  150.8502 O   0  0  0  0  0  0  0  0  0  0  0  0
  147.4742  140.4281  153.0674 C   0  0  1  0  0  0  0  0  0  0  0  0
  146.2051  140.9299  153.4430 O   0  0  0  0  0  0  0  0  0  0  0  0
  148.4739  140.6013  154.2048 C   0  0  2  0  0  0  0  0  0  0  0  0
  149.7594  140.8800  153.6746 O   0  0  0  0  0  0  0  0  0  0  0  0
  152.9481  138.2187  156.5480 C   0  0  0  0  0  0  0  0  0  0  0  0
  153.9718  137.5399  156.5062 O   0  0  0  0  0  0  0  0  0  0  0  0
  152.8688  139.2949  157.4418 N   0  0  0  0  0  0  0  0  0  0  0  0
  148.0056  139.3391  155.9768 H   0  0  0  0  0  0  0  0  0  0  0  0
  148.3384  138.5979  152.3484 H   0  0  0  0  0  0  0  0  0  0  0  0
  147.7809  140.9417  152.1550 H   0  0  0  0  0  0  0  0  0  0  0  0
  148.1971  141.4147  154.8771 H   0  0  0  0  0  0  0  0  0  0  0  0
  151.3170  145.2414  158.6310 H   0  0  0  0  0  0  0  0  0  0  0  0
  153.0420  144.8792  158.6093 H   0  0  0  0  0  0  0  0  0  0  0  0
  152.2776  145.4489  160.0885 H   0  0  0  0  0  0  0  0  0  0  0  0
  150.9458  143.3772  160.2642 H   0  0  0  0  0  0  0  0  0  0  0  0
  152.7766  141.7365  160.7346 H   0  0  0  0  0  0  0  0  0  0  0  0
  153.1687  143.3363  161.3496 H   0  0  0  0  0  0  0  0  0  0  0  0
  153.9205  142.7588  159.8669 H   0  0  0  0  0  0  0  0  0  0  0  0
  152.3549  140.8392  159.3760 H   0  0  0  0  0  0  0  0  0  0  0  0
  149.6705  136.9372  153.6691 H   0  0  0  0  0  0  0  0  0  0  0  0
  145.8565  137.4360  152.7002 H   0  0  0  0  0  0  0  0  0  0  0  0
  145.3795  139.0242  152.1380 H   0  0  0  0  0  0  0  0  0  0  0  0
  145.8457  138.1822  150.2717 H   0  0  0  0  0  0  0  0  0  0  0  0
  145.5455  140.4818  152.9354 H   0  0  0  0  0  0  0  0  0  0  0  0
  150.0046  140.1729  153.0976 H   0  0  0  0  0  0  0  0  0  0  0  0
  153.6798  139.4615  158.0190 H   0  0  0  0  0  0  0  0  0  0  0  0
  1  2  1  0  0  0  0
  1 30  1  0  0  0  0
  1 31  1  0  0  0  0
  1 32  1  0  0  0  0
  2  3  1  0  0  0  0
  2  4  1  0  0  0  0
  2 33  1  0  0  0  0
  3 34  1  0  0  0  0
  3 35  1  0  0  0  0
  3 36  1  0  0  0  0
  4  5  2  0  0  0  0
  4  6  1  0  0  0  0
  6 37  1  0  0  0  0
  6  7  1  0  0  0  0
  7 25  1  0  0  0  0
  7  8  2  0  0  0  0
  8  9  1  0  0  0  0
  9 13  1  0  0  0  0
  9 10  2  0  0  0  0
 10 11  1  0  0  0  0
 10 23  1  0  0  0  0
 11 12  2  0  0  0  0
 12 13  1  0  0  0  0
 12 38  1  0  0  0  0
 13 14  1  0  0  0  0
 14 26  1  0  0  0  0
 14 21  1  0  0  0  0
 14 15  1  0  0  0  0
 15 16  1  0  0  0  0
 16 27  1  0  0  0  0
 16 17  1  0  0  0  0
 16 19  1  0  0  0  0
 17 18  1  0  0  0  0
 17 39  1  0  0  0  0
 17 40  1  0  0  0  0
 18 41  1  0  0  0  0
 19 28  1  0  0  0  0
 19 20  1  0  0  0  0
 19 21  1  0  0  0  0
 20 42  1  0  0  0  0
 21 29  1  0  0  0  0
 21 22  1  0  0  0  0
 22 43  1  0  0  0  0
 23 24  2  0  0  0  0
 23 25  1  0  0  0  0
 25 44  1  0  0  0  0
M  END
> <s_m_source_file>
AV-unprocessed.smi

> <i_m_source_file_index>
54

> <i_lp_mmshare_version>
43012

> <i_f3d_flags>
0

> <s_epik_input>
W0NIM11bQ0hdKFtDSDNdKUMoPU8pW05IXWMobjEpW25IXWMoPU8pYyhjMTIpbltjSF1uMltDQEBIXTNPW0NASF0oW0NIMl1bT0hdKVtDQEBIXShbT0hdKVtDQEhdM1tPSF0=

> <s_epik_cmdline>
J2VwaWtfcHl0aG9uJywgJy1waCcsICc3LjAnLCAnLXRuJywgJzgnLCAnLW1hJywgJzIwMCcsICctbWV0YWxfYmluZGluZycsICctaW1hZScsICc8aW5maWxlLm1hZT4nLCAnLW9tYWUnLCAnPG91dGZpbGUubWFlPic=

> <r_lp_tautomer_probability>
0.85571

> <r_epik_Ionization_Penalty>
0.0316551

> <r_epik_Ionization_Penalty_Charging>
0.0316043

> <r_epik_Ionization_Penalty_Neutral>
5.07097e-05

> <r_epik_State_Penalty>
3.15494e-07

> <r_epik_Charging_Adjusted_Penalty>
0.0316047

> <i_epik_Tot_Q>
0

> <i_epik_Tot_abs_Q>
0

> <r_epik_Metal_State_Penalty>
0.421206

> <b_epik_Metal_Only>
0

> <s_epik_Chemistry_Notes>
This compound contains an acetal/aminal-like group ( X-CH(R)-Y where X, Y are N, S, or O) that may be acid/base labile, releasing an aldehyde.

> <s_lp_Force_Field>
OPLS_2005

> <r_lp_Energy>
38.2372

> <b_lp_Chiralities_Consistent>
1

> <s_lp_Variant>
AV-unprocessed.smi:54-11

> <Gold.Version>
5.8.1

> <Gold.Id.Protein>
6NUR|6NUR_protein|mol2

> <Gold.PLP.Fitness>
53.3894

> <Gold.PLP.PLP>
-39.0679

> <Gold.PLP.part.hbond>
-8.8083

> <Gold.PLP.part.metal>
0.0000

> <Gold.PLP.part.buried>
-1.1158

> <Gold.PLP.part.nonpolar>
-33.1551

> <Gold.PLP.part.repulsive>
2.6908

> <Gold.PLP.ligand.clash>
0.0000

> <Gold.PLP.ligand.torsion>
2.0424

> <Gold.PLP.Chemscore.Hbond>
5.1305

> <Gold.PLP.Chemscore.CHOScore>
0.9935

> <Gold.PLP.Chemscore.Metal>
0.0000

> <Gold.Chemscore.Hbonds>
donor molecule, donor type, donor heavy atom, donor atom, acceptor molecule, acceptor atom, score
      L1  H    18    41       P1 10171  0.96
      L1  H    20    42       P1 10175  0.86
      L1  H    22    43       P1  7957  0.53
      P1  H  7954  7966       L1    18  1.00
      P1  H  8011  8017       L1    22  0.94
      P1  H 10752 10763       L1    11  0.65
      L1  C    12    38       P1  7948  1.00

> <Gold.PLP.Chemscore.Internal.Correction>
0.0344

> <Gold.Rescore>
     Score         DG    S(hbond)    S(metal)    S(lipo)     H(rot)  DE(clash)    DE(int)     intcor
     12.38     -15.81       3.71        0.00      70.83       4.05       1.12       2.30       ----

> <Gold.Chemscore.Fitness>
12.3806

> <Gold.Chemscore.DG>
-15.8067

> <Gold.Chemscore.ZeroCoef>
-5.4800

> <Gold.Chemscore.Hbond>
3.7142

> <Gold.Chemscore.Metal>
0.0000

> <Gold.Chemscore.Lipo>
70.8317

> <Gold.Chemscore.Internal_Hbond>
0.0000

> <Gold.Chemscore.DEClash>
1.1221

> <Gold.Chemscore.DEInternal>
2.3040

> <Gold.Chemscore.Rot>
4.0493

> <Gold.Chemscore.Internal.Correction>
   9.000000E+99

> <Gold.Chemscore.Hbonds>
donor molecule, donor type, donor heavy atom, donor atom, acceptor molecule, acceptor atom, score
      L1  H    18    41       P1 10171  0.88
      L1  H    20    42       P1 10175  0.74
      L1  H    22    43       P1  7957  0.53
      P1  H  7954  7966       L1    18  0.69
      P1  H  8011  8017       L1    22  0.17
      P1  H 10752 10763       L1    11  0.59

> <Gold.Chemscore.Hbond.Weighted>
-12.4056

> <Gold.Chemscore.Metal.Weighted>
-0.0000

> <Gold.Chemscore.Lipo.Weighted>
-8.2873

> <Gold.Chemscore.Internal_Hbond.Weighted>
0.0000

> <Gold.Chemscore.DEClash.Weighted>
1.1221

> <Gold.Chemscore.DEInternal.Weighted>
2.3040

> <Gold.Chemscore.Rot.Weighted>
10.3662

> <Gold.Chemscore.Internal.Correction.Weighted>
   9.000000E+99

> <Gold.Protein.RotatedTorsions>
[ 6907 6896 6895 6894 ] final  163.27 input  -60.11 | X-H torsion
[ 7974 7965 7964 7962 ] final  -26.05 input  175.53 | X-H torsion
[ 8008 7997 7996 7995 ] final  -34.19 input   59.86 | X-H torsion
[ 10167 10162 10161 10158 ] final   61.19 input  -65.29 | X-H torsion
[ 10718 10713 10712 10709 ] final  173.83 input   66.30 | X-H torsion
[ 10763 10752 10751 10750 ] final   45.00 input  -60.55 | X-H torsion
[ 11005 11000 10999 10996 ] final  137.35 input  -57.11 | X-H torsion

> <Gold.Protein.ActiveResidues>
 VAL166  LYS551  ARG553  GLY616  TRP617  ASP618  TYR619  PRO620  LYS621  CYS622 
 ASP623  PHE694  ASN695  SER759  ASP760  ASP761  ALA762  ILE779  LEU786  VAL792 
 PHE793  MET794  SER795  GLU796  ALA797  LYS798  CYS799  TRP800  GLU811  SER814 

> <Gold.Protein.RotatedAtoms>
  151.9278  133.3603  159.3919 H   0  0  0  0  0  0  0  0  0  0  0  0  # atno 6907 bound_to 6896
  150.7023  134.4569  159.5372 H   0  0  0  0  0  0  0  0  0  0  0  0  # atno 6908 bound_to 6896
  152.2204  134.8418  160.0537 H   0  0  0  0  0  0  0  0  0  0  0  0  # atno 6909 bound_to 6896
  146.1451  140.4968  142.8635 H   0  0  0  0  0  0  0  0  0  0  0  0  # atno 7974 bound_to 7965
  154.4128  140.1690  156.2009 H   0  0  0  0  0  0  0  0  0  0  0  0  # atno 8008 bound_to 7997
  155.9525  140.3400  155.6396 H   0  0  0  0  0  0  0  0  0  0  0  0  # atno 8009 bound_to 7997
  155.6852  140.0727  157.2460 H   0  0  0  0  0  0  0  0  0  0  0  0  # atno 8010 bound_to 7997
  140.1574  144.4403  150.6727 H   0  0  0  0  0  0  0  0  0  0  0  0  # atno 10167 bound_to 10162
  156.9586  131.0053  151.2933 H   0  0  0  0  0  0  0  0  0  0  0  0  # atno 10718 bound_to 10713
  152.9831  135.6053  154.3365 H   0  0  0  0  0  0  0  0  0  0  0  0  # atno 10763 bound_to 10752
  154.3065  135.2772  155.2588 H   0  0  0  0  0  0  0  0  0  0  0  0  # atno 10764 bound_to 10752
  154.4817  135.5915  153.6450 H   0  0  0  0  0  0  0  0  0  0  0  0  # atno 10765 bound_to 10752
  140.0108  134.9440  157.0273 H   0  0  0  0  0  0  0  0  0  0  0  0  # atno 11005 bound_to 11000
  144.7837  140.5893  143.6588 LP  0  0  0  0  0  0  0  0  0  0  0  0  # atno 17320 bound_to 7965
  145.4956  139.1486  143.3685 LP  0  0  0  0  0  0  0  0  0  0  0  0  # atno 17321 bound_to 7965
  140.6664  143.2269  151.5732 LP  0  0  0  0  0  0  0  0  0  0  0  0  # atno 17342 bound_to 10162
  139.5397  144.2682  152.1325 LP  0  0  0  0  0  0  0  0  0  0  0  0  # atno 17343 bound_to 10162
  157.5673  130.8286  149.8345 LP  0  0  0  0  0  0  0  0  0  0  0  0  # atno 17370 bound_to 10713
  156.0332  130.3758  150.1631 LP  0  0  0  0  0  0  0  0  0  0  0  0  # atno 17371 bound_to 10713
  140.4558  134.1535  155.7186 LP  0  0  0  0  0  0  0  0  0  0  0  0  # atno 17394 bound_to 11000
  141.1709  133.8610  157.1573 LP  0  0  0  0  0  0  0  0  0  0  0  0  # atno 17395 bound_to 11000

$$$$
