AV-unprocessed.smi:2511|AV-procd|sdf|9887|dock8
  -GOLD-   2272013523D 1   1.00000     0.00000
 Structure written by MMmdl.
 40 41  0  0  0  0  0  0  0  0  1 V2000
  146.4292  139.1453  150.5482 N   0  0  0  0  0  0  0  0  0  0  0  0
  146.7102  138.6469  151.7570 C   0  0  0  0  0  0  0  0  0  0  0  0
  146.4431  137.4862  152.0645 O   0  0  0  0  0  0  0  0  0  0  0  0
  147.4160  139.5708  152.7132 C   0  0  0  0  0  0  0  0  0  0  0  0
  148.4856  139.0867  153.5005 C   0  0  0  0  0  0  0  0  0  0  0  0
  149.1291  139.9617  154.3965 C   0  0  0  0  0  0  0  0  0  0  0  0
  148.6860  141.3025  154.4800 C   0  0  0  0  0  0  0  0  0  0  0  0
  149.2375  142.2794  155.3518 N   0  0  0  0  0  0  0  0  0  0  0  0
  150.3203  142.1885  156.1492 C   0  0  0  0  0  0  0  0  0  0  0  0
  151.0260  141.1887  156.2622 O   0  0  0  0  0  0  0  0  0  0  0  0
  150.6030  143.3166  156.8263 N   0  0  0  0  0  0  0  0  0  0  0  0
  151.6958  143.5653  157.7696 C   0  0  1  0  0  0  0  0  0  0  0  0
  151.3010  144.7142  158.7149 C   0  0  0  0  0  0  0  0  0  0  0  0
  152.3912  144.9740  159.7650 C   0  0  0  0  0  0  0  0  0  0  0  0
  152.7175  143.6989  160.5579 C   0  0  0  0  0  0  0  0  0  0  0  0
  153.1277  142.5393  159.6262 C   0  0  1  0  0  0  0  0  0  0  0  0
  153.4754  141.2590  160.4136 C   0  0  0  0  0  0  0  0  0  0  0  0
  154.6572  141.3801  161.0191 F   0  0  0  0  0  0  0  0  0  0  0  0
  152.5414  141.0217  161.3347 F   0  0  0  0  0  0  0  0  0  0  0  0
  153.5191  140.2134  159.5878 F   0  0  0  0  0  0  0  0  0  0  0  0
  152.0259  142.2894  158.5742 C   0  0  0  0  0  0  0  0  0  0  0  0
  147.5988  141.6840  153.6683 C   0  0  0  0  0  0  0  0  0  0  0  0
  146.9796  140.8506  152.8063 N   0  0  0  0  0  0  0  0  0  0  0  0
  145.9545  138.5738  149.8650 H   0  0  0  0  0  0  0  0  0  0  0  0
  146.6936  140.0951  150.3292 H   0  0  0  0  0  0  0  0  0  0  0  0
  148.8142  138.0602  153.4254 H   0  0  0  0  0  0  0  0  0  0  0  0
  149.9344  139.5824  155.0055 H   0  0  0  0  0  0  0  0  0  0  0  0
  148.7967  143.1868  155.3149 H   0  0  0  0  0  0  0  0  0  0  0  0
  149.9850  144.0986  156.6627 H   0  0  0  0  0  0  0  0  0  0  0  0
  152.5845  143.8822  157.2205 H   0  0  0  0  0  0  0  0  0  0  0  0
  151.1199  145.6247  158.1421 H   0  0  0  0  0  0  0  0  0  0  0  0
  150.3638  144.4747  159.2197 H   0  0  0  0  0  0  0  0  0  0  0  0
  153.2933  145.3401  159.2733 H   0  0  0  0  0  0  0  0  0  0  0  0
  152.0692  145.7620  160.4465 H   0  0  0  0  0  0  0  0  0  0  0  0
  153.5169  143.9108  161.2684 H   0  0  0  0  0  0  0  0  0  0  0  0
  151.8490  143.4086  161.1502 H   0  0  0  0  0  0  0  0  0  0  0  0
  154.0291  142.8466  159.0930 H   0  0  0  0  0  0  0  0  0  0  0  0
  151.1240  141.9257  159.0688 H   0  0  0  0  0  0  0  0  0  0  0  0
  152.3422  141.4960  157.8969 H   0  0  0  0  0  0  0  0  0  0  0  0
  147.2144  142.6930  153.7069 H   0  0  0  0  0  0  0  0  0  0  0  0
  1  2  1  0  0  0  0
  1 24  1  0  0  0  0
  1 25  1  0  0  0  0
  2  3  2  0  0  0  0
  2  4  1  0  0  0  0
  4 23  1  0  0  0  0
  4  5  2  0  0  0  0
  5  6  1  0  0  0  0
  5 26  1  0  0  0  0
  6  7  2  0  0  0  0
  6 27  1  0  0  0  0
  7  8  1  0  0  0  0
  7 22  1  0  0  0  0
  8  9  1  0  0  0  0
  8 28  1  0  0  0  0
  9 10  2  0  0  0  0
  9 11  1  0  0  0  0
 11 12  1  0  0  0  0
 11 29  1  0  0  0  0
 12 21  1  0  0  0  0
 12 13  1  0  0  0  0
 12 30  1  0  0  0  0
 13 14  1  0  0  0  0
 13 31  1  0  0  0  0
 13 32  1  0  0  0  0
 14 15  1  0  0  0  0
 14 33  1  0  0  0  0
 14 34  1  0  0  0  0
 15 16  1  0  0  0  0
 15 35  1  0  0  0  0
 15 36  1  0  0  0  0
 16 17  1  0  0  0  0
 16 21  1  0  0  0  0
 16 37  1  0  0  0  0
 17 18  1  0  0  0  0
 17 19  1  0  0  0  0
 17 20  1  0  0  0  0
 21 38  1  0  0  0  0
 21 39  1  0  0  0  0
 22 23  2  0  0  0  0
 22 40  1  0  0  0  0
M  END
> <s_m_source_file>
AV-unprocessed.smi

> <i_m_source_file_index>
2511

> <i_lp_mmshare_version>
43012

> <i_f3d_flags>
0

> <s_epik_input>
W05IMl1DKD1PKWMxW2NIXVtjSF1jKFtjSF1uMSlbTkhdQyg9TylbTkhdW0NAQEhdMltDSDJdW0NIMl1bQ0gyXVtDQEBIXShDKEYpKEYpRilbQ0gyXTI=

> <s_epik_cmdline>
J2VwaWtfcHl0aG9uJywgJy1waCcsICc3LjAnLCAnLXRuJywgJzgnLCAnLW1hJywgJzIwMCcsICctbWV0YWxfYmluZGluZycsICctaW1hZScsICc8aW5maWxlLm1hZT4nLCAnLW9tYWUnLCAnPG91dGZpbGUubWFlPic=

> <r_lp_tautomer_probability>
1

> <r_epik_Ionization_Penalty>
4.28758e-05

> <r_epik_Ionization_Penalty_Charging>
0

> <r_epik_Ionization_Penalty_Neutral>
4.28758e-05

> <r_epik_State_Penalty>
-0

> <r_epik_Charging_Adjusted_Penalty>
0

> <i_epik_Tot_Q>
0

> <i_epik_Tot_abs_Q>
0

> <r_epik_Metal_State_Penalty>
-0

> <b_epik_Metal_Only>
0

> <s_lp_Force_Field>
OPLS_2005

> <r_lp_Energy>
28.5247

> <b_lp_Chiralities_Consistent>
1

> <s_lp_Variant>
AV-unprocessed.smi:2511-2

> <Gold.Version>
5.8.1

> <Gold.Id.Protein>
6NUR|6NUR_protein|mol2

> <Gold.PLP.Fitness>
46.3983

> <Gold.PLP.PLP>
-42.2045

> <Gold.PLP.part.hbond>
-2.7168

> <Gold.PLP.part.metal>
0.0000

> <Gold.PLP.part.buried>
-1.7790

> <Gold.PLP.part.nonpolar>
-38.3500

> <Gold.PLP.part.repulsive>
1.5118

> <Gold.PLP.ligand.clash>
0.0388

> <Gold.PLP.ligand.torsion>
1.4225

> <Gold.PLP.Chemscore.Hbond>
2.3520

> <Gold.PLP.Chemscore.CHOScore>
0.0000

> <Gold.PLP.Chemscore.Metal>
0.0000

> <Gold.Chemscore.Hbonds>
donor molecule, donor type, donor heavy atom, donor atom, acceptor molecule, acceptor atom, score
      L1  H     1    24       P1 10171  0.37
      L1  H     8    28       P1  8028  0.98
      L1  H    11    29       P1  8028  0.93

> <Gold.PLP.Chemscore.Internal.Correction>
0.0215

> <Gold.Rescore>
     Score         DG    S(hbond)    S(metal)    S(lipo)     H(rot)  DE(clash)    DE(int)     intcor
     16.58     -23.17       2.18        0.00     110.94       1.00       2.69       3.90       ----

> <Gold.Chemscore.Fitness>
16.5790

> <Gold.Chemscore.DG>
-23.1658

> <Gold.Chemscore.ZeroCoef>
-5.4800

> <Gold.Chemscore.Hbond>
2.1755

> <Gold.Chemscore.Metal>
0.0000

> <Gold.Chemscore.Lipo>
110.9378

> <Gold.Chemscore.Internal_Hbond>
0.0000

> <Gold.Chemscore.DEClash>
2.6901

> <Gold.Chemscore.DEInternal>
3.8966

> <Gold.Chemscore.Rot>
1.0000

> <Gold.Chemscore.Internal.Correction>
   9.000000E+99

> <Gold.Chemscore.Hbonds>
donor molecule, donor type, donor heavy atom, donor atom, acceptor molecule, acceptor atom, score
      L1  H     1    24       P1 10171  0.34
      L1  H     8    28       P1  8028  0.90
      L1  H    11    29       P1  8028  0.87

> <Gold.Chemscore.Hbond.Weighted>
-7.2661

> <Gold.Chemscore.Metal.Weighted>
-0.0000

> <Gold.Chemscore.Lipo.Weighted>
-12.9797

> <Gold.Chemscore.Internal_Hbond.Weighted>
0.0000

> <Gold.Chemscore.DEClash.Weighted>
2.6901

> <Gold.Chemscore.DEInternal.Weighted>
3.8966

> <Gold.Chemscore.Rot.Weighted>
2.5600

> <Gold.Chemscore.Internal.Correction.Weighted>
   9.000000E+99

> <Gold.Protein.RotatedTorsions>
[ 6907 6896 6895 6894 ] final   -0.87 input  -60.11 | X-H torsion
[ 7974 7965 7964 7962 ] final  137.40 input  175.53 | X-H torsion
[ 8008 7997 7996 7995 ] final  157.27 input   59.86 | X-H torsion
[ 10167 10162 10161 10158 ] final  179.63 input  -65.29 | X-H torsion
[ 10718 10713 10712 10709 ] final    6.82 input   66.30 | X-H torsion
[ 10763 10752 10751 10750 ] final  -70.23 input  -60.55 | X-H torsion
[ 11005 11000 10999 10996 ] final  -69.32 input  -57.11 | X-H torsion

> <Gold.Protein.ActiveResidues>
 VAL166  LYS551  ARG553  GLY616  TRP617  ASP618  TYR619  PRO620  LYS621  CYS622 
 ASP623  PHE694  ASN695  SER759  ASP760  ASP761  ALA762  ILE779  LEU786  VAL792 
 PHE793  MET794  SER795  GLU796  ALA797  LYS798  CYS799  TRP800  GLU811  SER814 

> <Gold.Protein.RotatedAtoms>
  151.5553  135.1066  159.9959 H   0  0  0  0  0  0  0  0  0  0  0  0  # atno 6907 bound_to 6896
  152.4472  133.7555  159.6728 H   0  0  0  0  0  0  0  0  0  0  0  0  # atno 6908 bound_to 6896
  150.8391  133.7898  159.3092 H   0  0  0  0  0  0  0  0  0  0  0  0  # atno 6909 bound_to 6896
  144.9471  139.4862  143.5544 H   0  0  0  0  0  0  0  0  0  0  0  0  # atno 7974 bound_to 7965
  156.2374  140.1890  156.7083 H   0  0  0  0  0  0  0  0  0  0  0  0  # atno 8008 bound_to 7997
  154.6131  140.0619  156.9547 H   0  0  0  0  0  0  0  0  0  0  0  0  # atno 8009 bound_to 7997
  155.1983  140.3290  155.4350 H   0  0  0  0  0  0  0  0  0  0  0  0  # atno 8010 bound_to 7997
  139.5345  144.2537  152.0763 H   0  0  0  0  0  0  0  0  0  0  0  0  # atno 10167 bound_to 10162
  156.9278  130.5814  149.5649 H   0  0  0  0  0  0  0  0  0  0  0  0  # atno 10718 bound_to 10713
  154.4147  135.6001  153.5973 H   0  0  0  0  0  0  0  0  0  0  0  0  # atno 10763 bound_to 10752
  152.9791  135.5938  154.4028 H   0  0  0  0  0  0  0  0  0  0  0  0  # atno 10764 bound_to 10752
  154.3845  135.2841  155.2170 H   0  0  0  0  0  0  0  0  0  0  0  0  # atno 10765 bound_to 10752
  141.1551  133.6762  156.6582 H   0  0  0  0  0  0  0  0  0  0  0  0  # atno 11005 bound_to 11000
  146.3307  139.8531  142.8869 LP  0  0  0  0  0  0  0  0  0  0  0  0  # atno 17320 bound_to 7965
  145.2901  141.0164  143.3668 LP  0  0  0  0  0  0  0  0  0  0  0  0  # atno 17321 bound_to 7965
  140.2006  144.4662  150.6433 LP  0  0  0  0  0  0  0  0  0  0  0  0  # atno 17342 bound_to 10162
  140.6543  143.2233  151.6004 LP  0  0  0  0  0  0  0  0  0  0  0  0  # atno 17343 bound_to 10162
  156.0461  130.5537  150.8884 LP  0  0  0  0  0  0  0  0  0  0  0  0  # atno 17370 bound_to 10713
  157.5866  131.0945  150.9186 LP  0  0  0  0  0  0  0  0  0  0  0  0  # atno 17371 bound_to 10713
  140.3268  134.7962  157.4295 LP  0  0  0  0  0  0  0  0  0  0  0  0  # atno 17394 bound_to 11000
  140.1050  134.5421  155.8317 LP  0  0  0  0  0  0  0  0  0  0  0  0  # atno 17395 bound_to 11000

$$$$
