AV-unprocessed.smi:793|AV-procd|sdf|3754|dock4
  -GOLD-   22720 1183D 1   1.00000     0.00000
 Structure written by MMmdl.
 38 39  0  0  0  0  0  0  0  0  2 V2000
  148.2807  140.1602  156.3536 C   0  0  0  0  0  0  0  0  0  0  0  0
  149.5480  140.7576  156.9778 C   0  0  0  0  0  0  0  0  0  0  0  0
  149.8299  140.2106  158.3900 C   0  0  2  0  0  0  0  0  0  0  0  0
  151.0653  140.7728  158.8370 O   0  0  0  0  0  0  0  0  0  0  0  0
  151.0799  142.1712  159.1200 C   0  0  0  0  0  0  0  0  0  0  0  0
  151.2851  143.0478  157.8808 C   0  0  0  0  0  0  0  0  0  0  0  0
  151.8823  144.3540  158.4154 C   0  0  0  0  0  0  0  0  0  0  0  0
  152.5134  144.0153  159.7753 C   0  0  0  0  0  0  0  0  0  0  0  0
  152.2866  142.5151  159.9909 C   0  0  0  0  0  0  0  0  0  0  0  0
  149.9039  138.6742  158.3992 C   0  0  0  0  0  0  0  0  0  0  0  0
  150.8809  138.1032  157.9139 O   0  0  0  0  0  0  0  0  0  0  0  0
  148.8659  138.0511  158.9854 N   0  0  0  0  0  0  0  0  0  0  0  0
  148.6644  136.6598  159.1960 C   0  0  0  0  0  0  0  0  0  0  0  0
  149.1928  135.6557  158.3469 C   0  0  0  0  0  0  0  0  0  0  0  0
  148.9853  134.3344  158.5349 N   0  0  0  0  0  0  0  0  0  0  0  0
  148.2286  133.9576  159.5869 C   0  0  0  0  0  0  0  0  0  0  0  0
  147.6413  134.8700  160.4846 C   0  0  0  0  0  0  0  0  0  0  0  0
  147.8587  136.2467  160.2831 C   0  0  0  0  0  0  0  0  0  0  0  0
  147.2952  137.1524  161.1397 O   0  5  0  0  0  0  0  0  0  0  0  0
  148.1138  140.5625  155.3543 H   0  0  0  0  0  0  0  0  0  0  0  0
  147.3998  140.3864  156.9548 H   0  0  0  0  0  0  0  0  0  0  0  0
  148.3580  139.0761  156.2672 H   0  0  0  0  0  0  0  0  0  0  0  0
  150.3931  140.5412  156.3227 H   0  0  0  0  0  0  0  0  0  0  0  0
  149.4551  141.8440  157.0101 H   0  0  0  0  0  0  0  0  0  0  0  0
  149.0168  140.5313  159.0432 H   0  0  0  0  0  0  0  0  0  0  0  0
  150.1783  142.4835  159.6486 H   0  0  0  0  0  0  0  0  0  0  0  0
  151.9991  142.5702  157.2084 H   0  0  0  0  0  0  0  0  0  0  0  0
  150.3621  143.2122  157.3241 H   0  0  0  0  0  0  0  0  0  0  0  0
  152.6110  144.7708  157.7194 H   0  0  0  0  0  0  0  0  0  0  0  0
  151.0963  145.0985  158.5492 H   0  0  0  0  0  0  0  0  0  0  0  0
  153.5739  144.2668  159.8081 H   0  0  0  0  0  0  0  0  0  0  0  0
  152.0183  144.5856  160.5621 H   0  0  0  0  0  0  0  0  0  0  0  0
  152.1330  142.2591  161.0395 H   0  0  0  0  0  0  0  0  0  0  0  0
  153.1603  141.9637  159.6409 H   0  0  0  0  0  0  0  0  0  0  0  0
  148.1801  138.6489  159.4241 H   0  0  0  0  0  0  0  0  0  0  0  0
  149.7809  135.8997  157.4759 H   0  0  0  0  0  0  0  0  0  0  0  0
  148.0811  132.8954  159.7142 H   0  0  0  0  0  0  0  0  0  0  0  0
  147.0372  134.5181  161.3082 H   0  0  0  0  0  0  0  0  0  0  0  0
  1  2  1  0  0  0  0
  1 20  1  0  0  0  0
  1 21  1  0  0  0  0
  1 22  1  0  0  0  0
  2  3  1  0  0  0  0
  2 23  1  0  0  0  0
  2 24  1  0  0  0  0
  3  4  1  0  0  0  0
  3 10  1  0  0  0  0
  3 25  1  0  0  0  0
  4  5  1  0  0  0  0
  5  9  1  0  0  0  0
  5  6  1  0  0  0  0
  5 26  1  0  0  0  0
  6  7  1  0  0  0  0
  6 27  1  0  0  0  0
  6 28  1  0  0  0  0
  7  8  1  0  0  0  0
  7 29  1  0  0  0  0
  7 30  1  0  0  0  0
  8  9  1  0  0  0  0
  8 31  1  0  0  0  0
  8 32  1  0  0  0  0
  9 33  1  0  0  0  0
  9 34  1  0  0  0  0
 10 11  2  0  0  0  0
 10 12  1  0  0  0  0
 12 35  1  0  0  0  0
 12 13  1  0  0  0  0
 13 18  1  0  0  0  0
 13 14  2  0  0  0  0
 14 36  1  0  0  0  0
 14 15  1  0  0  0  0
 15 16  2  0  0  0  0
 16 37  1  0  0  0  0
 16 17  1  0  0  0  0
 17 18  2  0  0  0  0
 17 38  1  0  0  0  0
 18 19  1  0  0  0  0
M  CHG  1  19  -1
M  END
> <s_m_source_file>
AV-unprocessed.smi

> <i_m_source_file_index>
793

> <i_lp_mmshare_version>
43012

> <i_f3d_flags>
0

> <s_epik_input>
W0NIMl0xW0NIMl1bQ0gyXVtDSDJdW0NIXTFPW0NAQEhdKFtDSDJdW0NIM10pQyg9TylbTkhdYzJbY0hdbltjSF1bY0hdYzJbT0hd

> <s_epik_cmdline>
J2VwaWtfcHl0aG9uJywgJy1waCcsICc3LjAnLCAnLXRuJywgJzgnLCAnLW1hJywgJzIwMCcsICctbWV0YWxfYmluZGluZycsICctaW1hZScsICc8aW5maWxlLm1hZT4nLCAnLW9tYWUnLCAnPG91dGZpbGUubWFlPic=

> <r_lp_tautomer_probability>
1

> <r_epik_Ionization_Penalty>
5.91611

> <r_epik_Ionization_Penalty_Charging>
1.01889

> <r_epik_Ionization_Penalty_Neutral>
4.89722

> <r_epik_State_Penalty>
4.89706

> <r_epik_Charging_Adjusted_Penalty>
5.91595

> <i_epik_Tot_Q>
-1

> <i_epik_Tot_abs_Q>
1

> <r_epik_Metal_State_Penalty>
1.05012

> <b_epik_Metal_Only>
1

> <s_lp_Force_Field>
OPLS_2005

> <r_lp_Energy>
28.2146

> <b_lp_Chiralities_Consistent>
1

> <s_lp_Variant>
AV-unprocessed.smi:793-3

> <Gold.Version>
5.8.1

> <Gold.Id.Protein>
6NUR|6NUR_protein|mol2

> <Gold.PLP.Fitness>
41.5016

> <Gold.PLP.PLP>
-29.4861

> <Gold.PLP.part.hbond>
-3.0000

> <Gold.PLP.part.metal>
0.0000

> <Gold.PLP.part.buried>
-2.6065

> <Gold.PLP.part.nonpolar>
-24.3222

> <Gold.PLP.part.repulsive>
0.2155

> <Gold.PLP.ligand.clash>
0.0000

> <Gold.PLP.ligand.torsion>
0.7003

> <Gold.PLP.Chemscore.Hbond>
4.4432

> <Gold.PLP.Chemscore.CHOScore>
0.0000

> <Gold.PLP.Chemscore.Metal>
0.0000

> <Gold.Chemscore.Hbonds>
donor molecule, donor type, donor heavy atom, donor atom, acceptor molecule, acceptor atom, score
      P1  H  6896  6907       L1    15  0.81
      P1  H  6931  6943       L1    19  1.04
      P1  H  6934  6947       L1    19  2.00

> <Gold.PLP.Chemscore.Internal.Correction>
0.0864

> <Gold.Rescore>
     Score         DG    S(hbond)    S(metal)    S(lipo)     H(rot)  DE(clash)    DE(int)     intcor
     15.76     -17.33       1.68        0.00      85.96       1.49       0.03       1.54       ----

> <Gold.Chemscore.Fitness>
15.7622

> <Gold.Chemscore.DG>
-17.3350

> <Gold.Chemscore.ZeroCoef>
-5.4800

> <Gold.Chemscore.Hbond>
1.6828

> <Gold.Chemscore.Metal>
0.0000

> <Gold.Chemscore.Lipo>
85.9586

> <Gold.Chemscore.Internal_Hbond>
0.0000

> <Gold.Chemscore.DEClash>
0.0310

> <Gold.Chemscore.DEInternal>
1.5418

> <Gold.Chemscore.Rot>
1.4932

> <Gold.Chemscore.Internal.Correction>
   9.000000E+99

> <Gold.Chemscore.Hbonds>
donor molecule, donor type, donor heavy atom, donor atom, acceptor molecule, acceptor atom, score
      P1  H  6896  6907       L1    15  0.03
      P1  H  6931  6943       L1    19  0.20
      P1  H  6934  6947       L1    19  0.97

> <Gold.Chemscore.Hbond.Weighted>
-5.6204

> <Gold.Chemscore.Metal.Weighted>
-0.0000

> <Gold.Chemscore.Lipo.Weighted>
-10.0572

> <Gold.Chemscore.Internal_Hbond.Weighted>
0.0000

> <Gold.Chemscore.DEClash.Weighted>
0.0310

> <Gold.Chemscore.DEInternal.Weighted>
1.5418

> <Gold.Chemscore.Rot.Weighted>
3.8226

> <Gold.Chemscore.Internal.Correction.Weighted>
   9.000000E+99

> <Gold.Protein.RotatedTorsions>
[ 6907 6896 6895 6894 ] final -113.69 input  -60.11 | X-H torsion
[ 7974 7965 7964 7962 ] final   96.21 input  175.53 | X-H torsion
[ 8008 7997 7996 7995 ] final  172.25 input   59.86 | X-H torsion
[ 10167 10162 10161 10158 ] final  114.42 input  -65.29 | X-H torsion
[ 10718 10713 10712 10709 ] final  141.60 input   66.30 | X-H torsion
[ 10763 10752 10751 10750 ] final  -15.34 input  -60.55 | X-H torsion
[ 11005 11000 10999 10996 ] final  150.85 input  -57.11 | X-H torsion

> <Gold.Protein.ActiveResidues>
 VAL166  LYS551  ARG553  GLY616  TRP617  ASP618  TYR619  PRO620  LYS621  CYS622 
 ASP623  PHE694  ASN695  SER759  ASP760  ASP761  ALA762  ILE779  LEU786  VAL792 
 PHE793  MET794  SER795  GLU796  ALA797  LYS798  CYS799  TRP800  GLU811  SER814 

> <Gold.Protein.RotatedAtoms>
  150.7847  133.8908  159.3312 H   0  0  0  0  0  0  0  0  0  0  0  0  # atno 6907 bound_to 6896
  151.6762  135.0967  160.0217 H   0  0  0  0  0  0  0  0  0  0  0  0  # atno 6908 bound_to 6896
  152.3908  133.6638  159.6271 H   0  0  0  0  0  0  0  0  0  0  0  0  # atno 6909 bound_to 6896
  145.4419  139.2300  143.3087 H   0  0  0  0  0  0  0  0  0  0  0  0  # atno 7974 bound_to 7965
  156.1192  140.1490  156.9228 H   0  0  0  0  0  0  0  0  0  0  0  0  # atno 8008 bound_to 7997
  154.4823  140.0875  156.7448 H   0  0  0  0  0  0  0  0  0  0  0  0  # atno 8009 bound_to 7997
  155.4458  140.3433  155.4297 H   0  0  0  0  0  0  0  0  0  0  0  0  # atno 8010 bound_to 7997
  139.6390  144.7122  151.2276 H   0  0  0  0  0  0  0  0  0  0  0  0  # atno 10167 bound_to 10162
  157.3901  131.1003  151.0654 H   0  0  0  0  0  0  0  0  0  0  0  0  # atno 10718 bound_to 10713
  153.5418  135.7013  153.5633 H   0  0  0  0  0  0  0  0  0  0  0  0  # atno 10763 bound_to 10752
  153.3595  135.3973  155.1707 H   0  0  0  0  0  0  0  0  0  0  0  0  # atno 10764 bound_to 10752
  154.8672  135.3785  154.4923 H   0  0  0  0  0  0  0  0  0  0  0  0  # atno 10765 bound_to 10752
  140.1167  134.8890  157.2014 H   0  0  0  0  0  0  0  0  0  0  0  0  # atno 11005 bound_to 11000
  146.2552  140.5168  142.8877 LP  0  0  0  0  0  0  0  0  0  0  0  0  # atno 17320 bound_to 7965
  144.8116  140.6396  143.6411 LP  0  0  0  0  0  0  0  0  0  0  0  0  # atno 17321 bound_to 7965
  140.7480  143.6345  150.8391 LP  0  0  0  0  0  0  0  0  0  0  0  0  # atno 17342 bound_to 10162
  139.9980  143.5774  152.2886 LP  0  0  0  0  0  0  0  0  0  0  0  0  # atno 17343 bound_to 10162
  157.1691  130.6259  149.5635 LP  0  0  0  0  0  0  0  0  0  0  0  0  # atno 17370 bound_to 10713
  155.9796  130.4791  150.6726 LP  0  0  0  0  0  0  0  0  0  0  0  0  # atno 17371 bound_to 10713
  140.3019  134.3122  155.7287 LP  0  0  0  0  0  0  0  0  0  0  0  0  # atno 17394 bound_to 11000
  141.2143  133.7597  156.9653 LP  0  0  0  0  0  0  0  0  0  0  0  0  # atno 17395 bound_to 11000

$$$$
