AV-unprocessed.smi:2588|AV-procd|sdf|10150|dock10
  -GOLD-   2272014163D 1   1.00000     0.00000
 Structure written by MMmdl.
 39 40  0  0  0  0  0  0  0  0  1 V2000
  151.9798  144.3829  157.5861 C   0  0  0  0  0  0  0  0  0  0  0  0
  151.3951  144.0036  158.9652 C   0  0  0  0  0  0  0  0  0  0  0  0
  150.6067  145.2186  159.5042 C   0  0  0  0  0  0  0  0  0  0  0  0
  152.4453  143.5668  159.9097 N   0  0  0  0  0  0  0  0  0  0  0  0
  153.0705  142.3070  159.4739 C   0  0  0  0  0  0  0  0  0  0  0  0
  154.2195  141.8902  160.4083 C   0  0  0  0  0  0  0  0  0  0  0  0
  153.7238  141.7117  161.8490 C   0  0  0  0  0  0  0  0  0  0  0  0
  154.8353  141.4449  162.7569 N   0  0  0  0  0  0  0  0  0  0  0  0
  155.4523  140.2617  162.8966 C   0  0  0  0  0  0  0  0  0  0  0  0
  155.1228  139.2514  162.2734 O   0  0  0  0  0  0  0  0  0  0  0  0
  156.6031  140.2173  163.9105 C   0  0  0  0  0  0  0  0  0  0  0  0
  156.2013  140.6471  165.2507 N   0  0  0  0  0  0  0  0  0  0  0  0
  155.7561  141.9226  165.4118 N   0  0  0  0  0  0  0  0  0  0  0  0
  155.4285  142.1548  166.6287 C   0  0  0  0  0  0  0  0  0  0  0  0
  155.6330  140.8123  167.7618 S   0  0  0  0  0  0  0  0  0  0  0  0
  156.2330  139.8438  166.3873 C   0  0  0  0  0  0  0  0  0  0  0  0
  156.5967  138.6734  166.4884 O   0  0  0  0  0  0  0  0  0  0  0  0
  152.9977  142.9927  162.2696 C   0  0  0  0  0  0  0  0  0  0  0  0
  151.8968  143.3628  161.2606 C   0  0  0  0  0  0  0  0  0  0  0  0
  151.2246  144.8537  156.9561 H   0  0  0  0  0  0  0  0  0  0  0  0
  152.3285  143.5148  157.0277 H   0  0  0  0  0  0  0  0  0  0  0  0
  152.8084  145.0855  157.6828 H   0  0  0  0  0  0  0  0  0  0  0  0
  150.6925  143.1817  158.8193 H   0  0  0  0  0  0  0  0  0  0  0  0
  149.9503  145.6312  158.7374 H   0  0  0  0  0  0  0  0  0  0  0  0
  151.2756  146.0181  159.8251 H   0  0  0  0  0  0  0  0  0  0  0  0
  149.9567  144.9590  160.3388 H   0  0  0  0  0  0  0  0  0  0  0  0
  152.3209  141.5159  159.4188 H   0  0  0  0  0  0  0  0  0  0  0  0
  153.5012  142.4093  158.4800 H   0  0  0  0  0  0  0  0  0  0  0  0
  154.6651  140.9631  160.0460 H   0  0  0  0  0  0  0  0  0  0  0  0
  155.0063  142.6454  160.3734 H   0  0  0  0  0  0  0  0  0  0  0  0
  153.0155  140.8816  161.8881 H   0  0  0  0  0  0  0  0  0  0  0  0
  155.1660  142.2210  163.3117 H   0  0  0  0  0  0  0  0  0  0  0  0
  157.0007  139.2027  163.9696 H   0  0  0  0  0  0  0  0  0  0  0  0
  157.4149  140.8452  163.5399 H   0  0  0  0  0  0  0  0  0  0  0  0
  155.0398  143.0940  167.0224 H   0  0  0  0  0  0  0  0  0  0  0  0
  152.5596  142.8641  163.2599 H   0  0  0  0  0  0  0  0  0  0  0  0
  153.7069  143.8183  162.3491 H   0  0  0  0  0  0  0  0  0  0  0  0
  151.4272  144.2715  161.6312 H   0  0  0  0  0  0  0  0  0  0  0  0
  151.1266  142.5903  161.2383 H   0  0  0  0  0  0  0  0  0  0  0  0
  1  2  1  0  0  0  0
  1 20  1  0  0  0  0
  1 21  1  0  0  0  0
  1 22  1  0  0  0  0
  2  3  1  0  0  0  0
  2  4  1  0  0  0  0
  2 23  1  0  0  0  0
  3 24  1  0  0  0  0
  3 25  1  0  0  0  0
  3 26  1  0  0  0  0
  4 19  1  0  0  0  0
  4  5  1  0  0  0  0
  5  6  1  0  0  0  0
  5 27  1  0  0  0  0
  5 28  1  0  0  0  0
  6  7  1  0  0  0  0
  6 29  1  0  0  0  0
  6 30  1  0  0  0  0
  7  8  1  0  0  0  0
  7 18  1  0  0  0  0
  7 31  1  0  0  0  0
  8  9  1  0  0  0  0
  8 32  1  0  0  0  0
  9 10  2  0  0  0  0
  9 11  1  0  0  0  0
 11 12  1  0  0  0  0
 11 33  1  0  0  0  0
 11 34  1  0  0  0  0
 12 16  1  0  0  0  0
 12 13  1  0  0  0  0
 13 14  2  0  0  0  0
 14 15  1  0  0  0  0
 14 35  1  0  0  0  0
 15 16  1  0  0  0  0
 16 17  2  0  0  0  0
 18 19  1  0  0  0  0
 18 36  1  0  0  0  0
 18 37  1  0  0  0  0
 19 38  1  0  0  0  0
 19 39  1  0  0  0  0
M  END
> <s_m_source_file>
AV-unprocessed.smi

> <i_m_source_file_index>
2588

> <i_lp_mmshare_version>
43012

> <i_f3d_flags>
0

> <s_epik_input>
W0NIM11bQ0hdKFtDSDNdKU4xW0NIMl1bQ0gyXVtDSF0oW0NIMl1bQ0gyXTEpW05IXUMoPU8pW0NIMl1uMm5bY0hdc2MyPU8=

> <s_epik_cmdline>
J2VwaWtfcHl0aG9uJywgJy1waCcsICc3LjAnLCAnLXRuJywgJzgnLCAnLW1hJywgJzIwMCcsICctbWV0YWxfYmluZGluZycsICctaW1hZScsICc8aW5maWxlLm1hZT4nLCAnLW9tYWUnLCAnPG91dGZpbGUubWFlPic=

> <r_lp_tautomer_probability>
1

> <r_epik_Ionization_Penalty>
2.47038

> <r_epik_Ionization_Penalty_Charging>
1.38606e-08

> <r_epik_Ionization_Penalty_Neutral>
2.47038

> <r_epik_State_Penalty>
2.63325

> <r_epik_Charging_Adjusted_Penalty>
2.63325

> <i_epik_Tot_Q>
0

> <i_epik_Tot_abs_Q>
0

> <r_epik_Metal_State_Penalty>
2.63325

> <b_epik_Metal_Only>
0

> <s_lp_Force_Field>
OPLS_2005

> <r_lp_Energy>
19.6439

> <b_lp_Chiralities_Consistent>
1

> <s_lp_Variant>
AV-unprocessed.smi:2588-3

> <Gold.Version>
5.8.1

> <Gold.Id.Protein>
6NUR|6NUR_protein|mol2

> <Gold.PLP.Fitness>
44.9325

> <Gold.PLP.PLP>
-45.5682

> <Gold.PLP.part.hbond>
-1.9620

> <Gold.PLP.part.metal>
0.0000

> <Gold.PLP.part.buried>
-7.4244

> <Gold.PLP.part.nonpolar>
-35.2783

> <Gold.PLP.part.repulsive>
0.0904

> <Gold.PLP.ligand.clash>
0.0000

> <Gold.PLP.ligand.torsion>
0.3210

> <Gold.PLP.Chemscore.Hbond>
0.0000

> <Gold.PLP.Chemscore.CHOScore>
0.0000

> <Gold.PLP.Chemscore.Metal>
0.0000

> <Gold.PLP.Chemscore.Internal.Correction>
0.0062

> <Gold.Rescore>
     Score         DG    S(hbond)    S(metal)    S(lipo)     H(rot)  DE(clash)    DE(int)     intcor
     10.50     -13.06       0.00        0.00     104.94       1.83       0.60       1.96       ----

> <Gold.Chemscore.Fitness>
10.4994

> <Gold.Chemscore.DG>
-13.0649

> <Gold.Chemscore.ZeroCoef>
-5.4800

> <Gold.Chemscore.Hbond>
0.0000

> <Gold.Chemscore.Metal>
0.0000

> <Gold.Chemscore.Lipo>
104.9390

> <Gold.Chemscore.Internal_Hbond>
0.0000

> <Gold.Chemscore.DEClash>
0.6040

> <Gold.Chemscore.DEInternal>
1.9615

> <Gold.Chemscore.Rot>
1.8332

> <Gold.Chemscore.Internal.Correction>
   9.000000E+99

> <Gold.Chemscore.Hbond.Weighted>
-0.0000

> <Gold.Chemscore.Metal.Weighted>
-0.0000

> <Gold.Chemscore.Lipo.Weighted>
-12.2779

> <Gold.Chemscore.Internal_Hbond.Weighted>
0.0000

> <Gold.Chemscore.DEClash.Weighted>
0.6040

> <Gold.Chemscore.DEInternal.Weighted>
1.9615

> <Gold.Chemscore.Rot.Weighted>
4.6930

> <Gold.Chemscore.Internal.Correction.Weighted>
   9.000000E+99

> <Gold.Protein.RotatedTorsions>
[ 6907 6896 6895 6894 ] final   81.82 input  -60.11 | X-H torsion
[ 7974 7965 7964 7962 ] final   -4.77 input  175.53 | X-H torsion
[ 8008 7997 7996 7995 ] final  -50.43 input   59.86 | X-H torsion
[ 10167 10162 10161 10158 ] final  -78.68 input  -65.29 | X-H torsion
[ 10718 10713 10712 10709 ] final -159.62 input   66.30 | X-H torsion
[ 10763 10752 10751 10750 ] final   67.62 input  -60.55 | X-H torsion
[ 11005 11000 10999 10996 ] final  -55.88 input  -57.11 | X-H torsion

> <Gold.Protein.ActiveResidues>
 VAL166  LYS551  ARG553  GLY616  TRP617  ASP618  TYR619  PRO620  LYS621  CYS622 
 ASP623  PHE694  ASN695  SER759  ASP760  ASP761  ALA762  ILE779  LEU786  VAL792 
 PHE793  MET794  SER795  GLU796  ALA797  LYS798  CYS799  TRP800  GLU811  SER814 

> <Gold.Protein.RotatedAtoms>
  152.5280  134.3144  159.9125 H   0  0  0  0  0  0  0  0  0  0  0  0  # atno 6907 bound_to 6896
  151.3094  133.4081  159.2653 H   0  0  0  0  0  0  0  0  0  0  0  0  # atno 6908 bound_to 6896
  151.0051  134.9370  159.8033 H   0  0  0  0  0  0  0  0  0  0  0  0  # atno 6909 bound_to 6896
  146.2366  140.1921  142.8333 H   0  0  0  0  0  0  0  0  0  0  0  0  # atno 7974 bound_to 7965
  154.4062  140.1272  156.4664 H   0  0  0  0  0  0  0  0  0  0  0  0  # atno 8008 bound_to 7997
  155.7222  140.3492  155.5001 H   0  0  0  0  0  0  0  0  0  0  0  0  # atno 8009 bound_to 7997
  155.9204  140.1051  157.1201 H   0  0  0  0  0  0  0  0  0  0  0  0  # atno 8010 bound_to 7997
  140.4661  143.2440  151.8276 H   0  0  0  0  0  0  0  0  0  0  0  0  # atno 10167 bound_to 10162
  156.5707  130.8687  151.2837 H   0  0  0  0  0  0  0  0  0  0  0  0  # atno 10718 bound_to 10713
  153.0195  135.5277  154.7008 H   0  0  0  0  0  0  0  0  0  0  0  0  # atno 10763 bound_to 10752
  154.6117  135.2879  155.0427 H   0  0  0  0  0  0  0  0  0  0  0  0  # atno 10764 bound_to 10752
  154.1446  135.6572  153.5002 H   0  0  0  0  0  0  0  0  0  0  0  0  # atno 10765 bound_to 10752
  141.1095  133.6611  156.4536 H   0  0  0  0  0  0  0  0  0  0  0  0  # atno 11005 bound_to 11000
  144.9849  140.8494  143.5374 LP  0  0  0  0  0  0  0  0  0  0  0  0  # atno 17320 bound_to 7965
  145.1920  139.2296  143.5238 LP  0  0  0  0  0  0  0  0  0  0  0  0  # atno 17321 bound_to 7965
  139.4812  144.4949  151.9137 LP  0  0  0  0  0  0  0  0  0  0  0  0  # atno 17342 bound_to 10162
  140.4034  144.2463  150.5892 LP  0  0  0  0  0  0  0  0  0  0  0  0  # atno 17343 bound_to 10162
  157.7349  130.9753  150.2052 LP  0  0  0  0  0  0  0  0  0  0  0  0  # atno 17370 bound_to 10713
  156.2717  130.3722  149.8025 LP  0  0  0  0  0  0  0  0  0  0  0  0  # atno 17371 bound_to 10713
  140.4814  134.6661  157.5172 LP  0  0  0  0  0  0  0  0  0  0  0  0  # atno 17394 bound_to 11000
  139.9981  134.6880  155.9576 LP  0  0  0  0  0  0  0  0  0  0  0  0  # atno 17395 bound_to 11000

$$$$
