AV-unprocessed.smi:1582|AV-procd|sdf|6361|dock2
  -GOLD-   22720 6583D 1   1.00000     0.00000
 Structure written by MMmdl.
 41 42  0  0  0  0  0  0  0  0  2 V2000
  147.6023  138.5773  154.9055 O   0  0  0  0  0  0  0  0  0  0  0  0
  147.9952  139.0068  153.8208 C   0  0  0  0  0  0  0  0  0  0  0  0
  147.3753  138.7582  152.6587 N   0  0  0  0  0  0  0  0  0  0  0  0
  146.1835  137.9303  152.5035 C   0  0  0  0  0  0  0  0  0  0  0  0
  146.3305  136.9072  151.3578 C   0  0  2  0  0  0  0  0  0  0  0  0
  146.4819  137.6155  150.1431 O   0  0  0  0  0  0  0  0  0  0  0  0
  145.0664  136.0337  151.2157 C   0  0  0  0  0  0  0  0  0  0  0  0
  145.3264  134.7575  150.5001 N   0  3  0  0  0  0  0  0  0  0  0  0
  144.0991  133.9305  150.3622 C   0  0  0  0  0  0  0  0  0  0  0  0
  144.3589  132.6861  149.4966 C   0  0  0  0  0  0  0  0  0  0  0  0
  145.5148  131.8534  150.0648 C   0  0  0  0  0  0  0  0  0  0  0  0
  146.7611  132.7330  150.2258 C   0  0  0  0  0  0  0  0  0  0  0  0
  146.4524  133.9753  151.0783 C   0  0  0  0  0  0  0  0  0  0  0  0
  149.0816  139.7757  153.6413 N   0  0  0  0  0  0  0  0  0  0  0  0
  149.9939  140.2207  154.6313 C   0  0  0  0  0  0  0  0  0  0  0  0
  149.9195  141.4755  155.2950 C   0  0  0  0  0  0  0  0  0  0  0  0
  150.9069  141.6208  156.1671 N   0  0  0  0  0  0  0  0  0  0  0  0
  151.6102  140.4703  156.0673 N   0  0  0  0  0  0  0  0  0  0  0  0
  151.0912  139.5883  155.1453 C   0  0  0  0  0  0  0  0  0  0  0  0
  152.4336  140.3038  156.6284 H   0  0  0  0  0  0  0  0  0  0  0  0
  147.7690  139.1525  151.8167 H   0  0  0  0  0  0  0  0  0  0  0  0
  146.0675  137.4008  153.4495 H   0  0  0  0  0  0  0  0  0  0  0  0
  145.2848  138.5397  152.3898 H   0  0  0  0  0  0  0  0  0  0  0  0
  147.2095  136.2862  151.5301 H   0  0  0  0  0  0  0  0  0  0  0  0
  145.6224  137.8424  149.8187 H   0  0  0  0  0  0  0  0  0  0  0  0
  144.6384  135.8127  152.1948 H   0  0  0  0  0  0  0  0  0  0  0  0
  144.3102  136.6098  150.6795 H   0  0  0  0  0  0  0  0  0  0  0  0
  143.7447  133.6356  151.3512 H   0  0  0  0  0  0  0  0  0  0  0  0
  143.3056  134.5218  149.9037 H   0  0  0  0  0  0  0  0  0  0  0  0
  143.4556  132.0783  149.4367 H   0  0  0  0  0  0  0  0  0  0  0  0
  144.5942  132.9921  148.4762 H   0  0  0  0  0  0  0  0  0  0  0  0
  145.2293  131.4356  151.0311 H   0  0  0  0  0  0  0  0  0  0  0  0
  145.7300  131.0088  149.4094 H   0  0  0  0  0  0  0  0  0  0  0  0
  147.5664  132.1570  150.6830 H   0  0  0  0  0  0  0  0  0  0  0  0
  147.1211  133.0430  149.2437 H   0  0  0  0  0  0  0  0  0  0  0  0
  147.3499  134.5892  151.1415 H   0  0  0  0  0  0  0  0  0  0  0  0
  146.2033  133.6758  152.0976 H   0  0  0  0  0  0  0  0  0  0  0  0
  149.2878  140.0607  152.6951 H   0  0  0  0  0  0  0  0  0  0  0  0
  149.1975  142.2699  155.1747 H   0  0  0  0  0  0  0  0  0  0  0  0
  151.5401  138.6257  154.9502 H   0  0  0  0  0  0  0  0  0  0  0  0
  145.5960  135.0153  149.5611 H   0  0  0  0  0  0  0  0  0  0  0  0
  1  2  2  0  0  0  0
  2  3  1  0  0  0  0
  2 14  1  0  0  0  0
  3  4  1  0  0  0  0
  3 21  1  0  0  0  0
  4  5  1  0  0  0  0
  4 22  1  0  0  0  0
  4 23  1  0  0  0  0
  5  6  1  0  0  0  0
  5  7  1  0  0  0  0
  5 24  1  0  0  0  0
  6 25  1  0  0  0  0
  7  8  1  0  0  0  0
  7 26  1  0  0  0  0
  7 27  1  0  0  0  0
  8 13  1  0  0  0  0
  8  9  1  0  0  0  0
  8 41  1  0  0  0  0
  9 10  1  0  0  0  0
  9 28  1  0  0  0  0
  9 29  1  0  0  0  0
 10 11  1  0  0  0  0
 10 30  1  0  0  0  0
 10 31  1  0  0  0  0
 11 12  1  0  0  0  0
 11 32  1  0  0  0  0
 11 33  1  0  0  0  0
 12 13  1  0  0  0  0
 12 34  1  0  0  0  0
 12 35  1  0  0  0  0
 13 36  1  0  0  0  0
 13 37  1  0  0  0  0
 14 15  1  0  0  0  0
 14 38  1  0  0  0  0
 15 19  2  0  0  0  0
 15 16  1  0  0  0  0
 16 17  2  0  0  0  0
 16 39  1  0  0  0  0
 17 18  1  0  0  0  0
 18 20  1  0  0  0  0
 18 19  1  0  0  0  0
 19 40  1  0  0  0  0
M  CHG  1   8   1
M  END
> <s_m_source_file>
AV-unprocessed.smi

> <i_m_source_file_index>
1582

> <i_lp_mmshare_version>
43012

> <i_f3d_flags>
0

> <s_epik_input>
W2NIXTFbbkhdbltjSF1jMVtOSF1DKD1PKVtOSF1bQ0gyXVtDQEhdKFtPSF0pW0NIMl1OMltDSDJdW0NIMl1bQ0gyXVtDSDJdW0NIMl0y

> <s_epik_cmdline>
J2VwaWtfcHl0aG9uJywgJy1waCcsICc3LjAnLCAnLXRuJywgJzgnLCAnLW1hJywgJzIwMCcsICctbWV0YWxfYmluZGluZycsICctaW1hZScsICc8aW5maWxlLm1hZT4nLCAnLW9tYWUnLCAnPG91dGZpbGUubWFlPic=

> <r_lp_tautomer_probability>
0.5

> <r_epik_Ionization_Penalty>
0.00519658

> <r_epik_Ionization_Penalty_Charging>
0.00515354

> <r_epik_Ionization_Penalty_Neutral>
4.30332e-05

> <r_epik_State_Penalty>
0.00375424

> <r_epik_Charging_Adjusted_Penalty>
0.00890779

> <i_epik_Tot_Q>
1

> <i_epik_Tot_abs_Q>
1

> <r_epik_Metal_State_Penalty>
-0

> <b_epik_Metal_Only>
0

> <s_lp_Force_Field>
OPLS_2005

> <r_lp_Energy>
21.997

> <b_lp_Chiralities_Consistent>
1

> <s_lp_Variant>
AV-unprocessed.smi:1582-1

> <Gold.Version>
5.8.1

> <Gold.Id.Protein>
6NUR|6NUR_protein|mol2

> <Gold.PLP.Fitness>
48.4897

> <Gold.PLP.PLP>
-34.3341

> <Gold.PLP.part.hbond>
-6.1823

> <Gold.PLP.part.metal>
0.0000

> <Gold.PLP.part.buried>
2.6511

> <Gold.PLP.part.nonpolar>
-30.8429

> <Gold.PLP.part.repulsive>
0.5221

> <Gold.PLP.ligand.clash>
0.0000

> <Gold.PLP.ligand.torsion>
1.0382

> <Gold.PLP.Chemscore.Hbond>
4.3850

> <Gold.PLP.Chemscore.CHOScore>
1.0000

> <Gold.PLP.Chemscore.Metal>
0.0000

> <Gold.Chemscore.Hbonds>
donor molecule, donor type, donor heavy atom, donor atom, acceptor molecule, acceptor atom, score
      L1  H     3    21       P1  7957  0.64
      L1  H     6    25       P1 10171  1.00
      L1  H     8    41       P1  7921  1.00
      L1  H    14    38       P1  7957  1.00
      P1  H  7954  7966       L1     6  0.72
      L1  C    16    39       P1  8028  1.00

> <Gold.PLP.Chemscore.Internal.Correction>
0.0770

> <Gold.Rescore>
     Score         DG    S(hbond)    S(metal)    S(lipo)     H(rot)  DE(clash)    DE(int)     intcor
     20.34     -23.14       4.19        0.00      87.97       2.59       1.81       0.99       ----

> <Gold.Chemscore.Fitness>
20.3414

> <Gold.Chemscore.DG>
-23.1450

> <Gold.Chemscore.ZeroCoef>
-5.4800

> <Gold.Chemscore.Hbond>
4.1906

> <Gold.Chemscore.Metal>
0.0000

> <Gold.Chemscore.Lipo>
87.9710

> <Gold.Chemscore.Internal_Hbond>
0.0000

> <Gold.Chemscore.DEClash>
1.8141

> <Gold.Chemscore.DEInternal>
0.9895

> <Gold.Chemscore.Rot>
2.5876

> <Gold.Chemscore.Internal.Correction>
   9.000000E+99

> <Gold.Chemscore.Hbonds>
donor molecule, donor type, donor heavy atom, donor atom, acceptor molecule, acceptor atom, score
      L1  H     3    21       P1  7957  0.62
      L1  H     6    25       P1 10171  0.99
      L1  H     8    41       P1  7921  0.94
      L1  H    14    38       P1  7957  0.97
      P1  H  7954  7966       L1     6  0.50

> <Gold.Chemscore.Hbond.Weighted>
-13.9965

> <Gold.Chemscore.Metal.Weighted>
-0.0000

> <Gold.Chemscore.Lipo.Weighted>
-10.2926

> <Gold.Chemscore.Internal_Hbond.Weighted>
0.0000

> <Gold.Chemscore.DEClash.Weighted>
1.8141

> <Gold.Chemscore.DEInternal.Weighted>
0.9895

> <Gold.Chemscore.Rot.Weighted>
6.6242

> <Gold.Chemscore.Internal.Correction.Weighted>
   9.000000E+99

> <Gold.Protein.RotatedTorsions>
[ 6907 6896 6895 6894 ] final  -77.68 input  -60.11 | X-H torsion
[ 7974 7965 7964 7962 ] final   96.73 input  175.53 | X-H torsion
[ 8008 7997 7996 7995 ] final   98.91 input   59.86 | X-H torsion
[ 10167 10162 10161 10158 ] final -145.98 input  -65.29 | X-H torsion
[ 10718 10713 10712 10709 ] final  -58.12 input   66.30 | X-H torsion
[ 10763 10752 10751 10750 ] final   72.81 input  -60.55 | X-H torsion
[ 11005 11000 10999 10996 ] final -165.58 input  -57.11 | X-H torsion

> <Gold.Protein.ActiveResidues>
 VAL166  LYS551  ARG553  GLY616  TRP617  ASP618  TYR619  PRO620  LYS621  CYS622 
 ASP623  PHE694  ASN695  SER759  ASP760  ASP761  ALA762  ILE779  LEU786  VAL792 
 PHE793  MET794  SER795  GLU796  ALA797  LYS798  CYS799  TRP800  GLU811  SER814 

> <Gold.Protein.RotatedAtoms>
  150.6992  134.4386  159.5281 H   0  0  0  0  0  0  0  0  0  0  0  0  # atno 6907 bound_to 6896
  152.2100  134.8507  160.0507 H   0  0  0  0  0  0  0  0  0  0  0  0  # atno 6908 bound_to 6896
  151.9396  133.3599  159.3997 H   0  0  0  0  0  0  0  0  0  0  0  0  # atno 6909 bound_to 6896
  145.4349  139.2307  143.3124 H   0  0  0  0  0  0  0  0  0  0  0  0  # atno 7974 bound_to 7965
  156.1052  140.3237  155.7996 H   0  0  0  0  0  0  0  0  0  0  0  0  # atno 8008 bound_to 7997
  155.4769  140.0551  157.2989 H   0  0  0  0  0  0  0  0  0  0  0  0  # atno 8009 bound_to 7997
  154.4722  140.2016  155.9980 H   0  0  0  0  0  0  0  0  0  0  0  0  # atno 8010 bound_to 7997
  139.7756  143.8175  152.2631 H   0  0  0  0  0  0  0  0  0  0  0  0  # atno 10167 bound_to 10162
  156.1158  130.4170  150.0534 H   0  0  0  0  0  0  0  0  0  0  0  0  # atno 10718 bound_to 10713
  153.0482  135.5086  154.7799 H   0  0  0  0  0  0  0  0  0  0  0  0  # atno 10763 bound_to 10752
  154.6682  135.2949  154.9779 H   0  0  0  0  0  0  0  0  0  0  0  0  # atno 10764 bound_to 10752
  154.0606  135.6691  153.4864 H   0  0  0  0  0  0  0  0  0  0  0  0  # atno 10765 bound_to 10752
  140.5741  134.5207  157.5167 H   0  0  0  0  0  0  0  0  0  0  0  0  # atno 11005 bound_to 11000
  146.2587  140.5090  142.8862 LP  0  0  0  0  0  0  0  0  0  0  0  0  # atno 17320 bound_to 7965
  144.8159  140.6466  143.6385 LP  0  0  0  0  0  0  0  0  0  0  0  0  # atno 17321 bound_to 7965
  139.8222  144.7290  150.9557 LP  0  0  0  0  0  0  0  0  0  0  0  0  # atno 17342 bound_to 10162
  140.7816  143.4148  151.0935 LP  0  0  0  0  0  0  0  0  0  0  0  0  # atno 17343 bound_to 10162
  156.8486  130.9451  151.3627 LP  0  0  0  0  0  0  0  0  0  0  0  0  # atno 17370 bound_to 10713
  157.6342  130.8753  149.9328 LP  0  0  0  0  0  0  0  0  0  0  0  0  # atno 17371 bound_to 10713
  139.9348  134.7896  156.0833 LP  0  0  0  0  0  0  0  0  0  0  0  0  # atno 17394 bound_to 11000
  141.1037  133.6667  156.2814 LP  0  0  0  0  0  0  0  0  0  0  0  0  # atno 17395 bound_to 11000

$$$$
