AV-unprocessed.smi:2124|AV-procd|sdf|8671|dock1
  -GOLD-   2272011423D 1   1.00000     0.00000
 Structure written by MMmdl.
 46 48  0  0  0  0  0  0  0  0  2 V2000
  150.6164  137.4862  158.9848 C   0  0  0  0  0  0  0  0  0  0  0  0
  150.3300  136.5442  157.8350 C   0  0  0  0  0  0  0  0  0  0  0  0
  149.6414  135.4881  158.0489 N   0  0  0  0  0  0  0  0  0  0  0  0
  149.3670  134.6140  156.9832 C   0  0  0  0  0  0  0  0  0  0  0  0
  148.5390  133.3876  157.3260 C   0  0  0  0  0  0  0  0  0  0  0  0
  149.8229  134.8722  155.7239 C   0  0  0  0  0  0  0  0  0  0  0  0
  149.5455  133.9599  154.5291 C   0  0  0  0  0  0  0  0  0  0  0  0
  148.0746  133.6701  154.2202 C   0  0  0  0  0  0  0  0  0  0  0  0
  147.5194  132.6743  154.6845 O   0  0  0  0  0  0  0  0  0  0  0  0
  147.4582  134.5694  153.4346 N   0  0  0  0  0  0  0  0  0  0  0  0
  146.0562  134.5699  153.0078 C   0  0  1  0  0  0  0  0  0  0  0  0
  145.4114  135.9486  153.2523 C   0  0  0  0  0  0  0  0  0  0  0  0
  145.8781  134.0680  151.5488 C   0  0  2  0  0  0  0  0  0  0  0  0
  144.4189  134.1549  151.0389 C   0  0  0  0  0  0  0  0  0  0  0  0
  144.1321  132.7278  150.5395 C   0  0  1  0  0  0  0  0  0  0  0  0
  144.9596  132.4482  149.2716 C   0  0  0  0  0  0  0  0  0  0  0  0
  146.3894  132.3066  149.8260 C   0  0  0  0  0  0  0  0  0  0  0  0
  146.1964  132.5652  151.3322 C   0  0  2  0  0  0  0  0  0  0  0  0
  144.8533  131.8881  151.5848 C   0  0  0  0  0  0  0  0  0  0  0  0
  150.6214  136.0941  155.5220 C   0  0  0  0  0  0  0  0  0  0  0  0
  151.0736  136.3634  154.4096 O   0  0  0  0  0  0  0  0  0  0  0  0
  150.8368  136.8952  156.6040 N   0  5  0  0  0  0  0  0  0  0  0  0
  150.4050  137.0108  159.9435 H   0  0  0  0  0  0  0  0  0  0  0  0
  149.9976  138.3799  158.9002 H   0  0  0  0  0  0  0  0  0  0  0  0
  151.6641  137.7894  158.9798 H   0  0  0  0  0  0  0  0  0  0  0  0
  147.5722  133.4284  156.8244 H   0  0  0  0  0  0  0  0  0  0  0  0
  148.3575  133.3217  158.3993 H   0  0  0  0  0  0  0  0  0  0  0  0
  149.0525  132.4765  157.0185 H   0  0  0  0  0  0  0  0  0  0  0  0
  149.9874  134.4133  153.6416 H   0  0  0  0  0  0  0  0  0  0  0  0
  150.0700  133.0107  154.6441 H   0  0  0  0  0  0  0  0  0  0  0  0
  148.0168  135.3444  153.1079 H   0  0  0  0  0  0  0  0  0  0  0  0
  145.5610  133.8611  153.6718 H   0  0  0  0  0  0  0  0  0  0  0  0
  144.3347  135.9206  153.0863 H   0  0  0  0  0  0  0  0  0  0  0  0
  145.8217  136.7114  152.5905 H   0  0  0  0  0  0  0  0  0  0  0  0
  145.5710  136.2791  154.2791 H   0  0  0  0  0  0  0  0  0  0  0  0
  146.5171  134.6676  150.8994 H   0  0  0  0  0  0  0  0  0  0  0  0
  143.7270  134.4085  151.8429 H   0  0  0  0  0  0  0  0  0  0  0  0
  144.2982  134.9021  150.2537 H   0  0  0  0  0  0  0  0  0  0  0  0
  143.0697  132.5102  150.4264 H   0  0  0  0  0  0  0  0  0  0  0  0
  144.6402  131.5217  148.7930 H   0  0  0  0  0  0  0  0  0  0  0  0
  144.8748  133.2516  148.5390 H   0  0  0  0  0  0  0  0  0  0  0  0
  146.7679  131.2982  149.6539 H   0  0  0  0  0  0  0  0  0  0  0  0
  147.0888  133.0063  149.3669 H   0  0  0  0  0  0  0  0  0  0  0  0
  147.0215  132.1810  151.9323 H   0  0  0  0  0  0  0  0  0  0  0  0
  144.4734  132.0345  152.5970 H   0  0  0  0  0  0  0  0  0  0  0  0
  144.8562  130.8209  151.3553 H   0  0  0  0  0  0  0  0  0  0  0  0
  1  2  1  0  0  0  0
  1 23  1  0  0  0  0
  1 24  1  0  0  0  0
  1 25  1  0  0  0  0
  2 22  1  0  0  0  0
  2  3  2  0  0  0  0
  3  4  1  0  0  0  0
  4  5  1  0  0  0  0
  4  6  2  0  0  0  0
  5 26  1  0  0  0  0
  5 27  1  0  0  0  0
  5 28  1  0  0  0  0
  6  7  1  0  0  0  0
  6 20  1  0  0  0  0
  7  8  1  0  0  0  0
  7 29  1  0  0  0  0
  7 30  1  0  0  0  0
  8  9  2  0  0  0  0
  8 10  1  0  0  0  0
 10 11  1  0  0  0  0
 10 31  1  0  0  0  0
 11 12  1  0  0  0  0
 11 13  1  0  0  0  0
 11 32  1  0  0  0  0
 12 33  1  0  0  0  0
 12 34  1  0  0  0  0
 12 35  1  0  0  0  0
 13 18  1  0  0  0  0
 13 14  1  0  0  0  0
 13 36  1  0  0  0  0
 14 15  1  0  0  0  0
 14 37  1  0  0  0  0
 14 38  1  0  0  0  0
 15 19  1  0  0  0  0
 15 16  1  0  0  0  0
 15 39  1  0  0  0  0
 16 17  1  0  0  0  0
 16 40  1  0  0  0  0
 16 41  1  0  0  0  0
 17 18  1  0  0  0  0
 17 42  1  0  0  0  0
 17 43  1  0  0  0  0
 18 19  1  0  0  0  0
 18 44  1  0  0  0  0
 19 45  1  0  0  0  0
 19 46  1  0  0  0  0
 20 21  2  0  0  0  0
 20 22  1  0  0  0  0
M  CHG  1  22  -1
M  END
> <s_m_source_file>
AV-unprocessed.smi

> <i_m_source_file_index>
2124

> <i_lp_mmshare_version>
43012

> <i_f3d_flags>
0

> <s_epik_input>
W0NIM11jMW5jKFtDSDNdKWMoYyg9TylbbkhdMSlbQ0gyXUMoPU8pW05IXVtDQEhdKFtDSDNdKVtDQEhdKFtDSDJdW0NASF0yMylbQ0BIXShbQ0gyXTMpW0NIMl1bQ0gyXTI=

> <s_epik_cmdline>
J2VwaWtfcHl0aG9uJywgJy1waCcsICc3LjAnLCAnLXRuJywgJzgnLCAnLW1hJywgJzIwMCcsICctbWV0YWxfYmluZGluZycsICctaW1hZScsICc8aW5maWxlLm1hZT4nLCAnLW9tYWUnLCAnPG91dGZpbGUubWFlPic=

> <r_lp_tautomer_probability>
0.839158

> <r_epik_Ionization_Penalty>
6.63797

> <r_epik_Ionization_Penalty_Charging>
7.48558e-08

> <r_epik_Ionization_Penalty_Neutral>
6.63797

> <r_epik_State_Penalty>
4.49496

> <r_epik_Charging_Adjusted_Penalty>
4.49496

> <i_epik_Tot_Q>
-1

> <i_epik_Tot_abs_Q>
1

> <r_epik_Metal_State_Penalty>
0.841241

> <b_epik_Metal_Only>
1

> <s_lp_Force_Field>
OPLS_2005

> <r_lp_Energy>
55.5878

> <b_lp_Chiralities_Consistent>
1

> <s_lp_Variant>
AV-unprocessed.smi:2124-22

> <Gold.Version>
5.8.1

> <Gold.Id.Protein>
6NUR|6NUR_protein|mol2

> <Gold.PLP.Fitness>
39.8652

> <Gold.PLP.PLP>
-32.1109

> <Gold.PLP.part.hbond>
-3.0000

> <Gold.PLP.part.metal>
0.0000

> <Gold.PLP.part.buried>
-4.5391

> <Gold.PLP.part.nonpolar>
-25.8731

> <Gold.PLP.part.repulsive>
1.4493

> <Gold.PLP.ligand.clash>
0.0000

> <Gold.PLP.ligand.torsion>
0.6442

> <Gold.PLP.Chemscore.Hbond>
2.9913

> <Gold.PLP.Chemscore.CHOScore>
0.0000

> <Gold.PLP.Chemscore.Metal>
0.0000

> <Gold.Chemscore.Hbonds>
donor molecule, donor type, donor heavy atom, donor atom, acceptor molecule, acceptor atom, score
      L1  H    10    31       P1  7948  1.00
      P1  H  6896  6907       L1     3  0.90
      P1  H 10752 10763       L1    21  1.00

> <Gold.PLP.Chemscore.Internal.Correction>
0.0690

> <Gold.Rescore>
     Score         DG    S(hbond)    S(metal)    S(lipo)     H(rot)  DE(clash)    DE(int)     intcor
     14.74     -17.72       1.95        0.00      84.00       1.61       1.18       1.79       ----

> <Gold.Chemscore.Fitness>
14.7420

> <Gold.Chemscore.DG>
-17.7183

> <Gold.Chemscore.ZeroCoef>
-5.4800

> <Gold.Chemscore.Hbond>
1.9518

> <Gold.Chemscore.Metal>
0.0000

> <Gold.Chemscore.Lipo>
84.0022

> <Gold.Chemscore.Internal_Hbond>
0.0000

> <Gold.Chemscore.DEClash>
1.1824

> <Gold.Chemscore.DEInternal>
1.7939

> <Gold.Chemscore.Rot>
1.6051

> <Gold.Chemscore.Internal.Correction>
   9.000000E+99

> <Gold.Chemscore.Hbonds>
donor molecule, donor type, donor heavy atom, donor atom, acceptor molecule, acceptor atom, score
      L1  H    10    31       P1  7948  0.96
      P1  H  6896  6907       L1     3  0.17
      P1  H 10752 10763       L1    21  0.24

> <Gold.Chemscore.Hbond.Weighted>
-6.5190

> <Gold.Chemscore.Metal.Weighted>
-0.0000

> <Gold.Chemscore.Lipo.Weighted>
-9.8283

> <Gold.Chemscore.Internal_Hbond.Weighted>
0.0000

> <Gold.Chemscore.DEClash.Weighted>
1.1824

> <Gold.Chemscore.DEInternal.Weighted>
1.7939

> <Gold.Chemscore.Rot.Weighted>
4.1090

> <Gold.Chemscore.Internal.Correction.Weighted>
   9.000000E+99

> <Gold.Protein.RotatedTorsions>
[ 6907 6896 6895 6894 ] final  -61.05 input  -60.11 | X-H torsion
[ 7974 7965 7964 7962 ] final -144.88 input  175.53 | X-H torsion
[ 8008 7997 7996 7995 ] final   52.86 input   59.86 | X-H torsion
[ 10167 10162 10161 10158 ] final  -83.54 input  -65.29 | X-H torsion
[ 10718 10713 10712 10709 ] final -137.16 input   66.30 | X-H torsion
[ 10763 10752 10751 10750 ] final   59.77 input  -60.55 | X-H torsion
[ 11005 11000 10999 10996 ] final    8.80 input  -57.11 | X-H torsion

> <Gold.Protein.ActiveResidues>
 VAL166  LYS551  ARG553  GLY616  TRP617  ASP618  TYR619  PRO620  LYS621  CYS622 
 ASP623  PHE694  ASN695  SER759  ASP760  ASP761  ALA762  ILE779  LEU786  VAL792 
 PHE793  MET794  SER795  GLU796  ALA797  LYS798  CYS799  TRP800  GLU811  SER814 

> <Gold.Protein.RotatedAtoms>
  150.7812  134.6756  159.6415 H   0  0  0  0  0  0  0  0  0  0  0  0  # atno 6907 bound_to 6896
  152.3897  134.6458  160.0121 H   0  0  0  0  0  0  0  0  0  0  0  0  # atno 6908 bound_to 6896
  151.6762  133.3276  159.3244 H   0  0  0  0  0  0  0  0  0  0  0  0  # atno 6909 bound_to 6896
  144.8266  140.5654  143.5543 H   0  0  0  0  0  0  0  0  0  0  0  0  # atno 7974 bound_to 7965
  155.4587  140.3461  155.4310 H   0  0  0  0  0  0  0  0  0  0  0  0  # atno 8008 bound_to 7997
  156.1174  140.1477  156.9282 H   0  0  0  0  0  0  0  0  0  0  0  0  # atno 8009 bound_to 7997
  154.4799  140.0873  156.7331 H   0  0  0  0  0  0  0  0  0  0  0  0  # atno 8010 bound_to 7997
  140.4217  143.2582  151.8881 H   0  0  0  0  0  0  0  0  0  0  0  0  # atno 10167 bound_to 10162
  156.2850  130.7342  151.1351 H   0  0  0  0  0  0  0  0  0  0  0  0  # atno 10718 bound_to 10713
  152.9903  135.5560  154.5767 H   0  0  0  0  0  0  0  0  0  0  0  0  # atno 10763 bound_to 10752
  154.5157  135.2805  155.1307 H   0  0  0  0  0  0  0  0  0  0  0  0  # atno 10764 bound_to 10752
  154.2681  135.6368  153.5352 H   0  0  0  0  0  0  0  0  0  0  0  0  # atno 10765 bound_to 10752
  140.5329  134.0449  155.7879 H   0  0  0  0  0  0  0  0  0  0  0  0  # atno 11005 bound_to 11000
  145.4987  139.1484  143.3669 LP  0  0  0  0  0  0  0  0  0  0  0  0  # atno 17320 bound_to 7965
  146.2571  140.5126  142.8869 LP  0  0  0  0  0  0  0  0  0  0  0  0  # atno 17321 bound_to 7965
  139.4783  144.5430  151.8500 LP  0  0  0  0  0  0  0  0  0  0  0  0  # atno 17342 bound_to 10162
  140.4526  144.1834  150.5899 LP  0  0  0  0  0  0  0  0  0  0  0  0  # atno 17343 bound_to 10162
  157.7326  131.0598  150.5620 LP  0  0  0  0  0  0  0  0  0  0  0  0  # atno 17370 bound_to 10713
  156.5730  130.4285  149.6011 LP  0  0  0  0  0  0  0  0  0  0  0  0  # atno 17371 bound_to 10713
  141.1271  133.9364  157.2612 LP  0  0  0  0  0  0  0  0  0  0  0  0  # atno 17394 bound_to 11000
  139.9545  135.0168  156.9088 LP  0  0  0  0  0  0  0  0  0  0  0  0  # atno 17395 bound_to 11000

$$$$
