AV-unprocessed.smi:3116|AV-procd|sdf|11877|dock5
  -GOLD-   2272017263D 1   1.00000     0.00000
 Structure written by MMmdl.
 33 33  0  0  0  0  0  0  0  0  1 V2000
  151.5138  140.0206  155.6178 C   0  0  0  0  0  0  0  0  0  0  0  0
  150.4326  141.0039  156.0949 C   0  0  1  0  0  0  0  0  0  0  0  0
  151.0721  142.1274  156.8086 N   0  0  0  0  0  0  0  0  0  0  0  0
  151.1932  142.0244  158.2657 C   0  0  1  0  0  0  0  0  0  0  0  0
  151.6140  140.5864  158.6400 C   0  0  0  0  0  0  0  0  0  0  0  0
  152.2095  143.1038  158.7302 C   0  0  1  0  0  0  0  0  0  0  0  0
  151.7811  144.5277  158.3224 C   0  0  0  0  0  0  0  0  0  0  0  0
  152.4605  143.0488  160.1659 N   0  0  0  0  0  0  0  0  0  0  0  0
  153.0453  142.0300  160.8896 C   0  0  0  0  0  0  0  0  0  0  0  0
  153.0636  142.4156  162.1993 C   0  0  0  0  0  0  0  0  0  0  0  0
  152.4604  143.7039  162.1801 C   0  0  0  0  0  0  0  0  0  0  0  0
  152.0991  144.0796  160.9641 N   0  0  0  0  0  0  0  0  0  0  0  0
  149.5522  141.4443  154.9136 C   0  0  0  0  0  0  0  0  0  0  0  0
  148.5354  142.2660  155.1855 N   0  0  0  0  0  0  0  0  0  0  0  0
  149.7990  141.0652  153.7702 O   0  0  0  0  0  0  0  0  0  0  0  0
  151.0745  139.1708  155.0939 H   0  0  0  0  0  0  0  0  0  0  0  0
  152.0800  139.6241  156.4612 H   0  0  0  0  0  0  0  0  0  0  0  0
  152.2230  140.4988  154.9406 H   0  0  0  0  0  0  0  0  0  0  0  0
  149.8060  140.4595  156.8022 H   0  0  0  0  0  0  0  0  0  0  0  0
  151.9666  142.3675  156.4067 H   0  0  0  0  0  0  0  0  0  0  0  0
  150.2426  142.2417  158.7526 H   0  0  0  0  0  0  0  0  0  0  0  0
  151.7015  140.4598  159.7189 H   0  0  0  0  0  0  0  0  0  0  0  0
  152.5764  140.3268  158.1980 H   0  0  0  0  0  0  0  0  0  0  0  0
  150.8841  139.8492  158.3076 H   0  0  0  0  0  0  0  0  0  0  0  0
  153.1661  142.8987  158.2462 H   0  0  0  0  0  0  0  0  0  0  0  0
  151.7090  144.6287  157.2394 H   0  0  0  0  0  0  0  0  0  0  0  0
  152.5027  145.2676  158.6694 H   0  0  0  0  0  0  0  0  0  0  0  0
  150.8090  144.7891  158.7417 H   0  0  0  0  0  0  0  0  0  0  0  0
  153.3948  141.1236  160.4177 H   0  0  0  0  0  0  0  0  0  0  0  0
  153.4492  141.8618  163.0421 H   0  0  0  0  0  0  0  0  0  0  0  0
  152.2750  144.3721  163.0079 H   0  0  0  0  0  0  0  0  0  0  0  0
  147.9279  142.5793  154.4427 H   0  0  0  0  0  0  0  0  0  0  0  0
  148.3765  142.5680  156.1357 H   0  0  0  0  0  0  0  0  0  0  0  0
  1  2  1  0  0  0  0
  1 16  1  0  0  0  0
  1 17  1  0  0  0  0
  1 18  1  0  0  0  0
  2  3  1  0  0  0  0
  2 13  1  0  0  0  0
  2 19  1  0  0  0  0
  3  4  1  0  0  0  0
  3 20  1  0  0  0  0
  4  5  1  0  0  0  0
  4  6  1  0  0  0  0
  4 21  1  0  0  0  0
  5 22  1  0  0  0  0
  5 23  1  0  0  0  0
  5 24  1  0  0  0  0
  6  7  1  0  0  0  0
  6  8  1  0  0  0  0
  6 25  1  0  0  0  0
  7 26  1  0  0  0  0
  7 27  1  0  0  0  0
  7 28  1  0  0  0  0
  8 12  1  0  0  0  0
  8  9  1  0  0  0  0
  9 10  2  0  0  0  0
  9 29  1  0  0  0  0
 10 11  1  0  0  0  0
 10 30  1  0  0  0  0
 11 12  2  0  0  0  0
 11 31  1  0  0  0  0
 13 14  1  0  0  0  0
 13 15  2  0  0  0  0
 14 32  1  0  0  0  0
 14 33  1  0  0  0  0
M  END
> <s_m_source_file>
AV-unprocessed.smi

> <i_m_source_file_index>
3116

> <i_lp_mmshare_version>
43012

> <i_f3d_flags>
0

> <s_epik_input>
W05IMl1DKD1PKVtDQEhdKFtDSDNdKVtOSF1bQ0BIXShbQ0gzXSlbQ0BIXShbQ0gzXSluMVtjSF1bY0hdW2NIXW4x

> <s_epik_cmdline>
J2VwaWtfcHl0aG9uJywgJy1waCcsICc3LjAnLCAnLXRuJywgJzgnLCAnLW1hJywgJzIwMCcsICctbWV0YWxfYmluZGluZycsICctaW1hZScsICc8aW5maWxlLm1hZT4nLCAnLW9tYWUnLCAnPG91dGZpbGUubWFlPic=

> <r_lp_tautomer_probability>
1

> <r_epik_Ionization_Penalty>
0.865977

> <r_epik_Ionization_Penalty_Charging>
0

> <r_epik_Ionization_Penalty_Neutral>
0.865977

> <r_epik_State_Penalty>
0.901888

> <r_epik_Charging_Adjusted_Penalty>
0.901888

> <i_epik_Tot_Q>
0

> <i_epik_Tot_abs_Q>
0

> <r_epik_Metal_State_Penalty>
0.901181

> <b_epik_Metal_Only>
0

> <s_lp_Force_Field>
OPLS_2005

> <r_lp_Energy>
8.45698

> <b_lp_Chiralities_Consistent>
1

> <s_lp_Variant>
AV-unprocessed.smi:3116-16

> <Gold.Version>
5.8.1

> <Gold.Id.Protein>
6NUR|6NUR_protein|mol2

> <Gold.PLP.Fitness>
42.1458

> <Gold.PLP.PLP>
-39.8328

> <Gold.PLP.part.hbond>
-2.9599

> <Gold.PLP.part.metal>
0.0000

> <Gold.PLP.part.buried>
-4.6724

> <Gold.PLP.part.nonpolar>
-33.9672

> <Gold.PLP.part.repulsive>
1.9554

> <Gold.PLP.ligand.clash>
0.0000

> <Gold.PLP.ligand.torsion>
0.7552

> <Gold.PLP.Chemscore.Hbond>
1.2480

> <Gold.PLP.Chemscore.CHOScore>
0.0000

> <Gold.PLP.Chemscore.Metal>
0.0000

> <Gold.Chemscore.Hbonds>
donor molecule, donor type, donor heavy atom, donor atom, acceptor molecule, acceptor atom, score
      P1  H  7989  7998       L1    15  0.34
      P1  H  8011  8017       L1    15  0.90

> <Gold.PLP.Chemscore.Internal.Correction>
0.0794

> <Gold.Rescore>
     Score         DG    S(hbond)    S(metal)    S(lipo)     H(rot)  DE(clash)    DE(int)     intcor
     10.52     -12.39       0.90        0.00      85.56       2.38       0.04       1.83       ----

> <Gold.Chemscore.Fitness>
10.5216

> <Gold.Chemscore.DG>
-12.3924

> <Gold.Chemscore.ZeroCoef>
-5.4800

> <Gold.Chemscore.Hbond>
0.8995

> <Gold.Chemscore.Metal>
0.0000

> <Gold.Chemscore.Lipo>
85.5571

> <Gold.Chemscore.Internal_Hbond>
0.0000

> <Gold.Chemscore.DEClash>
0.0392

> <Gold.Chemscore.DEInternal>
1.8316

> <Gold.Chemscore.Rot>
2.3836

> <Gold.Chemscore.Internal.Correction>
   9.000000E+99

> <Gold.Chemscore.Hbonds>
donor molecule, donor type, donor heavy atom, donor atom, acceptor molecule, acceptor atom, score
      P1  H  7989  7998       L1    15  0.28
      P1  H  8011  8017       L1    15  0.83

> <Gold.Chemscore.Hbond.Weighted>
-3.0042

> <Gold.Chemscore.Metal.Weighted>
-0.0000

> <Gold.Chemscore.Lipo.Weighted>
-10.0102

> <Gold.Chemscore.Internal_Hbond.Weighted>
0.0000

> <Gold.Chemscore.DEClash.Weighted>
0.0392

> <Gold.Chemscore.DEInternal.Weighted>
1.8316

> <Gold.Chemscore.Rot.Weighted>
6.1020

> <Gold.Chemscore.Internal.Correction.Weighted>
   9.000000E+99

> <Gold.Protein.RotatedTorsions>
[ 6907 6896 6895 6894 ] final  167.05 input  -60.11 | X-H torsion
[ 7974 7965 7964 7962 ] final  120.29 input  175.53 | X-H torsion
[ 8008 7997 7996 7995 ] final   51.16 input   59.86 | X-H torsion
[ 10167 10162 10161 10158 ] final   29.38 input  -65.29 | X-H torsion
[ 10718 10713 10712 10709 ] final  -25.31 input   66.30 | X-H torsion
[ 10763 10752 10751 10750 ] final   46.60 input  -60.55 | X-H torsion
[ 11005 11000 10999 10996 ] final   -2.65 input  -57.11 | X-H torsion

> <Gold.Protein.ActiveResidues>
 VAL166  LYS551  ARG553  GLY616  TRP617  ASP618  TYR619  PRO620  LYS621  CYS622 
 ASP623  PHE694  ASN695  SER759  ASP760  ASP761  ALA762  ILE779  LEU786  VAL792 
 PHE793  MET794  SER795  GLU796  ALA797  LYS798  CYS799  TRP800  GLU811  SER814 

> <Gold.Protein.RotatedAtoms>
  151.8693  133.3472  159.3729 H   0  0  0  0  0  0  0  0  0  0  0  0  # atno 6907 bound_to 6896
  150.7157  134.5128  159.5625 H   0  0  0  0  0  0  0  0  0  0  0  0  # atno 6908 bound_to 6896
  152.2658  134.7986  160.0474 H   0  0  0  0  0  0  0  0  0  0  0  0  # atno 6909 bound_to 6896
  145.1329  139.3316  143.4655 H   0  0  0  0  0  0  0  0  0  0  0  0  # atno 7974 bound_to 7965
  155.4308  140.3450  155.4280 H   0  0  0  0  0  0  0  0  0  0  0  0  # atno 8008 bound_to 7997
  156.1338  140.1522  156.9057 H   0  0  0  0  0  0  0  0  0  0  0  0  # atno 8009 bound_to 7997
  154.4915  140.0840  156.7585 H   0  0  0  0  0  0  0  0  0  0  0  0  # atno 8010 bound_to 7997
  140.4770  144.0674  150.6254 H   0  0  0  0  0  0  0  0  0  0  0  0  # atno 10167 bound_to 10162
  156.4661  130.4514  149.6898 H   0  0  0  0  0  0  0  0  0  0  0  0  # atno 10718 bound_to 10713
  152.9809  135.6003  154.3627 H   0  0  0  0  0  0  0  0  0  0  0  0  # atno 10763 bound_to 10752
  154.3307  135.2768  155.2475 H   0  0  0  0  0  0  0  0  0  0  0  0  # atno 10764 bound_to 10752
  154.4600  135.5968  153.6305 H   0  0  0  0  0  0  0  0  0  0  0  0  # atno 10765 bound_to 10752
  140.6607  133.9323  155.8434 H   0  0  0  0  0  0  0  0  0  0  0  0  # atno 11005 bound_to 11000
  146.3512  140.1336  142.8596 LP  0  0  0  0  0  0  0  0  0  0  0  0  # atno 17320 bound_to 7965
  145.0615  140.9091  143.4936 LP  0  0  0  0  0  0  0  0  0  0  0  0  # atno 17321 bound_to 7965
  140.3905  143.2755  152.0065 LP  0  0  0  0  0  0  0  0  0  0  0  0  # atno 17342 bound_to 10162
  139.4827  144.6081  151.7484 LP  0  0  0  0  0  0  0  0  0  0  0  0  # atno 17343 bound_to 10162
  156.3666  130.7509  151.2488 LP  0  0  0  0  0  0  0  0  0  0  0  0  # atno 17370 bound_to 10713
  157.7494  131.0335  150.4274 LP  0  0  0  0  0  0  0  0  0  0  0  0  # atno 17371 bound_to 10713
  141.0467  134.0543  157.3835 LP  0  0  0  0  0  0  0  0  0  0  0  0  # atno 17394 bound_to 11000
  139.9014  135.0166  156.7285 LP  0  0  0  0  0  0  0  0  0  0  0  0  # atno 17395 bound_to 11000

$$$$
