AV-unprocessed.smi:2629|AV-procd|sdf|10245|dock2
  -GOLD-   2272014253D 1   1.00000     0.00000
 Structure written by MMmdl.
 23 24  0  0  0  0  0  0  0  0  2 V2000
  152.8647  137.5666  154.7777 O   0  0  0  0  0  0  0  0  0  0  0  0
  152.5432  138.5198  155.4836 C   0  0  0  0  0  0  0  0  0  0  0  0
  153.1939  138.7096  156.8365 N   0  0  0  0  0  0  0  0  0  0  0  0
  152.8642  139.6856  157.5596 N   0  0  0  0  0  0  0  0  0  0  0  0
  151.9003  140.6445  157.1780 C   0  0  0  0  0  0  0  0  0  0  0  0
  151.6697  141.6476  158.1212 N   0  0  0  0  0  0  0  0  0  0  0  0
  150.9822  142.9039  157.8435 C   0  0  0  0  0  0  0  0  0  0  0  0
  151.9747  144.0757  157.9247 C   0  0  0  0  0  0  0  0  0  0  0  0
  152.5674  144.0983  159.2204 O   0  0  0  0  0  0  0  0  0  0  0  0
  153.2664  142.8911  159.5126 C   0  0  0  0  0  0  0  0  0  0  0  0
  152.2982  141.6961  159.4393 C   0  0  0  0  0  0  0  0  0  0  0  0
  151.2789  140.5014  155.9422 C   0  0  0  0  0  0  0  0  0  0  0  0
  150.4202  141.1347  155.2888 O   0  5  0  0  0  0  0  0  0  0  0  0
  151.6263  139.4323  155.1267 N   0  0  0  0  0  0  0  0  0  0  0  0
  150.1917  143.0394  158.5827 H   0  0  0  0  0  0  0  0  0  0  0  0
  150.4846  142.8848  156.8755 H   0  0  0  0  0  0  0  0  0  0  0  0
  152.7457  143.9875  157.1575 H   0  0  0  0  0  0  0  0  0  0  0  0
  151.4583  145.0202  157.7544 H   0  0  0  0  0  0  0  0  0  0  0  0
  154.0939  142.7607  158.8133 H   0  0  0  0  0  0  0  0  0  0  0  0
  153.6996  142.9649  160.5100 H   0  0  0  0  0  0  0  0  0  0  0  0
  152.8407  140.7785  159.6644 H   0  0  0  0  0  0  0  0  0  0  0  0
  151.5222  141.7931  160.1993 H   0  0  0  0  0  0  0  0  0  0  0  0
  151.1601  139.3559  154.2348 H   0  0  0  0  0  0  0  0  0  0  0  0
  1  2  2  0  0  0  0
  2 14  1  0  0  0  0
  2  3  1  0  0  0  0
  3  4  2  0  0  0  0
  4  5  1  0  0  0  0
  5 12  2  0  0  0  0
  5  6  1  0  0  0  0
  6 11  1  0  0  0  0
  6  7  1  0  0  0  0
  7  8  1  0  0  0  0
  7 15  1  0  0  0  0
  7 16  1  0  0  0  0
  8  9  1  0  0  0  0
  8 17  1  0  0  0  0
  8 18  1  0  0  0  0
  9 10  1  0  0  0  0
 10 11  1  0  0  0  0
 10 19  1  0  0  0  0
 10 20  1  0  0  0  0
 11 21  1  0  0  0  0
 11 22  1  0  0  0  0
 12 13  1  0  0  0  0
 12 14  1  0  0  0  0
 14 23  1  0  0  0  0
M  CHG  1  13  -1
M  END
> <s_m_source_file>
AV-unprocessed.smi

> <i_m_source_file_index>
2629

> <i_lp_mmshare_version>
43012

> <i_f3d_flags>
0

> <s_epik_input>
Tz1jMVtuSF1uYyhjKD1PKVtuSF0xKU4yW0NIMl1bQ0gyXU9bQ0gyXVtDSDJdMg==

> <s_epik_cmdline>
J2VwaWtfcHl0aG9uJywgJy1waCcsICc3LjAnLCAnLXRuJywgJzgnLCAnLW1hJywgJzIwMCcsICctbWV0YWxfYmluZGluZycsICctaW1hZScsICc8aW5maWxlLm1hZT4nLCAnLW9tYWUnLCAnPG91dGZpbGUubWFlPic=

> <r_lp_tautomer_probability>
1

> <r_epik_Ionization_Penalty>
0.519034

> <r_epik_Ionization_Penalty_Charging>
1.15035e-06

> <r_epik_Ionization_Penalty_Neutral>
0.519033

> <r_epik_State_Penalty>
0

> <r_epik_Charging_Adjusted_Penalty>
1.15035e-06

> <i_epik_Tot_Q>
-1

> <i_epik_Tot_abs_Q>
1

> <r_epik_Metal_State_Penalty>
8.21436e-06

> <b_epik_Metal_Only>
1

> <s_epik_pKa_notes>
Reset negative state penalty to 0 from Metal Processing

> <s_lp_Force_Field>
OPLS_2005

> <r_lp_Energy>
19.1466

> <b_lp_Chiralities_Consistent>
1

> <s_lp_Variant>
AV-unprocessed.smi:2629-2

> <Gold.Version>
5.8.1

> <Gold.Id.Protein>
6NUR|6NUR_protein|mol2

> <Gold.PLP.Fitness>
30.5369

> <Gold.PLP.PLP>
-28.7648

> <Gold.PLP.part.hbond>
-4.0000

> <Gold.PLP.part.metal>
0.0000

> <Gold.PLP.part.buried>
-4.7636

> <Gold.PLP.part.nonpolar>
-20.6889

> <Gold.PLP.part.repulsive>
0.4947

> <Gold.PLP.ligand.clash>
0.0000

> <Gold.PLP.ligand.torsion>
0.0587

> <Gold.PLP.Chemscore.Hbond>
0.6185

> <Gold.PLP.Chemscore.CHOScore>
0.0000

> <Gold.PLP.Chemscore.Metal>
0.0000

> <Gold.Chemscore.Hbonds>
donor molecule, donor type, donor heavy atom, donor atom, acceptor molecule, acceptor atom, score
      P1  H  7989  7998       L1    13  0.22
      P1  H 10752 10764       L1     1  0.37

> <Gold.PLP.Chemscore.Internal.Correction>
0.0339

> <Gold.Rescore>
     Score         DG    S(hbond)    S(metal)    S(lipo)     H(rot)  DE(clash)    DE(int)     intcor
     13.35     -13.42       0.83        0.00      44.10       0.00       0.01       0.06       ----

> <Gold.Chemscore.Fitness>
13.3476

> <Gold.Chemscore.DG>
-13.4158

> <Gold.Chemscore.ZeroCoef>
-5.4800

> <Gold.Chemscore.Hbond>
0.8311

> <Gold.Chemscore.Metal>
0.0000

> <Gold.Chemscore.Lipo>
44.1002

> <Gold.Chemscore.Internal_Hbond>
0.0000

> <Gold.Chemscore.DEClash>
0.0077

> <Gold.Chemscore.DEInternal>
0.0604

> <Gold.Chemscore.Rot>
0.0000

> <Gold.Chemscore.Internal.Correction>
   9.000000E+99

> <Gold.Chemscore.Hbonds>
donor molecule, donor type, donor heavy atom, donor atom, acceptor molecule, acceptor atom, score
      P1  H  7989  7998       L1    13  0.01
      P1  H 10752 10764       L1     1  0.36

> <Gold.Chemscore.Hbond.Weighted>
-2.7760

> <Gold.Chemscore.Metal.Weighted>
-0.0000

> <Gold.Chemscore.Lipo.Weighted>
-5.1597

> <Gold.Chemscore.Internal_Hbond.Weighted>
0.0000

> <Gold.Chemscore.DEClash.Weighted>
0.0077

> <Gold.Chemscore.DEInternal.Weighted>
0.0604

> <Gold.Chemscore.Rot.Weighted>
0.0000

> <Gold.Chemscore.Internal.Correction.Weighted>
   9.000000E+99

> <Gold.Protein.RotatedTorsions>
[ 6907 6896 6895 6894 ] final   47.71 input  -60.11 | X-H torsion
[ 7974 7965 7964 7962 ] final   36.97 input  175.53 | X-H torsion
[ 8008 7997 7996 7995 ] final  -78.13 input   59.86 | X-H torsion
[ 10167 10162 10161 10158 ] final -136.72 input  -65.29 | X-H torsion
[ 10718 10713 10712 10709 ] final  134.82 input   66.30 | X-H torsion
[ 10763 10752 10751 10750 ] final  -77.71 input  -60.55 | X-H torsion
[ 11005 11000 10999 10996 ] final -126.85 input  -57.11 | X-H torsion

> <Gold.Protein.ActiveResidues>
 VAL166  LYS551  ARG553  GLY616  TRP617  ASP618  TYR619  PRO620  LYS621  CYS622 
 ASP623  PHE694  ASN695  SER759  ASP760  ASP761  ALA762  ILE779  LEU786  VAL792 
 PHE793  MET794  SER795  GLU796  ALA797  LYS798  CYS799  TRP800  GLU811  SER814 

> <Gold.Protein.RotatedAtoms>
  152.2711  134.7931  160.0413 H   0  0  0  0  0  0  0  0  0  0  0  0  # atno 6907 bound_to 6896
  151.8543  133.3440  159.3691 H   0  0  0  0  0  0  0  0  0  0  0  0  # atno 6908 bound_to 6896
  150.7152  134.5196  159.5691 H   0  0  0  0  0  0  0  0  0  0  0  0  # atno 6909 bound_to 6896
  146.1172  139.5951  142.9314 H   0  0  0  0  0  0  0  0  0  0  0  0  # atno 7974 bound_to 7965
  154.5661  140.0699  156.8893 H   0  0  0  0  0  0  0  0  0  0  0  0  # atno 8008 bound_to 7997
  155.2721  140.3366  155.4246 H   0  0  0  0  0  0  0  0  0  0  0  0  # atno 8009 bound_to 7997
  156.2081  140.1748  156.7740 H   0  0  0  0  0  0  0  0  0  0  0  0  # atno 8010 bound_to 7997
  139.8650  143.7029  152.2646 H   0  0  0  0  0  0  0  0  0  0  0  0  # atno 10167 bound_to 10162
  157.4634  131.1075  150.9892 H   0  0  0  0  0  0  0  0  0  0  0  0  # atno 10718 bound_to 10713
  154.5164  135.5755  153.6646 H   0  0  0  0  0  0  0  0  0  0  0  0  # atno 10763 bound_to 10752
  152.9908  135.6171  154.2811 H   0  0  0  0  0  0  0  0  0  0  0  0  # atno 10764 bound_to 10752
  154.2729  135.2853  155.2710 H   0  0  0  0  0  0  0  0  0  0  0  0  # atno 10765 bound_to 10752
  140.9647  134.0888  157.3932 H   0  0  0  0  0  0  0  0  0  0  0  0  # atno 11005 bound_to 11000
  145.5542  141.0410  143.2261 LP  0  0  0  0  0  0  0  0  0  0  0  0  # atno 17320 bound_to 7965
  144.7563  139.7065  143.7252 LP  0  0  0  0  0  0  0  0  0  0  0  0  # atno 17321 bound_to 7965
  139.7338  144.7576  151.0760 LP  0  0  0  0  0  0  0  0  0  0  0  0  # atno 17342 bound_to 10162
  140.7769  143.5056  150.9716 LP  0  0  0  0  0  0  0  0  0  0  0  0  # atno 17343 bound_to 10162
  157.0681  130.5853  149.5397 LP  0  0  0  0  0  0  0  0  0  0  0  0  # atno 17370 bound_to 10713
  156.0039  130.5123  150.7761 LP  0  0  0  0  0  0  0  0  0  0  0  0  # atno 17371 bound_to 10713
  139.8890  135.0102  156.6655 LP  0  0  0  0  0  0  0  0  0  0  0  0  # atno 17394 bound_to 11000
  140.7416  133.8973  155.8282 LP  0  0  0  0  0  0  0  0  0  0  0  0  # atno 17395 bound_to 11000

$$$$
