AV-unprocessed.smi:2515|AV-procd|sdf|9897|dock2
  -GOLD-   2272013533D 1   1.00000     0.00000
 Structure written by MMmdl.
 36 37  0  0  0  0  0  0  0  0  1 V2000
  151.6748  141.4206  158.2595 N   0  0  0  0  0  0  0  0  0  0  0  0
  151.3794  140.5790  157.5227 C   0  0  0  0  0  0  0  0  0  0  0  0
  151.0115  139.5434  156.6172 C   0  0  0  0  0  0  0  0  0  0  0  0
  150.7752  139.7935  155.2664 N   0  0  0  0  0  0  0  0  0  0  0  0
  150.4653  138.6095  154.7445 C   0  0  0  0  0  0  0  0  0  0  0  0
  150.1637  138.3923  153.4082 N   0  0  0  0  0  0  0  0  0  0  0  0
  150.4684  137.5933  155.6298 N   0  0  0  0  0  0  0  0  0  0  0  0
  150.1817  136.1840  155.3913 C   0  0  0  0  0  0  0  0  0  0  0  0
  148.7273  135.9762  154.9369 C   0  0  0  0  0  0  0  0  0  0  0  0
  148.6284  134.9262  153.9311 N   0  0  0  0  0  0  0  0  0  0  0  0
  148.7966  133.6168  154.1730 C   0  0  0  0  0  0  0  0  0  0  0  0
  149.0598  133.1708  155.2906 O   0  0  0  0  0  0  0  0  0  0  0  0
  148.6352  132.6731  152.9683 C   0  0  0  0  0  0  0  0  0  0  0  0
  147.2503  132.7952  152.3141 C   0  0  0  0  0  0  0  0  0  0  0  0
  146.3427  131.7748  153.0164 C   0  0  0  0  0  0  0  0  0  0  0  0
  147.2700  130.7810  153.7305 C   0  0  0  0  0  0  0  0  0  0  0  0
  148.7031  131.1930  153.3725 C   0  0  0  0  0  0  0  0  0  0  0  0
  150.8262  138.1946  156.8333 C   0  0  0  0  0  0  0  0  0  0  0  0
  150.9755  137.5121  158.0596 C   0  0  0  0  0  0  0  0  0  0  0  0
  151.0975  136.9541  159.0653 N   0  0  0  0  0  0  0  0  0  0  0  0
  150.1644  139.1500  152.7404 H   0  0  0  0  0  0  0  0  0  0  0  0
  149.9233  137.4750  153.0613 H   0  0  0  0  0  0  0  0  0  0  0  0
  150.8785  135.8098  154.6406 H   0  0  0  0  0  0  0  0  0  0  0  0
  150.3842  135.6140  156.2986 H   0  0  0  0  0  0  0  0  0  0  0  0
  148.1070  135.6964  155.7887 H   0  0  0  0  0  0  0  0  0  0  0  0
  148.3109  136.9055  154.5433 H   0  0  0  0  0  0  0  0  0  0  0  0
  148.4156  135.2129  152.9865 H   0  0  0  0  0  0  0  0  0  0  0  0
  149.4159  132.9000  152.2403 H   0  0  0  0  0  0  0  0  0  0  0  0
  146.8407  133.8053  152.3666 H   0  0  0  0  0  0  0  0  0  0  0  0
  147.3312  132.5415  151.2563 H   0  0  0  0  0  0  0  0  0  0  0  0
  145.7025  132.2735  153.7454 H   0  0  0  0  0  0  0  0  0  0  0  0
  145.6897  131.2738  152.3009 H   0  0  0  0  0  0  0  0  0  0  0  0
  147.1200  130.8494  154.8088 H   0  0  0  0  0  0  0  0  0  0  0  0
  147.0660  129.7498  153.4403 H   0  0  0  0  0  0  0  0  0  0  0  0
  149.0477  130.6053  152.5206 H   0  0  0  0  0  0  0  0  0  0  0  0
  149.3981  131.0039  154.1921 H   0  0  0  0  0  0  0  0  0  0  0  0
  1  2  3  0  0  0  0
  2  3  1  0  0  0  0
  3 18  2  0  0  0  0
  3  4  1  0  0  0  0
  4  5  2  0  0  0  0
  5  6  1  0  0  0  0
  5  7  1  0  0  0  0
  6 21  1  0  0  0  0
  6 22  1  0  0  0  0
  7  8  1  0  0  0  0
  7 18  1  0  0  0  0
  8  9  1  0  0  0  0
  8 23  1  0  0  0  0
  8 24  1  0  0  0  0
  9 10  1  0  0  0  0
  9 25  1  0  0  0  0
  9 26  1  0  0  0  0
 10 11  1  0  0  0  0
 10 27  1  0  0  0  0
 11 12  2  0  0  0  0
 11 13  1  0  0  0  0
 13 17  1  0  0  0  0
 13 14  1  0  0  0  0
 13 28  1  0  0  0  0
 14 15  1  0  0  0  0
 14 29  1  0  0  0  0
 14 30  1  0  0  0  0
 15 16  1  0  0  0  0
 15 31  1  0  0  0  0
 15 32  1  0  0  0  0
 16 17  1  0  0  0  0
 16 33  1  0  0  0  0
 16 34  1  0  0  0  0
 17 35  1  0  0  0  0
 17 36  1  0  0  0  0
 18 19  1  0  0  0  0
 19 20  3  0  0  0  0
M  END
> <s_m_source_file>
AV-unprocessed.smi

> <i_m_source_file_index>
2515

> <i_lp_mmshare_version>
43012

> <i_f3d_flags>
0

> <s_epik_input>
TiNDYzFuYyhbTkgyXSluKGMxQyNOKVtDSDJdW0NIMl1bTkhdQyg9TylbQ0hdMltDSDJdW0NIMl1bQ0gyXVtDSDJdMg==

> <s_epik_cmdline>
J2VwaWtfcHl0aG9uJywgJy1waCcsICc3LjAnLCAnLXRuJywgJzgnLCAnLW1hJywgJzIwMCcsICctbWV0YWxfYmluZGluZycsICctaW1hZScsICc8aW5maWxlLm1hZT4nLCAnLW9tYWUnLCAnPG91dGZpbGUubWFlPic=

> <r_lp_tautomer_probability>
1

> <r_epik_Ionization_Penalty>
0.000275801

> <r_epik_Ionization_Penalty_Charging>
2.18328e-09

> <r_epik_Ionization_Penalty_Neutral>
0.000275798

> <r_epik_State_Penalty>
-0

> <r_epik_Charging_Adjusted_Penalty>
2.18328e-09

> <i_epik_Tot_Q>
0

> <i_epik_Tot_abs_Q>
0

> <r_epik_Metal_State_Penalty>
-0

> <b_epik_Metal_Only>
0

> <s_lp_Force_Field>
OPLS_2005

> <r_lp_Energy>
23.1048

> <b_lp_Chiralities_Consistent>
1

> <s_lp_Variant>
AV-unprocessed.smi:2515-1

> <Gold.Version>
5.8.1

> <Gold.Id.Protein>
6NUR|6NUR_protein|mol2

> <Gold.PLP.Fitness>
40.9718

> <Gold.PLP.PLP>
-27.9929

> <Gold.PLP.part.hbond>
-5.1207

> <Gold.PLP.part.metal>
0.0000

> <Gold.PLP.part.buried>
-3.5548

> <Gold.PLP.part.nonpolar>
-19.5572

> <Gold.PLP.part.repulsive>
0.1408

> <Gold.PLP.ligand.clash>
0.0000

> <Gold.PLP.ligand.torsion>
0.3588

> <Gold.PLP.Chemscore.Hbond>
4.5548

> <Gold.PLP.Chemscore.CHOScore>
0.0000

> <Gold.PLP.Chemscore.Metal>
0.0000

> <Gold.Chemscore.Hbonds>
donor molecule, donor type, donor heavy atom, donor atom, acceptor molecule, acceptor atom, score
      L1  H     6    21       P1  7957  1.00
      L1  H     6    22       P1  7948  1.00
      L1  H    10    27       P1  7948  0.80
      P1  H  6896  6909       L1    20  0.99
      P1  H  7989  7998       L1     4  0.47

> <Gold.PLP.Chemscore.Internal.Correction>
0.0323

> <Gold.Rescore>
     Score         DG    S(hbond)    S(metal)    S(lipo)     H(rot)  DE(clash)    DE(int)     intcor
     16.29     -16.71       3.65        0.00      40.63       2.23       0.01       0.41       ----

> <Gold.Chemscore.Fitness>
16.2886

> <Gold.Chemscore.DG>
-16.7100

> <Gold.Chemscore.ZeroCoef>
-5.4800

> <Gold.Chemscore.Hbond>
3.6458

> <Gold.Chemscore.Metal>
0.0000

> <Gold.Chemscore.Lipo>
40.6288

> <Gold.Chemscore.Internal_Hbond>
0.0000

> <Gold.Chemscore.DEClash>
0.0126

> <Gold.Chemscore.DEInternal>
0.4088

> <Gold.Chemscore.Rot>
2.2267

> <Gold.Chemscore.Internal.Correction>
   9.000000E+99

> <Gold.Chemscore.Hbonds>
donor molecule, donor type, donor heavy atom, donor atom, acceptor molecule, acceptor atom, score
      L1  H     6    21       P1  7957  0.73
      L1  H     6    22       P1  7948  0.29
      L1  H    10    27       P1  7948  0.71
      P1  H  6896  6909       L1    20  0.88
      P1  H  7989  7998       L1     4  0.17

> <Gold.Chemscore.Hbond.Weighted>
-12.1769

> <Gold.Chemscore.Metal.Weighted>
-0.0000

> <Gold.Chemscore.Lipo.Weighted>
-4.7536

> <Gold.Chemscore.Internal_Hbond.Weighted>
0.0000

> <Gold.Chemscore.DEClash.Weighted>
0.0126

> <Gold.Chemscore.DEInternal.Weighted>
0.4088

> <Gold.Chemscore.Rot.Weighted>
5.7004

> <Gold.Chemscore.Internal.Correction.Weighted>
   9.000000E+99

> <Gold.Protein.RotatedTorsions>
[ 6907 6896 6895 6894 ] final  116.08 input  -60.11 | X-H torsion
[ 7974 7965 7964 7962 ] final  151.41 input  175.53 | X-H torsion
[ 8008 7997 7996 7995 ] final  111.36 input   59.86 | X-H torsion
[ 10167 10162 10161 10158 ] final -137.70 input  -65.29 | X-H torsion
[ 10718 10713 10712 10709 ] final  -92.66 input   66.30 | X-H torsion
[ 10763 10752 10751 10750 ] final -107.30 input  -60.55 | X-H torsion
[ 11005 11000 10999 10996 ] final   -8.41 input  -57.11 | X-H torsion

> <Gold.Protein.ActiveResidues>
 VAL166  LYS551  ARG553  GLY616  TRP617  ASP618  TYR619  PRO620  LYS621  CYS622 
 ASP623  PHE694  ASN695  SER759  ASP760  ASP761  ALA762  ILE779  LEU786  VAL792 
 PHE793  MET794  SER795  GLU796  ALA797  LYS798  CYS799  TRP800  GLU811  SER814 

> <Gold.Protein.RotatedAtoms>
  152.4701  133.8010  159.6952 H   0  0  0  0  0  0  0  0  0  0  0  0  # atno 6907 bound_to 6896
  150.8685  133.7530  159.2975 H   0  0  0  0  0  0  0  0  0  0  0  0  # atno 6908 bound_to 6896
  151.5072  135.1067  159.9896 H   0  0  0  0  0  0  0  0  0  0  0  0  # atno 6909 bound_to 6896
  144.8294  139.6534  143.6065 H   0  0  0  0  0  0  0  0  0  0  0  0  # atno 7974 bound_to 7965
  156.2118  140.3021  155.9750 H   0  0  0  0  0  0  0  0  0  0  0  0  # atno 8008 bound_to 7997
  155.2704  140.0433  157.3023 H   0  0  0  0  0  0  0  0  0  0  0  0  # atno 8009 bound_to 7997
  154.5711  140.2348  155.8199 H   0  0  0  0  0  0  0  0  0  0  0  0  # atno 8010 bound_to 7997
  139.8551  143.7149  152.2655 H   0  0  0  0  0  0  0  0  0  0  0  0  # atno 10167 bound_to 10162
  156.0004  130.4996  150.5659 H   0  0  0  0  0  0  0  0  0  0  0  0  # atno 10718 bound_to 10713
  154.8067  135.4680  154.0409 H   0  0  0  0  0  0  0  0  0  0  0  0  # atno 10763 bound_to 10752
  153.1873  135.6850  153.8405 H   0  0  0  0  0  0  0  0  0  0  0  0  # atno 10764 bound_to 10752
  153.7935  135.3240  155.3359 H   0  0  0  0  0  0  0  0  0  0  0  0  # atno 10765 bound_to 10752
  140.7232  133.8811  155.8836 H   0  0  0  0  0  0  0  0  0  0  0  0  # atno 11005 bound_to 11000
  146.2598  139.6384  142.9370 LP  0  0  0  0  0  0  0  0  0  0  0  0  # atno 17320 bound_to 7965
  145.4928  141.0438  143.2583 LP  0  0  0  0  0  0  0  0  0  0  0  0  # atno 17321 bound_to 7965
  139.7428  144.7555  151.0627 LP  0  0  0  0  0  0  0  0  0  0  0  0  # atno 17342 bound_to 10162
  140.7782  143.4952  150.9841 LP  0  0  0  0  0  0  0  0  0  0  0  0  # atno 17343 bound_to 10162
  157.3561  131.0742  151.1674 LP  0  0  0  0  0  0  0  0  0  0  0  0  # atno 17370 bound_to 10713
  157.2474  130.6598  149.5916 LP  0  0  0  0  0  0  0  0  0  0  0  0  # atno 17371 bound_to 10713
  140.9986  134.1182  157.4340 LP  0  0  0  0  0  0  0  0  0  0  0  0  # atno 17394 bound_to 11000
  139.8843  135.0061  156.6361 LP  0  0  0  0  0  0  0  0  0  0  0  0  # atno 17395 bound_to 11000

$$$$
