AV-unprocessed.smi:2524|AV-procd|sdf|9924|dock7
  -GOLD-   2272013563D 1   1.00000     0.00000
 Structure written by MMmdl.
 35 36  0  0  0  0  0  0  0  0  2 V2000
  144.3799  134.2217  163.0384 C   0  0  0  0  0  0  0  0  0  0  0  0
  145.4711  133.8207  162.3693 C   0  0  0  0  0  0  0  0  0  0  0  0
  146.7560  134.6158  162.2702 C   0  0  0  0  0  0  0  0  0  0  0  0
  147.1350  134.9099  160.8135 C   0  0  0  0  0  0  0  0  0  0  0  0
  148.0405  136.5163  160.6739 S   0  0  0  0  0  0  0  0  0  0  0  0
  147.0593  137.5038  160.1931 O   0  0  0  0  0  0  0  0  0  0  0  0
  148.6072  136.7539  162.0101 O   0  0  0  0  0  0  0  0  0  0  0  0
  149.2065  136.1635  159.5981 N   0  5  0  0  0  0  0  0  0  0  0  0
  149.3326  136.9065  158.3491 C   0  0  0  0  0  0  0  0  0  0  0  0
  150.7364  137.5196  158.1591 C   0  0  0  0  0  0  0  0  0  0  0  0
  150.8019  138.3146  156.8750 C   0  0  0  0  0  0  0  0  0  0  0  0
  150.9276  137.6739  155.6201 C   0  0  0  0  0  0  0  0  0  0  0  0
  150.9995  138.4606  154.4535 C   0  0  0  0  0  0  0  0  0  0  0  0
  150.9623  139.8094  154.4652 N   0  0  0  0  0  0  0  0  0  0  0  0
  150.8513  140.4238  155.6617 C   0  0  0  0  0  0  0  0  0  0  0  0
  150.7719  139.7287  156.8846 C   0  0  0  0  0  0  0  0  0  0  0  0
  151.5610  138.0178  159.3371 C   0  0  0  0  0  0  0  0  0  0  0  0
  151.9946  136.7794  158.5893 C   0  0  0  0  0  0  0  0  0  0  0  0
  144.3577  135.1673  163.5599 H   0  0  0  0  0  0  0  0  0  0  0  0
  143.4929  133.6068  163.0720 H   0  0  0  0  0  0  0  0  0  0  0  0
  145.4570  132.8684  161.8594 H   0  0  0  0  0  0  0  0  0  0  0  0
  146.6531  135.5501  162.8236 H   0  0  0  0  0  0  0  0  0  0  0  0
  147.5502  134.0480  162.7555 H   0  0  0  0  0  0  0  0  0  0  0  0
  147.7789  134.1252  160.4161 H   0  0  0  0  0  0  0  0  0  0  0  0
  146.2417  134.9574  160.1908 H   0  0  0  0  0  0  0  0  0  0  0  0
  149.1344  136.2700  157.4861 H   0  0  0  0  0  0  0  0  0  0  0  0
  148.5991  137.7118  158.2977 H   0  0  0  0  0  0  0  0  0  0  0  0
  150.9635  136.5965  155.5536 H   0  0  0  0  0  0  0  0  0  0  0  0
  151.0913  137.9928  153.4845 H   0  0  0  0  0  0  0  0  0  0  0  0
  150.8265  141.5034  155.6446 H   0  0  0  0  0  0  0  0  0  0  0  0
  150.6852  140.2710  157.8148 H   0  0  0  0  0  0  0  0  0  0  0  0
  152.1601  138.9150  159.1947 H   0  0  0  0  0  0  0  0  0  0  0  0
  151.2051  137.8666  160.3552 H   0  0  0  0  0  0  0  0  0  0  0  0
  151.9159  135.8373  159.1303 H   0  0  0  0  0  0  0  0  0  0  0  0
  152.8770  136.8682  157.9586 H   0  0  0  0  0  0  0  0  0  0  0  0
  1  2  2  0  0  0  0
  1 19  1  0  0  0  0
  1 20  1  0  0  0  0
  2  3  1  0  0  0  0
  2 21  1  0  0  0  0
  3  4  1  0  0  0  0
  3 22  1  0  0  0  0
  3 23  1  0  0  0  0
  4  5  1  0  0  0  0
  4 24  1  0  0  0  0
  4 25  1  0  0  0  0
  5  6  2  0  0  0  0
  5  7  2  0  0  0  0
  5  8  1  0  0  0  0
  8  9  1  0  0  0  0
  9 10  1  0  0  0  0
  9 26  1  0  0  0  0
  9 27  1  0  0  0  0
 10 18  1  0  0  0  0
 10 11  1  0  0  0  0
 10 17  1  0  0  0  0
 11 16  1  0  0  0  0
 11 12  2  0  0  0  0
 12 13  1  0  0  0  0
 12 28  1  0  0  0  0
 13 14  2  0  0  0  0
 13 29  1  0  0  0  0
 14 15  1  0  0  0  0
 15 16  2  0  0  0  0
 15 30  1  0  0  0  0
 16 31  1  0  0  0  0
 17 18  1  0  0  0  0
 17 32  1  0  0  0  0
 17 33  1  0  0  0  0
 18 34  1  0  0  0  0
 18 35  1  0  0  0  0
M  CHG  1   8  -1
M  END
> <s_m_source_file>
AV-unprocessed.smi

> <i_m_source_file_index>
2524

> <i_lp_mmshare_version>
43012

> <i_f3d_flags>
0

> <s_epik_input>
W0NIMl09W0NIXVtDSDJdW0NIMl1TKD1PKSg9TylbTkhdW0NIMl1DMShbQ0gyXVtDSDJdMSljMltjSF1bY0hdbltjSF1bY0hdMg==

> <s_epik_cmdline>
J2VwaWtfcHl0aG9uJywgJy1waCcsICc3LjAnLCAnLXRuJywgJzgnLCAnLW1hJywgJzIwMCcsICctbWV0YWxfYmluZGluZycsICctaW1hZScsICc8aW5maWxlLm1hZT4nLCAnLW9tYWUnLCAnPG91dGZpbGUubWFlPic=

> <r_epik_Ionization_Penalty>
6.82782

> <r_epik_Ionization_Penalty_Charging>
6.77146

> <r_epik_Ionization_Penalty_Neutral>
0.0563627

> <r_epik_State_Penalty>
6.80009

> <r_epik_Charging_Adjusted_Penalty>
13.5715

> <i_epik_Tot_Q>
-1

> <i_epik_Tot_abs_Q>
1

> <r_epik_Metal_State_Penalty>
2.75227

> <b_epik_Metal_Only>
1

> <s_lp_Force_Field>
OPLS_2005

> <r_lp_Energy>
12.2049

> <b_lp_Chiralities_Consistent>
1

> <s_lp_Variant>
AV-unprocessed.smi:2524-3

> <Gold.Version>
5.8.1

> <Gold.Id.Protein>
6NUR|6NUR_protein|mol2

> <Gold.PLP.Fitness>
44.4292

> <Gold.PLP.PLP>
-29.0569

> <Gold.PLP.part.hbond>
-4.0000

> <Gold.PLP.part.metal>
0.0000

> <Gold.PLP.part.buried>
-1.2887

> <Gold.PLP.part.nonpolar>
-24.5460

> <Gold.PLP.part.repulsive>
0.1250

> <Gold.PLP.ligand.clash>
0.0000

> <Gold.PLP.ligand.torsion>
1.9435

> <Gold.PLP.Chemscore.Hbond>
5.0000

> <Gold.PLP.Chemscore.CHOScore>
0.6137

> <Gold.PLP.Chemscore.Metal>
0.0000

> <Gold.Chemscore.Hbonds>
donor molecule, donor type, donor heavy atom, donor atom, acceptor molecule, acceptor atom, score
      P1  H  6896  6908       L1     8  1.72
      P1  H  6931  6943       L1     7  1.00
      P1  H  6934  6947       L1     6  1.00
      P1  H  7989  7998       L1    14  1.00
      L1  C    13    29       P1  7949  0.26

> <Gold.PLP.Chemscore.Internal.Correction>
2.4183

> <Gold.Rescore>
     Score         DG    S(hbond)    S(metal)    S(lipo)     H(rot)  DE(clash)    DE(int)     intcor
     18.44     -20.38       3.11        0.00      73.39       1.59       0.01       1.93       ----

> <Gold.Chemscore.Fitness>
18.4377

> <Gold.Chemscore.DG>
-20.3808

> <Gold.Chemscore.ZeroCoef>
-5.4800

> <Gold.Chemscore.Hbond>
3.1096

> <Gold.Chemscore.Metal>
0.0000

> <Gold.Chemscore.Lipo>
73.3933

> <Gold.Chemscore.Internal_Hbond>
0.0000

> <Gold.Chemscore.DEClash>
0.0089

> <Gold.Chemscore.DEInternal>
1.9342

> <Gold.Chemscore.Rot>
1.5908

> <Gold.Chemscore.Internal.Correction>
   9.000000E+99

> <Gold.Chemscore.Hbonds>
donor molecule, donor type, donor heavy atom, donor atom, acceptor molecule, acceptor atom, score
      P1  H  6896  6908       L1     8  0.55
      P1  H  6931  6943       L1     7  0.38
      P1  H  6934  6947       L1     6  0.90
      P1  H  7989  7998       L1    14  0.54

> <Gold.Chemscore.Hbond.Weighted>
-10.3862

> <Gold.Chemscore.Metal.Weighted>
-0.0000

> <Gold.Chemscore.Lipo.Weighted>
-8.5870

> <Gold.Chemscore.Internal_Hbond.Weighted>
0.0000

> <Gold.Chemscore.DEClash.Weighted>
0.0089

> <Gold.Chemscore.DEInternal.Weighted>
1.9342

> <Gold.Chemscore.Rot.Weighted>
4.0724

> <Gold.Chemscore.Internal.Correction.Weighted>
   9.000000E+99

> <Gold.Protein.RotatedTorsions>
[ 6907 6896 6895 6894 ] final -176.14 input  -60.11 | X-H torsion
[ 7974 7965 7964 7962 ] final   -2.10 input  175.53 | X-H torsion
[ 8008 7997 7996 7995 ] final  -38.63 input   59.86 | X-H torsion
[ 10167 10162 10161 10158 ] final   65.89 input  -65.29 | X-H torsion
[ 10718 10713 10712 10709 ] final  -11.49 input   66.30 | X-H torsion
[ 10763 10752 10751 10750 ] final   -4.95 input  -60.55 | X-H torsion
[ 11005 11000 10999 10996 ] final -175.86 input  -57.11 | X-H torsion

> <Gold.Protein.ActiveResidues>
 VAL166  LYS551  ARG553  GLY616  TRP617  ASP618  TYR619  PRO620  LYS621  CYS622 
 ASP623  PHE694  ASN695  SER759  ASP760  ASP761  ALA762  ILE779  LEU786  VAL792 
 PHE793  MET794  SER795  GLU796  ALA797  LYS798  CYS799  TRP800  GLU811  SER814 

> <Gold.Protein.RotatedAtoms>
  151.5999  133.3357  159.3045 H   0  0  0  0  0  0  0  0  0  0  0  0  # atno 6907 bound_to 6896
  150.8213  134.7426  159.6786 H   0  0  0  0  0  0  0  0  0  0  0  0  # atno 6908 bound_to 6896
  152.4306  134.5790  159.9994 H   0  0  0  0  0  0  0  0  0  0  0  0  # atno 6909 bound_to 6896
  146.2409  140.1520  142.8334 H   0  0  0  0  0  0  0  0  0  0  0  0  # atno 7974 bound_to 7965
  154.4034  140.1573  156.2732 H   0  0  0  0  0  0  0  0  0  0  0  0  # atno 8008 bound_to 7997
  155.8935  140.3437  155.5951 H   0  0  0  0  0  0  0  0  0  0  0  0  # atno 8009 bound_to 7997
  155.7531  140.0807  157.2182 H   0  0  0  0  0  0  0  0  0  0  0  0  # atno 8010 bound_to 7997
  140.1063  144.4858  150.7005 H   0  0  0  0  0  0  0  0  0  0  0  0  # atno 10167 bound_to 10162
  156.6583  130.4974  149.6039 H   0  0  0  0  0  0  0  0  0  0  0  0  # atno 10718 bound_to 10713
  153.3919  135.7002  153.6489 H   0  0  0  0  0  0  0  0  0  0  0  0  # atno 10763 bound_to 10752
  153.5058  135.3642  155.2563 H   0  0  0  0  0  0  0  0  0  0  0  0  # atno 10764 bound_to 10752
  154.8703  135.4123  154.3237 H   0  0  0  0  0  0  0  0  0  0  0  0  # atno 10765 bound_to 10752
  140.4585  134.6276  157.4832 H   0  0  0  0  0  0  0  0  0  0  0  0  # atno 11005 bound_to 11000
  145.0160  140.8754  143.5195 LP  0  0  0  0  0  0  0  0  0  0  0  0  # atno 17320 bound_to 7965
  145.1561  139.2486  143.5416 LP  0  0  0  0  0  0  0  0  0  0  0  0  # atno 17321 bound_to 7965
  140.6950  143.2398  151.5026 LP  0  0  0  0  0  0  0  0  0  0  0  0  # atno 17342 bound_to 10162
  139.5643  144.2080  152.1741 LP  0  0  0  0  0  0  0  0  0  0  0  0  # atno 17343 bound_to 10162
  156.2030  130.6632  151.1188 LP  0  0  0  0  0  0  0  0  0  0  0  0  # atno 17370 bound_to 10713
  157.7118  131.0730  150.6473 LP  0  0  0  0  0  0  0  0  0  0  0  0  # atno 17371 bound_to 10713
  139.9960  134.6910  155.9608 LP  0  0  0  0  0  0  0  0  0  0  0  0  # atno 17394 bound_to 11000
  141.1632  133.6538  156.4389 LP  0  0  0  0  0  0  0  0  0  0  0  0  # atno 17395 bound_to 11000

$$$$
