AV-unprocessed.smi:3158|AV-procd|sdf|12046|dock6
  -GOLD-   2272017473D 1   1.00000     0.00000
 Structure written by MMmdl.
 39 39  0  0  0  0  0  0  0  0  1 V2000
  151.6860  139.4439  155.2928 C   0  0  0  0  0  0  0  0  0  0  0  0
  150.7012  138.8969  154.2490 C   0  0  0  0  0  0  0  0  0  0  0  0
  149.2892  139.5176  154.3359 C   0  0  1  0  0  0  0  0  0  0  0  0
  149.3279  141.0514  154.4602 C   0  0  0  0  0  0  0  0  0  0  0  0
  148.4088  139.0883  153.2463 N   0  0  0  0  0  0  0  0  0  0  0  0
  147.1356  138.6679  153.3425 C   0  0  0  0  0  0  0  0  0  0  0  0
  146.5205  138.5881  154.4061 O   0  0  0  0  0  0  0  0  0  0  0  0
  146.4575  138.2404  152.0307 C   0  0  2  0  0  0  0  0  0  0  0  0
  146.4670  139.3979  151.0198 C   0  0  0  0  0  0  0  0  0  0  0  0
  145.0784  137.7594  152.2238 N   0  0  0  0  0  0  0  0  0  0  0  0
  144.9383  136.3060  152.2135 C   0  0  0  0  0  0  0  0  0  0  0  0
  145.0748  135.7714  150.7787 C   0  0  0  0  0  0  0  0  0  0  0  0
  145.1978  134.3245  150.7439 N   0  0  0  0  0  0  0  0  0  0  0  0
  144.2731  133.3983  150.3092 C   0  0  0  0  0  0  0  0  0  0  0  0
  144.8359  132.1627  150.4548 C   0  0  0  0  0  0  0  0  0  0  0  0
  146.1230  132.4396  150.9947 C   0  0  0  0  0  0  0  0  0  0  0  0
  146.3366  133.7341  151.1667 N   0  0  0  0  0  0  0  0  0  0  0  0
  152.6783  139.0162  155.1478 H   0  0  0  0  0  0  0  0  0  0  0  0
  151.3707  139.2022  156.3081 H   0  0  0  0  0  0  0  0  0  0  0  0
  151.7772  140.5278  155.2177 H   0  0  0  0  0  0  0  0  0  0  0  0
  151.1091  139.0893  153.2561 H   0  0  0  0  0  0  0  0  0  0  0  0
  150.6460  137.8116  154.3398 H   0  0  0  0  0  0  0  0  0  0  0  0
  148.8249  139.1384  155.2470 H   0  0  0  0  0  0  0  0  0  0  0  0
  149.8775  141.3551  155.3515 H   0  0  0  0  0  0  0  0  0  0  0  0
  148.3220  141.4651  154.5381 H   0  0  0  0  0  0  0  0  0  0  0  0
  149.8145  141.5171  153.6029 H   0  0  0  0  0  0  0  0  0  0  0  0
  148.8131  139.1066  152.3212 H   0  0  0  0  0  0  0  0  0  0  0  0
  147.0373  137.4243  151.5955 H   0  0  0  0  0  0  0  0  0  0  0  0
  147.4798  139.7643  150.8467 H   0  0  0  0  0  0  0  0  0  0  0  0
  145.8628  140.2386  151.3638 H   0  0  0  0  0  0  0  0  0  0  0  0
  146.0678  139.0780  150.0569 H   0  0  0  0  0  0  0  0  0  0  0  0
  144.6687  138.1360  153.0675 H   0  0  0  0  0  0  0  0  0  0  0  0
  145.7136  135.8693  152.8440 H   0  0  0  0  0  0  0  0  0  0  0  0
  143.9768  135.9930  152.6216 H   0  0  0  0  0  0  0  0  0  0  0  0
  144.2271  136.0813  150.1649 H   0  0  0  0  0  0  0  0  0  0  0  0
  145.9659  136.1935  150.3129 H   0  0  0  0  0  0  0  0  0  0  0  0
  143.3045  133.6932  149.9333 H   0  0  0  0  0  0  0  0  0  0  0  0
  144.3957  131.2070  150.2122 H   0  0  0  0  0  0  0  0  0  0  0  0
  146.9032  131.7431  151.2647 H   0  0  0  0  0  0  0  0  0  0  0  0
  1  2  1  0  0  0  0
  1 18  1  0  0  0  0
  1 19  1  0  0  0  0
  1 20  1  0  0  0  0
  2  3  1  0  0  0  0
  2 21  1  0  0  0  0
  2 22  1  0  0  0  0
  3  4  1  0  0  0  0
  3  5  1  0  0  0  0
  3 23  1  0  0  0  0
  4 24  1  0  0  0  0
  4 25  1  0  0  0  0
  4 26  1  0  0  0  0
  5  6  1  0  0  0  0
  5 27  1  0  0  0  0
  6  7  2  0  0  0  0
  6  8  1  0  0  0  0
  8  9  1  0  0  0  0
  8 10  1  0  0  0  0
  8 28  1  0  0  0  0
  9 29  1  0  0  0  0
  9 30  1  0  0  0  0
  9 31  1  0  0  0  0
 10 11  1  0  0  0  0
 10 32  1  0  0  0  0
 11 12  1  0  0  0  0
 11 33  1  0  0  0  0
 11 34  1  0  0  0  0
 12 13  1  0  0  0  0
 12 35  1  0  0  0  0
 12 36  1  0  0  0  0
 13 17  1  0  0  0  0
 13 14  1  0  0  0  0
 14 15  2  0  0  0  0
 14 37  1  0  0  0  0
 15 16  1  0  0  0  0
 15 38  1  0  0  0  0
 16 17  2  0  0  0  0
 16 39  1  0  0  0  0
M  END
> <s_m_source_file>
AV-unprocessed.smi

> <i_m_source_file_index>
3158

> <i_lp_mmshare_version>
43012

> <i_f3d_flags>
0

> <s_epik_input>
W0NIM11bQ0gyXVtDQEhdKFtDSDNdKVtOSF1DKD1PKVtDQEhdKFtDSDNdKVtOSF1bQ0gyXVtDSDJdbjFbY0hdW2NIXVtjSF1uMQ==

> <s_epik_cmdline>
J2VwaWtfcHl0aG9uJywgJy1waCcsICc3LjAnLCAnLXRuJywgJzgnLCAnLW1hJywgJzIwMCcsICctbWV0YWxfYmluZGluZycsICctaW1hZScsICc8aW5maWxlLm1hZT4nLCAnLW9tYWUnLCAnPG91dGZpbGUubWFlPic=

> <r_lp_tautomer_probability>
1

> <r_epik_Ionization_Penalty>
0.724013

> <r_epik_Ionization_Penalty_Charging>
0

> <r_epik_Ionization_Penalty_Neutral>
0.724013

> <r_epik_State_Penalty>
0.74758

> <r_epik_Charging_Adjusted_Penalty>
0.74758

> <i_epik_Tot_Q>
0

> <i_epik_Tot_abs_Q>
0

> <r_epik_Metal_State_Penalty>
0.746846

> <b_epik_Metal_Only>
0

> <s_lp_Force_Field>
OPLS_2005

> <r_lp_Energy>
6.38515

> <b_lp_Chiralities_Consistent>
1

> <s_lp_Variant>
AV-unprocessed.smi:3158-6

> <Gold.Version>
5.8.1

> <Gold.Id.Protein>
6NUR|6NUR_protein|mol2

> <Gold.PLP.Fitness>
44.0003

> <Gold.PLP.PLP>
-37.1665

> <Gold.PLP.part.hbond>
-3.2272

> <Gold.PLP.part.metal>
0.0000

> <Gold.PLP.part.buried>
-0.8255

> <Gold.PLP.part.nonpolar>
-33.8527

> <Gold.PLP.part.repulsive>
0.3719

> <Gold.PLP.ligand.clash>
0.0000

> <Gold.PLP.ligand.torsion>
1.1116

> <Gold.PLP.Chemscore.Hbond>
0.9760

> <Gold.PLP.Chemscore.CHOScore>
2.0000

> <Gold.PLP.Chemscore.Metal>
0.0000

> <Gold.Chemscore.Hbonds>
donor molecule, donor type, donor heavy atom, donor atom, acceptor molecule, acceptor atom, score
      L1  H     5    27       P1  7957  0.94
      L1  C    14    37       P1 10186  1.00
      L1  C    16    39       P1 10747  1.00

> <Gold.PLP.Chemscore.Internal.Correction>
0.1292

> <Gold.Rescore>
     Score         DG    S(hbond)    S(metal)    S(lipo)     H(rot)  DE(clash)    DE(int)     intcor
     11.97     -13.72       0.98        0.00      89.08       2.12       0.69       1.06       ----

> <Gold.Chemscore.Fitness>
11.9726

> <Gold.Chemscore.DG>
-13.7249

> <Gold.Chemscore.ZeroCoef>
-5.4800

> <Gold.Chemscore.Hbond>
0.9754

> <Gold.Chemscore.Metal>
0.0000

> <Gold.Chemscore.Lipo>
89.0848

> <Gold.Chemscore.Internal_Hbond>
0.0000

> <Gold.Chemscore.DEClash>
0.6915

> <Gold.Chemscore.DEInternal>
1.0608

> <Gold.Chemscore.Rot>
2.1234

> <Gold.Chemscore.Internal.Correction>
   9.000000E+99

> <Gold.Chemscore.Hbonds>
donor molecule, donor type, donor heavy atom, donor atom, acceptor molecule, acceptor atom, score
      L1  H     5    27       P1  7957  0.91

> <Gold.Chemscore.Hbond.Weighted>
-3.2579

> <Gold.Chemscore.Metal.Weighted>
-0.0000

> <Gold.Chemscore.Lipo.Weighted>
-10.4229

> <Gold.Chemscore.Internal_Hbond.Weighted>
0.0000

> <Gold.Chemscore.DEClash.Weighted>
0.6915

> <Gold.Chemscore.DEInternal.Weighted>
1.0608

> <Gold.Chemscore.Rot.Weighted>
5.4359

> <Gold.Chemscore.Internal.Correction.Weighted>
   9.000000E+99

> <Gold.Protein.RotatedTorsions>
[ 6907 6896 6895 6894 ] final  161.12 input  -60.11 | X-H torsion
[ 7974 7965 7964 7962 ] final   50.77 input  175.53 | X-H torsion
[ 8008 7997 7996 7995 ] final  -14.61 input   59.86 | X-H torsion
[ 10167 10162 10161 10158 ] final   -0.06 input  -65.29 | X-H torsion
[ 10718 10713 10712 10709 ] final   20.69 input   66.30 | X-H torsion
[ 10763 10752 10751 10750 ] final   87.85 input  -60.55 | X-H torsion
[ 11005 11000 10999 10996 ] final   84.30 input  -57.11 | X-H torsion

> <Gold.Protein.ActiveResidues>
 VAL166  LYS551  ARG553  GLY616  TRP617  ASP618  TYR619  PRO620  LYS621  CYS622 
 ASP623  PHE694  ASN695  SER759  ASP760  ASP761  ALA762  ILE779  LEU786  VAL792 
 PHE793  MET794  SER795  GLU796  ALA797  LYS798  CYS799  TRP800  GLU811  SER814 

> <Gold.Protein.RotatedAtoms>
  151.9604  133.3693  159.4032 H   0  0  0  0  0  0  0  0  0  0  0  0  # atno 6907 bound_to 6896
  150.6965  134.4247  159.5230 H   0  0  0  0  0  0  0  0  0  0  0  0  # atno 6908 bound_to 6896
  152.1934  134.8651  160.0566 H   0  0  0  0  0  0  0  0  0  0  0  0  # atno 6909 bound_to 6896
  145.9980  139.4408  143.0033 H   0  0  0  0  0  0  0  0  0  0  0  0  # atno 7974 bound_to 7965
  154.5197  140.2218  155.9000 H   0  0  0  0  0  0  0  0  0  0  0  0  # atno 8008 bound_to 7997
  156.1647  140.3134  155.8833 H   0  0  0  0  0  0  0  0  0  0  0  0  # atno 8009 bound_to 7997
  155.3680  140.0465  157.3036 H   0  0  0  0  0  0  0  0  0  0  0  0  # atno 8010 bound_to 7997
  140.6751  143.6940  150.8005 H   0  0  0  0  0  0  0  0  0  0  0  0  # atno 10167 bound_to 10162
  157.1280  130.6578  149.5943 H   0  0  0  0  0  0  0  0  0  0  0  0  # atno 10718 bound_to 10713
  153.1710  135.4528  154.9902 H   0  0  0  0  0  0  0  0  0  0  0  0  # atno 10763 bound_to 10752
  154.7965  135.3239  154.7656 H   0  0  0  0  0  0  0  0  0  0  0  0  # atno 10764 bound_to 10752
  153.8132  135.6953  153.4892 H   0  0  0  0  0  0  0  0  0  0  0  0  # atno 10765 bound_to 10752
  139.9004  134.8207  156.2427 H   0  0  0  0  0  0  0  0  0  0  0  0  # atno 11005 bound_to 11000
  145.7531  140.9965  143.1240 LP  0  0  0  0  0  0  0  0  0  0  0  0  # atno 17320 bound_to 7965
  144.6910  139.9238  143.7469 LP  0  0  0  0  0  0  0  0  0  0  0  0  # atno 17321 bound_to 7965
  140.0631  143.5135  152.2617 LP  0  0  0  0  0  0  0  0  0  0  0  0  # atno 17342 bound_to 10162
  139.6039  144.7590  151.3108 LP  0  0  0  0  0  0  0  0  0  0  0  0  # atno 17343 bound_to 10162
  155.9814  130.4821  150.6826 LP  0  0  0  0  0  0  0  0  0  0  0  0  # atno 17370 bound_to 10713
  157.4418  131.0862  151.0936 LP  0  0  0  0  0  0  0  0  0  0  0  0  # atno 17371 bound_to 10713
  141.0274  133.7007  156.1372 LP  0  0  0  0  0  0  0  0  0  0  0  0  # atno 17394 bound_to 11000
  140.7145  134.4425  157.5579 LP  0  0  0  0  0  0  0  0  0  0  0  0  # atno 17395 bound_to 11000

$$$$
