AV-unprocessed.smi:715|AV-procd|sdf|3484|dock2
  -GOLD-   22720 0473D 1   1.00000     0.00000
 Structure written by MMmdl.
 39 40  0  0  0  0  0  0  0  0  1 V2000
  152.9937  142.9895  162.5720 C   0  0  0  0  0  0  0  0  0  0  0  0
  152.8057  142.7262  161.1615 N   0  0  0  0  0  0  0  0  0  0  0  0
  152.0545  143.4321  160.2470 C   0  0  0  0  0  0  0  0  0  0  0  0
  152.1795  142.8050  159.0390 C   0  0  0  0  0  0  0  0  0  0  0  0
  151.5619  143.1877  157.7199 C   0  0  2  0  0  0  0  0  0  0  0  0
  150.3596  143.9060  157.9122 O   0  0  0  0  0  0  0  0  0  0  0  0
  151.2482  141.9336  156.8857 C   0  0  0  0  0  0  0  0  0  0  0  0
  150.1644  142.1873  155.9448 N   0  0  0  0  0  0  0  0  0  0  0  0
  149.7978  141.3496  154.9645 C   0  0  0  0  0  0  0  0  0  0  0  0
  150.3515  140.2694  154.7591 O   0  0  0  0  0  0  0  0  0  0  0  0
  148.6244  141.7989  154.0870 C   0  0  0  0  0  0  0  0  0  0  0  0
  147.3826  142.2303  154.8951 C   0  0  0  0  0  0  0  0  0  0  0  0
  146.4812  141.0777  155.3534 C   0  0  0  0  0  0  0  0  0  0  0  0
  145.1240  141.7253  155.6509 C   0  0  0  0  0  0  0  0  0  0  0  0
  145.0923  143.0434  154.8615 C   0  0  0  0  0  0  0  0  0  0  0  0
  146.4228  143.1233  154.1054 C   0  0  0  0  0  0  0  0  0  0  0  0
  153.0464  141.7104  159.3268 C   0  0  0  0  0  0  0  0  0  0  0  0
  153.4158  141.6647  160.5964 N   0  0  0  0  0  0  0  0  0  0  0  0
  152.5295  143.9388  162.8407 H   0  0  0  0  0  0  0  0  0  0  0  0
  154.0588  143.0394  162.8011 H   0  0  0  0  0  0  0  0  0  0  0  0
  152.5372  142.1920  163.1589 H   0  0  0  0  0  0  0  0  0  0  0  0
  151.4988  144.3151  160.5270 H   0  0  0  0  0  0  0  0  0  0  0  0
  152.2455  143.8295  157.1622 H   0  0  0  0  0  0  0  0  0  0  0  0
  149.8968  143.9423  157.0890 H   0  0  0  0  0  0  0  0  0  0  0  0
  152.1330  141.6558  156.3097 H   0  0  0  0  0  0  0  0  0  0  0  0
  151.0076  141.0834  157.5264 H   0  0  0  0  0  0  0  0  0  0  0  0
  149.6534  143.0512  156.0561 H   0  0  0  0  0  0  0  0  0  0  0  0
  148.9670  142.6314  153.4719 H   0  0  0  0  0  0  0  0  0  0  0  0
  148.3553  140.9974  153.3970 H   0  0  0  0  0  0  0  0  0  0  0  0
  147.7018  142.7873  155.7781 H   0  0  0  0  0  0  0  0  0  0  0  0
  146.3672  140.3527  154.5461 H   0  0  0  0  0  0  0  0  0  0  0  0
  146.8835  140.5477  156.2174 H   0  0  0  0  0  0  0  0  0  0  0  0
  144.3011  141.0647  155.3753 H   0  0  0  0  0  0  0  0  0  0  0  0
  145.0324  141.9326  156.7177 H   0  0  0  0  0  0  0  0  0  0  0  0
  144.2426  143.0921  154.1795 H   0  0  0  0  0  0  0  0  0  0  0  0
  145.0036  143.8830  155.5523 H   0  0  0  0  0  0  0  0  0  0  0  0
  146.7865  144.1471  154.0114 H   0  0  0  0  0  0  0  0  0  0  0  0
  146.2900  142.7270  153.0976 H   0  0  0  0  0  0  0  0  0  0  0  0
  153.4157  140.9520  158.6523 H   0  0  0  0  0  0  0  0  0  0  0  0
  1  2  1  0  0  0  0
  1 19  1  0  0  0  0
  1 20  1  0  0  0  0
  1 21  1  0  0  0  0
  2 18  1  0  0  0  0
  2  3  1  0  0  0  0
  3  4  2  0  0  0  0
  3 22  1  0  0  0  0
  4  5  1  0  0  0  0
  4 17  1  0  0  0  0
  5  6  1  0  0  0  0
  5  7  1  0  0  0  0
  5 23  1  0  0  0  0
  6 24  1  0  0  0  0
  7  8  1  0  0  0  0
  7 25  1  0  0  0  0
  7 26  1  0  0  0  0
  8  9  1  0  0  0  0
  8 27  1  0  0  0  0
  9 10  2  0  0  0  0
  9 11  1  0  0  0  0
 11 12  1  0  0  0  0
 11 28  1  0  0  0  0
 11 29  1  0  0  0  0
 12 16  1  0  0  0  0
 12 13  1  0  0  0  0
 12 30  1  0  0  0  0
 13 14  1  0  0  0  0
 13 31  1  0  0  0  0
 13 32  1  0  0  0  0
 14 15  1  0  0  0  0
 14 33  1  0  0  0  0
 14 34  1  0  0  0  0
 15 16  1  0  0  0  0
 15 35  1  0  0  0  0
 15 36  1  0  0  0  0
 16 37  1  0  0  0  0
 16 38  1  0  0  0  0
 17 18  2  0  0  0  0
 17 39  1  0  0  0  0
M  END
> <s_m_source_file>
AV-unprocessed.smi

> <i_m_source_file_index>
715

> <i_lp_mmshare_version>
43012

> <i_f3d_flags>
0

> <s_epik_input>
W0NIM11uMVtjSF1jKFtjSF1uMSlbQ0BIXShbT0hdKVtDSDJdW05IXUMoPU8pW0NIMl1bQ0hdMltDSDJdW0NIMl1bQ0gyXVtDSDJdMg==

> <s_epik_cmdline>
J2VwaWtfcHl0aG9uJywgJy1waCcsICc3LjAnLCAnLXRuJywgJzgnLCAnLW1hJywgJzIwMCcsICctbWV0YWxfYmluZGluZycsICctaW1hZScsICc8aW5maWxlLm1hZT4nLCAnLW9tYWUnLCAnPG91dGZpbGUubWFlPic=

> <r_lp_tautomer_probability>
1

> <r_epik_Ionization_Penalty>
4.45533e-05

> <r_epik_Ionization_Penalty_Charging>
0

> <r_epik_Ionization_Penalty_Neutral>
4.45533e-05

> <r_epik_State_Penalty>
-0

> <r_epik_Charging_Adjusted_Penalty>
0

> <i_epik_Tot_Q>
0

> <i_epik_Tot_abs_Q>
0

> <r_epik_Metal_State_Penalty>
-0

> <b_epik_Metal_Only>
0

> <s_lp_Force_Field>
OPLS_2005

> <r_lp_Energy>
19.3798

> <b_lp_Chiralities_Consistent>
1

> <s_lp_Variant>
AV-unprocessed.smi:715-1

> <Gold.Version>
5.8.1

> <Gold.Id.Protein>
6NUR|6NUR_protein|mol2

> <Gold.PLP.Fitness>
49.1038

> <Gold.PLP.PLP>
-42.7545

> <Gold.PLP.part.hbond>
-3.1910

> <Gold.PLP.part.metal>
0.0000

> <Gold.PLP.part.buried>
-4.1755

> <Gold.PLP.part.nonpolar>
-34.0002

> <Gold.PLP.part.repulsive>
0.1955

> <Gold.PLP.ligand.clash>
0.0000

> <Gold.PLP.ligand.torsion>
1.3599

> <Gold.PLP.Chemscore.Hbond>
3.0000

> <Gold.PLP.Chemscore.CHOScore>
0.0000

> <Gold.PLP.Chemscore.Metal>
0.0000

> <Gold.Chemscore.Hbonds>
donor molecule, donor type, donor heavy atom, donor atom, acceptor molecule, acceptor atom, score
      L1  H     6    24       P1  8028  1.00
      L1  H     8    27       P1  8028  1.00
      P1  H  7989  7998       L1    10  0.85

> <Gold.PLP.Chemscore.Internal.Correction>
0.0690

> <Gold.Rescore>
     Score         DG    S(hbond)    S(metal)    S(lipo)     H(rot)  DE(clash)    DE(int)     intcor
     16.58     -18.17       2.40        0.00      89.85       2.29       0.23       1.35       ----

> <Gold.Chemscore.Fitness>
16.5824

> <Gold.Chemscore.DG>
-18.1674

> <Gold.Chemscore.ZeroCoef>
-5.4800

> <Gold.Chemscore.Hbond>
2.4037

> <Gold.Chemscore.Metal>
0.0000

> <Gold.Chemscore.Lipo>
89.8543

> <Gold.Chemscore.Internal_Hbond>
0.0000

> <Gold.Chemscore.DEClash>
0.2314

> <Gold.Chemscore.DEInternal>
1.3536

> <Gold.Chemscore.Rot>
2.2866

> <Gold.Chemscore.Internal.Correction>
   9.000000E+99

> <Gold.Chemscore.Hbonds>
donor molecule, donor type, donor heavy atom, donor atom, acceptor molecule, acceptor atom, score
      L1  H     6    24       P1  8028  0.87
      L1  H     8    27       P1  8028  0.99
      P1  H  7989  7998       L1    10  0.14

> <Gold.Chemscore.Hbond.Weighted>
-8.0283

> <Gold.Chemscore.Metal.Weighted>
-0.0000

> <Gold.Chemscore.Lipo.Weighted>
-10.5129

> <Gold.Chemscore.Internal_Hbond.Weighted>
0.0000

> <Gold.Chemscore.DEClash.Weighted>
0.2314

> <Gold.Chemscore.DEInternal.Weighted>
1.3536

> <Gold.Chemscore.Rot.Weighted>
5.8538

> <Gold.Chemscore.Internal.Correction.Weighted>
   9.000000E+99

> <Gold.Protein.RotatedTorsions>
[ 6907 6896 6895 6894 ] final  -56.18 input  -60.11 | X-H torsion
[ 7974 7965 7964 7962 ] final  147.13 input  175.53 | X-H torsion
[ 8008 7997 7996 7995 ] final   -6.47 input   59.86 | X-H torsion
[ 10167 10162 10161 10158 ] final -158.49 input  -65.29 | X-H torsion
[ 10718 10713 10712 10709 ] final -149.64 input   66.30 | X-H torsion
[ 10763 10752 10751 10750 ] final  167.08 input  -60.55 | X-H torsion
[ 11005 11000 10999 10996 ] final  179.46 input  -57.11 | X-H torsion

> <Gold.Protein.ActiveResidues>
 VAL166  LYS551  ARG553  GLY616  TRP617  ASP618  TYR619  PRO620  LYS621  CYS622 
 ASP623  PHE694  ASN695  SER759  ASP760  ASP761  ALA762  ILE779  LEU786  VAL792 
 PHE793  MET794  SER795  GLU796  ALA797  LYS798  CYS799  TRP800  GLU811  SER814 

> <Gold.Protein.RotatedAtoms>
  150.8189  134.7386  159.6754 H   0  0  0  0  0  0  0  0  0  0  0  0  # atno 6907 bound_to 6896
  152.4306  134.5781  159.9950 H   0  0  0  0  0  0  0  0  0  0  0  0  # atno 6908 bound_to 6896
  151.5970  133.3323  159.3075 H   0  0  0  0  0  0  0  0  0  0  0  0  # atno 6909 bound_to 6896
  144.8616  139.5990  143.5928 H   0  0  0  0  0  0  0  0  0  0  0  0  # atno 7974 bound_to 7965
  154.5934  140.2432  155.7889 H   0  0  0  0  0  0  0  0  0  0  0  0  # atno 8008 bound_to 7997
  156.2263  140.2981  156.0028 H   0  0  0  0  0  0  0  0  0  0  0  0  # atno 8009 bound_to 7997
  155.2334  140.0404  157.2956 H   0  0  0  0  0  0  0  0  0  0  0  0  # atno 8010 bound_to 7997
  139.6688  143.9782  152.2271 H   0  0  0  0  0  0  0  0  0  0  0  0  # atno 10167 bound_to 10162
  156.4358  130.8097  151.2326 H   0  0  0  0  0  0  0  0  0  0  0  0  # atno 10718 bound_to 10713
  154.3485  135.2753  155.2385 H   0  0  0  0  0  0  0  0  0  0  0  0  # atno 10763 bound_to 10752
  154.4624  135.5903  153.6268 H   0  0  0  0  0  0  0  0  0  0  0  0  # atno 10764 bound_to 10752
  152.9852  135.6068  154.3693 H   0  0  0  0  0  0  0  0  0  0  0  0  # atno 10765 bound_to 10752
  140.4064  134.6731  157.4590 H   0  0  0  0  0  0  0  0  0  0  0  0  # atno 11005 bound_to 11000
  146.2865  139.7017  142.9192 LP  0  0  0  0  0  0  0  0  0  0  0  0  # atno 17320 bound_to 7965
  145.4301  141.0414  143.2915 LP  0  0  0  0  0  0  0  0  0  0  0  0  # atno 17321 bound_to 7965
  139.9541  144.6601  150.8143 LP  0  0  0  0  0  0  0  0  0  0  0  0  # atno 17342 bound_to 10162
  140.7610  143.3164  151.2724 LP  0  0  0  0  0  0  0  0  0  0  0  0  # atno 17343 bound_to 10162
  157.7507  131.0184  150.3624 LP  0  0  0  0  0  0  0  0  0  0  0  0  # atno 17370 bound_to 10713
  156.3971  130.3909  149.6987 LP  0  0  0  0  0  0  0  0  0  0  0  0  # atno 17371 bound_to 10713
  140.0299  134.6422  155.9121 LP  0  0  0  0  0  0  0  0  0  0  0  0  # atno 17394 bound_to 11000
  141.1838  133.6551  156.5129 LP  0  0  0  0  0  0  0  0  0  0  0  0  # atno 17395 bound_to 11000

$$$$
