AV-unprocessed.smi:53|AV-procd|sdf|515|dock1
  -GOLD-   2262016393D 1   1.00000     0.00000
 Structure written by MMmdl.
 30 31  0  0  0  0  0  0  0  0  1 V2000
  152.9118  141.0062  159.0807 N   0  0  0  0  0  0  0  0  0  0  0  0
  152.1079  141.0507  158.0088 C   0  0  0  0  0  0  0  0  0  0  0  0
  150.9637  141.9339  157.9902 C   0  0  0  0  0  0  0  0  0  0  0  0
  150.2007  141.9233  156.8748 C   0  0  0  0  0  0  0  0  0  0  0  0
  150.4897  141.1067  155.7887 N   0  0  0  0  0  0  0  0  0  0  0  0
  149.6361  141.0947  154.5323 C   0  0  2  0  0  0  0  0  0  0  0  0
  148.6631  142.0959  154.6100 O   0  0  0  0  0  0  0  0  0  0  0  0
  147.3786  141.5181  154.8232 C   0  0  1  0  0  0  0  0  0  0  0  0
  146.2569  142.4741  154.3816 C   0  0  0  0  0  0  0  0  0  0  0  0
  144.9971  141.9262  154.7052 O   0  0  0  0  0  0  0  0  0  0  0  0
  147.4657  140.1976  154.0489 C   0  0  1  0  0  0  0  0  0  0  0  0
  147.2500  140.3995  152.6634 O   0  0  0  0  0  0  0  0  0  0  0  0
  148.8985  139.7506  154.3068 C   0  0  2  0  0  0  0  0  0  0  0  0
  148.9283  138.8831  155.4277 O   0  0  0  0  0  0  0  0  0  0  0  0
  151.6169  140.2515  155.8390 C   0  0  0  0  0  0  0  0  0  0  0  0
  151.9011  139.5026  154.9048 O   0  0  0  0  0  0  0  0  0  0  0  0
  152.3789  140.2764  156.9761 N   0  0  0  0  0  0  0  0  0  0  0  0
  150.3085  141.3611  153.7145 H   0  0  0  0  0  0  0  0  0  0  0  0
  147.2669  141.2767  155.8819 H   0  0  0  0  0  0  0  0  0  0  0  0
  146.7298  139.4725  154.3997 H   0  0  0  0  0  0  0  0  0  0  0  0
  149.3347  139.2275  153.4546 H   0  0  0  0  0  0  0  0  0  0  0  0
  153.7100  140.3878  159.0905 H   0  0  0  0  0  0  0  0  0  0  0  0
  152.7163  141.5929  159.8792 H   0  0  0  0  0  0  0  0  0  0  0  0
  150.7023  142.5849  158.8125 H   0  0  0  0  0  0  0  0  0  0  0  0
  149.3455  142.5813  156.8572 H   0  0  0  0  0  0  0  0  0  0  0  0
  146.3689  143.4579  154.8384 H   0  0  0  0  0  0  0  0  0  0  0  0
  146.2835  142.6105  153.3000 H   0  0  0  0  0  0  0  0  0  0  0  0
  144.6972  141.4093  153.9730 H   0  0  0  0  0  0  0  0  0  0  0  0
  148.0873  140.4030  152.2257 H   0  0  0  0  0  0  0  0  0  0  0  0
  148.0729  138.4915  155.5216 H   0  0  0  0  0  0  0  0  0  0  0  0
  1  2  1  0  0  0  0
  1 22  1  0  0  0  0
  1 23  1  0  0  0  0
  2 17  2  0  0  0  0
  2  3  1  0  0  0  0
  3  4  2  0  0  0  0
  3 24  1  0  0  0  0
  4  5  1  0  0  0  0
  4 25  1  0  0  0  0
  5  6  1  0  0  0  0
  5 15  1  0  0  0  0
  6 18  1  0  0  0  0
  6 13  1  0  0  0  0
  6  7  1  0  0  0  0
  7  8  1  0  0  0  0
  8 19  1  0  0  0  0
  8  9  1  0  0  0  0
  8 11  1  0  0  0  0
  9 10  1  0  0  0  0
  9 26  1  0  0  0  0
  9 27  1  0  0  0  0
 10 28  1  0  0  0  0
 11 20  1  0  0  0  0
 11 12  1  0  0  0  0
 11 13  1  0  0  0  0
 12 29  1  0  0  0  0
 13 21  1  0  0  0  0
 13 14  1  0  0  0  0
 14 30  1  0  0  0  0
 15 16  2  0  0  0  0
 15 17  1  0  0  0  0
M  END
> <s_m_source_file>
AV-unprocessed.smi

> <i_m_source_file_index>
53

> <i_lp_mmshare_version>
43012

> <i_f3d_flags>
0

> <s_epik_input>
W05IMl1jMVtjSF1bY0hdbihjKD1PKW4xKVtDQEBIXTJPW0NASF0oW0NIMl1bT0hdKVtDQEBIXShbT0hdKVtDQEBIXTJbT0hd

> <s_epik_cmdline>
J2VwaWtfcHl0aG9uJywgJy1waCcsICc3LjAnLCAnLXRuJywgJzgnLCAnLW1hJywgJzIwMCcsICctbWV0YWxfYmluZGluZycsICctaW1hZScsICc8aW5maWxlLm1hZT4nLCAnLW9tYWUnLCAnPG91dGZpbGUubWFlPic=

> <r_lp_tautomer_probability>
0.99996

> <r_epik_Ionization_Penalty>
0.00069087

> <r_epik_Ionization_Penalty_Charging>
2.61959e-08

> <r_epik_Ionization_Penalty_Neutral>
0.000690844

> <r_epik_State_Penalty>
1.15523e-05

> <r_epik_Charging_Adjusted_Penalty>
1.15785e-05

> <i_epik_Tot_Q>
0

> <i_epik_Tot_abs_Q>
0

> <r_epik_Metal_State_Penalty>
-0

> <b_epik_Metal_Only>
0

> <s_epik_Chemistry_Notes>
This compound contains an acetal/aminal-like group ( X-CH(R)-Y where X, Y are N, S, or O) that may be acid/base labile, releasing an aldehyde.

> <s_lp_Force_Field>
OPLS_2005

> <r_lp_Energy>
36.7575

> <b_lp_Chiralities_Consistent>
1

> <s_lp_Variant>
AV-unprocessed.smi:53-3

> <Gold.Version>
5.8.1

> <Gold.Id.Protein>
6NUR|6NUR_protein|mol2

> <Gold.PLP.Fitness>
41.4781

> <Gold.PLP.PLP>
-27.3837

> <Gold.PLP.part.hbond>
-4.7437

> <Gold.PLP.part.metal>
0.0000

> <Gold.PLP.part.buried>
-2.8756

> <Gold.PLP.part.nonpolar>
-22.0772

> <Gold.PLP.part.repulsive>
2.0763

> <Gold.PLP.ligand.clash>
0.0000

> <Gold.PLP.ligand.torsion>
0.1010

> <Gold.PLP.Chemscore.Hbond>
3.7440

> <Gold.PLP.Chemscore.CHOScore>
1.0000

> <Gold.PLP.Chemscore.Metal>
0.0000

> <Gold.Chemscore.Hbonds>
donor molecule, donor type, donor heavy atom, donor atom, acceptor molecule, acceptor atom, score
      L1  H    10    28       P1 10175  1.00
      L1  H    12    29       P1  7957  1.00
      P1  H  7989  7998       L1    16  0.78
      P1  H  7997  8008       L1    17  1.00
      L1  C     4    25       P1  8028  1.00

> <Gold.PLP.Chemscore.Internal.Correction>
0.0644

> <Gold.Rescore>
     Score         DG    S(hbond)    S(metal)    S(lipo)     H(rot)  DE(clash)    DE(int)     intcor
      8.72      -9.12       2.79        0.00      32.48       3.71       0.15       0.25       ----

> <Gold.Chemscore.Fitness>
8.7152

> <Gold.Chemscore.DG>
-9.1186

> <Gold.Chemscore.ZeroCoef>
-5.4800

> <Gold.Chemscore.Hbond>
2.7948

> <Gold.Chemscore.Metal>
0.0000

> <Gold.Chemscore.Lipo>
32.4825

> <Gold.Chemscore.Internal_Hbond>
0.0000

> <Gold.Chemscore.DEClash>
0.1510

> <Gold.Chemscore.DEInternal>
0.2525

> <Gold.Chemscore.Rot>
3.7095

> <Gold.Chemscore.Internal.Correction>
   9.000000E+99

> <Gold.Chemscore.Hbonds>
donor molecule, donor type, donor heavy atom, donor atom, acceptor molecule, acceptor atom, score
      L1  H    10    28       P1 10175  0.33
      L1  H    12    29       P1  7957  1.00
      P1  H  7989  7998       L1    16  0.11
      P1  H  7997  8008       L1    17  0.60

> <Gold.Chemscore.Hbond.Weighted>
-9.3345

> <Gold.Chemscore.Metal.Weighted>
-0.0000

> <Gold.Chemscore.Lipo.Weighted>
-3.8005

> <Gold.Chemscore.Internal_Hbond.Weighted>
0.0000

> <Gold.Chemscore.DEClash.Weighted>
0.1510

> <Gold.Chemscore.DEInternal.Weighted>
0.2525

> <Gold.Chemscore.Rot.Weighted>
9.4964

> <Gold.Chemscore.Internal.Correction.Weighted>
   9.000000E+99

> <Gold.Protein.RotatedTorsions>
[ 6907 6896 6895 6894 ] final  -45.97 input  -60.11 | X-H torsion
[ 7974 7965 7964 7962 ] final   65.47 input  175.53 | X-H torsion
[ 8008 7997 7996 7995 ] final  -51.92 input   59.86 | X-H torsion
[ 10167 10162 10161 10158 ] final  157.04 input  -65.29 | X-H torsion
[ 10718 10713 10712 10709 ] final -126.76 input   66.30 | X-H torsion
[ 10763 10752 10751 10750 ] final   20.25 input  -60.55 | X-H torsion
[ 11005 11000 10999 10996 ] final -154.16 input  -57.11 | X-H torsion

> <Gold.Protein.ActiveResidues>
 VAL166  LYS551  ARG553  GLY616  TRP617  ASP618  TYR619  PRO620  LYS621  CYS622 
 ASP623  PHE694  ASN695  SER759  ASP760  ASP761  ALA762  ILE779  LEU786  VAL792 
 PHE793  MET794  SER795  GLU796  ALA797  LYS798  CYS799  TRP800  GLU811  SER814 

> <Gold.Protein.RotatedAtoms>
  150.9163  134.8580  159.7458 H   0  0  0  0  0  0  0  0  0  0  0  0  # atno 6907 bound_to 6896
  152.4970  134.4285  159.9514 H   0  0  0  0  0  0  0  0  0  0  0  0  # atno 6908 bound_to 6896
  151.4322  133.3627  159.2805 H   0  0  0  0  0  0  0  0  0  0  0  0  # atno 6909 bound_to 6896
  145.8381  139.3179  143.0948 H   0  0  0  0  0  0  0  0  0  0  0  0  # atno 7974 bound_to 7965
  154.4094  140.1236  156.4908 H   0  0  0  0  0  0  0  0  0  0  0  0  # atno 8008 bound_to 7997
  155.6992  140.3495  155.4906 H   0  0  0  0  0  0  0  0  0  0  0  0  # atno 8009 bound_to 7997
  155.9400  140.1085  157.1053 H   0  0  0  0  0  0  0  0  0  0  0  0  # atno 8010 bound_to 7997
  139.4822  144.4954  151.8248 H   0  0  0  0  0  0  0  0  0  0  0  0  # atno 10167 bound_to 10162
  156.1794  130.6722  151.0285 H   0  0  0  0  0  0  0  0  0  0  0  0  # atno 10718 bound_to 10713
  153.1093  135.6692  153.9529 H   0  0  0  0  0  0  0  0  0  0  0  0  # atno 10763 bound_to 10752
  153.9077  135.3028  155.3450 H   0  0  0  0  0  0  0  0  0  0  0  0  # atno 10764 bound_to 10752
  154.7513  135.5033  153.9372 H   0  0  0  0  0  0  0  0  0  0  0  0  # atno 10765 bound_to 10752
  140.7003  134.3944  157.5210 H   0  0  0  0  0  0  0  0  0  0  0  0  # atno 11005 bound_to 11000
  145.9496  140.8919  143.0266 LP  0  0  0  0  0  0  0  0  0  0  0  0  # atno 17320 bound_to 7965
  144.6735  140.1661  143.7418 LP  0  0  0  0  0  0  0  0  0  0  0  0  # atno 17321 bound_to 7965
  140.4441  144.1945  150.5893 LP  0  0  0  0  0  0  0  0  0  0  0  0  # atno 17342 bound_to 10162
  140.4652  143.2433  151.9165 LP  0  0  0  0  0  0  0  0  0  0  0  0  # atno 17343 bound_to 10162
  157.6858  131.0825  150.7246 LP  0  0  0  0  0  0  0  0  0  0  0  0  # atno 17370 bound_to 10713
  156.7304  130.4708  149.5501 LP  0  0  0  0  0  0  0  0  0  0  0  0  # atno 17371 bound_to 10713
  139.8898  134.8820  156.2400 LP  0  0  0  0  0  0  0  0  0  0  0  0  # atno 17394 bound_to 11000
  141.0169  133.7063  156.1203 LP  0  0  0  0  0  0  0  0  0  0  0  0  # atno 17395 bound_to 11000

$$$$
