AV-unprocessed.smi:34|AV-procd|sdf|227|dock9
  -GOLD-   2262015553D 1   1.00000     0.00000
 Structure written by MMmdl.
 55 59  0  0  0  0  0  0  0  0  1 V2000
  152.5766  140.2091  158.4460 O   0  0  0  0  0  0  0  0  0  0  0  0
  151.9258  141.1367  157.9637 C   0  0  0  0  0  0  0  0  0  0  0  0
  151.1517  140.9849  156.7446 N   0  0  0  0  0  0  0  0  0  0  0  0
  150.9344  139.8559  156.0303 C   0  0  0  0  0  0  0  0  0  0  0  0
  150.7547  139.8704  154.6829 N   0  0  0  0  0  0  0  0  0  0  0  0
  150.5511  138.7291  154.0182 C   0  0  0  0  0  0  0  0  0  0  0  0
  150.4954  137.4838  154.4958 N   0  0  0  0  0  0  0  0  0  0  0  0
  150.6817  137.4624  155.8475 C   0  0  0  0  0  0  0  0  0  0  0  0
  150.9055  138.5941  156.6790 C   0  0  0  0  0  0  0  0  0  0  0  0
  151.0494  138.1848  157.9984 N   0  0  0  0  0  0  0  0  0  0  0  0
  150.9169  136.8864  157.9434 C   0  0  0  0  0  0  0  0  0  0  0  0
  150.7010  136.3672  156.6835 N   0  0  0  0  0  0  0  0  0  0  0  0
  150.5058  134.9419  156.2594 C   0  0  2  0  0  0  0  0  0  0  0  0
  150.7608  134.8633  154.8867 O   0  0  0  0  0  0  0  0  0  0  0  0
  149.5507  134.6835  154.1444 C   0  0  1  0  0  0  0  0  0  0  0  0
  149.5803  133.2725  153.5392 C   0  0  0  0  0  0  0  0  0  0  0  0
  148.5470  133.1521  152.5749 O   0  0  0  0  0  0  0  0  0  0  0  0
  147.7059  132.1002  152.6103 C   0  0  0  0  0  0  0  0  0  0  0  0
  147.9199  131.0766  153.2630 O   0  0  0  0  0  0  0  0  0  0  0  0
  146.4832  132.3084  151.7821 C   0  0  0  0  0  0  0  0  0  0  0  0
  146.1673  133.6102  151.3276 C   0  0  0  0  0  0  0  0  0  0  0  0
  145.0210  133.8371  150.5412 C   0  0  0  0  0  0  0  0  0  0  0  0
  144.1761  132.7650  150.2003 C   0  0  0  0  0  0  0  0  0  0  0  0
  144.4789  131.4655  150.6465 C   0  0  0  0  0  0  0  0  0  0  0  0
  145.6252  131.2364  151.4324 C   0  0  0  0  0  0  0  0  0  0  0  0
  148.4071  134.8841  155.1466 C   0  0  2  0  0  0  0  0  0  0  0  0
  148.0660  136.1746  155.1497 F   0  0  0  0  0  0  0  0  0  0  0  0
  149.0552  134.4763  156.4576 C   0  0  2  0  0  0  0  0  0  0  0  0
  148.3838  135.0088  157.5844 O   0  0  0  0  0  0  0  0  0  0  0  0
  151.9664  142.5174  158.5511 C   0  0  0  0  0  0  0  0  0  0  0  0
  151.6424  143.6360  157.7506 C   0  0  0  0  0  0  0  0  0  0  0  0
  151.6950  144.9369  158.2884 C   0  0  0  0  0  0  0  0  0  0  0  0
  152.0800  145.1307  159.6283 C   0  0  0  0  0  0  0  0  0  0  0  0
  152.4161  144.0231  160.4295 C   0  0  0  0  0  0  0  0  0  0  0  0
  152.3631  142.7215  159.8931 C   0  0  0  0  0  0  0  0  0  0  0  0
  150.7146  141.8232  156.3910 H   0  0  0  0  0  0  0  0  0  0  0  0
  150.4148  138.8288  152.9514 H   0  0  0  0  0  0  0  0  0  0  0  0
  150.9768  136.2707  158.8291 H   0  0  0  0  0  0  0  0  0  0  0  0
  151.2392  134.3791  156.8379 H   0  0  0  0  0  0  0  0  0  0  0  0
  149.5049  135.4200  153.3409 H   0  0  0  0  0  0  0  0  0  0  0  0
  150.5401  133.0926  153.0533 H   0  0  0  0  0  0  0  0  0  0  0  0
  149.4664  132.5234  154.3241 H   0  0  0  0  0  0  0  0  0  0  0  0
  146.8020  134.4489  151.5756 H   0  0  0  0  0  0  0  0  0  0  0  0
  144.7902  134.8351  150.1992 H   0  0  0  0  0  0  0  0  0  0  0  0
  143.2969  132.9391  149.5975 H   0  0  0  0  0  0  0  0  0  0  0  0
  143.8309  130.6418  150.3857 H   0  0  0  0  0  0  0  0  0  0  0  0
  145.8274  130.2267  151.7583 H   0  0  0  0  0  0  0  0  0  0  0  0
  147.5073  134.3141  154.9130 H   0  0  0  0  0  0  0  0  0  0  0  0
  149.0668  133.3884  156.5354 H   0  0  0  0  0  0  0  0  0  0  0  0
  148.8531  134.7508  158.3634 H   0  0  0  0  0  0  0  0  0  0  0  0
  151.3464  143.5040  156.7199 H   0  0  0  0  0  0  0  0  0  0  0  0
  151.4409  145.7861  157.6715 H   0  0  0  0  0  0  0  0  0  0  0  0
  152.1213  146.1283  160.0402 H   0  0  0  0  0  0  0  0  0  0  0  0
  152.7180  144.1720  161.4559 H   0  0  0  0  0  0  0  0  0  0  0  0
  152.6342  141.8862  160.5225 H   0  0  0  0  0  0  0  0  0  0  0  0
  1  2  2  0  0  0  0
  2  3  1  0  0  0  0
  2 30  1  0  0  0  0
  3  4  1  0  0  0  0
  3 36  1  0  0  0  0
  4  9  1  0  0  0  0
  4  5  2  0  0  0  0
  5  6  1  0  0  0  0
  6  7  2  0  0  0  0
  6 37  1  0  0  0  0
  7  8  1  0  0  0  0
  8 12  1  0  0  0  0
  8  9  2  0  0  0  0
  9 10  1  0  0  0  0
 10 11  2  0  0  0  0
 11 12  1  0  0  0  0
 11 38  1  0  0  0  0
 12 13  1  0  0  0  0
 13 28  1  0  0  0  0
 13 14  1  0  0  0  0
 13 39  1  0  0  0  0
 14 15  1  0  0  0  0
 15 16  1  0  0  0  0
 15 26  1  0  0  0  0
 15 40  1  0  0  0  0
 16 17  1  0  0  0  0
 16 41  1  0  0  0  0
 16 42  1  0  0  0  0
 17 18  1  0  0  0  0
 18 19  2  0  0  0  0
 18 20  1  0  0  0  0
 20 25  1  0  0  0  0
 20 21  2  0  0  0  0
 21 22  1  0  0  0  0
 21 43  1  0  0  0  0
 22 23  2  0  0  0  0
 22 44  1  0  0  0  0
 23 24  1  0  0  0  0
 23 45  1  0  0  0  0
 24 25  2  0  0  0  0
 24 46  1  0  0  0  0
 25 47  1  0  0  0  0
 26 27  1  0  0  0  0
 26 28  1  0  0  0  0
 26 48  1  0  0  0  0
 28 29  1  0  0  0  0
 28 49  1  0  0  0  0
 29 50  1  0  0  0  0
 30 35  1  0  0  0  0
 30 31  2  0  0  0  0
 31 32  1  0  0  0  0
 31 51  1  0  0  0  0
 32 33  2  0  0  0  0
 32 52  1  0  0  0  0
 33 34  1  0  0  0  0
 33 53  1  0  0  0  0
 34 35  2  0  0  0  0
 34 54  1  0  0  0  0
 35 55  1  0  0  0  0
M  END
> <s_m_source_file>
AV-unprocessed.smi

> <i_m_source_file_index>
34

> <i_lp_mmshare_version>
43012

> <i_f3d_flags>
0

> <s_epik_input>
W2NIXTFbY0hdW2NIXVtjSF1bY0hdYzFDKD1PKVtOSF1jKG5bY0hdbjIpYyhjMjMpbltjSF1uM1tDQEBIXTRPW0NASF0oW0NAQEhdKEYpW0NASF00W09IXSlbQ0gyXU9DKD1PKWM1W2NIXVtjSF1bY0hdW2NIXVtjSF01

> <s_epik_cmdline>
J2VwaWtfcHl0aG9uJywgJy1waCcsICc3LjAnLCAnLXRuJywgJzgnLCAnLW1hJywgJzIwMCcsICctbWV0YWxfYmluZGluZycsICctaW1hZScsICc8aW5maWxlLm1hZT4nLCAnLW9tYWUnLCAnPG91dGZpbGUubWFlPic=

> <r_lp_tautomer_probability>
1

> <r_epik_Ionization_Penalty>
0.00257489

> <r_epik_Ionization_Penalty_Charging>
0

> <r_epik_Ionization_Penalty_Neutral>
0.00257489

> <r_epik_State_Penalty>
0.00519398

> <r_epik_Charging_Adjusted_Penalty>
0.00519398

> <i_epik_Tot_Q>
0

> <i_epik_Tot_abs_Q>
0

> <r_epik_Metal_State_Penalty>
0.335891

> <b_epik_Metal_Only>
0

> <s_epik_Chemistry_Notes>
This compound has an ester and may undergo hydrolysis at high or low pH. This compound contains an acetal/aminal-like group ( X-CH(R)-Y where X, Y are N, S, or O) that may be acid/base labile, releasing an aldehyde.

> <s_lp_Force_Field>
OPLS_2005

> <r_lp_Energy>
52.3338

> <b_lp_Chiralities_Consistent>
1

> <s_lp_Variant>
AV-unprocessed.smi:34-13

> <Gold.Version>
5.8.1

> <Gold.Id.Protein>
6NUR|6NUR_protein|mol2

> <Gold.PLP.Fitness>
59.9710

> <Gold.PLP.PLP>
-56.6666

> <Gold.PLP.part.hbond>
-1.0193

> <Gold.PLP.part.metal>
0.0000

> <Gold.PLP.part.buried>
-9.6985

> <Gold.PLP.part.nonpolar>
-46.7748

> <Gold.PLP.part.repulsive>
0.7384

> <Gold.PLP.ligand.clash>
0.0711

> <Gold.PLP.ligand.torsion>
1.7088

> <Gold.PLP.Chemscore.Hbond>
1.0000

> <Gold.PLP.Chemscore.CHOScore>
1.0000

> <Gold.PLP.Chemscore.Metal>
0.0000

> <Gold.Chemscore.Hbonds>
donor molecule, donor type, donor heavy atom, donor atom, acceptor molecule, acceptor atom, score
      P1  H  7989  7998       L1     5  1.00
      P1  H 10752 10765       L1    14  0.27
      L1  C     6    37       P1  7957  1.00

> <Gold.PLP.Chemscore.Internal.Correction>
0.7932

> <Gold.Rescore>
     Score         DG    S(hbond)    S(metal)    S(lipo)     H(rot)  DE(clash)    DE(int)     intcor
      7.32     -15.77       0.59        0.00     130.79       2.72       0.79       7.66       ----

> <Gold.Chemscore.Fitness>
7.3247

> <Gold.Chemscore.DG>
-15.7722

> <Gold.Chemscore.ZeroCoef>
-5.4800

> <Gold.Chemscore.Hbond>
0.5859

> <Gold.Chemscore.Metal>
0.0000

> <Gold.Chemscore.Lipo>
130.7908

> <Gold.Chemscore.Internal_Hbond>
0.0000

> <Gold.Chemscore.DEClash>
0.7894

> <Gold.Chemscore.DEInternal>
7.6582

> <Gold.Chemscore.Rot>
2.7215

> <Gold.Chemscore.Internal.Correction>
   9.000000E+99

> <Gold.Chemscore.Hbonds>
donor molecule, donor type, donor heavy atom, donor atom, acceptor molecule, acceptor atom, score
      P1  H  7989  7998       L1     5  0.40
      P1  H 10752 10765       L1    14  0.15

> <Gold.Chemscore.Hbond.Weighted>
-1.9568

> <Gold.Chemscore.Metal.Weighted>
-0.0000

> <Gold.Chemscore.Lipo.Weighted>
-15.3025

> <Gold.Chemscore.Internal_Hbond.Weighted>
0.0000

> <Gold.Chemscore.DEClash.Weighted>
0.7894

> <Gold.Chemscore.DEInternal.Weighted>
7.6582

> <Gold.Chemscore.Rot.Weighted>
6.9670

> <Gold.Chemscore.Internal.Correction.Weighted>
   9.000000E+99

> <Gold.Protein.RotatedTorsions>
[ 6907 6896 6895 6894 ] final    8.97 input  -60.11 | X-H torsion
[ 7974 7965 7964 7962 ] final -169.10 input  175.53 | X-H torsion
[ 8008 7997 7996 7995 ] final   62.70 input   59.86 | X-H torsion
[ 10167 10162 10161 10158 ] final   51.44 input  -65.29 | X-H torsion
[ 10718 10713 10712 10709 ] final   92.66 input   66.30 | X-H torsion
[ 10763 10752 10751 10750 ] final -177.87 input  -60.55 | X-H torsion
[ 11005 11000 10999 10996 ] final   91.08 input  -57.11 | X-H torsion

> <Gold.Protein.ActiveResidues>
 VAL166  LYS551  ARG553  GLY616  TRP617  ASP618  TYR619  PRO620  LYS621  CYS622 
 ASP623  PHE694  ASN695  SER759  ASP760  ASP761  ALA762  ILE779  LEU786  VAL792 
 PHE793  MET794  SER795  GLU796  ALA797  LYS798  CYS799  TRP800  GLU811  SER814 

> <Gold.Protein.RotatedAtoms>
  151.7146  135.0906  160.0273 H   0  0  0  0  0  0  0  0  0  0  0  0  # atno 6907 bound_to 6896
  152.3640  133.6328  159.6045 H   0  0  0  0  0  0  0  0  0  0  0  0  # atno 6908 bound_to 6896
  150.7624  133.9294  159.3464 H   0  0  0  0  0  0  0  0  0  0  0  0  # atno 6909 bound_to 6896
  144.7191  140.2271  143.6309 H   0  0  0  0  0  0  0  0  0  0  0  0  # atno 7974 bound_to 7965
  155.6186  140.3495  155.4644 H   0  0  0  0  0  0  0  0  0  0  0  0  # atno 8008 bound_to 7997
  156.0098  140.1231  157.0489 H   0  0  0  0  0  0  0  0  0  0  0  0  # atno 8009 bound_to 7997
  154.4277  140.1084  156.5799 H   0  0  0  0  0  0  0  0  0  0  0  0  # atno 8010 bound_to 7997
  140.2619  144.3363  150.6315 H   0  0  0  0  0  0  0  0  0  0  0  0  # atno 10167 bound_to 10162
  157.6958  131.0451  150.3915 H   0  0  0  0  0  0  0  0  0  0  0  0  # atno 10718 bound_to 10713
  154.5547  135.2815  155.0975 H   0  0  0  0  0  0  0  0  0  0  0  0  # atno 10763 bound_to 10752
  154.2407  135.6357  153.5210 H   0  0  0  0  0  0  0  0  0  0  0  0  # atno 10764 bound_to 10752
  153.0012  135.5559  154.6124 H   0  0  0  0  0  0  0  0  0  0  0  0  # atno 10765 bound_to 10752
  139.8845  134.8653  156.3377 H   0  0  0  0  0  0  0  0  0  0  0  0  # atno 11005 bound_to 11000
  145.8446  139.2146  143.1807 LP  0  0  0  0  0  0  0  0  0  0  0  0  # atno 17320 bound_to 7965
  146.0316  140.8253  142.9873 LP  0  0  0  0  0  0  0  0  0  0  0  0  # atno 17321 bound_to 7965
  140.5959  143.2167  151.7165 LP  0  0  0  0  0  0  0  0  0  0  0  0  # atno 17342 bound_to 10162
  139.5014  144.3868  152.0321 LP  0  0  0  0  0  0  0  0  0  0  0  0  # atno 17343 bound_to 10162
  156.4318  130.3973  149.6755 LP  0  0  0  0  0  0  0  0  0  0  0  0  # atno 17370 bound_to 10713
  156.3970  130.7655  151.2661 LP  0  0  0  0  0  0  0  0  0  0  0  0  # atno 17371 bound_to 10713
  140.9680  133.7346  156.0494 LP  0  0  0  0  0  0  0  0  0  0  0  0  # atno 17394 bound_to 11000
  140.7907  134.3621  157.5465 LP  0  0  0  0  0  0  0  0  0  0  0  0  # atno 17395 bound_to 11000

$$$$
