AV-unprocessed.smi:3237|AV-procd|sdf|12366|dock6
  -GOLD-   2272018223D 1   1.00000     0.00000
 Structure written by MMmdl.
 37 39  0  0  0  0  0  0  0  0  2 V2000
  151.8683  141.1616  157.8931 C   0  0  0  0  0  0  0  0  0  0  0  0
  151.4160  140.4256  156.6789 C   0  0  0  0  0  0  0  0  0  0  0  0
  150.1960  139.9651  156.2709 C   0  0  0  0  0  0  0  0  0  0  0  0
  150.4890  139.3539  155.0171 C   0  0  0  0  0  0  0  0  0  0  0  0
  149.5587  138.7171  154.1563 N   0  0  0  0  0  0  0  0  0  0  0  0
  148.2643  139.0188  153.9605 C   0  0  0  0  0  0  0  0  0  0  0  0
  147.6515  139.9320  154.5134 O   0  0  0  0  0  0  0  0  0  0  0  0
  147.6970  138.1808  153.0810 N   0  0  0  0  0  0  0  0  0  0  0  0
  146.2961  138.2258  152.6746 C   0  0  1  0  0  0  0  0  0  0  0  0
  145.8588  137.0124  151.8545 C   0  0  0  0  0  0  0  0  0  0  0  0
  144.3591  136.8582  152.1629 C   0  0  0  0  0  0  0  0  0  0  0  0
  144.0484  137.7890  153.2737 N   0  3  1  0  0  0  0  0  0  0  0  0
  143.0732  137.2650  154.2531 C   0  0  0  0  0  0  0  0  0  0  0  0
  142.1764  136.1858  153.6953 C   0  0  0  0  0  0  0  0  0  0  0  0
  141.6388  137.5845  153.9065 C   0  0  0  0  0  0  0  0  0  0  0  0
  145.3374  138.1877  153.8645 C   0  0  0  0  0  0  0  0  0  0  0  0
  151.7649  139.4467  154.6910 N   0  0  0  0  0  0  0  0  0  0  0  0
  152.3685  140.1275  155.7547 O   0  0  0  0  0  0  0  0  0  0  0  0
  151.0251  141.3991  158.5420 H   0  0  0  0  0  0  0  0  0  0  0  0
  152.3572  142.0965  157.6186 H   0  0  0  0  0  0  0  0  0  0  0  0
  152.5772  140.5630  158.4654 H   0  0  0  0  0  0  0  0  0  0  0  0
  149.2573  140.0609  156.7955 H   0  0  0  0  0  0  0  0  0  0  0  0
  149.9165  137.9193  153.6518 H   0  0  0  0  0  0  0  0  0  0  0  0
  148.2715  137.4592  152.6701 H   0  0  0  0  0  0  0  0  0  0  0  0
  146.1107  139.1294  152.0898 H   0  0  0  0  0  0  0  0  0  0  0  0
  146.0554  137.1407  150.7893 H   0  0  0  0  0  0  0  0  0  0  0  0
  146.3904  136.1182  152.1837 H   0  0  0  0  0  0  0  0  0  0  0  0
  143.7443  137.1134  151.2991 H   0  0  0  0  0  0  0  0  0  0  0  0
  144.1357  135.8253  152.4352 H   0  0  0  0  0  0  0  0  0  0  0  0
  143.3969  137.2325  155.2921 H   0  0  0  0  0  0  0  0  0  0  0  0
  142.3391  135.8596  152.6698 H   0  0  0  0  0  0  0  0  0  0  0  0
  141.8360  135.4122  154.3805 H   0  0  0  0  0  0  0  0  0  0  0  0
  140.9432  137.7307  154.7305 H   0  0  0  0  0  0  0  0  0  0  0  0
  141.4443  138.1873  153.0213 H   0  0  0  0  0  0  0  0  0  0  0  0
  145.6591  137.4389  154.5913 H   0  0  0  0  0  0  0  0  0  0  0  0
  145.2610  139.1480  154.3757 H   0  0  0  0  0  0  0  0  0  0  0  0
  143.6538  138.6191  152.8545 H   0  0  0  0  0  0  0  0  0  0  0  0
  1  2  1  0  0  0  0
  1 19  1  0  0  0  0
  1 20  1  0  0  0  0
  1 21  1  0  0  0  0
  2 18  1  0  0  0  0
  2  3  2  0  0  0  0
  3  4  1  0  0  0  0
  3 22  1  0  0  0  0
  4  5  1  0  0  0  0
  4 17  2  0  0  0  0
  5  6  1  0  0  0  0
  5 23  1  0  0  0  0
  6  7  2  0  0  0  0
  6  8  1  0  0  0  0
  8  9  1  0  0  0  0
  8 24  1  0  0  0  0
  9 16  1  0  0  0  0
  9 10  1  0  0  0  0
  9 25  1  0  0  0  0
 10 11  1  0  0  0  0
 10 26  1  0  0  0  0
 10 27  1  0  0  0  0
 11 12  1  0  0  0  0
 11 28  1  0  0  0  0
 11 29  1  0  0  0  0
 12 13  1  0  0  0  0
 12 16  1  0  0  0  0
 12 37  1  0  0  0  0
 13 15  1  0  0  0  0
 13 14  1  0  0  0  0
 13 30  1  0  0  0  0
 14 15  1  0  0  0  0
 14 31  1  0  0  0  0
 14 32  1  0  0  0  0
 15 33  1  0  0  0  0
 15 34  1  0  0  0  0
 16 35  1  0  0  0  0
 16 36  1  0  0  0  0
 17 18  1  0  0  0  0
M  CHG  1  12   1
M  END
> <s_m_source_file>
AV-unprocessed.smi

> <i_m_source_file_index>
3237

> <i_lp_mmshare_version>
43012

> <i_f3d_flags>
0

> <s_epik_input>
W0NIM11jMVtjSF1jKG5vMSlbTkhdQyg9TylbTkhdW0NAQEhdMltDSDJdW0NIMl1OKFtDSDJdMilbQ0hdM1tDSDJdW0NIMl0z

> <s_epik_cmdline>
J2VwaWtfcHl0aG9uJywgJy1waCcsICc3LjAnLCAnLXRuJywgJzgnLCAnLW1hJywgJzIwMCcsICctbWV0YWxfYmluZGluZycsICctaW1hZScsICc8aW5maWxlLm1hZT4nLCAnLW9tYWUnLCAnPG91dGZpbGUubWFlPic=

> <r_epik_Ionization_Penalty>
0.000720579

> <r_epik_Ionization_Penalty_Charging>
0.000680516

> <r_epik_Ionization_Penalty_Neutral>
4.00628e-05

> <r_epik_State_Penalty>
0.000432256

> <r_epik_Charging_Adjusted_Penalty>
0.00111277

> <i_epik_Tot_Q>
1

> <i_epik_Tot_abs_Q>
1

> <r_epik_Metal_State_Penalty>
0.0255091

> <b_epik_Metal_Only>
0

> <s_lp_Force_Field>
OPLS_2005

> <r_lp_Energy>
35.1178

> <b_lp_Chiralities_Consistent>
1

> <s_lp_Variant>
AV-unprocessed.smi:3237-4

> <Gold.Version>
5.8.1

> <Gold.Id.Protein>
6NUR|6NUR_protein|mol2

> <Gold.PLP.Fitness>
36.2090

> <Gold.PLP.PLP>
-22.4257

> <Gold.PLP.part.hbond>
-4.6636

> <Gold.PLP.part.metal>
0.0000

> <Gold.PLP.part.buried>
-0.2626

> <Gold.PLP.part.nonpolar>
-18.3675

> <Gold.PLP.part.repulsive>
0.2561

> <Gold.PLP.ligand.clash>
0.0000

> <Gold.PLP.ligand.torsion>
1.1649

> <Gold.PLP.Chemscore.Hbond>
4.9500

> <Gold.PLP.Chemscore.CHOScore>
0.0000

> <Gold.PLP.Chemscore.Metal>
0.0000

> <Gold.Chemscore.Hbonds>
donor molecule, donor type, donor heavy atom, donor atom, acceptor molecule, acceptor atom, score
      L1  H     8    24       P1  7948  1.00
      L1  H    12    37       P1 10175  2.00
      P1  H  7989  7998       L1    17  0.86
      P1  H  7997  8010       L1    18  1.00

> <Gold.PLP.Chemscore.Internal.Correction>
1.2630

> <Gold.Rescore>
     Score         DG    S(hbond)    S(metal)    S(lipo)     H(rot)  DE(clash)    DE(int)     intcor
     14.92     -18.06       3.08        0.00      47.15       1.26       0.30       2.84       ----

> <Gold.Chemscore.Fitness>
14.9186

> <Gold.Chemscore.DG>
-18.0646

> <Gold.Chemscore.ZeroCoef>
-5.4800

> <Gold.Chemscore.Hbond>
3.0813

> <Gold.Chemscore.Metal>
0.0000

> <Gold.Chemscore.Lipo>
47.1520

> <Gold.Chemscore.Internal_Hbond>
0.0000

> <Gold.Chemscore.DEClash>
0.3041

> <Gold.Chemscore.DEInternal>
2.8419

> <Gold.Chemscore.Rot>
1.2593

> <Gold.Chemscore.Internal.Correction>
   9.000000E+99

> <Gold.Chemscore.Hbonds>
donor molecule, donor type, donor heavy atom, donor atom, acceptor molecule, acceptor atom, score
      L1  H     8    24       P1  7948  0.99
      L1  H    12    37       P1 10175  0.98
      P1  H  7989  7998       L1    17  0.04
      P1  H  7997  8010       L1    18  0.92

> <Gold.Chemscore.Hbond.Weighted>
-10.2915

> <Gold.Chemscore.Metal.Weighted>
-0.0000

> <Gold.Chemscore.Lipo.Weighted>
-5.5168

> <Gold.Chemscore.Internal_Hbond.Weighted>
0.0000

> <Gold.Chemscore.DEClash.Weighted>
0.3041

> <Gold.Chemscore.DEInternal.Weighted>
2.8419

> <Gold.Chemscore.Rot.Weighted>
3.2237

> <Gold.Chemscore.Internal.Correction.Weighted>
   9.000000E+99

> <Gold.Protein.RotatedTorsions>
[ 6907 6896 6895 6894 ] final -175.09 input  -60.11 | X-H torsion
[ 7974 7965 7964 7962 ] final   55.41 input  175.53 | X-H torsion
[ 8008 7997 7996 7995 ] final   86.91 input   59.86 | X-H torsion
[ 10167 10162 10161 10158 ] final -162.22 input  -65.29 | X-H torsion
[ 10718 10713 10712 10709 ] final  155.80 input   66.30 | X-H torsion
[ 10763 10752 10751 10750 ] final  119.01 input  -60.55 | X-H torsion
[ 11005 11000 10999 10996 ] final  -45.90 input  -57.11 | X-H torsion

> <Gold.Protein.ActiveResidues>
 VAL166  LYS551  ARG553  GLY616  TRP617  ASP618  TYR619  PRO620  LYS621  CYS622 
 ASP623  PHE694  ASN695  SER759  ASP760  ASP761  ALA762  ILE779  LEU786  VAL792 
 PHE793  MET794  SER795  GLU796  ALA797  LYS798  CYS799  TRP800  GLU811  SER814 

> <Gold.Protein.RotatedAtoms>
  151.5829  133.3375  159.3011 H   0  0  0  0  0  0  0  0  0  0  0  0  # atno 6907 bound_to 6896
  150.8303  134.7556  159.6859 H   0  0  0  0  0  0  0  0  0  0  0  0  # atno 6908 bound_to 6896
  152.4387  134.5640  159.9954 H   0  0  0  0  0  0  0  0  0  0  0  0  # atno 6909 bound_to 6896
  145.9507  139.3969  143.0308 H   0  0  0  0  0  0  0  0  0  0  0  0  # atno 7974 bound_to 7965
  155.9687  140.3387  155.6556 H   0  0  0  0  0  0  0  0  0  0  0  0  # atno 8008 bound_to 7997
  155.6703  140.0726  157.2540 H   0  0  0  0  0  0  0  0  0  0  0  0  # atno 8009 bound_to 7997
  154.4161  140.1693  156.1859 H   0  0  0  0  0  0  0  0  0  0  0  0  # atno 8010 bound_to 7997
  139.6408  144.0264  152.2090 H   0  0  0  0  0  0  0  0  0  0  0  0  # atno 10167 bound_to 10162
  157.2135  131.0703  151.1955 H   0  0  0  0  0  0  0  0  0  0  0  0  # atno 10718 bound_to 10713
  153.5764  135.3492  155.2858 H   0  0  0  0  0  0  0  0  0  0  0  0  # atno 10763 bound_to 10752
  154.8674  135.4171  154.2669 H   0  0  0  0  0  0  0  0  0  0  0  0  # atno 10764 bound_to 10752
  153.3446  135.7052  153.6909 H   0  0  0  0  0  0  0  0  0  0  0  0  # atno 10765 bound_to 10752
  141.0545  133.6731  156.3079 H   0  0  0  0  0  0  0  0  0  0  0  0  # atno 11005 bound_to 11000
  145.8175  140.9695  143.0916 LP  0  0  0  0  0  0  0  0  0  0  0  0  # atno 17320 bound_to 7965
  144.6795  139.9999  143.7484 LP  0  0  0  0  0  0  0  0  0  0  0  0  # atno 17321 bound_to 7965
  139.9953  144.6332  150.7778 LP  0  0  0  0  0  0  0  0  0  0  0  0  # atno 17342 bound_to 10162
  140.7489  143.2930  151.3278 LP  0  0  0  0  0  0  0  0  0  0  0  0  # atno 17343 bound_to 10162
  157.3648  130.7150  149.6526 LP  0  0  0  0  0  0  0  0  0  0  0  0  # atno 17370 bound_to 10713
  155.9688  130.4215  150.4473 LP  0  0  0  0  0  0  0  0  0  0  0  0  # atno 17371 bound_to 10713
  140.5991  134.5573  157.5514 LP  0  0  0  0  0  0  0  0  0  0  0  0  # atno 17394 bound_to 11000
  139.9378  134.7842  156.0756 LP  0  0  0  0  0  0  0  0  0  0  0  0  # atno 17395 bound_to 11000

$$$$
