AV-unprocessed.smi:1025|AV-procd|sdf|4466|dock1
  -GOLD-   22720 2443D 1   1.00000     0.00000
 Structure written by MMmdl.
 51 52  0  0  0  0  0  0  0  0  1 V2000
  151.2445  144.1710  157.7596 C   0  0  0  0  0  0  0  0  0  0  0  0
  150.3947  143.2015  157.0856 N   0  0  0  0  0  0  0  0  0  0  0  0
  150.5516  141.8725  157.1722 C   0  0  0  0  0  0  0  0  0  0  0  0
  151.4416  141.3427  157.8385 O   0  0  0  0  0  0  0  0  0  0  0  0
  149.5542  141.0100  156.3863 C   0  0  2  0  0  0  0  0  0  0  0  0
  149.5259  141.4150  154.8973 C   0  0  0  0  0  0  0  0  0  0  0  0
  148.5111  140.5750  154.1046 C   0  0  0  0  0  0  0  0  0  0  0  0
  147.1006  140.6738  154.7190 C   0  0  1  0  0  0  0  0  0  0  0  0
  146.1595  139.8248  153.9950 N   0  0  0  0  0  0  0  0  0  0  0  0
  146.3543  138.5329  153.6954 C   0  0  0  0  0  0  0  0  0  0  0  0
  147.3614  137.9035  154.0190 O   0  0  0  0  0  0  0  0  0  0  0  0
  145.3225  138.0382  152.9912 N   0  0  0  0  0  0  0  0  0  0  0  0
  145.1687  136.7306  152.4585 C   0  0  0  0  0  0  0  0  0  0  0  0
  146.1626  135.7659  152.7166 C   0  0  0  0  0  0  0  0  0  0  0  0
  146.0812  134.5087  152.2330 N   0  0  0  0  0  0  0  0  0  0  0  0
  145.0004  134.1896  151.5088 C   0  0  0  0  0  0  0  0  0  0  0  0
  144.9834  132.7985  150.8510 C   0  0  0  0  0  0  0  0  0  0  0  0
  146.1792  132.6222  149.8853 C   0  0  0  0  0  0  0  0  0  0  0  0
  143.7109  132.6077  149.9926 C   0  0  0  0  0  0  0  0  0  0  0  0
  145.0404  131.7131  151.9416 C   0  0  0  0  0  0  0  0  0  0  0  0
  144.0313  135.0450  151.1572 N   0  0  0  0  0  0  0  0  0  0  0  0
  144.0983  136.3056  151.6362 C   0  0  0  0  0  0  0  0  0  0  0  0
  147.1270  140.2686  156.2038 C   0  0  0  0  0  0  0  0  0  0  0  0
  148.1394  141.1122  156.9947 C   0  0  0  0  0  0  0  0  0  0  0  0
  150.9013  145.1819  157.5406 H   0  0  0  0  0  0  0  0  0  0  0  0
  152.2783  144.0812  157.4236 H   0  0  0  0  0  0  0  0  0  0  0  0
  151.2159  144.0274  158.8404 H   0  0  0  0  0  0  0  0  0  0  0  0
  149.6403  143.5614  156.5191 H   0  0  0  0  0  0  0  0  0  0  0  0
  149.8760  139.9687  156.4485 H   0  0  0  0  0  0  0  0  0  0  0  0
  149.2691  142.4711  154.7986 H   0  0  0  0  0  0  0  0  0  0  0  0
  150.5172  141.2970  154.4573 H   0  0  0  0  0  0  0  0  0  0  0  0
  148.4948  140.9084  153.0664 H   0  0  0  0  0  0  0  0  0  0  0  0
  148.8361  139.5338  154.0891 H   0  0  0  0  0  0  0  0  0  0  0  0
  146.7618  141.7103  154.6588 H   0  0  0  0  0  0  0  0  0  0  0  0
  145.3019  140.2589  153.6869 H   0  0  0  0  0  0  0  0  0  0  0  0
  144.5948  138.6945  152.7486 H   0  0  0  0  0  0  0  0  0  0  0  0
  147.0314  136.0018  153.3134 H   0  0  0  0  0  0  0  0  0  0  0  0
  146.1438  131.6551  149.3826 H   0  0  0  0  0  0  0  0  0  0  0  0
  147.1360  132.6697  150.4064 H   0  0  0  0  0  0  0  0  0  0  0  0
  146.1839  133.3926  149.1132 H   0  0  0  0  0  0  0  0  0  0  0  0
  143.6323  133.3776  149.2239 H   0  0  0  0  0  0  0  0  0  0  0  0
  142.8020  132.6464  150.5941 H   0  0  0  0  0  0  0  0  0  0  0  0
  143.7125  131.6404  149.4889 H   0  0  0  0  0  0  0  0  0  0  0  0
  145.0313  130.7126  151.5077 H   0  0  0  0  0  0  0  0  0  0  0  0
  144.1884  131.7859  152.6182 H   0  0  0  0  0  0  0  0  0  0  0  0
  145.9460  131.8031  152.5427 H   0  0  0  0  0  0  0  0  0  0  0  0
  143.2994  136.9623  151.3294 H   0  0  0  0  0  0  0  0  0  0  0  0
  146.1344  140.3840  156.6412 H   0  0  0  0  0  0  0  0  0  0  0  0
  147.3850  139.2127  156.2965 H   0  0  0  0  0  0  0  0  0  0  0  0
  148.1534  140.7826  158.0345 H   0  0  0  0  0  0  0  0  0  0  0  0
  147.8072  142.1517  157.0053 H   0  0  0  0  0  0  0  0  0  0  0  0
  1  2  1  0  0  0  0
  1 25  1  0  0  0  0
  1 26  1  0  0  0  0
  1 27  1  0  0  0  0
  2  3  1  0  0  0  0
  2 28  1  0  0  0  0
  3  4  2  0  0  0  0
  3  5  1  0  0  0  0
  5 24  1  0  0  0  0
  5  6  1  0  0  0  0
  5 29  1  0  0  0  0
  6  7  1  0  0  0  0
  6 30  1  0  0  0  0
  6 31  1  0  0  0  0
  7  8  1  0  0  0  0
  7 32  1  0  0  0  0
  7 33  1  0  0  0  0
  8  9  1  0  0  0  0
  8 23  1  0  0  0  0
  8 34  1  0  0  0  0
  9 10  1  0  0  0  0
  9 35  1  0  0  0  0
 10 11  2  0  0  0  0
 10 12  1  0  0  0  0
 12 13  1  0  0  0  0
 12 36  1  0  0  0  0
 13 22  1  0  0  0  0
 13 14  2  0  0  0  0
 14 15  1  0  0  0  0
 14 37  1  0  0  0  0
 15 16  2  0  0  0  0
 16 17  1  0  0  0  0
 16 21  1  0  0  0  0
 17 18  1  0  0  0  0
 17 19  1  0  0  0  0
 17 20  1  0  0  0  0
 18 38  1  0  0  0  0
 18 39  1  0  0  0  0
 18 40  1  0  0  0  0
 19 41  1  0  0  0  0
 19 42  1  0  0  0  0
 19 43  1  0  0  0  0
 20 44  1  0  0  0  0
 20 45  1  0  0  0  0
 20 46  1  0  0  0  0
 21 22  2  0  0  0  0
 22 47  1  0  0  0  0
 23 24  1  0  0  0  0
 23 48  1  0  0  0  0
 23 49  1  0  0  0  0
 24 50  1  0  0  0  0
 24 51  1  0  0  0  0
M  END
> <s_m_source_file>
AV-unprocessed.smi

> <i_m_source_file_index>
1025

> <i_lp_mmshare_version>
43012

> <i_f3d_flags>
0

> <s_epik_input>
W0NIM11bTkhdQyg9TylbQ0BASF0xW0NIMl1bQ0gyXVtDQEhdKFtDSDJdW0NIMl0xKVtOSF1DKD1PKVtOSF1jMltjSF1uYyhDKFtDSDNdKShbQ0gzXSlbQ0gzXSluW2NIXTI=

> <s_epik_cmdline>
J2VwaWtfcHl0aG9uJywgJy1waCcsICc3LjAnLCAnLXRuJywgJzgnLCAnLW1hJywgJzIwMCcsICctbWV0YWxfYmluZGluZycsICctaW1hZScsICc8aW5maWxlLm1hZT4nLCAnLW9tYWUnLCAnPG91dGZpbGUubWFlPic=

> <r_lp_tautomer_probability>
1

> <r_epik_Ionization_Penalty>
2.76239e-05

> <r_epik_Ionization_Penalty_Charging>
0

> <r_epik_Ionization_Penalty_Neutral>
2.76239e-05

> <r_epik_State_Penalty>
-0

> <r_epik_Charging_Adjusted_Penalty>
0

> <i_epik_Tot_Q>
0

> <i_epik_Tot_abs_Q>
0

> <r_epik_Metal_State_Penalty>
-0

> <b_epik_Metal_Only>
0

> <s_lp_Force_Field>
OPLS_2005

> <r_lp_Energy>
8.76335

> <b_lp_Chiralities_Consistent>
1

> <s_lp_Variant>
AV-unprocessed.smi:1025-1

> <Gold.Version>
5.8.1

> <Gold.Id.Protein>
6NUR|6NUR_protein|mol2

> <Gold.PLP.Fitness>
45.7594

> <Gold.PLP.PLP>
-33.2324

> <Gold.PLP.part.hbond>
-3.0000

> <Gold.PLP.part.metal>
0.0000

> <Gold.PLP.part.buried>
-0.6984

> <Gold.PLP.part.nonpolar>
-30.0856

> <Gold.PLP.part.repulsive>
0.4675

> <Gold.PLP.ligand.clash>
0.0000

> <Gold.PLP.ligand.torsion>
0.3022

> <Gold.PLP.Chemscore.Hbond>
3.0000

> <Gold.PLP.Chemscore.CHOScore>
1.3263

> <Gold.PLP.Chemscore.Metal>
0.0000

> <Gold.Chemscore.Hbonds>
donor molecule, donor type, donor heavy atom, donor atom, acceptor molecule, acceptor atom, score
      L1  H     2    28       P1  8028  1.00
      L1  H     9    35       P1 10175  0.99
      L1  H    12    36       P1 10175  1.00
      L1  C    14    37       P1  7948  0.57
      L1  C    22    47       P1 10171  0.74

> <Gold.PLP.Chemscore.Internal.Correction>
0.1524

> <Gold.Rescore>
     Score         DG    S(hbond)    S(metal)    S(lipo)     H(rot)  DE(clash)    DE(int)     intcor
     17.99     -21.20       2.86        0.00      86.03       1.52       0.29       2.92       ----

> <Gold.Chemscore.Fitness>
17.9919

> <Gold.Chemscore.DG>
-21.2025

> <Gold.Chemscore.ZeroCoef>
-5.4800

> <Gold.Chemscore.Hbond>
2.8566

> <Gold.Chemscore.Metal>
0.0000

> <Gold.Chemscore.Lipo>
86.0268

> <Gold.Chemscore.Internal_Hbond>
0.0000

> <Gold.Chemscore.DEClash>
0.2898

> <Gold.Chemscore.DEInternal>
2.9208

> <Gold.Chemscore.Rot>
1.5171

> <Gold.Chemscore.Internal.Correction>
   9.000000E+99

> <Gold.Chemscore.Hbonds>
donor molecule, donor type, donor heavy atom, donor atom, acceptor molecule, acceptor atom, score
      L1  H     2    28       P1  8028  0.96
      L1  H     9    35       P1 10175  0.91
      L1  H    12    36       P1 10175  0.96

> <Gold.Chemscore.Hbond.Weighted>
-9.5412

> <Gold.Chemscore.Metal.Weighted>
-0.0000

> <Gold.Chemscore.Lipo.Weighted>
-10.0651

> <Gold.Chemscore.Internal_Hbond.Weighted>
0.0000

> <Gold.Chemscore.DEClash.Weighted>
0.2898

> <Gold.Chemscore.DEInternal.Weighted>
2.9208

> <Gold.Chemscore.Rot.Weighted>
3.8839

> <Gold.Chemscore.Internal.Correction.Weighted>
   9.000000E+99

> <Gold.Protein.RotatedTorsions>
[ 6907 6896 6895 6894 ] final   23.89 input  -60.11 | X-H torsion
[ 7974 7965 7964 7962 ] final   50.31 input  175.53 | X-H torsion
[ 8008 7997 7996 7995 ] final   53.93 input   59.86 | X-H torsion
[ 10167 10162 10161 10158 ] final    2.95 input  -65.29 | X-H torsion
[ 10718 10713 10712 10709 ] final  158.54 input   66.30 | X-H torsion
[ 10763 10752 10751 10750 ] final   -8.31 input  -60.55 | X-H torsion
[ 11005 11000 10999 10996 ] final  -81.39 input  -57.11 | X-H torsion

> <Gold.Protein.ActiveResidues>
 VAL166  LYS551  ARG553  GLY616  TRP617  ASP618  TYR619  PRO620  LYS621  CYS622 
 ASP623  PHE694  ASN695  SER759  ASP760  ASP761  ALA762  ILE779  LEU786  VAL792 
 PHE793  MET794  SER795  GLU796  ALA797  LYS798  CYS799  TRP800  GLU811  SER814 

> <Gold.Protein.RotatedAtoms>
  151.9492  135.0177  160.0540 H   0  0  0  0  0  0  0  0  0  0  0  0  # atno 6907 bound_to 6896
  152.1968  133.4807  159.5045 H   0  0  0  0  0  0  0  0  0  0  0  0  # atno 6908 bound_to 6896
  150.6946  134.1559  159.4201 H   0  0  0  0  0  0  0  0  0  0  0  0  # atno 6909 bound_to 6896
  146.0024  139.4454  143.0007 H   0  0  0  0  0  0  0  0  0  0  0  0  # atno 7974 bound_to 7965
  155.4763  140.3467  155.4333 H   0  0  0  0  0  0  0  0  0  0  0  0  # atno 8008 bound_to 7997
  156.1068  140.1450  156.9422 H   0  0  0  0  0  0  0  0  0  0  0  0  # atno 8009 bound_to 7997
  154.4729  140.0894  156.7169 H   0  0  0  0  0  0  0  0  0  0  0  0  # atno 8010 bound_to 7997
  140.6610  143.7304  150.7738 H   0  0  0  0  0  0  0  0  0  0  0  0  # atno 10167 bound_to 10162
  157.1764  131.0622  151.2155 H   0  0  0  0  0  0  0  0  0  0  0  0  # atno 10718 bound_to 10713
  153.4387  135.7013  153.6183 H   0  0  0  0  0  0  0  0  0  0  0  0  # atno 10763 bound_to 10752
  153.4567  135.3745  155.2315 H   0  0  0  0  0  0  0  0  0  0  0  0  # atno 10764 bound_to 10752
  154.8727  135.4010  154.3782 H   0  0  0  0  0  0  0  0  0  0  0  0  # atno 10765 bound_to 10752
  141.1666  133.7194  156.8415 H   0  0  0  0  0  0  0  0  0  0  0  0  # atno 11005 bound_to 11000
  145.7467  140.9988  143.1272 LP  0  0  0  0  0  0  0  0  0  0  0  0  # atno 17320 bound_to 7965
  144.6924  139.9165  143.7466 LP  0  0  0  0  0  0  0  0  0  0  0  0  # atno 17321 bound_to 7965
  140.0973  143.4821  152.2445 LP  0  0  0  0  0  0  0  0  0  0  0  0  # atno 17342 bound_to 10162
  139.5844  144.7524  151.3558 LP  0  0  0  0  0  0  0  0  0  0  0  0  # atno 17343 bound_to 10162
  157.3994  130.7325  149.6756 LP  0  0  0  0  0  0  0  0  0  0  0  0  # atno 17370 bound_to 10713
  155.9730  130.4125  150.4034 LP  0  0  0  0  0  0  0  0  0  0  0  0  # atno 17371 bound_to 10713
  140.1980  134.8918  157.3136 LP  0  0  0  0  0  0  0  0  0  0  0  0  # atno 17394 bound_to 11000
  140.2218  134.4014  155.7562 LP  0  0  0  0  0  0  0  0  0  0  0  0  # atno 17395 bound_to 11000

$$$$
