AV-unprocessed.smi:1412|AV-procd|sdf|5745|dock7
  -GOLD-   22720 5383D 1   1.00000     0.00000
 Structure written by MMmdl.
 40 41  0  0  0  0  0  0  0  0  2 V2000
  148.6555  140.4561  155.8278 C   0  0  0  0  0  0  0  0  0  0  0  0
  149.4357  140.7548  157.1211 C   0  0  0  0  0  0  0  0  0  0  0  0
  150.6997  139.8703  157.3675 C   0  0  2  0  0  0  0  0  0  0  0  0
  151.5426  139.9427  156.0658 C   0  0  0  0  0  0  0  0  0  0  0  0
  150.2315  138.3932  157.5811 C   0  0  0  0  0  0  0  0  0  0  0  0
  149.3421  138.2106  158.7297 N   0  0  0  0  0  0  0  0  0  0  0  0
  148.9780  137.0453  159.2846 C   0  0  0  0  0  0  0  0  0  0  0  0
  149.4139  135.9828  158.8354 O   0  0  0  0  0  0  0  0  0  0  0  0
  148.1204  137.1835  160.3208 N   0  5  0  0  0  0  0  0  0  0  0  0
  147.6386  136.0947  160.9422 C   0  0  0  0  0  0  0  0  0  0  0  0
  147.2894  134.9825  160.2761 N   0  0  0  0  0  0  0  0  0  0  0  0
  146.8194  133.9738  161.1064 N   0  0  0  0  0  0  0  0  0  0  0  0
  146.8351  134.3500  162.3847 C   0  0  0  0  0  0  0  0  0  0  0  0
  147.4261  135.9695  162.6907 S   0  0  0  0  0  0  0  0  0  0  0  0
  151.4918  140.3779  158.5244 N   0  0  0  0  0  0  0  0  0  0  0  0
  151.7846  141.8160  158.4986 C   0  0  0  0  0  0  0  0  0  0  0  0
  152.4732  142.2867  159.7911 C   0  0  0  0  0  0  0  0  0  0  0  0
  153.6639  141.5374  160.0023 O   0  0  0  0  0  0  0  0  0  0  0  0
  153.4177  140.1386  160.0870 C   0  0  0  0  0  0  0  0  0  0  0  0
  152.7388  139.6525  158.7954 C   0  0  0  0  0  0  0  0  0  0  0  0
  147.8089  141.1359  155.7293 H   0  0  0  0  0  0  0  0  0  0  0  0
  148.2573  139.4419  155.8211 H   0  0  0  0  0  0  0  0  0  0  0  0
  149.2757  140.5798  154.9403 H   0  0  0  0  0  0  0  0  0  0  0  0
  149.7051  141.8108  157.1332 H   0  0  0  0  0  0  0  0  0  0  0  0
  148.7372  140.6451  157.9514 H   0  0  0  0  0  0  0  0  0  0  0  0
  150.9292  139.8157  155.1732 H   0  0  0  0  0  0  0  0  0  0  0  0
  152.3035  139.1630  156.0283 H   0  0  0  0  0  0  0  0  0  0  0  0
  152.0540  140.9005  155.9686 H   0  0  0  0  0  0  0  0  0  0  0  0
  149.7559  137.9967  156.6842 H   0  0  0  0  0  0  0  0  0  0  0  0
  151.0890  137.7474  157.7662 H   0  0  0  0  0  0  0  0  0  0  0  0
  148.9570  139.0497  159.1378 H   0  0  0  0  0  0  0  0  0  0  0  0
  146.4984  133.6694  163.1522 H   0  0  0  0  0  0  0  0  0  0  0  0
  152.4290  142.0568  157.6535 H   0  0  0  0  0  0  0  0  0  0  0  0
  150.8728  142.3980  158.3778 H   0  0  0  0  0  0  0  0  0  0  0  0
  152.7265  143.3445  159.7215 H   0  0  0  0  0  0  0  0  0  0  0  0
  151.8060  142.1727  160.6470 H   0  0  0  0  0  0  0  0  0  0  0  0
  154.3645  139.6195  160.2358 H   0  0  0  0  0  0  0  0  0  0  0  0
  152.7935  139.9229  160.9556 H   0  0  0  0  0  0  0  0  0  0  0  0
  152.5567  138.5844  158.8975 H   0  0  0  0  0  0  0  0  0  0  0  0
  153.4368  139.7768  157.9676 H   0  0  0  0  0  0  0  0  0  0  0  0
  1  2  1  0  0  0  0
  1 21  1  0  0  0  0
  1 22  1  0  0  0  0
  1 23  1  0  0  0  0
  2  3  1  0  0  0  0
  2 24  1  0  0  0  0
  2 25  1  0  0  0  0
  3  4  1  0  0  0  0
  3  5  1  0  0  0  0
  3 15  1  0  0  0  0
  4 26  1  0  0  0  0
  4 27  1  0  0  0  0
  4 28  1  0  0  0  0
  5  6  1  0  0  0  0
  5 29  1  0  0  0  0
  5 30  1  0  0  0  0
  6  7  1  0  0  0  0
  6 31  1  0  0  0  0
  7  8  2  0  0  0  0
  7  9  1  0  0  0  0
  9 10  1  0  0  0  0
 10 14  1  0  0  0  0
 10 11  2  0  0  0  0
 11 12  1  0  0  0  0
 12 13  2  0  0  0  0
 13 14  1  0  0  0  0
 13 32  1  0  0  0  0
 15 20  1  0  0  0  0
 15 16  1  0  0  0  0
 16 17  1  0  0  0  0
 16 33  1  0  0  0  0
 16 34  1  0  0  0  0
 17 18  1  0  0  0  0
 17 35  1  0  0  0  0
 17 36  1  0  0  0  0
 18 19  1  0  0  0  0
 19 20  1  0  0  0  0
 19 37  1  0  0  0  0
 19 38  1  0  0  0  0
 20 39  1  0  0  0  0
 20 40  1  0  0  0  0
M  CHG  1   9  -1
M  END
> <s_m_source_file>
AV-unprocessed.smi

> <i_m_source_file_index>
1412

> <i_lp_mmshare_version>
43012

> <i_f3d_flags>
0

> <s_epik_input>
W0NIMl0xW0NIMl1PW0NIMl1bQ0gyXU4xW0NAQF0oW0NIM10pKFtDSDJdW0NIM10pW0NIMl1bTkhdQyg9TylbTkhdYzJubltjSF1zMg==

> <s_epik_cmdline>
J2VwaWtfcHl0aG9uJywgJy1waCcsICc3LjAnLCAnLXRuJywgJzgnLCAnLW1hJywgJzIwMCcsICctbWV0YWxfYmluZGluZycsICctaW1hZScsICc8aW5maWxlLm1hZT4nLCAnLW9tYWUnLCAnPG91dGZpbGUubWFlPic=

> <r_lp_tautomer_probability>
1

> <r_epik_Ionization_Penalty>
4.84662

> <r_epik_Ionization_Penalty_Charging>
4.3852

> <r_epik_Ionization_Penalty_Neutral>
0.461421

> <r_epik_State_Penalty>
4.67356

> <r_epik_Charging_Adjusted_Penalty>
9.05877

> <i_epik_Tot_Q>
-1

> <i_epik_Tot_abs_Q>
1

> <r_epik_Metal_State_Penalty>
1.08474

> <b_epik_Metal_Only>
1

> <s_lp_Force_Field>
OPLS_2005

> <r_lp_Energy>
39.9544

> <b_lp_Chiralities_Consistent>
1

> <s_lp_Variant>
AV-unprocessed.smi:1412-6

> <Gold.Version>
5.8.1

> <Gold.Id.Protein>
6NUR|6NUR_protein|mol2

> <Gold.PLP.Fitness>
43.9207

> <Gold.PLP.PLP>
-34.1031

> <Gold.PLP.part.hbond>
-3.0000

> <Gold.PLP.part.metal>
0.0000

> <Gold.PLP.part.buried>
-6.3487

> <Gold.PLP.part.nonpolar>
-26.1127

> <Gold.PLP.part.repulsive>
0.2169

> <Gold.PLP.ligand.clash>
0.0000

> <Gold.PLP.ligand.torsion>
0.4972

> <Gold.PLP.Chemscore.Hbond>
3.5437

> <Gold.PLP.Chemscore.CHOScore>
0.0000

> <Gold.PLP.Chemscore.Metal>
0.0000

> <Gold.Chemscore.Hbonds>
donor molecule, donor type, donor heavy atom, donor atom, acceptor molecule, acceptor atom, score
      P1  H  6896  6909       L1     8  1.00
      P1  H  6931  6943       L1     9  1.14
      P1  H  6934  6947       L1     9  1.01

> <Gold.PLP.Chemscore.Internal.Correction>
0.1809

> <Gold.Rescore>
     Score         DG    S(hbond)    S(metal)    S(lipo)     H(rot)  DE(clash)    DE(int)     intcor
     13.60     -15.54       1.92        0.00      71.00       1.82       0.00       1.94       ----

> <Gold.Chemscore.Fitness>
13.5960

> <Gold.Chemscore.DG>
-15.5396

> <Gold.Chemscore.ZeroCoef>
-5.4800

> <Gold.Chemscore.Hbond>
1.9229

> <Gold.Chemscore.Metal>
0.0000

> <Gold.Chemscore.Lipo>
71.0027

> <Gold.Chemscore.Internal_Hbond>
0.0000

> <Gold.Chemscore.DEClash>
0.0029

> <Gold.Chemscore.DEInternal>
1.9407

> <Gold.Chemscore.Rot>
1.8243

> <Gold.Chemscore.Internal.Correction>
   9.000000E+99

> <Gold.Chemscore.Hbonds>
donor molecule, donor type, donor heavy atom, donor atom, acceptor molecule, acceptor atom, score
      P1  H  6896  6909       L1     8  0.94
      P1  H  6931  6943       L1     9  0.16
      P1  H  6934  6947       L1     9  0.45

> <Gold.Chemscore.Hbond.Weighted>
-6.4225

> <Gold.Chemscore.Metal.Weighted>
-0.0000

> <Gold.Chemscore.Lipo.Weighted>
-8.3073

> <Gold.Chemscore.Internal_Hbond.Weighted>
0.0000

> <Gold.Chemscore.DEClash.Weighted>
0.0029

> <Gold.Chemscore.DEInternal.Weighted>
1.9407

> <Gold.Chemscore.Rot.Weighted>
4.6702

> <Gold.Chemscore.Internal.Correction.Weighted>
   9.000000E+99

> <Gold.Protein.RotatedTorsions>
[ 6907 6896 6895 6894 ] final   48.17 input  -60.11 | X-H torsion
[ 7974 7965 7964 7962 ] final -148.52 input  175.53 | X-H torsion
[ 8008 7997 7996 7995 ] final  116.00 input   59.86 | X-H torsion
[ 10167 10162 10161 10158 ] final  -22.08 input  -65.29 | X-H torsion
[ 10718 10713 10712 10709 ] final  -32.00 input   66.30 | X-H torsion
[ 10763 10752 10751 10750 ] final   86.30 input  -60.55 | X-H torsion
[ 11005 11000 10999 10996 ] final  -87.05 input  -57.11 | X-H torsion

> <Gold.Protein.ActiveResidues>
 VAL166  LYS551  ARG553  GLY616  TRP617  ASP618  TYR619  PRO620  LYS621  CYS622 
 ASP623  PHE694  ASN695  SER759  ASP760  ASP761  ALA762  ILE779  LEU786  VAL792 
 PHE793  MET794  SER795  GLU796  ALA797  LYS798  CYS799  TRP800  GLU811  SER814 

> <Gold.Protein.RotatedAtoms>
  152.2765  134.7876  160.0404 H   0  0  0  0  0  0  0  0  0  0  0  0  # atno 6907 bound_to 6896
  151.8470  133.3428  159.3669 H   0  0  0  0  0  0  0  0  0  0  0  0  # atno 6908 bound_to 6896
  150.7172  134.5264  159.5723 H   0  0  0  0  0  0  0  0  0  0  0  0  # atno 6909 bound_to 6896
  144.8024  140.5186  143.5698 H   0  0  0  0  0  0  0  0  0  0  0  0  # atno 7974 bound_to 7965
  156.2414  140.2927  156.0455 H   0  0  0  0  0  0  0  0  0  0  0  0  # atno 8008 bound_to 7997
  155.1939  140.0407  157.2922 H   0  0  0  0  0  0  0  0  0  0  0  0  # atno 8009 bound_to 7997
  154.6176  140.2467  155.7597 H   0  0  0  0  0  0  0  0  0  0  0  0  # atno 8010 bound_to 7997
  140.7284  143.4568  151.0437 H   0  0  0  0  0  0  0  0  0  0  0  0  # atno 10167 bound_to 10162
  156.3803  130.4355  149.7474 H   0  0  0  0  0  0  0  0  0  0  0  0  # atno 10718 bound_to 10713
  153.1557  135.4585  154.9701 H   0  0  0  0  0  0  0  0  0  0  0  0  # atno 10763 bound_to 10752
  154.7859  135.3204  154.7889 H   0  0  0  0  0  0  0  0  0  0  0  0  # atno 10764 bound_to 10752
  153.8387  135.6932  153.4860 H   0  0  0  0  0  0  0  0  0  0  0  0  # atno 10765 bound_to 10752
  141.1622  133.7489  156.9250 H   0  0  0  0  0  0  0  0  0  0  0  0  # atno 11005 bound_to 11000
  145.5520  139.1477  143.3389 LP  0  0  0  0  0  0  0  0  0  0  0  0  # atno 17320 bound_to 7965
  146.2309  140.5658  142.8976 LP  0  0  0  0  0  0  0  0  0  0  0  0  # atno 17321 bound_to 7965
  139.8249  143.7770  152.3178 LP  0  0  0  0  0  0  0  0  0  0  0  0  # atno 17342 bound_to 10162
  139.7865  144.7426  151.0015 LP  0  0  0  0  0  0  0  0  0  0  0  0  # atno 17343 bound_to 10162
  156.4567  130.7932  151.2953 LP  0  0  0  0  0  0  0  0  0  0  0  0  # atno 17370 bound_to 10713
  157.7492  131.0078  150.3206 LP  0  0  0  0  0  0  0  0  0  0  0  0  # atno 17371 bound_to 10713
  140.1425  134.9284  157.2486 LP  0  0  0  0  0  0  0  0  0  0  0  0  # atno 17394 bound_to 11000
  140.2819  134.3340  155.7340 LP  0  0  0  0  0  0  0  0  0  0  0  0  # atno 17395 bound_to 11000

$$$$
