AV-unprocessed.smi:1951|AV-procd|sdf|7881|dock1
  -GOLD-   2272010 33D 1   1.00000     0.00000
 Structure written by MMmdl.
 46 47  0  0  0  0  0  0  0  0  2 V2000
  146.3718  137.4133  163.5701 C   0  0  0  0  0  0  0  0  0  0  0  0
  147.3146  137.1747  162.5305 O   0  0  0  0  0  0  0  0  0  0  0  0
  147.3348  135.9298  161.9311 C   0  0  0  0  0  0  0  0  0  0  0  0
  146.9710  134.8514  162.6697 N   0  0  0  0  0  0  0  0  0  0  0  0
  146.9931  133.6356  162.0859 C   0  0  0  0  0  0  0  0  0  0  0  0
  147.3821  133.4293  160.7496 C   0  0  0  0  0  0  0  0  0  0  0  0
  147.7585  134.5462  159.9810 C   0  0  0  0  0  0  0  0  0  0  0  0
  147.7254  135.8310  160.5752 C   0  0  0  0  0  0  0  0  0  0  0  0
  148.1038  137.0201  159.8942 N   0  0  0  0  0  0  0  0  0  0  0  0
  149.0765  137.1828  158.9820 C   0  0  0  0  0  0  0  0  0  0  0  0
  149.8280  136.2969  158.5750 O   0  0  0  0  0  0  0  0  0  0  0  0
  149.1171  138.4461  158.5353 N   0  0  0  0  0  0  0  0  0  0  0  0
  150.0348  138.9390  157.5150 C   0  0  0  0  0  0  0  0  0  0  0  0
  151.3671  139.4016  158.1357 C   0  0  0  0  0  0  0  0  0  0  0  0
  151.3340  140.8258  158.5535 N   0  3  2  0  0  0  0  0  0  0  0  0
  150.8859  141.7208  157.4553 C   0  0  0  0  0  0  0  0  0  0  0  0
  150.7334  143.1709  157.9439 C   0  0  0  0  0  0  0  0  0  0  0  0
  152.0438  143.6943  158.5545 C   0  0  1  0  0  0  0  0  0  0  0  0
  151.8956  145.1325  159.0702 C   0  0  0  0  0  0  0  0  0  0  0  0
  152.5015  142.7338  159.6647 C   0  0  0  0  0  0  0  0  0  0  0  0
  152.6175  141.2910  159.1439 C   0  0  0  0  0  0  0  0  0  0  0  0
  146.4840  138.4355  163.9305 H   0  0  0  0  0  0  0  0  0  0  0  0
  146.5335  136.7449  164.4170 H   0  0  0  0  0  0  0  0  0  0  0  0
  145.3470  137.2991  163.2139 H   0  0  0  0  0  0  0  0  0  0  0  0
  146.6981  132.8012  162.7047 H   0  0  0  0  0  0  0  0  0  0  0  0
  147.3959  132.4361  160.3257 H   0  0  0  0  0  0  0  0  0  0  0  0
  148.0782  134.3960  158.9613 H   0  0  0  0  0  0  0  0  0  0  0  0
  147.5082  137.8185  160.0594 H   0  0  0  0  0  0  0  0  0  0  0  0
  148.4631  139.1103  158.9240 H   0  0  0  0  0  0  0  0  0  0  0  0
  150.2167  138.1323  156.8046 H   0  0  0  0  0  0  0  0  0  0  0  0
  149.5507  139.7403  156.9562 H   0  0  0  0  0  0  0  0  0  0  0  0
  151.6440  138.7786  158.9878 H   0  0  0  0  0  0  0  0  0  0  0  0
  152.1499  139.2629  157.3883 H   0  0  0  0  0  0  0  0  0  0  0  0
  151.5999  141.6733  156.6312 H   0  0  0  0  0  0  0  0  0  0  0  0
  149.9277  141.3759  157.0653 H   0  0  0  0  0  0  0  0  0  0  0  0
  150.4286  143.8073  157.1123 H   0  0  0  0  0  0  0  0  0  0  0  0
  149.9328  143.2238  158.6830 H   0  0  0  0  0  0  0  0  0  0  0  0
  152.8059  143.6993  157.7735 H   0  0  0  0  0  0  0  0  0  0  0  0
  151.1474  145.1963  159.8608 H   0  0  0  0  0  0  0  0  0  0  0  0
  151.5913  145.8066  158.2690 H   0  0  0  0  0  0  0  0  0  0  0  0
  152.8382  145.5045  159.4726 H   0  0  0  0  0  0  0  0  0  0  0  0
  153.4636  143.0571  160.0640 H   0  0  0  0  0  0  0  0  0  0  0  0
  151.7962  142.7647  160.4966 H   0  0  0  0  0  0  0  0  0  0  0  0
  152.9130  140.6436  159.9686 H   0  0  0  0  0  0  0  0  0  0  0  0
  153.4089  141.2265  158.3951 H   0  0  0  0  0  0  0  0  0  0  0  0
  150.6322  140.8961  159.2764 H   0  0  0  0  0  0  0  0  0  0  0  0
  1  2  1  0  0  0  0
  1 22  1  0  0  0  0
  1 23  1  0  0  0  0
  1 24  1  0  0  0  0
  2  3  1  0  0  0  0
  3  8  1  0  0  0  0
  3  4  2  0  0  0  0
  4  5  1  0  0  0  0
  5  6  2  0  0  0  0
  5 25  1  0  0  0  0
  6  7  1  0  0  0  0
  6 26  1  0  0  0  0
  7  8  2  0  0  0  0
  7 27  1  0  0  0  0
  8  9  1  0  0  0  0
  9 10  1  0  0  0  0
  9 28  1  0  0  0  0
 10 11  2  0  0  0  0
 10 12  1  0  0  0  0
 12 13  1  0  0  0  0
 12 29  1  0  0  0  0
 13 14  1  0  0  0  0
 13 30  1  0  0  0  0
 13 31  1  0  0  0  0
 14 15  1  0  0  0  0
 14 32  1  0  0  0  0
 14 33  1  0  0  0  0
 15 21  1  0  0  0  0
 15 16  1  0  0  0  0
 15 46  1  0  0  0  0
 16 17  1  0  0  0  0
 16 34  1  0  0  0  0
 16 35  1  0  0  0  0
 17 18  1  0  0  0  0
 17 36  1  0  0  0  0
 17 37  1  0  0  0  0
 18 19  1  0  0  0  0
 18 20  1  0  0  0  0
 18 38  1  0  0  0  0
 19 39  1  0  0  0  0
 19 40  1  0  0  0  0
 19 41  1  0  0  0  0
 20 21  1  0  0  0  0
 20 42  1  0  0  0  0
 20 43  1  0  0  0  0
 21 44  1  0  0  0  0
 21 45  1  0  0  0  0
M  CHG  1  15   1
M  END
> <s_m_source_file>
AV-unprocessed.smi

> <i_m_source_file_index>
1951

> <i_lp_mmshare_version>
43012

> <i_f3d_flags>
0

> <s_epik_input>
W0NIM11PYzFuW2NIXVtjSF1bY0hdYzFbTkhdQyg9TylbTkhdW0NIMl1bQ0gyXU4yW0NIMl1bQ0gyXVtDSF0oW0NIM10pW0NIMl1bQ0gyXTI=

> <s_epik_cmdline>
J2VwaWtfcHl0aG9uJywgJy1waCcsICc3LjAnLCAnLXRuJywgJzgnLCAnLW1hJywgJzIwMCcsICctbWV0YWxfYmluZGluZycsICctaW1hZScsICc8aW5maWxlLm1hZT4nLCAnLW9tYWUnLCAnPG91dGZpbGUubWFlPic=

> <r_lp_tautomer_probability>
1

> <r_epik_Ionization_Penalty>
0.00147101

> <r_epik_Ionization_Penalty_Charging>
0.00139388

> <r_epik_Ionization_Penalty_Neutral>
7.71355e-05

> <r_epik_State_Penalty>
0.000929204

> <r_epik_Charging_Adjusted_Penalty>
0.00232308

> <i_epik_Tot_Q>
1

> <i_epik_Tot_abs_Q>
1

> <r_epik_Metal_State_Penalty>
-0

> <b_epik_Metal_Only>
0

> <s_lp_Force_Field>
OPLS_2005

> <r_lp_Energy>
18.8997

> <b_lp_Chiralities_Consistent>
1

> <s_lp_Variant>
AV-unprocessed.smi:1951-1

> <Gold.Version>
5.8.1

> <Gold.Id.Protein>
6NUR|6NUR_protein|mol2

> <Gold.PLP.Fitness>
47.8881

> <Gold.PLP.PLP>
-43.0431

> <Gold.PLP.part.hbond>
-3.0000

> <Gold.PLP.part.metal>
0.0000

> <Gold.PLP.part.buried>
-5.8234

> <Gold.PLP.part.nonpolar>
-34.0635

> <Gold.PLP.part.repulsive>
0.5455

> <Gold.PLP.ligand.clash>
0.0000

> <Gold.PLP.ligand.torsion>
1.0084

> <Gold.PLP.Chemscore.Hbond>
2.2689

> <Gold.PLP.Chemscore.CHOScore>
0.0000

> <Gold.PLP.Chemscore.Metal>
0.0000

> <Gold.Chemscore.Hbonds>
donor molecule, donor type, donor heavy atom, donor atom, acceptor molecule, acceptor atom, score
      P1  H  6896  6909       L1    11  0.88
      P1  H  6931  6943       L1     2  0.64

> <Gold.PLP.Chemscore.Internal.Correction>
0.0549

> <Gold.Rescore>
     Score         DG    S(hbond)    S(metal)    S(lipo)     H(rot)  DE(clash)    DE(int)     intcor
     16.91     -18.60       1.63        0.00     102.88       1.71       0.04       1.65       ----

> <Gold.Chemscore.Fitness>
16.9097

> <Gold.Chemscore.DG>
-18.5962

> <Gold.Chemscore.ZeroCoef>
-5.4800

> <Gold.Chemscore.Hbond>
1.6344

> <Gold.Chemscore.Metal>
0.0000

> <Gold.Chemscore.Lipo>
102.8776

> <Gold.Chemscore.Internal_Hbond>
0.0000

> <Gold.Chemscore.DEClash>
0.0391

> <Gold.Chemscore.DEInternal>
1.6474

> <Gold.Chemscore.Rot>
1.7107

> <Gold.Chemscore.Internal.Correction>
   9.000000E+99

> <Gold.Chemscore.Hbonds>
donor molecule, donor type, donor heavy atom, donor atom, acceptor molecule, acceptor atom, score
      P1  H  6896  6909       L1    11  0.85
      P1  H  6931  6943       L1     2  0.46
      P1  H  6934  6947       L1     2  0.02

> <Gold.Chemscore.Hbond.Weighted>
-5.4589

> <Gold.Chemscore.Metal.Weighted>
-0.0000

> <Gold.Chemscore.Lipo.Weighted>
-12.0367

> <Gold.Chemscore.Internal_Hbond.Weighted>
0.0000

> <Gold.Chemscore.DEClash.Weighted>
0.0391

> <Gold.Chemscore.DEInternal.Weighted>
1.6474

> <Gold.Chemscore.Rot.Weighted>
4.3794

> <Gold.Chemscore.Internal.Correction.Weighted>
   9.000000E+99

> <Gold.Protein.RotatedTorsions>
[ 6907 6896 6895 6894 ] final   69.19 input  -60.11 | X-H torsion
[ 7974 7965 7964 7962 ] final  141.89 input  175.53 | X-H torsion
[ 8008 7997 7996 7995 ] final   98.16 input   59.86 | X-H torsion
[ 10167 10162 10161 10158 ] final  -71.71 input  -65.29 | X-H torsion
[ 10718 10713 10712 10709 ] final   86.89 input   66.30 | X-H torsion
[ 10763 10752 10751 10750 ] final  -88.79 input  -60.55 | X-H torsion
[ 11005 11000 10999 10996 ] final  -53.47 input  -57.11 | X-H torsion

> <Gold.Protein.ActiveResidues>
 VAL166  LYS551  ARG553  GLY616  TRP617  ASP618  TYR619  PRO620  LYS621  CYS622 
 ASP623  PHE694  ASN695  SER759  ASP760  ASP761  ALA762  ILE779  LEU786  VAL792 
 PHE793  MET794  SER795  GLU796  ALA797  LYS798  CYS799  TRP800  GLU811  SER814 

> <Gold.Protein.RotatedAtoms>
  152.4670  134.5052  159.9736 H   0  0  0  0  0  0  0  0  0  0  0  0  # atno 6907 bound_to 6896
  151.5088  133.3483  159.2889 H   0  0  0  0  0  0  0  0  0  0  0  0  # atno 6908 bound_to 6896
  150.8659  134.8051  159.7180 H   0  0  0  0  0  0  0  0  0  0  0  0  # atno 6909 bound_to 6896
  144.9056  139.5363  143.5733 H   0  0  0  0  0  0  0  0  0  0  0  0  # atno 7974 bound_to 7965
  156.0976  140.3248  155.7898 H   0  0  0  0  0  0  0  0  0  0  0  0  # atno 8008 bound_to 7997
  155.4892  140.0560  157.2973 H   0  0  0  0  0  0  0  0  0  0  0  0  # atno 8009 bound_to 7997
  154.4676  140.1996  156.0093 H   0  0  0  0  0  0  0  0  0  0  0  0  # atno 8010 bound_to 7997
  140.5251  143.2327  151.7362 H   0  0  0  0  0  0  0  0  0  0  0  0  # atno 10167 bound_to 10162
  157.6934  131.0233  150.3040 H   0  0  0  0  0  0  0  0  0  0  0  0  # atno 10718 bound_to 10713
  154.6484  135.5364  153.7872 H   0  0  0  0  0  0  0  0  0  0  0  0  # atno 10763 bound_to 10752
  153.0372  135.6476  154.1055 H   0  0  0  0  0  0  0  0  0  0  0  0  # atno 10764 bound_to 10752
  154.0974  135.2935  155.3239 H   0  0  0  0  0  0  0  0  0  0  0  0  # atno 10765 bound_to 10752
  141.0977  133.6622  156.4176 H   0  0  0  0  0  0  0  0  0  0  0  0  # atno 11005 bound_to 11000
  146.3131  139.7821  142.9004 LP  0  0  0  0  0  0  0  0  0  0  0  0  # atno 17320 bound_to 7965
  145.3542  141.0313  143.3321 LP  0  0  0  0  0  0  0  0  0  0  0  0  # atno 17321 bound_to 7965
  139.4935  144.4198  151.9990 LP  0  0  0  0  0  0  0  0  0  0  0  0  # atno 17342 bound_to 10162
  140.3296  144.3331  150.5990 LP  0  0  0  0  0  0  0  0  0  0  0  0  # atno 17343 bound_to 10162
  156.3552  130.3837  149.7296 LP  0  0  0  0  0  0  0  0  0  0  0  0  # atno 17370 bound_to 10713
  156.4761  130.8019  151.3035 LP  0  0  0  0  0  0  0  0  0  0  0  0  # atno 17371 bound_to 10713
  140.5099  134.6405  157.5280 LP  0  0  0  0  0  0  0  0  0  0  0  0  # atno 17394 bound_to 11000
  139.9819  134.7124  155.9844 LP  0  0  0  0  0  0  0  0  0  0  0  0  # atno 17395 bound_to 11000

$$$$
