AV-unprocessed.smi:1213|AV-procd|sdf|5084|dock3
  -GOLD-   22720 4133D 1   1.00000     0.00000
 Structure written by MMmdl.
 36 37  0  0  0  0  0  0  0  0  1 V2000
  144.5581  138.0101  152.7548 N   0  0  0  0  0  0  0  0  0  0  0  0
  145.8473  137.7232  152.5588 C   0  0  0  0  0  0  0  0  0  0  0  0
  146.3516  136.6698  152.9423 O   0  0  0  0  0  0  0  0  0  0  0  0
  146.6929  138.7665  151.8186 C   0  0  0  0  0  0  0  0  0  0  0  0
  147.3579  139.7528  152.7000 N   0  0  0  0  0  0  0  0  0  0  0  0
  148.1923  139.0429  153.6751 C   0  0  0  0  0  0  0  0  0  0  0  0
  149.0012  140.0382  154.5247 C   0  0  0  0  0  0  0  0  0  0  0  0
  148.0741  141.0196  155.2596 C   0  0  0  0  0  0  0  0  0  0  0  0
  148.8467  142.0408  155.9604 N   0  0  0  0  0  0  0  0  0  0  0  0
  149.7459  141.8024  156.9261 C   0  0  0  0  0  0  0  0  0  0  0  0
  150.0182  140.6739  157.3376 O   0  0  0  0  0  0  0  0  0  0  0  0
  150.2977  142.9460  157.3683 N   0  0  0  0  0  0  0  0  0  0  0  0
  151.2827  143.1136  158.3766 C   0  0  0  0  0  0  0  0  0  0  0  0
  151.5899  142.1888  159.2939 N   0  0  0  0  0  0  0  0  0  0  0  0
  152.5951  142.6241  160.1611 C   0  0  0  0  0  0  0  0  0  0  0  0
  153.0450  143.8917  159.8878 C   0  0  0  0  0  0  0  0  0  0  0  0
  152.2201  144.5932  158.5215 S   0  0  0  0  0  0  0  0  0  0  0  0
  147.1403  141.6804  154.2358 C   0  0  0  0  0  0  0  0  0  0  0  0
  146.3997  140.6273  153.3923 C   0  0  0  0  0  0  0  0  0  0  0  0
  143.9663  137.3480  153.2356 H   0  0  0  0  0  0  0  0  0  0  0  0
  144.1786  138.8838  152.4204 H   0  0  0  0  0  0  0  0  0  0  0  0
  147.4390  138.2657  151.1983 H   0  0  0  0  0  0  0  0  0  0  0  0
  146.0228  139.2879  151.1336 H   0  0  0  0  0  0  0  0  0  0  0  0
  147.5745  138.4129  154.3177 H   0  0  0  0  0  0  0  0  0  0  0  0
  148.8865  138.3807  153.1558 H   0  0  0  0  0  0  0  0  0  0  0  0
  149.6160  139.4920  155.2410 H   0  0  0  0  0  0  0  0  0  0  0  0
  149.6908  140.5872  153.8815 H   0  0  0  0  0  0  0  0  0  0  0  0
  147.4642  140.4695  155.9791 H   0  0  0  0  0  0  0  0  0  0  0  0
  148.6886  142.9986  155.6833 H   0  0  0  0  0  0  0  0  0  0  0  0
  149.9748  143.7972  156.9331 H   0  0  0  0  0  0  0  0  0  0  0  0
  152.9310  141.9655  160.9485 H   0  0  0  0  0  0  0  0  0  0  0  0
  153.8085  144.4529  160.4057 H   0  0  0  0  0  0  0  0  0  0  0  0
  146.4172  142.3171  154.7467 H   0  0  0  0  0  0  0  0  0  0  0  0
  147.7128  142.3329  153.5746 H   0  0  0  0  0  0  0  0  0  0  0  0
  145.7661  141.1537  152.6788 H   0  0  0  0  0  0  0  0  0  0  0  0
  145.7371  140.0333  154.0243 H   0  0  0  0  0  0  0  0  0  0  0  0
  1  2  1  0  0  0  0
  1 20  1  0  0  0  0
  1 21  1  0  0  0  0
  2  3  2  0  0  0  0
  2  4  1  0  0  0  0
  4  5  1  0  0  0  0
  4 22  1  0  0  0  0
  4 23  1  0  0  0  0
  5 19  1  0  0  0  0
  5  6  1  0  0  0  0
  6  7  1  0  0  0  0
  6 24  1  0  0  0  0
  6 25  1  0  0  0  0
  7  8  1  0  0  0  0
  7 26  1  0  0  0  0
  7 27  1  0  0  0  0
  8  9  1  0  0  0  0
  8 18  1  0  0  0  0
  8 28  1  0  0  0  0
  9 10  1  0  0  0  0
  9 29  1  0  0  0  0
 10 11  2  0  0  0  0
 10 12  1  0  0  0  0
 12 13  1  0  0  0  0
 12 30  1  0  0  0  0
 13 17  1  0  0  0  0
 13 14  2  0  0  0  0
 14 15  1  0  0  0  0
 15 16  2  0  0  0  0
 15 31  1  0  0  0  0
 16 17  1  0  0  0  0
 16 32  1  0  0  0  0
 18 19  1  0  0  0  0
 18 33  1  0  0  0  0
 18 34  1  0  0  0  0
 19 35  1  0  0  0  0
 19 36  1  0  0  0  0
M  END
> <s_m_source_file>
AV-unprocessed.smi

> <i_m_source_file_index>
1213

> <i_lp_mmshare_version>
43012

> <i_f3d_flags>
0

> <s_epik_input>
W05IMl1DKD1PKVtDSDJdTjFbQ0gyXVtDSDJdW0NIXShbQ0gyXVtDSDJdMSlbTkhdQyg9TylbTkhdYzJuW2NIXVtjSF1zMg==

> <s_epik_cmdline>
J2VwaWtfcHl0aG9uJywgJy1waCcsICc3LjAnLCAnLXRuJywgJzgnLCAnLW1hJywgJzIwMCcsICctbWV0YWxfYmluZGluZycsICctaW1hZScsICc8aW5maWxlLm1hZT4nLCAnLW9tYWUnLCAnPG91dGZpbGUubWFlPic=

> <r_lp_tautomer_probability>
0.999

> <r_epik_Ionization_Penalty>
0.157547

> <r_epik_Ionization_Penalty_Charging>
0

> <r_epik_Ionization_Penalty_Neutral>
0.157547

> <r_epik_State_Penalty>
0.146692

> <r_epik_Charging_Adjusted_Penalty>
0.146692

> <i_epik_Tot_Q>
0

> <i_epik_Tot_abs_Q>
0

> <r_epik_Metal_State_Penalty>
0.196238

> <b_epik_Metal_Only>
0

> <s_lp_Force_Field>
OPLS_2005

> <r_lp_Energy>
10.5747

> <b_lp_Chiralities_Consistent>
1

> <s_lp_Variant>
AV-unprocessed.smi:1213-1

> <Gold.Version>
5.8.1

> <Gold.Id.Protein>
6NUR|6NUR_protein|mol2

> <Gold.PLP.Fitness>
40.5231

> <Gold.PLP.PLP>
-32.5953

> <Gold.PLP.part.hbond>
-4.2646

> <Gold.PLP.part.metal>
0.0000

> <Gold.PLP.part.buried>
-2.3493

> <Gold.PLP.part.nonpolar>
-29.4924

> <Gold.PLP.part.repulsive>
4.2587

> <Gold.PLP.ligand.clash>
0.0000

> <Gold.PLP.ligand.torsion>
0.4568

> <Gold.PLP.Chemscore.Hbond>
2.9440

> <Gold.PLP.Chemscore.CHOScore>
0.0000

> <Gold.PLP.Chemscore.Metal>
0.0000

> <Gold.Chemscore.Hbonds>
donor molecule, donor type, donor heavy atom, donor atom, acceptor molecule, acceptor atom, score
      L1  H     1    21       P1 10175  1.00
      L1  H     9    29       P1  8028  1.00
      L1  H    12    30       P1  8028  1.00

> <Gold.PLP.Chemscore.Internal.Correction>
0.0094

> <Gold.Rescore>
     Score         DG    S(hbond)    S(metal)    S(lipo)     H(rot)  DE(clash)    DE(int)     intcor
     14.69     -19.21       2.96        0.00      77.36       2.04       1.65       2.87       ----

> <Gold.Chemscore.Fitness>
14.6921

> <Gold.Chemscore.DG>
-19.2095

> <Gold.Chemscore.ZeroCoef>
-5.4800

> <Gold.Chemscore.Hbond>
2.9625

> <Gold.Chemscore.Metal>
0.0000

> <Gold.Chemscore.Lipo>
77.3613

> <Gold.Chemscore.Internal_Hbond>
0.0000

> <Gold.Chemscore.DEClash>
1.6453

> <Gold.Chemscore.DEInternal>
2.8721

> <Gold.Chemscore.Rot>
2.0377

> <Gold.Chemscore.Internal.Correction>
   9.000000E+99

> <Gold.Chemscore.Hbonds>
donor molecule, donor type, donor heavy atom, donor atom, acceptor molecule, acceptor atom, score
      L1  H     1    21       P1 10175  0.99
      L1  H     9    29       P1  8028  0.99
      L1  H    12    30       P1  8028  0.95

> <Gold.Chemscore.Hbond.Weighted>
-9.8946

> <Gold.Chemscore.Metal.Weighted>
-0.0000

> <Gold.Chemscore.Lipo.Weighted>
-9.0513

> <Gold.Chemscore.Internal_Hbond.Weighted>
0.0000

> <Gold.Chemscore.DEClash.Weighted>
1.6453

> <Gold.Chemscore.DEInternal.Weighted>
2.8721

> <Gold.Chemscore.Rot.Weighted>
5.2164

> <Gold.Chemscore.Internal.Correction.Weighted>
   9.000000E+99

> <Gold.Protein.RotatedTorsions>
[ 6907 6896 6895 6894 ] final -175.99 input  -60.11 | X-H torsion
[ 7974 7965 7964 7962 ] final  -21.26 input  175.53 | X-H torsion
[ 8008 7997 7996 7995 ] final  103.82 input   59.86 | X-H torsion
[ 10167 10162 10161 10158 ] final   44.59 input  -65.29 | X-H torsion
[ 10718 10713 10712 10709 ] final  -46.97 input   66.30 | X-H torsion
[ 10763 10752 10751 10750 ] final  162.10 input  -60.55 | X-H torsion
[ 11005 11000 10999 10996 ] final  147.42 input  -57.11 | X-H torsion

> <Gold.Protein.ActiveResidues>
 VAL166  LYS551  ARG553  GLY616  TRP617  ASP618  TYR619  PRO620  LYS621  CYS622 
 ASP623  PHE694  ASN695  SER759  ASP760  ASP761  ALA762  ILE779  LEU786  VAL792 
 PHE793  MET794  SER795  GLU796  ALA797  LYS798  CYS799  TRP800  GLU811  SER814 

> <Gold.Protein.RotatedAtoms>
  151.5976  133.3360  159.3040 H   0  0  0  0  0  0  0  0  0  0  0  0  # atno 6907 bound_to 6896
  150.8225  134.7444  159.6796 H   0  0  0  0  0  0  0  0  0  0  0  0  # atno 6908 bound_to 6896
  152.4318  134.5769  159.9988 H   0  0  0  0  0  0  0  0  0  0  0  0  # atno 6909 bound_to 6896
  146.1743  140.4316  142.8520 H   0  0  0  0  0  0  0  0  0  0  0  0  # atno 7974 bound_to 7965
  156.1518  140.3158  155.8661 H   0  0  0  0  0  0  0  0  0  0  0  0  # atno 8008 bound_to 7997
  155.3956  140.0496  157.3056 H   0  0  0  0  0  0  0  0  0  0  0  0  # atno 8009 bound_to 7997
  154.5065  140.2149  155.9252 H   0  0  0  0  0  0  0  0  0  0  0  0  # atno 8010 bound_to 7997
  140.3328  144.2567  150.6166 H   0  0  0  0  0  0  0  0  0  0  0  0  # atno 10167 bound_to 10162
  156.2131  130.4162  149.9089 H   0  0  0  0  0  0  0  0  0  0  0  0  # atno 10718 bound_to 10713
  154.2732  135.2765  155.2729 H   0  0  0  0  0  0  0  0  0  0  0  0  # atno 10763 bound_to 10752
  154.5283  135.5737  153.6741 H   0  0  0  0  0  0  0  0  0  0  0  0  # atno 10764 bound_to 10752
  152.9941  135.6221  154.2888 H   0  0  0  0  0  0  0  0  0  0  0  0  # atno 10765 bound_to 10752
  140.0874  134.9061  157.1598 H   0  0  0  0  0  0  0  0  0  0  0  0  # atno 11005 bound_to 11000
  144.8211  140.6552  143.6352 LP  0  0  0  0  0  0  0  0  0  0  0  0  # atno 17320 bound_to 7965
  145.4255  139.1557  143.4051 LP  0  0  0  0  0  0  0  0  0  0  0  0  # atno 17321 bound_to 7965
  140.5381  143.2229  151.8129 LP  0  0  0  0  0  0  0  0  0  0  0  0  # atno 17342 bound_to 10162
  139.4853  144.4635  151.9512 LP  0  0  0  0  0  0  0  0  0  0  0  0  # atno 17343 bound_to 10162
  156.6761  130.8839  151.3569 LP  0  0  0  0  0  0  0  0  0  0  0  0  # atno 17370 bound_to 10713
  157.7049  130.9373  150.0899 LP  0  0  0  0  0  0  0  0  0  0  0  0  # atno 17371 bound_to 10713
  140.3400  134.2714  155.7213 LP  0  0  0  0  0  0  0  0  0  0  0  0  # atno 17394 bound_to 11000
  141.2067  133.7826  157.0162 LP  0  0  0  0  0  0  0  0  0  0  0  0  # atno 17395 bound_to 11000

$$$$
