AV-unprocessed.smi:877|AV-procd|sdf|4030|dock1
  -GOLD-   22720 1523D 1   1.00000     0.00000
 Structure written by MMmdl.
 44 46  0  0  0  0  0  0  0  0  2 V2000
  143.3834  143.8320  156.3654 C   0  0  0  0  0  0  0  0  0  0  0  0
  144.0940  143.7085  155.1419 O   0  0  0  0  0  0  0  0  0  0  0  0
  145.3113  143.0623  155.1614 C   0  0  0  0  0  0  0  0  0  0  0  0
  145.8928  142.4916  156.3216 C   0  0  0  0  0  0  0  0  0  0  0  0
  147.1438  141.8484  156.2506 C   0  0  0  0  0  0  0  0  0  0  0  0
  147.8327  141.7647  155.0238 C   0  0  0  0  0  0  0  0  0  0  0  0
  149.1795  141.0681  154.9457 C   0  0  0  0  0  0  0  0  0  0  0  0
  150.1097  141.4990  156.0357 C   0  0  0  0  0  0  0  0  0  0  0  0
  150.2510  142.7734  156.4984 N   0  3  0  0  0  0  0  0  0  0  0  0
  151.1910  142.8030  157.5278 C   0  0  0  0  0  0  0  0  0  0  0  0
  151.6577  143.8612  158.3012 C   0  0  0  0  0  0  0  0  0  0  0  0
  152.6215  143.5510  159.2824 C   0  0  0  0  0  0  0  0  0  0  0  0
  153.0835  142.2317  159.4649 C   0  0  0  0  0  0  0  0  0  0  0  0
  152.6036  141.1674  158.6733 C   0  0  0  0  0  0  0  0  0  0  0  0
  151.6518  141.4817  157.7021 C   0  0  0  0  0  0  0  0  0  0  0  0
  150.9608  140.7113  156.7563 N   0  0  0  0  0  0  0  0  0  0  0  0
  151.2204  139.2643  156.6632 C   0  0  0  0  0  0  0  0  0  0  0  0
  151.6839  138.8131  155.2625 C   0  0  1  0  0  0  0  0  0  0  0  0
  153.0907  138.9322  155.2308 O   0  0  0  0  0  0  0  0  0  0  0  0
  151.3034  137.3635  154.9042 C   0  0  0  0  0  0  0  0  0  0  0  0
  151.9740  136.9632  153.7277 O   0  0  0  0  0  0  0  0  0  0  0  0
  147.2586  142.3307  153.8672 C   0  0  0  0  0  0  0  0  0  0  0  0
  146.0081  142.9728  153.9392 C   0  0  0  0  0  0  0  0  0  0  0  0
  142.4505  144.3664  156.1867 H   0  0  0  0  0  0  0  0  0  0  0  0
  143.9531  144.4006  157.1019 H   0  0  0  0  0  0  0  0  0  0  0  0
  143.1294  142.8552  156.7796 H   0  0  0  0  0  0  0  0  0  0  0  0
  145.3985  142.5340  157.2801 H   0  0  0  0  0  0  0  0  0  0  0  0
  147.5710  141.4194  157.1453 H   0  0  0  0  0  0  0  0  0  0  0  0
  149.0195  139.9912  154.9918 H   0  0  0  0  0  0  0  0  0  0  0  0
  149.6518  141.2690  153.9836 H   0  0  0  0  0  0  0  0  0  0  0  0
  151.3029  144.8722  158.1645 H   0  0  0  0  0  0  0  0  0  0  0  0
  153.0129  144.3399  159.9083 H   0  0  0  0  0  0  0  0  0  0  0  0
  153.8208  142.0310  160.2287 H   0  0  0  0  0  0  0  0  0  0  0  0
  152.9651  140.1623  158.8305 H   0  0  0  0  0  0  0  0  0  0  0  0
  151.9855  139.0257  157.4030 H   0  0  0  0  0  0  0  0  0  0  0  0
  150.3316  138.7159  156.9734 H   0  0  0  0  0  0  0  0  0  0  0  0
  151.2690  139.4926  154.5181 H   0  0  0  0  0  0  0  0  0  0  0  0
  153.3810  138.7803  154.3438 H   0  0  0  0  0  0  0  0  0  0  0  0
  151.5342  136.6783  155.7207 H   0  0  0  0  0  0  0  0  0  0  0  0
  150.2359  137.2776  154.7032 H   0  0  0  0  0  0  0  0  0  0  0  0
  151.3297  136.7046  153.0862 H   0  0  0  0  0  0  0  0  0  0  0  0
  147.7722  142.2723  152.9193 H   0  0  0  0  0  0  0  0  0  0  0  0
  145.5790  143.4017  153.0456 H   0  0  0  0  0  0  0  0  0  0  0  0
  149.7323  143.5639  156.1375 H   0  0  0  0  0  0  0  0  0  0  0  0
  1  2  1  0  0  0  0
  1 24  1  0  0  0  0
  1 25  1  0  0  0  0
  1 26  1  0  0  0  0
  2  3  1  0  0  0  0
  3 23  1  0  0  0  0
  3  4  2  0  0  0  0
  4  5  1  0  0  0  0
  4 27  1  0  0  0  0
  5  6  2  0  0  0  0
  5 28  1  0  0  0  0
  6  7  1  0  0  0  0
  6 22  1  0  0  0  0
  7  8  1  0  0  0  0
  7 29  1  0  0  0  0
  7 30  1  0  0  0  0
  8 16  1  0  0  0  0
  8  9  2  0  0  0  0
  9 10  1  0  0  0  0
  9 44  1  0  0  0  0
 10 15  2  0  0  0  0
 10 11  1  0  0  0  0
 11 12  2  0  0  0  0
 11 31  1  0  0  0  0
 12 13  1  0  0  0  0
 12 32  1  0  0  0  0
 13 14  2  0  0  0  0
 13 33  1  0  0  0  0
 14 15  1  0  0  0  0
 14 34  1  0  0  0  0
 15 16  1  0  0  0  0
 16 17  1  0  0  0  0
 17 18  1  0  0  0  0
 17 35  1  0  0  0  0
 17 36  1  0  0  0  0
 18 19  1  0  0  0  0
 18 20  1  0  0  0  0
 18 37  1  0  0  0  0
 19 38  1  0  0  0  0
 20 21  1  0  0  0  0
 20 39  1  0  0  0  0
 20 40  1  0  0  0  0
 21 41  1  0  0  0  0
 22 23  2  0  0  0  0
 22 42  1  0  0  0  0
 23 43  1  0  0  0  0
M  CHG  1   9   1
M  END
> <s_m_source_file>
AV-unprocessed.smi

> <i_m_source_file_index>
877

> <i_lp_mmshare_version>
43012

> <i_f3d_flags>
0

> <s_epik_input>
W0NIM11PYzFbY0hdW2NIXWMoW2NIXVtjSF0xKVtDSDJdYyhuMiluKFtDSDJdW0NASF0oW09IXSlbQ0gyXVtPSF0pYyhjMjMpW2NIXVtjSF1bY0hdW2NIXTM=

> <s_epik_cmdline>
J2VwaWtfcHl0aG9uJywgJy1waCcsICc3LjAnLCAnLXRuJywgJzgnLCAnLW1hJywgJzIwMCcsICctbWV0YWxfYmluZGluZycsICctaW1hZScsICc8aW5maWxlLm1hZT4nLCAnLW9tYWUnLCAnPG91dGZpbGUubWFlPic=

> <r_lp_tautomer_probability>
1

> <r_epik_Ionization_Penalty>
1.37112

> <r_epik_Ionization_Penalty_Charging>
1.37111

> <r_epik_Ionization_Penalty_Neutral>
4.48252e-07

> <r_epik_State_Penalty>
1.45083

> <r_epik_Charging_Adjusted_Penalty>
2.82194

> <i_epik_Tot_Q>
1

> <i_epik_Tot_abs_Q>
1

> <r_epik_Metal_State_Penalty>
5.49009

> <b_epik_Metal_Only>
0

> <s_lp_Force_Field>
OPLS_2005

> <r_lp_Energy>
24.4283

> <b_lp_Chiralities_Consistent>
1

> <s_lp_Variant>
AV-unprocessed.smi:877-4

> <Gold.Version>
5.8.1

> <Gold.Id.Protein>
6NUR|6NUR_protein|mol2

> <Gold.PLP.Fitness>
63.8576

> <Gold.PLP.PLP>
-50.3955

> <Gold.PLP.part.hbond>
-4.0000

> <Gold.PLP.part.metal>
0.0000

> <Gold.PLP.part.buried>
-7.3751

> <Gold.PLP.part.nonpolar>
-40.1532

> <Gold.PLP.part.repulsive>
0.2231

> <Gold.PLP.ligand.clash>
0.0000

> <Gold.PLP.ligand.torsion>
0.8352

> <Gold.PLP.Chemscore.Hbond>
5.0000

> <Gold.PLP.Chemscore.CHOScore>
0.0000

> <Gold.PLP.Chemscore.Metal>
0.0000

> <Gold.Chemscore.Hbonds>
donor molecule, donor type, donor heavy atom, donor atom, acceptor molecule, acceptor atom, score
      L1  H     9    44       P1  8028  1.89
      L1  H    21    41       P1  7949  0.85
      P1  H  7997  8008       L1    19  1.00
      P1  H 10752 10763       L1    21  0.98

> <Gold.PLP.Chemscore.Internal.Correction>
0.1325

> <Gold.Rescore>
     Score         DG    S(hbond)    S(metal)    S(lipo)     H(rot)  DE(clash)    DE(int)     intcor
     21.67     -22.49       3.43        0.00     118.07       3.23       0.07       0.75       ----

> <Gold.Chemscore.Fitness>
21.6675

> <Gold.Chemscore.DG>
-22.4884

> <Gold.Chemscore.ZeroCoef>
-5.4800

> <Gold.Chemscore.Hbond>
3.4333

> <Gold.Chemscore.Metal>
0.0000

> <Gold.Chemscore.Lipo>
118.0688

> <Gold.Chemscore.Internal_Hbond>
0.0000

> <Gold.Chemscore.DEClash>
0.0699

> <Gold.Chemscore.DEInternal>
0.7510

> <Gold.Chemscore.Rot>
3.2315

> <Gold.Chemscore.Internal.Correction>
   9.000000E+99

> <Gold.Chemscore.Hbonds>
donor molecule, donor type, donor heavy atom, donor atom, acceptor molecule, acceptor atom, score
      L1  H     9    44       P1  8028  0.90
      L1  H    21    41       P1  7949  0.62
      P1  H  7997  8008       L1    19  0.67
      P1  H 10752 10763       L1    21  0.60

> <Gold.Chemscore.Hbond.Weighted>
-11.4671

> <Gold.Chemscore.Metal.Weighted>
-0.0000

> <Gold.Chemscore.Lipo.Weighted>
-13.8141

> <Gold.Chemscore.Internal_Hbond.Weighted>
0.0000

> <Gold.Chemscore.DEClash.Weighted>
0.0699

> <Gold.Chemscore.DEInternal.Weighted>
0.7510

> <Gold.Chemscore.Rot.Weighted>
8.2727

> <Gold.Chemscore.Internal.Correction.Weighted>
   9.000000E+99

> <Gold.Protein.RotatedTorsions>
[ 6907 6896 6895 6894 ] final  -13.32 input  -60.11 | X-H torsion
[ 7974 7965 7964 7962 ] final  -55.28 input  175.53 | X-H torsion
[ 8008 7997 7996 7995 ] final  -32.56 input   59.86 | X-H torsion
[ 10167 10162 10161 10158 ] final  120.69 input  -65.29 | X-H torsion
[ 10718 10713 10712 10709 ] final  143.79 input   66.30 | X-H torsion
[ 10763 10752 10751 10750 ] final    8.61 input  -60.55 | X-H torsion
[ 11005 11000 10999 10996 ] final   -0.60 input  -57.11 | X-H torsion

> <Gold.Protein.ActiveResidues>
 VAL166  LYS551  ARG553  GLY616  TRP617  ASP618  TYR619  PRO620  LYS621  CYS622 
 ASP623  PHE694  ASN695  SER759  ASP760  ASP761  ALA762  ILE779  LEU786  VAL792 
 PHE793  MET794  SER795  GLU796  ALA797  LYS798  CYS799  TRP800  GLU811  SER814 

> <Gold.Protein.RotatedAtoms>
  151.3568  135.0896  159.9420 H   0  0  0  0  0  0  0  0  0  0  0  0  # atno 6907 bound_to 6896
  152.5172  133.9298  159.7585 H   0  0  0  0  0  0  0  0  0  0  0  0  # atno 6908 bound_to 6896
  150.9684  133.6316  159.2771 H   0  0  0  0  0  0  0  0  0  0  0  0  # atno 6909 bound_to 6896
  145.8760  140.8181  142.9864 H   0  0  0  0  0  0  0  0  0  0  0  0  # atno 7974 bound_to 7965
  154.4176  140.1734  156.1746 H   0  0  0  0  0  0  0  0  0  0  0  0  # atno 8008 bound_to 7997
  155.9732  140.3384  155.6571 H   0  0  0  0  0  0  0  0  0  0  0  0  # atno 8009 bound_to 7997
  155.6598  140.0699  157.2549 H   0  0  0  0  0  0  0  0  0  0  0  0  # atno 8010 bound_to 7997
  139.5966  144.7044  151.3161 H   0  0  0  0  0  0  0  0  0  0  0  0  # atno 10167 bound_to 10162
  157.3648  131.0970  151.0883 H   0  0  0  0  0  0  0  0  0  0  0  0  # atno 10718 bound_to 10713
  153.2231  135.6883  153.7977 H   0  0  0  0  0  0  0  0  0  0  0  0  # atno 10763 bound_to 10752
  153.7168  135.3273  155.3259 H   0  0  0  0  0  0  0  0  0  0  0  0  # atno 10764 bound_to 10752
  154.8279  135.4603  154.1086 H   0  0  0  0  0  0  0  0  0  0  0  0  # atno 10765 bound_to 10752
  140.6380  133.9515  155.8310 H   0  0  0  0  0  0  0  0  0  0  0  0  # atno 11005 bound_to 11000
  144.6726  140.1311  143.7443 LP  0  0  0  0  0  0  0  0  0  0  0  0  # atno 17320 bound_to 7965
  145.9081  139.2470  143.1454 LP  0  0  0  0  0  0  0  0  0  0  0  0  # atno 17321 bound_to 7965
  140.7217  143.7117  150.7764 LP  0  0  0  0  0  0  0  0  0  0  0  0  # atno 17342 bound_to 10162
  140.0685  143.5084  152.2592 LP  0  0  0  0  0  0  0  0  0  0  0  0  # atno 17343 bound_to 10162
  157.2009  130.6394  149.5738 LP  0  0  0  0  0  0  0  0  0  0  0  0  # atno 17370 bound_to 10713
  155.9744  130.4691  150.6384 LP  0  0  0  0  0  0  0  0  0  0  0  0  # atno 17371 bound_to 10713
  141.0627  134.0322  157.3636 LP  0  0  0  0  0  0  0  0  0  0  0  0  # atno 17394 bound_to 11000
  139.9091  135.0186  156.7613 LP  0  0  0  0  0  0  0  0  0  0  0  0  # atno 17395 bound_to 11000

$$$$
