AV-unprocessed.smi:226|AV-procd|sdf|1726|dock3
  -GOLD-   2262020213D 1   1.00000     0.00000
 Structure written by MMmdl.
 54 58  0  0  0  0  0  0  0  0  1 V2000
  148.0582  138.9160  157.2158 O   0  0  0  0  0  0  0  0  0  0  0  0
  147.9993  140.0950  156.8672 C   0  0  0  0  0  0  0  0  0  0  0  0
  148.9631  140.9867  157.1508 N   0  0  0  0  0  0  0  0  0  0  0  0
  150.1645  140.7191  157.8704 C   0  0  0  0  0  0  0  0  0  0  0  0
  151.1207  141.8713  158.0890 C   0  0  0  0  0  0  0  0  0  0  0  0
  151.4673  140.7891  157.1039 C   0  0  0  0  0  0  0  0  0  0  0  0
  146.7786  140.5793  156.0543 C   0  0  1  0  0  0  0  0  0  0  0  0
  146.9114  142.0566  155.6455 C   0  0  0  0  0  0  0  0  0  0  0  0
  147.5738  142.0064  154.2697 C   0  0  0  0  0  0  0  0  0  0  0  0
  146.9829  140.7428  153.6433 C   0  0  0  0  0  0  0  0  0  0  0  0
  146.6064  139.8956  154.7669 N   0  0  0  0  0  0  0  0  0  0  0  0
  146.0304  138.6696  154.6278 C   0  0  0  0  0  0  0  0  0  0  0  0
  145.6364  138.0129  155.7510 N   0  0  0  0  0  0  0  0  0  0  0  0
  145.0753  136.8041  155.6751 C   0  0  0  0  0  0  0  0  0  0  0  0
  144.8212  136.0715  154.5913 N   0  0  0  0  0  0  0  0  0  0  0  0
  145.2145  136.7157  153.4560 C   0  0  0  0  0  0  0  0  0  0  0  0
  145.8143  138.0072  153.3813 C   0  0  0  0  0  0  0  0  0  0  0  0
  146.0550  138.3263  152.0487 N   0  0  0  0  0  0  0  0  0  0  0  0
  145.6209  137.2935  151.3808 C   0  0  0  0  0  0  0  0  0  0  0  0
  145.1304  136.2644  152.1500 N   0  0  0  0  0  0  0  0  0  0  0  0
  144.5612  135.0361  151.6764 C   0  0  0  0  0  0  0  0  0  0  0  0
  145.2810  133.7001  151.8824 C   0  0  0  0  0  0  0  0  0  0  0  0
  144.7970  133.2093  150.5003 C   0  0  0  0  0  0  0  0  0  0  0  0
  145.8766  132.5517  149.6272 C   0  0  0  0  0  0  0  0  0  0  0  0
  146.3930  131.3857  150.2363 O   0  0  0  0  0  0  0  0  0  0  0  0
  143.5639  132.2788  150.4745 C   0  0  0  0  0  0  0  0  0  0  0  0
  142.9408  132.2102  149.2082 O   0  0  0  0  0  0  0  0  0  0  0  0
  144.5375  134.6991  150.1818 C   0  0  0  0  0  0  0  0  0  0  0  0
  148.8337  141.9322  156.8213 H   0  0  0  0  0  0  0  0  0  0  0  0
  150.1166  139.9809  158.6697 H   0  0  0  0  0  0  0  0  0  0  0  0
  150.8437  142.8454  157.6898 H   0  0  0  0  0  0  0  0  0  0  0  0
  151.6736  141.8930  159.0261 H   0  0  0  0  0  0  0  0  0  0  0  0
  152.2507  140.0873  157.3827 H   0  0  0  0  0  0  0  0  0  0  0  0
  151.4206  141.0373  156.0450 H   0  0  0  0  0  0  0  0  0  0  0  0
  145.8898  140.4644  156.6766 H   0  0  0  0  0  0  0  0  0  0  0  0
  145.9190  142.5007  155.5560 H   0  0  0  0  0  0  0  0  0  0  0  0
  147.4736  142.6630  156.3570 H   0  0  0  0  0  0  0  0  0  0  0  0
  147.3912  142.9011  153.6739 H   0  0  0  0  0  0  0  0  0  0  0  0
  148.6525  141.8937  154.3862 H   0  0  0  0  0  0  0  0  0  0  0  0
  146.0942  140.9844  153.0586 H   0  0  0  0  0  0  0  0  0  0  0  0
  147.7094  140.2561  152.9921 H   0  0  0  0  0  0  0  0  0  0  0  0
  144.7926  136.3598  156.6181 H   0  0  0  0  0  0  0  0  0  0  0  0
  145.6556  137.2521  150.3017 H   0  0  0  0  0  0  0  0  0  0  0  0
  143.5552  134.9972  152.0958 H   0  0  0  0  0  0  0  0  0  0  0  0
  146.3648  133.8190  151.9338 H   0  0  0  0  0  0  0  0  0  0  0  0
  144.9135  133.1193  152.7291 H   0  0  0  0  0  0  0  0  0  0  0  0
  145.4851  132.2928  148.6428 H   0  0  0  0  0  0  0  0  0  0  0  0
  146.7105  133.2337  149.4575 H   0  0  0  0  0  0  0  0  0  0  0  0
  147.3370  131.4340  150.2240 H   0  0  0  0  0  0  0  0  0  0  0  0
  143.8403  131.2637  150.7613 H   0  0  0  0  0  0  0  0  0  0  0  0
  142.8099  132.6098  151.1892 H   0  0  0  0  0  0  0  0  0  0  0  0
  142.2806  132.8848  149.1618 H   0  0  0  0  0  0  0  0  0  0  0  0
  143.5859  134.9050  149.6908 H   0  0  0  0  0  0  0  0  0  0  0  0
  145.3615  135.1653  149.6389 H   0  0  0  0  0  0  0  0  0  0  0  0
  1  2  2  0  0  0  0
  2  3  1  0  0  0  0
  2  7  1  0  0  0  0
  3  4  1  0  0  0  0
  3 29  1  0  0  0  0
  4  6  1  0  0  0  0
  4  5  1  0  0  0  0
  4 30  1  0  0  0  0
  5  6  1  0  0  0  0
  5 31  1  0  0  0  0
  5 32  1  0  0  0  0
  6 33  1  0  0  0  0
  6 34  1  0  0  0  0
  7 11  1  0  0  0  0
  7  8  1  0  0  0  0
  7 35  1  0  0  0  0
  8  9  1  0  0  0  0
  8 36  1  0  0  0  0
  8 37  1  0  0  0  0
  9 10  1  0  0  0  0
  9 38  1  0  0  0  0
  9 39  1  0  0  0  0
 10 11  1  0  0  0  0
 10 40  1  0  0  0  0
 10 41  1  0  0  0  0
 11 12  1  0  0  0  0
 12 17  1  0  0  0  0
 12 13  2  0  0  0  0
 13 14  1  0  0  0  0
 14 15  2  0  0  0  0
 14 42  1  0  0  0  0
 15 16  1  0  0  0  0
 16 20  1  0  0  0  0
 16 17  2  0  0  0  0
 17 18  1  0  0  0  0
 18 19  2  0  0  0  0
 19 20  1  0  0  0  0
 19 43  1  0  0  0  0
 20 21  1  0  0  0  0
 21 28  1  0  0  0  0
 21 22  1  0  0  0  0
 21 44  1  0  0  0  0
 22 23  1  0  0  0  0
 22 45  1  0  0  0  0
 22 46  1  0  0  0  0
 23 24  1  0  0  0  0
 23 26  1  0  0  0  0
 23 28  1  0  0  0  0
 24 25  1  0  0  0  0
 24 47  1  0  0  0  0
 24 48  1  0  0  0  0
 25 49  1  0  0  0  0
 26 27  1  0  0  0  0
 26 50  1  0  0  0  0
 26 51  1  0  0  0  0
 27 52  1  0  0  0  0
 28 53  1  0  0  0  0
 28 54  1  0  0  0  0
M  END
> <s_m_source_file>
AV-unprocessed.smi

> <i_m_source_file_index>
226

> <i_lp_mmshare_version>
43012

> <i_f3d_flags>
0

> <s_epik_input>
W0NIMl0xW0NIMl1bQ0hdMVtOSF1DKD1PKVtDQEBIXTJbQ0gyXVtDSDJdW0NIMl1OMmMobltjSF1uMyljKGMzNCluW2NIXW40W0NIXShbQ0gyXTUpW0NIMl1DNShbQ0gyXVtPSF0pW0NIMl1bT0hd

> <s_epik_cmdline>
J2VwaWtfcHl0aG9uJywgJy1waCcsICc3LjAnLCAnLXRuJywgJzgnLCAnLW1hJywgJzIwMCcsICctbWV0YWxfYmluZGluZycsICctaW1hZScsICc8aW5maWxlLm1hZT4nLCAnLW9tYWUnLCAnPG91dGZpbGUubWFlPic=

> <r_lp_tautomer_probability>
1

> <r_epik_Ionization_Penalty>
0.000818715

> <r_epik_Ionization_Penalty_Charging>
0

> <r_epik_Ionization_Penalty_Neutral>
0.000818715

> <r_epik_State_Penalty>
0.000426447

> <r_epik_Charging_Adjusted_Penalty>
0.000426447

> <i_epik_Tot_Q>
0

> <i_epik_Tot_abs_Q>
0

> <r_epik_Metal_State_Penalty>
-0

> <b_epik_Metal_Only>
0

> <s_lp_Force_Field>
OPLS_2005

> <r_lp_Energy>
62.928

> <b_lp_Chiralities_Consistent>
1

> <s_lp_Variant>
AV-unprocessed.smi:226-2

> <Gold.Version>
5.8.1

> <Gold.Id.Protein>
6NUR|6NUR_protein|mol2

> <Gold.PLP.Fitness>
48.2194

> <Gold.PLP.PLP>
-39.0681

> <Gold.PLP.part.hbond>
-3.9252

> <Gold.PLP.part.metal>
0.0000

> <Gold.PLP.part.buried>
-3.9266

> <Gold.PLP.part.nonpolar>
-32.1423

> <Gold.PLP.part.repulsive>
0.3948

> <Gold.PLP.ligand.clash>
0.0000

> <Gold.PLP.ligand.torsion>
0.3940

> <Gold.PLP.Chemscore.Hbond>
2.8200

> <Gold.PLP.Chemscore.CHOScore>
0.3033

> <Gold.PLP.Chemscore.Metal>
0.0000

> <Gold.Chemscore.Hbonds>
donor molecule, donor type, donor heavy atom, donor atom, acceptor molecule, acceptor atom, score
      L1  H    25    49       P1 10747  1.00
      L1  H    27    52       P1 10186  1.00
      P1  H 10785 10796       L1    27  0.75
      L1  C    19    43       P1 10171  0.41

> <Gold.PLP.Chemscore.Internal.Correction>
0.5695

> <Gold.Rescore>
     Score         DG    S(hbond)    S(metal)    S(lipo)     H(rot)  DE(clash)    DE(int)     intcor
     11.32     -15.12       2.52        0.00      87.50       3.52       2.01       1.79       ----

> <Gold.Chemscore.Fitness>
11.3154

> <Gold.Chemscore.DG>
-15.1165

> <Gold.Chemscore.ZeroCoef>
-5.4800

> <Gold.Chemscore.Hbond>
2.5214

> <Gold.Chemscore.Metal>
0.0000

> <Gold.Chemscore.Lipo>
87.5007

> <Gold.Chemscore.Internal_Hbond>
0.0000

> <Gold.Chemscore.DEClash>
2.0106

> <Gold.Chemscore.DEInternal>
1.7905

> <Gold.Chemscore.Rot>
3.5244

> <Gold.Chemscore.Internal.Correction>
   9.000000E+99

> <Gold.Chemscore.Hbonds>
donor molecule, donor type, donor heavy atom, donor atom, acceptor molecule, acceptor atom, score
      L1  H    25    49       P1 10747  0.99
      L1  H    27    52       P1 10186  0.94
      P1  H 10785 10796       L1    27  0.22

> <Gold.Chemscore.Hbond.Weighted>
-8.4214

> <Gold.Chemscore.Metal.Weighted>
-0.0000

> <Gold.Chemscore.Lipo.Weighted>
-10.2376

> <Gold.Chemscore.Internal_Hbond.Weighted>
0.0000

> <Gold.Chemscore.DEClash.Weighted>
2.0106

> <Gold.Chemscore.DEInternal.Weighted>
1.7905

> <Gold.Chemscore.Rot.Weighted>
9.0225

> <Gold.Chemscore.Internal.Correction.Weighted>
   9.000000E+99

> <Gold.Protein.RotatedTorsions>
[ 6907 6896 6895 6894 ] final  135.06 input  -60.11 | X-H torsion
[ 7974 7965 7964 7962 ] final  131.17 input  175.53 | X-H torsion
[ 8008 7997 7996 7995 ] final  124.68 input   59.86 | X-H torsion
[ 10167 10162 10161 10158 ] final   20.99 input  -65.29 | X-H torsion
[ 10718 10713 10712 10709 ] final  158.36 input   66.30 | X-H torsion
[ 10763 10752 10751 10750 ] final -109.14 input  -60.55 | X-H torsion
[ 11005 11000 10999 10996 ] final   14.78 input  -57.11 | X-H torsion

> <Gold.Protein.ActiveResidues>
 VAL166  LYS551  ARG553  GLY616  TRP617  ASP618  TYR619  PRO620  LYS621  CYS622 
 ASP623  PHE694  ASN695  SER759  ASP760  ASP761  ALA762  ILE779  LEU786  VAL792 
 PHE793  MET794  SER795  GLU796  ALA797  LYS798  CYS799  TRP800  GLU811  SER814 

> <Gold.Protein.RotatedAtoms>
  152.3046  133.5690  159.5640 H   0  0  0  0  0  0  0  0  0  0  0  0  # atno 6907 bound_to 6896
  150.7293  134.0241  159.3720 H   0  0  0  0  0  0  0  0  0  0  0  0  # atno 6908 bound_to 6896
  151.8139  135.0673  160.0467 H   0  0  0  0  0  0  0  0  0  0  0  0  # atno 6909 bound_to 6896
  145.0101  139.4228  143.5249 H   0  0  0  0  0  0  0  0  0  0  0  0  # atno 7974 bound_to 7965
  156.2809  140.2734  156.1827 H   0  0  0  0  0  0  0  0  0  0  0  0  # atno 8008 bound_to 7997
  155.0539  140.0386  157.2571 H   0  0  0  0  0  0  0  0  0  0  0  0  # atno 8009 bound_to 7997
  154.7172  140.2680  155.6580 H   0  0  0  0  0  0  0  0  0  0  0  0  # atno 8010 bound_to 7997
  140.5461  143.9591  150.6549 H   0  0  0  0  0  0  0  0  0  0  0  0  # atno 10167 bound_to 10162
  157.1789  131.0628  151.2142 H   0  0  0  0  0  0  0  0  0  0  0  0  # atno 10718 bound_to 10713
  154.8176  135.4612  154.0687 H   0  0  0  0  0  0  0  0  0  0  0  0  # atno 10763 bound_to 10752
  153.2067  135.6876  153.8171 H   0  0  0  0  0  0  0  0  0  0  0  0  # atno 10764 bound_to 10752
  153.7636  135.3280  155.3318 H   0  0  0  0  0  0  0  0  0  0  0  0  # atno 10765 bound_to 10752
  140.4656  134.1083  155.7724 H   0  0  0  0  0  0  0  0  0  0  0  0  # atno 11005 bound_to 11000
  146.3468  139.9540  142.8725 LP  0  0  0  0  0  0  0  0  0  0  0  0  # atno 17320 bound_to 7965
  145.2034  140.9864  143.4142 LP  0  0  0  0  0  0  0  0  0  0  0  0  # atno 17321 bound_to 7965
  140.3005  143.3264  152.0976 LP  0  0  0  0  0  0  0  0  0  0  0  0  # atno 17342 bound_to 10162
  139.5008  144.6700  151.6266 LP  0  0  0  0  0  0  0  0  0  0  0  0  # atno 17343 bound_to 10162
  157.3971  130.7313  149.6740 LP  0  0  0  0  0  0  0  0  0  0  0  0  # atno 17370 bound_to 10713
  155.9727  130.4130  150.4063 LP  0  0  0  0  0  0  0  0  0  0  0  0  # atno 17371 bound_to 10713
  141.1601  133.8809  157.1872 LP  0  0  0  0  0  0  0  0  0  0  0  0  # atno 17394 bound_to 11000
  139.9917  135.0062  156.9990 LP  0  0  0  0  0  0  0  0  0  0  0  0  # atno 17395 bound_to 11000

$$$$
