AV-unprocessed.smi:2913|AV-procd|sdf|11185|dock1
  -GOLD-   2272016 73D 1   1.00000     0.00000
 Structure written by MMmdl.
 41 42  0  0  0  0  0  0  0  0  1 V2000
  145.5540  135.9165  151.2996 C   0  0  0  0  0  0  0  0  0  0  0  0
  145.5418  134.3990  151.3835 C   0  0  0  0  0  0  0  0  0  0  0  0
  144.6167  133.6962  150.6927 C   0  0  0  0  0  0  0  0  0  0  0  0
  144.5474  132.2343  150.7222 C   0  0  0  0  0  0  0  0  0  0  0  0
  143.6977  131.6035  150.0925 O   0  0  0  0  0  0  0  0  0  0  0  0
  145.4871  131.6181  151.4903 N   0  0  0  0  0  0  0  0  0  0  0  0
  145.5120  130.1553  151.5750 C   0  0  0  0  0  0  0  0  0  0  0  0
  146.4536  132.3364  152.2146 C   0  0  0  0  0  0  0  0  0  0  0  0
  146.5164  133.6866  152.2004 C   0  0  0  0  0  0  0  0  0  0  0  0
  147.4703  134.4453  152.9001 N   0  0  0  0  0  0  0  0  0  0  0  0
  147.6482  134.5923  154.2264 C   0  0  0  0  0  0  0  0  0  0  0  0
  146.9509  134.0926  155.1086 O   0  0  0  0  0  0  0  0  0  0  0  0
  148.6965  135.3903  154.4755 N   0  0  0  0  0  0  0  0  0  0  0  0
  149.1669  135.8069  155.7953 C   0  0  1  0  0  0  0  0  0  0  0  0
  149.9675  134.6592  156.4275 C   0  0  0  0  0  0  0  0  0  0  0  0
  150.0038  137.0947  155.6698 C   0  0  1  0  0  0  0  0  0  0  0  0
  151.3669  136.9123  154.9958 C   0  0  0  0  0  0  0  0  0  0  0  0
  151.6523  138.2704  154.3710 C   0  0  0  0  0  0  0  0  0  0  0  0
  150.3277  139.0267  154.4958 C   0  0  0  0  0  0  0  0  0  0  0  0
  149.3682  138.0295  154.8121 O   0  0  0  0  0  0  0  0  0  0  0  0
  144.7562  136.2926  150.6581 H   0  0  0  0  0  0  0  0  0  0  0  0
  146.5034  136.2654  150.8929 H   0  0  0  0  0  0  0  0  0  0  0  0
  145.4211  136.3526  152.2900 H   0  0  0  0  0  0  0  0  0  0  0  0
  143.8940  134.2244  150.0877 H   0  0  0  0  0  0  0  0  0  0  0  0
  146.2992  129.7814  152.2301 H   0  0  0  0  0  0  0  0  0  0  0  0
  145.6761  129.7189  150.5888 H   0  0  0  0  0  0  0  0  0  0  0  0
  144.5640  129.7774  151.9604 H   0  0  0  0  0  0  0  0  0  0  0  0
  147.1324  131.7036  152.7629 H   0  0  0  0  0  0  0  0  0  0  0  0
  148.1039  134.9642  152.3102 H   0  0  0  0  0  0  0  0  0  0  0  0
  149.2069  135.7545  153.6845 H   0  0  0  0  0  0  0  0  0  0  0  0
  148.3189  136.0186  156.4490 H   0  0  0  0  0  0  0  0  0  0  0  0
  150.3154  134.9260  157.4259 H   0  0  0  0  0  0  0  0  0  0  0  0
  150.8418  134.4055  155.8271 H   0  0  0  0  0  0  0  0  0  0  0  0
  149.3560  133.7613  156.5231 H   0  0  0  0  0  0  0  0  0  0  0  0
  150.1389  137.5555  156.6506 H   0  0  0  0  0  0  0  0  0  0  0  0
  152.1407  136.5995  155.6975 H   0  0  0  0  0  0  0  0  0  0  0  0
  151.3036  136.1575  154.2109 H   0  0  0  0  0  0  0  0  0  0  0  0
  152.4527  138.7977  154.8907 H   0  0  0  0  0  0  0  0  0  0  0  0
  151.9472  138.1561  153.3274 H   0  0  0  0  0  0  0  0  0  0  0  0
  150.3746  139.7501  155.3112 H   0  0  0  0  0  0  0  0  0  0  0  0
  150.0597  139.5594  153.5832 H   0  0  0  0  0  0  0  0  0  0  0  0
  1  2  1  0  0  0  0
  1 21  1  0  0  0  0
  1 22  1  0  0  0  0
  1 23  1  0  0  0  0
  2  9  1  0  0  0  0
  2  3  2  0  0  0  0
  3  4  1  0  0  0  0
  3 24  1  0  0  0  0
  4  5  2  0  0  0  0
  4  6  1  0  0  0  0
  6  7  1  0  0  0  0
  6  8  1  0  0  0  0
  7 25  1  0  0  0  0
  7 26  1  0  0  0  0
  7 27  1  0  0  0  0
  8  9  2  0  0  0  0
  8 28  1  0  0  0  0
  9 10  1  0  0  0  0
 10 11  1  0  0  0  0
 10 29  1  0  0  0  0
 11 12  2  0  0  0  0
 11 13  1  0  0  0  0
 13 14  1  0  0  0  0
 13 30  1  0  0  0  0
 14 15  1  0  0  0  0
 14 16  1  0  0  0  0
 14 31  1  0  0  0  0
 15 32  1  0  0  0  0
 15 33  1  0  0  0  0
 15 34  1  0  0  0  0
 16 20  1  0  0  0  0
 16 17  1  0  0  0  0
 16 35  1  0  0  0  0
 17 18  1  0  0  0  0
 17 36  1  0  0  0  0
 17 37  1  0  0  0  0
 18 19  1  0  0  0  0
 18 38  1  0  0  0  0
 18 39  1  0  0  0  0
 19 20  1  0  0  0  0
 19 40  1  0  0  0  0
 19 41  1  0  0  0  0
M  END
> <s_m_source_file>
AV-unprocessed.smi

> <i_m_source_file_index>
2913

> <i_lp_mmshare_version>
43012

> <i_f3d_flags>
0

> <s_epik_input>
W0NIM11jMVtjSF1jKD1PKW4oW0NIM10pW2NIXWMxW05IXUMoPU8pW05IXVtDQEhdKFtDSDNdKVtDQEBIXTJbQ0gyXVtDSDJdW0NIMl1PMg==

> <s_epik_cmdline>
J2VwaWtfcHl0aG9uJywgJy1waCcsICc3LjAnLCAnLXRuJywgJzgnLCAnLW1hJywgJzIwMCcsICctbWV0YWxfYmluZGluZycsICctaW1hZScsICc8aW5maWxlLm1hZT4nLCAnLW9tYWUnLCAnPG91dGZpbGUubWFlPic=

> <r_lp_tautomer_probability>
1

> <r_epik_Ionization_Penalty>
2.72039e-05

> <r_epik_Ionization_Penalty_Charging>
8.03976e-06

> <r_epik_Ionization_Penalty_Neutral>
1.91642e-05

> <r_epik_State_Penalty>
-0

> <r_epik_Charging_Adjusted_Penalty>
8.03976e-06

> <i_epik_Tot_Q>
0

> <i_epik_Tot_abs_Q>
0

> <r_epik_Metal_State_Penalty>
-0

> <b_epik_Metal_Only>
0

> <s_lp_Force_Field>
OPLS_2005

> <r_lp_Energy>
32.2594

> <b_lp_Chiralities_Consistent>
1

> <s_lp_Variant>
AV-unprocessed.smi:2913-4

> <Gold.Version>
5.8.1

> <Gold.Id.Protein>
6NUR|6NUR_protein|mol2

> <Gold.PLP.Fitness>
39.0392

> <Gold.PLP.PLP>
-33.1687

> <Gold.PLP.part.hbond>
-2.8859

> <Gold.PLP.part.metal>
0.0000

> <Gold.PLP.part.buried>
-5.5766

> <Gold.PLP.part.nonpolar>
-24.9821

> <Gold.PLP.part.repulsive>
0.3680

> <Gold.PLP.ligand.clash>
0.0000

> <Gold.PLP.ligand.torsion>
1.0498

> <Gold.PLP.Chemscore.Hbond>
2.6480

> <Gold.PLP.Chemscore.CHOScore>
0.0000

> <Gold.PLP.Chemscore.Metal>
0.0000

> <Gold.Chemscore.Hbonds>
donor molecule, donor type, donor heavy atom, donor atom, acceptor molecule, acceptor atom, score
      L1  H    10    29       P1  7948  1.00
      L1  H    13    30       P1  7948  0.83
      P1  H 10785 10796       L1     5  0.83

> <Gold.PLP.Chemscore.Internal.Correction>
0.0262

> <Gold.Rescore>
     Score         DG    S(hbond)    S(metal)    S(lipo)     H(rot)  DE(clash)    DE(int)     intcor
     18.49     -19.52       2.73        0.00      68.40       1.21       0.13       0.90       ----

> <Gold.Chemscore.Fitness>
18.4865

> <Gold.Chemscore.DG>
-19.5160

> <Gold.Chemscore.ZeroCoef>
-5.4800

> <Gold.Chemscore.Hbond>
2.7338

> <Gold.Chemscore.Metal>
0.0000

> <Gold.Chemscore.Lipo>
68.4017

> <Gold.Chemscore.Internal_Hbond>
0.0000

> <Gold.Chemscore.DEClash>
0.1320

> <Gold.Chemscore.DEInternal>
0.8976

> <Gold.Chemscore.Rot>
1.2101

> <Gold.Chemscore.Internal.Correction>
   9.000000E+99

> <Gold.Chemscore.Hbonds>
donor molecule, donor type, donor heavy atom, donor atom, acceptor molecule, acceptor atom, score
      L1  H    10    29       P1  7948  0.62
      L1  H    13    30       P1  7948  0.58
      P1  H 10785 10796       L1     5  0.77

> <Gold.Chemscore.Hbond.Weighted>
-9.1310

> <Gold.Chemscore.Metal.Weighted>
-0.0000

> <Gold.Chemscore.Lipo.Weighted>
-8.0030

> <Gold.Chemscore.Internal_Hbond.Weighted>
0.0000

> <Gold.Chemscore.DEClash.Weighted>
0.1320

> <Gold.Chemscore.DEInternal.Weighted>
0.8976

> <Gold.Chemscore.Rot.Weighted>
3.0979

> <Gold.Chemscore.Internal.Correction.Weighted>
   9.000000E+99

> <Gold.Protein.RotatedTorsions>
[ 6907 6896 6895 6894 ] final -140.52 input  -60.11 | X-H torsion
[ 7974 7965 7964 7962 ] final  -81.84 input  175.53 | X-H torsion
[ 8008 7997 7996 7995 ] final -130.15 input   59.86 | X-H torsion
[ 10167 10162 10161 10158 ] final -115.25 input  -65.29 | X-H torsion
[ 10718 10713 10712 10709 ] final  104.82 input   66.30 | X-H torsion
[ 10763 10752 10751 10750 ] final -126.68 input  -60.55 | X-H torsion
[ 11005 11000 10999 10996 ] final -111.34 input  -57.11 | X-H torsion

> <Gold.Protein.ActiveResidues>
 VAL166  LYS551  ARG553  GLY616  TRP617  ASP618  TYR619  PRO620  LYS621  CYS622 
 ASP623  PHE694  ASN695  SER759  ASP760  ASP761  ALA762  ILE779  LEU786  VAL792 
 PHE793  MET794  SER795  GLU796  ALA797  LYS798  CYS799  TRP800  GLU811  SER814 

> <Gold.Protein.RotatedAtoms>
  151.0617  133.5538  159.2633 H   0  0  0  0  0  0  0  0  0  0  0  0  # atno 6907 bound_to 6896
  151.2511  135.0621  159.9072 H   0  0  0  0  0  0  0  0  0  0  0  0  # atno 6908 bound_to 6896
  152.5398  134.0378  159.8107 H   0  0  0  0  0  0  0  0  0  0  0  0  # atno 6909 bound_to 6896
  145.5413  140.9509  143.1549 H   0  0  0  0  0  0  0  0  0  0  0  0  # atno 7974 bound_to 7965
  155.2909  140.0448  157.3023 H   0  0  0  0  0  0  0  0  0  0  0  0  # atno 8008 bound_to 7997
  154.5542  140.2326  155.8405 H   0  0  0  0  0  0  0  0  0  0  0  0  # atno 8009 bound_to 7997
  156.1993  140.3030  155.9499 H   0  0  0  0  0  0  0  0  0  0  0  0  # atno 8010 bound_to 7997
  140.0921  143.4690  152.1863 H   0  0  0  0  0  0  0  0  0  0  0  0  # atno 10167 bound_to 10162
  157.6727  131.0813  150.5764 H   0  0  0  0  0  0  0  0  0  0  0  0  # atno 10718 bound_to 10713
  154.8747  135.3987  154.3470 H   0  0  0  0  0  0  0  0  0  0  0  0  # atno 10763 bound_to 10752
  153.4261  135.7024  153.6267 H   0  0  0  0  0  0  0  0  0  0  0  0  # atno 10764 bound_to 10752
  153.4909  135.3748  155.2461 H   0  0  0  0  0  0  0  0  0  0  0  0  # atno 10765 bound_to 10752
  141.0740  133.9333  157.2428 H   0  0  0  0  0  0  0  0  0  0  0  0  # atno 11005 bound_to 11000
  144.7575  139.7037  143.7248 LP  0  0  0  0  0  0  0  0  0  0  0  0  # atno 17320 bound_to 7965
  146.1979  139.5256  142.9762 LP  0  0  0  0  0  0  0  0  0  0  0  0  # atno 17321 bound_to 7965
  139.5718  144.7467  151.3869 LP  0  0  0  0  0  0  0  0  0  0  0  0  # atno 17342 bound_to 10162
  140.7023  143.7602  150.7423 LP  0  0  0  0  0  0  0  0  0  0  0  0  # atno 17343 bound_to 10162
  156.6065  130.4368  149.5876 LP  0  0  0  0  0  0  0  0  0  0  0  0  # atno 17370 bound_to 10713
  156.2465  130.6882  151.1604 LP  0  0  0  0  0  0  0  0  0  0  0  0  # atno 17371 bound_to 10713
  139.9552  135.0167  156.9108 LP  0  0  0  0  0  0  0  0  0  0  0  0  # atno 17394 bound_to 11000
  140.5614  134.0531  155.7400 LP  0  0  0  0  0  0  0  0  0  0  0  0  # atno 17395 bound_to 11000

$$$$
