AV-unprocessed.smi:1617|AV-procd|sdf|6485|dock4
  -GOLD-   22720 7143D 1   1.00000     0.00000
 Structure written by MMmdl.
 47 49  0  0  0  0  0  0  0  0  1 V2000
  146.4226  138.0264  155.0433 O   0  0  0  0  0  0  0  0  0  0  0  0
  147.1418  137.7768  154.0762 C   0  0  0  0  0  0  0  0  0  0  0  0
  148.3935  138.2325  153.8986 N   0  0  0  0  0  0  0  0  0  0  0  0
  149.1686  139.0498  154.7645 C   0  0  0  0  0  0  0  0  0  0  0  0
  148.7426  139.1904  156.0992 C   0  0  0  0  0  0  0  0  0  0  0  0
  149.4812  140.0067  156.9762 C   0  0  0  0  0  0  0  0  0  0  0  0
  150.6309  140.6746  156.4934 C   0  0  0  0  0  0  0  0  0  0  0  0
  151.3890  141.4968  157.3552 N   0  0  0  0  0  0  0  0  0  0  0  0
  150.8632  142.8425  157.5712 C   0  0  0  0  0  0  0  0  0  0  0  0
  151.9183  143.7254  158.2602 C   0  0  0  0  0  0  0  0  0  0  0  0
  152.3578  143.1035  159.4631 O   0  0  0  0  0  0  0  0  0  0  0  0
  152.9689  141.8421  159.2135 C   0  0  0  0  0  0  0  0  0  0  0  0
  151.9492  140.8924  158.5627 C   0  0  0  0  0  0  0  0  0  0  0  0
  151.0278  140.5566  155.2027 N   0  0  0  0  0  0  0  0  0  0  0  0
  150.3192  139.7699  154.3652 C   0  0  0  0  0  0  0  0  0  0  0  0
  146.7538  137.0146  153.0427 N   0  0  0  0  0  0  0  0  0  0  0  0
  145.4564  136.3454  152.9212 C   0  0  1  0  0  0  0  0  0  0  0  0
  145.4825  135.5076  151.6222 C   0  0  0  0  0  0  0  0  0  0  0  0
  144.0855  135.1859  151.0635 C   0  0  0  0  0  0  0  0  0  0  0  0
  143.2222  134.2815  151.9557 C   0  0  0  0  0  0  0  0  0  0  0  0
  142.8920  134.8975  153.3261 C   0  0  0  0  0  0  0  0  0  0  0  0
  144.0142  134.8115  154.2511 N   0  0  0  0  0  0  0  0  0  0  0  0
  145.2097  135.4075  154.1261 C   0  0  0  0  0  0  0  0  0  0  0  0
  146.0952  135.2039  154.9565 O   0  0  0  0  0  0  0  0  0  0  0  0
  148.8265  138.0066  153.0151 H   0  0  0  0  0  0  0  0  0  0  0  0
  147.8595  138.6780  156.4521 H   0  0  0  0  0  0  0  0  0  0  0  0
  149.1503  140.1220  157.9973 H   0  0  0  0  0  0  0  0  0  0  0  0
  150.5618  143.3143  156.6372 H   0  0  0  0  0  0  0  0  0  0  0  0
  149.9707  142.7743  158.1944 H   0  0  0  0  0  0  0  0  0  0  0  0
  152.7675  143.9034  157.5984 H   0  0  0  0  0  0  0  0  0  0  0  0
  151.4927  144.7000  158.4993 H   0  0  0  0  0  0  0  0  0  0  0  0
  153.8447  141.9697  158.5750 H   0  0  0  0  0  0  0  0  0  0  0  0
  153.3213  141.4245  160.1567 H   0  0  0  0  0  0  0  0  0  0  0  0
  151.1433  140.6723  159.2643 H   0  0  0  0  0  0  0  0  0  0  0  0
  152.4390  139.9485  158.3200 H   0  0  0  0  0  0  0  0  0  0  0  0
  150.6864  139.7473  153.3513 H   0  0  0  0  0  0  0  0  0  0  0  0
  147.4117  136.8629  152.2925 H   0  0  0  0  0  0  0  0  0  0  0  0
  144.6699  137.1004  152.8660 H   0  0  0  0  0  0  0  0  0  0  0  0
  146.0127  136.0667  150.8494 H   0  0  0  0  0  0  0  0  0  0  0  0
  146.0552  134.5886  151.7604 H   0  0  0  0  0  0  0  0  0  0  0  0
  143.5516  136.1164  150.8666 H   0  0  0  0  0  0  0  0  0  0  0  0
  144.2031  134.7023  150.0933 H   0  0  0  0  0  0  0  0  0  0  0  0
  142.2864  134.0845  151.4318 H   0  0  0  0  0  0  0  0  0  0  0  0
  143.7019  133.3100  152.0848 H   0  0  0  0  0  0  0  0  0  0  0  0
  142.5562  135.9306  153.2256 H   0  0  0  0  0  0  0  0  0  0  0  0
  142.0644  134.3484  153.7751 H   0  0  0  0  0  0  0  0  0  0  0  0
  143.8827  134.2155  155.0556 H   0  0  0  0  0  0  0  0  0  0  0  0
  1  2  2  0  0  0  0
  2  3  1  0  0  0  0
  2 16  1  0  0  0  0
  3  4  1  0  0  0  0
  3 25  1  0  0  0  0
  4 15  1  0  0  0  0
  4  5  2  0  0  0  0
  5  6  1  0  0  0  0
  5 26  1  0  0  0  0
  6  7  2  0  0  0  0
  6 27  1  0  0  0  0
  7  8  1  0  0  0  0
  7 14  1  0  0  0  0
  8 13  1  0  0  0  0
  8  9  1  0  0  0  0
  9 10  1  0  0  0  0
  9 28  1  0  0  0  0
  9 29  1  0  0  0  0
 10 11  1  0  0  0  0
 10 30  1  0  0  0  0
 10 31  1  0  0  0  0
 11 12  1  0  0  0  0
 12 13  1  0  0  0  0
 12 32  1  0  0  0  0
 12 33  1  0  0  0  0
 13 34  1  0  0  0  0
 13 35  1  0  0  0  0
 14 15  2  0  0  0  0
 15 36  1  0  0  0  0
 16 17  1  0  0  0  0
 16 37  1  0  0  0  0
 17 23  1  0  0  0  0
 17 18  1  0  0  0  0
 17 38  1  0  0  0  0
 18 19  1  0  0  0  0
 18 39  1  0  0  0  0
 18 40  1  0  0  0  0
 19 20  1  0  0  0  0
 19 41  1  0  0  0  0
 19 42  1  0  0  0  0
 20 21  1  0  0  0  0
 20 43  1  0  0  0  0
 20 44  1  0  0  0  0
 21 22  1  0  0  0  0
 21 45  1  0  0  0  0
 21 46  1  0  0  0  0
 22 23  1  0  0  0  0
 22 47  1  0  0  0  0
 23 24  2  0  0  0  0
M  END
> <s_m_source_file>
AV-unprocessed.smi

> <i_m_source_file_index>
1617

> <i_lp_mmshare_version>
43012

> <i_f3d_flags>
0

> <s_epik_input>
Tz1DMVtOSF1bQ0gyXVtDSDJdW0NIMl1bQ0gyXVtDQEhdMVtOSF1DKD1PKVtOSF1jMltjSF1bY0hdYyhuW2NIXTIpTjNbQ0gyXVtDSDJdT1tDSDJdW0NIMl0z

> <s_epik_cmdline>
J2VwaWtfcHl0aG9uJywgJy1waCcsICc3LjAnLCAnLXRuJywgJzgnLCAnLW1hJywgJzIwMCcsICctbWV0YWxfYmluZGluZycsICctaW1hZScsICc8aW5maWxlLm1hZT4nLCAnLW9tYWUnLCAnPG91dGZpbGUubWFlPic=

> <r_lp_tautomer_probability>
1

> <r_epik_Ionization_Penalty>
0.00171733

> <r_epik_Ionization_Penalty_Charging>
0

> <r_epik_Ionization_Penalty_Neutral>
0.00171733

> <r_epik_State_Penalty>
0.00113787

> <r_epik_Charging_Adjusted_Penalty>
0.00113787

> <i_epik_Tot_Q>
0

> <i_epik_Tot_abs_Q>
0

> <r_epik_Metal_State_Penalty>
-0

> <b_epik_Metal_Only>
0

> <s_lp_Force_Field>
OPLS_2005

> <r_lp_Energy>
26.8457

> <b_lp_Chiralities_Consistent>
1

> <s_lp_Variant>
AV-unprocessed.smi:1617-2

> <Gold.Version>
5.8.1

> <Gold.Id.Protein>
6NUR|6NUR_protein|mol2

> <Gold.PLP.Fitness>
40.3896

> <Gold.PLP.PLP>
-32.5188

> <Gold.PLP.part.hbond>
-3.0000

> <Gold.PLP.part.metal>
0.0000

> <Gold.PLP.part.buried>
-3.2727

> <Gold.PLP.part.nonpolar>
-26.2292

> <Gold.PLP.part.repulsive>
0.1861

> <Gold.PLP.ligand.clash>
0.0000

> <Gold.PLP.ligand.torsion>
0.3735

> <Gold.PLP.Chemscore.Hbond>
1.7840

> <Gold.PLP.Chemscore.CHOScore>
0.9747

> <Gold.PLP.Chemscore.Metal>
0.0000

> <Gold.Chemscore.Hbonds>
donor molecule, donor type, donor heavy atom, donor atom, acceptor molecule, acceptor atom, score
      L1  H     3    25       P1  7948  0.58
      L1  H    16    37       P1  7948  0.94
      L1  C    15    36       P1  7957  1.00

> <Gold.PLP.Chemscore.Internal.Correction>
0.3416

> <Gold.Rescore>
     Score         DG    S(hbond)    S(metal)    S(lipo)     H(rot)  DE(clash)    DE(int)     intcor
     16.33     -18.40       2.04        0.00      79.95       1.27       0.27       1.80       ----

> <Gold.Chemscore.Fitness>
16.3342

> <Gold.Chemscore.DG>
-18.3989

> <Gold.Chemscore.ZeroCoef>
-5.4800

> <Gold.Chemscore.Hbond>
2.0395

> <Gold.Chemscore.Metal>
0.0000

> <Gold.Chemscore.Lipo>
79.9475

> <Gold.Chemscore.Internal_Hbond>
0.0000

> <Gold.Chemscore.DEClash>
0.2667

> <Gold.Chemscore.DEInternal>
1.7980

> <Gold.Chemscore.Rot>
1.2684

> <Gold.Chemscore.Internal.Correction>
   9.000000E+99

> <Gold.Chemscore.Hbonds>
donor molecule, donor type, donor heavy atom, donor atom, acceptor molecule, acceptor atom, score
      L1  H     3    25       P1  7948  0.58
      L1  H    16    37       P1  7948  0.91

> <Gold.Chemscore.Hbond.Weighted>
-6.8121

> <Gold.Chemscore.Metal.Weighted>
-0.0000

> <Gold.Chemscore.Lipo.Weighted>
-9.3539

> <Gold.Chemscore.Internal_Hbond.Weighted>
0.0000

> <Gold.Chemscore.DEClash.Weighted>
0.2667

> <Gold.Chemscore.DEInternal.Weighted>
1.7980

> <Gold.Chemscore.Rot.Weighted>
3.2471

> <Gold.Chemscore.Internal.Correction.Weighted>
   9.000000E+99

> <Gold.Protein.RotatedTorsions>
[ 6907 6896 6895 6894 ] final  119.30 input  -60.11 | X-H torsion
[ 7974 7965 7964 7962 ] final  151.53 input  175.53 | X-H torsion
[ 8008 7997 7996 7995 ] final    5.67 input   59.86 | X-H torsion
[ 10167 10162 10161 10158 ] final  171.39 input  -65.29 | X-H torsion
[ 10718 10713 10712 10709 ] final  144.29 input   66.30 | X-H torsion
[ 10763 10752 10751 10750 ] final   55.49 input  -60.55 | X-H torsion
[ 11005 11000 10999 10996 ] final  176.06 input  -57.11 | X-H torsion

> <Gold.Protein.ActiveResidues>
 VAL166  LYS551  ARG553  GLY616  TRP617  ASP618  TYR619  PRO620  LYS621  CYS622 
 ASP623  PHE694  ASN695  SER759  ASP760  ASP761  ALA762  ILE779  LEU786  VAL792 
 PHE793  MET794  SER795  GLU796  ALA797  LYS798  CYS799  TRP800  GLU811  SER814 

> <Gold.Protein.RotatedAtoms>
  152.4481  133.7576  159.6728 H   0  0  0  0  0  0  0  0  0  0  0  0  # atno 6907 bound_to 6896
  150.8386  133.7962  159.3076 H   0  0  0  0  0  0  0  0  0  0  0  0  # atno 6908 bound_to 6896
  151.5594  135.1068  160.0021 H   0  0  0  0  0  0  0  0  0  0  0  0  # atno 6909 bound_to 6896
  144.8286  139.6550  143.6069 H   0  0  0  0  0  0  0  0  0  0  0  0  # atno 7974 bound_to 7965
  154.7313  140.2731  155.6454 H   0  0  0  0  0  0  0  0  0  0  0  0  # atno 8008 bound_to 7997
  156.2850  140.2715  156.1939 H   0  0  0  0  0  0  0  0  0  0  0  0  # atno 8009 bound_to 7997
  155.0378  140.0371  157.2488 H   0  0  0  0  0  0  0  0  0  0  0  0  # atno 8010 bound_to 7997
  139.5045  144.3491  151.9941 H   0  0  0  0  0  0  0  0  0  0  0  0  # atno 10167 bound_to 10162
  157.3589  131.0962  151.0933 H   0  0  0  0  0  0  0  0  0  0  0  0  # atno 10718 bound_to 10713
  152.9817  135.5709  154.5075 H   0  0  0  0  0  0  0  0  0  0  0  0  # atno 10763 bound_to 10752
  154.4584  135.2780  155.1732 H   0  0  0  0  0  0  0  0  0  0  0  0  # atno 10764 bound_to 10752
  154.3331  135.6245  153.5614 H   0  0  0  0  0  0  0  0  0  0  0  0  # atno 10765 bound_to 10752
  140.3690  134.7046  157.4380 H   0  0  0  0  0  0  0  0  0  0  0  0  # atno 11005 bound_to 11000
  146.2590  139.6367  142.9375 LP  0  0  0  0  0  0  0  0  0  0  0  0  # atno 17320 bound_to 7965
  145.4946  141.0438  143.2574 LP  0  0  0  0  0  0  0  0  0  0  0  0  # atno 17321 bound_to 7965
  140.2928  144.3735  150.6083 LP  0  0  0  0  0  0  0  0  0  0  0  0  # atno 17342 bound_to 10162
  140.5933  143.2167  151.7211 LP  0  0  0  0  0  0  0  0  0  0  0  0  # atno 17343 bound_to 10162
  157.2080  130.6425  149.5763 LP  0  0  0  0  0  0  0  0  0  0  0  0  # atno 17370 bound_to 10713
  155.9734  130.4669  150.6306 LP  0  0  0  0  0  0  0  0  0  0  0  0  # atno 17371 bound_to 10713
  140.0566  134.6054  155.8797 LP  0  0  0  0  0  0  0  0  0  0  0  0  # atno 17394 bound_to 11000
  141.1960  133.6590  156.5672 LP  0  0  0  0  0  0  0  0  0  0  0  0  # atno 17395 bound_to 11000

$$$$
