AV-unprocessed.smi:232|AV-procd|sdf|1778|dock1
  -GOLD-   2262020323D 1   1.00000     0.00000
 Structure written by MMmdl.
 52 55  0  0  0  0  0  0  0  0  1 V2000
  153.7086  141.7108  161.9162 C   0  0  0  0  0  0  0  0  0  0  0  0
  153.5341  141.3808  160.4282 C   0  0  0  0  0  0  0  0  0  0  0  0
  152.2762  142.0264  159.8069 C   0  0  1  0  0  0  0  0  0  0  0  0
  152.3614  143.5632  159.7188 C   0  0  0  0  0  0  0  0  0  0  0  0
  152.0100  143.9145  158.2690 C   0  0  0  0  0  0  0  0  0  0  0  0
  151.3555  142.6498  157.7124 C   0  0  2  0  0  0  0  0  0  0  0  0
  149.8278  142.6561  157.9271 C   0  0  0  0  0  0  0  0  0  0  0  0
  152.0303  141.5778  158.4358 N   0  0  0  0  0  0  0  0  0  0  0  0
  151.6363  140.3037  158.1686 C   0  0  0  0  0  0  0  0  0  0  0  0
  151.3171  139.4632  159.1891 N   0  0  0  0  0  0  0  0  0  0  0  0
  150.9109  138.2157  158.9375 C   0  0  0  0  0  0  0  0  0  0  0  0
  150.7528  137.6118  157.7589 N   0  0  0  0  0  0  0  0  0  0  0  0
  151.0743  138.4473  156.7305 C   0  0  0  0  0  0  0  0  0  0  0  0
  151.5205  139.7946  156.8440 C   0  0  0  0  0  0  0  0  0  0  0  0
  151.7612  140.3184  155.5789 N   0  0  0  0  0  0  0  0  0  0  0  0
  151.4772  139.3379  154.7659 C   0  0  0  0  0  0  0  0  0  0  0  0
  151.0610  138.1763  155.3737 N   0  0  0  0  0  0  0  0  0  0  0  0
  150.7014  136.9345  154.7142 C   0  0  0  0  0  0  0  0  0  0  0  0
  150.7079  135.7215  155.6683 C   0  0  2  0  0  0  0  0  0  0  0  0
  152.0026  135.6379  156.2292 O   0  0  0  0  0  0  0  0  0  0  0  0
  150.3608  134.3766  154.9915 C   0  0  1  0  0  0  0  0  0  0  0  0
  150.2396  133.1888  155.9488 C   0  0  0  0  0  0  0  0  0  0  0  0
  149.3452  132.2126  155.2002 C   0  0  0  0  0  0  0  0  0  0  0  0
  148.6997  133.0677  154.1071 C   0  0  0  0  0  0  0  0  0  0  0  0
  149.0556  134.4024  154.4330 O   0  0  0  0  0  0  0  0  0  0  0  0
  154.5900  141.2137  162.3216 H   0  0  0  0  0  0  0  0  0  0  0  0
  152.8453  141.3796  162.4942 H   0  0  0  0  0  0  0  0  0  0  0  0
  153.8305  142.7817  162.0791 H   0  0  0  0  0  0  0  0  0  0  0  0
  154.4206  141.6957  159.8763 H   0  0  0  0  0  0  0  0  0  0  0  0
  153.4902  140.2966  160.3277 H   0  0  0  0  0  0  0  0  0  0  0  0
  151.4068  141.7671  160.4133 H   0  0  0  0  0  0  0  0  0  0  0  0
  151.6489  144.0146  160.4102 H   0  0  0  0  0  0  0  0  0  0  0  0
  153.3499  143.9474  159.9727 H   0  0  0  0  0  0  0  0  0  0  0  0
  151.3800  144.8007  158.1858 H   0  0  0  0  0  0  0  0  0  0  0  0
  152.9296  144.1146  157.7173 H   0  0  0  0  0  0  0  0  0  0  0  0
  151.5662  142.5849  156.6453 H   0  0  0  0  0  0  0  0  0  0  0  0
  149.3694  143.5059  157.4210 H   0  0  0  0  0  0  0  0  0  0  0  0
  149.5668  142.7212  158.9838 H   0  0  0  0  0  0  0  0  0  0  0  0
  149.3649  141.7544  157.5251 H   0  0  0  0  0  0  0  0  0  0  0  0
  150.6789  137.6163  159.8054 H   0  0  0  0  0  0  0  0  0  0  0  0
  151.5717  139.4326  153.6938 H   0  0  0  0  0  0  0  0  0  0  0  0
  149.7172  137.0560  154.2597 H   0  0  0  0  0  0  0  0  0  0  0  0
  151.4027  136.7726  153.8943 H   0  0  0  0  0  0  0  0  0  0  0  0
  150.0093  135.9014  156.4866 H   0  0  0  0  0  0  0  0  0  0  0  0
  152.0915  136.3174  156.8798 H   0  0  0  0  0  0  0  0  0  0  0  0
  151.0842  134.1472  154.2063 H   0  0  0  0  0  0  0  0  0  0  0  0
  151.2062  132.7587  156.2128 H   0  0  0  0  0  0  0  0  0  0  0  0
  149.7472  133.5001  156.8713 H   0  0  0  0  0  0  0  0  0  0  0  0
  149.9225  131.3993  154.7594 H   0  0  0  0  0  0  0  0  0  0  0  0
  148.6002  131.7754  155.8659 H   0  0  0  0  0  0  0  0  0  0  0  0
  149.1103  132.8166  153.1279 H   0  0  0  0  0  0  0  0  0  0  0  0
  147.6168  132.9500  154.0644 H   0  0  0  0  0  0  0  0  0  0  0  0
  1  2  1  0  0  0  0
  1 26  1  0  0  0  0
  1 27  1  0  0  0  0
  1 28  1  0  0  0  0
  2  3  1  0  0  0  0
  2 29  1  0  0  0  0
  2 30  1  0  0  0  0
  3  8  1  0  0  0  0
  3  4  1  0  0  0  0
  3 31  1  0  0  0  0
  4  5  1  0  0  0  0
  4 32  1  0  0  0  0
  4 33  1  0  0  0  0
  5  6  1  0  0  0  0
  5 34  1  0  0  0  0
  5 35  1  0  0  0  0
  6  7  1  0  0  0  0
  6  8  1  0  0  0  0
  6 36  1  0  0  0  0
  7 37  1  0  0  0  0
  7 38  1  0  0  0  0
  7 39  1  0  0  0  0
  8  9  1  0  0  0  0
  9 14  1  0  0  0  0
  9 10  2  0  0  0  0
 10 11  1  0  0  0  0
 11 12  2  0  0  0  0
 11 40  1  0  0  0  0
 12 13  1  0  0  0  0
 13 17  1  0  0  0  0
 13 14  2  0  0  0  0
 14 15  1  0  0  0  0
 15 16  2  0  0  0  0
 16 17  1  0  0  0  0
 16 41  1  0  0  0  0
 17 18  1  0  0  0  0
 18 19  1  0  0  0  0
 18 42  1  0  0  0  0
 18 43  1  0  0  0  0
 19 20  1  0  0  0  0
 19 21  1  0  0  0  0
 19 44  1  0  0  0  0
 20 45  1  0  0  0  0
 21 25  1  0  0  0  0
 21 22  1  0  0  0  0
 21 46  1  0  0  0  0
 22 23  1  0  0  0  0
 22 47  1  0  0  0  0
 22 48  1  0  0  0  0
 23 24  1  0  0  0  0
 23 49  1  0  0  0  0
 23 50  1  0  0  0  0
 24 25  1  0  0  0  0
 24 51  1  0  0  0  0
 24 52  1  0  0  0  0
M  END
> <s_m_source_file>
AV-unprocessed.smi

> <i_m_source_file_index>
232

> <i_lp_mmshare_version>
43012

> <i_f3d_flags>
0

> <s_epik_input>
W0NIM11bQ0gyXVtDQEBIXTFbQ0gyXVtDSDJdW0NAQEhdKFtDSDNdKU4xYyhuW2NIXW4yKWMoYzIzKW5bY0hdbjNbQ0gyXVtDQEhdKFtPSF0pW0NAQEhdNFtDSDJdW0NIMl1bQ0gyXU80

> <s_epik_cmdline>
J2VwaWtfcHl0aG9uJywgJy1waCcsICc3LjAnLCAnLXRuJywgJzgnLCAnLW1hJywgJzIwMCcsICctbWV0YWxfYmluZGluZycsICctaW1hZScsICc8aW5maWxlLm1hZT4nLCAnLW9tYWUnLCAnPG91dGZpbGUubWFlPic=

> <r_lp_tautomer_probability>
1

> <r_epik_Ionization_Penalty>
0.00258048

> <r_epik_Ionization_Penalty_Charging>
0

> <r_epik_Ionization_Penalty_Neutral>
0.00258048

> <r_epik_State_Penalty>
0.00168551

> <r_epik_Charging_Adjusted_Penalty>
0.00168551

> <i_epik_Tot_Q>
0

> <i_epik_Tot_abs_Q>
0

> <r_epik_Metal_State_Penalty>
-0

> <b_epik_Metal_Only>
0

> <s_lp_Force_Field>
OPLS_2005

> <r_lp_Energy>
52.3854

> <b_lp_Chiralities_Consistent>
1

> <s_lp_Variant>
AV-unprocessed.smi:232-12

> <Gold.Version>
5.8.1

> <Gold.Id.Protein>
6NUR|6NUR_protein|mol2

> <Gold.PLP.Fitness>
48.1401

> <Gold.PLP.PLP>
-45.6681

> <Gold.PLP.part.hbond>
-2.0000

> <Gold.PLP.part.metal>
0.0000

> <Gold.PLP.part.buried>
-4.4611

> <Gold.PLP.part.nonpolar>
-40.2015

> <Gold.PLP.part.repulsive>
0.1900

> <Gold.PLP.ligand.clash>
0.0000

> <Gold.PLP.ligand.torsion>
0.4230

> <Gold.PLP.Chemscore.Hbond>
1.0000

> <Gold.PLP.Chemscore.CHOScore>
0.0000

> <Gold.PLP.Chemscore.Metal>
0.0000

> <Gold.Chemscore.Hbonds>
donor molecule, donor type, donor heavy atom, donor atom, acceptor molecule, acceptor atom, score
      P1  H 10752 10765       L1    20  1.00

> <Gold.PLP.Chemscore.Internal.Correction>
0.3180

> <Gold.Rescore>
     Score         DG    S(hbond)    S(metal)    S(lipo)     H(rot)  DE(clash)    DE(int)     intcor
     11.96     -14.82       0.94        0.00     106.16       2.43       0.09       2.77       ----

> <Gold.Chemscore.Fitness>
11.9584

> <Gold.Chemscore.DG>
-14.8230

> <Gold.Chemscore.ZeroCoef>
-5.4800

> <Gold.Chemscore.Hbond>
0.9381

> <Gold.Chemscore.Metal>
0.0000

> <Gold.Chemscore.Lipo>
106.1585

> <Gold.Chemscore.Internal_Hbond>
0.0000

> <Gold.Chemscore.DEClash>
0.0932

> <Gold.Chemscore.DEInternal>
2.7714

> <Gold.Chemscore.Rot>
2.4260

> <Gold.Chemscore.Internal.Correction>
   9.000000E+99

> <Gold.Chemscore.Hbonds>
donor molecule, donor type, donor heavy atom, donor atom, acceptor molecule, acceptor atom, score
      P1  H 10752 10765       L1    20  0.59

> <Gold.Chemscore.Hbond.Weighted>
-3.1331

> <Gold.Chemscore.Metal.Weighted>
-0.0000

> <Gold.Chemscore.Lipo.Weighted>
-12.4205

> <Gold.Chemscore.Internal_Hbond.Weighted>
0.0000

> <Gold.Chemscore.DEClash.Weighted>
0.0932

> <Gold.Chemscore.DEInternal.Weighted>
2.7714

> <Gold.Chemscore.Rot.Weighted>
6.2107

> <Gold.Chemscore.Internal.Correction.Weighted>
   9.000000E+99

> <Gold.Protein.RotatedTorsions>
[ 6907 6896 6895 6894 ] final -100.88 input  -60.11 | X-H torsion
[ 7974 7965 7964 7962 ] final   58.40 input  175.53 | X-H torsion
[ 8008 7997 7996 7995 ] final  102.56 input   59.86 | X-H torsion
[ 10167 10162 10161 10158 ] final -125.90 input  -65.29 | X-H torsion
[ 10718 10713 10712 10709 ] final -136.48 input   66.30 | X-H torsion
[ 10763 10752 10751 10750 ] final -157.35 input  -60.55 | X-H torsion
[ 11005 11000 10999 10996 ] final -169.05 input  -57.11 | X-H torsion

> <Gold.Protein.ActiveResidues>
 VAL166  LYS551  ARG553  GLY616  TRP617  ASP618  TYR619  PRO620  LYS621  CYS622 
 ASP623  PHE694  ASN695  SER759  ASP760  ASP761  ALA762  ILE779  LEU786  VAL792 
 PHE793  MET794  SER795  GLU796  ALA797  LYS798  CYS799  TRP800  GLU811  SER814 

> <Gold.Protein.RotatedAtoms>
  150.7133  134.0819  159.3900 H   0  0  0  0  0  0  0  0  0  0  0  0  # atno 6907 bound_to 6896
  151.8803  135.0454  160.0497 H   0  0  0  0  0  0  0  0  0  0  0  0  # atno 6908 bound_to 6896
  152.2573  133.5231  159.5397 H   0  0  0  0  0  0  0  0  0  0  0  0  # atno 6909 bound_to 6896
  145.9186  139.3711  143.0492 H   0  0  0  0  0  0  0  0  0  0  0  0  # atno 7974 bound_to 7965
  156.1404  140.3179  155.8486 H   0  0  0  0  0  0  0  0  0  0  0  0  # atno 8008 bound_to 7997
  155.4165  140.0509  157.3045 H   0  0  0  0  0  0  0  0  0  0  0  0  # atno 8009 bound_to 7997
  154.4971  140.2115  155.9436 H   0  0  0  0  0  0  0  0  0  0  0  0  # atno 8010 bound_to 7997
  139.9771  143.5782  152.2392 H   0  0  0  0  0  0  0  0  0  0  0  0  # atno 10167 bound_to 10162
  156.2775  130.7301  151.1288 H   0  0  0  0  0  0  0  0  0  0  0  0  # atno 10718 bound_to 10713
  154.7643  135.3126  154.8318 H   0  0  0  0  0  0  0  0  0  0  0  0  # atno 10763 bound_to 10752
  153.9070  135.6810  153.4757 H   0  0  0  0  0  0  0  0  0  0  0  0  # atno 10764 bound_to 10752
  153.1247  135.4807  154.9185 H   0  0  0  0  0  0  0  0  0  0  0  0  # atno 10765 bound_to 10752
  140.5351  134.5578  157.5085 H   0  0  0  0  0  0  0  0  0  0  0  0  # atno 11005 bound_to 11000
  145.8579  140.9492  143.0715 LP  0  0  0  0  0  0  0  0  0  0  0  0  # atno 17320 bound_to 7965
  144.6750  140.0492  143.7479 LP  0  0  0  0  0  0  0  0  0  0  0  0  # atno 17321 bound_to 7965
  139.6437  144.7656  151.2287 LP  0  0  0  0  0  0  0  0  0  0  0  0  # atno 17342 bound_to 10162
  140.7502  143.6274  150.8455 LP  0  0  0  0  0  0  0  0  0  0  0  0  # atno 17343 bound_to 10162
  157.7304  131.0617  150.5729 LP  0  0  0  0  0  0  0  0  0  0  0  0  # atno 17370 bound_to 10713
  156.5832  130.4310  149.5968 LP  0  0  0  0  0  0  0  0  0  0  0  0  # atno 17371 bound_to 10713
  139.9534  134.7578  156.0397 LP  0  0  0  0  0  0  0  0  0  0  0  0  # atno 17394 bound_to 11000
  141.1259  133.6599  156.3336 LP  0  0  0  0  0  0  0  0  0  0  0  0  # atno 17395 bound_to 11000

$$$$
