AV-unprocessed.smi:1047|AV-procd|sdf|4574|dock1
  -GOLD-   22720 3 33D 1   1.00000     0.00000
 Structure written by MMmdl.
 56 58  0  0  0  0  0  0  0  0  2 V2000
  142.0085  139.8874  155.7304 C   0  0  0  0  0  0  0  0  0  0  0  0
  143.5041  140.0440  156.0381 C   0  0  0  0  0  0  0  0  0  0  0  0
  144.1316  141.1447  155.2598 N   0  3  1  0  0  0  0  0  0  0  0  0
  143.5291  142.4842  155.4807 C   0  0  0  0  0  0  0  0  0  0  0  0
  144.0065  143.1051  156.8069 C   0  0  0  0  0  0  0  0  0  0  0  0
  145.4281  143.1397  156.8343 O   0  0  0  0  0  0  0  0  0  0  0  0
  146.0089  141.8410  156.7590 C   0  0  2  0  0  0  0  0  0  0  0  0
  147.5315  141.9958  156.8848 C   0  0  0  0  0  0  0  0  0  0  0  0
  148.1765  140.6956  157.0332 N   0  0  0  0  0  0  0  0  0  0  0  0
  149.5651  140.7814  157.4754 C   0  0  0  0  0  0  0  0  0  0  0  0
  150.4131  141.6033  156.4849 C   0  0  2  0  0  0  0  0  0  0  0  0
  150.6446  140.8204  155.3316 O   0  0  0  0  0  0  0  0  0  0  0  0
  151.7923  142.0087  157.0406 C   0  0  0  0  0  0  0  0  0  0  0  0
  151.7014  142.8093  158.2480 N   0  0  0  0  0  0  0  0  0  0  0  0
  151.0034  143.9495  158.4119 C   0  0  0  0  0  0  0  0  0  0  0  0
  151.0613  144.5328  159.6056 N   0  0  0  0  0  0  0  0  0  0  0  0
  151.8997  143.6737  160.2951 C   0  0  0  0  0  0  0  0  0  0  0  0
  152.3730  143.7263  161.6245 C   0  0  0  0  0  0  0  0  0  0  0  0
  153.2364  142.7267  162.1266 C   0  0  0  0  0  0  0  0  0  0  0  0
  153.7263  142.8258  163.5607 C   0  0  0  0  0  0  0  0  0  0  0  0
  153.6363  141.6501  161.2949 C   0  0  0  0  0  0  0  0  0  0  0  0
  154.5607  140.5628  161.8134 C   0  0  0  0  0  0  0  0  0  0  0  0
  153.1728  141.5820  159.9645 C   0  0  0  0  0  0  0  0  0  0  0  0
  152.3173  142.5850  159.4748 C   0  0  0  0  0  0  0  0  0  0  0  0
  145.6067  141.2098  155.4092 C   0  0  0  0  0  0  0  0  0  0  0  0
  141.6049  139.0081  156.2329 H   0  0  0  0  0  0  0  0  0  0  0  0
  141.8369  139.7626  154.6608 H   0  0  0  0  0  0  0  0  0  0  0  0
  141.4278  140.7452  156.0680 H   0  0  0  0  0  0  0  0  0  0  0  0
  143.6590  140.1842  157.1079 H   0  0  0  0  0  0  0  0  0  0  0  0
  143.9931  139.1041  155.7792 H   0  0  0  0  0  0  0  0  0  0  0  0
  143.8329  143.1307  154.6564 H   0  0  0  0  0  0  0  0  0  0  0  0
  142.4414  142.4418  155.4452 H   0  0  0  0  0  0  0  0  0  0  0  0
  143.6304  144.1242  156.8978 H   0  0  0  0  0  0  0  0  0  0  0  0
  143.6262  142.5540  157.6678 H   0  0  0  0  0  0  0  0  0  0  0  0
  145.6434  141.2201  157.5794 H   0  0  0  0  0  0  0  0  0  0  0  0
  147.9221  142.4905  155.9947 H   0  0  0  0  0  0  0  0  0  0  0  0
  147.7698  142.6419  157.7308 H   0  0  0  0  0  0  0  0  0  0  0  0
  147.6480  140.1298  157.6896 H   0  0  0  0  0  0  0  0  0  0  0  0
  149.5867  141.2507  158.4591 H   0  0  0  0  0  0  0  0  0  0  0  0
  149.9937  139.7859  157.6005 H   0  0  0  0  0  0  0  0  0  0  0  0
  149.8730  142.5049  156.1913 H   0  0  0  0  0  0  0  0  0  0  0  0
  149.9755  140.1553  155.2813 H   0  0  0  0  0  0  0  0  0  0  0  0
  152.3906  141.1220  157.2538 H   0  0  0  0  0  0  0  0  0  0  0  0
  152.3451  142.5831  156.2959 H   0  0  0  0  0  0  0  0  0  0  0  0
  150.4188  144.3743  157.6088 H   0  0  0  0  0  0  0  0  0  0  0  0
  152.0679  144.5466  162.2575 H   0  0  0  0  0  0  0  0  0  0  0  0
  154.8137  142.9014  163.5884 H   0  0  0  0  0  0  0  0  0  0  0  0
  153.4246  141.9461  164.1299 H   0  0  0  0  0  0  0  0  0  0  0  0
  153.3175  143.7039  164.0616 H   0  0  0  0  0  0  0  0  0  0  0  0
  154.7658  139.8158  161.0461 H   0  0  0  0  0  0  0  0  0  0  0  0
  154.1100  140.0526  162.6650 H   0  0  0  0  0  0  0  0  0  0  0  0
  155.5131  140.9890  162.1288 H   0  0  0  0  0  0  0  0  0  0  0  0
  153.4709  140.7671  159.3215 H   0  0  0  0  0  0  0  0  0  0  0  0
  146.0440  140.2168  155.2976 H   0  0  0  0  0  0  0  0  0  0  0  0
  146.0065  141.8123  154.5923 H   0  0  0  0  0  0  0  0  0  0  0  0
  143.9634  140.9098  154.2918 H   0  0  0  0  0  0  0  0  0  0  0  0
  1  2  1  0  0  0  0
  1 26  1  0  0  0  0
  1 27  1  0  0  0  0
  1 28  1  0  0  0  0
  2  3  1  0  0  0  0
  2 29  1  0  0  0  0
  2 30  1  0  0  0  0
  3 25  1  0  0  0  0
  3  4  1  0  0  0  0
  3 56  1  0  0  0  0
  4  5  1  0  0  0  0
  4 31  1  0  0  0  0
  4 32  1  0  0  0  0
  5  6  1  0  0  0  0
  5 33  1  0  0  0  0
  5 34  1  0  0  0  0
  6  7  1  0  0  0  0
  7  8  1  0  0  0  0
  7 25  1  0  0  0  0
  7 35  1  0  0  0  0
  8  9  1  0  0  0  0
  8 36  1  0  0  0  0
  8 37  1  0  0  0  0
  9 10  1  0  0  0  0
  9 38  1  0  0  0  0
 10 11  1  0  0  0  0
 10 39  1  0  0  0  0
 10 40  1  0  0  0  0
 11 12  1  0  0  0  0
 11 13  1  0  0  0  0
 11 41  1  0  0  0  0
 12 42  1  0  0  0  0
 13 14  1  0  0  0  0
 13 43  1  0  0  0  0
 13 44  1  0  0  0  0
 14 24  1  0  0  0  0
 14 15  1  0  0  0  0
 15 16  2  0  0  0  0
 15 45  1  0  0  0  0
 16 17  1  0  0  0  0
 17 24  2  0  0  0  0
 17 18  1  0  0  0  0
 18 19  2  0  0  0  0
 18 46  1  0  0  0  0
 19 20  1  0  0  0  0
 19 21  1  0  0  0  0
 20 47  1  0  0  0  0
 20 48  1  0  0  0  0
 20 49  1  0  0  0  0
 21 22  1  0  0  0  0
 21 23  2  0  0  0  0
 22 50  1  0  0  0  0
 22 51  1  0  0  0  0
 22 52  1  0  0  0  0
 23 24  1  0  0  0  0
 23 53  1  0  0  0  0
 25 54  1  0  0  0  0
 25 55  1  0  0  0  0
M  CHG  1   3   1
M  END
> <s_m_source_file>
AV-unprocessed.smi

> <i_m_source_file_index>
1047

> <i_lp_mmshare_version>
43012

> <i_f3d_flags>
0

> <s_epik_input>
W0NIM11bQ0gyXU4xW0NIMl1bQ0gyXU9bQ0BIXShbQ0gyXTEpW0NIMl1bTkhdW0NIMl1bQ0BIXShbT0hdKVtDSDJdbihbY0hdbjIpYyhjMjMpW2NIXWMoW0NIM10pYyhbY0hdMylbQ0gzXQ==

> <s_epik_cmdline>
J2VwaWtfcHl0aG9uJywgJy1waCcsICc3LjAnLCAnLXRuJywgJzgnLCAnLW1hJywgJzIwMCcsICctbWV0YWxfYmluZGluZycsICctaW1hZScsICc8aW5maWxlLm1hZT4nLCAnLW9tYWUnLCAnPG91dGZpbGUubWFlPic=

> <r_epik_Ionization_Penalty>
1.19246

> <r_epik_Ionization_Penalty_Charging>
0.210041

> <r_epik_Ionization_Penalty_Neutral>
0.982415

> <r_epik_State_Penalty>
1.57595

> <r_epik_Charging_Adjusted_Penalty>
1.78599

> <i_epik_Tot_Q>
1

> <i_epik_Tot_abs_Q>
1

> <r_epik_Metal_State_Penalty>
1.46172

> <b_epik_Metal_Only>
0

> <s_lp_Force_Field>
OPLS_2005

> <r_lp_Energy>
32.9743

> <b_lp_Chiralities_Consistent>
1

> <s_lp_Variant>
AV-unprocessed.smi:1047-15

> <Gold.Version>
5.8.1

> <Gold.Id.Protein>
6NUR|6NUR_protein|mol2

> <Gold.PLP.Fitness>
55.8612

> <Gold.PLP.PLP>
-44.8952

> <Gold.PLP.part.hbond>
-2.0000

> <Gold.PLP.part.metal>
0.0000

> <Gold.PLP.part.buried>
-5.6558

> <Gold.PLP.part.nonpolar>
-35.4966

> <Gold.PLP.part.repulsive>
0.2512

> <Gold.PLP.ligand.clash>
0.0000

> <Gold.PLP.ligand.torsion>
0.2419

> <Gold.PLP.Chemscore.Hbond>
2.8000

> <Gold.PLP.Chemscore.CHOScore>
1.0000

> <Gold.PLP.Chemscore.Metal>
0.0000

> <Gold.Chemscore.Hbonds>
donor molecule, donor type, donor heavy atom, donor atom, acceptor molecule, acceptor atom, score
      L1  H     3    56       P1 10175  2.00
      P1  H  7989  7998       L1    12  0.73
      L1  C    15    45       P1  8028  1.00

> <Gold.PLP.Chemscore.Internal.Correction>
0.0498

> <Gold.Rescore>
     Score         DG    S(hbond)    S(metal)    S(lipo)     H(rot)  DE(clash)    DE(int)     intcor
     16.47     -18.09       1.58        0.00     119.87       2.62       1.45       0.17       ----

> <Gold.Chemscore.Fitness>
16.4701

> <Gold.Chemscore.DG>
-18.0879

> <Gold.Chemscore.ZeroCoef>
-5.4800

> <Gold.Chemscore.Hbond>
1.5846

> <Gold.Chemscore.Metal>
0.0000

> <Gold.Chemscore.Lipo>
119.8718

> <Gold.Chemscore.Internal_Hbond>
0.0000

> <Gold.Chemscore.DEClash>
1.4485

> <Gold.Chemscore.DEInternal>
0.1693

> <Gold.Chemscore.Rot>
2.6209

> <Gold.Chemscore.Internal.Correction>
   9.000000E+99

> <Gold.Chemscore.Hbonds>
donor molecule, donor type, donor heavy atom, donor atom, acceptor molecule, acceptor atom, score
      L1  H     3    56       P1 10175  0.93
      P1  H  7989  7998       L1    12  0.49

> <Gold.Chemscore.Hbond.Weighted>
-5.2925

> <Gold.Chemscore.Metal.Weighted>
-0.0000

> <Gold.Chemscore.Lipo.Weighted>
-14.0250

> <Gold.Chemscore.Internal_Hbond.Weighted>
0.0000

> <Gold.Chemscore.DEClash.Weighted>
1.4485

> <Gold.Chemscore.DEInternal.Weighted>
0.1693

> <Gold.Chemscore.Rot.Weighted>
6.7096

> <Gold.Chemscore.Internal.Correction.Weighted>
   9.000000E+99

> <Gold.Protein.RotatedTorsions>
[ 6907 6896 6895 6894 ] final  -83.41 input  -60.11 | X-H torsion
[ 7974 7965 7964 7962 ] final -167.34 input  175.53 | X-H torsion
[ 8008 7997 7996 7995 ] final  -45.64 input   59.86 | X-H torsion
[ 10167 10162 10161 10158 ] final  167.67 input  -65.29 | X-H torsion
[ 10718 10713 10712 10709 ] final   38.00 input   66.30 | X-H torsion
[ 10763 10752 10751 10750 ] final  -51.80 input  -60.55 | X-H torsion
[ 11005 11000 10999 10996 ] final    6.18 input  -57.11 | X-H torsion

> <Gold.Protein.ActiveResidues>
 VAL166  LYS551  ARG553  GLY616  TRP617  ASP618  TYR619  PRO620  LYS621  CYS622 
 ASP623  PHE694  ASN695  SER759  ASP760  ASP761  ALA762  ILE779  LEU786  VAL792 
 PHE793  MET794  SER795  GLU796  ALA797  LYS798  CYS799  TRP800  GLU811  SER814 

> <Gold.Protein.RotatedAtoms>
  150.6886  134.3517  159.4911 H   0  0  0  0  0  0  0  0  0  0  0  0  # atno 6907 bound_to 6896
  152.1357  134.9098  160.0565 H   0  0  0  0  0  0  0  0  0  0  0  0  # atno 6908 bound_to 6896
  152.0251  133.3879  159.4311 H   0  0  0  0  0  0  0  0  0  0  0  0  # atno 6909 bound_to 6896
  144.7225  140.2533  143.6275 H   0  0  0  0  0  0  0  0  0  0  0  0  # atno 7974 bound_to 7965
  154.4002  140.1391  156.3881 H   0  0  0  0  0  0  0  0  0  0  0  0  # atno 8008 bound_to 7997
  155.7940  140.3478  155.5344 H   0  0  0  0  0  0  0  0  0  0  0  0  # atno 8009 bound_to 7997
  155.8551  140.0947  157.1640 H   0  0  0  0  0  0  0  0  0  0  0  0  # atno 8010 bound_to 7997
  139.4950  144.3896  151.9531 H   0  0  0  0  0  0  0  0  0  0  0  0  # atno 10167 bound_to 10162
  157.3536  130.7611  149.6996 H   0  0  0  0  0  0  0  0  0  0  0  0  # atno 10718 bound_to 10713
  154.1324  135.6518  153.4925 H   0  0  0  0  0  0  0  0  0  0  0  0  # atno 10763 bound_to 10752
  153.0191  135.5296  154.6987 H   0  0  0  0  0  0  0  0  0  0  0  0  # atno 10764 bound_to 10752
  154.6226  135.2966  155.0279 H   0  0  0  0  0  0  0  0  0  0  0  0  # atno 10765 bound_to 10752
  140.5624  134.0180  155.7977 H   0  0  0  0  0  0  0  0  0  0  0  0  # atno 11005 bound_to 11000
  145.8206  139.2042  143.1940 LP  0  0  0  0  0  0  0  0  0  0  0  0  # atno 17320 bound_to 7965
  146.0517  140.8062  142.9778 LP  0  0  0  0  0  0  0  0  0  0  0  0  # atno 17321 bound_to 7965
  140.3334  144.3290  150.5982 LP  0  0  0  0  0  0  0  0  0  0  0  0  # atno 17342 bound_to 10162
  140.5626  143.2190  151.7738 LP  0  0  0  0  0  0  0  0  0  0  0  0  # atno 17343 bound_to 10162
  155.9725  130.4133  150.4078 LP  0  0  0  0  0  0  0  0  0  0  0  0  # atno 17370 bound_to 10713
  157.2144  131.0468  151.2581 LP  0  0  0  0  0  0  0  0  0  0  0  0  # atno 17371 bound_to 10713
  141.1106  133.9622  157.2917 LP  0  0  0  0  0  0  0  0  0  0  0  0  # atno 17394 bound_to 11000
  139.9401  135.0192  156.8681 LP  0  0  0  0  0  0  0  0  0  0  0  0  # atno 17395 bound_to 11000

$$$$
