AV-unprocessed.smi:371|AV-procd|sdf|2441|dock4
  -GOLD-   2262022383D 1   1.00000     0.00000
 Structure written by MMmdl.
 39 40  0  0  0  0  0  0  0  0  1 V2000
  150.7397  136.1817  154.5939 C   0  0  0  0  0  0  0  0  0  0  0  0
  150.9016  137.5551  155.2340 C   0  0  0  0  0  0  0  0  0  0  0  0
  150.1092  138.6429  154.7096 C   0  0  0  0  0  0  0  0  0  0  0  0
  150.2408  139.8912  155.1858 C   0  0  0  0  0  0  0  0  0  0  0  0
  149.4083  141.0329  154.6132 C   0  0  0  0  0  0  0  0  0  0  0  0
  151.1522  140.1685  156.2421 N   0  0  0  0  0  0  0  0  0  0  0  0
  151.2947  141.5573  156.7416 C   0  0  0  0  0  0  0  0  0  0  0  0
  150.7023  141.7323  158.1607 C   0  0  2  0  0  0  0  0  0  0  0  0
  149.2980  141.8679  158.0629 O   0  0  0  0  0  0  0  0  0  0  0  0
  151.3123  142.9380  158.8648 C   0  0  0  0  0  0  0  0  0  0  0  0
  151.0259  144.2436  158.4057 C   0  0  0  0  0  0  0  0  0  0  0  0
  151.5853  145.3648  159.0483 C   0  0  0  0  0  0  0  0  0  0  0  0
  152.4377  145.1893  160.1543 C   0  0  0  0  0  0  0  0  0  0  0  0
  152.7308  143.8920  160.6155 C   0  0  0  0  0  0  0  0  0  0  0  0
  152.1717  142.7686  159.9753 C   0  0  0  0  0  0  0  0  0  0  0  0
  152.4662  141.5298  160.4376 F   0  0  0  0  0  0  0  0  0  0  0  0
  151.9047  139.1840  156.8311 C   0  0  0  0  0  0  0  0  0  0  0  0
  152.6242  139.4460  157.8004 O   0  0  0  0  0  0  0  0  0  0  0  0
  151.7742  137.8219  156.2433 C   0  0  0  0  0  0  0  0  0  0  0  0
  152.6209  136.7641  156.8304 C   0  0  0  0  0  0  0  0  0  0  0  0
  153.7057  137.1990  157.4863 N   0  0  0  0  0  0  0  0  0  0  0  0
  152.4352  135.5564  156.6897 O   0  0  0  0  0  0  0  0  0  0  0  0
  150.1314  136.2370  153.6907 H   0  0  0  0  0  0  0  0  0  0  0  0
  150.2479  135.4939  155.2821 H   0  0  0  0  0  0  0  0  0  0  0  0
  151.7061  135.7640  154.3098 H   0  0  0  0  0  0  0  0  0  0  0  0
  149.4060  138.4496  153.9123 H   0  0  0  0  0  0  0  0  0  0  0  0
  148.9310  140.7316  153.6803 H   0  0  0  0  0  0  0  0  0  0  0  0
  150.0094  141.9112  154.3863 H   0  0  0  0  0  0  0  0  0  0  0  0
  148.6169  141.3137  155.3085 H   0  0  0  0  0  0  0  0  0  0  0  0
  152.3479  141.8339  156.7485 H   0  0  0  0  0  0  0  0  0  0  0  0
  150.8697  142.2975  156.0611 H   0  0  0  0  0  0  0  0  0  0  0  0
  150.8930  140.8384  158.7545 H   0  0  0  0  0  0  0  0  0  0  0  0
  149.0923  142.2563  157.2262 H   0  0  0  0  0  0  0  0  0  0  0  0
  150.3745  144.3890  157.5563 H   0  0  0  0  0  0  0  0  0  0  0  0
  151.3601  146.3594  158.6924 H   0  0  0  0  0  0  0  0  0  0  0  0
  152.8666  146.0485  160.6485 H   0  0  0  0  0  0  0  0  0  0  0  0
  153.3859  143.7576  161.4636 H   0  0  0  0  0  0  0  0  0  0  0  0
  154.3458  136.5353  157.8980 H   0  0  0  0  0  0  0  0  0  0  0  0
  153.8902  138.1896  157.5486 H   0  0  0  0  0  0  0  0  0  0  0  0
  1  2  1  0  0  0  0
  1 23  1  0  0  0  0
  1 24  1  0  0  0  0
  1 25  1  0  0  0  0
  2 19  2  0  0  0  0
  2  3  1  0  0  0  0
  3  4  2  0  0  0  0
  3 26  1  0  0  0  0
  4  5  1  0  0  0  0
  4  6  1  0  0  0  0
  5 27  1  0  0  0  0
  5 28  1  0  0  0  0
  5 29  1  0  0  0  0
  6  7  1  0  0  0  0
  6 17  1  0  0  0  0
  7  8  1  0  0  0  0
  7 30  1  0  0  0  0
  7 31  1  0  0  0  0
  8  9  1  0  0  0  0
  8 10  1  0  0  0  0
  8 32  1  0  0  0  0
  9 33  1  0  0  0  0
 10 15  1  0  0  0  0
 10 11  2  0  0  0  0
 11 12  1  0  0  0  0
 11 34  1  0  0  0  0
 12 13  2  0  0  0  0
 12 35  1  0  0  0  0
 13 14  1  0  0  0  0
 13 36  1  0  0  0  0
 14 15  2  0  0  0  0
 14 37  1  0  0  0  0
 15 16  1  0  0  0  0
 17 18  2  0  0  0  0
 17 19  1  0  0  0  0
 19 20  1  0  0  0  0
 20 21  1  0  0  0  0
 20 22  2  0  0  0  0
 21 38  1  0  0  0  0
 21 39  1  0  0  0  0
M  END
> <s_m_source_file>
AV-unprocessed.smi

> <i_m_source_file_index>
371

> <i_lp_mmshare_version>
43012

> <i_f3d_flags>
0

> <s_epik_input>
W0NIM11jMVtjSF1jKFtDSDNdKW4oYyg9TyljMUMoPU8pW05IMl0pW0NIMl1bQ0BIXShbT0hdKWMyW2NIXVtjSF1bY0hdW2NIXWMyRg==

> <s_epik_cmdline>
J2VwaWtfcHl0aG9uJywgJy1waCcsICc3LjAnLCAnLXRuJywgJzgnLCAnLW1hJywgJzIwMCcsICctbWV0YWxfYmluZGluZycsICctaW1hZScsICc8aW5maWxlLm1hZT4nLCAnLW9tYWUnLCAnPG91dGZpbGUubWFlPic=

> <r_lp_tautomer_probability>
1

> <r_epik_Ionization_Penalty>
3.46512e-07

> <r_epik_Ionization_Penalty_Charging>
1.35363e-07

> <r_epik_Ionization_Penalty_Neutral>
2.11149e-07

> <r_epik_State_Penalty>
-0

> <r_epik_Charging_Adjusted_Penalty>
1.35363e-07

> <i_epik_Tot_Q>
0

> <i_epik_Tot_abs_Q>
0

> <r_epik_Metal_State_Penalty>
-0

> <b_epik_Metal_Only>
0

> <s_lp_Force_Field>
OPLS_2005

> <r_lp_Energy>
40.8148

> <b_lp_Chiralities_Consistent>
1

> <s_lp_Variant>
AV-unprocessed.smi:371-1

> <Gold.Version>
5.8.1

> <Gold.Id.Protein>
6NUR|6NUR_protein|mol2

> <Gold.PLP.Fitness>
43.6017

> <Gold.PLP.PLP>
-38.4563

> <Gold.PLP.part.hbond>
-2.0000

> <Gold.PLP.part.metal>
0.0000

> <Gold.PLP.part.buried>
-1.3240

> <Gold.PLP.part.nonpolar>
-34.8230

> <Gold.PLP.part.repulsive>
0.1538

> <Gold.PLP.ligand.clash>
0.0000

> <Gold.PLP.ligand.torsion>
0.5822

> <Gold.PLP.Chemscore.Hbond>
2.0000

> <Gold.PLP.Chemscore.CHOScore>
0.0000

> <Gold.PLP.Chemscore.Metal>
0.0000

> <Gold.Chemscore.Hbonds>
donor molecule, donor type, donor heavy atom, donor atom, acceptor molecule, acceptor atom, score
      P1  H  7997  8009       L1    18  0.63
      P1  H 10752 10763       L1    22  0.80

> <Gold.PLP.Chemscore.Internal.Correction>
0.3097

> <Gold.Rescore>
     Score         DG    S(hbond)    S(metal)    S(lipo)     H(rot)  DE(clash)    DE(int)     intcor
     15.67     -19.07       1.63        0.00     114.15       2.04       0.48       2.92       ----

> <Gold.Chemscore.Fitness>
15.6722

> <Gold.Chemscore.DG>
-19.0699

> <Gold.Chemscore.ZeroCoef>
-5.4800

> <Gold.Chemscore.Hbond>
1.6335

> <Gold.Chemscore.Metal>
0.0000

> <Gold.Chemscore.Lipo>
114.1478

> <Gold.Chemscore.Internal_Hbond>
0.0000

> <Gold.Chemscore.DEClash>
0.4760

> <Gold.Chemscore.DEInternal>
2.9216

> <Gold.Chemscore.Rot>
2.0396

> <Gold.Chemscore.Internal.Correction>
   9.000000E+99

> <Gold.Chemscore.Hbonds>
donor molecule, donor type, donor heavy atom, donor atom, acceptor molecule, acceptor atom, score
      P1  H  7997  8009       L1    18  0.14
      P1  H 10752 10763       L1    22  0.12

> <Gold.Chemscore.Hbond.Weighted>
-5.4559

> <Gold.Chemscore.Metal.Weighted>
-0.0000

> <Gold.Chemscore.Lipo.Weighted>
-13.3553

> <Gold.Chemscore.Internal_Hbond.Weighted>
0.0000

> <Gold.Chemscore.DEClash.Weighted>
0.4760

> <Gold.Chemscore.DEInternal.Weighted>
2.9216

> <Gold.Chemscore.Rot.Weighted>
5.2214

> <Gold.Chemscore.Internal.Correction.Weighted>
   9.000000E+99

> <Gold.Protein.RotatedTorsions>
[ 6907 6896 6895 6894 ] final  101.28 input  -60.11 | X-H torsion
[ 7974 7965 7964 7962 ] final -105.01 input  175.53 | X-H torsion
[ 8008 7997 7996 7995 ] final  173.70 input   59.86 | X-H torsion
[ 10167 10162 10161 10158 ] final -101.36 input  -65.29 | X-H torsion
[ 10718 10713 10712 10709 ] final  -63.36 input   66.30 | X-H torsion
[ 10763 10752 10751 10750 ] final  104.77 input  -60.55 | X-H torsion
[ 11005 11000 10999 10996 ] final   20.57 input  -57.11 | X-H torsion

> <Gold.Protein.ActiveResidues>
 VAL166  LYS551  ARG553  GLY616  TRP617  ASP618  TYR619  PRO620  LYS621  CYS622 
 ASP623  PHE694  ASN695  SER759  ASP760  ASP761  ALA762  ILE779  LEU786  VAL792 
 PHE793  MET794  SER795  GLU796  ALA797  LYS798  CYS799  TRP800  GLU811  SER814 

> <Gold.Protein.RotatedAtoms>
  152.5353  134.0149  159.7955 H   0  0  0  0  0  0  0  0  0  0  0  0  # atno 6907 bound_to 6896
  151.0345  133.5753  159.2664 H   0  0  0  0  0  0  0  0  0  0  0  0  # atno 6908 bound_to 6896
  151.2745  135.0702  159.9200 H   0  0  0  0  0  0  0  0  0  0  0  0  # atno 6909 bound_to 6896
  145.2358  140.9187  143.3178 H   0  0  0  0  0  0  0  0  0  0  0  0  # atno 7974 bound_to 7965
  156.1049  140.1453  156.9418 H   0  0  0  0  0  0  0  0  0  0  0  0  # atno 8008 bound_to 7997
  154.4727  140.0904  156.7229 H   0  0  0  0  0  0  0  0  0  0  0  0  # atno 8009 bound_to 7997
  155.4697  140.3441  155.4326 H   0  0  0  0  0  0  0  0  0  0  0  0  # atno 8010 bound_to 7997
  140.2421  143.3531  152.0792 H   0  0  0  0  0  0  0  0  0  0  0  0  # atno 10167 bound_to 10162
  156.0796  130.4220  150.1266 H   0  0  0  0  0  0  0  0  0  0  0  0  # atno 10718 bound_to 10713
  153.3704  135.3932  155.1784 H   0  0  0  0  0  0  0  0  0  0  0  0  # atno 10763 bound_to 10752
  154.8693  135.3701  154.4985 H   0  0  0  0  0  0  0  0  0  0  0  0  # atno 10764 bound_to 10752
  153.5453  135.7084  153.5678 H   0  0  0  0  0  0  0  0  0  0  0  0  # atno 10765 bound_to 10752
  140.4011  134.1717  155.7664 H   0  0  0  0  0  0  0  0  0  0  0  0  # atno 11005 bound_to 11000
  144.9634  139.3956  143.6344 LP  0  0  0  0  0  0  0  0  0  0  0  0  # atno 17320 bound_to 7965
  146.3341  139.8698  142.8842 LP  0  0  0  0  0  0  0  0  0  0  0  0  # atno 17321 bound_to 7965
  139.5074  144.6831  151.5958 LP  0  0  0  0  0  0  0  0  0  0  0  0  # atno 17342 bound_to 10162
  140.6106  143.9444  150.6450 LP  0  0  0  0  0  0  0  0  0  0  0  0  # atno 17343 bound_to 10162
  156.9300  130.9711  151.3534 LP  0  0  0  0  0  0  0  0  0  0  0  0  # atno 17370 bound_to 10713
  157.5907  130.8441  149.8654 LP  0  0  0  0  0  0  0  0  0  0  0  0  # atno 17371 bound_to 10713
  141.1856  133.8320  157.1098 LP  0  0  0  0  0  0  0  0  0  0  0  0  # atno 17394 bound_to 11000
  140.0335  134.9889  157.0827 LP  0  0  0  0  0  0  0  0  0  0  0  0  # atno 17395 bound_to 11000

$$$$
