AV-unprocessed.smi:2959|AV-procd|sdf|11310|dock1
  -GOLD-   2272016213D 1   1.00000     0.00000
 Structure written by MMmdl.
 46 48  0  0  0  0  0  0  0  0  2 V2000
  148.2549  138.6943  154.0534 C   0  0  0  0  0  0  0  0  0  0  0  0
  148.2605  137.5303  155.0384 C   0  0  0  0  0  0  0  0  0  0  0  0
  147.8807  137.6977  156.1967 O   0  0  0  0  0  0  0  0  0  0  0  0
  148.6936  136.3535  154.5652 N   0  0  0  0  0  0  0  0  0  0  0  0
  148.7632  135.1301  155.3521 C   0  0  0  0  0  0  0  0  0  0  0  0
  149.4565  134.0148  154.5592 C   0  0  0  0  0  0  0  0  0  0  0  0
  148.4859  133.2670  153.7033 C   0  0  0  0  0  0  0  0  0  0  0  0
  147.7426  133.7956  152.6902 N   0  3  0  0  0  0  0  0  0  0  0  0
  146.9523  132.7998  152.1142 C   0  0  0  0  0  0  0  0  0  0  0  0
  146.0369  132.8535  151.0675 C   0  0  0  0  0  0  0  0  0  0  0  0
  145.3932  131.6455  150.7272 C   0  0  0  0  0  0  0  0  0  0  0  0
  145.6678  130.4470  151.4177 C   0  0  0  0  0  0  0  0  0  0  0  0
  146.5980  130.4051  152.4774 C   0  0  0  0  0  0  0  0  0  0  0  0
  147.2309  131.6034  152.8060 C   0  0  0  0  0  0  0  0  0  0  0  0
  148.1849  131.9377  153.7728 N   0  0  0  0  0  0  0  0  0  0  0  0
  148.6839  130.8927  154.6787 C   0  0  0  0  0  0  0  0  0  0  0  0
  150.1541  130.5455  154.4062 C   0  0  0  0  0  0  0  0  0  0  0  0
  150.9676  131.1919  155.3763 O   0  0  0  0  0  0  0  0  0  0  0  0
  152.3061  130.8717  155.4294 C   0  0  0  0  0  0  0  0  0  0  0  0
  153.0815  131.5329  156.4042 C   0  0  0  0  0  0  0  0  0  0  0  0
  154.4582  131.2669  156.5319 C   0  0  0  0  0  0  0  0  0  0  0  0
  155.0758  130.3329  155.6800 C   0  0  0  0  0  0  0  0  0  0  0  0
  154.3142  129.6668  154.7019 C   0  0  0  0  0  0  0  0  0  0  0  0
  152.9367  129.9326  154.5743 C   0  0  0  0  0  0  0  0  0  0  0  0
  149.2600  138.8764  153.6721 H   0  0  0  0  0  0  0  0  0  0  0  0
  147.9020  139.6071  154.5341 H   0  0  0  0  0  0  0  0  0  0  0  0
  147.5986  138.4771  153.2103 H   0  0  0  0  0  0  0  0  0  0  0  0
  148.9845  136.3017  153.5997 H   0  0  0  0  0  0  0  0  0  0  0  0
  149.3057  135.3228  156.2792 H   0  0  0  0  0  0  0  0  0  0  0  0
  147.7524  134.8255  155.6275 H   0  0  0  0  0  0  0  0  0  0  0  0
  150.2428  134.4308  153.9285 H   0  0  0  0  0  0  0  0  0  0  0  0
  149.9413  133.3139  155.2399 H   0  0  0  0  0  0  0  0  0  0  0  0
  145.8235  133.7703  150.5377 H   0  0  0  0  0  0  0  0  0  0  0  0
  144.6735  131.6380  149.9213 H   0  0  0  0  0  0  0  0  0  0  0  0
  145.1545  129.5411  151.1293 H   0  0  0  0  0  0  0  0  0  0  0  0
  146.8000  129.4827  153.0016 H   0  0  0  0  0  0  0  0  0  0  0  0
  148.5389  131.2163  155.7098 H   0  0  0  0  0  0  0  0  0  0  0  0
  148.0614  130.0079  154.5433 H   0  0  0  0  0  0  0  0  0  0  0  0
  150.2916  129.4642  154.4578 H   0  0  0  0  0  0  0  0  0  0  0  0
  150.4274  130.8736  153.4024 H   0  0  0  0  0  0  0  0  0  0  0  0
  152.6151  132.2516  157.0621 H   0  0  0  0  0  0  0  0  0  0  0  0
  155.0403  131.7797  157.2833 H   0  0  0  0  0  0  0  0  0  0  0  0
  156.1318  130.1277  155.7767 H   0  0  0  0  0  0  0  0  0  0  0  0
  154.7876  128.9503  154.0468 H   0  0  0  0  0  0  0  0  0  0  0  0
  152.3862  129.4041  153.8113 H   0  0  0  0  0  0  0  0  0  0  0  0
  147.7725  134.7696  152.4174 H   0  0  0  0  0  0  0  0  0  0  0  0
  1  2  1  0  0  0  0
  1 25  1  0  0  0  0
  1 26  1  0  0  0  0
  1 27  1  0  0  0  0
  2  3  2  0  0  0  0
  2  4  1  0  0  0  0
  4  5  1  0  0  0  0
  4 28  1  0  0  0  0
  5  6  1  0  0  0  0
  5 29  1  0  0  0  0
  5 30  1  0  0  0  0
  6  7  1  0  0  0  0
  6 31  1  0  0  0  0
  6 32  1  0  0  0  0
  7 15  1  0  0  0  0
  7  8  2  0  0  0  0
  8  9  1  0  0  0  0
  8 46  1  0  0  0  0
  9 14  2  0  0  0  0
  9 10  1  0  0  0  0
 10 11  2  0  0  0  0
 10 33  1  0  0  0  0
 11 12  1  0  0  0  0
 11 34  1  0  0  0  0
 12 13  2  0  0  0  0
 12 35  1  0  0  0  0
 13 14  1  0  0  0  0
 13 36  1  0  0  0  0
 14 15  1  0  0  0  0
 15 16  1  0  0  0  0
 16 17  1  0  0  0  0
 16 37  1  0  0  0  0
 16 38  1  0  0  0  0
 17 18  1  0  0  0  0
 17 39  1  0  0  0  0
 17 40  1  0  0  0  0
 18 19  1  0  0  0  0
 19 24  1  0  0  0  0
 19 20  2  0  0  0  0
 20 21  1  0  0  0  0
 20 41  1  0  0  0  0
 21 22  2  0  0  0  0
 21 42  1  0  0  0  0
 22 23  1  0  0  0  0
 22 43  1  0  0  0  0
 23 24  2  0  0  0  0
 23 44  1  0  0  0  0
 24 45  1  0  0  0  0
M  CHG  1   8   1
M  END
> <s_m_source_file>
AV-unprocessed.smi

> <i_m_source_file_index>
2959

> <i_lp_mmshare_version>
43012

> <i_f3d_flags>
0

> <s_epik_input>
W0NIM11DKD1PKVtOSF1bQ0gyXVtDSDJdYyhuMSluKGMoYzEyKVtjSF1bY0hdW2NIXVtjSF0yKVtDSDJdW0NIMl1PYzNbY0hdW2NIXVtjSF1bY0hdW2NIXTM=

> <s_epik_cmdline>
J2VwaWtfcHl0aG9uJywgJy1waCcsICc3LjAnLCAnLXRuJywgJzgnLCAnLW1hJywgJzIwMCcsICctbWV0YWxfYmluZGluZycsICctaW1hZScsICc8aW5maWxlLm1hZT4nLCAnLW9tYWUnLCAnPG91dGZpbGUubWFlPic=

> <r_lp_tautomer_probability>
1

> <r_epik_Ionization_Penalty>
1.04698

> <r_epik_Ionization_Penalty_Charging>
1.04698

> <r_epik_Ionization_Penalty_Neutral>
3.05925e-07

> <r_epik_State_Penalty>
1.0995

> <r_epik_Charging_Adjusted_Penalty>
2.14648

> <i_epik_Tot_Q>
1

> <i_epik_Tot_abs_Q>
1

> <r_epik_Metal_State_Penalty>
1.19436

> <b_epik_Metal_Only>
0

> <s_lp_Force_Field>
OPLS_2005

> <r_lp_Energy>
17.9669

> <b_lp_Chiralities_Consistent>
1

> <s_lp_Variant>
AV-unprocessed.smi:2959-2

> <Gold.Version>
5.8.1

> <Gold.Id.Protein>
6NUR|6NUR_protein|mol2

> <Gold.PLP.Fitness>
49.3405

> <Gold.PLP.PLP>
-41.4071

> <Gold.PLP.part.hbond>
-2.0000

> <Gold.PLP.part.metal>
0.0000

> <Gold.PLP.part.buried>
-3.6510

> <Gold.PLP.part.nonpolar>
-35.4458

> <Gold.PLP.part.repulsive>
0.0233

> <Gold.PLP.ligand.clash>
0.0000

> <Gold.PLP.ligand.torsion>
0.5706

> <Gold.PLP.Chemscore.Hbond>
2.9920

> <Gold.PLP.Chemscore.CHOScore>
0.0000

> <Gold.PLP.Chemscore.Metal>
0.0000

> <Gold.Chemscore.Hbonds>
donor molecule, donor type, donor heavy atom, donor atom, acceptor molecule, acceptor atom, score
      L1  H     4    28       P1  7948  1.00
      L1  H     8    46       P1  7948  1.73

> <Gold.PLP.Chemscore.Internal.Correction>
0.0985

> <Gold.Rescore>
     Score         DG    S(hbond)    S(metal)    S(lipo)     H(rot)  DE(clash)    DE(int)     intcor
     16.67     -17.35       1.76        0.00      99.61       2.21       0.08       0.60       ----

> <Gold.Chemscore.Fitness>
16.6701

> <Gold.Chemscore.DG>
-17.3456

> <Gold.Chemscore.ZeroCoef>
-5.4800

> <Gold.Chemscore.Hbond>
1.7567

> <Gold.Chemscore.Metal>
0.0000

> <Gold.Chemscore.Lipo>
99.6071

> <Gold.Chemscore.Internal_Hbond>
0.0000

> <Gold.Chemscore.DEClash>
0.0770

> <Gold.Chemscore.DEInternal>
0.5986

> <Gold.Chemscore.Rot>
2.2093

> <Gold.Chemscore.Internal.Correction>
   9.000000E+99

> <Gold.Chemscore.Hbonds>
donor molecule, donor type, donor heavy atom, donor atom, acceptor molecule, acceptor atom, score
      L1  H     4    28       P1  7948  0.99
      L1  H     8    46       P1  7948  0.69

> <Gold.Chemscore.Hbond.Weighted>
-5.8675

> <Gold.Chemscore.Metal.Weighted>
-0.0000

> <Gold.Chemscore.Lipo.Weighted>
-11.6540

> <Gold.Chemscore.Internal_Hbond.Weighted>
0.0000

> <Gold.Chemscore.DEClash.Weighted>
0.0770

> <Gold.Chemscore.DEInternal.Weighted>
0.5986

> <Gold.Chemscore.Rot.Weighted>
5.6559

> <Gold.Chemscore.Internal.Correction.Weighted>
   9.000000E+99

> <Gold.Protein.RotatedTorsions>
[ 6907 6896 6895 6894 ] final  118.37 input  -60.11 | X-H torsion
[ 7974 7965 7964 7962 ] final  -97.33 input  175.53 | X-H torsion
[ 8008 7997 7996 7995 ] final  -91.67 input   59.86 | X-H torsion
[ 10167 10162 10161 10158 ] final  -13.11 input  -65.29 | X-H torsion
[ 10718 10713 10712 10709 ] final  116.04 input   66.30 | X-H torsion
[ 10763 10752 10751 10750 ] final -172.54 input  -60.55 | X-H torsion
[ 11005 11000 10999 10996 ] final  -74.36 input  -57.11 | X-H torsion

> <Gold.Protein.ActiveResidues>
 VAL166  LYS551  ARG553  GLY616  TRP617  ASP618  TYR619  PRO620  LYS621  CYS622 
 ASP623  PHE694  ASN695  SER759  ASP760  ASP761  ALA762  ILE779  LEU786  VAL792 
 PHE793  MET794  SER795  GLU796  ALA797  LYS798  CYS799  TRP800  GLU811  SER814 

> <Gold.Protein.RotatedAtoms>
  152.4548  133.7700  159.6793 H   0  0  0  0  0  0  0  0  0  0  0  0  # atno 6907 bound_to 6896
  150.8470  133.7835  159.3045 H   0  0  0  0  0  0  0  0  0  0  0  0  # atno 6908 bound_to 6896
  151.5443  135.1071  159.9986 H   0  0  0  0  0  0  0  0  0  0  0  0  # atno 6909 bound_to 6896
  145.3351  140.9449  143.2640 H   0  0  0  0  0  0  0  0  0  0  0  0  # atno 7974 bound_to 7965
  154.7137  140.0517  157.0574 H   0  0  0  0  0  0  0  0  0  0  0  0  # atno 8008 bound_to 7997
  155.0521  140.3180  155.4669 H   0  0  0  0  0  0  0  0  0  0  0  0  # atno 8009 bound_to 7997
  156.2796  140.2114  156.5646 H   0  0  0  0  0  0  0  0  0  0  0  0  # atno 8010 bound_to 7997
  140.7175  143.5461  150.9354 H   0  0  0  0  0  0  0  0  0  0  0  0  # atno 10167 bound_to 10162
  157.6185  131.1020  150.7416 H   0  0  0  0  0  0  0  0  0  0  0  0  # atno 10718 bound_to 10713
  154.6182  135.2872  155.0356 H   0  0  0  0  0  0  0  0  0  0  0  0  # atno 10763 bound_to 10752
  154.1561  135.6495  153.4978 H   0  0  0  0  0  0  0  0  0  0  0  0  # atno 10764 bound_to 10752
  153.0224  135.5367  154.6961 H   0  0  0  0  0  0  0  0  0  0  0  0  # atno 10765 bound_to 10752
  141.1634  133.6909  156.7353 H   0  0  0  0  0  0  0  0  0  0  0  0  # atno 11005 bound_to 11000
  144.8834  139.4873  143.6712 LP  0  0  0  0  0  0  0  0  0  0  0  0  # atno 17320 bound_to 7965
  146.3030  139.7488  142.9077 LP  0  0  0  0  0  0  0  0  0  0  0  0  # atno 17321 bound_to 7965
  139.9184  143.6635  152.3101 LP  0  0  0  0  0  0  0  0  0  0  0  0  # atno 17342 bound_to 10162
  139.7043  144.7630  151.1219 LP  0  0  0  0  0  0  0  0  0  0  0  0  # atno 17343 bound_to 10162
  156.7778  130.4849  149.5406 LP  0  0  0  0  0  0  0  0  0  0  0  0  # atno 17370 bound_to 10713
  156.1319  130.6184  151.0345 LP  0  0  0  0  0  0  0  0  0  0  0  0  # atno 17371 bound_to 10713
  140.2714  134.8389  157.3851 LP  0  0  0  0  0  0  0  0  0  0  0  0  # atno 17394 bound_to 11000
  140.1517  134.4841  155.7956 LP  0  0  0  0  0  0  0  0  0  0  0  0  # atno 17395 bound_to 11000

$$$$
