AV-unprocessed.smi:2363|AV-procd|sdf|9416|dock3
  -GOLD-   2272013 53D 1   1.00000     0.00000
 Structure written by MMmdl.
 44 45  0  0  0  0  0  0  0  0  1 V2000
  146.0851  134.4339  151.6167 C   0  0  0  0  0  0  0  0  0  0  0  0
  146.9751  133.8363  152.7160 C   0  0  0  0  0  0  0  0  0  0  0  0
  148.0695  132.8892  152.1924 C   0  0  0  0  0  0  0  0  0  0  0  0
  148.9681  132.4335  153.2411 N   0  0  0  0  0  0  0  0  0  0  0  0
  149.0457  131.1150  153.5273 N   0  0  0  0  0  0  0  0  0  0  0  0
  149.9369  131.0265  154.5061 C   0  0  0  0  0  0  0  0  0  0  0  0
  150.4714  132.2892  154.8898 C   0  0  0  0  0  0  0  0  0  0  0  0
  149.8232  133.1532  154.0498 C   0  0  0  0  0  0  0  0  0  0  0  0
  149.9412  134.5048  153.9606 N   0  0  0  0  0  0  0  0  0  0  0  0
  150.6911  135.3343  154.7059 C   0  0  0  0  0  0  0  0  0  0  0  0
  151.4216  134.9922  155.6358 O   0  0  0  0  0  0  0  0  0  0  0  0
  150.5421  136.6065  154.3066 N   0  0  0  0  0  0  0  0  0  0  0  0
  151.2102  137.7732  154.8850 C   0  0  1  0  0  0  0  0  0  0  0  0
  152.3394  138.1941  153.9291 C   0  0  0  0  0  0  0  0  0  0  0  0
  150.1881  138.9076  155.1657 C   0  0  0  0  0  0  0  0  0  0  0  0
  149.2939  139.2099  153.9458 C   0  0  0  0  0  0  0  0  0  0  0  0
  148.3466  140.3888  154.2216 C   0  0  0  0  0  0  0  0  0  0  0  0
  149.0945  141.5401  154.5921 O   0  0  0  0  0  0  0  0  0  0  0  0
  149.8329  141.3491  155.7919 C   0  0  0  0  0  0  0  0  0  0  0  0
  150.8644  140.2258  155.6013 C   0  0  0  0  0  0  0  0  0  0  0  0
  145.3695  135.1390  152.0398 H   0  0  0  0  0  0  0  0  0  0  0  0
  145.5159  133.6624  151.0977 H   0  0  0  0  0  0  0  0  0  0  0  0
  146.6806  134.9682  150.8763 H   0  0  0  0  0  0  0  0  0  0  0  0
  147.4469  134.6474  153.2713 H   0  0  0  0  0  0  0  0  0  0  0  0
  146.3486  133.3046  153.4332 H   0  0  0  0  0  0  0  0  0  0  0  0
  147.6172  132.0212  151.7118 H   0  0  0  0  0  0  0  0  0  0  0  0
  148.6595  133.3912  151.4242 H   0  0  0  0  0  0  0  0  0  0  0  0
  150.1681  130.0515  154.9087 H   0  0  0  0  0  0  0  0  0  0  0  0
  151.2048  132.5015  155.6530 H   0  0  0  0  0  0  0  0  0  0  0  0
  149.4058  134.9343  153.2207 H   0  0  0  0  0  0  0  0  0  0  0  0
  149.9167  136.7860  153.5349 H   0  0  0  0  0  0  0  0  0  0  0  0
  151.6763  137.4969  155.8324 H   0  0  0  0  0  0  0  0  0  0  0  0
  152.9707  138.9680  154.3644 H   0  0  0  0  0  0  0  0  0  0  0  0
  151.9430  138.5743  152.9870 H   0  0  0  0  0  0  0  0  0  0  0  0
  152.9902  137.3498  153.6982 H   0  0  0  0  0  0  0  0  0  0  0  0
  149.5405  138.5838  155.9822 H   0  0  0  0  0  0  0  0  0  0  0  0
  149.9158  139.4421  153.0802 H   0  0  0  0  0  0  0  0  0  0  0  0
  148.6974  138.3385  153.6778 H   0  0  0  0  0  0  0  0  0  0  0  0
  147.7677  140.6196  153.3272 H   0  0  0  0  0  0  0  0  0  0  0  0
  147.6310  140.1385  155.0065 H   0  0  0  0  0  0  0  0  0  0  0  0
  150.3380  142.2813  156.0455 H   0  0  0  0  0  0  0  0  0  0  0  0
  149.1565  141.1199  156.6167 H   0  0  0  0  0  0  0  0  0  0  0  0
  151.4124  140.0912  156.5339 H   0  0  0  0  0  0  0  0  0  0  0  0
  151.5967  140.5299  154.8521 H   0  0  0  0  0  0  0  0  0  0  0  0
  1  2  1  0  0  0  0
  1 21  1  0  0  0  0
  1 22  1  0  0  0  0
  1 23  1  0  0  0  0
  2  3  1  0  0  0  0
  2 24  1  0  0  0  0
  2 25  1  0  0  0  0
  3  4  1  0  0  0  0
  3 26  1  0  0  0  0
  3 27  1  0  0  0  0
  4  8  1  0  0  0  0
  4  5  1  0  0  0  0
  5  6  2  0  0  0  0
  6  7  1  0  0  0  0
  6 28  1  0  0  0  0
  7  8  2  0  0  0  0
  7 29  1  0  0  0  0
  8  9  1  0  0  0  0
  9 10  1  0  0  0  0
  9 30  1  0  0  0  0
 10 11  2  0  0  0  0
 10 12  1  0  0  0  0
 12 13  1  0  0  0  0
 12 31  1  0  0  0  0
 13 14  1  0  0  0  0
 13 15  1  0  0  0  0
 13 32  1  0  0  0  0
 14 33  1  0  0  0  0
 14 34  1  0  0  0  0
 14 35  1  0  0  0  0
 15 20  1  0  0  0  0
 15 16  1  0  0  0  0
 15 36  1  0  0  0  0
 16 17  1  0  0  0  0
 16 37  1  0  0  0  0
 16 38  1  0  0  0  0
 17 18  1  0  0  0  0
 17 39  1  0  0  0  0
 17 40  1  0  0  0  0
 18 19  1  0  0  0  0
 19 20  1  0  0  0  0
 19 41  1  0  0  0  0
 19 42  1  0  0  0  0
 20 43  1  0  0  0  0
 20 44  1  0  0  0  0
M  END
> <s_m_source_file>
AV-unprocessed.smi

> <i_m_source_file_index>
2363

> <i_lp_mmshare_version>
43012

> <i_f3d_flags>
0

> <s_epik_input>
W0NIM11bQ0gyXVtDSDJdbjFuW2NIXVtjSF1jMVtOSF1DKD1PKVtOSF1bQ0BIXShbQ0gzXSlbQ0hdMltDSDJdW0NIMl1PW0NIMl1bQ0gyXTI=

> <s_epik_cmdline>
J2VwaWtfcHl0aG9uJywgJy1waCcsICc3LjAnLCAnLXRuJywgJzgnLCAnLW1hJywgJzIwMCcsICctbWV0YWxfYmluZGluZycsICctaW1hZScsICc8aW5maWxlLm1hZT4nLCAnLW9tYWUnLCAnPG91dGZpbGUubWFlPic=

> <r_lp_tautomer_probability>
1

> <r_epik_Ionization_Penalty>
3.26671e-05

> <r_epik_Ionization_Penalty_Charging>
0

> <r_epik_Ionization_Penalty_Neutral>
3.26671e-05

> <r_epik_State_Penalty>
-0

> <r_epik_Charging_Adjusted_Penalty>
0

> <i_epik_Tot_Q>
0

> <i_epik_Tot_abs_Q>
0

> <r_epik_Metal_State_Penalty>
-0

> <b_epik_Metal_Only>
0

> <s_lp_Force_Field>
OPLS_2005

> <r_lp_Energy>
15.2221

> <b_lp_Chiralities_Consistent>
1

> <s_lp_Variant>
AV-unprocessed.smi:2363-2

> <Gold.Version>
5.8.1

> <Gold.Id.Protein>
6NUR|6NUR_protein|mol2

> <Gold.PLP.Fitness>
44.7671

> <Gold.PLP.PLP>
-36.2968

> <Gold.PLP.part.hbond>
-5.9815

> <Gold.PLP.part.metal>
0.0000

> <Gold.PLP.part.buried>
2.1971

> <Gold.PLP.part.nonpolar>
-31.5576

> <Gold.PLP.part.repulsive>
0.4186

> <Gold.PLP.ligand.clash>
0.0000

> <Gold.PLP.ligand.torsion>
0.2734

> <Gold.PLP.Chemscore.Hbond>
2.9848

> <Gold.PLP.Chemscore.CHOScore>
0.0000

> <Gold.PLP.Chemscore.Metal>
0.0000

> <Gold.Chemscore.Hbonds>
donor molecule, donor type, donor heavy atom, donor atom, acceptor molecule, acceptor atom, score
      L1  H     9    30       P1  7948  0.40
      L1  H    12    31       P1  7948  1.00
      P1  H 10752 10764       L1    11  0.85

> <Gold.PLP.Chemscore.Internal.Correction>
0.0628

> <Gold.Rescore>
     Score         DG    S(hbond)    S(metal)    S(lipo)     H(rot)  DE(clash)    DE(int)     intcor
     11.89     -14.99       1.48        0.00      72.30       1.52       1.54       1.56       ----

> <Gold.Chemscore.Fitness>
11.8944

> <Gold.Chemscore.DG>
-14.9851

> <Gold.Chemscore.ZeroCoef>
-5.4800

> <Gold.Chemscore.Hbond>
1.4763

> <Gold.Chemscore.Metal>
0.0000

> <Gold.Chemscore.Lipo>
72.3033

> <Gold.Chemscore.Internal_Hbond>
0.0000

> <Gold.Chemscore.DEClash>
1.5356

> <Gold.Chemscore.DEInternal>
1.5551

> <Gold.Chemscore.Rot>
1.5176

> <Gold.Chemscore.Internal.Correction>
   9.000000E+99

> <Gold.Chemscore.Hbonds>
donor molecule, donor type, donor heavy atom, donor atom, acceptor molecule, acceptor atom, score
      L1  H     9    30       P1  7948  0.01
      L1  H    12    31       P1  7948  0.28
      P1  H 10752 10764       L1    11  0.34

> <Gold.Chemscore.Hbond.Weighted>
-4.9307

> <Gold.Chemscore.Metal.Weighted>
-0.0000

> <Gold.Chemscore.Lipo.Weighted>
-8.4595

> <Gold.Chemscore.Internal_Hbond.Weighted>
0.0000

> <Gold.Chemscore.DEClash.Weighted>
1.5356

> <Gold.Chemscore.DEInternal.Weighted>
1.5551

> <Gold.Chemscore.Rot.Weighted>
3.8851

> <Gold.Chemscore.Internal.Correction.Weighted>
   9.000000E+99

> <Gold.Protein.RotatedTorsions>
[ 6907 6896 6895 6894 ] final  -42.17 input  -60.11 | X-H torsion
[ 7974 7965 7964 7962 ] final  159.00 input  175.53 | X-H torsion
[ 8008 7997 7996 7995 ] final  -99.76 input   59.86 | X-H torsion
[ 10167 10162 10161 10158 ] final  -83.06 input  -65.29 | X-H torsion
[ 10718 10713 10712 10709 ] final  -14.38 input   66.30 | X-H torsion
[ 10763 10752 10751 10750 ] final  -31.11 input  -60.55 | X-H torsion
[ 11005 11000 10999 10996 ] final -144.25 input  -57.11 | X-H torsion

> <Gold.Protein.ActiveResidues>
 VAL166  LYS551  ARG553  GLY616  TRP617  ASP618  TYR619  PRO620  LYS621  CYS622 
 ASP623  PHE694  ASN695  SER759  ASP760  ASP761  ALA762  ILE779  LEU786  VAL792 
 PHE793  MET794  SER795  GLU796  ALA797  LYS798  CYS799  TRP800  GLU811  SER814 

> <Gold.Protein.RotatedAtoms>
  150.9583  134.8975  159.7714 H   0  0  0  0  0  0  0  0  0  0  0  0  # atno 6907 bound_to 6896
  152.5146  134.3708  159.9327 H   0  0  0  0  0  0  0  0  0  0  0  0  # atno 6908 bound_to 6896
  151.3721  133.3810  159.2735 H   0  0  0  0  0  0  0  0  0  0  0  0  # atno 6909 bound_to 6896
  144.7814  139.7556  143.6258 H   0  0  0  0  0  0  0  0  0  0  0  0  # atno 7974 bound_to 7965
  154.8193  140.0445  157.1399 H   0  0  0  0  0  0  0  0  0  0  0  0  # atno 8008 bound_to 7997
  154.9278  140.3035  155.5163 H   0  0  0  0  0  0  0  0  0  0  0  0  # atno 8009 bound_to 7997
  156.2979  140.2328  156.4335 H   0  0  0  0  0  0  0  0  0  0  0  0  # atno 8010 bound_to 7997
  140.4262  143.2566  151.8823 H   0  0  0  0  0  0  0  0  0  0  0  0  # atno 10167 bound_to 10162
  156.6168  130.4864  149.6180 H   0  0  0  0  0  0  0  0  0  0  0  0  # atno 10718 bound_to 10713
  153.7919  135.6897  153.4870 H   0  0  0  0  0  0  0  0  0  0  0  0  # atno 10763 bound_to 10752
  153.1744  135.4530  154.9944 H   0  0  0  0  0  0  0  0  0  0  0  0  # atno 10764 bound_to 10752
  154.8041  135.3349  154.7415 H   0  0  0  0  0  0  0  0  0  0  0  0  # atno 10765 bound_to 10752
  140.8043  134.2819  157.4966 H   0  0  0  0  0  0  0  0  0  0  0  0  # atno 11005 bound_to 11000
  146.2024  139.5328  142.9734 LP  0  0  0  0  0  0  0  0  0  0  0  0  # atno 17320 bound_to 7965
  145.6039  141.0351  143.2003 LP  0  0  0  0  0  0  0  0  0  0  0  0  # atno 17321 bound_to 7965
  139.4783  144.5385  151.8563 LP  0  0  0  0  0  0  0  0  0  0  0  0  # atno 17342 bound_to 10162
  140.4479  144.1896  150.5895 LP  0  0  0  0  0  0  0  0  0  0  0  0  # atno 17343 bound_to 10162
  156.2344  130.6814  151.1495 LP  0  0  0  0  0  0  0  0  0  0  0  0  # atno 17370 bound_to 10713
  157.7239  131.0663  150.6019 LP  0  0  0  0  0  0  0  0  0  0  0  0  # atno 17371 bound_to 10713
  139.8719  134.9447  156.3890 LP  0  0  0  0  0  0  0  0  0  0  0  0  # atno 17394 bound_to 11000
  140.9262  133.7610  155.9968 LP  0  0  0  0  0  0  0  0  0  0  0  0  # atno 17395 bound_to 11000

$$$$
