AV-unprocessed.smi:1|AV-procd|sdf|4|dock4
  -GOLD-   2262015 83D 1   1.00000     0.00000
 Structure written by MMmdl.
 57 62  0  0  0  0  0  0  0  0  1 V2000
  153.0117  140.6698  158.7573 O   0  0  0  0  0  0  0  0  0  0  0  0
  152.2665  141.5095  158.2513 C   0  0  0  0  0  0  0  0  0  0  0  0
  151.3807  141.1911  157.1454 N   0  0  0  0  0  0  0  0  0  0  0  0
  151.2602  140.0188  156.4795 C   0  0  0  0  0  0  0  0  0  0  0  0
  151.5591  139.8945  155.1596 N   0  0  0  0  0  0  0  0  0  0  0  0
  151.4315  138.7127  154.5499 C   0  0  0  0  0  0  0  0  0  0  0  0
  151.0315  137.5483  155.0645 N   0  0  0  0  0  0  0  0  0  0  0  0
  150.7254  137.6633  156.3888 C   0  0  0  0  0  0  0  0  0  0  0  0
  150.8115  138.8567  157.1596 C   0  0  0  0  0  0  0  0  0  0  0  0
  150.4196  138.6016  158.4667 N   0  0  0  0  0  0  0  0  0  0  0  0
  150.1216  137.3303  158.4644 C   0  0  0  0  0  0  0  0  0  0  0  0
  150.2868  136.6847  157.2589 N   0  0  0  0  0  0  0  0  0  0  0  0
  150.0244  135.2432  156.9620 C   0  0  1  0  0  0  0  0  0  0  0  0
  148.6925  135.0879  156.5702 O   0  0  0  0  0  0  0  0  0  0  0  0
  148.6136  134.6004  155.2331 C   0  0  2  0  0  0  0  0  0  0  0  0
  147.3747  133.7181  155.0417 C   0  0  0  0  0  0  0  0  0  0  0  0
  147.1361  133.5508  153.6542 O   0  0  0  0  0  0  0  0  0  0  0  0
  146.1370  134.2263  153.0553 C   0  0  0  0  0  0  0  0  0  0  0  0
  145.6511  135.2664  153.5049 O   0  0  0  0  0  0  0  0  0  0  0  0
  145.6781  133.5822  151.7908 C   0  0  0  0  0  0  0  0  0  0  0  0
  146.3093  132.3959  151.3489 C   0  0  0  0  0  0  0  0  0  0  0  0
  145.8987  131.7654  150.1582 C   0  0  0  0  0  0  0  0  0  0  0  0
  144.8516  132.3136  149.3949 C   0  0  0  0  0  0  0  0  0  0  0  0
  144.2154  133.4932  149.8235 C   0  0  0  0  0  0  0  0  0  0  0  0
  144.6244  134.1253  151.0141 C   0  0  0  0  0  0  0  0  0  0  0  0
  149.9425  133.8788  155.0162 C   0  0  2  0  0  0  0  0  0  0  0  0
  149.9179  132.5721  155.5677 O   0  0  0  0  0  0  0  0  0  0  0  0
  151.3574  132.3139  156.3750 S   0  0  0  0  0  0  0  0  0  0  0  0
  151.0459  131.9696  157.7706 O   0  0  0  0  0  0  0  0  0  0  0  0
  152.2211  131.4801  155.5257 O   0  0  0  0  0  0  0  0  0  0  0  0
  151.9418  133.8793  156.3375 O   0  0  0  0  0  0  0  0  0  0  0  0
  150.9243  134.7245  155.8305 C   0  0  2  0  0  0  0  0  0  0  0  0
  152.1622  142.9039  158.7973 C   0  0  0  0  0  0  0  0  0  0  0  0
  151.8864  143.9841  157.9291 C   0  0  0  0  0  0  0  0  0  0  0  0
  151.7745  145.2943  158.4339 C   0  0  0  0  0  0  0  0  0  0  0  0
  151.9296  145.5345  159.8122 C   0  0  0  0  0  0  0  0  0  0  0  0
  152.1921  144.4627  160.6862 C   0  0  0  0  0  0  0  0  0  0  0  0
  152.3043  143.1520  160.1825 C   0  0  0  0  0  0  0  0  0  0  0  0
  150.7845  141.9415  156.8281 H   0  0  0  0  0  0  0  0  0  0  0  0
  151.6892  138.6975  153.5011 H   0  0  0  0  0  0  0  0  0  0  0  0
  149.7744  136.8231  159.3531 H   0  0  0  0  0  0  0  0  0  0  0  0
  150.1811  134.7292  157.9112 H   0  0  0  0  0  0  0  0  0  0  0  0
  148.5672  135.4481  154.5496 H   0  0  0  0  0  0  0  0  0  0  0  0
  147.5449  132.7383  155.4902 H   0  0  0  0  0  0  0  0  0  0  0  0
  146.5071  134.1614  155.5326 H   0  0  0  0  0  0  0  0  0  0  0  0
  147.1157  131.9565  151.9187 H   0  0  0  0  0  0  0  0  0  0  0  0
  146.3884  130.8603  149.8307 H   0  0  0  0  0  0  0  0  0  0  0  0
  144.5369  131.8301  148.4818 H   0  0  0  0  0  0  0  0  0  0  0  0
  143.4111  133.9150  149.2387 H   0  0  0  0  0  0  0  0  0  0  0  0
  144.1141  135.0289  151.3145 H   0  0  0  0  0  0  0  0  0  0  0  0
  150.2180  133.8169  153.9630 H   0  0  0  0  0  0  0  0  0  0  0  0
  151.3313  135.5447  155.2387 H   0  0  0  0  0  0  0  0  0  0  0  0
  151.7640  143.8164  156.8686 H   0  0  0  0  0  0  0  0  0  0  0  0
  151.5689  146.1152  157.7626 H   0  0  0  0  0  0  0  0  0  0  0  0
  151.8439  146.5391  160.1992 H   0  0  0  0  0  0  0  0  0  0  0  0
  152.3051  144.6453  161.7447 H   0  0  0  0  0  0  0  0  0  0  0  0
  152.4971  142.3432  160.8724 H   0  0  0  0  0  0  0  0  0  0  0  0
  1  2  2  0  0  0  0
  2  3  1  0  0  0  0
  2 33  1  0  0  0  0
  3  4  1  0  0  0  0
  3 39  1  0  0  0  0
  4  9  1  0  0  0  0
  4  5  2  0  0  0  0
  5  6  1  0  0  0  0
  6  7  2  0  0  0  0
  6 40  1  0  0  0  0
  7  8  1  0  0  0  0
  8 12  1  0  0  0  0
  8  9  2  0  0  0  0
  9 10  1  0  0  0  0
 10 11  2  0  0  0  0
 11 12  1  0  0  0  0
 11 41  1  0  0  0  0
 12 13  1  0  0  0  0
 13 32  1  0  0  0  0
 13 14  1  0  0  0  0
 13 42  1  0  0  0  0
 14 15  1  0  0  0  0
 15 16  1  0  0  0  0
 15 26  1  0  0  0  0
 15 43  1  0  0  0  0
 16 17  1  0  0  0  0
 16 44  1  0  0  0  0
 16 45  1  0  0  0  0
 17 18  1  0  0  0  0
 18 19  2  0  0  0  0
 18 20  1  0  0  0  0
 20 25  1  0  0  0  0
 20 21  2  0  0  0  0
 21 22  1  0  0  0  0
 21 46  1  0  0  0  0
 22 23  2  0  0  0  0
 22 47  1  0  0  0  0
 23 24  1  0  0  0  0
 23 48  1  0  0  0  0
 24 25  2  0  0  0  0
 24 49  1  0  0  0  0
 25 50  1  0  0  0  0
 26 32  1  0  0  0  0
 26 27  1  0  0  0  0
 26 51  1  0  0  0  0
 27 28  1  0  0  0  0
 28 29  2  0  0  0  0
 28 30  2  0  0  0  0
 28 31  1  0  0  0  0
 31 32  1  0  0  0  0
 32 52  1  0  0  0  0
 33 38  1  0  0  0  0
 33 34  2  0  0  0  0
 34 35  1  0  0  0  0
 34 53  1  0  0  0  0
 35 36  2  0  0  0  0
 35 54  1  0  0  0  0
 36 37  1  0  0  0  0
 36 55  1  0  0  0  0
 37 38  2  0  0  0  0
 37 56  1  0  0  0  0
 38 57  1  0  0  0  0
M  END
> <s_m_source_file>
AV-unprocessed.smi

> <i_m_source_file_index>
1

> <i_lp_mmshare_version>
43012

> <i_f3d_flags>
0

> <s_epik_input>
W2NIXTFbY0hdW2NIXVtjSF1bY0hdYzFDKD1PKVtOSF1jKG5bY0hdbjIpYyhjMjMpbltjSF1uM1tDQEBIXShbQ0BIXShbQ0BIXTQ1KU9TKE81KSg9Tyk9TylPW0NASF00W0NIMl1PQyg9TyljNltjSF1bY0hdW2NIXVtjSF1bY0hdNg==

> <s_epik_cmdline>
J2VwaWtfcHl0aG9uJywgJy1waCcsICc3LjAnLCAnLXRuJywgJzgnLCAnLW1hJywgJzIwMCcsICctbWV0YWxfYmluZGluZycsICctaW1hZScsICc8aW5maWxlLm1hZT4nLCAnLW9tYWUnLCAnPG91dGZpbGUubWFlPic=

> <r_lp_tautomer_probability>
1

> <r_epik_Ionization_Penalty>
0.00195722

> <r_epik_Ionization_Penalty_Charging>
0

> <r_epik_Ionization_Penalty_Neutral>
0.00195722

> <r_epik_State_Penalty>
0.00633741

> <r_epik_Charging_Adjusted_Penalty>
0.00633741

> <i_epik_Tot_Q>
0

> <i_epik_Tot_abs_Q>
0

> <r_epik_Metal_State_Penalty>
0.341185

> <b_epik_Metal_Only>
0

> <s_epik_Chemistry_Notes>
This compound has an ester and may undergo hydrolysis at high or low pH. This compound contains an acetal/aminal-like group ( X-CH(R)-Y where X, Y are N, S, or O) that may be acid/base labile, releasing an aldehyde.

> <s_lp_Force_Field>
OPLS_2005

> <r_lp_Energy>
46.3459

> <b_lp_Chiralities_Consistent>
1

> <s_lp_Variant>
AV-unprocessed.smi:1-4

> <Gold.Version>
5.8.1

> <Gold.Id.Protein>
6NUR|6NUR_protein|mol2

> <Gold.PLP.Fitness>
59.2395

> <Gold.PLP.PLP>
-59.2193

> <Gold.PLP.part.hbond>
-2.0268

> <Gold.PLP.part.metal>
0.0000

> <Gold.PLP.part.buried>
-8.8415

> <Gold.PLP.part.nonpolar>
-47.8432

> <Gold.PLP.part.repulsive>
0.3430

> <Gold.PLP.ligand.clash>
0.0000

> <Gold.PLP.ligand.torsion>
2.5865

> <Gold.PLP.Chemscore.Hbond>
1.6598

> <Gold.PLP.Chemscore.CHOScore>
0.0000

> <Gold.PLP.Chemscore.Metal>
0.0000

> <Gold.Chemscore.Hbonds>
donor molecule, donor type, donor heavy atom, donor atom, acceptor molecule, acceptor atom, score
      P1  H  6896  6908       L1    29  0.98
      P1  H  7989  7998       L1     5  0.65

> <Gold.PLP.Chemscore.Internal.Correction>
0.2140

> <Gold.Rescore>
     Score         DG    S(hbond)    S(metal)    S(lipo)     H(rot)  DE(clash)    DE(int)     intcor
     16.80     -20.81       1.24        0.00     142.40       2.13       0.15       3.86       ----

> <Gold.Chemscore.Fitness>
16.7981

> <Gold.Chemscore.DG>
-20.8125

> <Gold.Chemscore.ZeroCoef>
-5.4800

> <Gold.Chemscore.Hbond>
1.2376

> <Gold.Chemscore.Metal>
0.0000

> <Gold.Chemscore.Lipo>
142.3970

> <Gold.Chemscore.Internal_Hbond>
0.0000

> <Gold.Chemscore.DEClash>
0.1510

> <Gold.Chemscore.DEInternal>
3.8635

> <Gold.Chemscore.Rot>
2.1333

> <Gold.Chemscore.Internal.Correction>
   9.000000E+99

> <Gold.Chemscore.Hbonds>
donor molecule, donor type, donor heavy atom, donor atom, acceptor molecule, acceptor atom, score
      P1  H  6896  6908       L1    29  0.88
      P1  H  7989  7998       L1     5  0.05
      P1  H  7997  8010       L1     1  0.02

> <Gold.Chemscore.Hbond.Weighted>
-4.1334

> <Gold.Chemscore.Metal.Weighted>
-0.0000

> <Gold.Chemscore.Lipo.Weighted>
-16.6604

> <Gold.Chemscore.Internal_Hbond.Weighted>
0.0000

> <Gold.Chemscore.DEClash.Weighted>
0.1510

> <Gold.Chemscore.DEInternal.Weighted>
3.8635

> <Gold.Chemscore.Rot.Weighted>
5.4614

> <Gold.Chemscore.Internal.Correction.Weighted>
   9.000000E+99

> <Gold.Protein.RotatedTorsions>
[ 6907 6896 6895 6894 ] final   67.15 input  -60.11 | X-H torsion
[ 7974 7965 7964 7962 ] final  -40.73 input  175.53 | X-H torsion
[ 8008 7997 7996 7995 ] final   41.71 input   59.86 | X-H torsion
[ 10167 10162 10161 10158 ] final -161.01 input  -65.29 | X-H torsion
[ 10718 10713 10712 10709 ] final  -92.44 input   66.30 | X-H torsion
[ 10763 10752 10751 10750 ] final  -51.03 input  -60.55 | X-H torsion
[ 11005 11000 10999 10996 ] final   67.68 input  -57.11 | X-H torsion

> <Gold.Protein.ActiveResidues>
 VAL166  LYS551  ARG553  GLY616  TRP617  ASP618  TYR619  PRO620  LYS621  CYS622 
 ASP623  PHE694  ASN695  SER759  ASP760  ASP761  ALA762  ILE779  LEU786  VAL792 
 PHE793  MET794  SER795  GLU796  ALA797  LYS798  CYS799  TRP800  GLU811  SER814 

> <Gold.Protein.RotatedAtoms>
  152.4531  134.5350  159.9821 H   0  0  0  0  0  0  0  0  0  0  0  0  # atno 6907 bound_to 6896
  151.5417  133.3426  159.2944 H   0  0  0  0  0  0  0  0  0  0  0  0  # atno 6908 bound_to 6896
  150.8467  134.7809  159.7039 H   0  0  0  0  0  0  0  0  0  0  0  0  # atno 6909 bound_to 6896
  146.0277  140.6771  142.9147 H   0  0  0  0  0  0  0  0  0  0  0  0  # atno 7974 bound_to 7965
  155.2741  140.3368  155.4263 H   0  0  0  0  0  0  0  0  0  0  0  0  # atno 8008 bound_to 7997
  156.2120  140.1773  156.7716 H   0  0  0  0  0  0  0  0  0  0  0  0  # atno 8009 bound_to 7997
  154.5699  140.0672  156.8933 H   0  0  0  0  0  0  0  0  0  0  0  0  # atno 8010 bound_to 7997
  139.6496  144.0108  152.2152 H   0  0  0  0  0  0  0  0  0  0  0  0  # atno 10167 bound_to 10162
  156.0002  130.4987  150.5626 H   0  0  0  0  0  0  0  0  0  0  0  0  # atno 10718 bound_to 10713
  154.1199  135.6536  153.4901 H   0  0  0  0  0  0  0  0  0  0  0  0  # atno 10763 bound_to 10752
  153.0229  135.5268  154.7107 H   0  0  0  0  0  0  0  0  0  0  0  0  # atno 10764 bound_to 10752
  154.6312  135.2976  155.0185 H   0  0  0  0  0  0  0  0  0  0  0  0  # atno 10765 bound_to 10752
  139.9756  134.6827  156.0360 H   0  0  0  0  0  0  0  0  0  0  0  0  # atno 11005 bound_to 11000
  144.7017  140.3680  143.7151 LP  0  0  0  0  0  0  0  0  0  0  0  0  # atno 17320 bound_to 7965
  145.7091  139.1680  143.2549 LP  0  0  0  0  0  0  0  0  0  0  0  0  # atno 17321 bound_to 7965
  139.9819  144.6422  150.7893 LP  0  0  0  0  0  0  0  0  0  0  0  0  # atno 17342 bound_to 10162
  140.7531  143.3003  151.3098 LP  0  0  0  0  0  0  0  0  0  0  0  0  # atno 17343 bound_to 10162
  157.3533  131.0737  151.1696 LP  0  0  0  0  0  0  0  0  0  0  0  0  # atno 17370 bound_to 10713
  157.2505  130.6612  149.5929 LP  0  0  0  0  0  0  0  0  0  0  0  0  # atno 17371 bound_to 10713
  141.1433  133.6560  156.3794 LP  0  0  0  0  0  0  0  0  0  0  0  0  # atno 17394 bound_to 11000
  140.5201  134.6312  157.5315 LP  0  0  0  0  0  0  0  0  0  0  0  0  # atno 17395 bound_to 11000

$$$$
