AV-unprocessed.smi:3333|AV-procd|sdf|12831|dock3
  -GOLD-   2272019213D 1   1.00000     0.00000
 Structure written by MMmdl.
 41 43  0  0  0  0  0  0  0  0  1 V2000
  155.5508  139.6355  166.4756 C   0  0  0  0  0  0  0  0  0  0  0  0
  154.8632  138.3487  166.0073 C   0  0  0  0  0  0  0  0  0  0  0  0
  154.9092  138.1815  164.5253 C   0  0  0  0  0  0  0  0  0  0  0  0
  155.5292  139.0354  163.7069 N   0  0  0  0  0  0  0  0  0  0  0  0
  155.4067  138.6788  162.3599 C   0  0  0  0  0  0  0  0  0  0  0  0
  156.0516  139.5252  161.2991 C   0  0  0  0  0  0  0  0  0  0  0  0
  155.0270  139.9630  160.2479 C   0  0  0  0  0  0  0  0  0  0  0  0
  155.1103  139.5546  159.0890 O   0  0  0  0  0  0  0  0  0  0  0  0
  154.0667  140.8037  160.6638 N   0  0  0  0  0  0  0  0  0  0  0  0
  153.0080  141.3502  159.8213 C   0  0  0  0  0  0  0  0  0  0  0  0
  152.9233  142.8880  159.9224 C   0  0  2  0  0  0  0  0  0  0  0  0
  152.1612  143.3938  161.1697 C   0  0  0  0  0  0  0  0  0  0  0  0
  151.0829  144.3135  160.5685 C   0  0  1  0  0  0  0  0  0  0  0  0
  151.7466  145.5765  159.9882 C   0  0  0  0  0  0  0  0  0  0  0  0
  152.4441  145.0419  158.7229 C   0  0  0  0  0  0  0  0  0  0  0  0
  152.1230  143.5358  158.7697 C   0  0  2  0  0  0  0  0  0  0  0  0
  150.6956  143.5500  159.3087 C   0  0  0  0  0  0  0  0  0  0  0  0
  154.6583  137.5431  162.1690 C   0  0  0  0  0  0  0  0  0  0  0  0
  154.0910  136.8764  163.6750 S   0  0  0  0  0  0  0  0  0  0  0  0
  155.4993  139.7310  167.5601 H   0  0  0  0  0  0  0  0  0  0  0  0
  155.0766  140.5153  166.0400 H   0  0  0  0  0  0  0  0  0  0  0  0
  156.6031  139.6455  166.1895 H   0  0  0  0  0  0  0  0  0  0  0  0
  155.3339  137.4832  166.4752 H   0  0  0  0  0  0  0  0  0  0  0  0
  153.8207  138.3479  166.3263 H   0  0  0  0  0  0  0  0  0  0  0  0
  156.5210  140.4000  161.7514 H   0  0  0  0  0  0  0  0  0  0  0  0
  156.8475  138.9767  160.7940 H   0  0  0  0  0  0  0  0  0  0  0  0
  154.0733  141.0909  161.6317 H   0  0  0  0  0  0  0  0  0  0  0  0
  153.1711  141.0489  158.7852 H   0  0  0  0  0  0  0  0  0  0  0  0
  152.0657  140.8949  160.1267 H   0  0  0  0  0  0  0  0  0  0  0  0
  153.9388  143.2868  159.9219 H   0  0  0  0  0  0  0  0  0  0  0  0
  151.6918  142.5710  161.7108 H   0  0  0  0  0  0  0  0  0  0  0  0
  152.8130  143.9188  161.8688 H   0  0  0  0  0  0  0  0  0  0  0  0
  150.2593  144.5258  161.2507 H   0  0  0  0  0  0  0  0  0  0  0  0
  150.9987  146.3259  159.7262 H   0  0  0  0  0  0  0  0  0  0  0  0
  152.4475  146.0322  160.6885 H   0  0  0  0  0  0  0  0  0  0  0  0
  152.0184  145.5000  157.8292 H   0  0  0  0  0  0  0  0  0  0  0  0
  153.5162  145.2421  158.7202 H   0  0  0  0  0  0  0  0  0  0  0  0
  152.2489  143.0381  157.8076 H   0  0  0  0  0  0  0  0  0  0  0  0
  150.2924  142.5567  159.5106 H   0  0  0  0  0  0  0  0  0  0  0  0
  149.9974  144.0945  158.6703 H   0  0  0  0  0  0  0  0  0  0  0  0
  154.4091  137.0593  161.2363 H   0  0  0  0  0  0  0  0  0  0  0  0
  1  2  1  0  0  0  0
  1 20  1  0  0  0  0
  1 21  1  0  0  0  0
  1 22  1  0  0  0  0
  2  3  1  0  0  0  0
  2 23  1  0  0  0  0
  2 24  1  0  0  0  0
  3 19  1  0  0  0  0
  3  4  2  0  0  0  0
  4  5  1  0  0  0  0
  5  6  1  0  0  0  0
  5 18  2  0  0  0  0
  6  7  1  0  0  0  0
  6 25  1  0  0  0  0
  6 26  1  0  0  0  0
  7  8  2  0  0  0  0
  7  9  1  0  0  0  0
  9 10  1  0  0  0  0
  9 27  1  0  0  0  0
 10 11  1  0  0  0  0
 10 28  1  0  0  0  0
 10 29  1  0  0  0  0
 11 16  1  0  0  0  0
 11 12  1  0  0  0  0
 11 30  1  0  0  0  0
 12 13  1  0  0  0  0
 12 31  1  0  0  0  0
 12 32  1  0  0  0  0
 13 17  1  0  0  0  0
 13 14  1  0  0  0  0
 13 33  1  0  0  0  0
 14 15  1  0  0  0  0
 14 34  1  0  0  0  0
 14 35  1  0  0  0  0
 15 16  1  0  0  0  0
 15 36  1  0  0  0  0
 15 37  1  0  0  0  0
 16 17  1  0  0  0  0
 16 38  1  0  0  0  0
 17 39  1  0  0  0  0
 17 40  1  0  0  0  0
 18 19  1  0  0  0  0
 18 41  1  0  0  0  0
M  END
> <s_m_source_file>
AV-unprocessed.smi

> <i_m_source_file_index>
3333

> <i_lp_mmshare_version>
43012

> <i_f3d_flags>
0

> <s_epik_input>
W0NIM11bQ0gyXWMxbmMoW2NIXXMxKVtDSDJdQyg9TylbTkhdW0NIMl1bQ0BIXShbQ0gyXVtDQEBIXTIzKVtDQEBIXShbQ0gyXTMpW0NIMl1bQ0gyXTI=

> <s_epik_cmdline>
J2VwaWtfcHl0aG9uJywgJy1waCcsICc3LjAnLCAnLXRuJywgJzgnLCAnLW1hJywgJzIwMCcsICctbWV0YWxfYmluZGluZycsICctaW1hZScsICc8aW5maWxlLm1hZT4nLCAnLW9tYWUnLCAnPG91dGZpbGUubWFlPic=

> <r_lp_tautomer_probability>
1

> <r_epik_Ionization_Penalty>
6.68371e-05

> <r_epik_Ionization_Penalty_Charging>
0

> <r_epik_Ionization_Penalty_Neutral>
6.68371e-05

> <r_epik_State_Penalty>
-0

> <r_epik_Charging_Adjusted_Penalty>
0

> <i_epik_Tot_Q>
0

> <i_epik_Tot_abs_Q>
0

> <r_epik_Metal_State_Penalty>
-0

> <b_epik_Metal_Only>
0

> <s_lp_Force_Field>
OPLS_2005

> <r_lp_Energy>
44.1536

> <b_lp_Chiralities_Consistent>
1

> <s_lp_Variant>
AV-unprocessed.smi:3333-1

> <Gold.Version>
5.8.1

> <Gold.Id.Protein>
6NUR|6NUR_protein|mol2

> <Gold.PLP.Fitness>
48.5803

> <Gold.PLP.PLP>
-46.1261

> <Gold.PLP.part.hbond>
-1.0000

> <Gold.PLP.part.metal>
0.0000

> <Gold.PLP.part.buried>
-5.8227

> <Gold.PLP.part.nonpolar>
-38.8006

> <Gold.PLP.part.repulsive>
0.0355

> <Gold.PLP.ligand.clash>
0.0000

> <Gold.PLP.ligand.torsion>
0.2899

> <Gold.PLP.Chemscore.Hbond>
1.0000

> <Gold.PLP.Chemscore.CHOScore>
0.0000

> <Gold.PLP.Chemscore.Metal>
0.0000

> <Gold.Chemscore.Hbonds>
donor molecule, donor type, donor heavy atom, donor atom, acceptor molecule, acceptor atom, score
      P1  H  7997  8008       L1     8  1.00

> <Gold.PLP.Chemscore.Internal.Correction>
0.0340

> <Gold.Rescore>
     Score         DG    S(hbond)    S(metal)    S(lipo)     H(rot)  DE(clash)    DE(int)     intcor
     20.62     -20.81       1.00        0.00     133.69       1.42       0.09       0.10       ----

> <Gold.Chemscore.Fitness>
20.6230

> <Gold.Chemscore.DG>
-20.8116

> <Gold.Chemscore.ZeroCoef>
-5.4800

> <Gold.Chemscore.Hbond>
0.9978

> <Gold.Chemscore.Metal>
0.0000

> <Gold.Chemscore.Lipo>
133.6854

> <Gold.Chemscore.Internal_Hbond>
0.0000

> <Gold.Chemscore.DEClash>
0.0910

> <Gold.Chemscore.DEInternal>
0.0976

> <Gold.Chemscore.Rot>
1.4227

> <Gold.Chemscore.Internal.Correction>
   9.000000E+99

> <Gold.Chemscore.Hbonds>
donor molecule, donor type, donor heavy atom, donor atom, acceptor molecule, acceptor atom, score
      P1  H  7997  8008       L1     8  1.00

> <Gold.Chemscore.Hbond.Weighted>
-3.3325

> <Gold.Chemscore.Metal.Weighted>
-0.0000

> <Gold.Chemscore.Lipo.Weighted>
-15.6412

> <Gold.Chemscore.Internal_Hbond.Weighted>
0.0000

> <Gold.Chemscore.DEClash.Weighted>
0.0910

> <Gold.Chemscore.DEInternal.Weighted>
0.0976

> <Gold.Chemscore.Rot.Weighted>
3.6421

> <Gold.Chemscore.Internal.Correction.Weighted>
   9.000000E+99

> <Gold.Protein.RotatedTorsions>
[ 6907 6896 6895 6894 ] final  179.35 input  -60.11 | X-H torsion
[ 7974 7965 7964 7962 ] final -111.29 input  175.53 | X-H torsion
[ 8008 7997 7996 7995 ] final -135.56 input   59.86 | X-H torsion
[ 10167 10162 10161 10158 ] final  -34.19 input  -65.29 | X-H torsion
[ 10718 10713 10712 10709 ] final -139.63 input   66.30 | X-H torsion
[ 10763 10752 10751 10750 ] final   52.89 input  -60.55 | X-H torsion
[ 11005 11000 10999 10996 ] final   15.07 input  -57.11 | X-H torsion

> <Gold.Protein.ActiveResidues>
 VAL166  LYS551  ARG553  GLY616  TRP617  ASP618  TYR619  PRO620  LYS621  CYS622 
 ASP623  PHE694  ASN695  SER759  ASP760  ASP761  ALA762  ILE779  LEU786  VAL792 
 PHE793  MET794  SER795  GLU796  ALA797  LYS798  CYS799  TRP800  GLU811  SER814 

> <Gold.Protein.RotatedAtoms>
  151.6731  133.3313  159.3200 H   0  0  0  0  0  0  0  0  0  0  0  0  # atno 6907 bound_to 6896
  150.7858  134.6845  159.6472 H   0  0  0  0  0  0  0  0  0  0  0  0  # atno 6908 bound_to 6896
  152.3927  134.6418  160.0153 H   0  0  0  0  0  0  0  0  0  0  0  0  # atno 6909 bound_to 6896
  145.1579  140.8863  143.3608 H   0  0  0  0  0  0  0  0  0  0  0  0  # atno 7974 bound_to 7965
  155.3806  140.0494  157.3043 H   0  0  0  0  0  0  0  0  0  0  0  0  # atno 8008 bound_to 7997
  154.5084  140.2183  155.9166 H   0  0  0  0  0  0  0  0  0  0  0  0  # atno 8009 bound_to 7997
  156.1554  140.3127  155.8722 H   0  0  0  0  0  0  0  0  0  0  0  0  # atno 8010 bound_to 7997
  140.7190  143.3565  151.2048 H   0  0  0  0  0  0  0  0  0  0  0  0  # atno 10167 bound_to 10162
  156.3130  130.7492  151.1572 H   0  0  0  0  0  0  0  0  0  0  0  0  # atno 10718 bound_to 10713
  152.9791  135.5797  154.4652 H   0  0  0  0  0  0  0  0  0  0  0  0  # atno 10763 bound_to 10752
  154.4222  135.2772  155.1970 H   0  0  0  0  0  0  0  0  0  0  0  0  # atno 10764 bound_to 10752
  154.3714  135.6167  153.5796 H   0  0  0  0  0  0  0  0  0  0  0  0  # atno 10765 bound_to 10752
  140.4624  134.1114  155.7718 H   0  0  0  0  0  0  0  0  0  0  0  0  # atno 11005 bound_to 11000
  145.0362  139.3299  143.6000 LP  0  0  0  0  0  0  0  0  0  0  0  0  # atno 17320 bound_to 7965
  146.3486  139.9718  142.8705 LP  0  0  0  0  0  0  0  0  0  0  0  0  # atno 17321 bound_to 7965
  139.7108  143.9380  152.2946 LP  0  0  0  0  0  0  0  0  0  0  0  0  # atno 17342 bound_to 10162
  139.9104  144.6860  150.8568 LP  0  0  0  0  0  0  0  0  0  0  0  0  # atno 17343 bound_to 10162
  157.7395  131.0528  150.5226 LP  0  0  0  0  0  0  0  0  0  0  0  0  # atno 17370 bound_to 10713
  156.5368  130.4198  149.6174 LP  0  0  0  0  0  0  0  0  0  0  0  0  # atno 17371 bound_to 10713
  141.1615  133.8784  157.1834 LP  0  0  0  0  0  0  0  0  0  0  0  0  # atno 17394 bound_to 11000
  139.9937  135.0055  157.0033 LP  0  0  0  0  0  0  0  0  0  0  0  0  # atno 17395 bound_to 11000

$$$$
