AV-unprocessed.smi:697|AV-procd|sdf|3396|dock8
  -GOLD-   22720 0373D 1   1.00000     0.00000
 Structure written by MMmdl.
 43 44  0  0  0  0  0  0  0  0  2 V2000
  158.7434  139.4195  168.2743 C   0  0  0  0  0  0  0  0  0  0  0  0
  157.4125  139.3218  167.7840 O   0  0  0  0  0  0  0  0  0  0  0  0
  156.8542  140.5122  167.2254 C   0  0  2  0  0  0  0  0  0  0  0  0
  156.8580  141.6367  168.2727 C   0  0  0  0  0  0  0  0  0  0  0  0
  155.5422  140.2371  166.4683 C   0  0  0  0  0  0  0  0  0  0  0  0
  156.0798  141.1604  165.3775 C   0  0  2  0  0  0  0  0  0  0  0  0
  155.7209  140.7138  164.0358 N   0  0  0  0  0  0  0  0  0  0  0  0
  154.9064  141.3812  163.2078 C   0  0  0  0  0  0  0  0  0  0  0  0
  154.3535  142.4365  163.5169 O   0  0  0  0  0  0  0  0  0  0  0  0
  154.7914  140.7380  162.0317 N   0  0  0  0  0  0  0  0  0  0  0  0
  154.0830  141.1007  160.8729 C   0  0  0  0  0  0  0  0  0  0  0  0
  153.5097  142.3169  160.6543 C   0  0  0  0  0  0  0  0  0  0  0  0
  152.8001  142.6351  159.4218 C   0  0  0  0  0  0  0  0  0  0  0  0
  152.0705  143.9457  159.1853 C   0  0  0  0  0  0  0  0  0  0  0  0
  152.1715  144.7500  160.2436 F   0  0  0  0  0  0  0  0  0  0  0  0
  152.5649  144.5827  158.1238 F   0  0  0  0  0  0  0  0  0  0  0  0
  150.7781  143.7110  158.9637 F   0  0  0  0  0  0  0  0  0  0  0  0
  152.7764  141.5717  158.5407 C   0  0  0  0  0  0  0  0  0  0  0  0
  153.3371  140.3492  158.6678 N   0  5  0  0  0  0  0  0  0  0  0  0
  154.0016  140.0636  159.8230 C   0  0  0  0  0  0  0  0  0  0  0  0
  154.5321  138.9673  160.0056 O   0  0  0  0  0  0  0  0  0  0  0  0
  157.5114  140.7751  165.8313 C   0  0  0  0  0  0  0  0  0  0  0  0
  158.5568  141.8931  165.7600 C   0  0  0  0  0  0  0  0  0  0  0  0
  158.1546  139.5538  165.1430 C   0  0  0  0  0  0  0  0  0  0  0  0
  159.0105  138.4851  168.7676 H   0  0  0  0  0  0  0  0  0  0  0  0
  158.8523  140.2205  169.0057 H   0  0  0  0  0  0  0  0  0  0  0  0
  159.4618  139.5773  167.4706 H   0  0  0  0  0  0  0  0  0  0  0  0
  156.5725  142.5954  167.8405 H   0  0  0  0  0  0  0  0  0  0  0  0
  157.8454  141.7604  168.7179 H   0  0  0  0  0  0  0  0  0  0  0  0
  156.1518  141.4427  169.0796 H   0  0  0  0  0  0  0  0  0  0  0  0
  155.4289  139.1993  166.1490 H   0  0  0  0  0  0  0  0  0  0  0  0
  154.6428  140.6019  166.9649 H   0  0  0  0  0  0  0  0  0  0  0  0
  155.8349  142.2063  165.5753 H   0  0  0  0  0  0  0  0  0  0  0  0
  156.1328  139.8510  163.7119 H   0  0  0  0  0  0  0  0  0  0  0  0
  155.2715  139.8528  161.9589 H   0  0  0  0  0  0  0  0  0  0  0  0
  153.5761  143.1040  161.3862 H   0  0  0  0  0  0  0  0  0  0  0  0
  152.2205  141.7250  157.5913 H   0  0  0  0  0  0  0  0  0  0  0  0
  158.9143  142.0437  164.7407 H   0  0  0  0  0  0  0  0  0  0  0  0
  159.4230  141.6693  166.3831 H   0  0  0  0  0  0  0  0  0  0  0  0
  158.1548  142.8497  166.0922 H   0  0  0  0  0  0  0  0  0  0  0  0
  158.4154  139.7667  164.1058 H   0  0  0  0  0  0  0  0  0  0  0  0
  157.4931  138.6876  165.1333 H   0  0  0  0  0  0  0  0  0  0  0  0
  159.0716  139.2493  165.6484 H   0  0  0  0  0  0  0  0  0  0  0  0
  1  2  1  0  0  0  0
  1 25  1  0  0  0  0
  1 26  1  0  0  0  0
  1 27  1  0  0  0  0
  2  3  1  0  0  0  0
  3 22  1  0  0  0  0
  3  4  1  0  0  0  0
  3  5  1  0  0  0  0
  4 28  1  0  0  0  0
  4 29  1  0  0  0  0
  4 30  1  0  0  0  0
  5  6  1  0  0  0  0
  5 31  1  0  0  0  0
  5 32  1  0  0  0  0
  6  7  1  0  0  0  0
  6 22  1  0  0  0  0
  6 33  1  0  0  0  0
  7  8  1  0  0  0  0
  7 34  1  0  0  0  0
  8  9  2  0  0  0  0
  8 10  1  0  0  0  0
 10 11  1  0  0  0  0
 10 35  1  0  0  0  0
 11 20  1  0  0  0  0
 11 12  2  0  0  0  0
 12 13  1  0  0  0  0
 12 36  1  0  0  0  0
 13 14  1  0  0  0  0
 13 18  2  0  0  0  0
 14 15  1  0  0  0  0
 14 16  1  0  0  0  0
 14 17  1  0  0  0  0
 18 19  1  0  0  0  0
 18 37  1  0  0  0  0
 19 20  1  0  0  0  0
 20 21  2  0  0  0  0
 22 23  1  0  0  0  0
 22 24  1  0  0  0  0
 23 38  1  0  0  0  0
 23 39  1  0  0  0  0
 23 40  1  0  0  0  0
 24 41  1  0  0  0  0
 24 42  1  0  0  0  0
 24 43  1  0  0  0  0
M  CHG  1  19  -1
M  END
> <s_m_source_file>
AV-unprocessed.smi

> <i_m_source_file_index>
697

> <i_lp_mmshare_version>
43012

> <i_f3d_flags>
0

> <s_epik_input>
W0NIM11PW0NAQF0xKFtDSDNdKVtDSDJdW0NASF0oQzEoW0NIM10pW0NIM10pW05IXUMoPU8pW05IXWMyW2NIXWMoQyhGKShGKUYpW2NIXVtuSF1jMj1P

> <s_epik_cmdline>
J2VwaWtfcHl0aG9uJywgJy1waCcsICc3LjAnLCAnLXRuJywgJzgnLCAnLW1hJywgJzIwMCcsICctbWV0YWxfYmluZGluZycsICctaW1hZScsICc8aW5maWxlLm1hZT4nLCAnLW9tYWUnLCAnPG91dGZpbGUubWFlPic=

> <r_lp_tautomer_probability>
1

> <r_epik_Ionization_Penalty>
3.20094

> <r_epik_Ionization_Penalty_Charging>
0.180017

> <r_epik_Ionization_Penalty_Neutral>
3.02092

> <r_epik_State_Penalty>
3.01726

> <r_epik_Charging_Adjusted_Penalty>
3.19727

> <i_epik_Tot_Q>
-1

> <i_epik_Tot_abs_Q>
1

> <r_epik_Metal_State_Penalty>
0.455096

> <b_epik_Metal_Only>
1

> <s_lp_Force_Field>
OPLS_2005

> <r_lp_Energy>
36.1222

> <b_lp_Chiralities_Consistent>
1

> <s_lp_Variant>
AV-unprocessed.smi:697-8

> <Gold.Version>
5.8.1

> <Gold.Id.Protein>
6NUR|6NUR_protein|mol2

> <Gold.PLP.Fitness>
43.8639

> <Gold.PLP.PLP>
-38.9400

> <Gold.PLP.part.hbond>
-4.0353

> <Gold.PLP.part.metal>
0.0000

> <Gold.PLP.part.buried>
-2.2744

> <Gold.PLP.part.nonpolar>
-31.2128

> <Gold.PLP.part.repulsive>
0.0488

> <Gold.PLP.ligand.clash>
0.0000

> <Gold.PLP.ligand.torsion>
0.3394

> <Gold.PLP.Chemscore.Hbond>
1.7280

> <Gold.PLP.Chemscore.CHOScore>
0.0000

> <Gold.PLP.Chemscore.Metal>
0.0000

> <Gold.Chemscore.Hbonds>
donor molecule, donor type, donor heavy atom, donor atom, acceptor molecule, acceptor atom, score
      P1  H  7997  8010       L1    19  1.57

> <Gold.PLP.Chemscore.Internal.Correction>
0.4188

> <Gold.Rescore>
     Score         DG    S(hbond)    S(metal)    S(lipo)     H(rot)  DE(clash)    DE(int)     intcor
      9.12     -10.84       0.05        0.00      72.79       1.30       0.32       1.40       ----

> <Gold.Chemscore.Fitness>
9.1166

> <Gold.Chemscore.DG>
-10.8390

> <Gold.Chemscore.ZeroCoef>
-5.4800

> <Gold.Chemscore.Hbond>
0.0490

> <Gold.Chemscore.Metal>
0.0000

> <Gold.Chemscore.Lipo>
72.7902

> <Gold.Chemscore.Internal_Hbond>
0.0000

> <Gold.Chemscore.DEClash>
0.3188

> <Gold.Chemscore.DEInternal>
1.4036

> <Gold.Chemscore.Rot>
1.2973

> <Gold.Chemscore.Internal.Correction>
   9.000000E+99

> <Gold.Chemscore.Hbonds>
donor molecule, donor type, donor heavy atom, donor atom, acceptor molecule, acceptor atom, score
      P1  H  7997  8010       L1    19  0.32

> <Gold.Chemscore.Hbond.Weighted>
-0.1636

> <Gold.Chemscore.Metal.Weighted>
-0.0000

> <Gold.Chemscore.Lipo.Weighted>
-8.5165

> <Gold.Chemscore.Internal_Hbond.Weighted>
0.0000

> <Gold.Chemscore.DEClash.Weighted>
0.3188

> <Gold.Chemscore.DEInternal.Weighted>
1.4036

> <Gold.Chemscore.Rot.Weighted>
3.3210

> <Gold.Chemscore.Internal.Correction.Weighted>
   9.000000E+99

> <Gold.Protein.RotatedTorsions>
[ 6907 6896 6895 6894 ] final  -97.95 input  -60.11 | X-H torsion
[ 7974 7965 7964 7962 ] final  112.30 input  175.53 | X-H torsion
[ 8008 7997 7996 7995 ] final   29.02 input   59.86 | X-H torsion
[ 10167 10162 10161 10158 ] final  -50.21 input  -65.29 | X-H torsion
[ 10718 10713 10712 10709 ] final    2.16 input   66.30 | X-H torsion
[ 10763 10752 10751 10750 ] final -129.91 input  -60.55 | X-H torsion
[ 11005 11000 10999 10996 ] final  124.62 input  -57.11 | X-H torsion

> <Gold.Protein.ActiveResidues>
 VAL166  LYS551  ARG553  GLY616  TRP617  ASP618  TYR619  PRO620  LYS621  CYS622 
 ASP623  PHE694  ASN695  SER759  ASP760  ASP761  ALA762  ILE779  LEU786  VAL792 
 PHE793  MET794  SER795  GLU796  ALA797  LYS798  CYS799  TRP800  GLU811  SER814 

> <Gold.Protein.RotatedAtoms>
  150.7031  134.1270  159.4055 H   0  0  0  0  0  0  0  0  0  0  0  0  # atno 6907 bound_to 6896
  151.9256  135.0277  160.0534 H   0  0  0  0  0  0  0  0  0  0  0  0  # atno 6908 bound_to 6896
  152.2219  133.4955  159.5204 H   0  0  0  0  0  0  0  0  0  0  0  0  # atno 6909 bound_to 6896
  145.2312  139.2818  143.4167 H   0  0  0  0  0  0  0  0  0  0  0  0  # atno 7974 bound_to 7965
  155.0679  140.3197  155.4639 H   0  0  0  0  0  0  0  0  0  0  0  0  # atno 8008 bound_to 7997
  156.2797  140.2117  156.5752 H   0  0  0  0  0  0  0  0  0  0  0  0  # atno 8009 bound_to 7997
  154.7078  140.0501  157.0508 H   0  0  0  0  0  0  0  0  0  0  0  0  # atno 8010 bound_to 7997
  140.6648  143.2666  151.4327 H   0  0  0  0  0  0  0  0  0  0  0  0  # atno 10167 bound_to 10162
  156.8589  130.5580  149.5664 H   0  0  0  0  0  0  0  0  0  0  0  0  # atno 10718 bound_to 10713
  154.8757  135.3880  154.3996 H   0  0  0  0  0  0  0  0  0  0  0  0  # atno 10763 bound_to 10752
  153.4722  135.7030  153.5992 H   0  0  0  0  0  0  0  0  0  0  0  0  # atno 10764 bound_to 10752
  153.4444  135.3848  155.2215 H   0  0  0  0  0  0  0  0  0  0  0  0  # atno 10765 bound_to 10752
  139.9367  134.9639  156.8436 H   0  0  0  0  0  0  0  0  0  0  0  0  # atno 11005 bound_to 11000
  146.3352  140.2648  142.8603 LP  0  0  0  0  0  0  0  0  0  0  0  0  # atno 17320 bound_to 7965
  144.9674  140.8335  143.5476 LP  0  0  0  0  0  0  0  0  0  0  0  0  # atno 17321 bound_to 7965
  139.5894  144.1533  152.2069 LP  0  0  0  0  0  0  0  0  0  0  0  0  # atno 17342 bound_to 10162
  140.0883  144.5642  150.7073 LP  0  0  0  0  0  0  0  0  0  0  0  0  # atno 17343 bound_to 10162
  156.0787  130.5803  150.9523 LP  0  0  0  0  0  0  0  0  0  0  0  0  # atno 17370 bound_to 10713
  157.6261  131.0925  150.8531 LP  0  0  0  0  0  0  0  0  0  0  0  0  # atno 17371 bound_to 10713
  140.6057  134.0130  155.7555 LP  0  0  0  0  0  0  0  0  0  0  0  0  # atno 17394 bound_to 11000
  141.0984  133.9807  157.3121 LP  0  0  0  0  0  0  0  0  0  0  0  0  # atno 17395 bound_to 11000

$$$$
