AV-unprocessed.smi:1896|AV-procd|sdf|7682|dock2
  -GOLD-   22720 9423D 1   1.00000     0.00000
 Structure written by MMmdl.
 47 48  0  0  0  0  0  0  0  0  2 V2000
  151.1171  144.6527  159.6848 C   0  0  0  0  0  0  0  0  0  0  0  0
  152.0390  143.8585  160.5657 C   0  0  0  0  0  0  0  0  0  0  0  0
  152.1798  144.2040  161.8345 N   0  0  0  0  0  0  0  0  0  0  0  0
  153.0619  143.3174  162.3374 N   0  0  0  0  0  0  0  0  0  0  0  0
  153.4466  143.4100  163.7325 C   0  0  0  0  0  0  0  0  0  0  0  0
  153.4790  142.4091  161.3842 C   0  0  0  0  0  0  0  0  0  0  0  0
  154.4602  141.3247  161.6940 C   0  0  0  0  0  0  0  0  0  0  0  0
  152.8378  142.7297  160.2172 C   0  0  0  0  0  0  0  0  0  0  0  0
  152.9445  142.0609  158.8705 C   0  0  0  0  0  0  0  0  0  0  0  0
  151.5776  141.5107  158.4647 C   0  0  0  0  0  0  0  0  0  0  0  0
  150.9738  140.7464  159.2171 O   0  0  0  0  0  0  0  0  0  0  0  0
  151.1029  141.9052  157.2722 N   0  0  0  0  0  0  0  0  0  0  0  0
  149.8484  141.4613  156.6700 C   0  0  0  0  0  0  0  0  0  0  0  0
  150.0349  140.8437  155.2595 C   0  0  2  0  0  0  0  0  0  0  0  0
  148.6792  140.6610  154.5394 C   0  0  0  0  0  0  0  0  0  0  0  0
  150.7735  139.5503  155.3542 N   0  3  0  0  0  0  0  0  0  0  0  0
  150.5951  138.6165  154.2202 C   0  0  0  0  0  0  0  0  0  0  0  0
  151.7769  137.6582  154.3069 C   0  0  0  0  0  0  0  0  0  0  0  0
  152.9169  138.5627  154.7589 C   0  0  0  0  0  0  0  0  0  0  0  0
  152.2377  139.6712  155.5749 C   0  0  0  0  0  0  0  0  0  0  0  0
  151.6830  145.2568  158.9758 H   0  0  0  0  0  0  0  0  0  0  0  0
  150.4848  145.3263  160.2644 H   0  0  0  0  0  0  0  0  0  0  0  0
  150.4604  143.9969  159.1134 H   0  0  0  0  0  0  0  0  0  0  0  0
  153.0597  142.5481  164.2762 H   0  0  0  0  0  0  0  0  0  0  0  0
  153.0483  144.3206  164.1821 H   0  0  0  0  0  0  0  0  0  0  0  0
  154.5335  143.4255  163.8153 H   0  0  0  0  0  0  0  0  0  0  0  0
  154.6532  140.7032  160.8199 H   0  0  0  0  0  0  0  0  0  0  0  0
  154.0857  140.6782  162.4876 H   0  0  0  0  0  0  0  0  0  0  0  0
  155.4121  141.7451  162.0189 H   0  0  0  0  0  0  0  0  0  0  0  0
  153.2881  142.7582  158.1056 H   0  0  0  0  0  0  0  0  0  0  0  0
  153.6728  141.2492  158.8812 H   0  0  0  0  0  0  0  0  0  0  0  0
  151.6723  142.5362  156.7264 H   0  0  0  0  0  0  0  0  0  0  0  0
  149.4273  140.7295  157.3586 H   0  0  0  0  0  0  0  0  0  0  0  0
  149.1267  142.2791  156.6289 H   0  0  0  0  0  0  0  0  0  0  0  0
  150.6390  141.5271  154.6602 H   0  0  0  0  0  0  0  0  0  0  0  0
  148.1452  141.6053  154.4399 H   0  0  0  0  0  0  0  0  0  0  0  0
  148.0329  139.9714  155.0831 H   0  0  0  0  0  0  0  0  0  0  0  0
  148.7982  140.2805  153.5254 H   0  0  0  0  0  0  0  0  0  0  0  0
  149.6415  138.0900  154.2693 H   0  0  0  0  0  0  0  0  0  0  0  0
  150.6360  139.1665  153.2782 H   0  0  0  0  0  0  0  0  0  0  0  0
  151.5832  136.8972  155.0642 H   0  0  0  0  0  0  0  0  0  0  0  0
  151.9837  137.1515  153.3637 H   0  0  0  0  0  0  0  0  0  0  0  0
  153.6743  138.0245  155.3298 H   0  0  0  0  0  0  0  0  0  0  0  0
  153.4073  138.9975  153.8868 H   0  0  0  0  0  0  0  0  0  0  0  0
  152.6167  140.6432  155.2550 H   0  0  0  0  0  0  0  0  0  0  0  0
  152.4488  139.5659  156.6396 H   0  0  0  0  0  0  0  0  0  0  0  0
  150.4116  139.0653  156.1631 H   0  0  0  0  0  0  0  0  0  0  0  0
  1  2  1  0  0  0  0
  1 21  1  0  0  0  0
  1 22  1  0  0  0  0
  1 23  1  0  0  0  0
  2  8  1  0  0  0  0
  2  3  2  0  0  0  0
  3  4  1  0  0  0  0
  4  5  1  0  0  0  0
  4  6  1  0  0  0  0
  5 24  1  0  0  0  0
  5 25  1  0  0  0  0
  5 26  1  0  0  0  0
  6  7  1  0  0  0  0
  6  8  2  0  0  0  0
  7 27  1  0  0  0  0
  7 28  1  0  0  0  0
  7 29  1  0  0  0  0
  8  9  1  0  0  0  0
  9 10  1  0  0  0  0
  9 30  1  0  0  0  0
  9 31  1  0  0  0  0
 10 11  2  0  0  0  0
 10 12  1  0  0  0  0
 12 13  1  0  0  0  0
 12 32  1  0  0  0  0
 13 14  1  0  0  0  0
 13 33  1  0  0  0  0
 13 34  1  0  0  0  0
 14 15  1  0  0  0  0
 14 16  1  0  0  0  0
 14 35  1  0  0  0  0
 15 36  1  0  0  0  0
 15 37  1  0  0  0  0
 15 38  1  0  0  0  0
 16 20  1  0  0  0  0
 16 17  1  0  0  0  0
 16 47  1  0  0  0  0
 17 18  1  0  0  0  0
 17 39  1  0  0  0  0
 17 40  1  0  0  0  0
 18 19  1  0  0  0  0
 18 41  1  0  0  0  0
 18 42  1  0  0  0  0
 19 20  1  0  0  0  0
 19 43  1  0  0  0  0
 19 44  1  0  0  0  0
 20 45  1  0  0  0  0
 20 46  1  0  0  0  0
M  CHG  1  16   1
M  END
> <s_m_source_file>
AV-unprocessed.smi

> <i_m_source_file_index>
1896

> <i_lp_mmshare_version>
43012

> <i_f3d_flags>
0

> <s_epik_input>
W0NIM11jMW5uKFtDSDNdKWMoW0NIM10pYzFbQ0gyXUMoPU8pW05IXVtDSDJdW0NASF0oW0NIM10pTjJbQ0gyXVtDSDJdW0NIMl1bQ0gyXTI=

> <s_epik_cmdline>
J2VwaWtfcHl0aG9uJywgJy1waCcsICc3LjAnLCAnLXRuJywgJzgnLCAnLW1hJywgJzIwMCcsICctbWV0YWxfYmluZGluZycsICctaW1hZScsICc8aW5maWxlLm1hZT4nLCAnLW9tYWUnLCAnPG91dGZpbGUubWFlPic=

> <r_lp_tautomer_probability>
1

> <r_epik_Ionization_Penalty>
0.00723064

> <r_epik_Ionization_Penalty_Charging>
0.0050435

> <r_epik_Ionization_Penalty_Neutral>
0.00218714

> <r_epik_State_Penalty>
-0

> <r_epik_Charging_Adjusted_Penalty>
0.0050435

> <i_epik_Tot_Q>
1

> <i_epik_Tot_abs_Q>
1

> <r_epik_Metal_State_Penalty>
-0

> <b_epik_Metal_Only>
0

> <s_lp_Force_Field>
OPLS_2005

> <r_lp_Energy>
25.1325

> <b_lp_Chiralities_Consistent>
1

> <s_lp_Variant>
AV-unprocessed.smi:1896-1

> <Gold.Version>
5.8.1

> <Gold.Id.Protein>
6NUR|6NUR_protein|mol2

> <Gold.PLP.Fitness>
49.6795

> <Gold.PLP.PLP>
-50.6551

> <Gold.PLP.part.hbond>
-0.5576

> <Gold.PLP.part.metal>
0.0000

> <Gold.PLP.part.buried>
-3.5094

> <Gold.PLP.part.nonpolar>
-46.1348

> <Gold.PLP.part.repulsive>
0.3314

> <Gold.PLP.ligand.clash>
0.0000

> <Gold.PLP.ligand.torsion>
0.5179

> <Gold.PLP.Chemscore.Hbond>
0.0000

> <Gold.PLP.Chemscore.CHOScore>
0.0000

> <Gold.PLP.Chemscore.Metal>
0.0000

> <Gold.PLP.Chemscore.Internal.Correction>
0.0603

> <Gold.Rescore>
     Score         DG    S(hbond)    S(metal)    S(lipo)     H(rot)  DE(clash)    DE(int)     intcor
     14.39     -16.47       0.00        0.00     130.02       1.65       0.37       1.71       ----

> <Gold.Chemscore.Fitness>
14.3897

> <Gold.Chemscore.DG>
-16.4702

> <Gold.Chemscore.ZeroCoef>
-5.4800

> <Gold.Chemscore.Hbond>
0.0000

> <Gold.Chemscore.Metal>
0.0000

> <Gold.Chemscore.Lipo>
130.0244

> <Gold.Chemscore.Internal_Hbond>
0.0000

> <Gold.Chemscore.DEClash>
0.3723

> <Gold.Chemscore.DEInternal>
1.7082

> <Gold.Chemscore.Rot>
1.6495

> <Gold.Chemscore.Internal.Correction>
   9.000000E+99

> <Gold.Chemscore.Hbond.Weighted>
-0.0000

> <Gold.Chemscore.Metal.Weighted>
-0.0000

> <Gold.Chemscore.Lipo.Weighted>
-15.2129

> <Gold.Chemscore.Internal_Hbond.Weighted>
0.0000

> <Gold.Chemscore.DEClash.Weighted>
0.3723

> <Gold.Chemscore.DEInternal.Weighted>
1.7082

> <Gold.Chemscore.Rot.Weighted>
4.2227

> <Gold.Chemscore.Internal.Correction.Weighted>
   9.000000E+99

> <Gold.Protein.RotatedTorsions>
[ 6907 6896 6895 6894 ] final  -96.51 input  -60.11 | X-H torsion
[ 7974 7965 7964 7962 ] final  175.53 input  175.53 | X-H torsion
[ 8008 7997 7996 7995 ] final  -30.77 input   59.86 | X-H torsion
[ 10167 10162 10161 10158 ] final -104.96 input  -65.29 | X-H torsion
[ 10718 10713 10712 10709 ] final -132.18 input   66.30 | X-H torsion
[ 10763 10752 10751 10750 ] final   81.09 input  -60.55 | X-H torsion
[ 11005 11000 10999 10996 ] final -149.97 input  -57.11 | X-H torsion

> <Gold.Protein.ActiveResidues>
 VAL166  LYS551  ARG553  GLY616  TRP617  ASP618  TYR619  PRO620  LYS621  CYS622 
 ASP623  PHE694  ASN695  SER759  ASP760  ASP761  ALA762  ILE779  LEU786  VAL792 
 PHE793  MET794  SER795  GLU796  ALA797  LYS798  CYS799  TRP800  GLU811  SER814 

> <Gold.Protein.RotatedAtoms>
  150.6991  134.1491  159.4133 H   0  0  0  0  0  0  0  0  0  0  0  0  # atno 6907 bound_to 6896
  151.9474  135.0183  160.0549 H   0  0  0  0  0  0  0  0  0  0  0  0  # atno 6908 bound_to 6896
  152.2040  133.4827  159.5111 H   0  0  0  0  0  0  0  0  0  0  0  0  # atno 6909 bound_to 6896
  144.7200  139.9960  143.6440 H   0  0  0  0  0  0  0  0  0  0  0  0  # atno 7974 bound_to 7965
  154.4238  140.1782  156.1459 H   0  0  0  0  0  0  0  0  0  0  0  0  # atno 8008 bound_to 7997
  155.9954  140.3365  155.6768 H   0  0  0  0  0  0  0  0  0  0  0  0  # atno 8009 bound_to 7997
  155.6316  140.0670  157.2638 H   0  0  0  0  0  0  0  0  0  0  0  0  # atno 8010 bound_to 7997
  140.2037  143.3799  152.1108 H   0  0  0  0  0  0  0  0  0  0  0  0  # atno 10167 bound_to 10162
  156.2319  130.7043  151.0867 H   0  0  0  0  0  0  0  0  0  0  0  0  # atno 10718 bound_to 10713
  153.1087  135.4778  154.8997 H   0  0  0  0  0  0  0  0  0  0  0  0  # atno 10763 bound_to 10752
  154.7458  135.3093  154.8650 H   0  0  0  0  0  0  0  0  0  0  0  0  # atno 10764 bound_to 10752
  153.9245  135.6851  153.4800 H   0  0  0  0  0  0  0  0  0  0  0  0  # atno 10765 bound_to 10752
  140.7452  134.3469  157.5139 H   0  0  0  0  0  0  0  0  0  0  0  0  # atno 11005 bound_to 11000
  146.0373  139.3389  143.0718 LP  0  0  0  0  0  0  0  0  0  0  0  0  # atno 17320 bound_to 7965
  145.8378  140.9597  143.0815 LP  0  0  0  0  0  0  0  0  0  0  0  0  # atno 17321 bound_to 7965
  139.5207  144.7036  151.5420 LP  0  0  0  0  0  0  0  0  0  0  0  0  # atno 17342 bound_to 10162
  140.6372  143.8960  150.6658 LP  0  0  0  0  0  0  0  0  0  0  0  0  # atno 17343 bound_to 10162
  157.7137  131.0721  150.6407 LP  0  0  0  0  0  0  0  0  0  0  0  0  # atno 17370 bound_to 10713
  156.6475  130.4476  149.5731 LP  0  0  0  0  0  0  0  0  0  0  0  0  # atno 17371 bound_to 10713
  139.8798  134.9106  156.3018 LP  0  0  0  0  0  0  0  0  0  0  0  0  # atno 17394 bound_to 11000
  140.9801  133.7273  156.0659 LP  0  0  0  0  0  0  0  0  0  0  0  0  # atno 17395 bound_to 11000

$$$$
