AV-unprocessed.smi:1974|AV-procd|sdf|7981|dock4
  -GOLD-   2272010163D 1   1.00000     0.00000
 Structure written by MMmdl.
 34 35  0  0  0  0  0  0  0  0  1 V2000
  145.6353  134.4903  153.1049 C   0  0  0  0  0  0  0  0  0  0  0  0
  146.6595  133.5188  152.4980 C   0  0  1  0  0  0  0  0  0  0  0  0
  146.7903  133.7165  150.9754 C   0  0  0  0  0  0  0  0  0  0  0  0
  145.7571  133.0118  150.2368 N   0  0  0  0  0  0  0  0  0  0  0  0
  145.9094  132.0494  149.2611 C   0  0  0  0  0  0  0  0  0  0  0  0
  144.6588  131.6851  148.8514 C   0  0  0  0  0  0  0  0  0  0  0  0
  143.7950  132.4901  149.6456 C   0  0  0  0  0  0  0  0  0  0  0  0
  144.4552  133.2829  150.4743 N   0  0  0  0  0  0  0  0  0  0  0  0
  147.9585  133.7013  153.1420 N   0  0  0  0  0  0  0  0  0  0  0  0
  148.6280  132.7625  153.8271 C   0  0  0  0  0  0  0  0  0  0  0  0
  148.2122  131.6135  153.9832 O   0  0  0  0  0  0  0  0  0  0  0  0
  149.9842  133.1905  154.4018 C   0  0  0  0  0  0  0  0  0  0  0  0
  150.6276  132.1409  155.1945 N   0  0  0  0  0  0  0  0  0  0  0  0
  150.9162  130.8541  154.5734 C   0  0  0  0  0  0  0  0  0  0  0  0
  151.8809  130.0958  155.4875 C   0  0  0  0  0  0  0  0  0  0  0  0
  151.6996  130.7662  157.1522 S   0  0  0  0  0  0  0  0  0  0  0  0
  150.9170  132.2648  156.5474 C   0  0  0  0  0  0  0  0  0  0  0  0
  150.6929  133.2291  157.2774 O   0  0  0  0  0  0  0  0  0  0  0  0
  144.6534  134.3597  152.6491 H   0  0  0  0  0  0  0  0  0  0  0  0
  145.9356  135.5281  152.9565 H   0  0  0  0  0  0  0  0  0  0  0  0
  145.5220  134.3264  154.1772 H   0  0  0  0  0  0  0  0  0  0  0  0
  146.3080  132.5006  152.6764 H   0  0  0  0  0  0  0  0  0  0  0  0
  146.7109  134.7759  150.7283 H   0  0  0  0  0  0  0  0  0  0  0  0
  147.7707  133.3890  150.6248 H   0  0  0  0  0  0  0  0  0  0  0  0
  146.8840  131.7101  148.9421 H   0  0  0  0  0  0  0  0  0  0  0  0
  144.4005  130.9551  148.0986 H   0  0  0  0  0  0  0  0  0  0  0  0
  142.7153  132.5216  149.6445 H   0  0  0  0  0  0  0  0  0  0  0  0
  148.3834  134.6131  153.0523 H   0  0  0  0  0  0  0  0  0  0  0  0
  150.6312  133.4822  153.5739 H   0  0  0  0  0  0  0  0  0  0  0  0
  149.8581  134.0804  155.0213 H   0  0  0  0  0  0  0  0  0  0  0  0
  149.9799  130.3037  154.4723 H   0  0  0  0  0  0  0  0  0  0  0  0
  151.3375  130.9757  153.5747 H   0  0  0  0  0  0  0  0  0  0  0  0
  151.7032  129.0204  155.4736 H   0  0  0  0  0  0  0  0  0  0  0  0
  152.9090  130.2676  155.1673 H   0  0  0  0  0  0  0  0  0  0  0  0
  1  2  1  0  0  0  0
  1 19  1  0  0  0  0
  1 20  1  0  0  0  0
  1 21  1  0  0  0  0
  2  3  1  0  0  0  0
  2  9  1  0  0  0  0
  2 22  1  0  0  0  0
  3  4  1  0  0  0  0
  3 23  1  0  0  0  0
  3 24  1  0  0  0  0
  4  8  1  0  0  0  0
  4  5  1  0  0  0  0
  5  6  2  0  0  0  0
  5 25  1  0  0  0  0
  6  7  1  0  0  0  0
  6 26  1  0  0  0  0
  7  8  2  0  0  0  0
  7 27  1  0  0  0  0
  9 10  1  0  0  0  0
  9 28  1  0  0  0  0
 10 11  2  0  0  0  0
 10 12  1  0  0  0  0
 12 13  1  0  0  0  0
 12 29  1  0  0  0  0
 12 30  1  0  0  0  0
 13 17  1  0  0  0  0
 13 14  1  0  0  0  0
 14 15  1  0  0  0  0
 14 31  1  0  0  0  0
 14 32  1  0  0  0  0
 15 16  1  0  0  0  0
 15 33  1  0  0  0  0
 15 34  1  0  0  0  0
 16 17  1  0  0  0  0
 17 18  2  0  0  0  0
M  END
> <s_m_source_file>
AV-unprocessed.smi

> <i_m_source_file_index>
1974

> <i_lp_mmshare_version>
43012

> <i_f3d_flags>
0

> <s_epik_input>
bjFbY0hdW2NIXVtjSF1uMVtDSDJdW0NAQEhdKFtDSDNdKVtOSF1DKD1PKVtDSDJdTjJbQ0gyXVtDSDJdU0MyPU8=

> <s_epik_cmdline>
J2VwaWtfcHl0aG9uJywgJy1waCcsICc3LjAnLCAnLXRuJywgJzgnLCAnLW1hJywgJzIwMCcsICctbWV0YWxfYmluZGluZycsICctaW1hZScsICc8aW5maWxlLm1hZT4nLCAnLW9tYWUnLCAnPG91dGZpbGUubWFlPic=

> <r_lp_tautomer_probability>
1

> <r_epik_Ionization_Penalty>
0.000283364

> <r_epik_Ionization_Penalty_Charging>
0

> <r_epik_Ionization_Penalty_Neutral>
0.000283364

> <r_epik_State_Penalty>
-0

> <r_epik_Charging_Adjusted_Penalty>
0

> <i_epik_Tot_Q>
0

> <i_epik_Tot_abs_Q>
0

> <r_epik_Metal_State_Penalty>
-0

> <b_epik_Metal_Only>
0

> <s_lp_Force_Field>
OPLS_2005

> <r_lp_Energy>
3.37474

> <b_lp_Chiralities_Consistent>
1

> <s_lp_Variant>
AV-unprocessed.smi:1974-2

> <Gold.Version>
5.8.1

> <Gold.Id.Protein>
6NUR|6NUR_protein|mol2

> <Gold.PLP.Fitness>
38.9899

> <Gold.PLP.PLP>
-27.3931

> <Gold.PLP.part.hbond>
-2.0000

> <Gold.PLP.part.metal>
0.0000

> <Gold.PLP.part.buried>
-1.2778

> <Gold.PLP.part.nonpolar>
-22.9780

> <Gold.PLP.part.repulsive>
0.2036

> <Gold.PLP.ligand.clash>
0.0000

> <Gold.PLP.ligand.torsion>
0.2855

> <Gold.PLP.Chemscore.Hbond>
1.9513

> <Gold.PLP.Chemscore.CHOScore>
2.0902

> <Gold.PLP.Chemscore.Metal>
0.0000

> <Gold.Chemscore.Hbonds>
donor molecule, donor type, donor heavy atom, donor atom, acceptor molecule, acceptor atom, score
      L1  H     9    28       P1  7948  0.94
      P1  H  6896  6907       L1    18  0.96
      L1  C     5    25       P1 10747  0.85
      L1  C     7    27       P1 10186  0.95
      L1  C     7    27       P1 10952  0.13

> <Gold.PLP.Chemscore.Internal.Correction>
0.0435

> <Gold.Rescore>
     Score         DG    S(hbond)    S(metal)    S(lipo)     H(rot)  DE(clash)    DE(int)     intcor
     10.18     -13.34       1.42        0.00      71.37       2.04       1.54       1.61       ----

> <Gold.Chemscore.Fitness>
10.1808

> <Gold.Chemscore.DG>
-13.3359

> <Gold.Chemscore.ZeroCoef>
-5.4800

> <Gold.Chemscore.Hbond>
1.4159

> <Gold.Chemscore.Metal>
0.0000

> <Gold.Chemscore.Lipo>
71.3729

> <Gold.Chemscore.Internal_Hbond>
0.0000

> <Gold.Chemscore.DEClash>
1.5438

> <Gold.Chemscore.DEInternal>
1.6113

> <Gold.Chemscore.Rot>
2.0405

> <Gold.Chemscore.Internal.Correction>
   9.000000E+99

> <Gold.Chemscore.Hbonds>
donor molecule, donor type, donor heavy atom, donor atom, acceptor molecule, acceptor atom, score
      L1  H     9    28       P1  7948  0.42
      P1  H  6896  6907       L1    18  0.90

> <Gold.Chemscore.Hbond.Weighted>
-4.7290

> <Gold.Chemscore.Metal.Weighted>
-0.0000

> <Gold.Chemscore.Lipo.Weighted>
-8.3506

> <Gold.Chemscore.Internal_Hbond.Weighted>
0.0000

> <Gold.Chemscore.DEClash.Weighted>
1.5438

> <Gold.Chemscore.DEInternal.Weighted>
1.6113

> <Gold.Chemscore.Rot.Weighted>
5.2237

> <Gold.Chemscore.Internal.Correction.Weighted>
   9.000000E+99

> <Gold.Protein.RotatedTorsions>
[ 6907 6896 6895 6894 ] final -139.58 input  -60.11 | X-H torsion
[ 7974 7965 7964 7962 ] final  -29.76 input  175.53 | X-H torsion
[ 8008 7997 7996 7995 ] final   49.68 input   59.86 | X-H torsion
[ 10167 10162 10161 10158 ] final  115.94 input  -65.29 | X-H torsion
[ 10718 10713 10712 10709 ] final  148.82 input   66.30 | X-H torsion
[ 10763 10752 10751 10750 ] final  -75.04 input  -60.55 | X-H torsion
[ 11005 11000 10999 10996 ] final  -22.77 input  -57.11 | X-H torsion

> <Gold.Protein.ActiveResidues>
 VAL166  LYS551  ARG553  GLY616  TRP617  ASP618  TYR619  PRO620  LYS621  CYS622 
 ASP623  PHE694  ASN695  SER759  ASP760  ASP761  ALA762  ILE779  LEU786  VAL792 
 PHE793  MET794  SER795  GLU796  ALA797  LYS798  CYS799  TRP800  GLU811  SER814 

> <Gold.Protein.RotatedAtoms>
  151.0497  133.5635  159.2643 H   0  0  0  0  0  0  0  0  0  0  0  0  # atno 6907 bound_to 6896
  151.2651  135.0666  159.9122 H   0  0  0  0  0  0  0  0  0  0  0  0  # atno 6908 bound_to 6896
  152.5379  134.0236  159.8047 H   0  0  0  0  0  0  0  0  0  0  0  0  # atno 6909 bound_to 6896
  146.1193  140.5454  142.8743 H   0  0  0  0  0  0  0  0  0  0  0  0  # atno 7974 bound_to 7965
  155.4061  140.3440  155.4260 H   0  0  0  0  0  0  0  0  0  0  0  0  # atno 8008 bound_to 7997
  156.1475  140.1561  156.8855 H   0  0  0  0  0  0  0  0  0  0  0  0  # atno 8009 bound_to 7997
  154.5023  140.0811  156.7805 H   0  0  0  0  0  0  0  0  0  0  0  0  # atno 8010 bound_to 7997
  139.6282  144.7111  151.2489 H   0  0  0  0  0  0  0  0  0  0  0  0  # atno 10167 bound_to 10162
  157.3038  131.0875  151.1370 H   0  0  0  0  0  0  0  0  0  0  0  0  # atno 10718 bound_to 10713
  154.4813  135.5844  153.6391 H   0  0  0  0  0  0  0  0  0  0  0  0  # atno 10763 bound_to 10752
  152.9848  135.6090  154.3243 H   0  0  0  0  0  0  0  0  0  0  0  0  # atno 10764 bound_to 10752
  154.3134  135.2844  155.2534 H   0  0  0  0  0  0  0  0  0  0  0  0  # atno 10765 bound_to 10752
  140.8688  133.7735  156.0162 H   0  0  0  0  0  0  0  0  0  0  0  0  # atno 11005 bound_to 11000
  144.7582  140.5358  143.6754 LP  0  0  0  0  0  0  0  0  0  0  0  0  # atno 17320 bound_to 7965
  145.5500  139.1476  143.3399 LP  0  0  0  0  0  0  0  0  0  0  0  0  # atno 17321 bound_to 7965
  140.7423  143.6529  150.8232 LP  0  0  0  0  0  0  0  0  0  0  0  0  # atno 17342 bound_to 10162
  140.0150  143.5602  152.2823 LP  0  0  0  0  0  0  0  0  0  0  0  0  # atno 17343 bound_to 10162
  157.2718  130.6708  149.6023 LP  0  0  0  0  0  0  0  0  0  0  0  0  # atno 17370 bound_to 10713
  155.9673  130.4476  150.5589 LP  0  0  0  0  0  0  0  0  0  0  0  0  # atno 17371 bound_to 10713
  140.8597  134.2855  157.5240 LP  0  0  0  0  0  0  0  0  0  0  0  0  # atno 17394 bound_to 11000
  139.8711  134.9511  156.4077 LP  0  0  0  0  0  0  0  0  0  0  0  0  # atno 17395 bound_to 11000

$$$$
