AV-unprocessed.smi:81|AV-procd|sdf|786|dock3
  -GOLD-   2262017153D 1   1.00000     0.00000
 Structure written by MMmdl.
 64 67  0  0  0  0  0  0  0  0  2 V2000
  151.7815  128.8664  155.2703 C   0  0  0  0  0  0  0  0  0  0  0  0
  151.2829  130.3099  155.4485 C   0  0  0  0  0  0  0  0  0  0  0  0
  151.5231  130.7879  156.8873 C   0  0  0  0  0  0  0  0  0  0  0  0
  149.7892  130.4537  155.0765 C   0  0  0  0  0  0  0  0  0  0  0  0
  149.3940  131.8145  154.7002 N   0  0  0  0  0  0  0  0  0  0  0  0
  149.5208  132.7343  155.6886 C   0  0  0  0  0  0  0  0  0  0  0  0
  150.6702  133.4501  155.8083 N   0  0  0  0  0  0  0  0  0  0  0  0
  150.7874  134.3705  156.7700 C   0  0  0  0  0  0  0  0  0  0  0  0
  149.8935  134.7312  157.6932 N   0  0  0  0  0  0  0  0  0  0  0  0
  148.7350  134.0222  157.5665 C   0  0  0  0  0  0  0  0  0  0  0  0
  148.4701  133.0098  156.6036 C   0  0  0  0  0  0  0  0  0  0  0  0
  147.1883  132.5056  156.7807 N   0  0  0  0  0  0  0  0  0  0  0  0
  146.7178  133.1873  157.7893 C   0  0  0  0  0  0  0  0  0  0  0  0
  147.5754  134.1284  158.3141 N   0  0  0  0  0  0  0  0  0  0  0  0
  147.3047  135.0349  159.4196 C   0  0  0  0  0  0  0  0  0  0  0  0
  146.6250  134.3397  160.6289 C   0  0  1  0  0  0  0  0  0  0  0  0
  145.2673  134.1060  160.2932 O   0  0  0  0  0  0  0  0  0  0  0  0
  147.2505  132.9962  160.9927 C   0  0  0  0  0  0  0  0  0  0  0  0
  146.9505  132.8729  162.4785 C   0  0  0  0  0  0  0  0  0  0  0  0
  147.1536  134.1956  162.9433 O   0  0  0  0  0  0  0  0  0  0  0  0
  146.6486  135.1144  161.9767 C   0  0  1  0  0  0  0  0  0  0  0  0
  147.5289  136.3724  162.0350 C   0  0  0  0  0  0  0  0  0  0  0  0
  148.2025  131.9374  153.8478 C   0  0  2  0  0  0  0  0  0  0  0  0
  147.7173  130.5970  153.2566 C   0  0  0  0  0  0  0  0  0  0  0  0
  146.4223  130.7894  152.4508 C   0  0  0  0  0  0  0  0  0  0  0  0
  146.6086  131.7957  151.3761 N   0  3  1  0  0  0  0  0  0  0  0  0
  145.4190  131.9154  150.5061 C   0  0  0  0  0  0  0  0  0  0  0  0
  147.0503  133.1076  151.9117 C   0  0  0  0  0  0  0  0  0  0  0  0
  148.3574  132.9691  152.7092 C   0  0  0  0  0  0  0  0  0  0  0  0
  151.2219  128.1734  155.8992 H   0  0  0  0  0  0  0  0  0  0  0  0
  152.8354  128.7799  155.5362 H   0  0  0  0  0  0  0  0  0  0  0  0
  151.6799  128.5332  154.2376 H   0  0  0  0  0  0  0  0  0  0  0  0
  151.8783  130.9538  154.8002 H   0  0  0  0  0  0  0  0  0  0  0  0
  150.9610  130.1883  157.6040 H   0  0  0  0  0  0  0  0  0  0  0  0
  151.2185  131.8274  157.0113 H   0  0  0  0  0  0  0  0  0  0  0  0
  152.5785  130.7222  157.1530 H   0  0  0  0  0  0  0  0  0  0  0  0
  149.5622  129.7794  154.2499 H   0  0  0  0  0  0  0  0  0  0  0  0
  149.1717  130.1211  155.9120 H   0  0  0  0  0  0  0  0  0  0  0  0
  151.7300  134.8968  156.8021 H   0  0  0  0  0  0  0  0  0  0  0  0
  145.7212  133.0281  158.1746 H   0  0  0  0  0  0  0  0  0  0  0  0
  148.2542  135.4797  159.7177 H   0  0  0  0  0  0  0  0  0  0  0  0
  146.6824  135.8507  159.0491 H   0  0  0  0  0  0  0  0  0  0  0  0
  144.7228  134.4563  160.9815 H   0  0  0  0  0  0  0  0  0  0  0  0
  146.8714  132.1582  160.4058 H   0  0  0  0  0  0  0  0  0  0  0  0
  148.3317  133.0362  160.8550 H   0  0  0  0  0  0  0  0  0  0  0  0
  145.9147  132.5751  162.6485 H   0  0  0  0  0  0  0  0  0  0  0  0
  147.6042  132.1626  162.9849 H   0  0  0  0  0  0  0  0  0  0  0  0
  145.6356  135.3902  162.2758 H   0  0  0  0  0  0  0  0  0  0  0  0
  147.1925  137.1279  161.3250 H   0  0  0  0  0  0  0  0  0  0  0  0
  148.5725  136.1415  161.8207 H   0  0  0  0  0  0  0  0  0  0  0  0
  147.4916  136.8203  163.0283 H   0  0  0  0  0  0  0  0  0  0  0  0
  147.4082  132.2953  154.5042 H   0  0  0  0  0  0  0  0  0  0  0  0
  148.4768  130.1648  152.6040 H   0  0  0  0  0  0  0  0  0  0  0  0
  147.5437  129.8767  154.0568 H   0  0  0  0  0  0  0  0  0  0  0  0
  146.1225  129.8370  152.0121 H   0  0  0  0  0  0  0  0  0  0  0  0
  145.6122  131.1040  153.1108 H   0  0  0  0  0  0  0  0  0  0  0  0
  144.5577  132.2788  151.0682 H   0  0  0  0  0  0  0  0  0  0  0  0
  145.1606  130.9495  150.0710 H   0  0  0  0  0  0  0  0  0  0  0  0
  145.6095  132.6083  149.6860 H   0  0  0  0  0  0  0  0  0  0  0  0
  147.2006  133.8061  151.0876 H   0  0  0  0  0  0  0  0  0  0  0  0
  146.2670  133.5278  152.5447 H   0  0  0  0  0  0  0  0  0  0  0  0
  148.6388  133.9432  153.1098 H   0  0  0  0  0  0  0  0  0  0  0  0
  149.1557  132.6701  152.0295 H   0  0  0  0  0  0  0  0  0  0  0  0
  147.3587  131.4562  150.7906 H   0  0  0  0  0  0  0  0  0  0  0  0
  1  2  1  0  0  0  0
  1 30  1  0  0  0  0
  1 31  1  0  0  0  0
  1 32  1  0  0  0  0
  2  3  1  0  0  0  0
  2  4  1  0  0  0  0
  2 33  1  0  0  0  0
  3 34  1  0  0  0  0
  3 35  1  0  0  0  0
  3 36  1  0  0  0  0
  4  5  1  0  0  0  0
  4 37  1  0  0  0  0
  4 38  1  0  0  0  0
  5  6  1  0  0  0  0
  5 23  1  0  0  0  0
  6 11  1  0  0  0  0
  6  7  2  0  0  0  0
  7  8  1  0  0  0  0
  8  9  2  0  0  0  0
  8 39  1  0  0  0  0
  9 10  1  0  0  0  0
 10 14  1  0  0  0  0
 10 11  2  0  0  0  0
 11 12  1  0  0  0  0
 12 13  2  0  0  0  0
 13 14  1  0  0  0  0
 13 40  1  0  0  0  0
 14 15  1  0  0  0  0
 15 16  1  0  0  0  0
 15 41  1  0  0  0  0
 15 42  1  0  0  0  0
 16 21  1  0  0  0  0
 16 17  1  0  0  0  0
 16 18  1  0  0  0  0
 17 43  1  0  0  0  0
 18 19  1  0  0  0  0
 18 44  1  0  0  0  0
 18 45  1  0  0  0  0
 19 20  1  0  0  0  0
 19 46  1  0  0  0  0
 19 47  1  0  0  0  0
 20 21  1  0  0  0  0
 21 22  1  0  0  0  0
 21 48  1  0  0  0  0
 22 49  1  0  0  0  0
 22 50  1  0  0  0  0
 22 51  1  0  0  0  0
 23 29  1  0  0  0  0
 23 24  1  0  0  0  0
 23 52  1  0  0  0  0
 24 25  1  0  0  0  0
 24 53  1  0  0  0  0
 24 54  1  0  0  0  0
 25 26  1  0  0  0  0
 25 55  1  0  0  0  0
 25 56  1  0  0  0  0
 26 27  1  0  0  0  0
 26 28  1  0  0  0  0
 26 64  1  0  0  0  0
 27 57  1  0  0  0  0
 27 58  1  0  0  0  0
 27 59  1  0  0  0  0
 28 29  1  0  0  0  0
 28 60  1  0  0  0  0
 28 61  1  0  0  0  0
 29 62  1  0  0  0  0
 29 63  1  0  0  0  0
M  CHG  1  26   1
M  END
> <s_m_source_file>
AV-unprocessed.smi

> <i_m_source_file_index>
81

> <i_lp_mmshare_version>
43012

> <i_f3d_flags>
0

> <s_epik_input>
W0NIMl0xW0NIMl1OKFtDSDNdKVtDSDJdW0NIMl1bQ0hdMU4oW0NIMl1bQ0hdKFtDSDNdKVtDSDNdKWMobltjSF1uMiljKGMyMyluW2NIXW4zW0NIMl1bQ0BAXTQoW09IXSlbQ0gyXVtDSDJdT1tDQEhdNFtDSDNd

> <s_epik_cmdline>
J2VwaWtfcHl0aG9uJywgJy1waCcsICc3LjAnLCAnLXRuJywgJzgnLCAnLW1hJywgJzIwMCcsICctbWV0YWxfYmluZGluZycsICctaW1hZScsICc8aW5maWxlLm1hZT4nLCAnLW9tYWUnLCAnPG91dGZpbGUubWFlPic=

> <r_lp_tautomer_probability>
1

> <r_epik_Ionization_Penalty>
0.00272708

> <r_epik_Ionization_Penalty_Charging>
0.00158983

> <r_epik_Ionization_Penalty_Neutral>
0.00113725

> <r_epik_State_Penalty>
-0

> <r_epik_Charging_Adjusted_Penalty>
0.00158983

> <i_epik_Tot_Q>
1

> <i_epik_Tot_abs_Q>
1

> <r_epik_Metal_State_Penalty>
-0

> <b_epik_Metal_Only>
0

> <s_lp_Force_Field>
OPLS_2005

> <r_lp_Energy>
44.8479

> <b_lp_Chiralities_Consistent>
1

> <s_lp_Variant>
AV-unprocessed.smi:81-1

> <Gold.Version>
5.8.1

> <Gold.Id.Protein>
6NUR|6NUR_protein|mol2

> <Gold.PLP.Fitness>
42.9067

> <Gold.PLP.PLP>
-40.5154

> <Gold.PLP.part.hbond>
-2.2668

> <Gold.PLP.part.metal>
0.0000

> <Gold.PLP.part.buried>
-5.0889

> <Gold.PLP.part.nonpolar>
-33.6349

> <Gold.PLP.part.repulsive>
0.0626

> <Gold.PLP.ligand.clash>
0.0000

> <Gold.PLP.ligand.torsion>
2.0828

> <Gold.PLP.Chemscore.Hbond>
1.8723

> <Gold.PLP.Chemscore.CHOScore>
0.0000

> <Gold.PLP.Chemscore.Metal>
0.0000

> <Gold.Chemscore.Hbonds>
donor molecule, donor type, donor heavy atom, donor atom, acceptor molecule, acceptor atom, score
      L1  H    26    64       P1 10747  1.00
      P1  H  6896  6907       L1     9  0.90

> <Gold.PLP.Chemscore.Internal.Correction>
0.9401

> <Gold.Rescore>
     Score         DG    S(hbond)    S(metal)    S(lipo)     H(rot)  DE(clash)    DE(int)     intcor
     11.57     -14.84       1.16        0.00     103.15       2.58       0.20       3.08       ----

> <Gold.Chemscore.Fitness>
11.5656

> <Gold.Chemscore.DG>
-14.8379

> <Gold.Chemscore.ZeroCoef>
-5.4800

> <Gold.Chemscore.Hbond>
1.1639

> <Gold.Chemscore.Metal>
0.0000

> <Gold.Chemscore.Lipo>
103.1517

> <Gold.Chemscore.Internal_Hbond>
0.0000

> <Gold.Chemscore.DEClash>
0.1954

> <Gold.Chemscore.DEInternal>
3.0769

> <Gold.Chemscore.Rot>
2.5774

> <Gold.Chemscore.Internal.Correction>
   9.000000E+99

> <Gold.Chemscore.Hbonds>
donor molecule, donor type, donor heavy atom, donor atom, acceptor molecule, acceptor atom, score
      L1  H    26    64       P1 10747  1.00
      P1  H  6896  6907       L1     9  0.35

> <Gold.Chemscore.Hbond.Weighted>
-3.8874

> <Gold.Chemscore.Metal.Weighted>
-0.0000

> <Gold.Chemscore.Lipo.Weighted>
-12.0688

> <Gold.Chemscore.Internal_Hbond.Weighted>
0.0000

> <Gold.Chemscore.DEClash.Weighted>
0.1954

> <Gold.Chemscore.DEInternal.Weighted>
3.0769

> <Gold.Chemscore.Rot.Weighted>
6.5982

> <Gold.Chemscore.Internal.Correction.Weighted>
   9.000000E+99

> <Gold.Protein.RotatedTorsions>
[ 6907 6896 6895 6894 ] final  -87.12 input  -60.11 | X-H torsion
[ 7974 7965 7964 7962 ] final   76.30 input  175.53 | X-H torsion
[ 8008 7997 7996 7995 ] final -103.38 input   59.86 | X-H torsion
[ 10167 10162 10161 10158 ] final  161.60 input  -65.29 | X-H torsion
[ 10718 10713 10712 10709 ] final -166.57 input   66.30 | X-H torsion
[ 10763 10752 10751 10750 ] final -111.60 input  -60.55 | X-H torsion
[ 11005 11000 10999 10996 ] final  -12.00 input  -57.11 | X-H torsion

> <Gold.Protein.ActiveResidues>
 VAL166  LYS551  ARG553  GLY616  TRP617  ASP618  TYR619  PRO620  LYS621  CYS622 
 ASP623  PHE694  ASN695  SER759  ASP760  ASP761  ALA762  ILE779  LEU786  VAL792 
 PHE793  MET794  SER795  GLU796  ALA797  LYS798  CYS799  TRP800  GLU811  SER814 

> <Gold.Protein.RotatedAtoms>
  150.6866  134.2945  159.4680 H   0  0  0  0  0  0  0  0  0  0  0  0  # atno 6907 bound_to 6896
  152.0847  134.9445  160.0582 H   0  0  0  0  0  0  0  0  0  0  0  0  # atno 6908 bound_to 6896
  152.0784  133.4106  159.4527 H   0  0  0  0  0  0  0  0  0  0  0  0  # atno 6909 bound_to 6896
  145.7046  139.2594  143.1685 H   0  0  0  0  0  0  0  0  0  0  0  0  # atno 7974 bound_to 7965
  154.8701  140.0423  157.1719 H   0  0  0  0  0  0  0  0  0  0  0  0  # atno 8008 bound_to 7997
  154.8748  140.2964  155.5439 H   0  0  0  0  0  0  0  0  0  0  0  0  # atno 8009 bound_to 7997
  156.2999  140.2422  156.3742 H   0  0  0  0  0  0  0  0  0  0  0  0  # atno 8010 bound_to 7997
  139.4851  144.4521  151.8816 H   0  0  0  0  0  0  0  0  0  0  0  0  # atno 10167 bound_to 10162
  156.6698  130.9079  151.3042 H   0  0  0  0  0  0  0  0  0  0  0  0  # atno 10718 bound_to 10713
  154.8308  135.4521  154.1064 H   0  0  0  0  0  0  0  0  0  0  0  0  # atno 10763 bound_to 10752
  153.2338  135.6908  153.7865 H   0  0  0  0  0  0  0  0  0  0  0  0  # atno 10764 bound_to 10752
  153.7238  135.3337  155.3248 H   0  0  0  0  0  0  0  0  0  0  0  0  # atno 10765 bound_to 10752
  140.7612  133.8514  155.9126 H   0  0  0  0  0  0  0  0  0  0  0  0  # atno 11005 bound_to 11000
  146.0767  140.7809  142.9661 LP  0  0  0  0  0  0  0  0  0  0  0  0  # atno 17320 bound_to 7965
  144.6959  140.3425  143.7196 LP  0  0  0  0  0  0  0  0  0  0  0  0  # atno 17321 bound_to 7965
  140.3978  144.2532  150.5895 LP  0  0  0  0  0  0  0  0  0  0  0  0  # atno 17342 bound_to 10162
  140.5085  143.2297  151.8571 LP  0  0  0  0  0  0  0  0  0  0  0  0  # atno 17343 bound_to 10162
  157.7081  130.9408  150.0997 LP  0  0  0  0  0  0  0  0  0  0  0  0  # atno 17370 bound_to 10713
  156.1947  130.3656  149.8864 LP  0  0  0  0  0  0  0  0  0  0  0  0  # atno 17371 bound_to 10713
  140.9662  134.1591  157.4614 LP  0  0  0  0  0  0  0  0  0  0  0  0  # atno 17394 bound_to 11000
  139.8770  134.9962  156.5784 LP  0  0  0  0  0  0  0  0  0  0  0  0  # atno 17395 bound_to 11000

$$$$
