AV-unprocessed.smi:40|AV-procd|sdf|377|dock9
  -GOLD-   2262016233D 1   1.00000     0.00000
 Structure written by MMmdl.
 47 48  0  0  0  0  0  0  0  0  1 V2000
  151.1082  145.1409  159.7369 C   0  0  0  0  0  0  0  0  0  0  0  0
  152.3415  144.2508  159.9248 C   0  0  0  0  0  0  0  0  0  0  0  0
  152.1186  142.8199  159.4145 C   0  0  0  0  0  0  0  0  0  0  0  0
  153.3663  141.9392  159.5634 C   0  0  0  0  0  0  0  0  0  0  0  0
  153.1340  140.5094  159.0503 C   0  0  0  0  0  0  0  0  0  0  0  0
  152.6563  140.5226  157.7120 O   0  0  0  0  0  0  0  0  0  0  0  0
  151.3348  140.4322  157.4459 C   0  0  0  0  0  0  0  0  0  0  0  0
  150.4485  140.7872  158.2229 O   0  0  0  0  0  0  0  0  0  0  0  0
  151.0906  139.8203  156.1512 N   0  0  0  0  0  0  0  0  0  0  0  0
  149.9073  139.5632  155.5441 C   0  0  0  0  0  0  0  0  0  0  0  0
  148.9203  140.4455  155.5116 N   0  0  0  0  0  0  0  0  0  0  0  0
  147.7065  140.2138  154.9216 C   0  0  0  0  0  0  0  0  0  0  0  0
  146.8395  141.0862  154.9050 O   0  0  0  0  0  0  0  0  0  0  0  0
  147.5058  138.9445  154.3299 N   0  0  0  0  0  0  0  0  0  0  0  0
  146.1865  138.6279  153.6603 C   0  0  2  0  0  0  0  0  0  0  0  0
  145.6804  137.4621  154.2401 O   0  0  0  0  0  0  0  0  0  0  0  0
  145.1470  136.6126  153.2332 C   0  0  1  0  0  0  0  0  0  0  0  0
  143.6514  136.9418  153.0615 C   0  0  0  0  0  0  0  0  0  0  0  0
  146.0332  136.9040  152.0142 C   0  0  1  0  0  0  0  0  0  0  0  0
  145.3902  136.5895  150.7943 O   0  0  0  0  0  0  0  0  0  0  0  0
  146.3217  138.3944  152.1369 C   0  0  2  0  0  0  0  0  0  0  0  0
  147.5953  138.7114  151.6022 O   0  0  0  0  0  0  0  0  0  0  0  0
  148.5207  138.0007  154.3667 C   0  0  0  0  0  0  0  0  0  0  0  0
  149.7091  138.2571  154.9535 C   0  0  0  0  0  0  0  0  0  0  0  0
  150.6776  137.3252  154.9789 F   0  0  0  0  0  0  0  0  0  0  0  0
  145.5024  139.4438  153.8961 H   0  0  0  0  0  0  0  0  0  0  0  0
  145.2474  135.5719  153.5431 H   0  0  0  0  0  0  0  0  0  0  0  0
  146.9574  136.3301  152.1006 H   0  0  0  0  0  0  0  0  0  0  0  0
  145.5522  138.9846  151.6371 H   0  0  0  0  0  0  0  0  0  0  0  0
  151.2954  146.1475  160.1116 H   0  0  0  0  0  0  0  0  0  0  0  0
  150.2483  144.7402  160.2745 H   0  0  0  0  0  0  0  0  0  0  0  0
  150.8380  145.2225  158.6837 H   0  0  0  0  0  0  0  0  0  0  0  0
  153.1900  144.6976  159.4054 H   0  0  0  0  0  0  0  0  0  0  0  0
  152.6062  144.2252  160.9825 H   0  0  0  0  0  0  0  0  0  0  0  0
  151.2895  142.3663  159.9591 H   0  0  0  0  0  0  0  0  0  0  0  0
  151.8201  142.8499  158.3658 H   0  0  0  0  0  0  0  0  0  0  0  0
  154.1969  142.3885  159.0179 H   0  0  0  0  0  0  0  0  0  0  0  0
  153.6644  141.9100  160.6121 H   0  0  0  0  0  0  0  0  0  0  0  0
  154.0446  139.9136  159.1316 H   0  0  0  0  0  0  0  0  0  0  0  0
  152.3845  140.0166  159.6697 H   0  0  0  0  0  0  0  0  0  0  0  0
  151.9289  139.6004  155.6332 H   0  0  0  0  0  0  0  0  0  0  0  0
  143.1850  136.2932  152.3198 H   0  0  0  0  0  0  0  0  0  0  0  0
  143.4958  137.9740  152.7468 H   0  0  0  0  0  0  0  0  0  0  0  0
  143.1159  136.7984  154.0001 H   0  0  0  0  0  0  0  0  0  0  0  0
  144.6655  137.1842  150.6748 H   0  0  0  0  0  0  0  0  0  0  0  0
  148.2432  138.1781  152.0359 H   0  0  0  0  0  0  0  0  0  0  0  0
  148.3698  137.0313  153.9145 H   0  0  0  0  0  0  0  0  0  0  0  0
  1  2  1  0  0  0  0
  1 30  1  0  0  0  0
  1 31  1  0  0  0  0
  1 32  1  0  0  0  0
  2  3  1  0  0  0  0
  2 33  1  0  0  0  0
  2 34  1  0  0  0  0
  3  4  1  0  0  0  0
  3 35  1  0  0  0  0
  3 36  1  0  0  0  0
  4  5  1  0  0  0  0
  4 37  1  0  0  0  0
  4 38  1  0  0  0  0
  5  6  1  0  0  0  0
  5 39  1  0  0  0  0
  5 40  1  0  0  0  0
  6  7  1  0  0  0  0
  7  8  2  0  0  0  0
  7  9  1  0  0  0  0
  9 10  1  0  0  0  0
  9 41  1  0  0  0  0
 10 24  1  0  0  0  0
 10 11  2  0  0  0  0
 11 12  1  0  0  0  0
 12 13  2  0  0  0  0
 12 14  1  0  0  0  0
 14 15  1  0  0  0  0
 14 23  1  0  0  0  0
 15 26  1  0  0  0  0
 15 21  1  0  0  0  0
 15 16  1  0  0  0  0
 16 17  1  0  0  0  0
 17 27  1  0  0  0  0
 17 18  1  0  0  0  0
 17 19  1  0  0  0  0
 18 42  1  0  0  0  0
 18 43  1  0  0  0  0
 18 44  1  0  0  0  0
 19 28  1  0  0  0  0
 19 20  1  0  0  0  0
 19 21  1  0  0  0  0
 20 45  1  0  0  0  0
 21 29  1  0  0  0  0
 21 22  1  0  0  0  0
 22 46  1  0  0  0  0
 23 24  2  0  0  0  0
 23 47  1  0  0  0  0
 24 25  1  0  0  0  0
M  END
> <s_m_source_file>
AV-unprocessed.smi

> <i_m_source_file_index>
40

> <i_lp_mmshare_version>
43012

> <i_f3d_flags>
0

> <s_epik_input>
W0NIM11bQ0gyXVtDSDJdW0NIMl1bQ0gyXU9DKD1PKVtOSF1jMW5jKD1PKW4oW2NIXWMxRilbQ0BASF0yT1tDQEhdKFtDSDNdKVtDQEBIXShbT0hdKVtDQEhdMltPSF0=

> <s_epik_cmdline>
J2VwaWtfcHl0aG9uJywgJy1waCcsICc3LjAnLCAnLXRuJywgJzgnLCAnLW1hJywgJzIwMCcsICctbWV0YWxfYmluZGluZycsICctaW1hZScsICc8aW5maWxlLm1hZT4nLCAnLW9tYWUnLCAnPG91dGZpbGUubWFlPic=

> <r_lp_tautomer_probability>
1

> <r_epik_Ionization_Penalty>
2.29506e-06

> <r_epik_Ionization_Penalty_Charging>
8.26867e-09

> <r_epik_Ionization_Penalty_Neutral>
2.2868e-06

> <r_epik_State_Penalty>
-0

> <r_epik_Charging_Adjusted_Penalty>
8.26867e-09

> <i_epik_Tot_Q>
0

> <i_epik_Tot_abs_Q>
0

> <r_epik_Metal_State_Penalty>
-0

> <b_epik_Metal_Only>
0

> <s_epik_Chemistry_Notes>
This compound has an ester and may undergo hydrolysis at high or low pH. This compound contains an acetal/aminal-like group ( X-CH(R)-Y where X, Y are N, S, or O) that may be acid/base labile, releasing an aldehyde.

> <s_lp_Force_Field>
OPLS_2005

> <r_lp_Energy>
38.4453

> <b_lp_Chiralities_Consistent>
1

> <s_lp_Variant>
AV-unprocessed.smi:40-11

> <Gold.Version>
5.8.1

> <Gold.Id.Protein>
6NUR|6NUR_protein|mol2

> <Gold.PLP.Fitness>
44.6373

> <Gold.PLP.PLP>
-36.3775

> <Gold.PLP.part.hbond>
-4.7782

> <Gold.PLP.part.metal>
0.0000

> <Gold.PLP.part.buried>
-2.9944

> <Gold.PLP.part.nonpolar>
-29.6467

> <Gold.PLP.part.repulsive>
0.3905

> <Gold.PLP.ligand.clash>
0.0000

> <Gold.PLP.ligand.torsion>
1.0595

> <Gold.PLP.Chemscore.Hbond>
2.5824

> <Gold.PLP.Chemscore.CHOScore>
0.8274

> <Gold.PLP.Chemscore.Metal>
0.0000

> <Gold.Chemscore.Hbonds>
donor molecule, donor type, donor heavy atom, donor atom, acceptor molecule, acceptor atom, score
      L1  H    20    45       P1 10171  1.00
      L1  H    22    46       P1  7948  0.69
      P1  H  7954  7966       L1    22  0.32
      L1  C    23    47       P1  7948  1.00

> <Gold.PLP.Chemscore.Internal.Correction>
0.1495

> <Gold.Rescore>
     Score         DG    S(hbond)    S(metal)    S(lipo)     H(rot)  DE(clash)    DE(int)     intcor
      9.54     -12.78       2.04        0.00      85.00       3.70       0.21       3.03       ----

> <Gold.Chemscore.Fitness>
9.5428

> <Gold.Chemscore.DG>
-12.7839

> <Gold.Chemscore.ZeroCoef>
-5.4800

> <Gold.Chemscore.Hbond>
2.0419

> <Gold.Chemscore.Metal>
0.0000

> <Gold.Chemscore.Lipo>
84.9993

> <Gold.Chemscore.Internal_Hbond>
0.0000

> <Gold.Chemscore.DEClash>
0.2110

> <Gold.Chemscore.DEInternal>
3.0302

> <Gold.Chemscore.Rot>
3.6957

> <Gold.Chemscore.Internal.Correction>
   9.000000E+99

> <Gold.Chemscore.Hbonds>
donor molecule, donor type, donor heavy atom, donor atom, acceptor molecule, acceptor atom, score
      L1  H    20    45       P1 10171  0.95
      L1  H    22    46       P1  7948  0.66
      P1  H  7954  7966       L1    22  0.01

> <Gold.Chemscore.Hbond.Weighted>
-6.8200

> <Gold.Chemscore.Metal.Weighted>
-0.0000

> <Gold.Chemscore.Lipo.Weighted>
-9.9449

> <Gold.Chemscore.Internal_Hbond.Weighted>
0.0000

> <Gold.Chemscore.DEClash.Weighted>
0.2110

> <Gold.Chemscore.DEInternal.Weighted>
3.0302

> <Gold.Chemscore.Rot.Weighted>
9.4610

> <Gold.Chemscore.Internal.Correction.Weighted>
   9.000000E+99

> <Gold.Protein.RotatedTorsions>
[ 6907 6896 6895 6894 ] final   46.76 input  -60.11 | X-H torsion
[ 7974 7965 7964 7962 ] final -165.29 input  175.53 | X-H torsion
[ 8008 7997 7996 7995 ] final  -31.76 input   59.86 | X-H torsion
[ 10167 10162 10161 10158 ] final   74.65 input  -65.29 | X-H torsion
[ 10718 10713 10712 10709 ] final   26.87 input   66.30 | X-H torsion
[ 10763 10752 10751 10750 ] final -158.42 input  -60.55 | X-H torsion
[ 11005 11000 10999 10996 ] final  -37.19 input  -57.11 | X-H torsion

> <Gold.Protein.ActiveResidues>
 VAL166  LYS551  ARG553  GLY616  TRP617  ASP618  TYR619  PRO620  LYS621  CYS622 
 ASP623  PHE694  ASN695  SER759  ASP760  ASP761  ALA762  ILE779  LEU786  VAL792 
 PHE793  MET794  SER795  GLU796  ALA797  LYS798  CYS799  TRP800  GLU811  SER814 

> <Gold.Protein.RotatedAtoms>
  152.2602  134.8042  160.0431 H   0  0  0  0  0  0  0  0  0  0  0  0  # atno 6907 bound_to 6896
  151.8691  133.3467  159.3737 H   0  0  0  0  0  0  0  0  0  0  0  0  # atno 6908 bound_to 6896
  150.7114  134.5057  159.5627 H   0  0  0  0  0  0  0  0  0  0  0  0  # atno 6909 bound_to 6896
  144.7274  140.2835  143.6232 H   0  0  0  0  0  0  0  0  0  0  0  0  # atno 7974 bound_to 7965
  154.4203  140.1756  156.1618 H   0  0  0  0  0  0  0  0  0  0  0  0  # atno 8008 bound_to 7997
  155.9832  140.3375  155.6658 H   0  0  0  0  0  0  0  0  0  0  0  0  # atno 8009 bound_to 7997
  155.6472  140.0686  157.2590 H   0  0  0  0  0  0  0  0  0  0  0  0  # atno 8010 bound_to 7997
  140.0114  144.5611  150.7655 H   0  0  0  0  0  0  0  0  0  0  0  0  # atno 10167 bound_to 10162
  157.2127  130.6941  149.6235 H   0  0  0  0  0  0  0  0  0  0  0  0  # atno 10718 bound_to 10713
  154.7558  135.3104  154.8473 H   0  0  0  0  0  0  0  0  0  0  0  0  # atno 10763 bound_to 10752
  153.9247  135.6792  153.4751 H   0  0  0  0  0  0  0  0  0  0  0  0  # atno 10764 bound_to 10752
  153.1155  135.4846  154.9038 H   0  0  0  0  0  0  0  0  0  0  0  0  # atno 10765 bound_to 10752
  140.9933  133.6993  156.1888 H   0  0  0  0  0  0  0  0  0  0  0  0  # atno 11005 bound_to 11000
  145.7925  139.1932  143.2094 LP  0  0  0  0  0  0  0  0  0  0  0  0  # atno 17320 bound_to 7965
  146.0744  140.7834  142.9672 LP  0  0  0  0  0  0  0  0  0  0  0  0  # atno 17321 bound_to 7965
  140.7380  143.2772  151.3706 LP  0  0  0  0  0  0  0  0  0  0  0  0  # atno 17342 bound_to 10162
  139.6202  144.0922  152.2384 LP  0  0  0  0  0  0  0  0  0  0  0  0  # atno 17343 bound_to 10162
  155.9689  130.4546  150.5855 LP  0  0  0  0  0  0  0  0  0  0  0  0  # atno 17370 bound_to 10713
  157.3656  131.0757  151.1600 LP  0  0  0  0  0  0  0  0  0  0  0  0  # atno 17371 bound_to 10713
  140.7006  134.4568  157.5586 LP  0  0  0  0  0  0  0  0  0  0  0  0  # atno 17394 bound_to 11000
  139.9002  134.8573  156.1927 LP  0  0  0  0  0  0  0  0  0  0  0  0  # atno 17395 bound_to 11000

$$$$
