AV-unprocessed.smi:1354|AV-procd|sdf|5535|dock9
  -GOLD-   22720 5123D 1   1.00000     0.00000
 Structure written by MMmdl.
 40 42  0  0  0  0  0  0  0  0  2 V2000
  153.7873  138.2476  155.8494 O   0  0  0  0  0  0  0  0  0  0  0  0
  153.0153  138.6245  154.7301 C   0  0  0  0  0  0  0  0  0  0  0  0
  151.6881  137.8537  154.7320 C   0  0  0  0  0  0  0  0  0  0  0  0
  150.5308  138.7525  154.4385 C   0  0  0  0  0  0  0  0  0  0  0  0
  149.5351  138.5041  153.5413 N   0  3  0  0  0  0  0  0  0  0  0  0
  148.6224  139.5596  153.5435 C   0  0  0  0  0  0  0  0  0  0  0  0
  147.4614  139.7611  152.8034 C   0  0  0  0  0  0  0  0  0  0  0  0
  146.7559  140.9579  153.0461 C   0  0  0  0  0  0  0  0  0  0  0  0
  147.2086  141.8972  153.9949 C   0  0  0  0  0  0  0  0  0  0  0  0
  148.3852  141.6801  154.7413 C   0  0  0  0  0  0  0  0  0  0  0  0
  149.0792  140.4957  154.4936 C   0  0  0  0  0  0  0  0  0  0  0  0
  150.2585  139.9558  155.0213 N   0  0  0  0  0  0  0  0  0  0  0  0
  151.0019  140.7014  156.0486 C   0  0  0  0  0  0  0  0  0  0  0  0
  150.8563  140.0753  157.4433 C   0  0  0  0  0  0  0  0  0  0  0  0
  151.8509  140.6059  158.3092 O   0  0  0  0  0  0  0  0  0  0  0  0
  151.7791  141.9379  158.6585 C   0  0  0  0  0  0  0  0  0  0  0  0
  150.8089  142.8376  158.1474 C   0  0  0  0  0  0  0  0  0  0  0  0
  150.8018  144.1864  158.5521 C   0  0  0  0  0  0  0  0  0  0  0  0
  151.7601  144.6541  159.4694 C   0  0  0  0  0  0  0  0  0  0  0  0
  152.7263  143.7703  159.9828 C   0  0  0  0  0  0  0  0  0  0  0  0
  152.7355  142.4203  159.5804 C   0  0  0  0  0  0  0  0  0  0  0  0
  153.9307  141.3560  160.2307 Cl  0  0  0  0  0  0  0  0  0  0  0  0
  154.4864  137.6821  155.5573 H   0  0  0  0  0  0  0  0  0  0  0  0
  152.8376  139.6998  154.7666 H   0  0  0  0  0  0  0  0  0  0  0  0
  153.5834  138.4177  153.8227 H   0  0  0  0  0  0  0  0  0  0  0  0
  151.7134  137.0520  153.9932 H   0  0  0  0  0  0  0  0  0  0  0  0
  151.5304  137.3793  155.7014 H   0  0  0  0  0  0  0  0  0  0  0  0
  147.1131  139.0432  152.0753 H   0  0  0  0  0  0  0  0  0  0  0  0
  145.8501  141.1600  152.4930 H   0  0  0  0  0  0  0  0  0  0  0  0
  146.6445  142.8055  154.1509 H   0  0  0  0  0  0  0  0  0  0  0  0
  148.7267  142.4116  155.4585 H   0  0  0  0  0  0  0  0  0  0  0  0
  152.0497  140.7689  155.7560 H   0  0  0  0  0  0  0  0  0  0  0  0
  150.6222  141.7233  156.0592 H   0  0  0  0  0  0  0  0  0  0  0  0
  149.8617  140.2918  157.8348 H   0  0  0  0  0  0  0  0  0  0  0  0
  150.9620  138.9918  157.3687 H   0  0  0  0  0  0  0  0  0  0  0  0
  150.0582  142.5185  157.4407 H   0  0  0  0  0  0  0  0  0  0  0  0
  150.0591  144.8640  158.1573 H   0  0  0  0  0  0  0  0  0  0  0  0
  151.7543  145.6889  159.7786 H   0  0  0  0  0  0  0  0  0  0  0  0
  153.4618  144.1300  160.6875 H   0  0  0  0  0  0  0  0  0  0  0  0
  149.4881  137.6725  152.9665 H   0  0  0  0  0  0  0  0  0  0  0  0
  1  2  1  0  0  0  0
  1 23  1  0  0  0  0
  2  3  1  0  0  0  0
  2 24  1  0  0  0  0
  2 25  1  0  0  0  0
  3  4  1  0  0  0  0
  3 26  1  0  0  0  0
  3 27  1  0  0  0  0
  4 12  1  0  0  0  0
  4  5  2  0  0  0  0
  5  6  1  0  0  0  0
  5 40  1  0  0  0  0
  6 11  2  0  0  0  0
  6  7  1  0  0  0  0
  7  8  2  0  0  0  0
  7 28  1  0  0  0  0
  8  9  1  0  0  0  0
  8 29  1  0  0  0  0
  9 10  2  0  0  0  0
  9 30  1  0  0  0  0
 10 11  1  0  0  0  0
 10 31  1  0  0  0  0
 11 12  1  0  0  0  0
 12 13  1  0  0  0  0
 13 14  1  0  0  0  0
 13 32  1  0  0  0  0
 13 33  1  0  0  0  0
 14 15  1  0  0  0  0
 14 34  1  0  0  0  0
 14 35  1  0  0  0  0
 15 16  1  0  0  0  0
 16 21  1  0  0  0  0
 16 17  2  0  0  0  0
 17 18  1  0  0  0  0
 17 36  1  0  0  0  0
 18 19  2  0  0  0  0
 18 37  1  0  0  0  0
 19 20  1  0  0  0  0
 19 38  1  0  0  0  0
 20 21  2  0  0  0  0
 20 39  1  0  0  0  0
 21 22  1  0  0  0  0
M  CHG  1   5   1
M  END
> <s_m_source_file>
AV-unprocessed.smi

> <i_m_source_file_index>
1354

> <i_lp_mmshare_version>
43012

> <i_f3d_flags>
0

> <s_epik_input>
W2NIXTFbY0hdW2NIXVtjSF1jKGMxMiluKGMobjIpW0NIMl1bQ0gyXVtPSF0pW0NIMl1bQ0gyXU9jM1tjSF1bY0hdW2NIXVtjSF1jM0Ns

> <s_epik_cmdline>
J2VwaWtfcHl0aG9uJywgJy1waCcsICc3LjAnLCAnLXRuJywgJzgnLCAnLW1hJywgJzIwMCcsICctbWV0YWxfYmluZGluZycsICctaW1hZScsICc8aW5maWxlLm1hZT4nLCAnLW9tYWUnLCAnPG91dGZpbGUubWFlPic=

> <r_lp_tautomer_probability>
1

> <r_epik_Ionization_Penalty>
0.752951

> <r_epik_Ionization_Penalty_Charging>
0.752951

> <r_epik_Ionization_Penalty_Neutral>
5.89567e-08

> <r_epik_State_Penalty>
0.780107

> <r_epik_Charging_Adjusted_Penalty>
1.53306

> <i_epik_Tot_Q>
1

> <i_epik_Tot_abs_Q>
1

> <r_epik_Metal_State_Penalty>
4.68821

> <b_epik_Metal_Only>
0

> <s_lp_Force_Field>
OPLS_2005

> <r_lp_Energy>
19.8379

> <b_lp_Chiralities_Consistent>
1

> <s_lp_Variant>
AV-unprocessed.smi:1354-2

> <Gold.Version>
5.8.1

> <Gold.Id.Protein>
6NUR|6NUR_protein|mol2

> <Gold.PLP.Fitness>
59.9059

> <Gold.PLP.PLP>
-53.6771

> <Gold.PLP.part.hbond>
-3.0000

> <Gold.PLP.part.metal>
0.0000

> <Gold.PLP.part.buried>
1.1817

> <Gold.PLP.part.nonpolar>
-52.2573

> <Gold.PLP.part.repulsive>
0.0756

> <Gold.PLP.ligand.clash>
0.0000

> <Gold.PLP.ligand.torsion>
0.6914

> <Gold.PLP.Chemscore.Hbond>
2.5120

> <Gold.PLP.Chemscore.CHOScore>
0.0000

> <Gold.PLP.Chemscore.Metal>
0.0000

> <Gold.Chemscore.Hbonds>
donor molecule, donor type, donor heavy atom, donor atom, acceptor molecule, acceptor atom, score
      L1  H     5    40       P1  7948  2.00
      P1  H  7997  8010       L1     1  0.53

> <Gold.PLP.Chemscore.Internal.Correction>
0.0756

> <Gold.Rescore>
     Score         DG    S(hbond)    S(metal)    S(lipo)     H(rot)  DE(clash)    DE(int)     intcor
     18.83     -19.46       1.21        0.00     137.28       2.39       0.10       0.52       ----

> <Gold.Chemscore.Fitness>
18.8311

> <Gold.Chemscore.DG>
-19.4565

> <Gold.Chemscore.ZeroCoef>
-5.4800

> <Gold.Chemscore.Hbond>
1.2113

> <Gold.Chemscore.Metal>
0.0000

> <Gold.Chemscore.Lipo>
137.2788

> <Gold.Chemscore.Internal_Hbond>
0.0000

> <Gold.Chemscore.DEClash>
0.1016

> <Gold.Chemscore.DEInternal>
0.5238

> <Gold.Chemscore.Rot>
2.3948

> <Gold.Chemscore.Internal.Correction>
   9.000000E+99

> <Gold.Chemscore.Hbonds>
donor molecule, donor type, donor heavy atom, donor atom, acceptor molecule, acceptor atom, score
      L1  H     5    40       P1  7948  0.85
      P1  H  7997  8010       L1     1  0.13

> <Gold.Chemscore.Hbond.Weighted>
-4.0457

> <Gold.Chemscore.Metal.Weighted>
-0.0000

> <Gold.Chemscore.Lipo.Weighted>
-16.0616

> <Gold.Chemscore.Internal_Hbond.Weighted>
0.0000

> <Gold.Chemscore.DEClash.Weighted>
0.1016

> <Gold.Chemscore.DEInternal.Weighted>
0.5238

> <Gold.Chemscore.Rot.Weighted>
6.1308

> <Gold.Chemscore.Internal.Correction.Weighted>
   9.000000E+99

> <Gold.Protein.RotatedTorsions>
[ 6907 6896 6895 6894 ] final -167.95 input  -60.11 | X-H torsion
[ 7974 7965 7964 7962 ] final  154.22 input  175.53 | X-H torsion
[ 8008 7997 7996 7995 ] final   64.31 input   59.86 | X-H torsion
[ 10167 10162 10161 10158 ] final   32.29 input  -65.29 | X-H torsion
[ 10718 10713 10712 10709 ] final -178.39 input   66.30 | X-H torsion
[ 10763 10752 10751 10750 ] final -110.32 input  -60.55 | X-H torsion
[ 11005 11000 10999 10996 ] final   20.98 input  -57.11 | X-H torsion

> <Gold.Protein.ActiveResidues>
 VAL166  LYS551  ARG553  GLY616  TRP617  ASP618  TYR619  PRO620  LYS621  CYS622 
 ASP623  PHE694  ASN695  SER759  ASP760  ASP761  ALA762  ILE779  LEU786  VAL792 
 PHE793  MET794  SER795  GLU796  ALA797  LYS798  CYS799  TRP800  GLU811  SER814 

> <Gold.Protein.RotatedAtoms>
  151.4677  133.3577  159.2818 H   0  0  0  0  0  0  0  0  0  0  0  0  # atno 6907 bound_to 6896
  150.8982  134.8394  159.7352 H   0  0  0  0  0  0  0  0  0  0  0  0  # atno 6908 bound_to 6896
  152.4864  134.4594  159.9652 H   0  0  0  0  0  0  0  0  0  0  0  0  # atno 6909 bound_to 6896
  144.8103  139.6905  143.6144 H   0  0  0  0  0  0  0  0  0  0  0  0  # atno 7974 bound_to 7965
  155.6440  140.3497  155.4725 H   0  0  0  0  0  0  0  0  0  0  0  0  # atno 8008 bound_to 7997
  155.9903  140.1192  157.0668 H   0  0  0  0  0  0  0  0  0  0  0  0  # atno 8009 bound_to 7997
  154.4217  140.1121  156.5542 H   0  0  0  0  0  0  0  0  0  0  0  0  # atno 8010 bound_to 7997
  140.4512  144.1046  150.6192 H   0  0  0  0  0  0  0  0  0  0  0  0  # atno 10167 bound_to 10162
  156.8436  130.9695  151.3098 H   0  0  0  0  0  0  0  0  0  0  0  0  # atno 10718 bound_to 10713
  154.8241  135.4568  154.0867 H   0  0  0  0  0  0  0  0  0  0  0  0  # atno 10763 bound_to 10752
  153.2196  135.6892  153.8023 H   0  0  0  0  0  0  0  0  0  0  0  0  # atno 10764 bound_to 10752
  153.7445  135.3307  155.3286 H   0  0  0  0  0  0  0  0  0  0  0  0  # atno 10765 bound_to 10752
  140.3966  134.1763  155.7663 H   0  0  0  0  0  0  0  0  0  0  0  0  # atno 11005 bound_to 11000
  146.2400  139.5982  142.9498 LP  0  0  0  0  0  0  0  0  0  0  0  0  # atno 17320 bound_to 7965
  145.5341  141.0425  143.2367 LP  0  0  0  0  0  0  0  0  0  0  0  0  # atno 17321 bound_to 7965
  140.4205  143.2614  151.9721 LP  0  0  0  0  0  0  0  0  0  0  0  0  # atno 17342 bound_to 10162
  139.4797  144.5835  151.7893 LP  0  0  0  0  0  0  0  0  0  0  0  0  # atno 17343 bound_to 10162
  157.6342  130.8753  149.9328 LP  0  0  0  0  0  0  0  0  0  0  0  0  # atno 17370 bound_to 10713
  156.0867  130.3667  150.0474 LP  0  0  0  0  0  0  0  0  0  0  0  0  # atno 17371 bound_to 10713
  141.1872  133.8287  157.1041 LP  0  0  0  0  0  0  0  0  0  0  0  0  # atno 17394 bound_to 11000
  140.0367  134.9874  157.0884 LP  0  0  0  0  0  0  0  0  0  0  0  0  # atno 17395 bound_to 11000

$$$$
