AV-unprocessed.smi:3031|AV-procd|sdf|11550|dock8
  -GOLD-   2272016513D 1   1.00000     0.00000
 Structure written by MMmdl.
 48 49  0  0  0  0  0  0  0  0  3 V2000
  150.9797  142.9157  157.8821 C   0  0  0  0  0  0  0  0  0  0  0  0
  150.8925  141.6687  157.0502 C   0  0  0  0  0  0  0  0  0  0  0  0
  151.4361  140.3845  157.3389 C   0  0  0  0  0  0  0  0  0  0  0  0
  151.1786  139.4934  156.3954 N   0  0  0  0  0  0  0  0  0  0  0  0
  150.4661  140.1748  155.4734 N   0  0  0  0  0  0  0  0  0  0  0  0
  150.0005  139.4993  154.2755 C   0  0  0  0  0  0  0  0  0  0  0  0
  148.4681  139.5904  154.0843 C   0  0  1  0  0  0  0  0  0  0  0  0
  147.9706  141.0373  153.9253 C   0  0  0  0  0  0  0  0  0  0  0  0
  148.0325  138.7979  152.9123 N   0  3  0  0  0  0  0  0  0  0  0  0
  146.6047  138.4087  152.8988 C   0  0  0  0  0  0  0  0  0  0  0  0
  146.3202  137.3678  151.8012 C   0  0  2  0  0  0  0  0  0  0  0  0
  146.4517  137.9964  150.5405 O   0  0  0  0  0  0  0  0  0  0  0  0
  144.8940  136.7883  151.9100 C   0  0  0  0  0  0  0  0  0  0  0  0
  144.8608  135.3112  151.7504 N   0  3  0  0  0  0  0  0  0  0  0  0
  143.4918  134.7626  151.5791 C   0  0  0  0  0  0  0  0  0  0  0  0
  143.5365  133.2297  151.4569 C   0  0  0  0  0  0  0  0  0  0  0  0
  144.3786  132.8625  150.3717 O   0  0  0  0  0  0  0  0  0  0  0  0
  145.7165  133.3036  150.5642 C   0  0  0  0  0  0  0  0  0  0  0  0
  145.7453  134.8389  150.6581 C   0  0  0  0  0  0  0  0  0  0  0  0
  150.2766  141.4892  155.8441 C   0  0  0  0  0  0  0  0  0  0  0  0
  151.6553  142.7923  158.7289 H   0  0  0  0  0  0  0  0  0  0  0  0
  150.0073  143.1976  158.2863 H   0  0  0  0  0  0  0  0  0  0  0  0
  151.3455  143.7625  157.3013 H   0  0  0  0  0  0  0  0  0  0  0  0
  152.0062  140.0752  158.2026 H   0  0  0  0  0  0  0  0  0  0  0  0
  150.5137  139.9264  153.4120 H   0  0  0  0  0  0  0  0  0  0  0  0
  150.3221  138.4600  154.3419 H   0  0  0  0  0  0  0  0  0  0  0  0
  147.9792  139.1784  154.9686 H   0  0  0  0  0  0  0  0  0  0  0  0
  148.1680  141.6313  154.8178 H   0  0  0  0  0  0  0  0  0  0  0  0
  146.8938  141.0659  153.7554 H   0  0  0  0  0  0  0  0  0  0  0  0
  148.4537  141.5325  153.0823 H   0  0  0  0  0  0  0  0  0  0  0  0
  148.1943  139.3594  152.0879 H   0  0  0  0  0  0  0  0  0  0  0  0
  146.3462  137.9831  153.8681 H   0  0  0  0  0  0  0  0  0  0  0  0
  145.9783  139.2918  152.7616 H   0  0  0  0  0  0  0  0  0  0  0  0
  147.0598  136.5708  151.8747 H   0  0  0  0  0  0  0  0  0  0  0  0
  145.5895  138.1749  150.1951 H   0  0  0  0  0  0  0  0  0  0  0  0
  144.4449  137.0504  152.8694 H   0  0  0  0  0  0  0  0  0  0  0  0
  144.2689  137.2573  151.1479 H   0  0  0  0  0  0  0  0  0  0  0  0
  142.8590  135.0366  152.4223 H   0  0  0  0  0  0  0  0  0  0  0  0
  143.0344  135.1902  150.6853 H   0  0  0  0  0  0  0  0  0  0  0  0
  143.8929  132.7742  152.3823 H   0  0  0  0  0  0  0  0  0  0  0  0
  142.5355  132.8384  151.2744 H   0  0  0  0  0  0  0  0  0  0  0  0
  146.1368  132.8494  151.4630 H   0  0  0  0  0  0  0  0  0  0  0  0
  146.3236  132.9672  149.7237 H   0  0  0  0  0  0  0  0  0  0  0  0
  145.4245  135.2773  149.7117 H   0  0  0  0  0  0  0  0  0  0  0  0
  146.7676  135.1740  150.8375 H   0  0  0  0  0  0  0  0  0  0  0  0
  149.7255  142.1823  155.2259 H   0  0  0  0  0  0  0  0  0  0  0  0
  148.6072  137.9698  152.8481 H   0  0  0  0  0  0  0  0  0  0  0  0
  145.2345  134.9194  152.6036 H   0  0  0  0  0  0  0  0  0  0  0  0
  1  2  1  0  0  0  0
  1 21  1  0  0  0  0
  1 22  1  0  0  0  0
  1 23  1  0  0  0  0
  2 20  2  0  0  0  0
  2  3  1  0  0  0  0
  3  4  2  0  0  0  0
  3 24  1  0  0  0  0
  4  5  1  0  0  0  0
  5  6  1  0  0  0  0
  5 20  1  0  0  0  0
  6  7  1  0  0  0  0
  6 25  1  0  0  0  0
  6 26  1  0  0  0  0
  7  8  1  0  0  0  0
  7  9  1  0  0  0  0
  7 27  1  0  0  0  0
  8 28  1  0  0  0  0
  8 29  1  0  0  0  0
  8 30  1  0  0  0  0
  9 10  1  0  0  0  0
  9 31  1  0  0  0  0
  9 47  1  0  0  0  0
 10 11  1  0  0  0  0
 10 32  1  0  0  0  0
 10 33  1  0  0  0  0
 11 12  1  0  0  0  0
 11 13  1  0  0  0  0
 11 34  1  0  0  0  0
 12 35  1  0  0  0  0
 13 14  1  0  0  0  0
 13 36  1  0  0  0  0
 13 37  1  0  0  0  0
 14 19  1  0  0  0  0
 14 15  1  0  0  0  0
 14 48  1  0  0  0  0
 15 16  1  0  0  0  0
 15 38  1  0  0  0  0
 15 39  1  0  0  0  0
 16 17  1  0  0  0  0
 16 40  1  0  0  0  0
 16 41  1  0  0  0  0
 17 18  1  0  0  0  0
 18 19  1  0  0  0  0
 18 42  1  0  0  0  0
 18 43  1  0  0  0  0
 19 44  1  0  0  0  0
 19 45  1  0  0  0  0
 20 46  1  0  0  0  0
M  CHG  1   9   1
M  CHG  1  14   1
M  END
> <s_m_source_file>
AV-unprocessed.smi

> <i_m_source_file_index>
3031

> <i_lp_mmshare_version>
43012

> <i_f3d_flags>
0

> <s_epik_input>
W0NIM11jMVtjSF1ubihbY0hdMSlbQ0gyXVtDQEhdKFtDSDNdKVtOSF1bQ0gyXVtDQEhdKFtPSF0pW0NIMl1OMltDSDJdW0NIMl1PW0NIMl1bQ0gyXTI=

> <s_epik_cmdline>
J2VwaWtfcHl0aG9uJywgJy1waCcsICc3LjAnLCAnLXRuJywgJzgnLCAnLW1hJywgJzIwMCcsICctbWV0YWxfYmluZGluZycsICctaW1hZScsICc8aW5maWxlLm1hZT4nLCAnLW9tYWUnLCAnPG91dGZpbGUubWFlPic=

> <r_lp_tautomer_probability>
1

> <r_epik_Ionization_Penalty>
1.76542

> <r_epik_Ionization_Penalty_Charging>
1.76348

> <r_epik_Ionization_Penalty_Neutral>
0.00194017

> <r_epik_State_Penalty>
1.49348

> <r_epik_Charging_Adjusted_Penalty>
3.25696

> <i_epik_Tot_Q>
2

> <i_epik_Tot_abs_Q>
2

> <r_epik_Metal_State_Penalty>
1.49349

> <b_epik_Metal_Only>
0

> <s_lp_Force_Field>
OPLS_2005

> <r_lp_Energy>
28.4524

> <b_lp_Chiralities_Consistent>
1

> <s_lp_Variant>
AV-unprocessed.smi:3031-10

> <Gold.Version>
5.8.1

> <Gold.Id.Protein>
6NUR|6NUR_protein|mol2

> <Gold.PLP.Fitness>
52.3181

> <Gold.PLP.PLP>
-38.2838

> <Gold.PLP.part.hbond>
-4.2085

> <Gold.PLP.part.metal>
0.0000

> <Gold.PLP.part.buried>
0.5634

> <Gold.PLP.part.nonpolar>
-34.0274

> <Gold.PLP.part.repulsive>
0.2142

> <Gold.PLP.ligand.clash>
0.0000

> <Gold.PLP.ligand.torsion>
1.0028

> <Gold.PLP.Chemscore.Hbond>
4.5200

> <Gold.PLP.Chemscore.CHOScore>
0.7319

> <Gold.PLP.Chemscore.Metal>
0.0000

> <Gold.Chemscore.Hbonds>
donor molecule, donor type, donor heavy atom, donor atom, acceptor molecule, acceptor atom, score
      L1  H     9    31       P1  7957  0.78
      L1  H     9    47       P1  7948  1.86
      L1  H    12    35       P1 10171  1.00
      P1  H  7954  7966       L1    12  0.93
      L1  C    20    46       P1  8028  0.57

> <Gold.PLP.Chemscore.Internal.Correction>
0.2843

> <Gold.Rescore>
     Score         DG    S(hbond)    S(metal)    S(lipo)     H(rot)  DE(clash)    DE(int)     intcor
     19.15     -21.21       3.60        0.00      91.62       2.74       1.01       1.05       ----

> <Gold.Chemscore.Fitness>
19.1465

> <Gold.Chemscore.DG>
-21.2078

> <Gold.Chemscore.ZeroCoef>
-5.4800

> <Gold.Chemscore.Hbond>
3.6022

> <Gold.Chemscore.Metal>
0.0000

> <Gold.Chemscore.Lipo>
91.6193

> <Gold.Chemscore.Internal_Hbond>
0.0000

> <Gold.Chemscore.DEClash>
1.0111

> <Gold.Chemscore.DEInternal>
1.0502

> <Gold.Chemscore.Rot>
2.7434

> <Gold.Chemscore.Internal.Correction>
   9.000000E+99

> <Gold.Chemscore.Hbonds>
donor molecule, donor type, donor heavy atom, donor atom, acceptor molecule, acceptor atom, score
      L1  H     9    31       P1  7957  0.78
      L1  H     9    47       P1  7948  0.85
      L1  H    12    35       P1 10171  1.00
      P1  H  7954  7966       L1    12  0.75

> <Gold.Chemscore.Hbond.Weighted>
-12.0314

> <Gold.Chemscore.Metal.Weighted>
-0.0000

> <Gold.Chemscore.Lipo.Weighted>
-10.7195

> <Gold.Chemscore.Internal_Hbond.Weighted>
0.0000

> <Gold.Chemscore.DEClash.Weighted>
1.0111

> <Gold.Chemscore.DEInternal.Weighted>
1.0502

> <Gold.Chemscore.Rot.Weighted>
7.0231

> <Gold.Chemscore.Internal.Correction.Weighted>
   9.000000E+99

> <Gold.Protein.RotatedTorsions>
[ 6907 6896 6895 6894 ] final  -93.08 input  -60.11 | X-H torsion
[ 7974 7965 7964 7962 ] final  -82.75 input  175.53 | X-H torsion
[ 8008 7997 7996 7995 ] final -150.08 input   59.86 | X-H torsion
[ 10167 10162 10161 10158 ] final   72.91 input  -65.29 | X-H torsion
[ 10718 10713 10712 10709 ] final   93.17 input   66.30 | X-H torsion
[ 10763 10752 10751 10750 ] final  -94.12 input  -60.55 | X-H torsion
[ 11005 11000 10999 10996 ] final   52.97 input  -57.11 | X-H torsion

> <Gold.Protein.ActiveResidues>
 VAL166  LYS551  ARG553  GLY616  TRP617  ASP618  TYR619  PRO620  LYS621  CYS622 
 ASP623  PHE694  ASN695  SER759  ASP760  ASP761  ALA762  ILE779  LEU786  VAL792 
 PHE793  MET794  SER795  GLU796  ALA797  LYS798  CYS799  TRP800  GLU811  SER814 

> <Gold.Protein.RotatedAtoms>
  150.6916  134.2022  159.4326 H   0  0  0  0  0  0  0  0  0  0  0  0  # atno 6907 bound_to 6896
  151.9988  134.9937  160.0573 H   0  0  0  0  0  0  0  0  0  0  0  0  # atno 6908 bound_to 6896
  152.1598  133.4539  159.4892 H   0  0  0  0  0  0  0  0  0  0  0  0  # atno 6909 bound_to 6896
  145.5292  140.9523  143.1613 H   0  0  0  0  0  0  0  0  0  0  0  0  # atno 7974 bound_to 7965
  155.6178  140.0678  157.2687 H   0  0  0  0  0  0  0  0  0  0  0  0  # atno 8008 bound_to 7997
  154.4237  140.1790  156.1388 H   0  0  0  0  0  0  0  0  0  0  0  0  # atno 8009 bound_to 7997
  156.0034  140.3334  155.6871 H   0  0  0  0  0  0  0  0  0  0  0  0  # atno 8010 bound_to 7997
  140.0302  144.5472  150.7513 H   0  0  0  0  0  0  0  0  0  0  0  0  # atno 10167 bound_to 10162
  157.6956  131.0469  150.3993 H   0  0  0  0  0  0  0  0  0  0  0  0  # atno 10718 bound_to 10713
  154.7025  135.5169  153.8547 H   0  0  0  0  0  0  0  0  0  0  0  0  # atno 10763 bound_to 10752
  153.0715  135.6602  154.0247 H   0  0  0  0  0  0  0  0  0  0  0  0  # atno 10764 bound_to 10752
  154.0103  135.3002  155.3372 H   0  0  0  0  0  0  0  0  0  0  0  0  # atno 10765 bound_to 10752
  140.0805  134.5345  155.8951 H   0  0  0  0  0  0  0  0  0  0  0  0  # atno 11005 bound_to 11000
  144.7635  139.6900  143.7224 LP  0  0  0  0  0  0  0  0  0  0  0  0  # atno 17320 bound_to 7965
  146.2055  139.5377  142.9715 LP  0  0  0  0  0  0  0  0  0  0  0  0  # atno 17321 bound_to 7965
  140.7305  143.2684  151.3967 LP  0  0  0  0  0  0  0  0  0  0  0  0  # atno 17342 bound_to 10162
  139.6081  144.1155  152.2270 LP  0  0  0  0  0  0  0  0  0  0  0  0  # atno 17343 bound_to 10162
  156.4388  130.3987  149.6711 LP  0  0  0  0  0  0  0  0  0  0  0  0  # atno 17370 bound_to 10713
  156.3902  130.7623  151.2623 LP  0  0  0  0  0  0  0  0  0  0  0  0  # atno 17371 bound_to 10713
  141.2045  133.6639  156.6124 LP  0  0  0  0  0  0  0  0  0  0  0  0  # atno 17394 bound_to 11000
  140.3494  134.7781  157.4456 LP  0  0  0  0  0  0  0  0  0  0  0  0  # atno 17395 bound_to 11000

$$$$
