AV-unprocessed.smi:1397|AV-procd|sdf|5679|dock8
  -GOLD-   22720 5303D 1   1.00000     0.00000
 Structure written by MMmdl.
 37 38  0  0  0  0  0  0  0  0  1 V2000
  149.5735  135.9142  156.7083 C   0  0  0  0  0  0  0  0  0  0  0  0
  150.2922  136.7049  155.6127 C   0  0  0  0  0  0  0  0  0  0  0  0
  151.4163  136.3335  155.2752 O   0  0  0  0  0  0  0  0  0  0  0  0
  149.6752  137.7738  155.0533 N   0  0  0  0  0  0  0  0  0  0  0  0
  148.3597  138.2523  155.4953 C   0  0  0  0  0  0  0  0  0  0  0  0
  148.5297  139.6105  156.1996 C   0  0  0  0  0  0  0  0  0  0  0  0
  149.2423  140.6315  155.2838 C   0  0  0  0  0  0  0  0  0  0  0  0
  149.5620  141.8516  156.0194 N   0  0  0  0  0  0  0  0  0  0  0  0
  150.2019  141.8991  157.1973 C   0  0  0  0  0  0  0  0  0  0  0  0
  150.6047  140.8986  157.7917 O   0  0  0  0  0  0  0  0  0  0  0  0
  150.3373  143.1663  157.6269 N   0  0  0  0  0  0  0  0  0  0  0  0
  150.9419  143.6276  158.8270 C   0  0  0  0  0  0  0  0  0  0  0  0
  150.9318  145.0301  159.0017 C   0  0  0  0  0  0  0  0  0  0  0  0
  151.5058  145.5883  160.1604 C   0  0  0  0  0  0  0  0  0  0  0  0
  152.0763  144.7285  161.1158 C   0  0  0  0  0  0  0  0  0  0  0  0
  152.0453  143.3443  160.8647 C   0  0  0  0  0  0  0  0  0  0  0  0
  151.4956  142.8073  159.7551 N   0  0  0  0  0  0  0  0  0  0  0  0
  150.5308  140.0358  154.6782 C   0  0  0  0  0  0  0  0  0  0  0  0
  150.2623  138.6607  154.0407 C   0  0  0  0  0  0  0  0  0  0  0  0
  148.6281  135.5143  156.3407 H   0  0  0  0  0  0  0  0  0  0  0  0
  149.3798  136.5452  157.5760 H   0  0  0  0  0  0  0  0  0  0  0  0
  150.1840  135.0733  157.0390 H   0  0  0  0  0  0  0  0  0  0  0  0
  147.7048  138.3595  154.6294 H   0  0  0  0  0  0  0  0  0  0  0  0
  147.8562  137.5513  156.1623 H   0  0  0  0  0  0  0  0  0  0  0  0
  147.5549  139.9931  156.5045 H   0  0  0  0  0  0  0  0  0  0  0  0
  149.1063  139.4681  157.1151 H   0  0  0  0  0  0  0  0  0  0  0  0
  148.5735  140.8777  154.4566 H   0  0  0  0  0  0  0  0  0  0  0  0
  149.2692  142.7227  155.6016 H   0  0  0  0  0  0  0  0  0  0  0  0
  149.9578  143.8852  157.0291 H   0  0  0  0  0  0  0  0  0  0  0  0
  150.4889  145.6765  158.2577 H   0  0  0  0  0  0  0  0  0  0  0  0
  151.5079  146.6577  160.3126 H   0  0  0  0  0  0  0  0  0  0  0  0
  152.5261  145.1193  162.0164 H   0  0  0  0  0  0  0  0  0  0  0  0
  152.4741  142.6497  161.5719 H   0  0  0  0  0  0  0  0  0  0  0  0
  150.9431  140.7171  153.9331 H   0  0  0  0  0  0  0  0  0  0  0  0
  151.2911  139.9277  155.4537 H   0  0  0  0  0  0  0  0  0  0  0  0
  151.1788  138.2743  153.5977 H   0  0  0  0  0  0  0  0  0  0  0  0
  149.5618  138.7665  153.2110 H   0  0  0  0  0  0  0  0  0  0  0  0
  1  2  1  0  0  0  0
  1 20  1  0  0  0  0
  1 21  1  0  0  0  0
  1 22  1  0  0  0  0
  2  3  2  0  0  0  0
  2  4  1  0  0  0  0
  4 19  1  0  0  0  0
  4  5  1  0  0  0  0
  5  6  1  0  0  0  0
  5 23  1  0  0  0  0
  5 24  1  0  0  0  0
  6  7  1  0  0  0  0
  6 25  1  0  0  0  0
  6 26  1  0  0  0  0
  7  8  1  0  0  0  0
  7 18  1  0  0  0  0
  7 27  1  0  0  0  0
  8  9  1  0  0  0  0
  8 28  1  0  0  0  0
  9 10  2  0  0  0  0
  9 11  1  0  0  0  0
 11 12  1  0  0  0  0
 11 29  1  0  0  0  0
 12 17  1  0  0  0  0
 12 13  2  0  0  0  0
 13 14  1  0  0  0  0
 13 30  1  0  0  0  0
 14 15  2  0  0  0  0
 14 31  1  0  0  0  0
 15 16  1  0  0  0  0
 15 32  1  0  0  0  0
 16 17  2  0  0  0  0
 16 33  1  0  0  0  0
 18 19  1  0  0  0  0
 18 34  1  0  0  0  0
 18 35  1  0  0  0  0
 19 36  1  0  0  0  0
 19 37  1  0  0  0  0
M  END
> <s_m_source_file>
AV-unprocessed.smi

> <i_m_source_file_index>
1397

> <i_lp_mmshare_version>
43012

> <i_f3d_flags>
0

> <s_epik_input>
W0NIM11DKD1PKU4xW0NIMl1bQ0gyXVtDSF0oW0NIMl1bQ0gyXTEpW05IXUMoPU8pW05IXWMyW2NIXVtjSF1bY0hdW2NIXW4y

> <s_epik_cmdline>
J2VwaWtfcHl0aG9uJywgJy1waCcsICc3LjAnLCAnLXRuJywgJzgnLCAnLW1hJywgJzIwMCcsICctbWV0YWxfYmluZGluZycsICctaW1hZScsICc8aW5maWxlLm1hZT4nLCAnLW9tYWUnLCAnPG91dGZpbGUubWFlPic=

> <r_lp_tautomer_probability>
1

> <r_epik_Ionization_Penalty>
4.8787e-05

> <r_epik_Ionization_Penalty_Charging>
0

> <r_epik_Ionization_Penalty_Neutral>
4.8787e-05

> <r_epik_State_Penalty>
-0

> <r_epik_Charging_Adjusted_Penalty>
0

> <i_epik_Tot_Q>
0

> <i_epik_Tot_abs_Q>
0

> <r_epik_Metal_State_Penalty>
-0

> <b_epik_Metal_Only>
0

> <s_lp_Force_Field>
OPLS_2005

> <r_lp_Energy>
25.5882

> <b_lp_Chiralities_Consistent>
1

> <s_lp_Variant>
AV-unprocessed.smi:1397-1

> <Gold.Version>
5.8.1

> <Gold.Id.Protein>
6NUR|6NUR_protein|mol2

> <Gold.PLP.Fitness>
40.5651

> <Gold.PLP.PLP>
-31.7749

> <Gold.PLP.part.hbond>
-3.0000

> <Gold.PLP.part.metal>
0.0000

> <Gold.PLP.part.buried>
-3.5828

> <Gold.PLP.part.nonpolar>
-26.1416

> <Gold.PLP.part.repulsive>
0.2339

> <Gold.PLP.ligand.clash>
0.0000

> <Gold.PLP.ligand.torsion>
0.1114

> <Gold.PLP.Chemscore.Hbond>
3.0000

> <Gold.PLP.Chemscore.CHOScore>
0.0000

> <Gold.PLP.Chemscore.Metal>
0.0000

> <Gold.Chemscore.Hbonds>
donor molecule, donor type, donor heavy atom, donor atom, acceptor molecule, acceptor atom, score
      L1  H     8    28       P1  8028  0.99
      L1  H    11    29       P1  8028  1.00
      P1  H 10752 10765       L1     3  1.00

> <Gold.PLP.Chemscore.Internal.Correction>
0.0131

> <Gold.Rescore>
     Score         DG    S(hbond)    S(metal)    S(lipo)     H(rot)  DE(clash)    DE(int)     intcor
     16.97     -19.91       2.63        0.00      70.22       1.00       0.25       2.69       ----

> <Gold.Chemscore.Fitness>
16.9674

> <Gold.Chemscore.DG>
-19.9080

> <Gold.Chemscore.ZeroCoef>
-5.4800

> <Gold.Chemscore.Hbond>
2.6264

> <Gold.Chemscore.Metal>
0.0000

> <Gold.Chemscore.Lipo>
70.2208

> <Gold.Chemscore.Internal_Hbond>
0.0000

> <Gold.Chemscore.DEClash>
0.2501

> <Gold.Chemscore.DEInternal>
2.6905

> <Gold.Chemscore.Rot>
1.0000

> <Gold.Chemscore.Internal.Correction>
   9.000000E+99

> <Gold.Chemscore.Hbonds>
donor molecule, donor type, donor heavy atom, donor atom, acceptor molecule, acceptor atom, score
      L1  H     8    28       P1  8028  0.90
      L1  H    11    29       P1  8028  0.94
      P1  H 10752 10765       L1     3  0.98

> <Gold.Chemscore.Hbond.Weighted>
-8.7722

> <Gold.Chemscore.Metal.Weighted>
-0.0000

> <Gold.Chemscore.Lipo.Weighted>
-8.2158

> <Gold.Chemscore.Internal_Hbond.Weighted>
0.0000

> <Gold.Chemscore.DEClash.Weighted>
0.2501

> <Gold.Chemscore.DEInternal.Weighted>
2.6905

> <Gold.Chemscore.Rot.Weighted>
2.5600

> <Gold.Chemscore.Internal.Correction.Weighted>
   9.000000E+99

> <Gold.Protein.RotatedTorsions>
[ 6907 6896 6895 6894 ] final  159.90 input  -60.11 | X-H torsion
[ 7974 7965 7964 7962 ] final -124.82 input  175.53 | X-H torsion
[ 8008 7997 7996 7995 ] final  -42.89 input   59.86 | X-H torsion
[ 10167 10162 10161 10158 ] final  172.61 input  -65.29 | X-H torsion
[ 10718 10713 10712 10709 ] final   41.24 input   66.30 | X-H torsion
[ 10763 10752 10751 10750 ] final -157.26 input  -60.55 | X-H torsion
[ 11005 11000 10999 10996 ] final -141.17 input  -57.11 | X-H torsion

> <Gold.Protein.ActiveResidues>
 VAL166  LYS551  ARG553  GLY616  TRP617  ASP618  TYR619  PRO620  LYS621  CYS622 
 ASP623  PHE694  ASN695  SER759  ASP760  ASP761  ALA762  ILE779  LEU786  VAL792 
 PHE793  MET794  SER795  GLU796  ALA797  LYS798  CYS799  TRP800  GLU811  SER814 

> <Gold.Protein.RotatedAtoms>
  151.9787  133.3750  159.4098 H   0  0  0  0  0  0  0  0  0  0  0  0  # atno 6907 bound_to 6896
  150.6938  134.4062  159.5150 H   0  0  0  0  0  0  0  0  0  0  0  0  # atno 6908 bound_to 6896
  152.1778  134.8780  160.0580 H   0  0  0  0  0  0  0  0  0  0  0  0  # atno 6909 bound_to 6896
  145.0040  140.7846  143.4478 H   0  0  0  0  0  0  0  0  0  0  0  0  # atno 7974 bound_to 7965
  154.3998  140.1462  156.3428 H   0  0  0  0  0  0  0  0  0  0  0  0  # atno 8008 bound_to 7997
  155.8340  140.3464  155.5569 H   0  0  0  0  0  0  0  0  0  0  0  0  # atno 8009 bound_to 7997
  155.8157  140.0890  157.1868 H   0  0  0  0  0  0  0  0  0  0  0  0  # atno 8010 bound_to 7997
  139.5082  144.3354  152.0070 H   0  0  0  0  0  0  0  0  0  0  0  0  # atno 10167 bound_to 10162
  157.3913  130.7808  149.7272 H   0  0  0  0  0  0  0  0  0  0  0  0  # atno 10718 bound_to 10713
  154.7649  135.3128  154.8305 H   0  0  0  0  0  0  0  0  0  0  0  0  # atno 10763 bound_to 10752
  153.9056  135.6811  153.4757 H   0  0  0  0  0  0  0  0  0  0  0  0  # atno 10764 bound_to 10752
  153.1254  135.4804  154.9196 H   0  0  0  0  0  0  0  0  0  0  0  0  # atno 10765 bound_to 10752
  140.8350  134.2470  157.4838 H   0  0  0  0  0  0  0  0  0  0  0  0  # atno 11005 bound_to 11000
  145.2113  139.2203  143.5141 LP  0  0  0  0  0  0  0  0  0  0  0  0  # atno 17320 bound_to 7965
  146.3457  140.1952  142.8589 LP  0  0  0  0  0  0  0  0  0  0  0  0  # atno 17321 bound_to 7965
  140.2793  144.3877  150.6124 LP  0  0  0  0  0  0  0  0  0  0  0  0  # atno 17342 bound_to 10162
  140.6030  143.2167  151.7035 LP  0  0  0  0  0  0  0  0  0  0  0  0  # atno 17343 bound_to 10162
  155.9799  130.4035  150.3560 LP  0  0  0  0  0  0  0  0  0  0  0  0  # atno 17370 bound_to 10713
  157.1676  131.0361  151.2811 LP  0  0  0  0  0  0  0  0  0  0  0  0  # atno 17371 bound_to 10713
  139.8704  134.9606  156.4369 LP  0  0  0  0  0  0  0  0  0  0  0  0  # atno 17394 bound_to 11000
  140.8957  133.7816  155.9622 LP  0  0  0  0  0  0  0  0  0  0  0  0  # atno 17395 bound_to 11000

$$$$
