AV-unprocessed.smi:3070|AV-procd|sdf|11711|dock9
  -GOLD-   2272017113D 1   1.00000     0.00000
 Structure written by MMmdl.
 21 22  0  0  0  0  0  0  0  0  2 V2000
  147.3692  133.1962  152.4642 C   0  0  0  0  0  0  0  0  0  0  0  0
  147.4526  131.9433  153.0017 N   0  0  0  0  0  0  0  0  0  0  0  0
  146.5014  131.3387  152.3041 C   0  0  0  0  0  0  0  0  0  0  0  0
  145.8877  132.1327  151.4246 N   0  0  0  0  0  0  0  0  0  0  0  0
  144.8081  131.8414  150.4932 C   0  0  2  0  0  0  0  0  0  0  0  0
  145.0033  132.4476  149.1038 C   0  0  0  0  0  0  0  0  0  0  0  0
  143.5865  132.4297  148.5278 C   0  0  0  0  0  0  0  0  0  0  0  0
  142.6702  132.5728  149.6778 N   0  3  0  0  0  0  0  0  0  0  0  0
  143.4460  132.4008  150.9222 C   0  0  0  0  0  0  0  0  0  0  0  0
  146.4475  133.3638  151.5157 N   0  0  0  0  0  0  0  0  0  0  0  0
  148.0061  134.0088  152.7816 H   0  0  0  0  0  0  0  0  0  0  0  0
  146.2472  130.2974  152.4389 H   0  0  0  0  0  0  0  0  0  0  0  0
  144.7265  130.7576  150.3917 H   0  0  0  0  0  0  0  0  0  0  0  0
  145.3551  133.4780  149.1726 H   0  0  0  0  0  0  0  0  0  0  0  0
  145.7145  131.8903  148.4934 H   0  0  0  0  0  0  0  0  0  0  0  0
  143.4261  133.2136  147.7872 H   0  0  0  0  0  0  0  0  0  0  0  0
  143.3895  131.4696  148.0491 H   0  0  0  0  0  0  0  0  0  0  0  0
  142.2494  133.4911  149.6733 H   0  0  0  0  0  0  0  0  0  0  0  0
  142.9314  131.7476  151.6273 H   0  0  0  0  0  0  0  0  0  0  0  0
  143.5472  133.3816  151.3884 H   0  0  0  0  0  0  0  0  0  0  0  0
  141.9482  131.8687  149.6192 H   0  0  0  0  0  0  0  0  0  0  0  0
  1 10  2  0  0  0  0
  1  2  1  0  0  0  0
  1 11  1  0  0  0  0
  2  3  2  0  0  0  0
  3  4  1  0  0  0  0
  3 12  1  0  0  0  0
  4  5  1  0  0  0  0
  4 10  1  0  0  0  0
  5  9  1  0  0  0  0
  5  6  1  0  0  0  0
  5 13  1  0  0  0  0
  6  7  1  0  0  0  0
  6 14  1  0  0  0  0
  6 15  1  0  0  0  0
  7  8  1  0  0  0  0
  7 16  1  0  0  0  0
  7 17  1  0  0  0  0
  8  9  1  0  0  0  0
  8 18  1  0  0  0  0
  8 21  1  0  0  0  0
  9 19  1  0  0  0  0
  9 20  1  0  0  0  0
M  CHG  1   8   1
M  END
> <s_m_source_file>
AV-unprocessed.smi

> <i_m_source_file_index>
3070

> <i_lp_mmshare_version>
43012

> <i_f3d_flags>
0

> <s_epik_input>
bjFbY0hdbltjSF1uMVtDQEBIXTJbQ0gyXVtDSDJdW05IXVtDSDJdMg==

> <s_epik_cmdline>
J2VwaWtfcHl0aG9uJywgJy1waCcsICc3LjAnLCAnLXRuJywgJzgnLCAnLW1hJywgJzIwMCcsICctbWV0YWxfYmluZGluZycsICctaW1hZScsICc8aW5maWxlLm1hZT4nLCAnLW9tYWUnLCAnPG91dGZpbGUubWFlPic=

> <r_lp_tautomer_probability>
1

> <r_epik_Ionization_Penalty>
0.000421274

> <r_epik_Ionization_Penalty_Charging>
0.000420295

> <r_epik_Ionization_Penalty_Neutral>
9.79543e-07

> <r_epik_State_Penalty>
0.000258452

> <r_epik_Charging_Adjusted_Penalty>
0.000678746

> <i_epik_Tot_Q>
1

> <i_epik_Tot_abs_Q>
1

> <r_epik_Metal_State_Penalty>
-0

> <b_epik_Metal_Only>
0

> <s_lp_Force_Field>
OPLS_2005

> <r_lp_Energy>
29.098

> <b_lp_Chiralities_Consistent>
1

> <s_lp_Variant>
AV-unprocessed.smi:3070-1

> <Gold.Version>
5.8.1

> <Gold.Id.Protein>
6NUR|6NUR_protein|mol2

> <Gold.PLP.Fitness>
33.4893

> <Gold.PLP.PLP>
-22.3603

> <Gold.PLP.part.hbond>
-1.8468

> <Gold.PLP.part.metal>
0.0000

> <Gold.PLP.part.buried>
-1.7712

> <Gold.PLP.part.nonpolar>
-18.7148

> <Gold.PLP.part.repulsive>
0.4019

> <Gold.PLP.ligand.clash>
0.0000

> <Gold.PLP.ligand.torsion>
0.4203

> <Gold.PLP.Chemscore.Hbond>
3.0000

> <Gold.PLP.Chemscore.CHOScore>
0.9882

> <Gold.PLP.Chemscore.Metal>
0.0000

> <Gold.Chemscore.Hbonds>
donor molecule, donor type, donor heavy atom, donor atom, acceptor molecule, acceptor atom, score
      L1  H     8    18       P1 10186  2.00
      L1  H     8    21       P1 10952  1.00
      L1  C     1    11       P1  7948  0.98

> <Gold.PLP.Chemscore.Internal.Correction>
0.0050

> <Gold.Rescore>
     Score         DG    S(hbond)    S(metal)    S(lipo)     H(rot)  DE(clash)    DE(int)     intcor
     14.53     -14.92       2.00        0.00      45.52       1.00       0.37       0.03       ----

> <Gold.Chemscore.Fitness>
14.5266

> <Gold.Chemscore.DG>
-14.9245

> <Gold.Chemscore.ZeroCoef>
-5.4800

> <Gold.Chemscore.Hbond>
1.9995

> <Gold.Chemscore.Metal>
0.0000

> <Gold.Chemscore.Lipo>
45.5216

> <Gold.Chemscore.Internal_Hbond>
0.0000

> <Gold.Chemscore.DEClash>
0.3669

> <Gold.Chemscore.DEInternal>
0.0311

> <Gold.Chemscore.Rot>
1.0000

> <Gold.Chemscore.Internal.Correction>
   9.000000E+99

> <Gold.Chemscore.Hbonds>
donor molecule, donor type, donor heavy atom, donor atom, acceptor molecule, acceptor atom, score
      L1  H     8    18       P1 10186  0.91
      L1  H     8    21       P1 10952  1.00

> <Gold.Chemscore.Hbond.Weighted>
-6.6785

> <Gold.Chemscore.Metal.Weighted>
-0.0000

> <Gold.Chemscore.Lipo.Weighted>
-5.3260

> <Gold.Chemscore.Internal_Hbond.Weighted>
0.0000

> <Gold.Chemscore.DEClash.Weighted>
0.3669

> <Gold.Chemscore.DEInternal.Weighted>
0.0311

> <Gold.Chemscore.Rot.Weighted>
2.5600

> <Gold.Chemscore.Internal.Correction.Weighted>
   9.000000E+99

> <Gold.Protein.RotatedTorsions>
[ 6907 6896 6895 6894 ] final  141.33 input  -60.11 | X-H torsion
[ 7974 7965 7964 7962 ] final   -9.19 input  175.53 | X-H torsion
[ 8008 7997 7996 7995 ] final   59.88 input   59.86 | X-H torsion
[ 10167 10162 10161 10158 ] final  -66.25 input  -65.29 | X-H torsion
[ 10718 10713 10712 10709 ] final   66.40 input   66.30 | X-H torsion
[ 10763 10752 10751 10750 ] final  -87.51 input  -60.55 | X-H torsion
[ 11005 11000 10999 10996 ] final  169.63 input  -57.11 | X-H torsion

> <Gold.Protein.ActiveResidues>
 VAL166  LYS551  ARG553  GLY616  TRP617  ASP618  TYR619  PRO620  LYS621  CYS622 
 ASP623  PHE694  ASN695  SER759  ASP760  ASP761  ALA762  ILE779  LEU786  VAL792 
 PHE793  MET794  SER795  GLU796  ALA797  LYS798  CYS799  TRP800  GLU811  SER814 

> <Gold.Protein.RotatedAtoms>
  152.2323  133.5068  159.5222 H   0  0  0  0  0  0  0  0  0  0  0  0  # atno 6907 bound_to 6896
  150.7041  134.1200  159.4040 H   0  0  0  0  0  0  0  0  0  0  0  0  # atno 6908 bound_to 6896
  151.9121  135.0334  160.0566 H   0  0  0  0  0  0  0  0  0  0  0  0  # atno 6909 bound_to 6896
  146.2259  140.2580  142.8350 H   0  0  0  0  0  0  0  0  0  0  0  0  # atno 7974 bound_to 7965
  155.5734  140.3490  155.4521 H   0  0  0  0  0  0  0  0  0  0  0  0  # atno 8008 bound_to 7997
  156.0427  140.1299  157.0163 H   0  0  0  0  0  0  0  0  0  0  0  0  # atno 8009 bound_to 7997
  154.4399  140.1020  156.6246 H   0  0  0  0  0  0  0  0  0  0  0  0  # atno 8010 bound_to 7997
  140.5670  143.2315  151.6614 H   0  0  0  0  0  0  0  0  0  0  0  0  # atno 10167 bound_to 10162
  157.6166  130.9265  150.0103 H   0  0  0  0  0  0  0  0  0  0  0  0  # atno 10718 bound_to 10713
  154.6344  135.5410  153.7717 H   0  0  0  0  0  0  0  0  0  0  0  0  # atno 10763 bound_to 10752
  153.0301  135.6444  154.1253 H   0  0  0  0  0  0  0  0  0  0  0  0  # atno 10764 bound_to 10752
  154.1181  135.2922  155.3195 H   0  0  0  0  0  0  0  0  0  0  0  0  # atno 10765 bound_to 10752
  140.2998  134.7605  157.3906 H   0  0  0  0  0  0  0  0  0  0  0  0  # atno 11005 bound_to 11000
  144.9361  140.8028  143.5659 LP  0  0  0  0  0  0  0  0  0  0  0  0  # atno 17320 bound_to 7965
  145.2528  139.2024  143.4933 LP  0  0  0  0  0  0  0  0  0  0  0  0  # atno 17321 bound_to 7965
  139.5098  144.3564  152.0603 LP  0  0  0  0  0  0  0  0  0  0  0  0  # atno 17342 bound_to 10162
  140.2697  144.3977  150.6155 LP  0  0  0  0  0  0  0  0  0  0  0  0  # atno 17343 bound_to 10162
  156.1291  130.3644  149.9760 LP  0  0  0  0  0  0  0  0  0  0  0  0  # atno 17370 bound_to 10713
  156.7825  130.9226  151.3646 LP  0  0  0  0  0  0  0  0  0  0  0  0  # atno 17371 bound_to 10713
  140.1120  134.5333  155.8258 LP  0  0  0  0  0  0  0  0  0  0  0  0  # atno 17394 bound_to 11000
  141.2130  133.6727  156.6706 LP  0  0  0  0  0  0  0  0  0  0  0  0  # atno 17395 bound_to 11000

$$$$
