AV-unprocessed.smi:3176|AV-procd|sdf|12125|dock6
  -GOLD-   2272017563D 1   1.00000     0.00000
 Structure written by MMmdl.
 32 33  0  0  0  0  0  0  0  0  1 V2000
  152.0636  140.5791  158.5796 O   0  0  0  0  0  0  0  0  0  0  0  0
  151.6684  141.7081  158.8712 C   0  0  0  0  0  0  0  0  0  0  0  0
  150.5283  142.2266  158.3888 N   0  0  0  0  0  0  0  0  0  0  0  0
  149.6629  141.5916  157.4000 C   0  0  0  0  0  0  0  0  0  0  0  0
  150.2294  141.6882  155.9688 C   0  0  0  0  0  0  0  0  0  0  0  0
  150.7189  140.3576  155.4206 C   0  0  0  0  0  0  0  0  0  0  0  0
  151.8551  139.7264  155.9715 C   0  0  0  0  0  0  0  0  0  0  0  0
  152.2857  138.5093  155.4101 C   0  0  0  0  0  0  0  0  0  0  0  0
  151.5644  137.9699  154.3278 C   0  0  0  0  0  0  0  0  0  0  0  0
  150.4404  138.6752  153.8533 C   0  0  0  0  0  0  0  0  0  0  0  0
  150.0208  139.8447  154.3825 N   0  0  0  0  0  0  0  0  0  0  0  0
  152.4854  142.5961  159.8245 C   0  0  1  0  0  0  0  0  0  0  0  0
  152.7918  143.9985  159.2662 C   0  0  0  0  0  0  0  0  0  0  0  0
  151.8204  144.8916  160.0087 C   0  0  0  0  0  0  0  0  0  0  0  0
  151.7406  144.1946  161.3582 C   0  0  0  0  0  0  0  0  0  0  0  0
  151.7403  142.8136  161.0273 O   0  0  0  0  0  0  0  0  0  0  0  0
  150.2736  143.1573  158.6878 H   0  0  0  0  0  0  0  0  0  0  0  0
  149.4750  140.5511  157.6689 H   0  0  0  0  0  0  0  0  0  0  0  0
  148.6991  142.0994  157.4412 H   0  0  0  0  0  0  0  0  0  0  0  0
  149.4649  142.0842  155.2992 H   0  0  0  0  0  0  0  0  0  0  0  0
  151.0485  142.4078  155.9451 H   0  0  0  0  0  0  0  0  0  0  0  0
  152.3917  140.1700  156.7973 H   0  0  0  0  0  0  0  0  0  0  0  0
  153.1545  138.0008  155.8011 H   0  0  0  0  0  0  0  0  0  0  0  0
  151.8650  137.0382  153.8722 H   0  0  0  0  0  0  0  0  0  0  0  0
  149.8640  138.2906  153.0250 H   0  0  0  0  0  0  0  0  0  0  0  0
  153.4148  142.0790  160.0651 H   0  0  0  0  0  0  0  0  0  0  0  0
  153.8160  144.2761  159.5185 H   0  0  0  0  0  0  0  0  0  0  0  0
  152.6881  144.0926  158.1846 H   0  0  0  0  0  0  0  0  0  0  0  0
  152.1569  145.9259  160.0807 H   0  0  0  0  0  0  0  0  0  0  0  0
  150.8458  144.8795  159.5199 H   0  0  0  0  0  0  0  0  0  0  0  0
  152.6208  144.4206  161.9619 H   0  0  0  0  0  0  0  0  0  0  0  0
  150.8519  144.4712  161.9253 H   0  0  0  0  0  0  0  0  0  0  0  0
  1  2  2  0  0  0  0
  2  3  1  0  0  0  0
  2 12  1  0  0  0  0
  3  4  1  0  0  0  0
  3 17  1  0  0  0  0
  4  5  1  0  0  0  0
  4 18  1  0  0  0  0
  4 19  1  0  0  0  0
  5  6  1  0  0  0  0
  5 20  1  0  0  0  0
  5 21  1  0  0  0  0
  6 11  1  0  0  0  0
  6  7  2  0  0  0  0
  7  8  1  0  0  0  0
  7 22  1  0  0  0  0
  8  9  2  0  0  0  0
  8 23  1  0  0  0  0
  9 10  1  0  0  0  0
  9 24  1  0  0  0  0
 10 11  2  0  0  0  0
 10 25  1  0  0  0  0
 12 16  1  0  0  0  0
 12 13  1  0  0  0  0
 12 26  1  0  0  0  0
 13 14  1  0  0  0  0
 13 27  1  0  0  0  0
 13 28  1  0  0  0  0
 14 15  1  0  0  0  0
 14 29  1  0  0  0  0
 14 30  1  0  0  0  0
 15 16  1  0  0  0  0
 15 31  1  0  0  0  0
 15 32  1  0  0  0  0
M  END
> <s_m_source_file>
AV-unprocessed.smi

> <i_m_source_file_index>
3176

> <i_lp_mmshare_version>
43012

> <i_f3d_flags>
0

> <s_epik_input>
TzFbQ0gyXVtDSDJdW0NIMl1bQ0BIXTFDKD1PKVtOSF1bQ0gyXVtDSDJdYzJbY0hdW2NIXVtjSF1bY0hdbjI=

> <s_epik_cmdline>
J2VwaWtfcHl0aG9uJywgJy1waCcsICc3LjAnLCAnLXRuJywgJzgnLCAnLW1hJywgJzIwMCcsICctbWV0YWxfYmluZGluZycsICctaW1hZScsICc8aW5maWxlLm1hZT4nLCAnLW9tYWUnLCAnPG91dGZpbGUubWFlPic=

> <r_epik_Ionization_Penalty>
0.0282744

> <r_epik_Ionization_Penalty_Charging>
0

> <r_epik_Ionization_Penalty_Neutral>
0.0282744

> <r_epik_State_Penalty>
0.0231919

> <r_epik_Charging_Adjusted_Penalty>
0.0231919

> <i_epik_Tot_Q>
0

> <i_epik_Tot_abs_Q>
0

> <r_epik_Metal_State_Penalty>
0.02213

> <b_epik_Metal_Only>
0

> <s_lp_Force_Field>
OPLS_2005

> <r_lp_Energy>
16.341

> <b_lp_Chiralities_Consistent>
1

> <s_lp_Variant>
AV-unprocessed.smi:3176-2

> <Gold.Version>
5.8.1

> <Gold.Id.Protein>
6NUR|6NUR_protein|mol2

> <Gold.PLP.Fitness>
41.5753

> <Gold.PLP.PLP>
-37.7170

> <Gold.PLP.part.hbond>
-2.0000

> <Gold.PLP.part.metal>
0.0000

> <Gold.PLP.part.buried>
-3.2960

> <Gold.PLP.part.nonpolar>
-33.0463

> <Gold.PLP.part.repulsive>
0.2962

> <Gold.PLP.ligand.clash>
0.0000

> <Gold.PLP.ligand.torsion>
0.5946

> <Gold.PLP.Chemscore.Hbond>
0.0374

> <Gold.PLP.Chemscore.CHOScore>
1.6415

> <Gold.PLP.Chemscore.Metal>
0.0000

> <Gold.Chemscore.Hbonds>
donor molecule, donor type, donor heavy atom, donor atom, acceptor molecule, acceptor atom, score
      P1  H  6933  6945       L1    16  0.10
      L1  C    10    25       P1  7948  1.00
      L1  C    10    25       P1  7957  0.61

> <Gold.PLP.Chemscore.Internal.Correction>
0.0107

> <Gold.Rescore>
     Score         DG    S(hbond)    S(metal)    S(lipo)     H(rot)  DE(clash)    DE(int)     intcor
     11.34     -13.61       0.11        0.00      99.43       1.52       0.15       2.13       ----

> <Gold.Chemscore.Fitness>
11.3390

> <Gold.Chemscore.DG>
-13.6107

> <Gold.Chemscore.ZeroCoef>
-5.4800

> <Gold.Chemscore.Hbond>
0.1131

> <Gold.Chemscore.Metal>
0.0000

> <Gold.Chemscore.Lipo>
99.4331

> <Gold.Chemscore.Internal_Hbond>
0.0000

> <Gold.Chemscore.DEClash>
0.1462

> <Gold.Chemscore.DEInternal>
2.1256

> <Gold.Chemscore.Rot>
1.5159

> <Gold.Chemscore.Internal.Correction>
   9.000000E+99

> <Gold.Chemscore.Hbonds>
donor molecule, donor type, donor heavy atom, donor atom, acceptor molecule, acceptor atom, score
      P1  H  6933  6945       L1    16  0.07

> <Gold.Chemscore.Hbond.Weighted>
-0.3777

> <Gold.Chemscore.Metal.Weighted>
-0.0000

> <Gold.Chemscore.Lipo.Weighted>
-11.6337

> <Gold.Chemscore.Internal_Hbond.Weighted>
0.0000

> <Gold.Chemscore.DEClash.Weighted>
0.1462

> <Gold.Chemscore.DEInternal.Weighted>
2.1256

> <Gold.Chemscore.Rot.Weighted>
3.8807

> <Gold.Chemscore.Internal.Correction.Weighted>
   9.000000E+99

> <Gold.Protein.RotatedTorsions>
[ 6907 6896 6895 6894 ] final   90.31 input  -60.11 | X-H torsion
[ 7974 7965 7964 7962 ] final  -64.16 input  175.53 | X-H torsion
[ 8008 7997 7996 7995 ] final -162.75 input   59.86 | X-H torsion
[ 10167 10162 10161 10158 ] final  -68.50 input  -65.29 | X-H torsion
[ 10718 10713 10712 10709 ] final  -77.74 input   66.30 | X-H torsion
[ 10763 10752 10751 10750 ] final  -49.91 input  -60.55 | X-H torsion
[ 11005 11000 10999 10996 ] final  119.38 input  -57.11 | X-H torsion

> <Gold.Protein.ActiveResidues>
 VAL166  LYS551  ARG553  GLY616  TRP617  ASP618  TYR619  PRO620  LYS621  CYS622 
 ASP623  PHE694  ASN695  SER759  ASP760  ASP761  ALA762  ILE779  LEU786  VAL792 
 PHE793  MET794  SER795  GLU796  ALA797  LYS798  CYS799  TRP800  GLU811  SER814 

> <Gold.Protein.RotatedAtoms>
  152.5443  134.1831  159.8643 H   0  0  0  0  0  0  0  0  0  0  0  0  # atno 6907 bound_to 6896
  151.1832  133.4705  159.2602 H   0  0  0  0  0  0  0  0  0  0  0  0  # atno 6908 bound_to 6896
  151.1157  135.0063  159.8570 H   0  0  0  0  0  0  0  0  0  0  0  0  # atno 6909 bound_to 6896
  145.7702  140.8817  143.0384 H   0  0  0  0  0  0  0  0  0  0  0  0  # atno 7974 bound_to 7965
  155.8113  140.0906  157.1902 H   0  0  0  0  0  0  0  0  0  0  0  0  # atno 8008 bound_to 7997
  154.3980  140.1454  156.3450 H   0  0  0  0  0  0  0  0  0  0  0  0  # atno 8009 bound_to 7997
  155.8362  140.3440  155.5605 H   0  0  0  0  0  0  0  0  0  0  0  0  # atno 8010 bound_to 7997
  140.5503  143.2312  151.6925 H   0  0  0  0  0  0  0  0  0  0  0  0  # atno 10167 bound_to 10162
  156.0136  130.4499  150.3391 H   0  0  0  0  0  0  0  0  0  0  0  0  # atno 10718 bound_to 10713
  154.1017  135.6562  153.4869 H   0  0  0  0  0  0  0  0  0  0  0  0  # atno 10763 bound_to 10752
  153.0286  135.5226  154.7280 H   0  0  0  0  0  0  0  0  0  0  0  0  # atno 10764 bound_to 10752
  154.6434  135.2991  155.0045 H   0  0  0  0  0  0  0  0  0  0  0  0  # atno 10765 bound_to 10752
  139.9144  134.9628  156.7646 H   0  0  0  0  0  0  0  0  0  0  0  0  # atno 11005 bound_to 11000
  144.6814  139.9844  143.7484 LP  0  0  0  0  0  0  0  0  0  0  0  0  # atno 17320 bound_to 7965
  146.0178  139.3224  143.0831 LP  0  0  0  0  0  0  0  0  0  0  0  0  # atno 17321 bound_to 7965
  139.5024  144.3829  152.0357 LP  0  0  0  0  0  0  0  0  0  0  0  0  # atno 17342 bound_to 10162
  140.2946  144.3716  150.6078 LP  0  0  0  0  0  0  0  0  0  0  0  0  # atno 17343 bound_to 10162
  157.1487  131.0315  151.2895 LP  0  0  0  0  0  0  0  0  0  0  0  0  # atno 17370 bound_to 10713
  157.4411  130.7544  149.7070 LP  0  0  0  0  0  0  0  0  0  0  0  0  # atno 17371 bound_to 10713
  140.6670  133.9594  155.7835 LP  0  0  0  0  0  0  0  0  0  0  0  0  # atno 17394 bound_to 11000
  141.0604  134.0355  157.3666 LP  0  0  0  0  0  0  0  0  0  0  0  0  # atno 17395 bound_to 11000

$$$$
