AV-unprocessed.smi:504|AV-procd|sdf|2747|dock6
  -GOLD-   2262023213D 1   1.00000     0.00000
 Structure written by MMmdl.
 35 36  0  0  0  0  0  0  0  0  1 V2000
  147.1718  139.9169  157.3389 N   0  0  0  0  0  0  0  0  0  0  0  0
  147.9283  140.1016  156.4829 C   0  0  0  0  0  0  0  0  0  0  0  0
  148.8935  140.3385  155.3899 C   0  0  0  0  0  0  0  0  0  0  0  0
  150.2649  140.3791  155.9030 N   0  0  0  0  0  0  0  0  0  0  0  0
  150.6782  140.9180  157.0618 C   0  0  0  0  0  0  0  0  0  0  0  0
  149.9165  141.4410  157.8759 O   0  0  0  0  0  0  0  0  0  0  0  0
  152.1859  140.8299  157.3405 C   0  0  0  0  0  0  0  0  0  0  0  0
  152.5591  141.2804  158.6897 N   0  0  0  0  0  0  0  0  0  0  0  0
  151.9789  142.4793  159.0652 N   0  0  0  0  0  0  0  0  0  0  0  0
  152.2451  142.9775  160.2233 C   0  0  0  0  0  0  0  0  0  0  0  0
  153.1337  142.3230  161.1580 C   0  0  0  0  0  0  0  0  0  0  0  0
  153.4530  143.0403  162.6978 Cl  0  0  0  0  0  0  0  0  0  0  0  0
  153.6930  141.1453  160.7825 C   0  0  0  0  0  0  0  0  0  0  0  0
  154.7656  140.3027  161.8473 Cl  0  0  0  0  0  0  0  0  0  0  0  0
  153.4113  140.5466  159.4703 C   0  0  0  0  0  0  0  0  0  0  0  0
  153.8947  139.4780  159.0938 O   0  0  0  0  0  0  0  0  0  0  0  0
  148.7659  139.2411  154.3028 C   0  0  0  0  0  0  0  0  0  0  0  0
  147.3974  139.2725  153.6005 C   0  0  0  0  0  0  0  0  0  0  0  0
  147.1205  140.6526  152.9880 C   0  0  0  0  0  0  0  0  0  0  0  0
  147.2392  141.7622  154.0426 C   0  0  0  0  0  0  0  0  0  0  0  0
  148.6075  141.7138  154.7442 C   0  0  0  0  0  0  0  0  0  0  0  0
  150.9707  139.9695  155.3089 H   0  0  0  0  0  0  0  0  0  0  0  0
  152.4963  139.7946  157.1877 H   0  0  0  0  0  0  0  0  0  0  0  0
  152.7297  141.4112  156.5932 H   0  0  0  0  0  0  0  0  0  0  0  0
  151.8136  143.9199  160.5611 H   0  0  0  0  0  0  0  0  0  0  0  0
  149.5513  139.3685  153.5564 H   0  0  0  0  0  0  0  0  0  0  0  0
  148.9175  138.2525  154.7371 H   0  0  0  0  0  0  0  0  0  0  0  0
  147.3620  138.5085  152.8233 H   0  0  0  0  0  0  0  0  0  0  0  0
  146.6098  139.0221  154.3121 H   0  0  0  0  0  0  0  0  0  0  0  0
  147.8277  140.8410  152.1791 H   0  0  0  0  0  0  0  0  0  0  0  0
  146.1269  140.6688  152.5394 H   0  0  0  0  0  0  0  0  0  0  0  0
  147.0980  142.7357  153.5721 H   0  0  0  0  0  0  0  0  0  0  0  0
  146.4403  141.6581  154.7778 H   0  0  0  0  0  0  0  0  0  0  0  0
  148.6538  142.4982  155.5011 H   0  0  0  0  0  0  0  0  0  0  0  0
  149.3851  141.9492  154.0154 H   0  0  0  0  0  0  0  0  0  0  0  0
  1  2  3  0  0  0  0
  2  3  1  0  0  0  0
  3 21  1  0  0  0  0
  3  4  1  0  0  0  0
  3 17  1  0  0  0  0
  4  5  1  0  0  0  0
  4 22  1  0  0  0  0
  5  6  2  0  0  0  0
  5  7  1  0  0  0  0
  7  8  1  0  0  0  0
  7 23  1  0  0  0  0
  7 24  1  0  0  0  0
  8 15  1  0  0  0  0
  8  9  1  0  0  0  0
  9 10  2  0  0  0  0
 10 11  1  0  0  0  0
 10 25  1  0  0  0  0
 11 12  1  0  0  0  0
 11 13  2  0  0  0  0
 13 14  1  0  0  0  0
 13 15  1  0  0  0  0
 15 16  2  0  0  0  0
 17 18  1  0  0  0  0
 17 26  1  0  0  0  0
 17 27  1  0  0  0  0
 18 19  1  0  0  0  0
 18 28  1  0  0  0  0
 18 29  1  0  0  0  0
 19 20  1  0  0  0  0
 19 30  1  0  0  0  0
 19 31  1  0  0  0  0
 20 21  1  0  0  0  0
 20 32  1  0  0  0  0
 20 33  1  0  0  0  0
 21 34  1  0  0  0  0
 21 35  1  0  0  0  0
M  END
> <s_m_source_file>
AV-unprocessed.smi

> <i_m_source_file_index>
504

> <i_lp_mmshare_version>
43012

> <i_f3d_flags>
0

> <s_epik_input>
W0NIMl0xW0NIMl1bQ0gyXVtDSDJdW0NIMl1DMShDI04pW05IXUMoPU8pW0NIMl1uMm5bY0hdYyhDbCljKENsKWMyPU8=

> <s_epik_cmdline>
J2VwaWtfcHl0aG9uJywgJy1waCcsICc3LjAnLCAnLXRuJywgJzgnLCAnLW1hJywgJzIwMCcsICctbWV0YWxfYmluZGluZycsICctaW1hZScsICc8aW5maWxlLm1hZT4nLCAnLW9tYWUnLCAnPG91dGZpbGUubWFlPic=

> <r_lp_tautomer_probability>
1

> <r_epik_Ionization_Penalty>
4.52612e-07

> <r_epik_Ionization_Penalty_Charging>
2.33921e-11

> <r_epik_Ionization_Penalty_Neutral>
4.52589e-07

> <r_epik_State_Penalty>
-0

> <r_epik_Charging_Adjusted_Penalty>
2.33921e-11

> <i_epik_Tot_Q>
0

> <i_epik_Tot_abs_Q>
0

> <r_epik_Metal_State_Penalty>
-0

> <b_epik_Metal_Only>
0

> <s_lp_Force_Field>
OPLS_2005

> <r_lp_Energy>
21.394

> <b_lp_Chiralities_Consistent>
1

> <s_lp_Variant>
AV-unprocessed.smi:504-1

> <Gold.Version>
5.8.1

> <Gold.Id.Protein>
6NUR|6NUR_protein|mol2

> <Gold.PLP.Fitness>
39.6935

> <Gold.PLP.PLP>
-37.9718

> <Gold.PLP.part.hbond>
-1.0000

> <Gold.PLP.part.metal>
0.0000

> <Gold.PLP.part.buried>
-3.1358

> <Gold.PLP.part.nonpolar>
-31.3752

> <Gold.PLP.part.repulsive>
0.1206

> <Gold.PLP.ligand.clash>
0.0000

> <Gold.PLP.ligand.torsion>
0.6419

> <Gold.PLP.Chemscore.Hbond>
1.0000

> <Gold.PLP.Chemscore.CHOScore>
0.0000

> <Gold.PLP.Chemscore.Metal>
0.0000

> <Gold.Chemscore.Hbonds>
donor molecule, donor type, donor heavy atom, donor atom, acceptor molecule, acceptor atom, score
      P1  H  7997  8010       L1    16  0.62

> <Gold.PLP.Chemscore.Internal.Correction>
0.0055

> <Gold.Rescore>
     Score         DG    S(hbond)    S(metal)    S(lipo)     H(rot)  DE(clash)    DE(int)     intcor
     11.73     -15.30       0.92        0.00      92.61       1.60       0.09       3.48       ----

> <Gold.Chemscore.Fitness>
11.7303

> <Gold.Chemscore.DG>
-15.2989

> <Gold.Chemscore.ZeroCoef>
-5.4800

> <Gold.Chemscore.Hbond>
0.9225

> <Gold.Chemscore.Metal>
0.0000

> <Gold.Chemscore.Lipo>
92.6128

> <Gold.Chemscore.Internal_Hbond>
0.0000

> <Gold.Chemscore.DEClash>
0.0888

> <Gold.Chemscore.DEInternal>
3.4799

> <Gold.Chemscore.Rot>
1.6007

> <Gold.Chemscore.Internal.Correction>
   9.000000E+99

> <Gold.Chemscore.Hbonds>
donor molecule, donor type, donor heavy atom, donor atom, acceptor molecule, acceptor atom, score
      P1  H  7997  8010       L1    16  0.22

> <Gold.Chemscore.Hbond.Weighted>
-3.0811

> <Gold.Chemscore.Metal.Weighted>
-0.0000

> <Gold.Chemscore.Lipo.Weighted>
-10.8357

> <Gold.Chemscore.Internal_Hbond.Weighted>
0.0000

> <Gold.Chemscore.DEClash.Weighted>
0.0888

> <Gold.Chemscore.DEInternal.Weighted>
3.4799

> <Gold.Chemscore.Rot.Weighted>
4.0978

> <Gold.Chemscore.Internal.Correction.Weighted>
   9.000000E+99

> <Gold.Protein.RotatedTorsions>
[ 6907 6896 6895 6894 ] final -113.50 input  -60.11 | X-H torsion
[ 7974 7965 7964 7962 ] final -152.02 input  175.53 | X-H torsion
[ 8008 7997 7996 7995 ] final   25.37 input   59.86 | X-H torsion
[ 10167 10162 10161 10158 ] final -135.78 input  -65.29 | X-H torsion
[ 10718 10713 10712 10709 ] final    2.14 input   66.30 | X-H torsion
[ 10763 10752 10751 10750 ] final  -11.47 input  -60.55 | X-H torsion
[ 11005 11000 10999 10996 ] final -113.10 input  -57.11 | X-H torsion

> <Gold.Protein.ActiveResidues>
 VAL166  LYS551  ARG553  GLY616  TRP617  ASP618  TYR619  PRO620  LYS621  CYS622 
 ASP623  PHE694  ASN695  SER759  ASP760  ASP761  ALA762  ILE779  LEU786  VAL792 
 PHE793  MET794  SER795  GLU796  ALA797  LYS798  CYS799  TRP800  GLU811  SER814 

> <Gold.Protein.RotatedAtoms>
  150.7833  133.8936  159.3320 H   0  0  0  0  0  0  0  0  0  0  0  0  # atno 6907 bound_to 6896
  151.6793  135.0962  160.0222 H   0  0  0  0  0  0  0  0  0  0  0  0  # atno 6908 bound_to 6896
  152.3891  133.6614  159.6258 H   0  0  0  0  0  0  0  0  0  0  0  0  # atno 6909 bound_to 6896
  144.7817  140.4719  143.5834 H   0  0  0  0  0  0  0  0  0  0  0  0  # atno 7974 bound_to 7965
  155.0107  140.3136  155.4831 H   0  0  0  0  0  0  0  0  0  0  0  0  # atno 8008 bound_to 7997
  156.2909  140.2215  156.5162 H   0  0  0  0  0  0  0  0  0  0  0  0  # atno 8009 bound_to 7997
  154.7537  140.0464  157.0903 H   0  0  0  0  0  0  0  0  0  0  0  0  # atno 8010 bound_to 7997
  139.8744  143.6917  152.2636 H   0  0  0  0  0  0  0  0  0  0  0  0  # atno 10167 bound_to 10162
  156.8587  130.5579  149.5664 H   0  0  0  0  0  0  0  0  0  0  0  0  # atno 10718 bound_to 10713
  153.4842  135.7017  153.5920 H   0  0  0  0  0  0  0  0  0  0  0  0  # atno 10763 bound_to 10752
  153.4120  135.3846  155.2057 H   0  0  0  0  0  0  0  0  0  0  0  0  # atno 10764 bound_to 10752
  154.8720  135.3907  154.4295 H   0  0  0  0  0  0  0  0  0  0  0  0  # atno 10765 bound_to 10752
  141.0635  133.9497  157.2623 H   0  0  0  0  0  0  0  0  0  0  0  0  # atno 11005 bound_to 11000
  145.6032  139.1506  143.3117 LP  0  0  0  0  0  0  0  0  0  0  0  0  # atno 17320 bound_to 7965
  146.2029  140.6152  142.9094 LP  0  0  0  0  0  0  0  0  0  0  0  0  # atno 17321 bound_to 7965
  139.7254  144.7594  151.0887 LP  0  0  0  0  0  0  0  0  0  0  0  0  # atno 17342 bound_to 10162
  140.7755  143.5155  150.9600 LP  0  0  0  0  0  0  0  0  0  0  0  0  # atno 17343 bound_to 10162
  156.0789  130.5804  150.9525 LP  0  0  0  0  0  0  0  0  0  0  0  0  # atno 17370 bound_to 10713
  157.6263  131.0925  150.8528 LP  0  0  0  0  0  0  0  0  0  0  0  0  # atno 17371 bound_to 10713
  139.9454  135.0185  156.8836 LP  0  0  0  0  0  0  0  0  0  0  0  0  # atno 17394 bound_to 11000
  140.5821  134.0342  155.7468 LP  0  0  0  0  0  0  0  0  0  0  0  0  # atno 17395 bound_to 11000

$$$$
