AV-unprocessed.smi:62|AV-procd|sdf|606|dock6
  -GOLD-   2262016503D 1   1.00000     0.00000
 Structure written by MMmdl.
 30 31  0  0  0  0  0  0  0  0  2 V2000
  151.9003  145.5427  159.4258 C   0  0  0  0  0  0  0  0  0  0  0  0
  152.0380  144.1664  159.0009 N   0  0  0  0  0  0  0  0  0  0  0  0
  151.4503  143.5330  157.9302 C   0  0  0  0  0  0  0  0  0  0  0  0
  151.8772  142.2341  157.9207 C   0  0  0  0  0  0  0  0  0  0  0  0
  151.4901  141.1830  156.9072 C   0  0  0  0  0  0  0  0  0  0  0  0
  150.3878  141.6090  156.0503 N   0  0  0  0  0  0  0  0  0  0  0  0
  149.1064  141.6996  156.7300 C   0  0  0  0  0  0  0  0  0  0  0  0
  148.0297  141.6579  155.6367 C   0  0  0  0  0  0  0  0  0  0  0  0
  148.7735  141.1293  154.3991 C   0  0  2  0  0  0  0  0  0  0  0  0
  148.1000  140.0591  153.7702 O   0  0  0  0  0  0  0  0  0  0  0  0
  150.1349  140.7026  154.9506 C   0  0  0  0  0  0  0  0  0  0  0  0
  152.7455  142.1696  159.0637 C   0  0  0  0  0  0  0  0  0  0  0  0
  153.4590  140.9072  159.4714 C   0  0  0  0  0  0  0  0  0  0  0  0
  153.9817  140.8168  160.6039 O   0  0  0  0  0  0  0  0  0  0  0  0
  153.5111  139.9731  158.6407 O   0  5  0  0  0  0  0  0  0  0  0  0
  152.8339  143.3332  159.6961 N   0  0  0  0  0  0  0  0  0  0  0  0
  151.1368  146.0436  158.8299 H   0  0  0  0  0  0  0  0  0  0  0  0
  152.8498  146.0634  159.2980 H   0  0  0  0  0  0  0  0  0  0  0  0
  151.6095  145.5789  160.4762 H   0  0  0  0  0  0  0  0  0  0  0  0
  150.7827  144.0549  157.2610 H   0  0  0  0  0  0  0  0  0  0  0  0
  152.3478  140.9250  156.2858 H   0  0  0  0  0  0  0  0  0  0  0  0
  151.2183  140.2529  157.4085 H   0  0  0  0  0  0  0  0  0  0  0  0
  148.9745  140.8424  157.3922 H   0  0  0  0  0  0  0  0  0  0  0  0
  149.0407  142.6013  157.3398 H   0  0  0  0  0  0  0  0  0  0  0  0
  147.2017  141.0145  155.9369 H   0  0  0  0  0  0  0  0  0  0  0  0
  147.6265  142.6525  155.4431 H   0  0  0  0  0  0  0  0  0  0  0  0
  148.9081  141.9392  153.6808 H   0  0  0  0  0  0  0  0  0  0  0  0
  148.5450  139.8604  152.9607 H   0  0  0  0  0  0  0  0  0  0  0  0
  150.9229  140.7517  154.1983 H   0  0  0  0  0  0  0  0  0  0  0  0
  150.0856  139.6764  155.3196 H   0  0  0  0  0  0  0  0  0  0  0  0
  1  2  1  0  0  0  0
  1 17  1  0  0  0  0
  1 18  1  0  0  0  0
  1 19  1  0  0  0  0
  2 16  1  0  0  0  0
  2  3  1  0  0  0  0
  3  4  2  0  0  0  0
  3 20  1  0  0  0  0
  4  5  1  0  0  0  0
  4 12  1  0  0  0  0
  5  6  1  0  0  0  0
  5 21  1  0  0  0  0
  5 22  1  0  0  0  0
  6 11  1  0  0  0  0
  6  7  1  0  0  0  0
  7  8  1  0  0  0  0
  7 23  1  0  0  0  0
  7 24  1  0  0  0  0
  8  9  1  0  0  0  0
  8 25  1  0  0  0  0
  8 26  1  0  0  0  0
  9 10  1  0  0  0  0
  9 11  1  0  0  0  0
  9 27  1  0  0  0  0
 10 28  1  0  0  0  0
 11 29  1  0  0  0  0
 11 30  1  0  0  0  0
 12 13  1  0  0  0  0
 12 16  2  0  0  0  0
 13 14  2  0  0  0  0
 13 15  1  0  0  0  0
M  CHG  1  15  -1
M  END
> <s_m_source_file>
AV-unprocessed.smi

> <i_m_source_file_index>
62

> <i_lp_mmshare_version>
43012

> <i_f3d_flags>
0

> <s_epik_input>
W0NIM11uMVtjSF1jKGMobjEpQyg9TylbT0hdKVtDSDJdTjJbQ0gyXVtDSDJdW0NAQEhdKFtPSF0pW0NIMl0y

> <s_epik_cmdline>
J2VwaWtfcHl0aG9uJywgJy1waCcsICc3LjAnLCAnLXRuJywgJzgnLCAnLW1hJywgJzIwMCcsICctbWV0YWxfYmluZGluZycsICctaW1hZScsICc8aW5maWxlLm1hZT4nLCAnLW9tYWUnLCAnPG91dGZpbGUubWFlPic=

> <r_epik_Ionization_Penalty>
1.46526

> <r_epik_Ionization_Penalty_Charging>
0.000523675

> <r_epik_Ionization_Penalty_Neutral>
1.46474

> <r_epik_State_Penalty>
1.55202

> <r_epik_Charging_Adjusted_Penalty>
1.55254

> <i_epik_Tot_Q>
-1

> <i_epik_Tot_abs_Q>
1

> <r_epik_Metal_State_Penalty>
1.552

> <b_epik_Metal_Only>
0

> <s_lp_Force_Field>
OPLS_2005

> <r_lp_Energy>
37.4103

> <b_lp_Chiralities_Consistent>
1

> <s_lp_Variant>
AV-unprocessed.smi:62-6

> <Gold.Version>
5.8.1

> <Gold.Id.Protein>
6NUR|6NUR_protein|mol2

> <Gold.PLP.Fitness>
43.4422

> <Gold.PLP.PLP>
-31.9246

> <Gold.PLP.part.hbond>
-2.0000

> <Gold.PLP.part.metal>
0.0000

> <Gold.PLP.part.buried>
-2.4322

> <Gold.PLP.part.nonpolar>
-26.7129

> <Gold.PLP.part.repulsive>
0.0804

> <Gold.PLP.ligand.clash>
0.0000

> <Gold.PLP.ligand.torsion>
0.2467

> <Gold.PLP.Chemscore.Hbond>
3.0000

> <Gold.PLP.Chemscore.CHOScore>
1.0000

> <Gold.PLP.Chemscore.Metal>
0.0000

> <Gold.Chemscore.Hbonds>
donor molecule, donor type, donor heavy atom, donor atom, acceptor molecule, acceptor atom, score
      L1  H    10    28       P1  7957  0.84
      P1  H  7997  8008       L1    15  2.00
      L1  C     3    20       P1  8028  0.96

> <Gold.PLP.Chemscore.Internal.Correction>
0.0109

> <Gold.Rescore>
     Score         DG    S(hbond)    S(metal)    S(lipo)     H(rot)  DE(clash)    DE(int)     intcor
     13.93     -15.68       1.98        0.00      69.35       1.77       0.39       1.36       ----

> <Gold.Chemscore.Fitness>
13.9260

> <Gold.Chemscore.DG>
-15.6770

> <Gold.Chemscore.ZeroCoef>
-5.4800

> <Gold.Chemscore.Hbond>
1.9783

> <Gold.Chemscore.Metal>
0.0000

> <Gold.Chemscore.Lipo>
69.3517

> <Gold.Chemscore.Internal_Hbond>
0.0000

> <Gold.Chemscore.DEClash>
0.3884

> <Gold.Chemscore.DEInternal>
1.3627

> <Gold.Chemscore.Rot>
1.7674

> <Gold.Chemscore.Internal.Correction>
   9.000000E+99

> <Gold.Chemscore.Hbonds>
donor molecule, donor type, donor heavy atom, donor atom, acceptor molecule, acceptor atom, score
      L1  H    10    28       P1  7957  0.82
      P1  H  7997  8008       L1    15  0.92

> <Gold.Chemscore.Hbond.Weighted>
-6.6074

> <Gold.Chemscore.Metal.Weighted>
-0.0000

> <Gold.Chemscore.Lipo.Weighted>
-8.1141

> <Gold.Chemscore.Internal_Hbond.Weighted>
0.0000

> <Gold.Chemscore.DEClash.Weighted>
0.3884

> <Gold.Chemscore.DEInternal.Weighted>
1.3627

> <Gold.Chemscore.Rot.Weighted>
4.5245

> <Gold.Chemscore.Internal.Correction.Weighted>
   9.000000E+99

> <Gold.Protein.RotatedTorsions>
[ 6907 6896 6895 6894 ] final  129.95 input  -60.11 | X-H torsion
[ 7974 7965 7964 7962 ] final    5.21 input  175.53 | X-H torsion
[ 8008 7997 7996 7995 ] final -103.90 input   59.86 | X-H torsion
[ 10167 10162 10161 10158 ] final  170.95 input  -65.29 | X-H torsion
[ 10718 10713 10712 10709 ] final   18.77 input   66.30 | X-H torsion
[ 10763 10752 10751 10750 ] final    0.15 input  -60.55 | X-H torsion
[ 11005 11000 10999 10996 ] final -177.47 input  -57.11 | X-H torsion

> <Gold.Protein.ActiveResidues>
 VAL166  LYS551  ARG553  GLY616  TRP617  ASP618  TYR619  PRO620  LYS621  CYS622 
 ASP623  PHE694  ASN695  SER759  ASP760  ASP761  ALA762  ILE779  LEU786  VAL792 
 PHE793  MET794  SER795  GLU796  ALA797  LYS798  CYS799  TRP800  GLU811  SER814 

> <Gold.Protein.RotatedAtoms>
  152.3574  133.6254  159.5989 H   0  0  0  0  0  0  0  0  0  0  0  0  # atno 6907 bound_to 6896
  150.7578  133.9477  159.3485 H   0  0  0  0  0  0  0  0  0  0  0  0  # atno 6908 bound_to 6896
  151.7320  135.0873  160.0353 H   0  0  0  0  0  0  0  0  0  0  0  0  # atno 6909 bound_to 6896
  146.2441  140.0418  142.8381 H   0  0  0  0  0  0  0  0  0  0  0  0  # atno 7974 bound_to 7965
  154.8775  140.0420  157.1762 H   0  0  0  0  0  0  0  0  0  0  0  0  # atno 8008 bound_to 7997
  154.8673  140.2953  155.5481 H   0  0  0  0  0  0  0  0  0  0  0  0  # atno 8009 bound_to 7997
  156.2999  140.2435  156.3657 H   0  0  0  0  0  0  0  0  0  0  0  0  # atno 8010 bound_to 7997
  139.5033  144.3539  151.9894 H   0  0  0  0  0  0  0  0  0  0  0  0  # atno 10167 bound_to 10162
  157.1010  130.6468  149.5872 H   0  0  0  0  0  0  0  0  0  0  0  0  # atno 10718 bound_to 10713
  153.3243  135.6971  153.7003 H   0  0  0  0  0  0  0  0  0  0  0  0  # atno 10763 bound_to 10752
  153.5830  135.3494  155.2883 H   0  0  0  0  0  0  0  0  0  0  0  0  # atno 10764 bound_to 10752
  154.8604  135.4299  154.2416 H   0  0  0  0  0  0  0  0  0  0  0  0  # atno 10765 bound_to 10752
  140.4405  134.6435  157.4755 H   0  0  0  0  0  0  0  0  0  0  0  0  # atno 11005 bound_to 11000
  145.1063  140.9377  143.4683 LP  0  0  0  0  0  0  0  0  0  0  0  0  # atno 17320 bound_to 7965
  145.0622  139.3097  143.5875 LP  0  0  0  0  0  0  0  0  0  0  0  0  # atno 17321 bound_to 7965
  140.2976  144.3683  150.6069 LP  0  0  0  0  0  0  0  0  0  0  0  0  # atno 17342 bound_to 10162
  140.5898  143.2168  151.7274 LP  0  0  0  0  0  0  0  0  0  0  0  0  # atno 17343 bound_to 10162
  155.9873  130.4912  150.7121 LP  0  0  0  0  0  0  0  0  0  0  0  0  # atno 17370 bound_to 10713
  157.4640  131.0886  151.0714 LP  0  0  0  0  0  0  0  0  0  0  0  0  # atno 17371 bound_to 10713
  140.0073  134.6745  155.9436 LP  0  0  0  0  0  0  0  0  0  0  0  0  # atno 17394 bound_to 11000
  141.1707  133.6537  156.4642 LP  0  0  0  0  0  0  0  0  0  0  0  0  # atno 17395 bound_to 11000

$$$$
