AV-unprocessed.smi:678|AV-procd|sdf|3314|dock7
  -GOLD-   22720 0283D 1   1.00000     0.00000
 Structure written by MMmdl.
 51 52  0  0  0  0  0  0  0  0  2 V2000
  152.1835  141.5371  157.5125 C   0  0  0  0  0  0  0  0  0  0  0  0
  151.3454  141.0281  156.3526 C   0  0  0  0  0  0  0  0  0  0  0  0
  150.3229  141.7541  155.8506 C   0  0  0  0  0  0  0  0  0  0  0  0
  149.5205  141.2572  154.7594 C   0  0  0  0  0  0  0  0  0  0  0  0
  149.8123  140.0491  154.2567 C   0  0  0  0  0  0  0  0  0  0  0  0
  150.8717  139.2723  154.7608 N   0  0  0  0  0  0  0  0  0  0  0  0
  151.0966  137.9576  154.1358 C   0  0  0  0  0  0  0  0  0  0  0  0
  150.7881  136.7983  155.0917 C   0  0  0  0  0  0  0  0  0  0  0  0
  150.6173  137.0092  156.2927 O   0  0  0  0  0  0  0  0  0  0  0  0
  150.7329  135.5761  154.5422 N   0  0  0  0  0  0  0  0  0  0  0  0
  150.5609  134.3249  155.2732 C   0  0  0  0  0  0  0  0  0  0  0  0
  149.4079  133.4817  154.6956 C   0  0  1  0  0  0  0  0  0  0  0  0
  149.4716  133.3167  153.1566 C   0  0  0  0  0  0  0  0  0  0  0  0
  148.4127  132.4058  152.6521 N   0  3  2  0  0  0  0  0  0  0  0  0
  147.0636  133.0253  152.5491 C   0  0  0  0  0  0  0  0  0  0  0  0
  146.1857  132.3600  151.4672 C   0  0  0  0  0  0  0  0  0  0  0  0
  144.8727  133.1346  151.2817 C   0  0  0  0  0  0  0  0  0  0  0  0
  145.9014  130.8837  151.7876 C   0  0  0  0  0  0  0  0  0  0  0  0
  148.4309  131.1238  153.3966 C   0  0  0  0  0  0  0  0  0  0  0  0
  148.3795  131.3619  154.9155 C   0  0  0  0  0  0  0  0  0  0  0  0
  149.4679  132.1936  155.2986 O   0  0  0  0  0  0  0  0  0  0  0  0
  151.6675  139.7035  155.7896 C   0  0  0  0  0  0  0  0  0  0  0  0
  152.5969  139.0140  156.2156 O   0  0  0  0  0  0  0  0  0  0  0  0
  151.9118  142.5585  157.7808 H   0  0  0  0  0  0  0  0  0  0  0  0
  153.2437  141.5282  157.2568 H   0  0  0  0  0  0  0  0  0  0  0  0
  152.0348  140.9087  158.3908 H   0  0  0  0  0  0  0  0  0  0  0  0
  150.0908  142.7211  156.2725 H   0  0  0  0  0  0  0  0  0  0  0  0
  148.7028  141.8405  154.3620 H   0  0  0  0  0  0  0  0  0  0  0  0
  149.2551  139.6026  153.4460 H   0  0  0  0  0  0  0  0  0  0  0  0
  150.4805  137.8344  153.2442 H   0  0  0  0  0  0  0  0  0  0  0  0
  152.1282  137.8903  153.7836 H   0  0  0  0  0  0  0  0  0  0  0  0
  150.8685  135.5026  153.5440 H   0  0  0  0  0  0  0  0  0  0  0  0
  151.4877  133.7492  155.3008 H   0  0  0  0  0  0  0  0  0  0  0  0
  150.3346  134.5861  156.3073 H   0  0  0  0  0  0  0  0  0  0  0  0
  148.4686  133.9547  154.9860 H   0  0  0  0  0  0  0  0  0  0  0  0
  149.4053  134.2809  152.6565 H   0  0  0  0  0  0  0  0  0  0  0  0
  150.4393  132.8974  152.8787 H   0  0  0  0  0  0  0  0  0  0  0  0
  146.5459  132.9420  153.5057 H   0  0  0  0  0  0  0  0  0  0  0  0
  147.1596  134.0938  152.3567 H   0  0  0  0  0  0  0  0  0  0  0  0
  146.7067  132.3934  150.5119 H   0  0  0  0  0  0  0  0  0  0  0  0
  144.2895  133.1554  152.2030 H   0  0  0  0  0  0  0  0  0  0  0  0
  144.2536  132.6818  150.5067 H   0  0  0  0  0  0  0  0  0  0  0  0
  145.0644  134.1660  150.9839 H   0  0  0  0  0  0  0  0  0  0  0  0
  145.3686  130.7771  152.7331 H   0  0  0  0  0  0  0  0  0  0  0  0
  146.8230  130.3059  151.8573 H   0  0  0  0  0  0  0  0  0  0  0  0
  145.2902  130.4255  151.0094 H   0  0  0  0  0  0  0  0  0  0  0  0
  147.6142  130.4768  153.0747 H   0  0  0  0  0  0  0  0  0  0  0  0
  149.3530  130.5971  153.1479 H   0  0  0  0  0  0  0  0  0  0  0  0
  147.4318  131.8120  155.2154 H   0  0  0  0  0  0  0  0  0  0  0  0
  148.4604  130.4125  155.4450 H   0  0  0  0  0  0  0  0  0  0  0  0
  148.6623  132.1716  151.7017 H   0  0  0  0  0  0  0  0  0  0  0  0
  1  2  1  0  0  0  0
  1 24  1  0  0  0  0
  1 25  1  0  0  0  0
  1 26  1  0  0  0  0
  2 22  1  0  0  0  0
  2  3  2  0  0  0  0
  3  4  1  0  0  0  0
  3 27  1  0  0  0  0
  4  5  2  0  0  0  0
  4 28  1  0  0  0  0
  5  6  1  0  0  0  0
  5 29  1  0  0  0  0
  6  7  1  0  0  0  0
  6 22  1  0  0  0  0
  7  8  1  0  0  0  0
  7 30  1  0  0  0  0
  7 31  1  0  0  0  0
  8  9  2  0  0  0  0
  8 10  1  0  0  0  0
 10 11  1  0  0  0  0
 10 32  1  0  0  0  0
 11 12  1  0  0  0  0
 11 33  1  0  0  0  0
 11 34  1  0  0  0  0
 12 21  1  0  0  0  0
 12 13  1  0  0  0  0
 12 35  1  0  0  0  0
 13 14  1  0  0  0  0
 13 36  1  0  0  0  0
 13 37  1  0  0  0  0
 14 15  1  0  0  0  0
 14 19  1  0  0  0  0
 14 51  1  0  0  0  0
 15 16  1  0  0  0  0
 15 38  1  0  0  0  0
 15 39  1  0  0  0  0
 16 17  1  0  0  0  0
 16 18  1  0  0  0  0
 16 40  1  0  0  0  0
 17 41  1  0  0  0  0
 17 42  1  0  0  0  0
 17 43  1  0  0  0  0
 18 44  1  0  0  0  0
 18 45  1  0  0  0  0
 18 46  1  0  0  0  0
 19 20  1  0  0  0  0
 19 47  1  0  0  0  0
 19 48  1  0  0  0  0
 20 21  1  0  0  0  0
 20 49  1  0  0  0  0
 20 50  1  0  0  0  0
 22 23  2  0  0  0  0
M  CHG  1  14   1
M  END
> <s_m_source_file>
AV-unprocessed.smi

> <i_m_source_file_index>
678

> <i_lp_mmshare_version>
43012

> <i_f3d_flags>
0

> <s_epik_input>
W0NIM11jMVtjSF1bY0hdW2NIXW4oYzE9TylbQ0gyXUMoPU8pW05IXVtDSDJdW0NAQEhdMltDSDJdTihbQ0gyXVtDSDJdTzIpW0NIMl1bQ0hdKFtDSDNdKVtDSDNd

> <s_epik_cmdline>
J2VwaWtfcHl0aG9uJywgJy1waCcsICc3LjAnLCAnLXRuJywgJzgnLCAnLW1hJywgJzIwMCcsICctbWV0YWxfYmluZGluZycsICctaW1hZScsICc8aW5maWxlLm1hZT4nLCAnLW9tYWUnLCAnPG91dGZpbGUubWFlPic=

> <r_lp_tautomer_probability>
1

> <r_epik_Ionization_Penalty>
0.0975937

> <r_epik_Ionization_Penalty_Charging>
0.0975937

> <r_epik_Ionization_Penalty_Neutral>
6.27044e-08

> <r_epik_State_Penalty>
0.0877056

> <r_epik_Charging_Adjusted_Penalty>
0.185299

> <i_epik_Tot_Q>
1

> <i_epik_Tot_abs_Q>
1

> <r_epik_Metal_State_Penalty>
0.0877109

> <b_epik_Metal_Only>
0

> <s_lp_Force_Field>
OPLS_2005

> <r_lp_Energy>
27.4135

> <b_lp_Chiralities_Consistent>
1

> <s_lp_Variant>
AV-unprocessed.smi:678-2

> <Gold.Version>
5.8.1

> <Gold.Id.Protein>
6NUR|6NUR_protein|mol2

> <Gold.PLP.Fitness>
48.6448

> <Gold.PLP.PLP>
-40.9192

> <Gold.PLP.part.hbond>
-2.2216

> <Gold.PLP.part.metal>
0.0000

> <Gold.PLP.part.buried>
-3.5880

> <Gold.PLP.part.nonpolar>
-32.6064

> <Gold.PLP.part.repulsive>
0.1033

> <Gold.PLP.ligand.clash>
0.0000

> <Gold.PLP.ligand.torsion>
0.5230

> <Gold.PLP.Chemscore.Hbond>
1.9490

> <Gold.PLP.Chemscore.CHOScore>
0.9301

> <Gold.PLP.Chemscore.Metal>
0.0000

> <Gold.Chemscore.Hbonds>
donor molecule, donor type, donor heavy atom, donor atom, acceptor molecule, acceptor atom, score
      L1  H    10    32       P1  7949  0.48
      L1  H    14    51       P1 10747  1.00
      P1  H  7997  8008       L1    23  0.75
      L1  C     5    29       P1  7957  0.90

> <Gold.PLP.Chemscore.Internal.Correction>
0.1342

> <Gold.Rescore>
     Score         DG    S(hbond)    S(metal)    S(lipo)     H(rot)  DE(clash)    DE(int)     intcor
     15.89     -17.17       1.52        0.00      97.90       1.89       0.19       1.10       ----

> <Gold.Chemscore.Fitness>
15.8860

> <Gold.Chemscore.DG>
-17.1746

> <Gold.Chemscore.ZeroCoef>
-5.4800

> <Gold.Chemscore.Hbond>
1.5185

> <Gold.Chemscore.Metal>
0.0000

> <Gold.Chemscore.Lipo>
97.8966

> <Gold.Chemscore.Internal_Hbond>
0.0000

> <Gold.Chemscore.DEClash>
0.1933

> <Gold.Chemscore.DEInternal>
1.0953

> <Gold.Chemscore.Rot>
1.8871

> <Gold.Chemscore.Internal.Correction>
   9.000000E+99

> <Gold.Chemscore.Hbonds>
donor molecule, donor type, donor heavy atom, donor atom, acceptor molecule, acceptor atom, score
      L1  H    10    32       P1  7949  0.03
      L1  H    14    51       P1 10747  0.95
      P1  H  7997  8008       L1    23  0.65

> <Gold.Chemscore.Hbond.Weighted>
-5.0716

> <Gold.Chemscore.Metal.Weighted>
-0.0000

> <Gold.Chemscore.Lipo.Weighted>
-11.4539

> <Gold.Chemscore.Internal_Hbond.Weighted>
0.0000

> <Gold.Chemscore.DEClash.Weighted>
0.1933

> <Gold.Chemscore.DEInternal.Weighted>
1.0953

> <Gold.Chemscore.Rot.Weighted>
4.8309

> <Gold.Chemscore.Internal.Correction.Weighted>
   9.000000E+99

> <Gold.Protein.RotatedTorsions>
[ 6907 6896 6895 6894 ] final   36.95 input  -60.11 | X-H torsion
[ 7974 7965 7964 7962 ] final   72.81 input  175.53 | X-H torsion
[ 8008 7997 7996 7995 ] final  -64.03 input   59.86 | X-H torsion
[ 10167 10162 10161 10158 ] final  -20.07 input  -65.29 | X-H torsion
[ 10718 10713 10712 10709 ] final  155.41 input   66.30 | X-H torsion
[ 10763 10752 10751 10750 ] final  113.85 input  -60.55 | X-H torsion
[ 11005 11000 10999 10996 ] final   -3.49 input  -57.11 | X-H torsion

> <Gold.Protein.ActiveResidues>
 VAL166  LYS551  ARG553  GLY616  TRP617  ASP618  TYR619  PRO620  LYS621  CYS622 
 ASP623  PHE694  ASN695  SER759  ASP760  ASP761  ALA762  ILE779  LEU786  VAL792 
 PHE793  MET794  SER795  GLU796  ALA797  LYS798  CYS799  TRP800  GLU811  SER814 

> <Gold.Protein.RotatedAtoms>
  152.1367  134.9094  160.0555 H   0  0  0  0  0  0  0  0  0  0  0  0  # atno 6907 bound_to 6896
  152.0177  133.3881  159.4254 H   0  0  0  0  0  0  0  0  0  0  0  0  # atno 6908 bound_to 6896
  150.6861  134.3581  159.4982 H   0  0  0  0  0  0  0  0  0  0  0  0  # atno 6909 bound_to 6896
  145.7487  139.2751  143.1444 H   0  0  0  0  0  0  0  0  0  0  0  0  # atno 7974 bound_to 7965
  154.4588  140.0962  156.6833 H   0  0  0  0  0  0  0  0  0  0  0  0  # atno 8008 bound_to 7997
  155.5057  140.3475  155.4361 H   0  0  0  0  0  0  0  0  0  0  0  0  # atno 8009 bound_to 7997
  156.0830  140.1378  156.9678 H   0  0  0  0  0  0  0  0  0  0  0  0  # atno 8010 bound_to 7997
  140.7273  143.4758  151.0184 H   0  0  0  0  0  0  0  0  0  0  0  0  # atno 10167 bound_to 10162
  157.2187  131.0713  151.1925 H   0  0  0  0  0  0  0  0  0  0  0  0  # atno 10718 bound_to 10713
  153.4985  135.3643  155.2528 H   0  0  0  0  0  0  0  0  0  0  0  0  # atno 10763 bound_to 10752
  154.8749  135.3994  154.3506 H   0  0  0  0  0  0  0  0  0  0  0  0  # atno 10764 bound_to 10752
  153.4138  135.7078  153.6407 H   0  0  0  0  0  0  0  0  0  0  0  0  # atno 10765 bound_to 10752
  140.6699  133.9245  155.8488 H   0  0  0  0  0  0  0  0  0  0  0  0  # atno 11005 bound_to 11000
  146.0377  140.8195  142.9844 LP  0  0  0  0  0  0  0  0  0  0  0  0  # atno 17320 bound_to 7965
  144.6854  140.2864  143.7284 LP  0  0  0  0  0  0  0  0  0  0  0  0  # atno 17321 bound_to 7965
  139.8453  143.7509  152.3179 LP  0  0  0  0  0  0  0  0  0  0  0  0  # atno 17342 bound_to 10162
  139.7672  144.7488  151.0277 LP  0  0  0  0  0  0  0  0  0  0  0  0  # atno 17343 bound_to 10162
  157.3598  130.7125  149.6494 LP  0  0  0  0  0  0  0  0  0  0  0  0  # atno 17370 bound_to 10713
  155.9684  130.4229  150.4536 LP  0  0  0  0  0  0  0  0  0  0  0  0  # atno 17371 bound_to 10713
  141.0400  134.0635  157.3913 LP  0  0  0  0  0  0  0  0  0  0  0  0  # atno 17394 bound_to 11000
  139.8985  135.0155  156.7150 LP  0  0  0  0  0  0  0  0  0  0  0  0  # atno 17395 bound_to 11000

$$$$
