AV-unprocessed.smi:1918|AV-procd|sdf|7769|dock5
  -GOLD-   22720 9513D 1   1.00000     0.00000
 Structure written by MMmdl.
 35 37  0  0  0  0  0  0  0  0  1 V2000
  150.9004  145.3629  159.8296 C   0  0  0  0  0  0  0  0  0  0  0  0
  151.6586  144.1664  160.3103 C   0  0  0  0  0  0  0  0  0  0  0  0
  152.3144  144.1607  161.4713 N   0  0  0  0  0  0  0  0  0  0  0  0
  152.8547  142.8896  161.5079 C   0  0  0  0  0  0  0  0  0  0  0  0
  153.6616  142.2612  162.4834 C   0  0  0  0  0  0  0  0  0  0  0  0
  154.1017  140.9339  162.2987 C   0  0  0  0  0  0  0  0  0  0  0  0
  153.7420  140.2170  161.1390 C   0  0  0  0  0  0  0  0  0  0  0  0
  152.9378  140.8238  160.1552 C   0  0  0  0  0  0  0  0  0  0  0  0
  152.5016  142.1487  160.3444 C   0  0  0  0  0  0  0  0  0  0  0  0
  151.7208  143.0188  159.5907 N   0  0  0  0  0  0  0  0  0  0  0  0
  151.1099  142.7238  158.3020 C   0  0  0  0  0  0  0  0  0  0  0  0
  149.9204  141.7504  158.4184 C   0  0  2  0  0  0  0  0  0  0  0  0
  150.3937  140.4303  158.6096 O   0  0  0  0  0  0  0  0  0  0  0  0
  148.9942  141.8695  157.2154 C   0  0  0  0  0  0  0  0  0  0  0  0
  147.7107  142.4444  157.3545 C   0  0  0  0  0  0  0  0  0  0  0  0
  146.8513  142.5456  156.2436 C   0  0  0  0  0  0  0  0  0  0  0  0
  147.2666  142.0686  154.9862 C   0  0  0  0  0  0  0  0  0  0  0  0
  146.4402  142.1654  153.9180 F   0  0  0  0  0  0  0  0  0  0  0  0
  148.5405  141.4877  154.8414 C   0  0  0  0  0  0  0  0  0  0  0  0
  149.4020  141.3852  155.9513 C   0  0  0  0  0  0  0  0  0  0  0  0
  150.6210  140.8148  155.7951 F   0  0  0  0  0  0  0  0  0  0  0  0
  151.0422  146.2043  160.5085 H   0  0  0  0  0  0  0  0  0  0  0  0
  149.8349  145.1382  159.7792 H   0  0  0  0  0  0  0  0  0  0  0  0
  151.2470  145.6601  158.8399 H   0  0  0  0  0  0  0  0  0  0  0  0
  153.9422  142.8018  163.3753 H   0  0  0  0  0  0  0  0  0  0  0  0
  154.7189  140.4638  163.0504 H   0  0  0  0  0  0  0  0  0  0  0  0
  154.0841  139.2013  161.0046 H   0  0  0  0  0  0  0  0  0  0  0  0
  152.6605  140.2786  159.2651 H   0  0  0  0  0  0  0  0  0  0  0  0
  150.7741  143.6674  157.8702 H   0  0  0  0  0  0  0  0  0  0  0  0
  151.8631  142.3308  157.6191 H   0  0  0  0  0  0  0  0  0  0  0  0
  149.3516  141.9971  159.3154 H   0  0  0  0  0  0  0  0  0  0  0  0
  150.4742  140.0155  157.7643 H   0  0  0  0  0  0  0  0  0  0  0  0
  147.3777  142.8079  158.3157 H   0  0  0  0  0  0  0  0  0  0  0  0
  145.8722  142.9876  156.3567 H   0  0  0  0  0  0  0  0  0  0  0  0
  148.8576  141.1175  153.8775 H   0  0  0  0  0  0  0  0  0  0  0  0
  1  2  1  0  0  0  0
  1 22  1  0  0  0  0
  1 23  1  0  0  0  0
  1 24  1  0  0  0  0
  2 10  1  0  0  0  0
  2  3  2  0  0  0  0
  3  4  1  0  0  0  0
  4  9  2  0  0  0  0
  4  5  1  0  0  0  0
  5  6  2  0  0  0  0
  5 25  1  0  0  0  0
  6  7  1  0  0  0  0
  6 26  1  0  0  0  0
  7  8  2  0  0  0  0
  7 27  1  0  0  0  0
  8  9  1  0  0  0  0
  8 28  1  0  0  0  0
  9 10  1  0  0  0  0
 10 11  1  0  0  0  0
 11 12  1  0  0  0  0
 11 29  1  0  0  0  0
 11 30  1  0  0  0  0
 12 13  1  0  0  0  0
 12 14  1  0  0  0  0
 12 31  1  0  0  0  0
 13 32  1  0  0  0  0
 14 20  1  0  0  0  0
 14 15  2  0  0  0  0
 15 16  1  0  0  0  0
 15 33  1  0  0  0  0
 16 17  2  0  0  0  0
 16 34  1  0  0  0  0
 17 18  1  0  0  0  0
 17 19  1  0  0  0  0
 19 20  2  0  0  0  0
 19 35  1  0  0  0  0
 20 21  1  0  0  0  0
M  END
> <s_m_source_file>
AV-unprocessed.smi

> <i_m_source_file_index>
1918

> <i_lp_mmshare_version>
43012

> <i_f3d_flags>
0

> <s_epik_input>
W2NIXTFbY0hdW2NIXVtjSF1jKGMxMiluKGMobjIpW0NIM10pW0NIMl1bQ0BIXShbT0hdKWMzW2NIXVtjSF1jKEYpW2NIXWMzRg==

> <s_epik_cmdline>
J2VwaWtfcHl0aG9uJywgJy1waCcsICc3LjAnLCAnLXRuJywgJzgnLCAnLW1hJywgJzIwMCcsICctbWV0YWxfYmluZGluZycsICctaW1hZScsICc8aW5maWxlLm1hZT4nLCAnLW9tYWUnLCAnPG91dGZpbGUubWFlPic=

> <r_epik_Ionization_Penalty>
0.129663

> <r_epik_Ionization_Penalty_Charging>
0

> <r_epik_Ionization_Penalty_Neutral>
0.129663

> <r_epik_State_Penalty>
0.119073

> <r_epik_Charging_Adjusted_Penalty>
0.119073

> <i_epik_Tot_Q>
0

> <i_epik_Tot_abs_Q>
0

> <r_epik_Metal_State_Penalty>
0.000131867

> <b_epik_Metal_Only>
0

> <s_lp_Force_Field>
OPLS_2005

> <r_lp_Energy>
11.5863

> <b_lp_Chiralities_Consistent>
1

> <s_lp_Variant>
AV-unprocessed.smi:1918-1

> <Gold.Version>
5.8.1

> <Gold.Id.Protein>
6NUR|6NUR_protein|mol2

> <Gold.PLP.Fitness>
48.4559

> <Gold.PLP.PLP>
-49.3694

> <Gold.PLP.part.hbond>
0.0000

> <Gold.PLP.part.metal>
0.0000

> <Gold.PLP.part.buried>
-3.4116

> <Gold.PLP.part.nonpolar>
-43.6610

> <Gold.PLP.part.repulsive>
0.1593

> <Gold.PLP.ligand.clash>
0.0000

> <Gold.PLP.ligand.torsion>
0.4700

> <Gold.PLP.Chemscore.Hbond>
0.0000

> <Gold.PLP.Chemscore.CHOScore>
0.0000

> <Gold.PLP.Chemscore.Metal>
0.0000

> <Gold.PLP.Chemscore.Internal.Correction>
0.0265

> <Gold.Rescore>
     Score         DG    S(hbond)    S(metal)    S(lipo)     H(rot)  DE(clash)    DE(int)     intcor
     11.06     -13.49       0.00        0.00     109.70       1.88       0.04       2.40       ----

> <Gold.Chemscore.Fitness>
11.0570

> <Gold.Chemscore.DG>
-13.4918

> <Gold.Chemscore.ZeroCoef>
-5.4800

> <Gold.Chemscore.Hbond>
0.0000

> <Gold.Chemscore.Metal>
0.0000

> <Gold.Chemscore.Lipo>
109.6971

> <Gold.Chemscore.Internal_Hbond>
0.0000

> <Gold.Chemscore.DEClash>
0.0374

> <Gold.Chemscore.DEInternal>
2.3974

> <Gold.Chemscore.Rot>
1.8839

> <Gold.Chemscore.Internal.Correction>
   9.000000E+99

> <Gold.Chemscore.Hbond.Weighted>
-0.0000

> <Gold.Chemscore.Metal.Weighted>
-0.0000

> <Gold.Chemscore.Lipo.Weighted>
-12.8346

> <Gold.Chemscore.Internal_Hbond.Weighted>
0.0000

> <Gold.Chemscore.DEClash.Weighted>
0.0374

> <Gold.Chemscore.DEInternal.Weighted>
2.3974

> <Gold.Chemscore.Rot.Weighted>
4.8227

> <Gold.Chemscore.Internal.Correction.Weighted>
   9.000000E+99

> <Gold.Protein.RotatedTorsions>
[ 6907 6896 6895 6894 ] final   98.39 input  -60.11 | X-H torsion
[ 7974 7965 7964 7962 ] final  -79.08 input  175.53 | X-H torsion
[ 8008 7997 7996 7995 ] final  157.42 input   59.86 | X-H torsion
[ 10167 10162 10161 10158 ] final  -57.71 input  -65.29 | X-H torsion
[ 10718 10713 10712 10709 ] final   79.28 input   66.30 | X-H torsion
[ 10763 10752 10751 10750 ] final   30.81 input  -60.55 | X-H torsion
[ 11005 11000 10999 10996 ] final  153.57 input  -57.11 | X-H torsion

> <Gold.Protein.ActiveResidues>
 VAL166  LYS551  ARG553  GLY616  TRP617  ASP618  TYR619  PRO620  LYS621  CYS622 
 ASP623  PHE694  ASN695  SER759  ASP760  ASP761  ALA762  ILE779  LEU786  VAL792 
 PHE793  MET794  SER795  GLU796  ALA797  LYS798  CYS799  TRP800  GLU811  SER814 

> <Gold.Protein.RotatedAtoms>
  152.5410  134.0588  159.8142 H   0  0  0  0  0  0  0  0  0  0  0  0  # atno 6907 bound_to 6896
  151.0719  133.5452  159.2634 H   0  0  0  0  0  0  0  0  0  0  0  0  # atno 6908 bound_to 6896
  151.2312  135.0563  159.9042 H   0  0  0  0  0  0  0  0  0  0  0  0  # atno 6909 bound_to 6896
  145.5780  140.9454  143.1359 H   0  0  0  0  0  0  0  0  0  0  0  0  # atno 7974 bound_to 7965
  156.2365  140.1886  156.7105 H   0  0  0  0  0  0  0  0  0  0  0  0  # atno 8008 bound_to 7997
  154.6116  140.0621  156.9528 H   0  0  0  0  0  0  0  0  0  0  0  0  # atno 8009 bound_to 7997
  155.2007  140.3292  155.4346 H   0  0  0  0  0  0  0  0  0  0  0  0  # atno 8010 bound_to 7997
  140.6241  143.2431  151.5407 H   0  0  0  0  0  0  0  0  0  0  0  0  # atno 10167 bound_to 10162
  157.6771  130.9907  150.1909 H   0  0  0  0  0  0  0  0  0  0  0  0  # atno 10718 bound_to 10713
  153.0351  135.6455  154.1102 H   0  0  0  0  0  0  0  0  0  0  0  0  # atno 10763 bound_to 10752
  154.0818  135.2873  155.3290 H   0  0  0  0  0  0  0  0  0  0  0  0  # atno 10764 bound_to 10752
  154.6525  135.5421  153.7983 H   0  0  0  0  0  0  0  0  0  0  0  0  # atno 10765 bound_to 10752
  140.1410  134.8739  157.2331 H   0  0  0  0  0  0  0  0  0  0  0  0  # atno 11005 bound_to 11000
  144.7407  139.7457  143.7312 LP  0  0  0  0  0  0  0  0  0  0  0  0  # atno 17320 bound_to 7965
  146.1737  139.4898  142.9911 LP  0  0  0  0  0  0  0  0  0  0  0  0  # atno 17321 bound_to 7965
  139.5464  144.2509  152.1451 LP  0  0  0  0  0  0  0  0  0  0  0  0  # atno 17342 bound_to 10162
  140.1736  144.4912  150.6566 LP  0  0  0  0  0  0  0  0  0  0  0  0  # atno 17343 bound_to 10162
  156.2620  130.3712  149.8120 LP  0  0  0  0  0  0  0  0  0  0  0  0  # atno 17370 bound_to 10713
  156.5862  130.8487  151.3396 LP  0  0  0  0  0  0  0  0  0  0  0  0  # atno 17371 bound_to 10713
  140.2722  134.3447  155.7370 LP  0  0  0  0  0  0  0  0  0  0  0  0  # atno 17394 bound_to 11000
  141.2186  133.7430  156.9240 LP  0  0  0  0  0  0  0  0  0  0  0  0  # atno 17395 bound_to 11000

$$$$
