AV-unprocessed.smi:1724|AV-procd|sdf|6951|dock6
  -GOLD-   22720 8163D 1   1.00000     0.00000
 Structure written by MMmdl.
 37 38  0  0  0  0  0  0  0  0  2 V2000
  154.2018  139.3860  161.1405 O   0  0  0  0  0  0  0  0  0  0  0  0
  153.7231  139.6959  160.0499 C   0  0  0  0  0  0  0  0  0  0  0  0
  153.2350  140.9160  159.7826 N   0  0  0  0  0  0  0  0  0  0  0  0
  153.1761  142.0335  160.7212 C   0  0  0  0  0  0  0  0  0  0  0  0
  153.1744  143.4019  160.0087 C   0  0  2  0  0  0  0  0  0  0  0  0
  152.5146  144.5179  160.8413 C   0  0  0  0  0  0  0  0  0  0  0  0
  152.4601  145.8211  160.0362 C   0  0  0  0  0  0  0  0  0  0  0  0
  151.8001  145.5820  158.6704 C   0  0  0  0  0  0  0  0  0  0  0  0
  152.5033  144.5627  157.9694 O   0  0  0  0  0  0  0  0  0  0  0  0
  152.4732  143.3057  158.6380 C   0  0  0  0  0  0  0  0  0  0  0  0
  153.6257  138.8977  158.9708 N   0  0  0  0  0  0  0  0  0  0  0  0
  153.9925  137.5496  158.8115 C   0  0  0  0  0  0  0  0  0  0  0  0
  154.0419  136.6282  159.8135 C   0  0  0  0  0  0  0  0  0  0  0  0
  154.4186  135.2398  159.5799 C   0  0  0  0  0  0  0  0  0  0  0  0
  154.5785  134.2135  160.6874 C   0  0  0  0  0  0  0  0  0  0  0  0
  155.8581  133.8752  160.8473 F   0  0  0  0  0  0  0  0  0  0  0  0
  154.1202  134.6859  161.8466 F   0  0  0  0  0  0  0  0  0  0  0  0
  153.8919  133.1120  160.3873 F   0  0  0  0  0  0  0  0  0  0  0  0
  154.7182  134.9936  158.2541 C   0  0  0  0  0  0  0  0  0  0  0  0
  154.6700  135.8376  157.2005 N   0  5  0  0  0  0  0  0  0  0  0  0
  154.3161  137.1336  157.4305 C   0  0  0  0  0  0  0  0  0  0  0  0
  154.2600  137.9569  156.5161 O   0  0  0  0  0  0  0  0  0  0  0  0
  152.8692  141.0831  158.8567 H   0  0  0  0  0  0  0  0  0  0  0  0
  152.2567  141.9224  161.2966 H   0  0  0  0  0  0  0  0  0  0  0  0
  153.9913  141.9827  161.4454 H   0  0  0  0  0  0  0  0  0  0  0  0
  154.2123  143.6865  159.8279 H   0  0  0  0  0  0  0  0  0  0  0  0
  151.5042  144.2198  161.1255 H   0  0  0  0  0  0  0  0  0  0  0  0
  153.0629  144.6876  161.7683 H   0  0  0  0  0  0  0  0  0  0  0  0
  151.9140  146.5840  160.5916 H   0  0  0  0  0  0  0  0  0  0  0  0
  153.4709  146.2036  159.8896 H   0  0  0  0  0  0  0  0  0  0  0  0
  150.7516  145.3029  158.7866 H   0  0  0  0  0  0  0  0  0  0  0  0
  151.8223  146.4970  158.0781 H   0  0  0  0  0  0  0  0  0  0  0  0
  152.9783  142.5723  158.0088 H   0  0  0  0  0  0  0  0  0  0  0  0
  151.4411  142.9688  158.7486 H   0  0  0  0  0  0  0  0  0  0  0  0
  153.2537  139.3226  158.1339 H   0  0  0  0  0  0  0  0  0  0  0  0
  153.7842  136.8916  160.8253 H   0  0  0  0  0  0  0  0  0  0  0  0
  155.0513  133.9640  158.0030 H   0  0  0  0  0  0  0  0  0  0  0  0
  1  2  2  0  0  0  0
  2  3  1  0  0  0  0
  2 11  1  0  0  0  0
  3  4  1  0  0  0  0
  3 23  1  0  0  0  0
  4  5  1  0  0  0  0
  4 24  1  0  0  0  0
  4 25  1  0  0  0  0
  5 10  1  0  0  0  0
  5  6  1  0  0  0  0
  5 26  1  0  0  0  0
  6  7  1  0  0  0  0
  6 27  1  0  0  0  0
  6 28  1  0  0  0  0
  7  8  1  0  0  0  0
  7 29  1  0  0  0  0
  7 30  1  0  0  0  0
  8  9  1  0  0  0  0
  8 31  1  0  0  0  0
  8 32  1  0  0  0  0
  9 10  1  0  0  0  0
 10 33  1  0  0  0  0
 10 34  1  0  0  0  0
 11 12  1  0  0  0  0
 11 35  1  0  0  0  0
 12 21  1  0  0  0  0
 12 13  2  0  0  0  0
 13 14  1  0  0  0  0
 13 36  1  0  0  0  0
 14 15  1  0  0  0  0
 14 19  2  0  0  0  0
 15 16  1  0  0  0  0
 15 17  1  0  0  0  0
 15 18  1  0  0  0  0
 19 20  1  0  0  0  0
 19 37  1  0  0  0  0
 20 21  1  0  0  0  0
 21 22  2  0  0  0  0
M  CHG  1  20  -1
M  END
> <s_m_source_file>
AV-unprocessed.smi

> <i_m_source_file_index>
1724

> <i_lp_mmshare_version>
43012

> <i_f3d_flags>
0

> <s_epik_input>
Tz1jMVtuSF1bY0hdYyhDKEYpKEYpRilbY0hdYzFbTkhdQyg9TylbTkhdW0NIMl1bQ0BASF0yW0NIMl1bQ0gyXVtDSDJdT1tDSDJdMg==

> <s_epik_cmdline>
J2VwaWtfcHl0aG9uJywgJy1waCcsICc3LjAnLCAnLXRuJywgJzgnLCAnLW1hJywgJzIwMCcsICctbWV0YWxfYmluZGluZycsICctaW1hZScsICc8aW5maWxlLm1hZT4nLCAnLW9tYWUnLCAnPG91dGZpbGUubWFlPic=

> <r_lp_tautomer_probability>
1

> <r_epik_Ionization_Penalty>
3.16025

> <r_epik_Ionization_Penalty_Charging>
0.171172

> <r_epik_Ionization_Penalty_Neutral>
2.98908

> <r_epik_State_Penalty>
2.98521

> <r_epik_Charging_Adjusted_Penalty>
3.15638

> <i_epik_Tot_Q>
-1

> <i_epik_Tot_abs_Q>
1

> <r_epik_Metal_State_Penalty>
0.452642

> <b_epik_Metal_Only>
1

> <s_lp_Force_Field>
OPLS_2005

> <r_lp_Energy>
24.3751

> <b_lp_Chiralities_Consistent>
1

> <s_lp_Variant>
AV-unprocessed.smi:1724-3

> <Gold.Version>
5.8.1

> <Gold.Id.Protein>
6NUR|6NUR_protein|mol2

> <Gold.PLP.Fitness>
41.1534

> <Gold.PLP.PLP>
-35.6748

> <Gold.PLP.part.hbond>
-2.0000

> <Gold.PLP.part.metal>
0.0000

> <Gold.PLP.part.buried>
-6.2863

> <Gold.PLP.part.nonpolar>
-26.2938

> <Gold.PLP.part.repulsive>
0.2795

> <Gold.PLP.ligand.clash>
0.0000

> <Gold.PLP.ligand.torsion>
0.8076

> <Gold.PLP.Chemscore.Hbond>
2.3468

> <Gold.PLP.Chemscore.CHOScore>
0.0000

> <Gold.PLP.Chemscore.Metal>
0.0000

> <Gold.Chemscore.Hbonds>
donor molecule, donor type, donor heavy atom, donor atom, acceptor molecule, acceptor atom, score
      P1  H  7997  8009       L1    22  0.32
      P1  H 10752 10764       L1    20  2.00

> <Gold.PLP.Chemscore.Internal.Correction>
0.0534

> <Gold.Rescore>
     Score         DG    S(hbond)    S(metal)    S(lipo)     H(rot)  DE(clash)    DE(int)     intcor
     14.00     -15.47       1.14        0.00      81.74       1.32       0.03       1.44       ----

> <Gold.Chemscore.Fitness>
13.9993

> <Gold.Chemscore.DG>
-15.4701

> <Gold.Chemscore.ZeroCoef>
-5.4800

> <Gold.Chemscore.Hbond>
1.1431

> <Gold.Chemscore.Metal>
0.0000

> <Gold.Chemscore.Lipo>
81.7398

> <Gold.Chemscore.Internal_Hbond>
0.0000

> <Gold.Chemscore.DEClash>
0.0310

> <Gold.Chemscore.DEInternal>
1.4398

> <Gold.Chemscore.Rot>
1.3248

> <Gold.Chemscore.Internal.Correction>
   9.000000E+99

> <Gold.Chemscore.Hbonds>
donor molecule, donor type, donor heavy atom, donor atom, acceptor molecule, acceptor atom, score
      P1  H  7997  8009       L1    22  0.32
      P1  H 10752 10764       L1    20  0.80

> <Gold.Chemscore.Hbond.Weighted>
-3.8180

> <Gold.Chemscore.Metal.Weighted>
-0.0000

> <Gold.Chemscore.Lipo.Weighted>
-9.5636

> <Gold.Chemscore.Internal_Hbond.Weighted>
0.0000

> <Gold.Chemscore.DEClash.Weighted>
0.0310

> <Gold.Chemscore.DEInternal.Weighted>
1.4398

> <Gold.Chemscore.Rot.Weighted>
3.3915

> <Gold.Chemscore.Internal.Correction.Weighted>
   9.000000E+99

> <Gold.Protein.RotatedTorsions>
[ 6907 6896 6895 6894 ] final   -2.37 input  -60.11 | X-H torsion
[ 7974 7965 7964 7962 ] final  165.41 input  175.53 | X-H torsion
[ 8008 7997 7996 7995 ] final -179.56 input   59.86 | X-H torsion
[ 10167 10162 10161 10158 ] final  -16.15 input  -65.29 | X-H torsion
[ 10718 10713 10712 10709 ] final  -49.49 input   66.30 | X-H torsion
[ 10763 10752 10751 10750 ] final   42.26 input  -60.55 | X-H torsion
[ 11005 11000 10999 10996 ] final  -21.72 input  -57.11 | X-H torsion

> <Gold.Protein.ActiveResidues>
 VAL166  LYS551  ARG553  GLY616  TRP617  ASP618  TYR619  PRO620  LYS621  CYS622 
 ASP623  PHE694  ASN695  SER759  ASP760  ASP761  ALA762  ILE779  LEU786  VAL792 
 PHE793  MET794  SER795  GLU796  ALA797  LYS798  CYS799  TRP800  GLU811  SER814 

> <Gold.Protein.RotatedAtoms>
  151.5309  135.1068  159.9902 H   0  0  0  0  0  0  0  0  0  0  0  0  # atno 6907 bound_to 6896
  152.4578  133.7756  159.6833 H   0  0  0  0  0  0  0  0  0  0  0  0  # atno 6908 bound_to 6896
  150.8529  133.7694  159.3044 H   0  0  0  0  0  0  0  0  0  0  0  0  # atno 6909 bound_to 6896
  144.7504  139.8466  143.6368 H   0  0  0  0  0  0  0  0  0  0  0  0  # atno 7974 bound_to 7965
  156.0319  140.1284  157.0249 H   0  0  0  0  0  0  0  0  0  0  0  0  # atno 8008 bound_to 7997
  154.4353  140.1048  156.6182 H   0  0  0  0  0  0  0  0  0  0  0  0  # atno 8009 bound_to 7997
  155.5795  140.3468  155.4538 H   0  0  0  0  0  0  0  0  0  0  0  0  # atno 8010 bound_to 7997
  140.7229  143.5145  150.9709 H   0  0  0  0  0  0  0  0  0  0  0  0  # atno 10167 bound_to 10162
  156.1888  130.4152  149.9401 H   0  0  0  0  0  0  0  0  0  0  0  0  # atno 10718 bound_to 10713
  152.9887  135.6137  154.2921 H   0  0  0  0  0  0  0  0  0  0  0  0  # atno 10763 bound_to 10752
  154.2645  135.2781  155.2766 H   0  0  0  0  0  0  0  0  0  0  0  0  # atno 10764 bound_to 10752
  154.5176  135.5823  153.6712 H   0  0  0  0  0  0  0  0  0  0  0  0  # atno 10765 bound_to 10752
  140.8588  133.7803  156.0050 H   0  0  0  0  0  0  0  0  0  0  0  0  # atno 11005 bound_to 11000
  146.1445  139.4511  143.0088 LP  0  0  0  0  0  0  0  0  0  0  0  0  # atno 17320 bound_to 7965
  145.6966  141.0148  143.1526 LP  0  0  0  0  0  0  0  0  0  0  0  0  # atno 17321 bound_to 7965
  139.8860  143.7012  152.3151 LP  0  0  0  0  0  0  0  0  0  0  0  0  # atno 17342 bound_to 10162
  139.7311  144.7582  151.0800 LP  0  0  0  0  0  0  0  0  0  0  0  0  # atno 17343 bound_to 10162
  156.7148  130.8984  151.3613 LP  0  0  0  0  0  0  0  0  0  0  0  0  # atno 17370 bound_to 10713
  157.6916  130.9239  150.0529 LP  0  0  0  0  0  0  0  0  0  0  0  0  # atno 17371 bound_to 10713
  140.8707  134.2730  157.5192 LP  0  0  0  0  0  0  0  0  0  0  0  0  # atno 17394 bound_to 11000
  139.8706  134.9565  156.4241 LP  0  0  0  0  0  0  0  0  0  0  0  0  # atno 17395 bound_to 11000

$$$$
