AV-unprocessed.smi:937|AV-procd|sdf|4215|dock7
  -GOLD-   22720 2123D 1   1.00000     0.00000
 Structure written by MMmdl.
 46 47  0  0  0  0  0  0  0  0  2 V2000
  146.2124  142.6805  154.5620 C   0  0  0  0  0  0  0  0  0  0  0  0
  147.2387  141.5735  154.4463 C   0  0  0  0  0  0  0  0  0  0  0  0
  146.8960  140.2654  154.0412 C   0  0  0  0  0  0  0  0  0  0  0  0
  147.9058  139.2844  153.9555 C   0  0  0  0  0  0  0  0  0  0  0  0
  149.2369  139.6309  154.2755 C   0  0  0  0  0  0  0  0  0  0  0  0
  150.3436  138.5981  154.1939 C   0  0  0  0  0  0  0  0  0  0  0  0
  150.4312  137.7399  155.4664 C   0  0  0  0  0  0  0  0  0  0  0  0
  150.5785  138.5680  156.6565 N   0  0  0  0  0  0  0  0  0  0  0  0
  151.5360  139.4933  156.8370 C   0  0  0  0  0  0  0  0  0  0  0  0
  152.4146  139.7266  156.0091 O   0  0  0  0  0  0  0  0  0  0  0  0
  151.4607  140.1640  158.0007 N   0  0  0  0  0  0  0  0  0  0  0  0
  152.3400  141.2236  158.4990 C   0  0  2  0  0  0  0  0  0  0  0  0
  153.0140  140.8010  159.8203 C   0  0  0  0  0  0  0  0  0  0  0  0
  153.8796  141.9345  160.3896 C   0  0  0  0  0  0  0  0  0  0  0  0
  153.0598  143.2200  160.5800 C   0  0  0  0  0  0  0  0  0  0  0  0
  152.3809  143.6632  159.2666 C   0  0  2  0  0  0  0  0  0  0  0  0
  151.5646  144.9597  159.4470 C   0  0  0  0  0  0  0  0  0  0  0  0
  152.3215  145.9299  159.9609 F   0  0  0  0  0  0  0  0  0  0  0  0
  151.0850  145.3645  158.2710 F   0  0  0  0  0  0  0  0  0  0  0  0
  150.5332  144.7400  160.2625 F   0  0  0  0  0  0  0  0  0  0  0  0
  151.5209  142.5127  158.6998 C   0  0  0  0  0  0  0  0  0  0  0  0
  149.5202  140.9540  154.6761 C   0  0  0  0  0  0  0  0  0  0  0  0
  148.5247  141.8647  154.7458 N   0  3  0  0  0  0  0  0  0  0  0  0
  145.2267  142.3370  154.2464 H   0  0  0  0  0  0  0  0  0  0  0  0
  146.4938  143.5277  153.9356 H   0  0  0  0  0  0  0  0  0  0  0  0
  146.1390  143.0235  155.5944 H   0  0  0  0  0  0  0  0  0  0  0  0
  145.8738  140.0132  153.7984 H   0  0  0  0  0  0  0  0  0  0  0  0
  147.6589  138.2784  153.6481 H   0  0  0  0  0  0  0  0  0  0  0  0
  150.1719  137.9668  153.3209 H   0  0  0  0  0  0  0  0  0  0  0  0
  151.2923  139.1079  154.0207 H   0  0  0  0  0  0  0  0  0  0  0  0
  149.5248  137.1443  155.5784 H   0  0  0  0  0  0  0  0  0  0  0  0
  151.2613  137.0346  155.3984 H   0  0  0  0  0  0  0  0  0  0  0  0
  149.8977  138.4404  157.3912 H   0  0  0  0  0  0  0  0  0  0  0  0
  150.7015  139.9053  158.6145 H   0  0  0  0  0  0  0  0  0  0  0  0
  153.1104  141.4338  157.7548 H   0  0  0  0  0  0  0  0  0  0  0  0
  152.2527  140.5253  160.5515 H   0  0  0  0  0  0  0  0  0  0  0  0
  153.6310  139.9145  159.6700 H   0  0  0  0  0  0  0  0  0  0  0  0
  154.3133  141.6270  161.3415 H   0  0  0  0  0  0  0  0  0  0  0  0
  154.7163  142.1294  159.7176 H   0  0  0  0  0  0  0  0  0  0  0  0
  152.3042  143.0563  161.3493 H   0  0  0  0  0  0  0  0  0  0  0  0
  153.7112  144.0113  160.9519 H   0  0  0  0  0  0  0  0  0  0  0  0
  153.1687  143.8743  158.5417 H   0  0  0  0  0  0  0  0  0  0  0  0
  151.0809  142.8145  157.7486 H   0  0  0  0  0  0  0  0  0  0  0  0
  150.6862  142.3150  159.3742 H   0  0  0  0  0  0  0  0  0  0  0  0
  150.5052  141.3094  154.9418 H   0  0  0  0  0  0  0  0  0  0  0  0
  148.7541  142.8151  155.0370 H   0  0  0  0  0  0  0  0  0  0  0  0
  1  2  1  0  0  0  0
  1 24  1  0  0  0  0
  1 25  1  0  0  0  0
  1 26  1  0  0  0  0
  2 23  1  0  0  0  0
  2  3  2  0  0  0  0
  3  4  1  0  0  0  0
  3 27  1  0  0  0  0
  4  5  2  0  0  0  0
  4 28  1  0  0  0  0
  5  6  1  0  0  0  0
  5 22  1  0  0  0  0
  6  7  1  0  0  0  0
  6 29  1  0  0  0  0
  6 30  1  0  0  0  0
  7  8  1  0  0  0  0
  7 31  1  0  0  0  0
  7 32  1  0  0  0  0
  8  9  1  0  0  0  0
  8 33  1  0  0  0  0
  9 10  2  0  0  0  0
  9 11  1  0  0  0  0
 11 12  1  0  0  0  0
 11 34  1  0  0  0  0
 12 21  1  0  0  0  0
 12 13  1  0  0  0  0
 12 35  1  0  0  0  0
 13 14  1  0  0  0  0
 13 36  1  0  0  0  0
 13 37  1  0  0  0  0
 14 15  1  0  0  0  0
 14 38  1  0  0  0  0
 14 39  1  0  0  0  0
 15 16  1  0  0  0  0
 15 40  1  0  0  0  0
 15 41  1  0  0  0  0
 16 17  1  0  0  0  0
 16 21  1  0  0  0  0
 16 42  1  0  0  0  0
 17 18  1  0  0  0  0
 17 19  1  0  0  0  0
 17 20  1  0  0  0  0
 21 43  1  0  0  0  0
 21 44  1  0  0  0  0
 22 23  2  0  0  0  0
 22 45  1  0  0  0  0
 23 46  1  0  0  0  0
M  CHG  1  23   1
M  END
> <s_m_source_file>
AV-unprocessed.smi

> <i_m_source_file_index>
937

> <i_lp_mmshare_version>
43012

> <i_f3d_flags>
0

> <s_epik_input>
W0NIM11jMVtjSF1bY0hdYyhbY0hdbjEpW0NIMl1bQ0gyXVtOSF1DKD1PKVtOSF1bQ0BASF0yW0NIMl1bQ0gyXVtDSDJdW0NAQEhdKEMoRikoRilGKVtDSDJdMg==

> <s_epik_cmdline>
J2VwaWtfcHl0aG9uJywgJy1waCcsICc3LjAnLCAnLXRuJywgJzgnLCAnLW1hJywgJzIwMCcsICctbWV0YWxfYmluZGluZycsICctaW1hZScsICc8aW5maWxlLm1hZT4nLCAnLW9tYWUnLCAnPG91dGZpbGUubWFlPic=

> <r_epik_Ionization_Penalty>
1.4226

> <r_epik_Ionization_Penalty_Charging>
1.42255

> <r_epik_Ionization_Penalty_Neutral>
5.16456e-05

> <r_epik_State_Penalty>
1.50646

> <r_epik_Charging_Adjusted_Penalty>
2.92901

> <i_epik_Tot_Q>
1

> <i_epik_Tot_abs_Q>
1

> <r_epik_Metal_State_Penalty>
1.55846

> <b_epik_Metal_Only>
0

> <s_lp_Force_Field>
OPLS_2005

> <r_lp_Energy>
23.9189

> <b_lp_Chiralities_Consistent>
1

> <s_lp_Variant>
AV-unprocessed.smi:937-7

> <Gold.Version>
5.8.1

> <Gold.Id.Protein>
6NUR|6NUR_protein|mol2

> <Gold.PLP.Fitness>
59.2808

> <Gold.PLP.PLP>
-51.0203

> <Gold.PLP.part.hbond>
-2.0000

> <Gold.PLP.part.metal>
0.0000

> <Gold.PLP.part.buried>
-3.9263

> <Gold.PLP.part.nonpolar>
-44.2735

> <Gold.PLP.part.repulsive>
0.2923

> <Gold.PLP.ligand.clash>
0.0000

> <Gold.PLP.ligand.torsion>
0.3819

> <Gold.PLP.Chemscore.Hbond>
3.0000

> <Gold.PLP.Chemscore.CHOScore>
0.0000

> <Gold.PLP.Chemscore.Metal>
0.0000

> <Gold.Chemscore.Hbonds>
donor molecule, donor type, donor heavy atom, donor atom, acceptor molecule, acceptor atom, score
      L1  H    23    46       P1  8028  2.00
      P1  H  7997  8008       L1    10  1.00

> <Gold.PLP.Chemscore.Internal.Correction>
0.0243

> <Gold.Rescore>
     Score         DG    S(hbond)    S(metal)    S(lipo)     H(rot)  DE(clash)    DE(int)     intcor
     20.31     -21.75       2.00        0.00     118.27       1.66       0.93       0.50       ----

> <Gold.Chemscore.Fitness>
20.3149

> <Gold.Chemscore.DG>
-21.7513

> <Gold.Chemscore.ZeroCoef>
-5.4800

> <Gold.Chemscore.Hbond>
1.9998

> <Gold.Chemscore.Metal>
0.0000

> <Gold.Chemscore.Lipo>
118.2711

> <Gold.Chemscore.Internal_Hbond>
0.0000

> <Gold.Chemscore.DEClash>
0.9314

> <Gold.Chemscore.DEInternal>
0.5050

> <Gold.Chemscore.Rot>
1.6585

> <Gold.Chemscore.Internal.Correction>
   9.000000E+99

> <Gold.Chemscore.Hbonds>
donor molecule, donor type, donor heavy atom, donor atom, acceptor molecule, acceptor atom, score
      L1  H    23    46       P1  8028  0.97
      P1  H  7997  8008       L1    10  0.97

> <Gold.Chemscore.Hbond.Weighted>
-6.6793

> <Gold.Chemscore.Metal.Weighted>
-0.0000

> <Gold.Chemscore.Lipo.Weighted>
-13.8377

> <Gold.Chemscore.Internal_Hbond.Weighted>
0.0000

> <Gold.Chemscore.DEClash.Weighted>
0.9314

> <Gold.Chemscore.DEInternal.Weighted>
0.5050

> <Gold.Chemscore.Rot.Weighted>
4.2457

> <Gold.Chemscore.Internal.Correction.Weighted>
   9.000000E+99

> <Gold.Protein.RotatedTorsions>
[ 6907 6896 6895 6894 ] final  144.47 input  -60.11 | X-H torsion
[ 7974 7965 7964 7962 ] final -169.82 input  175.53 | X-H torsion
[ 8008 7997 7996 7995 ] final  -30.72 input   59.86 | X-H torsion
[ 10167 10162 10161 10158 ] final  -92.04 input  -65.29 | X-H torsion
[ 10718 10713 10712 10709 ] final -117.90 input   66.30 | X-H torsion
[ 10763 10752 10751 10750 ] final  -57.61 input  -60.55 | X-H torsion
[ 11005 11000 10999 10996 ] final -163.51 input  -57.11 | X-H torsion

> <Gold.Protein.ActiveResidues>
 VAL166  LYS551  ARG553  GLY616  TRP617  ASP618  TYR619  PRO620  LYS621  CYS622 
 ASP623  PHE694  ASN695  SER759  ASP760  ASP761  ALA762  ILE779  LEU786  VAL792 
 PHE793  MET794  SER795  GLU796  ALA797  LYS798  CYS799  TRP800  GLU811  SER814 

> <Gold.Protein.RotatedAtoms>
  152.1932  133.4788  159.5018 H   0  0  0  0  0  0  0  0  0  0  0  0  # atno 6907 bound_to 6896
  150.6955  134.1686  159.4212 H   0  0  0  0  0  0  0  0  0  0  0  0  # atno 6908 bound_to 6896
  151.9601  135.0127  160.0598 H   0  0  0  0  0  0  0  0  0  0  0  0  # atno 6909 bound_to 6896
  144.7179  140.2163  143.6321 H   0  0  0  0  0  0  0  0  0  0  0  0  # atno 7974 bound_to 7965
  154.4240  140.1784  156.1451 H   0  0  0  0  0  0  0  0  0  0  0  0  # atno 8008 bound_to 7997
  155.9960  140.3364  155.6774 H   0  0  0  0  0  0  0  0  0  0  0  0  # atno 8009 bound_to 7997
  155.6308  140.0669  157.2640 H   0  0  0  0  0  0  0  0  0  0  0  0  # atno 8010 bound_to 7997
  140.3389  143.2953  151.9858 H   0  0  0  0  0  0  0  0  0  0  0  0  # atno 10167 bound_to 10162
  156.1067  130.6216  150.9223 H   0  0  0  0  0  0  0  0  0  0  0  0  # atno 10718 bound_to 10713
  154.2251  135.6371  153.5157 H   0  0  0  0  0  0  0  0  0  0  0  0  # atno 10763 bound_to 10752
  152.9960  135.5506  154.6073 H   0  0  0  0  0  0  0  0  0  0  0  0  # atno 10764 bound_to 10752
  154.5542  135.2904  155.0954 H   0  0  0  0  0  0  0  0  0  0  0  0  # atno 10765 bound_to 10752
  140.5973  134.4984  157.5201 H   0  0  0  0  0  0  0  0  0  0  0  0  # atno 11005 bound_to 11000
  145.8543  139.2191  143.1754 LP  0  0  0  0  0  0  0  0  0  0  0  0  # atno 17320 bound_to 7965
  146.0232  140.8328  142.9913 LP  0  0  0  0  0  0  0  0  0  0  0  0  # atno 17321 bound_to 7965
  139.4844  144.6174  151.7321 LP  0  0  0  0  0  0  0  0  0  0  0  0  # atno 17342 bound_to 10162
  140.5328  144.0703  150.6059 LP  0  0  0  0  0  0  0  0  0  0  0  0  # atno 17343 bound_to 10162
  157.6245  131.0927  150.8560 LP  0  0  0  0  0  0  0  0  0  0  0  0  # atno 17370 bound_to 10713
  156.8678  130.5135  149.5299 LP  0  0  0  0  0  0  0  0  0  0  0  0  # atno 17371 bound_to 10713
  139.9248  134.8078  156.1102 LP  0  0  0  0  0  0  0  0  0  0  0  0  # atno 17394 bound_to 11000
  141.0896  133.6720  156.2511 LP  0  0  0  0  0  0  0  0  0  0  0  0  # atno 17395 bound_to 11000

$$$$
