AV-unprocessed.smi:730|AV-procd|sdf|3523|dock5
  -GOLD-   22720 0513D 1   1.00000     0.00000
 Structure written by MMmdl.
 40 41  0  0  0  0  0  0  0  0  1 V2000
  146.7422  142.2281  153.6910 C   0  0  0  0  0  0  0  0  0  0  0  0
  147.5090  141.2946  154.6493 C   0  0  0  0  0  0  0  0  0  0  0  0
  149.0182  141.4791  154.4025 C   0  0  0  0  0  0  0  0  0  0  0  0
  147.1776  141.7058  156.0958 C   0  0  0  0  0  0  0  0  0  0  0  0
  147.1228  139.8599  154.4207 C   0  0  0  0  0  0  0  0  0  0  0  0
  147.2520  139.0077  153.3575 C   0  0  0  0  0  0  0  0  0  0  0  0
  146.6757  137.8012  153.8351 C   0  0  0  0  0  0  0  0  0  0  0  0
  146.6197  136.6472  153.0132 N   0  0  0  0  0  0  0  0  0  0  0  0
  145.7465  135.6289  153.0897 C   0  0  0  0  0  0  0  0  0  0  0  0
  144.8309  135.5374  153.9080 O   0  0  0  0  0  0  0  0  0  0  0  0
  146.0028  134.6979  152.1596 N   0  0  0  0  0  0  0  0  0  0  0  0
  145.2517  133.4537  151.9848 C   0  0  1  0  0  0  0  0  0  0  0  0
  144.0537  133.6862  151.0465 C   0  0  0  0  0  0  0  0  0  0  0  0
  144.4149  133.0009  149.7298 C   0  0  0  0  0  0  0  0  0  0  0  0
  145.2516  131.7989  150.1572 C   0  0  0  0  0  0  0  0  0  0  0  0
  146.0773  132.2997  151.3492 C   0  0  1  0  0  0  0  0  0  0  0  0
  147.3499  132.7115  150.8804 O   0  0  0  0  0  0  0  0  0  0  0  0
  146.2288  137.9024  155.0765 N   0  0  0  0  0  0  0  0  0  0  0  0
  146.5117  139.2189  155.4569 O   0  0  0  0  0  0  0  0  0  0  0  0
  147.0136  143.2723  153.8502 H   0  0  0  0  0  0  0  0  0  0  0  0
  145.6637  142.1467  153.8329 H   0  0  0  0  0  0  0  0  0  0  0  0
  146.9564  141.9911  152.6481 H   0  0  0  0  0  0  0  0  0  0  0  0
  149.2890  141.2012  153.3832 H   0  0  0  0  0  0  0  0  0  0  0  0
  149.6125  140.8631  155.0786 H   0  0  0  0  0  0  0  0  0  0  0  0
  149.3235  142.5152  154.5530 H   0  0  0  0  0  0  0  0  0  0  0  0
  147.4416  142.7472  156.2843 H   0  0  0  0  0  0  0  0  0  0  0  0
  147.7199  141.0960  156.8193 H   0  0  0  0  0  0  0  0  0  0  0  0
  146.1132  141.5934  156.3051 H   0  0  0  0  0  0  0  0  0  0  0  0
  147.6921  139.2144  152.3933 H   0  0  0  0  0  0  0  0  0  0  0  0
  147.3276  136.5851  152.2967 H   0  0  0  0  0  0  0  0  0  0  0  0
  146.7798  134.8496  151.5332 H   0  0  0  0  0  0  0  0  0  0  0  0
  144.8633  133.1351  152.9541 H   0  0  0  0  0  0  0  0  0  0  0  0
  143.1696  133.2049  151.4670 H   0  0  0  0  0  0  0  0  0  0  0  0
  143.8076  134.7400  150.9079 H   0  0  0  0  0  0  0  0  0  0  0  0
  143.5370  132.7178  149.1483 H   0  0  0  0  0  0  0  0  0  0  0  0
  145.0197  133.6717  149.1182 H   0  0  0  0  0  0  0  0  0  0  0  0
  144.5847  131.0023  150.4901 H   0  0  0  0  0  0  0  0  0  0  0  0
  145.8586  131.3948  149.3457 H   0  0  0  0  0  0  0  0  0  0  0  0
  146.2369  131.4958  152.0686 H   0  0  0  0  0  0  0  0  0  0  0  0
  147.9263  131.9624  150.8894 H   0  0  0  0  0  0  0  0  0  0  0  0
  1  2  1  0  0  0  0
  1 20  1  0  0  0  0
  1 21  1  0  0  0  0
  1 22  1  0  0  0  0
  2  3  1  0  0  0  0
  2  4  1  0  0  0  0
  2  5  1  0  0  0  0
  3 23  1  0  0  0  0
  3 24  1  0  0  0  0
  3 25  1  0  0  0  0
  4 26  1  0  0  0  0
  4 27  1  0  0  0  0
  4 28  1  0  0  0  0
  5 19  1  0  0  0  0
  5  6  2  0  0  0  0
  6  7  1  0  0  0  0
  6 29  1  0  0  0  0
  7  8  1  0  0  0  0
  7 18  2  0  0  0  0
  8  9  1  0  0  0  0
  8 30  1  0  0  0  0
  9 10  2  0  0  0  0
  9 11  1  0  0  0  0
 11 12  1  0  0  0  0
 11 31  1  0  0  0  0
 12 16  1  0  0  0  0
 12 13  1  0  0  0  0
 12 32  1  0  0  0  0
 13 14  1  0  0  0  0
 13 33  1  0  0  0  0
 13 34  1  0  0  0  0
 14 15  1  0  0  0  0
 14 35  1  0  0  0  0
 14 36  1  0  0  0  0
 15 16  1  0  0  0  0
 15 37  1  0  0  0  0
 15 38  1  0  0  0  0
 16 17  1  0  0  0  0
 16 39  1  0  0  0  0
 17 40  1  0  0  0  0
 18 19  1  0  0  0  0
M  END
> <s_m_source_file>
AV-unprocessed.smi

> <i_m_source_file_index>
730

> <i_lp_mmshare_version>
43012

> <i_f3d_flags>
0

> <s_epik_input>
W0NIM11DKFtDSDNdKShbQ0gzXSljMVtjSF1jKG5vMSlbTkhdQyg9TylbTkhdW0NAQEhdMltDSDJdW0NIMl1bQ0gyXVtDQEhdMltPSF0=

> <s_epik_cmdline>
J2VwaWtfcHl0aG9uJywgJy1waCcsICc3LjAnLCAnLXRuJywgJzgnLCAnLW1hJywgJzIwMCcsICctbWV0YWxfYmluZGluZycsICctaW1hZScsICc8aW5maWxlLm1hZT4nLCAnLW9tYWUnLCAnPG91dGZpbGUubWFlPic=

> <r_lp_tautomer_probability>
1

> <r_epik_Ionization_Penalty>
2.23071e-05

> <r_epik_Ionization_Penalty_Charging>
0

> <r_epik_Ionization_Penalty_Neutral>
2.23071e-05

> <r_epik_State_Penalty>
-0

> <r_epik_Charging_Adjusted_Penalty>
0

> <i_epik_Tot_Q>
0

> <i_epik_Tot_abs_Q>
0

> <r_epik_Metal_State_Penalty>
-0

> <b_epik_Metal_Only>
0

> <s_lp_Force_Field>
OPLS_2005

> <r_lp_Energy>
21.0344

> <b_lp_Chiralities_Consistent>
1

> <s_lp_Variant>
AV-unprocessed.smi:730-2

> <Gold.Version>
5.8.1

> <Gold.Id.Protein>
6NUR|6NUR_protein|mol2

> <Gold.PLP.Fitness>
33.9271

> <Gold.PLP.PLP>
-29.0114

> <Gold.PLP.part.hbond>
-2.1664

> <Gold.PLP.part.metal>
0.0000

> <Gold.PLP.part.buried>
-3.9856

> <Gold.PLP.part.nonpolar>
-21.5433

> <Gold.PLP.part.repulsive>
0.1417

> <Gold.PLP.ligand.clash>
0.0000

> <Gold.PLP.ligand.torsion>
0.5433

> <Gold.PLP.Chemscore.Hbond>
2.0000

> <Gold.PLP.Chemscore.CHOScore>
0.0000

> <Gold.PLP.Chemscore.Metal>
0.0000

> <Gold.Chemscore.Hbonds>
donor molecule, donor type, donor heavy atom, donor atom, acceptor molecule, acceptor atom, score
      L1  H     8    30       P1  7948  1.00
      L1  H    17    40       P1 10747  1.00

> <Gold.PLP.Chemscore.Internal.Correction>
0.0024

> <Gold.Rescore>
     Score         DG    S(hbond)    S(metal)    S(lipo)     H(rot)  DE(clash)    DE(int)     intcor
     15.00     -16.38       1.98        0.00      74.16       1.71       0.01       1.37       ----

> <Gold.Chemscore.Fitness>
14.9977

> <Gold.Chemscore.DG>
-16.3780

> <Gold.Chemscore.ZeroCoef>
-5.4800

> <Gold.Chemscore.Hbond>
1.9776

> <Gold.Chemscore.Metal>
0.0000

> <Gold.Chemscore.Lipo>
74.1631

> <Gold.Chemscore.Internal_Hbond>
0.0000

> <Gold.Chemscore.DEClash>
0.0130

> <Gold.Chemscore.DEInternal>
1.3673

> <Gold.Chemscore.Rot>
1.7125

> <Gold.Chemscore.Internal.Correction>
   9.000000E+99

> <Gold.Chemscore.Hbonds>
donor molecule, donor type, donor heavy atom, donor atom, acceptor molecule, acceptor atom, score
      L1  H     8    30       P1  7948  0.94
      L1  H    17    40       P1 10747  0.98

> <Gold.Chemscore.Hbond.Weighted>
-6.6050

> <Gold.Chemscore.Metal.Weighted>
-0.0000

> <Gold.Chemscore.Lipo.Weighted>
-8.6771

> <Gold.Chemscore.Internal_Hbond.Weighted>
0.0000

> <Gold.Chemscore.DEClash.Weighted>
0.0130

> <Gold.Chemscore.DEInternal.Weighted>
1.3673

> <Gold.Chemscore.Rot.Weighted>
4.3841

> <Gold.Chemscore.Internal.Correction.Weighted>
   9.000000E+99

> <Gold.Protein.RotatedTorsions>
[ 6907 6896 6895 6894 ] final   30.41 input  -60.11 | X-H torsion
[ 7974 7965 7964 7962 ] final   81.54 input  175.53 | X-H torsion
[ 8008 7997 7996 7995 ] final  142.52 input   59.86 | X-H torsion
[ 10167 10162 10161 10158 ] final  -21.09 input  -65.29 | X-H torsion
[ 10718 10713 10712 10709 ] final  -41.51 input   66.30 | X-H torsion
[ 10763 10752 10751 10750 ] final  -23.37 input  -60.55 | X-H torsion
[ 11005 11000 10999 10996 ] final  -88.24 input  -57.11 | X-H torsion

> <Gold.Protein.ActiveResidues>
 VAL166  LYS551  ARG553  GLY616  TRP617  ASP618  TYR619  PRO620  LYS621  CYS622 
 ASP623  PHE694  ASN695  SER759  ASP760  ASP761  ALA762  ILE779  LEU786  VAL792 
 PHE793  MET794  SER795  GLU796  ALA797  LYS798  CYS799  TRP800  GLU811  SER814 

> <Gold.Protein.RotatedAtoms>
  152.0456  134.9685  160.0574 H   0  0  0  0  0  0  0  0  0  0  0  0  # atno 6907 bound_to 6896
  152.1106  133.4294  159.4637 H   0  0  0  0  0  0  0  0  0  0  0  0  # atno 6908 bound_to 6896
  150.6843  134.2572  159.4578 H   0  0  0  0  0  0  0  0  0  0  0  0  # atno 6909 bound_to 6896
  145.6368  139.2417  143.2053 H   0  0  0  0  0  0  0  0  0  0  0  0  # atno 7974 bound_to 7965
  156.2948  140.2286  156.4741 H   0  0  0  0  0  0  0  0  0  0  0  0  # atno 8008 bound_to 7997
  154.7909  140.0454  157.1221 H   0  0  0  0  0  0  0  0  0  0  0  0  # atno 8009 bound_to 7997
  154.9646  140.3058  155.5019 H   0  0  0  0  0  0  0  0  0  0  0  0  # atno 8010 bound_to 7997
  140.7280  143.4660  151.0312 H   0  0  0  0  0  0  0  0  0  0  0  0  # atno 10167 bound_to 10162
  156.2695  130.4205  149.8453 H   0  0  0  0  0  0  0  0  0  0  0  0  # atno 10718 bound_to 10713
  153.6668  135.6973  153.5160 H   0  0  0  0  0  0  0  0  0  0  0  0  # atno 10763 bound_to 10752
  153.2588  135.4251  155.0873 H   0  0  0  0  0  0  0  0  0  0  0  0  # atno 10764 bound_to 10752
  154.8437  135.3550  154.6213 H   0  0  0  0  0  0  0  0  0  0  0  0  # atno 10765 bound_to 10752
  141.1605  133.7558  156.9423 H   0  0  0  0  0  0  0  0  0  0  0  0  # atno 11005 bound_to 11000
  146.1312  140.7182  142.9411 LP  0  0  0  0  0  0  0  0  0  0  0  0  # atno 17320 bound_to 7965
  144.7172  140.4251  143.7035 LP  0  0  0  0  0  0  0  0  0  0  0  0  # atno 17321 bound_to 7965
  139.8349  143.7641  152.3180 LP  0  0  0  0  0  0  0  0  0  0  0  0  # atno 17342 bound_to 10162
  139.7770  144.7457  151.0142 LP  0  0  0  0  0  0  0  0  0  0  0  0  # atno 17343 bound_to 10162
  156.5939  130.8518  151.3415 LP  0  0  0  0  0  0  0  0  0  0  0  0  # atno 17370 bound_to 10713
  157.7279  130.9649  150.1719 LP  0  0  0  0  0  0  0  0  0  0  0  0  # atno 17371 bound_to 10713
  140.1313  134.9354  157.2341 LP  0  0  0  0  0  0  0  0  0  0  0  0  # atno 17394 bound_to 11000
  140.2950  134.3197  155.7305 LP  0  0  0  0  0  0  0  0  0  0  0  0  # atno 17395 bound_to 11000

$$$$
