AV-unprocessed.smi:213|AV-procd|sdf|1645|dock4
  -GOLD-   2262020 23D 1   1.00000     0.00000
 Structure written by MMmdl.
 58 61  0  0  0  0  0  0  0  0  1 V2000
  144.6187  136.8102  153.3942 C   0  0  0  0  0  0  0  0  0  0  0  0
  145.8460  137.0955  154.2772 C   0  0  2  0  0  0  0  0  0  0  0  0
  145.4705  137.8162  155.5915 C   0  0  0  0  0  0  0  0  0  0  0  0
  146.0253  137.2303  156.8120 N   0  0  0  0  0  0  0  0  0  0  0  0
  147.3517  137.7525  157.1365 C   0  0  0  0  0  0  0  0  0  0  0  0
  147.9047  137.1466  158.4386 C   0  0  0  0  0  0  0  0  0  0  0  0
  146.9899  137.3789  159.5047 O   0  0  0  0  0  0  0  0  0  0  0  0
  145.6971  136.8423  159.2441 C   0  0  0  0  0  0  0  0  0  0  0  0
  145.1385  137.4551  157.9484 C   0  0  0  0  0  0  0  0  0  0  0  0
  146.8599  137.8532  153.5369 N   0  0  0  0  0  0  0  0  0  0  0  0
  146.5009  138.5832  152.3224 C   0  0  0  0  0  0  0  0  0  0  0  0
  147.9805  138.2403  154.1997 C   0  0  0  0  0  0  0  0  0  0  0  0
  148.7984  137.2915  154.7294 N   0  0  0  0  0  0  0  0  0  0  0  0
  149.9039  137.6439  155.3925 C   0  0  0  0  0  0  0  0  0  0  0  0
  150.3691  138.8678  155.6480 N   0  0  0  0  0  0  0  0  0  0  0  0
  149.5479  139.8250  155.1301 C   0  0  0  0  0  0  0  0  0  0  0  0
  148.3476  139.6031  154.3969 C   0  0  0  0  0  0  0  0  0  0  0  0
  147.7783  140.8236  154.0485 N   0  0  0  0  0  0  0  0  0  0  0  0
  148.5977  141.7128  154.5392 C   0  0  0  0  0  0  0  0  0  0  0  0
  149.6817  141.1989  155.2131 N   0  0  0  0  0  0  0  0  0  0  0  0
  150.7333  141.9497  155.8760 C   0  0  0  0  0  0  0  0  0  0  0  0
  150.5292  142.0156  157.4028 C   0  0  2  0  0  0  0  0  0  0  0  0
  149.2992  142.6591  157.6784 O   0  0  0  0  0  0  0  0  0  0  0  0
  151.6623  142.7773  158.1149 C   0  0  1  0  0  0  0  0  0  0  0  0
  151.7756  144.2512  157.7191 C   0  0  0  0  0  0  0  0  0  0  0  0
  152.4607  144.8425  158.9288 C   0  0  0  0  0  0  0  0  0  0  0  0
  151.7960  144.0727  160.0654 C   0  0  0  0  0  0  0  0  0  0  0  0
  151.4374  142.8037  159.5237 O   0  0  0  0  0  0  0  0  0  0  0  0
  143.9092  136.1613  153.9079 H   0  0  0  0  0  0  0  0  0  0  0  0
  144.9116  136.3052  152.4733 H   0  0  0  0  0  0  0  0  0  0  0  0
  144.0885  137.7227  153.1225 H   0  0  0  0  0  0  0  0  0  0  0  0
  146.2714  136.1324  154.5474 H   0  0  0  0  0  0  0  0  0  0  0  0
  145.7730  138.8628  155.5279 H   0  0  0  0  0  0  0  0  0  0  0  0
  144.3825  137.8269  155.6699 H   0  0  0  0  0  0  0  0  0  0  0  0
  148.0540  137.5387  156.3321 H   0  0  0  0  0  0  0  0  0  0  0  0
  147.3082  138.8386  157.2338 H   0  0  0  0  0  0  0  0  0  0  0  0
  148.0743  136.0750  158.3233 H   0  0  0  0  0  0  0  0  0  0  0  0
  148.8651  137.5977  158.6889 H   0  0  0  0  0  0  0  0  0  0  0  0
  145.7553  135.7556  159.1639 H   0  0  0  0  0  0  0  0  0  0  0  0
  145.0406  137.0673  160.0848 H   0  0  0  0  0  0  0  0  0  0  0  0
  144.9856  138.5258  158.0926 H   0  0  0  0  0  0  0  0  0  0  0  0
  144.1572  137.0256  157.7430 H   0  0  0  0  0  0  0  0  0  0  0  0
  147.3705  138.7074  151.6759 H   0  0  0  0  0  0  0  0  0  0  0  0
  146.1102  139.5712  152.5682 H   0  0  0  0  0  0  0  0  0  0  0  0
  145.7396  138.0533  151.7515 H   0  0  0  0  0  0  0  0  0  0  0  0
  150.4989  136.8281  155.7757 H   0  0  0  0  0  0  0  0  0  0  0  0
  148.4255  142.7743  154.4340 H   0  0  0  0  0  0  0  0  0  0  0  0
  151.6872  141.4775  155.6391 H   0  0  0  0  0  0  0  0  0  0  0  0
  150.7679  142.9539  155.4512 H   0  0  0  0  0  0  0  0  0  0  0  0
  150.4738  141.0023  157.8030 H   0  0  0  0  0  0  0  0  0  0  0  0
  149.0625  143.1831  156.9284 H   0  0  0  0  0  0  0  0  0  0  0  0
  152.6206  142.2845  157.9410 H   0  0  0  0  0  0  0  0  0  0  0  0
  152.3352  144.4020  156.7954 H   0  0  0  0  0  0  0  0  0  0  0  0
  150.7870  144.6963  157.5968 H   0  0  0  0  0  0  0  0  0  0  0  0
  153.5290  144.6238  158.8985 H   0  0  0  0  0  0  0  0  0  0  0  0
  152.3329  145.9223  159.0109 H   0  0  0  0  0  0  0  0  0  0  0  0
  152.4490  143.9664  160.9318 H   0  0  0  0  0  0  0  0  0  0  0  0
  150.8851  144.5788  160.3876 H   0  0  0  0  0  0  0  0  0  0  0  0
  1  2  1  0  0  0  0
  1 29  1  0  0  0  0
  1 30  1  0  0  0  0
  1 31  1  0  0  0  0
  2  3  1  0  0  0  0
  2 10  1  0  0  0  0
  2 32  1  0  0  0  0
  3  4  1  0  0  0  0
  3 33  1  0  0  0  0
  3 34  1  0  0  0  0
  4  9  1  0  0  0  0
  4  5  1  0  0  0  0
  5  6  1  0  0  0  0
  5 35  1  0  0  0  0
  5 36  1  0  0  0  0
  6  7  1  0  0  0  0
  6 37  1  0  0  0  0
  6 38  1  0  0  0  0
  7  8  1  0  0  0  0
  8  9  1  0  0  0  0
  8 39  1  0  0  0  0
  8 40  1  0  0  0  0
  9 41  1  0  0  0  0
  9 42  1  0  0  0  0
 10 11  1  0  0  0  0
 10 12  1  0  0  0  0
 11 43  1  0  0  0  0
 11 44  1  0  0  0  0
 11 45  1  0  0  0  0
 12 17  1  0  0  0  0
 12 13  2  0  0  0  0
 13 14  1  0  0  0  0
 14 15  2  0  0  0  0
 14 46  1  0  0  0  0
 15 16  1  0  0  0  0
 16 20  1  0  0  0  0
 16 17  2  0  0  0  0
 17 18  1  0  0  0  0
 18 19  2  0  0  0  0
 19 20  1  0  0  0  0
 19 47  1  0  0  0  0
 20 21  1  0  0  0  0
 21 22  1  0  0  0  0
 21 48  1  0  0  0  0
 21 49  1  0  0  0  0
 22 23  1  0  0  0  0
 22 24  1  0  0  0  0
 22 50  1  0  0  0  0
 23 51  1  0  0  0  0
 24 28  1  0  0  0  0
 24 25  1  0  0  0  0
 24 52  1  0  0  0  0
 25 26  1  0  0  0  0
 25 53  1  0  0  0  0
 25 54  1  0  0  0  0
 26 27  1  0  0  0  0
 26 55  1  0  0  0  0
 26 56  1  0  0  0  0
 27 28  1  0  0  0  0
 27 57  1  0  0  0  0
 27 58  1  0  0  0  0
M  END
> <s_m_source_file>
AV-unprocessed.smi

> <i_m_source_file_index>
213

> <i_lp_mmshare_version>
43012

> <i_f3d_flags>
0

> <s_epik_input>
W0NIMl0xW0NIMl1PW0NIMl1bQ0gyXU4xW0NIMl1bQ0BASF0oW0NIM10pTihbQ0gzXSljKG5bY0hdbjIpYyhjMjMpbltjSF1uM1tDSDJdW0NASF0oW09IXSlbQ0BASF00W0NIMl1bQ0gyXVtDSDJdTzQ=

> <s_epik_cmdline>
J2VwaWtfcHl0aG9uJywgJy1waCcsICc3LjAnLCAnLXRuJywgJzgnLCAnLW1hJywgJzIwMCcsICctbWV0YWxfYmluZGluZycsICctaW1hZScsICc8aW5maWxlLm1hZT4nLCAnLW9tYWUnLCAnPG91dGZpbGUubWFlPic=

> <r_lp_tautomer_probability>
1

> <r_epik_Ionization_Penalty>
0.423322

> <r_epik_Ionization_Penalty_Charging>
0

> <r_epik_Ionization_Penalty_Neutral>
0.423322

> <r_epik_State_Penalty>
0.569486

> <r_epik_Charging_Adjusted_Penalty>
0.569486

> <i_epik_Tot_Q>
0

> <i_epik_Tot_abs_Q>
0

> <r_epik_Metal_State_Penalty>
0.568671

> <b_epik_Metal_Only>
0

> <s_lp_Force_Field>
OPLS_2005

> <r_lp_Energy>
51.3499

> <b_lp_Chiralities_Consistent>
1

> <s_lp_Variant>
AV-unprocessed.smi:213-13

> <Gold.Version>
5.8.1

> <Gold.Id.Protein>
6NUR|6NUR_protein|mol2

> <Gold.PLP.Fitness>
42.0802

> <Gold.PLP.PLP>
-37.2358

> <Gold.PLP.part.hbond>
-2.0000

> <Gold.PLP.part.metal>
0.0000

> <Gold.PLP.part.buried>
-5.6500

> <Gold.PLP.part.nonpolar>
-31.1633

> <Gold.PLP.part.repulsive>
0.2964

> <Gold.PLP.ligand.clash>
0.0000

> <Gold.PLP.ligand.torsion>
2.4363

> <Gold.PLP.Chemscore.Hbond>
1.9440

> <Gold.PLP.Chemscore.CHOScore>
1.0000

> <Gold.PLP.Chemscore.Metal>
0.0000

> <Gold.Chemscore.Hbonds>
donor molecule, donor type, donor heavy atom, donor atom, acceptor molecule, acceptor atom, score
      L1  H    23    51       P1  8028  1.00
      P1  H  6934  6947       L1     7  0.60
      L1  C    19    47       P1  8028  1.00

> <Gold.PLP.Chemscore.Internal.Correction>
0.8850

> <Gold.Rescore>
     Score         DG    S(hbond)    S(metal)    S(lipo)     H(rot)  DE(clash)    DE(int)     intcor
     10.98     -14.24       1.76        0.00      84.57       2.74       0.61       2.66       ----

> <Gold.Chemscore.Fitness>
10.9755

> <Gold.Chemscore.DG>
-14.2412

> <Gold.Chemscore.ZeroCoef>
-5.4800

> <Gold.Chemscore.Hbond>
1.7589

> <Gold.Chemscore.Metal>
0.0000

> <Gold.Chemscore.Lipo>
84.5736

> <Gold.Chemscore.Internal_Hbond>
0.0000

> <Gold.Chemscore.DEClash>
0.6066

> <Gold.Chemscore.DEInternal>
2.6590

> <Gold.Chemscore.Rot>
2.7378

> <Gold.Chemscore.Internal.Correction>
   9.000000E+99

> <Gold.Chemscore.Hbonds>
donor molecule, donor type, donor heavy atom, donor atom, acceptor molecule, acceptor atom, score
      L1  H    23    51       P1  8028  0.85
      P1  H  6934  6947       L1     7  0.56

> <Gold.Chemscore.Hbond.Weighted>
-5.8747

> <Gold.Chemscore.Metal.Weighted>
-0.0000

> <Gold.Chemscore.Lipo.Weighted>
-9.8951

> <Gold.Chemscore.Internal_Hbond.Weighted>
0.0000

> <Gold.Chemscore.DEClash.Weighted>
0.6066

> <Gold.Chemscore.DEInternal.Weighted>
2.6590

> <Gold.Chemscore.Rot.Weighted>
7.0087

> <Gold.Chemscore.Internal.Correction.Weighted>
   9.000000E+99

> <Gold.Protein.RotatedTorsions>
[ 6907 6896 6895 6894 ] final  152.89 input  -60.11 | X-H torsion
[ 7974 7965 7964 7962 ] final  147.01 input  175.53 | X-H torsion
[ 8008 7997 7996 7995 ] final -136.54 input   59.86 | X-H torsion
[ 10167 10162 10161 10158 ] final -170.57 input  -65.29 | X-H torsion
[ 10718 10713 10712 10709 ] final  162.65 input   66.30 | X-H torsion
[ 10763 10752 10751 10750 ] final -168.66 input  -60.55 | X-H torsion
[ 11005 11000 10999 10996 ] final -104.80 input  -57.11 | X-H torsion

> <Gold.Protein.ActiveResidues>
 VAL166  LYS551  ARG553  GLY616  TRP617  ASP618  TYR619  PRO620  LYS621  CYS622 
 ASP623  PHE694  ASN695  SER759  ASP760  ASP761  ALA762  ILE779  LEU786  VAL792 
 PHE793  MET794  SER795  GLU796  ALA797  LYS798  CYS799  TRP800  GLU811  SER814 

> <Gold.Protein.RotatedAtoms>
  152.0804  133.4150  159.4498 H   0  0  0  0  0  0  0  0  0  0  0  0  # atno 6907 bound_to 6896
  150.6862  134.2989  159.4707 H   0  0  0  0  0  0  0  0  0  0  0  0  # atno 6908 bound_to 6896
  152.0830  134.9458  160.0624 H   0  0  0  0  0  0  0  0  0  0  0  0  # atno 6909 bound_to 6896
  144.8625  139.5976  143.5924 H   0  0  0  0  0  0  0  0  0  0  0  0  # atno 7974 bound_to 7965
  155.3970  140.0503  157.3038 H   0  0  0  0  0  0  0  0  0  0  0  0  # atno 8008 bound_to 7997
  154.5009  140.2156  155.9310 H   0  0  0  0  0  0  0  0  0  0  0  0  # atno 8009 bound_to 7997
  156.1466  140.3144  155.8585 H   0  0  0  0  0  0  0  0  0  0  0  0  # atno 8010 bound_to 7997
  139.5854  144.1330  152.1568 H   0  0  0  0  0  0  0  0  0  0  0  0  # atno 10167 bound_to 10162
  157.1195  131.0489  151.2421 H   0  0  0  0  0  0  0  0  0  0  0  0  # atno 10718 bound_to 10713
  154.6605  135.2924  154.9872 H   0  0  0  0  0  0  0  0  0  0  0  0  # atno 10763 bound_to 10752
  154.0933  135.6587  153.4860 H   0  0  0  0  0  0  0  0  0  0  0  0  # atno 10764 bound_to 10752
  153.0427  135.5225  154.7554 H   0  0  0  0  0  0  0  0  0  0  0  0  # atno 10765 bound_to 10752
  141.1084  133.8754  157.1655 H   0  0  0  0  0  0  0  0  0  0  0  0  # atno 11005 bound_to 11000
  146.2871  139.7035  142.9187 LP  0  0  0  0  0  0  0  0  0  0  0  0  # atno 17320 bound_to 7965
  145.4285  141.0413  143.2924 LP  0  0  0  0  0  0  0  0  0  0  0  0  # atno 17321 bound_to 7965
  140.0893  144.5634  150.7066 LP  0  0  0  0  0  0  0  0  0  0  0  0  # atno 17342 bound_to 10162
  140.7126  143.2518  151.4533 LP  0  0  0  0  0  0  0  0  0  0  0  0  # atno 17343 bound_to 10162
  157.4489  130.7587  149.7133 LP  0  0  0  0  0  0  0  0  0  0  0  0  # atno 17370 bound_to 10713
  155.9832  130.4003  150.3378 LP  0  0  0  0  0  0  0  0  0  0  0  0  # atno 17371 bound_to 10713
  139.9964  135.0045  157.0093 LP  0  0  0  0  0  0  0  0  0  0  0  0  # atno 17394 bound_to 11000
  140.4842  134.1258  155.7222 LP  0  0  0  0  0  0  0  0  0  0  0  0  # atno 17395 bound_to 11000

$$$$
