AV-unprocessed.smi:155|AV-procd|sdf|1278|dock5
  -GOLD-   2262018543D 1   1.00000     0.00000
 Structure written by MMmdl.
 63 66  0  0  0  0  0  0  0  0  2 V2000
  143.6772  132.6920  148.3685 C   0  0  0  0  0  0  0  0  0  0  0  0
  144.7987  133.1320  149.2311 N   0  3  0  0  0  0  0  0  0  0  0  0
  145.4964  131.9776  149.8397 C   0  0  0  0  0  0  0  0  0  0  0  0
  144.3975  134.1421  150.2424 C   0  0  0  0  0  0  0  0  0  0  0  0
  145.5855  134.6001  151.1147 C   0  0  0  0  0  0  0  0  0  0  0  0
  145.2200  135.7092  151.9966 N   0  0  0  0  0  0  0  0  0  0  0  0
  145.3719  135.3728  153.4203 C   0  0  0  0  0  0  0  0  0  0  0  0
  146.7798  135.6179  154.0029 C   0  0  0  0  0  0  0  0  0  0  0  0
  146.9519  137.0467  154.5536 C   0  0  0  0  0  0  0  0  0  0  0  0
  146.9422  138.0733  153.5101 N   0  0  0  0  0  0  0  0  0  0  0  0
  147.4789  139.2848  153.8057 C   0  0  0  0  0  0  0  0  0  0  0  0
  146.9252  140.4128  153.2857 N   0  0  0  0  0  0  0  0  0  0  0  0
  147.4533  141.6102  153.5551 C   0  0  0  0  0  0  0  0  0  0  0  0
  148.5130  141.9041  154.3108 N   0  0  0  0  0  0  0  0  0  0  0  0
  149.0656  140.7786  154.8470 C   0  0  0  0  0  0  0  0  0  0  0  0
  148.6159  139.4424  154.6483 C   0  0  0  0  0  0  0  0  0  0  0  0
  149.4216  138.5619  155.3611 N   0  0  0  0  0  0  0  0  0  0  0  0
  150.3041  139.3319  155.9368 C   0  0  0  0  0  0  0  0  0  0  0  0
  150.1555  140.6790  155.6946 N   0  0  0  0  0  0  0  0  0  0  0  0
  151.0000  141.7495  156.1975 C   0  0  0  0  0  0  0  0  0  0  0  0
  150.6274  142.2220  157.6214 C   0  0  1  0  0  0  0  0  0  0  0  0
  150.5257  141.0482  158.4013 O   0  0  0  0  0  0  0  0  0  0  0  0
  151.6704  143.1305  158.3106 C   0  0  1  0  0  0  0  0  0  0  0  0
  151.6550  144.6061  157.9012 C   0  0  0  0  0  0  0  0  0  0  0  0
  152.2139  145.3336  159.1138 C   0  0  0  0  0  0  0  0  0  0  0  0
  152.1442  144.2924  160.2312 C   0  0  0  0  0  0  0  0  0  0  0  0
  151.3600  143.2386  159.6927 O   0  0  0  0  0  0  0  0  0  0  0  0
  145.8284  138.0838  152.5626 C   0  0  0  0  0  0  0  0  0  0  0  0
  145.9476  136.9107  151.5764 C   0  0  0  0  0  0  0  0  0  0  0  0
  142.9068  132.1898  148.9552 H   0  0  0  0  0  0  0  0  0  0  0  0
  144.0309  131.9944  147.6084 H   0  0  0  0  0  0  0  0  0  0  0  0
  143.2145  133.5297  147.8481 H   0  0  0  0  0  0  0  0  0  0  0  0
  144.8425  131.4472  150.5335 H   0  0  0  0  0  0  0  0  0  0  0  0
  146.3832  132.3029  150.3849 H   0  0  0  0  0  0  0  0  0  0  0  0
  145.8232  131.2747  149.0725 H   0  0  0  0  0  0  0  0  0  0  0  0
  143.9363  134.9907  149.7339 H   0  0  0  0  0  0  0  0  0  0  0  0
  143.6295  133.7157  150.8883 H   0  0  0  0  0  0  0  0  0  0  0  0
  145.9972  133.7673  151.6865 H   0  0  0  0  0  0  0  0  0  0  0  0
  146.3860  134.9465  150.4615 H   0  0  0  0  0  0  0  0  0  0  0  0
  144.6476  135.9566  153.9891 H   0  0  0  0  0  0  0  0  0  0  0  0
  145.0852  134.3369  153.5929 H   0  0  0  0  0  0  0  0  0  0  0  0
  146.9178  134.9308  154.8383 H   0  0  0  0  0  0  0  0  0  0  0  0
  147.5654  135.3687  153.2886 H   0  0  0  0  0  0  0  0  0  0  0  0
  146.1688  137.2648  155.2811 H   0  0  0  0  0  0  0  0  0  0  0  0
  147.9009  137.0944  155.0898 H   0  0  0  0  0  0  0  0  0  0  0  0
  146.9563  142.4535  153.0988 H   0  0  0  0  0  0  0  0  0  0  0  0
  151.0904  138.9349  156.5625 H   0  0  0  0  0  0  0  0  0  0  0  0
  152.0239  141.3727  156.1877 H   0  0  0  0  0  0  0  0  0  0  0  0
  150.9755  142.5881  155.5005 H   0  0  0  0  0  0  0  0  0  0  0  0
  149.6515  142.7087  157.6120 H   0  0  0  0  0  0  0  0  0  0  0  0
  150.0124  141.2466  159.1700 H   0  0  0  0  0  0  0  0  0  0  0  0
  152.6781  142.7265  158.1911 H   0  0  0  0  0  0  0  0  0  0  0  0
  152.2380  144.7991  157.0012 H   0  0  0  0  0  0  0  0  0  0  0  0
  150.6320  144.9390  157.7221 H   0  0  0  0  0  0  0  0  0  0  0  0
  153.2430  145.6557  158.9505 H   0  0  0  0  0  0  0  0  0  0  0  0
  151.6168  146.2162  159.3462 H   0  0  0  0  0  0  0  0  0  0  0  0
  153.1401  143.9150  160.4680 H   0  0  0  0  0  0  0  0  0  0  0  0
  151.7011  144.6863  161.1463 H   0  0  0  0  0  0  0  0  0  0  0  0
  144.8772  138.0636  153.0959 H   0  0  0  0  0  0  0  0  0  0  0  0
  145.8182  139.0132  151.9940 H   0  0  0  0  0  0  0  0  0  0  0  0
  146.9996  136.6879  151.3884 H   0  0  0  0  0  0  0  0  0  0  0  0
  145.5300  137.2192  150.6172 H   0  0  0  0  0  0  0  0  0  0  0  0
  145.4750  133.5808  148.6298 H   0  0  0  0  0  0  0  0  0  0  0  0
  1  2  1  0  0  0  0
  1 30  1  0  0  0  0
  1 31  1  0  0  0  0
  1 32  1  0  0  0  0
  2  3  1  0  0  0  0
  2  4  1  0  0  0  0
  2 63  1  0  0  0  0
  3 33  1  0  0  0  0
  3 34  1  0  0  0  0
  3 35  1  0  0  0  0
  4  5  1  0  0  0  0
  4 36  1  0  0  0  0
  4 37  1  0  0  0  0
  5  6  1  0  0  0  0
  5 38  1  0  0  0  0
  5 39  1  0  0  0  0
  6 29  1  0  0  0  0
  6  7  1  0  0  0  0
  7  8  1  0  0  0  0
  7 40  1  0  0  0  0
  7 41  1  0  0  0  0
  8  9  1  0  0  0  0
  8 42  1  0  0  0  0
  8 43  1  0  0  0  0
  9 10  1  0  0  0  0
  9 44  1  0  0  0  0
  9 45  1  0  0  0  0
 10 11  1  0  0  0  0
 10 28  1  0  0  0  0
 11 16  1  0  0  0  0
 11 12  2  0  0  0  0
 12 13  1  0  0  0  0
 13 14  2  0  0  0  0
 13 46  1  0  0  0  0
 14 15  1  0  0  0  0
 15 19  1  0  0  0  0
 15 16  2  0  0  0  0
 16 17  1  0  0  0  0
 17 18  2  0  0  0  0
 18 19  1  0  0  0  0
 18 47  1  0  0  0  0
 19 20  1  0  0  0  0
 20 21  1  0  0  0  0
 20 48  1  0  0  0  0
 20 49  1  0  0  0  0
 21 22  1  0  0  0  0
 21 23  1  0  0  0  0
 21 50  1  0  0  0  0
 22 51  1  0  0  0  0
 23 27  1  0  0  0  0
 23 24  1  0  0  0  0
 23 52  1  0  0  0  0
 24 25  1  0  0  0  0
 24 53  1  0  0  0  0
 24 54  1  0  0  0  0
 25 26  1  0  0  0  0
 25 55  1  0  0  0  0
 25 56  1  0  0  0  0
 26 27  1  0  0  0  0
 26 57  1  0  0  0  0
 26 58  1  0  0  0  0
 28 29  1  0  0  0  0
 28 59  1  0  0  0  0
 28 60  1  0  0  0  0
 29 61  1  0  0  0  0
 29 62  1  0  0  0  0
M  CHG  1   2   1
M  END
> <s_m_source_file>
AV-unprocessed.smi

> <i_m_source_file_index>
155

> <i_lp_mmshare_version>
43012

> <i_f3d_flags>
0

> <s_epik_input>
W0NIM11OKFtDSDNdKVtDSDJdW0NIMl1OMVtDSDJdW0NIMl1bQ0gyXU4oW0NIMl1bQ0gyXTEpYyhuW2NIXW4yKWMoYzIzKW5bY0hdbjNbQ0gyXVtDQEhdKFtPSF0pW0NAQEhdNFtDSDJdW0NIMl1bQ0gyXU80

> <s_epik_cmdline>
J2VwaWtfcHl0aG9uJywgJy1waCcsICc3LjAnLCAnLXRuJywgJzgnLCAnLW1hJywgJzIwMCcsICctbWV0YWxfYmluZGluZycsICctaW1hZScsICc8aW5maWxlLm1hZT4nLCAnLW9tYWUnLCAnPG91dGZpbGUubWFlPic=

> <r_lp_tautomer_probability>
1

> <r_epik_Ionization_Penalty>
0.0599493

> <r_epik_Ionization_Penalty_Charging>
0.00816363

> <r_epik_Ionization_Penalty_Neutral>
0.0517857

> <r_epik_State_Penalty>
0.460607

> <r_epik_Charging_Adjusted_Penalty>
0.468771

> <i_epik_Tot_Q>
1

> <i_epik_Tot_abs_Q>
1

> <r_epik_Metal_State_Penalty>
0.45965

> <b_epik_Metal_Only>
0

> <s_lp_Force_Field>
OPLS_2005

> <r_lp_Energy>
60.0635

> <b_lp_Chiralities_Consistent>
1

> <s_lp_Variant>
AV-unprocessed.smi:155-12

> <Gold.Version>
5.8.1

> <Gold.Id.Protein>
6NUR|6NUR_protein|mol2

> <Gold.PLP.Fitness>
50.0368

> <Gold.PLP.PLP>
-49.9602

> <Gold.PLP.part.hbond>
-1.8387

> <Gold.PLP.part.metal>
0.0000

> <Gold.PLP.part.buried>
-5.2194

> <Gold.PLP.part.nonpolar>
-43.8087

> <Gold.PLP.part.repulsive>
0.8394

> <Gold.PLP.ligand.clash>
0.0000

> <Gold.PLP.ligand.torsion>
1.6450

> <Gold.PLP.Chemscore.Hbond>
1.0000

> <Gold.PLP.Chemscore.CHOScore>
0.0000

> <Gold.PLP.Chemscore.Metal>
0.0000

> <Gold.Chemscore.Hbonds>
donor molecule, donor type, donor heavy atom, donor atom, acceptor molecule, acceptor atom, score
      L1  H     2    63       P1  7921  1.00
      P1  H  8011  8017       L1    14  0.01

> <Gold.PLP.Chemscore.Internal.Correction>
0.3667

> <Gold.Rescore>
     Score         DG    S(hbond)    S(metal)    S(lipo)     H(rot)  DE(clash)    DE(int)     intcor
     13.04     -16.41       0.96        0.00     125.35       2.71       0.68       2.69       ----

> <Gold.Chemscore.Fitness>
13.0423

> <Gold.Chemscore.DG>
-16.4082

> <Gold.Chemscore.ZeroCoef>
-5.4800

> <Gold.Chemscore.Hbond>
0.9565

> <Gold.Chemscore.Metal>
0.0000

> <Gold.Chemscore.Lipo>
125.3497

> <Gold.Chemscore.Internal_Hbond>
0.0000

> <Gold.Chemscore.DEClash>
0.6770

> <Gold.Chemscore.DEInternal>
2.6889

> <Gold.Chemscore.Rot>
2.7080

> <Gold.Chemscore.Internal.Correction>
   9.000000E+99

> <Gold.Chemscore.Hbonds>
donor molecule, donor type, donor heavy atom, donor atom, acceptor molecule, acceptor atom, score
      L1  H     2    63       P1  7921  0.34

> <Gold.Chemscore.Hbond.Weighted>
-3.1948

> <Gold.Chemscore.Metal.Weighted>
-0.0000

> <Gold.Chemscore.Lipo.Weighted>
-14.6659

> <Gold.Chemscore.Internal_Hbond.Weighted>
0.0000

> <Gold.Chemscore.DEClash.Weighted>
0.6770

> <Gold.Chemscore.DEInternal.Weighted>
2.6889

> <Gold.Chemscore.Rot.Weighted>
6.9326

> <Gold.Chemscore.Internal.Correction.Weighted>
   9.000000E+99

> <Gold.Protein.RotatedTorsions>
[ 6907 6896 6895 6894 ] final  156.72 input  -60.11 | X-H torsion
[ 7974 7965 7964 7962 ] final -101.83 input  175.53 | X-H torsion
[ 8008 7997 7996 7995 ] final  116.31 input   59.86 | X-H torsion
[ 10167 10162 10161 10158 ] final  179.26 input  -65.29 | X-H torsion
[ 10718 10713 10712 10709 ] final -156.06 input   66.30 | X-H torsion
[ 10763 10752 10751 10750 ] final  -47.08 input  -60.55 | X-H torsion
[ 11005 11000 10999 10996 ] final -118.40 input  -57.11 | X-H torsion

> <Gold.Protein.ActiveResidues>
 VAL166  LYS551  ARG553  GLY616  TRP617  ASP618  TYR619  PRO620  LYS621  CYS622 
 ASP623  PHE694  ASN695  SER759  ASP760  ASP761  ALA762  ILE779  LEU786  VAL792 
 PHE793  MET794  SER795  GLU796  ALA797  LYS798  CYS799  TRP800  GLU811  SER814 

> <Gold.Protein.RotatedAtoms>
  152.0256  133.3916  159.4275 H   0  0  0  0  0  0  0  0  0  0  0  0  # atno 6907 bound_to 6896
  150.6886  134.3577  159.4946 H   0  0  0  0  0  0  0  0  0  0  0  0  # atno 6908 bound_to 6896
  152.1357  134.9101  160.0607 H   0  0  0  0  0  0  0  0  0  0  0  0  # atno 6909 bound_to 6896
  145.2765  140.9314  143.2956 H   0  0  0  0  0  0  0  0  0  0  0  0  # atno 7974 bound_to 7965
  156.2432  140.2920  156.0503 H   0  0  0  0  0  0  0  0  0  0  0  0  # atno 8008 bound_to 7997
  155.1889  140.0406  157.2914 H   0  0  0  0  0  0  0  0  0  0  0  0  # atno 8009 bound_to 7997
  154.6208  140.2475  155.7558 H   0  0  0  0  0  0  0  0  0  0  0  0  # atno 8010 bound_to 7997
  139.5329  144.2582  152.0729 H   0  0  0  0  0  0  0  0  0  0  0  0  # atno 10167 bound_to 10162
  156.5213  130.8479  151.2683 H   0  0  0  0  0  0  0  0  0  0  0  0  # atno 10718 bound_to 10713
  154.0555  135.6625  153.4805 H   0  0  0  0  0  0  0  0  0  0  0  0  # atno 10763 bound_to 10752
  153.0447  135.5122  154.7710 H   0  0  0  0  0  0  0  0  0  0  0  0  # atno 10764 bound_to 10752
  154.6729  135.3032  154.9684 H   0  0  0  0  0  0  0  0  0  0  0  0  # atno 10765 bound_to 10752
  141.0288  134.0012  157.3173 H   0  0  0  0  0  0  0  0  0  0  0  0  # atno 11005 bound_to 11000
  144.9290  139.4321  143.6504 LP  0  0  0  0  0  0  0  0  0  0  0  0  # atno 17320 bound_to 7965
  146.3230  139.8191  142.8930 LP  0  0  0  0  0  0  0  0  0  0  0  0  # atno 17321 bound_to 7965
  140.2048  144.4622  150.6414 LP  0  0  0  0  0  0  0  0  0  0  0  0  # atno 17342 bound_to 10162
  140.6518  143.2227  151.6059 LP  0  0  0  0  0  0  0  0  0  0  0  0  # atno 17343 bound_to 10162
  157.7436  130.9916  150.2607 LP  0  0  0  0  0  0  0  0  0  0  0  0  # atno 17370 bound_to 10713
  156.3147  130.3777  149.7630 LP  0  0  0  0  0  0  0  0  0  0  0  0  # atno 17371 bound_to 10713
  139.9194  135.0199  156.8007 LP  0  0  0  0  0  0  0  0  0  0  0  0  # atno 17394 bound_to 11000
  140.6443  133.9790  155.7723 LP  0  0  0  0  0  0  0  0  0  0  0  0  # atno 17395 bound_to 11000

$$$$
