AV-unprocessed.smi:3197|AV-procd|sdf|12226|dock2
  -GOLD-   2272018 53D 1   1.00000     0.00000
 Structure written by MMmdl.
 33 34  0  0  0  0  0  0  0  0  1 V2000
  144.8866  132.0618  150.7178 C   0  0  0  0  0  0  0  0  0  0  0  0
  146.2315  132.2781  151.0787 C   0  0  0  0  0  0  0  0  0  0  0  0
  146.6927  133.5063  151.4012 N   0  0  0  0  0  0  0  0  0  0  0  0
  145.8160  134.5132  151.3635 C   0  0  0  0  0  0  0  0  0  0  0  0
  146.3221  135.7552  151.6950 N   0  0  0  0  0  0  0  0  0  0  0  0
  145.5079  136.8821  152.1243 C   0  0  0  0  0  0  0  0  0  0  0  0
  146.2918  138.1967  152.0623 C   0  0  0  0  0  0  0  0  0  0  0  0
  146.8709  138.4455  153.3323 O   0  0  0  0  0  0  0  0  0  0  0  0
  147.4298  139.7437  153.4388 C   0  0  0  0  0  0  0  0  0  0  0  0
  148.5906  139.7025  154.4424 C   0  0  1  0  0  0  0  0  0  0  0  0
  149.6428  138.6552  154.1389 C   0  0  0  0  0  0  0  0  0  0  0  0
  150.8291  139.1596  154.9545 C   0  0  0  0  0  0  0  0  0  0  0  0
  150.7146  140.5799  154.9671 O   0  0  0  0  0  0  0  0  0  0  0  0
  149.4400  140.9728  154.4656 C   0  0  0  0  0  0  0  0  0  0  0  0
  144.5209  134.4233  151.0376 N   0  0  0  0  0  0  0  0  0  0  0  0
  144.0531  133.1981  150.7138 C   0  0  0  0  0  0  0  0  0  0  0  0
  144.5159  131.0810  150.4591 H   0  0  0  0  0  0  0  0  0  0  0  0
  146.9397  131.4633  151.1079 H   0  0  0  0  0  0  0  0  0  0  0  0
  147.3121  135.9028  151.5625 H   0  0  0  0  0  0  0  0  0  0  0  0
  144.6100  136.9485  151.5087 H   0  0  0  0  0  0  0  0  0  0  0  0
  145.1826  136.6999  153.1490 H   0  0  0  0  0  0  0  0  0  0  0  0
  147.0822  138.1155  151.3149 H   0  0  0  0  0  0  0  0  0  0  0  0
  145.6398  139.0186  151.7613 H   0  0  0  0  0  0  0  0  0  0  0  0
  147.7757  140.0902  152.4636 H   0  0  0  0  0  0  0  0  0  0  0  0
  146.6685  140.4441  153.7852 H   0  0  0  0  0  0  0  0  0  0  0  0
  148.1977  139.5286  155.4456 H   0  0  0  0  0  0  0  0  0  0  0  0
  149.3361  137.6460  154.4153 H   0  0  0  0  0  0  0  0  0  0  0  0
  149.8911  138.6584  153.0766 H   0  0  0  0  0  0  0  0  0  0  0  0
  150.7650  138.7976  155.9814 H   0  0  0  0  0  0  0  0  0  0  0  0
  151.7858  138.8394  154.5413 H   0  0  0  0  0  0  0  0  0  0  0  0
  149.5753  141.3669  153.4574 H   0  0  0  0  0  0  0  0  0  0  0  0
  148.9966  141.7581  155.0782 H   0  0  0  0  0  0  0  0  0  0  0  0
  143.0086  133.1245  150.4497 H   0  0  0  0  0  0  0  0  0  0  0  0
  1 16  1  0  0  0  0
  1  2  2  0  0  0  0
  1 17  1  0  0  0  0
  2  3  1  0  0  0  0
  2 18  1  0  0  0  0
  3  4  2  0  0  0  0
  4  5  1  0  0  0  0
  4 15  1  0  0  0  0
  5  6  1  0  0  0  0
  5 19  1  0  0  0  0
  6  7  1  0  0  0  0
  6 20  1  0  0  0  0
  6 21  1  0  0  0  0
  7  8  1  0  0  0  0
  7 22  1  0  0  0  0
  7 23  1  0  0  0  0
  8  9  1  0  0  0  0
  9 10  1  0  0  0  0
  9 24  1  0  0  0  0
  9 25  1  0  0  0  0
 10 14  1  0  0  0  0
 10 11  1  0  0  0  0
 10 26  1  0  0  0  0
 11 12  1  0  0  0  0
 11 27  1  0  0  0  0
 11 28  1  0  0  0  0
 12 13  1  0  0  0  0
 12 29  1  0  0  0  0
 12 30  1  0  0  0  0
 13 14  1  0  0  0  0
 14 31  1  0  0  0  0
 14 32  1  0  0  0  0
 15 16  2  0  0  0  0
 16 33  1  0  0  0  0
M  END
> <s_m_source_file>
AV-unprocessed.smi

> <i_m_source_file_index>
3197

> <i_lp_mmshare_version>
43012

> <i_f3d_flags>
0

> <s_epik_input>
bjFbY0hdW2NIXVtjSF1uYzFbTkhdW0NIMl1bQ0gyXU9bQ0gyXVtDQEBIXTJbQ0gyXVtDSDJdT1tDSDJdMg==

> <s_epik_cmdline>
J2VwaWtfcHl0aG9uJywgJy1waCcsICc3LjAnLCAnLXRuJywgJzgnLCAnLW1hJywgJzIwMCcsICctbWV0YWxfYmluZGluZycsICctaW1hZScsICc8aW5maWxlLm1hZT4nLCAnLW9tYWUnLCAnPG91dGZpbGUubWFlPic=

> <r_lp_tautomer_probability>
1

> <r_epik_Ionization_Penalty>
0.000570263

> <r_epik_Ionization_Penalty_Charging>
0

> <r_epik_Ionization_Penalty_Neutral>
0.000570263

> <r_epik_State_Penalty>
0.000357543

> <r_epik_Charging_Adjusted_Penalty>
0.000357543

> <i_epik_Tot_Q>
0

> <i_epik_Tot_abs_Q>
0

> <r_epik_Metal_State_Penalty>
-0

> <b_epik_Metal_Only>
0

> <s_lp_Force_Field>
OPLS_2005

> <r_lp_Energy>
10.4311

> <b_lp_Chiralities_Consistent>
1

> <s_lp_Variant>
AV-unprocessed.smi:3197-2

> <Gold.Version>
5.8.1

> <Gold.Id.Protein>
6NUR|6NUR_protein|mol2

> <Gold.PLP.Fitness>
39.8593

> <Gold.PLP.PLP>
-29.6251

> <Gold.PLP.part.hbond>
-2.0000

> <Gold.PLP.part.metal>
0.0000

> <Gold.PLP.part.buried>
-2.1425

> <Gold.PLP.part.nonpolar>
-26.5583

> <Gold.PLP.part.repulsive>
0.7420

> <Gold.PLP.ligand.clash>
0.0000

> <Gold.PLP.ligand.torsion>
0.6404

> <Gold.PLP.Chemscore.Hbond>
1.8100

> <Gold.PLP.Chemscore.CHOScore>
2.0000

> <Gold.PLP.Chemscore.Metal>
0.0000

> <Gold.Chemscore.Hbonds>
donor molecule, donor type, donor heavy atom, donor atom, acceptor molecule, acceptor atom, score
      L1  H     5    19       P1  7948  1.00
      P1  H  7989  7998       L1    13  0.71
      L1  C     2    18       P1 10747  1.00
      L1  C    16    33       P1 10186  0.96

> <Gold.PLP.Chemscore.Internal.Correction>
0.0850

> <Gold.Rescore>
     Score         DG    S(hbond)    S(metal)    S(lipo)     H(rot)  DE(clash)    DE(int)     intcor
     12.44     -13.11       1.00        0.00      77.88       1.88       0.10       0.57       ----

> <Gold.Chemscore.Fitness>
12.4367

> <Gold.Chemscore.DG>
-13.1131

> <Gold.Chemscore.ZeroCoef>
-5.4800

> <Gold.Chemscore.Hbond>
0.9970

> <Gold.Chemscore.Metal>
0.0000

> <Gold.Chemscore.Lipo>
77.8801

> <Gold.Chemscore.Internal_Hbond>
0.0000

> <Gold.Chemscore.DEClash>
0.1029

> <Gold.Chemscore.DEInternal>
0.5736

> <Gold.Chemscore.Rot>
1.8784

> <Gold.Chemscore.Internal.Correction>
   9.000000E+99

> <Gold.Chemscore.Hbonds>
donor molecule, donor type, donor heavy atom, donor atom, acceptor molecule, acceptor atom, score
      L1  H     5    19       P1  7948  1.00
      P1  H  7989  7998       L1    13  0.02

> <Gold.Chemscore.Hbond.Weighted>
-3.3299

> <Gold.Chemscore.Metal.Weighted>
-0.0000

> <Gold.Chemscore.Lipo.Weighted>
-9.1120

> <Gold.Chemscore.Internal_Hbond.Weighted>
0.0000

> <Gold.Chemscore.DEClash.Weighted>
0.1029

> <Gold.Chemscore.DEInternal.Weighted>
0.5736

> <Gold.Chemscore.Rot.Weighted>
4.8087

> <Gold.Chemscore.Internal.Correction.Weighted>
   9.000000E+99

> <Gold.Protein.RotatedTorsions>
[ 6907 6896 6895 6894 ] final   58.71 input  -60.11 | X-H torsion
[ 7974 7965 7964 7962 ] final  -60.23 input  175.53 | X-H torsion
[ 8008 7997 7996 7995 ] final    3.00 input   59.86 | X-H torsion
[ 10167 10162 10161 10158 ] final  -44.80 input  -65.29 | X-H torsion
[ 10718 10713 10712 10709 ] final -128.35 input   66.30 | X-H torsion
[ 10763 10752 10751 10750 ] final -170.95 input  -60.55 | X-H torsion
[ 11005 11000 10999 10996 ] final -153.09 input  -57.11 | X-H torsion

> <Gold.Protein.ActiveResidues>
 VAL166  LYS551  ARG553  GLY616  TRP617  ASP618  TYR619  PRO620  LYS621  CYS622 
 ASP623  PHE694  ASN695  SER759  ASP760  ASP761  ALA762  ILE779  LEU786  VAL792 
 PHE793  MET794  SER795  GLU796  ALA797  LYS798  CYS799  TRP800  GLU811  SER814 

> <Gold.Protein.RotatedAtoms>
  152.3849  134.6532  160.0128 H   0  0  0  0  0  0  0  0  0  0  0  0  # atno 6907 bound_to 6896
  151.6784  133.3307  159.3221 H   0  0  0  0  0  0  0  0  0  0  0  0  # atno 6908 bound_to 6896
  150.7778  134.6738  159.6451 H   0  0  0  0  0  0  0  0  0  0  0  0  # atno 6909 bound_to 6896
  145.8180  140.8557  143.0147 H   0  0  0  0  0  0  0  0  0  0  0  0  # atno 7974 bound_to 7965
  154.6984  140.2668  155.6743 H   0  0  0  0  0  0  0  0  0  0  0  0  # atno 8008 bound_to 7997
  156.2756  140.2777  156.1510 H   0  0  0  0  0  0  0  0  0  0  0  0  # atno 8009 bound_to 7997
  155.0799  140.0372  157.2626 H   0  0  0  0  0  0  0  0  0  0  0  0  # atno 8010 bound_to 7997
  140.6883  143.2911  151.3548 H   0  0  0  0  0  0  0  0  0  0  0  0  # atno 10167 bound_to 10162
  156.1942  130.6815  151.0461 H   0  0  0  0  0  0  0  0  0  0  0  0  # atno 10718 bound_to 10713
  154.6359  135.2892  155.0161 H   0  0  0  0  0  0  0  0  0  0  0  0  # atno 10763 bound_to 10752
  154.1305  135.6534  153.4925 H   0  0  0  0  0  0  0  0  0  0  0  0  # atno 10764 bound_to 10752
  153.0302  135.5309  154.7206 H   0  0  0  0  0  0  0  0  0  0  0  0  # atno 10765 bound_to 10752
  140.7118  134.3824  157.5196 H   0  0  0  0  0  0  0  0  0  0  0  0  # atno 11005 bound_to 11000
  144.6750  140.0492  143.7479 LP  0  0  0  0  0  0  0  0  0  0  0  0  # atno 17320 bound_to 7965
  145.9705  139.2866  143.1101 LP  0  0  0  0  0  0  0  0  0  0  0  0  # atno 17321 bound_to 7965
  139.6261  144.0812  152.2435 LP  0  0  0  0  0  0  0  0  0  0  0  0  # atno 17342 bound_to 10162
  140.0272  144.6108  150.7518 LP  0  0  0  0  0  0  0  0  0  0  0  0  # atno 17343 bound_to 10162
  157.6948  131.0798  150.7003 LP  0  0  0  0  0  0  0  0  0  0  0  0  # atno 17370 bound_to 10713
  156.7059  130.4637  149.5560 LP  0  0  0  0  0  0  0  0  0  0  0  0  # atno 17371 bound_to 10713
  139.8870  134.8895  156.2555 LP  0  0  0  0  0  0  0  0  0  0  0  0  # atno 17394 bound_to 11000
  141.0078  133.7113  156.1062 LP  0  0  0  0  0  0  0  0  0  0  0  0  # atno 17395 bound_to 11000

$$$$
