AV-unprocessed.smi:2150|AV-procd|sdf|8756|dock6
  -GOLD-   2272011533D 1   1.00000     0.00000
 Structure written by MMmdl.
 35 36  0  0  0  0  0  0  0  0  1 V2000
  151.9750  140.3372  155.4110 O   0  0  0  0  0  0  0  0  0  0  0  0
  150.8552  140.0649  155.8459 C   0  0  0  0  0  0  0  0  0  0  0  0
  149.9149  139.1384  155.0629 C   0  0  0  0  0  0  0  0  0  0  0  0
  148.5920  139.7367  154.8219 N   0  0  0  0  0  0  0  0  0  0  0  0
  148.5198  140.8192  153.9290 C   0  0  0  0  0  0  0  0  0  0  0  0
  147.3502  141.4218  153.6711 C   0  0  0  0  0  0  0  0  0  0  0  0
  146.1732  140.8880  154.3690 C   0  0  0  0  0  0  0  0  0  0  0  0
  146.2356  139.9026  155.1845 N   0  0  0  0  0  0  0  0  0  0  0  0
  147.4654  139.2732  155.4556 C   0  0  0  0  0  0  0  0  0  0  0  0
  147.5339  138.3291  156.2431 O   0  0  0  0  0  0  0  0  0  0  0  0
  150.3861  140.5328  157.0135 N   0  0  0  0  0  0  0  0  0  0  0  0
  151.0915  141.4639  157.8969 C   0  0  2  0  0  0  0  0  0  0  0  0
  151.2736  142.7944  157.1309 C   0  0  0  0  0  0  0  0  0  0  0  0
  151.4941  144.0110  158.0472 C   0  0  0  0  0  0  0  0  0  0  0  0
  152.7930  143.9812  158.8674 C   0  0  0  0  0  0  0  0  0  0  0  0
  152.8740  142.8068  159.8578 C   0  0  0  0  0  0  0  0  0  0  0  0
  153.2147  141.5548  159.1950 N   0  0  0  0  0  0  0  0  0  0  0  0
  152.4821  140.9036  158.2793 C   0  0  0  0  0  0  0  0  0  0  0  0
  152.9156  139.8801  157.7502 O   0  0  0  0  0  0  0  0  0  0  0  0
  150.3991  138.8831  154.1193 H   0  0  0  0  0  0  0  0  0  0  0  0
  149.8031  138.1914  155.5946 H   0  0  0  0  0  0  0  0  0  0  0  0
  149.4571  141.1229  153.4857 H   0  0  0  0  0  0  0  0  0  0  0  0
  147.2251  142.2587  153.0003 H   0  0  0  0  0  0  0  0  0  0  0  0
  145.2294  141.3918  154.1455 H   0  0  0  0  0  0  0  0  0  0  0  0
  149.4556  140.2586  157.2928 H   0  0  0  0  0  0  0  0  0  0  0  0
  150.4928  141.6270  158.7950 H   0  0  0  0  0  0  0  0  0  0  0  0
  152.0823  142.7192  156.4016 H   0  0  0  0  0  0  0  0  0  0  0  0
  150.3736  142.9943  156.5471 H   0  0  0  0  0  0  0  0  0  0  0  0
  151.4945  144.9116  157.4326 H   0  0  0  0  0  0  0  0  0  0  0  0
  150.6433  144.1143  158.7216 H   0  0  0  0  0  0  0  0  0  0  0  0
  153.6586  143.9744  158.2033 H   0  0  0  0  0  0  0  0  0  0  0  0
  152.8575  144.9122  159.4315 H   0  0  0  0  0  0  0  0  0  0  0  0
  153.6588  143.0069  160.5875 H   0  0  0  0  0  0  0  0  0  0  0  0
  151.9481  142.7017  160.4248 H   0  0  0  0  0  0  0  0  0  0  0  0
  154.1121  141.1561  159.4305 H   0  0  0  0  0  0  0  0  0  0  0  0
  1  2  2  0  0  0  0
  2  3  1  0  0  0  0
  2 11  1  0  0  0  0
  3  4  1  0  0  0  0
  3 20  1  0  0  0  0
  3 21  1  0  0  0  0
  4  9  1  0  0  0  0
  4  5  1  0  0  0  0
  5  6  2  0  0  0  0
  5 22  1  0  0  0  0
  6  7  1  0  0  0  0
  6 23  1  0  0  0  0
  7  8  2  0  0  0  0
  7 24  1  0  0  0  0
  8  9  1  0  0  0  0
  9 10  2  0  0  0  0
 11 12  1  0  0  0  0
 11 25  1  0  0  0  0
 12 18  1  0  0  0  0
 12 13  1  0  0  0  0
 12 26  1  0  0  0  0
 13 14  1  0  0  0  0
 13 27  1  0  0  0  0
 13 28  1  0  0  0  0
 14 15  1  0  0  0  0
 14 29  1  0  0  0  0
 14 30  1  0  0  0  0
 15 16  1  0  0  0  0
 15 31  1  0  0  0  0
 15 32  1  0  0  0  0
 16 17  1  0  0  0  0
 16 33  1  0  0  0  0
 16 34  1  0  0  0  0
 17 18  1  0  0  0  0
 17 35  1  0  0  0  0
 18 19  2  0  0  0  0
M  END
> <s_m_source_file>
AV-unprocessed.smi

> <i_m_source_file_index>
2150

> <i_lp_mmshare_version>
43012

> <i_f3d_flags>
0

> <s_epik_input>
Tz1jMW5bY0hdW2NIXVtjSF1uMVtDSDJdQyg9TylbTkhdW0NAQEhdMltDSDJdW0NIMl1bQ0gyXVtDSDJdW05IXUMyPU8=

> <s_epik_cmdline>
J2VwaWtfcHl0aG9uJywgJy1waCcsICc3LjAnLCAnLXRuJywgJzgnLCAnLW1hJywgJzIwMCcsICctbWV0YWxfYmluZGluZycsICctaW1hZScsICc8aW5maWxlLm1hZT4nLCAnLW9tYWUnLCAnPG91dGZpbGUubWFlPic=

> <r_lp_tautomer_probability>
1

> <r_epik_Ionization_Penalty>
6.25431e-06

> <r_epik_Ionization_Penalty_Charging>
1.47848e-08

> <r_epik_Ionization_Penalty_Neutral>
6.23953e-06

> <r_epik_State_Penalty>
-0

> <r_epik_Charging_Adjusted_Penalty>
1.47848e-08

> <i_epik_Tot_Q>
0

> <i_epik_Tot_abs_Q>
0

> <r_epik_Metal_State_Penalty>
-0

> <b_epik_Metal_Only>
0

> <s_lp_Force_Field>
OPLS_2005

> <r_lp_Energy>
13.567

> <b_lp_Chiralities_Consistent>
1

> <s_lp_Variant>
AV-unprocessed.smi:2150-1

> <Gold.Version>
5.8.1

> <Gold.Id.Protein>
6NUR|6NUR_protein|mol2

> <Gold.PLP.Fitness>
40.0548

> <Gold.PLP.PLP>
-30.9975

> <Gold.PLP.part.hbond>
-2.0000

> <Gold.PLP.part.metal>
0.0000

> <Gold.PLP.part.buried>
-1.4721

> <Gold.PLP.part.nonpolar>
-27.0657

> <Gold.PLP.part.repulsive>
0.1724

> <Gold.PLP.ligand.clash>
0.0000

> <Gold.PLP.ligand.torsion>
0.1387

> <Gold.PLP.Chemscore.Hbond>
1.7200

> <Gold.PLP.Chemscore.CHOScore>
1.3909

> <Gold.PLP.Chemscore.Metal>
0.0000

> <Gold.Chemscore.Hbonds>
donor molecule, donor type, donor heavy atom, donor atom, acceptor molecule, acceptor atom, score
      P1  H  7989  7998       L1     1  0.72
      P1  H  7997  8009       L1    19  1.00
      L1  C     5    22       P1  7957  0.52
      L1  C     7    24       P1 10175  0.84

> <Gold.PLP.Chemscore.Internal.Correction>
0.0022

> <Gold.Rescore>
     Score         DG    S(hbond)    S(metal)    S(lipo)     H(rot)  DE(clash)    DE(int)     intcor
     11.00     -15.43       1.57        0.00      77.41       1.69       0.02       4.42       ----

> <Gold.Chemscore.Fitness>
10.9983

> <Gold.Chemscore.DG>
-15.4347

> <Gold.Chemscore.ZeroCoef>
-5.4800

> <Gold.Chemscore.Hbond>
1.5679

> <Gold.Chemscore.Metal>
0.0000

> <Gold.Chemscore.Lipo>
77.4056

> <Gold.Chemscore.Internal_Hbond>
0.0000

> <Gold.Chemscore.DEClash>
0.0161

> <Gold.Chemscore.DEInternal>
4.4203

> <Gold.Chemscore.Rot>
1.6947

> <Gold.Chemscore.Internal.Correction>
   9.000000E+99

> <Gold.Chemscore.Hbonds>
donor molecule, donor type, donor heavy atom, donor atom, acceptor molecule, acceptor atom, score
      P1  H  7989  7998       L1     1  0.35
      P1  H  7997  8009       L1    19  0.90

> <Gold.Chemscore.Hbond.Weighted>
-5.2367

> <Gold.Chemscore.Metal.Weighted>
-0.0000

> <Gold.Chemscore.Lipo.Weighted>
-9.0565

> <Gold.Chemscore.Internal_Hbond.Weighted>
0.0000

> <Gold.Chemscore.DEClash.Weighted>
0.0161

> <Gold.Chemscore.DEInternal.Weighted>
4.4203

> <Gold.Chemscore.Rot.Weighted>
4.3385

> <Gold.Chemscore.Internal.Correction.Weighted>
   9.000000E+99

> <Gold.Protein.RotatedTorsions>
[ 6907 6896 6895 6894 ] final -114.61 input  -60.11 | X-H torsion
[ 7974 7965 7964 7962 ] final  -37.54 input  175.53 | X-H torsion
[ 8008 7997 7996 7995 ] final  167.07 input   59.86 | X-H torsion
[ 10167 10162 10161 10158 ] final  100.54 input  -65.29 | X-H torsion
[ 10718 10713 10712 10709 ] final -126.48 input   66.30 | X-H torsion
[ 10763 10752 10751 10750 ] final   74.45 input  -60.55 | X-H torsion
[ 11005 11000 10999 10996 ] final -134.07 input  -57.11 | X-H torsion

> <Gold.Protein.ActiveResidues>
 VAL166  LYS551  ARG553  GLY616  TRP617  ASP618  TYR619  PRO620  LYS621  CYS622 
 ASP623  PHE694  ASN695  SER759  ASP760  ASP761  ALA762  ILE779  LEU786  VAL792 
 PHE793  MET794  SER795  GLU796  ALA797  LYS798  CYS799  TRP800  GLU811  SER814 

> <Gold.Protein.RotatedAtoms>
  150.7915  133.8777  159.3276 H   0  0  0  0  0  0  0  0  0  0  0  0  # atno 6907 bound_to 6896
  151.6614  135.0987  160.0189 H   0  0  0  0  0  0  0  0  0  0  0  0  # atno 6908 bound_to 6896
  152.3990  133.6750  159.6335 H   0  0  0  0  0  0  0  0  0  0  0  0  # atno 6909 bound_to 6896
  146.0566  140.6407  142.9017 H   0  0  0  0  0  0  0  0  0  0  0  0  # atno 7974 bound_to 7965
  156.1665  140.1626  156.8522 H   0  0  0  0  0  0  0  0  0  0  0  0  # atno 8008 bound_to 7997
  154.5213  140.0777  156.8211 H   0  0  0  0  0  0  0  0  0  0  0  0  # atno 8009 bound_to 7997
  155.3601  140.3394  155.4243 H   0  0  0  0  0  0  0  0  0  0  0  0  # atno 8010 bound_to 7997
  139.7518  144.6982  151.0421 H   0  0  0  0  0  0  0  0  0  0  0  0  # atno 10167 bound_to 10162
  156.1769  130.6705  151.0254 H   0  0  0  0  0  0  0  0  0  0  0  0  # atno 10718 bound_to 10713
  153.0587  135.5025  154.8044 H   0  0  0  0  0  0  0  0  0  0  0  0  # atno 10763 bound_to 10752
  154.6849  135.2974  154.9564 H   0  0  0  0  0  0  0  0  0  0  0  0  # atno 10764 bound_to 10752
  154.0337  135.6726  153.4836 H   0  0  0  0  0  0  0  0  0  0  0  0  # atno 10765 bound_to 10752
  140.9023  134.1674  157.4451 H   0  0  0  0  0  0  0  0  0  0  0  0  # atno 11005 bound_to 11000
  144.7151  140.4182  143.7050 LP  0  0  0  0  0  0  0  0  0  0  0  0  # atno 17320 bound_to 7965
  145.6633  139.1585  143.2796 LP  0  0  0  0  0  0  0  0  0  0  0  0  # atno 17321 bound_to 7965
  140.7798  143.4800  151.0030 LP  0  0  0  0  0  0  0  0  0  0  0  0  # atno 17342 bound_to 10162
  139.8488  143.7466  152.3178 LP  0  0  0  0  0  0  0  0  0  0  0  0  # atno 17343 bound_to 10162
  157.6842  131.0829  150.7289 LP  0  0  0  0  0  0  0  0  0  0  0  0  # atno 17370 bound_to 10713
  156.7347  130.4720  149.5491 LP  0  0  0  0  0  0  0  0  0  0  0  0  # atno 17371 bound_to 10713
  139.8744  134.9903  156.5497 LP  0  0  0  0  0  0  0  0  0  0  0  0  # atno 17394 bound_to 11000
  140.8214  133.8351  155.8899 LP  0  0  0  0  0  0  0  0  0  0  0  0  # atno 17395 bound_to 11000

$$$$
