AV-unprocessed.smi:2456|AV-procd|sdf|9701|dock7
  -GOLD-   2272013343D 1   1.00000     0.00000
 Structure written by MMmdl.
 34 35  0  0  0  0  0  0  0  0  1 V2000
  149.9982  141.5497  155.1098 C   0  0  0  0  0  0  0  0  0  0  0  0
  150.6062  142.2126  156.3654 C   0  0  1  0  0  0  0  0  0  0  0  0
  149.6232  143.0071  157.1100 N   0  0  0  0  0  0  0  0  0  0  0  0
  148.8789  142.6264  158.1617 C   0  0  0  0  0  0  0  0  0  0  0  0
  148.9689  141.5257  158.7049 O   0  0  0  0  0  0  0  0  0  0  0  0
  148.0421  143.6089  158.5386 N   0  0  0  0  0  0  0  0  0  0  0  0
  147.0949  143.5987  159.5960 C   0  0  0  0  0  0  0  0  0  0  0  0
  146.4531  142.5056  160.0249 N   0  0  0  0  0  0  0  0  0  0  0  0
  145.5795  142.7893  161.0773 C   0  0  0  0  0  0  0  0  0  0  0  0
  145.5679  144.1134  161.4391 C   0  0  0  0  0  0  0  0  0  0  0  0
  146.6612  145.0618  160.4674 S   0  0  0  0  0  0  0  0  0  0  0  0
  151.3777  141.2441  157.2862 C   0  0  0  0  0  0  0  0  0  0  0  0
  151.3638  140.0392  157.0314 O   0  0  0  0  0  0  0  0  0  0  0  0
  152.0372  141.7351  158.3589 N   0  0  0  0  0  0  0  0  0  0  0  0
  152.1325  143.1416  158.7522 C   0  0  0  0  0  0  0  0  0  0  0  0
  152.7902  143.1451  160.1323 C   0  0  0  0  0  0  0  0  0  0  0  0
  153.5892  141.8505  160.1691 C   0  0  0  0  0  0  0  0  0  0  0  0
  152.7856  140.8923  159.2904 C   0  0  0  0  0  0  0  0  0  0  0  0
  150.7771  141.0928  154.4985 H   0  0  0  0  0  0  0  0  0  0  0  0
  149.4876  142.2851  154.4877 H   0  0  0  0  0  0  0  0  0  0  0  0
  149.2806  140.7663  155.3534 H   0  0  0  0  0  0  0  0  0  0  0  0
  151.3309  142.9329  155.9860 H   0  0  0  0  0  0  0  0  0  0  0  0
  149.4729  143.9431  156.7636 H   0  0  0  0  0  0  0  0  0  0  0  0
  148.0822  144.4632  158.0030 H   0  0  0  0  0  0  0  0  0  0  0  0
  145.0026  141.9862  161.5114 H   0  0  0  0  0  0  0  0  0  0  0  0
  144.9849  144.5860  162.2156 H   0  0  0  0  0  0  0  0  0  0  0  0
  152.7590  143.6707  158.0327 H   0  0  0  0  0  0  0  0  0  0  0  0
  151.1613  143.6350  158.7879 H   0  0  0  0  0  0  0  0  0  0  0  0
  153.4065  144.0278  160.3051 H   0  0  0  0  0  0  0  0  0  0  0  0
  152.0196  143.1192  160.9039 H   0  0  0  0  0  0  0  0  0  0  0  0
  154.5724  142.0152  159.7268 H   0  0  0  0  0  0  0  0  0  0  0  0
  153.7371  141.4728  161.1812 H   0  0  0  0  0  0  0  0  0  0  0  0
  152.0791  140.3207  159.8940 H   0  0  0  0  0  0  0  0  0  0  0  0
  153.4393  140.1868  158.7749 H   0  0  0  0  0  0  0  0  0  0  0  0
  1  2  1  0  0  0  0
  1 19  1  0  0  0  0
  1 20  1  0  0  0  0
  1 21  1  0  0  0  0
  2  3  1  0  0  0  0
  2 12  1  0  0  0  0
  2 22  1  0  0  0  0
  3  4  1  0  0  0  0
  3 23  1  0  0  0  0
  4  5  2  0  0  0  0
  4  6  1  0  0  0  0
  6  7  1  0  0  0  0
  6 24  1  0  0  0  0
  7 11  1  0  0  0  0
  7  8  2  0  0  0  0
  8  9  1  0  0  0  0
  9 10  2  0  0  0  0
  9 25  1  0  0  0  0
 10 11  1  0  0  0  0
 10 26  1  0  0  0  0
 12 13  2  0  0  0  0
 12 14  1  0  0  0  0
 14 18  1  0  0  0  0
 14 15  1  0  0  0  0
 15 16  1  0  0  0  0
 15 27  1  0  0  0  0
 15 28  1  0  0  0  0
 16 17  1  0  0  0  0
 16 29  1  0  0  0  0
 16 30  1  0  0  0  0
 17 18  1  0  0  0  0
 17 31  1  0  0  0  0
 17 32  1  0  0  0  0
 18 33  1  0  0  0  0
 18 34  1  0  0  0  0
M  END
> <s_m_source_file>
AV-unprocessed.smi

> <i_m_source_file_index>
2456

> <i_lp_mmshare_version>
43012

> <i_f3d_flags>
0

> <s_epik_input>
W0NIMl0xW0NIMl1bQ0gyXVtDSDJdTjFDKD1PKVtDQEhdKFtDSDNdKVtOSF1DKD1PKVtOSF1jMm5bY0hdW2NIXXMy

> <s_epik_cmdline>
J2VwaWtfcHl0aG9uJywgJy1waCcsICc3LjAnLCAnLXRuJywgJzgnLCAnLW1hJywgJzIwMCcsICctbWV0YWxfYmluZGluZycsICctaW1hZScsICc8aW5maWxlLm1hZT4nLCAnLW9tYWUnLCAnPG91dGZpbGUubWFlPic=

> <r_lp_tautomer_probability>
1

> <r_epik_Ionization_Penalty>
0.000150201

> <r_epik_Ionization_Penalty_Charging>
0

> <r_epik_Ionization_Penalty_Neutral>
0.000150201

> <r_epik_State_Penalty>
-0

> <r_epik_Charging_Adjusted_Penalty>
0

> <i_epik_Tot_Q>
0

> <i_epik_Tot_abs_Q>
0

> <r_epik_Metal_State_Penalty>
0.0705602

> <b_epik_Metal_Only>
0

> <s_lp_Force_Field>
OPLS_2005

> <r_lp_Energy>
30.7

> <b_lp_Chiralities_Consistent>
1

> <s_lp_Variant>
AV-unprocessed.smi:2456-2

> <Gold.Version>
5.8.1

> <Gold.Id.Protein>
6NUR|6NUR_protein|mol2

> <Gold.PLP.Fitness>
44.4533

> <Gold.PLP.PLP>
-36.3903

> <Gold.PLP.part.hbond>
-5.7191

> <Gold.PLP.part.metal>
0.0000

> <Gold.PLP.part.buried>
-2.0216

> <Gold.PLP.part.nonpolar>
-29.5144

> <Gold.PLP.part.repulsive>
0.1470

> <Gold.PLP.ligand.clash>
0.0000

> <Gold.PLP.ligand.torsion>
0.5892

> <Gold.PLP.Chemscore.Hbond>
3.0333

> <Gold.PLP.Chemscore.CHOScore>
0.0000

> <Gold.PLP.Chemscore.Metal>
0.0000

> <Gold.Chemscore.Hbonds>
donor molecule, donor type, donor heavy atom, donor atom, acceptor molecule, acceptor atom, score
      L1  H     3    23       P1  8028  0.74
      L1  H     6    24       P1  8029  1.00
      P1  H  6934  6946       L1     8  0.65

> <Gold.PLP.Chemscore.Internal.Correction>
0.1413

> <Gold.Rescore>
     Score         DG    S(hbond)    S(metal)    S(lipo)     H(rot)  DE(clash)    DE(int)     intcor
     13.52     -18.11       2.17        0.00      75.48       1.34       1.54       3.04       ----

> <Gold.Chemscore.Fitness>
13.5230

> <Gold.Chemscore.DG>
-18.1064

> <Gold.Chemscore.ZeroCoef>
-5.4800

> <Gold.Chemscore.Hbond>
2.1671

> <Gold.Chemscore.Metal>
0.0000

> <Gold.Chemscore.Lipo>
75.4794

> <Gold.Chemscore.Internal_Hbond>
0.0000

> <Gold.Chemscore.DEClash>
1.5396

> <Gold.Chemscore.DEInternal>
3.0438

> <Gold.Chemscore.Rot>
1.3448

> <Gold.Chemscore.Internal.Correction>
   9.000000E+99

> <Gold.Chemscore.Hbonds>
donor molecule, donor type, donor heavy atom, donor atom, acceptor molecule, acceptor atom, score
      L1  H     3    23       P1  8028  0.64
      L1  H     6    24       P1  8029  0.30
      P1  H  6934  6946       L1     8  0.06

> <Gold.Chemscore.Hbond.Weighted>
-7.2381

> <Gold.Chemscore.Metal.Weighted>
-0.0000

> <Gold.Chemscore.Lipo.Weighted>
-8.8311

> <Gold.Chemscore.Internal_Hbond.Weighted>
0.0000

> <Gold.Chemscore.DEClash.Weighted>
1.5396

> <Gold.Chemscore.DEInternal.Weighted>
3.0438

> <Gold.Chemscore.Rot.Weighted>
3.4427

> <Gold.Chemscore.Internal.Correction.Weighted>
   9.000000E+99

> <Gold.Protein.RotatedTorsions>
[ 6907 6896 6895 6894 ] final   19.94 input  -60.11 | X-H torsion
[ 7974 7965 7964 7962 ] final  -64.90 input  175.53 | X-H torsion
[ 8008 7997 7996 7995 ] final   97.31 input   59.86 | X-H torsion
[ 10167 10162 10161 10158 ] final   26.50 input  -65.29 | X-H torsion
[ 10718 10713 10712 10709 ] final -113.79 input   66.30 | X-H torsion
[ 10763 10752 10751 10750 ] final  -71.13 input  -60.55 | X-H torsion
[ 11005 11000 10999 10996 ] final  -48.96 input  -57.11 | X-H torsion

> <Gold.Protein.ActiveResidues>
 VAL166  LYS551  ARG553  GLY616  TRP617  ASP618  TYR619  PRO620  LYS621  CYS622 
 ASP623  PHE694  ASN695  SER759  ASP760  ASP761  ALA762  ILE779  LEU786  VAL792 
 PHE793  MET794  SER795  GLU796  ALA797  LYS798  CYS799  TRP800  GLU811  SER814 

> <Gold.Protein.RotatedAtoms>
  151.8886  135.0425  160.0495 H   0  0  0  0  0  0  0  0  0  0  0  0  # atno 6907 bound_to 6896
  152.2454  133.5166  159.5303 H   0  0  0  0  0  0  0  0  0  0  0  0  # atno 6908 bound_to 6896
  150.7066  134.0948  159.3987 H   0  0  0  0  0  0  0  0  0  0  0  0  # atno 6909 bound_to 6896
  145.7609  140.8862  143.0430 H   0  0  0  0  0  0  0  0  0  0  0  0  # atno 7974 bound_to 7965
  156.0888  140.3260  155.7789 H   0  0  0  0  0  0  0  0  0  0  0  0  # atno 8008 bound_to 7997
  155.5031  140.0571  157.2953 H   0  0  0  0  0  0  0  0  0  0  0  0  # atno 8009 bound_to 7997
  154.4625  140.1973  156.0222 H   0  0  0  0  0  0  0  0  0  0  0  0  # atno 8010 bound_to 7997
  140.5017  144.0304  150.6335 H   0  0  0  0  0  0  0  0  0  0  0  0  # atno 10167 bound_to 10162
  156.0789  130.5992  150.8689 H   0  0  0  0  0  0  0  0  0  0  0  0  # atno 10718 bound_to 10713
  154.4275  135.5972  153.6048 H   0  0  0  0  0  0  0  0  0  0  0  0  # atno 10763 bound_to 10752
  152.9797  135.5967  154.3880 H   0  0  0  0  0  0  0  0  0  0  0  0  # atno 10764 bound_to 10752
  154.3713  135.2841  155.2243 H   0  0  0  0  0  0  0  0  0  0  0  0  # atno 10765 bound_to 10752
  141.0732  133.6673  156.3517 H   0  0  0  0  0  0  0  0  0  0  0  0  # atno 11005 bound_to 11000
  144.6830  139.9722  143.7482 LP  0  0  0  0  0  0  0  0  0  0  0  0  # atno 17320 bound_to 7965
  146.0264  139.3296  143.0781 LP  0  0  0  0  0  0  0  0  0  0  0  0  # atno 17321 bound_to 7965
  140.3602  143.2912  152.0392 LP  0  0  0  0  0  0  0  0  0  0  0  0  # atno 17342 bound_to 10162
  139.4874  144.6309  151.7072 LP  0  0  0  0  0  0  0  0  0  0  0  0  # atno 17343 bound_to 10162
  157.5897  131.0945  150.9139 LP  0  0  0  0  0  0  0  0  0  0  0  0  # atno 17370 bound_to 10713
  156.9318  130.5352  149.5279 LP  0  0  0  0  0  0  0  0  0  0  0  0  # atno 17371 bound_to 10713
  140.5630  134.5915  157.5438 LP  0  0  0  0  0  0  0  0  0  0  0  0  # atno 17394 bound_to 11000
  139.9544  134.7560  156.0374 LP  0  0  0  0  0  0  0  0  0  0  0  0  # atno 17395 bound_to 11000

$$$$
