AV-unprocessed.smi:139|AV-procd|sdf|1182|dock7
  -GOLD-   2262018333D 1   1.00000     0.00000
 Structure written by MMmdl.
 50 53  0  0  0  0  0  0  0  0  1 V2000
  151.3132  136.1425  154.3418 O   0  0  0  0  0  0  0  0  0  0  0  0
  150.8006  136.4887  155.4068 C   0  0  0  0  0  0  0  0  0  0  0  0
  150.4321  135.4461  156.4716 C   0  0  0  0  0  0  0  0  0  0  0  0
  150.3129  134.0847  155.9062 N   0  0  0  0  0  0  0  0  0  0  0  0
  149.3793  133.8476  154.8666 C   0  0  0  0  0  0  0  0  0  0  0  0
  148.6580  134.7485  154.4362 O   0  0  0  0  0  0  0  0  0  0  0  0
  149.3426  132.4829  154.3527 C   0  0  0  0  0  0  0  0  0  0  0  0
  148.4725  132.1609  153.3805 F   0  0  0  0  0  0  0  0  0  0  0  0
  150.1691  131.5347  154.8400 C   0  0  0  0  0  0  0  0  0  0  0  0
  151.0915  131.7870  155.8382 N   0  0  0  0  0  0  0  0  0  0  0  0
  152.0045  130.6965  156.3486 C   0  0  1  0  0  0  0  0  0  0  0  0
  151.6029  129.3430  155.7503 C   0  0  0  0  0  0  0  0  0  0  0  0
  152.5994  129.1860  154.6214 C   0  0  0  0  0  0  0  0  0  0  0  0
  153.8288  129.8757  155.1996 C   0  0  0  0  0  0  0  0  0  0  0  0
  153.3128  130.9760  155.9405 O   0  0  0  0  0  0  0  0  0  0  0  0
  151.1715  133.0761  156.4065 C   0  0  0  0  0  0  0  0  0  0  0  0
  151.9685  133.3170  157.3162 O   0  0  0  0  0  0  0  0  0  0  0  0
  150.5311  137.7661  155.7143 N   0  0  0  0  0  0  0  0  0  0  0  0
  150.8399  138.9252  154.8810 C   0  0  2  0  0  0  0  0  0  0  0  0
  151.9346  139.7850  155.5445 C   0  0  0  0  0  0  0  0  0  0  0  0
  151.3607  140.7163  156.6163 C   0  0  0  0  0  0  0  0  0  0  0  0
  150.3258  141.6757  156.0168 C   0  0  0  0  0  0  0  0  0  0  0  0
  149.3194  140.9891  155.1056 C   0  0  0  0  0  0  0  0  0  0  0  0
  148.1215  141.6634  154.7881 C   0  0  0  0  0  0  0  0  0  0  0  0
  147.1699  141.0664  153.9399 C   0  0  0  0  0  0  0  0  0  0  0  0
  147.4113  139.7887  153.4032 C   0  0  0  0  0  0  0  0  0  0  0  0
  148.6047  139.1106  153.7136 C   0  0  0  0  0  0  0  0  0  0  0  0
  149.5675  139.7028  154.5599 C   0  0  0  0  0  0  0  0  0  0  0  0
  151.1749  135.4560  157.2717 H   0  0  0  0  0  0  0  0  0  0  0  0
  149.5119  135.7714  156.9585 H   0  0  0  0  0  0  0  0  0  0  0  0
  150.0972  130.5400  154.4260 H   0  0  0  0  0  0  0  0  0  0  0  0
  151.9544  130.7270  157.4381 H   0  0  0  0  0  0  0  0  0  0  0  0
  151.7552  128.5711  156.5055 H   0  0  0  0  0  0  0  0  0  0  0  0
  150.5606  129.3227  155.4294 H   0  0  0  0  0  0  0  0  0  0  0  0
  152.7811  128.1456  154.3511 H   0  0  0  0  0  0  0  0  0  0  0  0
  152.2514  129.7146  153.7334 H   0  0  0  0  0  0  0  0  0  0  0  0
  154.3552  129.2064  155.8817 H   0  0  0  0  0  0  0  0  0  0  0  0
  154.5303  130.2033  154.4320 H   0  0  0  0  0  0  0  0  0  0  0  0
  150.1003  137.9554  156.6076 H   0  0  0  0  0  0  0  0  0  0  0  0
  151.2315  138.5670  153.9268 H   0  0  0  0  0  0  0  0  0  0  0  0
  152.7269  139.1595  155.9582 H   0  0  0  0  0  0  0  0  0  0  0  0
  152.4100  140.4008  154.7801 H   0  0  0  0  0  0  0  0  0  0  0  0
  150.8924  140.1145  157.3960 H   0  0  0  0  0  0  0  0  0  0  0  0
  152.1575  141.2817  157.1002 H   0  0  0  0  0  0  0  0  0  0  0  0
  149.7997  142.1969  156.8176 H   0  0  0  0  0  0  0  0  0  0  0  0
  150.8362  142.4400  155.4297 H   0  0  0  0  0  0  0  0  0  0  0  0
  147.9296  142.6456  155.1948 H   0  0  0  0  0  0  0  0  0  0  0  0
  146.2555  141.5893  153.7013 H   0  0  0  0  0  0  0  0  0  0  0  0
  146.6818  139.3284  152.7534 H   0  0  0  0  0  0  0  0  0  0  0  0
  148.7822  138.1287  153.2994 H   0  0  0  0  0  0  0  0  0  0  0  0
  1  2  2  0  0  0  0
  2  3  1  0  0  0  0
  2 18  1  0  0  0  0
  3  4  1  0  0  0  0
  3 29  1  0  0  0  0
  3 30  1  0  0  0  0
  4 16  1  0  0  0  0
  4  5  1  0  0  0  0
  5  6  2  0  0  0  0
  5  7  1  0  0  0  0
  7  8  1  0  0  0  0
  7  9  2  0  0  0  0
  9 10  1  0  0  0  0
  9 31  1  0  0  0  0
 10 11  1  0  0  0  0
 10 16  1  0  0  0  0
 11 15  1  0  0  0  0
 11 12  1  0  0  0  0
 11 32  1  0  0  0  0
 12 13  1  0  0  0  0
 12 33  1  0  0  0  0
 12 34  1  0  0  0  0
 13 14  1  0  0  0  0
 13 35  1  0  0  0  0
 13 36  1  0  0  0  0
 14 15  1  0  0  0  0
 14 37  1  0  0  0  0
 14 38  1  0  0  0  0
 16 17  2  0  0  0  0
 18 19  1  0  0  0  0
 18 39  1  0  0  0  0
 19 28  1  0  0  0  0
 19 20  1  0  0  0  0
 19 40  1  0  0  0  0
 20 21  1  0  0  0  0
 20 41  1  0  0  0  0
 20 42  1  0  0  0  0
 21 22  1  0  0  0  0
 21 43  1  0  0  0  0
 21 44  1  0  0  0  0
 22 23  1  0  0  0  0
 22 45  1  0  0  0  0
 22 46  1  0  0  0  0
 23 28  2  0  0  0  0
 23 24  1  0  0  0  0
 24 25  2  0  0  0  0
 24 47  1  0  0  0  0
 25 26  1  0  0  0  0
 25 48  1  0  0  0  0
 26 27  2  0  0  0  0
 26 49  1  0  0  0  0
 27 28  1  0  0  0  0
 27 50  1  0  0  0  0
M  END
> <s_m_source_file>
AV-unprocessed.smi

> <i_m_source_file_index>
139

> <i_lp_mmshare_version>
43012

> <i_f3d_flags>
0

> <s_epik_input>
W2NIXTFbY0hdW2NIXVtjSF1jKGMxMilbQ0BASF0oW0NIMl1bQ0gyXVtDSDJdMilbTkhdQyg9TylbQ0gyXW4zYyg9TyljKEYpW2NIXW4oYzM9TylbQ0BASF00W0NIMl1bQ0gyXVtDSDJdTzQ=

> <s_epik_cmdline>
J2VwaWtfcHl0aG9uJywgJy1waCcsICc3LjAnLCAnLXRuJywgJzgnLCAnLW1hJywgJzIwMCcsICctbWV0YWxfYmluZGluZycsICctaW1hZScsICc8aW5maWxlLm1hZT4nLCAnLW9tYWUnLCAnPG91dGZpbGUubWFlPic=

> <r_lp_tautomer_probability>
1

> <r_epik_Ionization_Penalty>
3.261e-08

> <r_epik_Ionization_Penalty_Charging>
3.6725e-09

> <r_epik_Ionization_Penalty_Neutral>
2.89375e-08

> <r_epik_State_Penalty>
-0

> <r_epik_Charging_Adjusted_Penalty>
3.6725e-09

> <i_epik_Tot_Q>
0

> <i_epik_Tot_abs_Q>
0

> <r_epik_Metal_State_Penalty>
-0

> <b_epik_Metal_Only>
0

> <s_epik_Chemistry_Notes>
This compound contains an acetal/aminal-like group ( X-CH(R)-Y where X, Y are N, S, or O) that may be acid/base labile, releasing an aldehyde.

> <s_lp_Force_Field>
OPLS_2005

> <r_lp_Energy>
30.9445

> <b_lp_Chiralities_Consistent>
1

> <s_lp_Variant>
AV-unprocessed.smi:139-2

> <Gold.Version>
5.8.1

> <Gold.Id.Protein>
6NUR|6NUR_protein|mol2

> <Gold.PLP.Fitness>
53.0412

> <Gold.PLP.PLP>
-49.0766

> <Gold.PLP.part.hbond>
-2.0000

> <Gold.PLP.part.metal>
0.0000

> <Gold.PLP.part.buried>
-3.3390

> <Gold.PLP.part.nonpolar>
-47.6774

> <Gold.PLP.part.repulsive>
2.3078

> <Gold.PLP.ligand.clash>
0.0000

> <Gold.PLP.ligand.torsion>
0.4722

> <Gold.PLP.Chemscore.Hbond>
1.6240

> <Gold.PLP.Chemscore.CHOScore>
0.0000

> <Gold.PLP.Chemscore.Metal>
0.0000

> <Gold.Chemscore.Hbonds>
donor molecule, donor type, donor heavy atom, donor atom, acceptor molecule, acceptor atom, score
      P1  H  6896  6909       L1    17  0.62
      P1  H 10752 10764       L1     1  1.00

> <Gold.PLP.Chemscore.Internal.Correction>
0.0371

> <Gold.Rescore>
     Score         DG    S(hbond)    S(metal)    S(lipo)     H(rot)  DE(clash)    DE(int)     intcor
     14.76     -17.58       1.65        0.00      96.01       1.82       0.39       2.43       ----

> <Gold.Chemscore.Fitness>
14.7635

> <Gold.Chemscore.DG>
-17.5835

> <Gold.Chemscore.ZeroCoef>
-5.4800

> <Gold.Chemscore.Hbond>
1.6534

> <Gold.Chemscore.Metal>
0.0000

> <Gold.Chemscore.Lipo>
96.0140

> <Gold.Chemscore.Internal_Hbond>
0.0000

> <Gold.Chemscore.DEClash>
0.3878

> <Gold.Chemscore.DEInternal>
2.4322

> <Gold.Chemscore.Rot>
1.8174

> <Gold.Chemscore.Internal.Correction>
   9.000000E+99

> <Gold.Chemscore.Hbonds>
donor molecule, donor type, donor heavy atom, donor atom, acceptor molecule, acceptor atom, score
      P1  H  6896  6909       L1    17  0.61
      P1  H 10752 10764       L1     1  0.94

> <Gold.Chemscore.Hbond.Weighted>
-5.5223

> <Gold.Chemscore.Metal.Weighted>
-0.0000

> <Gold.Chemscore.Lipo.Weighted>
-11.2336

> <Gold.Chemscore.Internal_Hbond.Weighted>
0.0000

> <Gold.Chemscore.DEClash.Weighted>
0.3878

> <Gold.Chemscore.DEInternal.Weighted>
2.4322

> <Gold.Chemscore.Rot.Weighted>
4.6524

> <Gold.Chemscore.Internal.Correction.Weighted>
   9.000000E+99

> <Gold.Protein.RotatedTorsions>
[ 6907 6896 6895 6894 ] final  -54.82 input  -60.11 | X-H torsion
[ 7974 7965 7964 7962 ] final  -37.25 input  175.53 | X-H torsion
[ 8008 7997 7996 7995 ] final  -87.51 input   59.86 | X-H torsion
[ 10167 10162 10161 10158 ] final  142.11 input  -65.29 | X-H torsion
[ 10718 10713 10712 10709 ] final -151.21 input   66.30 | X-H torsion
[ 10763 10752 10751 10750 ] final  -70.54 input  -60.55 | X-H torsion
[ 11005 11000 10999 10996 ] final  -63.15 input  -57.11 | X-H torsion

> <Gold.Protein.ActiveResidues>
 VAL166  LYS551  ARG553  GLY616  TRP617  ASP618  TYR619  PRO620  LYS621  CYS622 
 ASP623  PHE694  ASN695  SER759  ASP760  ASP761  ALA762  ILE779  LEU786  VAL792 
 PHE793  MET794  SER795  GLU796  ALA797  LYS798  CYS799  TRP800  GLU811  SER814 

> <Gold.Protein.RotatedAtoms>
  150.8305  134.7555  159.6848 H   0  0  0  0  0  0  0  0  0  0  0  0  # atno 6907 bound_to 6896
  152.4410  134.5588  159.9898 H   0  0  0  0  0  0  0  0  0  0  0  0  # atno 6908 bound_to 6896
  151.5750  133.3347  159.3033 H   0  0  0  0  0  0  0  0  0  0  0  0  # atno 6909 bound_to 6896
  146.0591  140.6373  142.9005 H   0  0  0  0  0  0  0  0  0  0  0  0  # atno 7974 bound_to 7965
  154.6641  140.0565  157.0094 H   0  0  0  0  0  0  0  0  0  0  0  0  # atno 8008 bound_to 7997
  155.1185  140.3245  155.4485 H   0  0  0  0  0  0  0  0  0  0  0  0  # atno 8009 bound_to 7997
  156.2630  140.2002  156.6307 H   0  0  0  0  0  0  0  0  0  0  0  0  # atno 8010 bound_to 7997
  139.5003  144.6128  151.6232 H   0  0  0  0  0  0  0  0  0  0  0  0  # atno 10167 bound_to 10162
  156.4562  130.8191  151.2422 H   0  0  0  0  0  0  0  0  0  0  0  0  # atno 10718 bound_to 10713
  154.4191  135.5991  153.5999 H   0  0  0  0  0  0  0  0  0  0  0  0  # atno 10763 bound_to 10752
  152.9793  135.5948  154.3977 H   0  0  0  0  0  0  0  0  0  0  0  0  # atno 10764 bound_to 10752
  154.3799  135.2841  155.2195 H   0  0  0  0  0  0  0  0  0  0  0  0  # atno 10765 bound_to 10752
  141.1384  133.6648  156.5637 H   0  0  0  0  0  0  0  0  0  0  0  0  # atno 11005 bound_to 11000
  144.7165  140.4227  143.7040 LP  0  0  0  0  0  0  0  0  0  0  0  0  # atno 17320 bound_to 7965
  145.6591  139.1578  143.2818 LP  0  0  0  0  0  0  0  0  0  0  0  0  # atno 17321 bound_to 7965
  140.5808  143.9950  150.6267 LP  0  0  0  0  0  0  0  0  0  0  0  0  # atno 17342 bound_to 10162
  140.3098  143.3205  152.0890 LP  0  0  0  0  0  0  0  0  0  0  0  0  # atno 17343 bound_to 10162
  157.7500  131.0122  150.3375 LP  0  0  0  0  0  0  0  0  0  0  0  0  # atno 17370 bound_to 10713
  156.3764  130.3872  149.7135 LP  0  0  0  0  0  0  0  0  0  0  0  0  # atno 17371 bound_to 10713
  140.3968  134.7392  157.4755 LP  0  0  0  0  0  0  0  0  0  0  0  0  # atno 17394 bound_to 11000
  140.0525  134.6110  155.8844 LP  0  0  0  0  0  0  0  0  0  0  0  0  # atno 17395 bound_to 11000

$$$$
