AV-unprocessed.smi:2397|AV-procd|sdf|9496|dock3
  -GOLD-   2272013123D 1   1.00000     0.00000
 Structure written by MMmdl.
 37 38  0  0  0  0  0  0  0  0  2 V2000
  150.5148  144.6957  159.3173 C   0  0  0  0  0  0  0  0  0  0  0  0
  151.7321  143.9999  158.6895 C   0  0  0  0  0  0  0  0  0  0  0  0
  152.6615  144.9708  157.9453 C   0  0  0  0  0  0  0  0  0  0  0  0
  151.3263  142.8202  157.8179 C   0  0  0  0  0  0  0  0  0  0  0  0
  150.4279  143.0128  156.8392 N   0  3  0  0  0  0  0  0  0  0  0  0
  150.0545  141.9721  156.0565 C   0  0  0  0  0  0  0  0  0  0  0  0
  150.6032  140.6932  156.2619 C   0  0  0  0  0  0  0  0  0  0  0  0
  151.5471  140.5592  157.3028 C   0  0  0  0  0  0  0  0  0  0  0  0
  152.1763  139.3394  157.6251 N   0  0  0  0  0  0  0  0  0  0  0  0
  152.0979  139.0741  159.0609 C   0  0  0  0  0  0  0  0  0  0  0  0
  152.9386  137.8465  159.4365 C   0  0  0  0  0  0  0  0  0  0  0  0
  152.5083  136.7371  158.6612 O   0  0  0  0  0  0  0  0  0  0  0  0
  152.7226  136.9566  157.2726 C   0  0  0  0  0  0  0  0  0  0  0  0
  151.8975  138.1682  156.7767 C   0  0  2  0  0  0  0  0  0  0  0  0
  152.1787  138.3422  155.2700 C   0  0  0  0  0  0  0  0  0  0  0  0
  151.7216  137.4110  154.4258 N   0  0  0  0  0  0  0  0  0  0  0  0
  152.8246  139.3101  154.8758 O   0  0  0  0  0  0  0  0  0  0  0  0
  151.8833  141.6253  158.0599 N   0  0  0  0  0  0  0  0  0  0  0  0
  149.9182  143.9929  159.8995 H   0  0  0  0  0  0  0  0  0  0  0  0
  149.8674  145.1315  158.5555 H   0  0  0  0  0  0  0  0  0  0  0  0
  150.8244  145.4990  159.9864 H   0  0  0  0  0  0  0  0  0  0  0  0
  152.3143  143.5954  159.5193 H   0  0  0  0  0  0  0  0  0  0  0  0
  153.5505  144.4584  157.5763 H   0  0  0  0  0  0  0  0  0  0  0  0
  152.9934  145.7758  158.6013 H   0  0  0  0  0  0  0  0  0  0  0  0
  152.1602  145.4263  157.0906 H   0  0  0  0  0  0  0  0  0  0  0  0
  149.3261  142.1966  155.2912 H   0  0  0  0  0  0  0  0  0  0  0  0
  150.3001  139.8634  155.6412 H   0  0  0  0  0  0  0  0  0  0  0  0
  152.4483  139.9333  159.6348 H   0  0  0  0  0  0  0  0  0  0  0  0
  151.0562  138.9085  159.3406 H   0  0  0  0  0  0  0  0  0  0  0  0
  154.0020  138.0333  159.2773 H   0  0  0  0  0  0  0  0  0  0  0  0
  152.8106  137.6118  160.4934 H   0  0  0  0  0  0  0  0  0  0  0  0
  153.7890  137.1001  157.0866 H   0  0  0  0  0  0  0  0  0  0  0  0
  152.4307  136.0516  156.7382 H   0  0  0  0  0  0  0  0  0  0  0  0
  150.8443  137.9086  156.8935 H   0  0  0  0  0  0  0  0  0  0  0  0
  151.9115  137.4903  153.4370 H   0  0  0  0  0  0  0  0  0  0  0  0
  151.2066  136.6193  154.7837 H   0  0  0  0  0  0  0  0  0  0  0  0
  150.0214  143.9351  156.6796 H   0  0  0  0  0  0  0  0  0  0  0  0
  1  2  1  0  0  0  0
  1 19  1  0  0  0  0
  1 20  1  0  0  0  0
  1 21  1  0  0  0  0
  2  3  1  0  0  0  0
  2  4  1  0  0  0  0
  2 22  1  0  0  0  0
  3 23  1  0  0  0  0
  3 24  1  0  0  0  0
  3 25  1  0  0  0  0
  4 18  1  0  0  0  0
  4  5  2  0  0  0  0
  5  6  1  0  0  0  0
  5 37  1  0  0  0  0
  6  7  2  0  0  0  0
  6 26  1  0  0  0  0
  7  8  1  0  0  0  0
  7 27  1  0  0  0  0
  8  9  1  0  0  0  0
  8 18  2  0  0  0  0
  9 14  1  0  0  0  0
  9 10  1  0  0  0  0
 10 11  1  0  0  0  0
 10 28  1  0  0  0  0
 10 29  1  0  0  0  0
 11 12  1  0  0  0  0
 11 30  1  0  0  0  0
 11 31  1  0  0  0  0
 12 13  1  0  0  0  0
 13 14  1  0  0  0  0
 13 32  1  0  0  0  0
 13 33  1  0  0  0  0
 14 15  1  0  0  0  0
 14 34  1  0  0  0  0
 15 16  1  0  0  0  0
 15 17  2  0  0  0  0
 16 35  1  0  0  0  0
 16 36  1  0  0  0  0
M  CHG  1   5   1
M  END
> <s_m_source_file>
AV-unprocessed.smi

> <i_m_source_file_index>
2397

> <i_lp_mmshare_version>
43012

> <i_f3d_flags>
0

> <s_epik_input>
W0NIM11bQ0hdKFtDSDNdKWMxbltjSF1bY0hdYyhuMSlOMltDSDJdW0NIMl1PW0NIMl1bQ0BIXTJDKD1PKVtOSDJd

> <s_epik_cmdline>
J2VwaWtfcHl0aG9uJywgJy1waCcsICc3LjAnLCAnLXRuJywgJzgnLCAnLW1hJywgJzIwMCcsICctbWV0YWxfYmluZGluZycsICctaW1hZScsICc8aW5maWxlLm1hZT4nLCAnLW9tYWUnLCAnPG91dGZpbGUubWFlPic=

> <r_lp_tautomer_probability>
0.999336

> <r_epik_Ionization_Penalty>
1.74009

> <r_epik_Ionization_Penalty_Charging>
1.74009

> <r_epik_Ionization_Penalty_Neutral>
2.46902e-07

> <r_epik_State_Penalty>
1.8491

> <r_epik_Charging_Adjusted_Penalty>
3.5892

> <i_epik_Tot_Q>
1

> <i_epik_Tot_abs_Q>
1

> <r_epik_Metal_State_Penalty>
1.87997

> <b_epik_Metal_Only>
0

> <s_lp_Force_Field>
OPLS_2005

> <r_lp_Energy>
12.8895

> <b_lp_Chiralities_Consistent>
1

> <s_lp_Variant>
AV-unprocessed.smi:2397-4

> <Gold.Version>
5.8.1

> <Gold.Id.Protein>
6NUR|6NUR_protein|mol2

> <Gold.PLP.Fitness>
38.9062

> <Gold.PLP.PLP>
-31.2715

> <Gold.PLP.part.hbond>
-4.2307

> <Gold.PLP.part.metal>
0.0000

> <Gold.PLP.part.buried>
-4.7385

> <Gold.PLP.part.nonpolar>
-23.8301

> <Gold.PLP.part.repulsive>
1.0927

> <Gold.PLP.ligand.clash>
0.0373

> <Gold.PLP.ligand.torsion>
0.5506

> <Gold.PLP.Chemscore.Hbond>
2.8260

> <Gold.PLP.Chemscore.CHOScore>
0.0000

> <Gold.PLP.Chemscore.Metal>
0.0000

> <Gold.Chemscore.Hbonds>
donor molecule, donor type, donor heavy atom, donor atom, acceptor molecule, acceptor atom, score
      L1  H     5    37       P1  8028  1.66
      P1  H  7989  7998       L1    17  0.09
      P1  H  7997  8009       L1    17  0.71

> <Gold.PLP.Chemscore.Internal.Correction>
0.2953

> <Gold.Rescore>
     Score         DG    S(hbond)    S(metal)    S(lipo)     H(rot)  DE(clash)    DE(int)     intcor
     10.98     -15.51       1.99        0.00      67.74       1.77       0.64       3.90       ----

> <Gold.Chemscore.Fitness>
10.9761

> <Gold.Chemscore.DG>
-15.5139

> <Gold.Chemscore.ZeroCoef>
-5.4800

> <Gold.Chemscore.Hbond>
1.9892

> <Gold.Chemscore.Metal>
0.0000

> <Gold.Chemscore.Lipo>
67.7395

> <Gold.Chemscore.Internal_Hbond>
0.0000

> <Gold.Chemscore.DEClash>
0.6411

> <Gold.Chemscore.DEInternal>
3.8966

> <Gold.Chemscore.Rot>
1.7717

> <Gold.Chemscore.Internal.Correction>
   9.000000E+99

> <Gold.Chemscore.Hbonds>
donor molecule, donor type, donor heavy atom, donor atom, acceptor molecule, acceptor atom, score
      L1  H     5    37       P1  8028  0.83
      P1  H  7989  7998       L1    17  0.09
      P1  H  7997  8009       L1    17  0.69

> <Gold.Chemscore.Hbond.Weighted>
-6.6440

> <Gold.Chemscore.Metal.Weighted>
-0.0000

> <Gold.Chemscore.Lipo.Weighted>
-7.9255

> <Gold.Chemscore.Internal_Hbond.Weighted>
0.0000

> <Gold.Chemscore.DEClash.Weighted>
0.6411

> <Gold.Chemscore.DEInternal.Weighted>
3.8966

> <Gold.Chemscore.Rot.Weighted>
4.5357

> <Gold.Chemscore.Internal.Correction.Weighted>
   9.000000E+99

> <Gold.Protein.RotatedTorsions>
[ 6907 6896 6895 6894 ] final  -46.16 input  -60.11 | X-H torsion
[ 7974 7965 7964 7962 ] final  134.59 input  175.53 | X-H torsion
[ 8008 7997 7996 7995 ] final -149.78 input   59.86 | X-H torsion
[ 10167 10162 10161 10158 ] final -122.36 input  -65.29 | X-H torsion
[ 10718 10713 10712 10709 ] final  -92.16 input   66.30 | X-H torsion
[ 10763 10752 10751 10750 ] final   58.83 input  -60.55 | X-H torsion
[ 11005 11000 10999 10996 ] final -117.41 input  -57.11 | X-H torsion

> <Gold.Protein.ActiveResidues>
 VAL166  LYS551  ARG553  GLY616  TRP617  ASP618  TYR619  PRO620  LYS621  CYS622 
 ASP623  PHE694  ASN695  SER759  ASP760  ASP761  ALA762  ILE779  LEU786  VAL792 
 PHE793  MET794  SER795  GLU796  ALA797  LYS798  CYS799  TRP800  GLU811  SER814 

> <Gold.Protein.RotatedAtoms>
  150.9142  134.8559  159.7445 H   0  0  0  0  0  0  0  0  0  0  0  0  # atno 6907 bound_to 6896
  152.4960  134.4314  159.9523 H   0  0  0  0  0  0  0  0  0  0  0  0  # atno 6908 bound_to 6896
  151.4354  133.3619  159.2809 H   0  0  0  0  0  0  0  0  0  0  0  0  # atno 6909 bound_to 6896
  144.9748  139.4567  143.5415 H   0  0  0  0  0  0  0  0  0  0  0  0  # atno 7974 bound_to 7965
  155.6130  140.0673  157.2700 H   0  0  0  0  0  0  0  0  0  0  0  0  # atno 8008 bound_to 7997
  154.4248  140.1798  156.1340 H   0  0  0  0  0  0  0  0  0  0  0  0  # atno 8009 bound_to 7997
  156.0069  140.3330  155.6905 H   0  0  0  0  0  0  0  0  0  0  0  0  # atno 8010 bound_to 7997
  140.0151  143.5402  152.2246 H   0  0  0  0  0  0  0  0  0  0  0  0  # atno 10167 bound_to 10162
  156.0000  130.4976  150.5584 H   0  0  0  0  0  0  0  0  0  0  0  0  # atno 10718 bound_to 10713
  152.9880  135.5593  154.5615 H   0  0  0  0  0  0  0  0  0  0  0  0  # atno 10763 bound_to 10752
  154.5033  135.2798  155.1405 H   0  0  0  0  0  0  0  0  0  0  0  0  # atno 10764 bound_to 10752
  154.2826  135.6342  153.5406 H   0  0  0  0  0  0  0  0  0  0  0  0  # atno 10765 bound_to 10752
  141.0356  133.9914  157.3075 H   0  0  0  0  0  0  0  0  0  0  0  0  # atno 11005 bound_to 11000
  146.3392  139.8984  142.8798 LP  0  0  0  0  0  0  0  0  0  0  0  0  # atno 17320 bound_to 7965
  145.2506  141.0042  143.3883 LP  0  0  0  0  0  0  0  0  0  0  0  0  # atno 17321 bound_to 7965
  139.6178  144.7623  151.2807 LP  0  0  0  0  0  0  0  0  0  0  0  0  # atno 17342 bound_to 10162
  140.7366  143.6704  150.8087 LP  0  0  0  0  0  0  0  0  0  0  0  0  # atno 17343 bound_to 10162
  157.3497  131.0731  151.1723 LP  0  0  0  0  0  0  0  0  0  0  0  0  # atno 17370 bound_to 10713
  157.2544  130.6629  149.5946 LP  0  0  0  0  0  0  0  0  0  0  0  0  # atno 17371 bound_to 10713
  139.9238  135.0201  156.8163 LP  0  0  0  0  0  0  0  0  0  0  0  0  # atno 17394 bound_to 11000
  140.6327  133.9890  155.7670 LP  0  0  0  0  0  0  0  0  0  0  0  0  # atno 17395 bound_to 11000

$$$$
