AV-unprocessed.smi:1163|AV-procd|sdf|4923|dock8
  -GOLD-   22720 3503D 1   1.00000     0.00000
 Structure written by MMmdl.
 40 41  0  0  0  0  0  0  0  0  2 V2000
  153.9872  138.2231  158.9765 C   0  0  0  0  0  0  0  0  0  0  0  0
  153.7171  138.7418  157.6789 O   0  0  0  0  0  0  0  0  0  0  0  0
  152.8228  138.0642  156.8758 C   0  0  0  0  0  0  0  0  0  0  0  0
  152.5504  138.5736  155.5907 C   0  0  0  0  0  0  0  0  0  0  0  0
  151.6379  137.8894  154.7649 C   0  0  0  0  0  0  0  0  0  0  0  0
  151.0180  136.7153  155.2560 C   0  0  0  0  0  0  0  0  0  0  0  0
  150.0943  135.9248  154.5196 N   0  0  0  0  0  0  0  0  0  0  0  0
  149.6199  134.7003  154.8065 C   0  0  0  0  0  0  0  0  0  0  0  0
  149.9320  134.0235  155.7858 O   0  0  0  0  0  0  0  0  0  0  0  0
  148.7596  134.2806  153.8680 N   0  0  0  0  0  0  0  0  0  0  0  0
  148.0698  132.9949  153.8877 C   0  0  1  0  0  0  0  0  0  0  0  0
  147.0427  132.8302  152.7765 C   0  0  0  0  0  0  0  0  0  0  0  0
  146.8496  131.3109  152.7400 C   0  0  0  0  0  0  0  0  0  0  0  0
  148.1431  130.7069  153.1519 N   0  3  2  0  0  0  0  0  0  0  0  0
  148.0281  129.5602  154.0882 C   0  0  0  0  0  0  0  0  0  0  0  0
  147.6467  128.2478  153.3798 C   0  0  0  0  0  0  0  0  0  0  0  0
  147.6109  127.2646  154.2778 F   0  0  0  0  0  0  0  0  0  0  0  0
  146.4482  128.3357  152.8040 F   0  0  0  0  0  0  0  0  0  0  0  0
  148.5574  127.9475  152.4541 F   0  0  0  0  0  0  0  0  0  0  0  0
  149.0054  131.8074  153.6429 C   0  0  0  0  0  0  0  0  0  0  0  0
  151.3703  136.2818  156.5510 C   0  0  0  0  0  0  0  0  0  0  0  0
  152.2430  136.9332  157.3478 N   0  0  0  0  0  0  0  0  0  0  0  0
  154.7080  138.8674  159.4797 H   0  0  0  0  0  0  0  0  0  0  0  0
  154.4183  137.2221  158.9249 H   0  0  0  0  0  0  0  0  0  0  0  0
  153.0854  138.1937  159.5898 H   0  0  0  0  0  0  0  0  0  0  0  0
  153.0364  139.4727  155.2420 H   0  0  0  0  0  0  0  0  0  0  0  0
  151.4463  138.2716  153.7747 H   0  0  0  0  0  0  0  0  0  0  0  0
  149.7971  136.3210  153.6398 H   0  0  0  0  0  0  0  0  0  0  0  0
  148.5602  134.8967  153.0933 H   0  0  0  0  0  0  0  0  0  0  0  0
  147.5677  132.8680  154.8494 H   0  0  0  0  0  0  0  0  0  0  0  0
  146.1149  133.3700  152.9692 H   0  0  0  0  0  0  0  0  0  0  0  0
  147.4486  133.1786  151.8254 H   0  0  0  0  0  0  0  0  0  0  0  0
  146.0639  131.0399  153.4470 H   0  0  0  0  0  0  0  0  0  0  0  0
  146.5441  130.9576  151.7548 H   0  0  0  0  0  0  0  0  0  0  0  0
  148.9961  129.4104  154.5687 H   0  0  0  0  0  0  0  0  0  0  0  0
  147.3205  129.7937  154.8854 H   0  0  0  0  0  0  0  0  0  0  0  0
  149.7233  132.0452  152.8565 H   0  0  0  0  0  0  0  0  0  0  0  0
  149.5752  131.5434  154.5351 H   0  0  0  0  0  0  0  0  0  0  0  0
  150.9349  135.3841  156.9652 H   0  0  0  0  0  0  0  0  0  0  0  0
  148.5914  130.3525  152.3187 H   0  0  0  0  0  0  0  0  0  0  0  0
  1  2  1  0  0  0  0
  1 23  1  0  0  0  0
  1 24  1  0  0  0  0
  1 25  1  0  0  0  0
  2  3  1  0  0  0  0
  3 22  1  0  0  0  0
  3  4  2  0  0  0  0
  4  5  1  0  0  0  0
  4 26  1  0  0  0  0
  5  6  2  0  0  0  0
  5 27  1  0  0  0  0
  6  7  1  0  0  0  0
  6 21  1  0  0  0  0
  7  8  1  0  0  0  0
  7 28  1  0  0  0  0
  8  9  2  0  0  0  0
  8 10  1  0  0  0  0
 10 11  1  0  0  0  0
 10 29  1  0  0  0  0
 11 20  1  0  0  0  0
 11 12  1  0  0  0  0
 11 30  1  0  0  0  0
 12 13  1  0  0  0  0
 12 31  1  0  0  0  0
 12 32  1  0  0  0  0
 13 14  1  0  0  0  0
 13 33  1  0  0  0  0
 13 34  1  0  0  0  0
 14 15  1  0  0  0  0
 14 20  1  0  0  0  0
 14 40  1  0  0  0  0
 15 16  1  0  0  0  0
 15 35  1  0  0  0  0
 15 36  1  0  0  0  0
 16 17  1  0  0  0  0
 16 18  1  0  0  0  0
 16 19  1  0  0  0  0
 20 37  1  0  0  0  0
 20 38  1  0  0  0  0
 21 22  2  0  0  0  0
 21 39  1  0  0  0  0
M  CHG  1  14   1
M  END
> <s_m_source_file>
AV-unprocessed.smi

> <i_m_source_file_index>
1163

> <i_lp_mmshare_version>
43012

> <i_f3d_flags>
0

> <s_epik_input>
W0NIM11PYzFbY0hdW2NIXWMoW2NIXW4xKVtOSF1DKD1PKVtOSF1bQ0BASF0yW0NIMl1bQ0gyXU4oW0NIMl0yKVtDSDJdQyhGKShGKUY=

> <s_epik_cmdline>
J2VwaWtfcHl0aG9uJywgJy1waCcsICc3LjAnLCAnLXRuJywgJzgnLCAnLW1hJywgJzIwMCcsICctbWV0YWxfYmluZGluZycsICctaW1hZScsICc8aW5maWxlLm1hZT4nLCAnLW9tYWUnLCAnPG91dGZpbGUubWFlPic=

> <r_lp_tautomer_probability>
1

> <r_epik_Ionization_Penalty>
1.12054

> <r_epik_Ionization_Penalty_Charging>
1.12047

> <r_epik_Ionization_Penalty_Neutral>
7.20346e-05

> <r_epik_State_Penalty>
1.17927

> <r_epik_Charging_Adjusted_Penalty>
2.29974

> <i_epik_Tot_Q>
1

> <i_epik_Tot_abs_Q>
1

> <r_epik_Metal_State_Penalty>
1.17928

> <b_epik_Metal_Only>
0

> <s_lp_Force_Field>
OPLS_2005

> <r_lp_Energy>
31.6131

> <b_lp_Chiralities_Consistent>
1

> <s_lp_Variant>
AV-unprocessed.smi:1163-4

> <Gold.Version>
5.8.1

> <Gold.Id.Protein>
6NUR|6NUR_protein|mol2

> <Gold.PLP.Fitness>
45.6868

> <Gold.PLP.PLP>
-33.9420

> <Gold.PLP.part.hbond>
-4.5764

> <Gold.PLP.part.metal>
0.0000

> <Gold.PLP.part.buried>
-2.9362

> <Gold.PLP.part.nonpolar>
-26.8802

> <Gold.PLP.part.repulsive>
0.0999

> <Gold.PLP.ligand.clash>
0.0000

> <Gold.PLP.ligand.torsion>
0.3031

> <Gold.PLP.Chemscore.Hbond>
3.9760

> <Gold.PLP.Chemscore.CHOScore>
0.0000

> <Gold.PLP.Chemscore.Metal>
0.0000

> <Gold.Chemscore.Hbonds>
donor molecule, donor type, donor heavy atom, donor atom, acceptor molecule, acceptor atom, score
      L1  H     7    28       P1  7948  1.00
      L1  H    10    29       P1  7948  1.00
      L1  H    14    40       P1 10747  0.70
      P1  H  7997  8008       L1     2  1.00

> <Gold.PLP.Chemscore.Internal.Correction>
0.4231

> <Gold.Rescore>
     Score         DG    S(hbond)    S(metal)    S(lipo)     H(rot)  DE(clash)    DE(int)     intcor
     17.29     -19.11       3.25        0.00      60.57       1.68       0.02       1.80       ----

> <Gold.Chemscore.Fitness>
17.2943

> <Gold.Chemscore.DG>
-19.1131

> <Gold.Chemscore.ZeroCoef>
-5.4800

> <Gold.Chemscore.Hbond>
3.2460

> <Gold.Chemscore.Metal>
0.0000

> <Gold.Chemscore.Lipo>
60.5700

> <Gold.Chemscore.Internal_Hbond>
0.0000

> <Gold.Chemscore.DEClash>
0.0155

> <Gold.Chemscore.DEInternal>
1.8033

> <Gold.Chemscore.Rot>
1.6778

> <Gold.Chemscore.Internal.Correction>
   9.000000E+99

> <Gold.Chemscore.Hbonds>
donor molecule, donor type, donor heavy atom, donor atom, acceptor molecule, acceptor atom, score
      L1  H     7    28       P1  7948  0.29
      L1  H    10    29       P1  7948  0.54
      L1  H    14    40       P1 10747  0.40
      P1  H  7997  8008       L1     2  0.90

> <Gold.Chemscore.Hbond.Weighted>
-10.8415

> <Gold.Chemscore.Metal.Weighted>
-0.0000

> <Gold.Chemscore.Lipo.Weighted>
-7.0867

> <Gold.Chemscore.Internal_Hbond.Weighted>
0.0000

> <Gold.Chemscore.DEClash.Weighted>
0.0155

> <Gold.Chemscore.DEInternal.Weighted>
1.8033

> <Gold.Chemscore.Rot.Weighted>
4.2951

> <Gold.Chemscore.Internal.Correction.Weighted>
   9.000000E+99

> <Gold.Protein.RotatedTorsions>
[ 6907 6896 6895 6894 ] final   -6.39 input  -60.11 | X-H torsion
[ 7974 7965 7964 7962 ] final    3.98 input  175.53 | X-H torsion
[ 8008 7997 7996 7995 ] final  -98.03 input   59.86 | X-H torsion
[ 10167 10162 10161 10158 ] final  149.60 input  -65.29 | X-H torsion
[ 10718 10713 10712 10709 ] final   76.54 input   66.30 | X-H torsion
[ 10763 10752 10751 10750 ] final   17.83 input  -60.55 | X-H torsion
[ 11005 11000 10999 10996 ] final   91.68 input  -57.11 | X-H torsion

> <Gold.Protein.ActiveResidues>
 VAL166  LYS551  ARG553  GLY616  TRP617  ASP618  TYR619  PRO620  LYS621  CYS622 
 ASP623  PHE694  ASN695  SER759  ASP760  ASP761  ALA762  ILE779  LEU786  VAL792 
 PHE793  MET794  SER795  GLU796  ALA797  LYS798  CYS799  TRP800  GLU811  SER814 

> <Gold.Protein.RotatedAtoms>
  151.4663  135.1042  159.9738 H   0  0  0  0  0  0  0  0  0  0  0  0  # atno 6907 bound_to 6896
  152.4834  133.8306  159.7112 H   0  0  0  0  0  0  0  0  0  0  0  0  # atno 6908 bound_to 6896
  150.8923  133.7166  159.2928 H   0  0  0  0  0  0  0  0  0  0  0  0  # atno 6909 bound_to 6896
  146.2444  140.0603  142.8369 H   0  0  0  0  0  0  0  0  0  0  0  0  # atno 7974 bound_to 7965
  154.7957  140.0458  157.1235 H   0  0  0  0  0  0  0  0  0  0  0  0  # atno 8008 bound_to 7997
  154.9538  140.3068  155.5043 H   0  0  0  0  0  0  0  0  0  0  0  0  # atno 8009 bound_to 7997
  156.2955  140.2283  156.4618 H   0  0  0  0  0  0  0  0  0  0  0  0  # atno 8010 bound_to 7997
  139.4859  144.5589  151.7267 H   0  0  0  0  0  0  0  0  0  0  0  0  # atno 10167 bound_to 10162
  157.6677  130.9779  150.1512 H   0  0  0  0  0  0  0  0  0  0  0  0  # atno 10718 bound_to 10713
  153.1303  135.6739  153.9189 H   0  0  0  0  0  0  0  0  0  0  0  0  # atno 10763 bound_to 10752
  153.8677  135.3073  155.3442 H   0  0  0  0  0  0  0  0  0  0  0  0  # atno 10764 bound_to 10752
  154.7701  135.4943  153.9714 H   0  0  0  0  0  0  0  0  0  0  0  0  # atno 10765 bound_to 10752
  139.8835  134.8688  156.3463 H   0  0  0  0  0  0  0  0  0  0  0  0  # atno 11005 bound_to 11000
  145.0906  140.9281  143.4771 LP  0  0  0  0  0  0  0  0  0  0  0  0  # atno 17320 bound_to 7965
  145.0775  139.2985  143.5800 LP  0  0  0  0  0  0  0  0  0  0  0  0  # atno 17321 bound_to 7965
  140.5155  144.0959  150.6007 LP  0  0  0  0  0  0  0  0  0  0  0  0  # atno 17342 bound_to 10162
  140.3899  143.2758  152.0072 LP  0  0  0  0  0  0  0  0  0  0  0  0  # atno 17343 bound_to 10162
  156.2310  130.3682  149.8444 LP  0  0  0  0  0  0  0  0  0  0  0  0  # atno 17370 bound_to 10713
  156.6271  130.8650  151.3487 LP  0  0  0  0  0  0  0  0  0  0  0  0  # atno 17371 bound_to 10713
  140.9624  133.7380  156.0420 LP  0  0  0  0  0  0  0  0  0  0  0  0  # atno 17394 bound_to 11000
  140.7973  134.3549  157.5449 LP  0  0  0  0  0  0  0  0  0  0  0  0  # atno 17395 bound_to 11000

$$$$
