AV-unprocessed.smi:2404|AV-procd|sdf|9511|dock1
  -GOLD-   2272013143D 1   1.00000     0.00000
 Structure written by MMmdl.
 42 42  0  0  0  0  0  0  0  0  2 V2000
  149.6864  141.9586  155.1019 C   0  0  0  0  0  0  0  0  0  0  0  0
  150.7103  141.9466  156.2526 C   0  0  0  0  0  0  0  0  0  0  0  0
  151.0316  140.5556  156.8780 C   0  0  0  0  0  0  0  0  0  0  0  0
  152.0641  140.6815  158.0473 C   0  0  0  0  0  0  0  0  0  0  0  0
  151.6675  141.6079  159.2097 C   0  0  0  0  0  0  0  0  0  0  0  0
  149.6940  139.9328  157.3867 C   0  0  0  0  0  0  0  0  0  0  0  0
  149.8335  138.5409  157.8111 N   0  0  0  0  0  0  0  0  0  0  0  0
  148.9123  137.8156  158.4634 C   0  0  0  0  0  0  0  0  0  0  0  0
  147.7551  138.1886  158.6542 O   0  0  0  0  0  0  0  0  0  0  0  0
  149.3833  136.4698  159.0186 C   0  0  0  0  0  0  0  0  0  0  0  0
  148.5383  136.0407  160.1241 N   0  0  0  0  0  0  0  0  0  0  0  0
  148.4748  136.8033  161.2374 N   0  0  0  0  0  0  0  0  0  0  0  0
  147.5999  136.1921  162.0183 C   0  0  0  0  0  0  0  0  0  0  0  0
  147.2555  136.7914  163.3493 C   0  0  0  0  0  0  0  0  0  0  0  0
  147.0929  134.9997  161.4302 C   0  0  0  0  0  0  0  0  0  0  0  0
  147.7122  134.9338  160.2141 C   0  0  0  0  0  0  0  0  0  0  0  0
  147.5818  133.9254  159.1201 C   0  0  0  0  0  0  0  0  0  0  0  0
  151.6102  139.6249  155.7705 C   0  0  0  0  0  0  0  0  0  0  0  0
  152.7350  139.1030  155.9438 O   0  0  0  0  0  0  0  0  0  0  0  0
  150.8988  139.4326  154.7589 O   0  5  0  0  0  0  0  0  0  0  0  0
  149.5170  142.9781  154.7555 H   0  0  0  0  0  0  0  0  0  0  0  0
  148.7208  141.5574  155.4102 H   0  0  0  0  0  0  0  0  0  0  0  0
  150.0342  141.3813  154.2460 H   0  0  0  0  0  0  0  0  0  0  0  0
  151.6318  142.4087  155.8985 H   0  0  0  0  0  0  0  0  0  0  0  0
  150.3495  142.6217  157.0303 H   0  0  0  0  0  0  0  0  0  0  0  0
  152.2708  139.6963  158.4662 H   0  0  0  0  0  0  0  0  0  0  0  0
  153.0233  141.0278  157.6604 H   0  0  0  0  0  0  0  0  0  0  0  0
  152.4456  141.6077  159.9731 H   0  0  0  0  0  0  0  0  0  0  0  0
  150.7457  141.2870  159.6928 H   0  0  0  0  0  0  0  0  0  0  0  0
  151.5390  142.6387  158.8820 H   0  0  0  0  0  0  0  0  0  0  0  0
  149.2582  140.5441  158.1773 H   0  0  0  0  0  0  0  0  0  0  0  0
  148.9527  139.9428  156.5864 H   0  0  0  0  0  0  0  0  0  0  0  0
  150.7536  138.1359  157.7067 H   0  0  0  0  0  0  0  0  0  0  0  0
  149.3601  135.7082  158.2383 H   0  0  0  0  0  0  0  0  0  0  0  0
  150.4174  136.5534  159.3562 H   0  0  0  0  0  0  0  0  0  0  0  0
  146.5449  136.1667  163.8906 H   0  0  0  0  0  0  0  0  0  0  0  0
  146.8047  137.7768  163.2282 H   0  0  0  0  0  0  0  0  0  0  0  0
  148.1430  136.9024  163.9728 H   0  0  0  0  0  0  0  0  0  0  0  0
  146.3712  134.3058  161.8343 H   0  0  0  0  0  0  0  0  0  0  0  0
  146.9449  133.0966  159.4294 H   0  0  0  0  0  0  0  0  0  0  0  0
  148.5549  133.5168  158.8476 H   0  0  0  0  0  0  0  0  0  0  0  0
  147.1393  134.3730  158.2300 H   0  0  0  0  0  0  0  0  0  0  0  0
  1  2  1  0  0  0  0
  1 21  1  0  0  0  0
  1 22  1  0  0  0  0
  1 23  1  0  0  0  0
  2  3  1  0  0  0  0
  2 24  1  0  0  0  0
  2 25  1  0  0  0  0
  3  4  1  0  0  0  0
  3  6  1  0  0  0  0
  3 18  1  0  0  0  0
  4  5  1  0  0  0  0
  4 26  1  0  0  0  0
  4 27  1  0  0  0  0
  5 28  1  0  0  0  0
  5 29  1  0  0  0  0
  5 30  1  0  0  0  0
  6  7  1  0  0  0  0
  6 31  1  0  0  0  0
  6 32  1  0  0  0  0
  7  8  1  0  0  0  0
  7 33  1  0  0  0  0
  8  9  2  0  0  0  0
  8 10  1  0  0  0  0
 10 11  1  0  0  0  0
 10 34  1  0  0  0  0
 10 35  1  0  0  0  0
 11 16  1  0  0  0  0
 11 12  1  0  0  0  0
 12 13  2  0  0  0  0
 13 14  1  0  0  0  0
 13 15  1  0  0  0  0
 14 36  1  0  0  0  0
 14 37  1  0  0  0  0
 14 38  1  0  0  0  0
 15 16  2  0  0  0  0
 15 39  1  0  0  0  0
 16 17  1  0  0  0  0
 17 40  1  0  0  0  0
 17 41  1  0  0  0  0
 17 42  1  0  0  0  0
 18 19  2  0  0  0  0
 18 20  1  0  0  0  0
M  CHG  1  20  -1
M  END
> <s_m_source_file>
AV-unprocessed.smi

> <i_m_source_file_index>
2404

> <i_lp_mmshare_version>
43012

> <i_f3d_flags>
0

> <s_epik_input>
W0NIM11bQ0gyXUMoW0NIMl1bQ0gzXSkoQyg9TylbT0hdKVtDSDJdW05IXUMoPU8pW0NIMl1uMW5jKFtDSDNdKVtjSF1jMVtDSDNd

> <s_epik_cmdline>
J2VwaWtfcHl0aG9uJywgJy1waCcsICc3LjAnLCAnLXRuJywgJzgnLCAnLW1hJywgJzIwMCcsICctbWV0YWxfYmluZGluZycsICctaW1hZScsICc8aW5maWxlLm1hZT4nLCAnLW9tYWUnLCAnPG91dGZpbGUubWFlPic=

> <r_lp_tautomer_probability>
1

> <r_epik_Ionization_Penalty>
0.00271888

> <r_epik_Ionization_Penalty_Charging>
0.00235221

> <r_epik_Ionization_Penalty_Neutral>
0.000366676

> <r_epik_State_Penalty>
-0

> <r_epik_Charging_Adjusted_Penalty>
0.00235221

> <i_epik_Tot_Q>
-1

> <i_epik_Tot_abs_Q>
1

> <r_epik_Metal_State_Penalty>
-0

> <b_epik_Metal_Only>
0

> <s_lp_Force_Field>
OPLS_2005

> <r_lp_Energy>
2.14996

> <b_lp_Chiralities_Consistent>
1

> <s_lp_Variant>
AV-unprocessed.smi:2404-1

> <Gold.Version>
5.8.1

> <Gold.Id.Protein>
6NUR|6NUR_protein|mol2

> <Gold.PLP.Fitness>
45.6241

> <Gold.PLP.PLP>
-34.3002

> <Gold.PLP.part.hbond>
-4.2056

> <Gold.PLP.part.metal>
0.0000

> <Gold.PLP.part.buried>
-2.8986

> <Gold.PLP.part.nonpolar>
-27.7062

> <Gold.PLP.part.repulsive>
0.1621

> <Gold.PLP.ligand.clash>
0.0000

> <Gold.PLP.ligand.torsion>
0.4364

> <Gold.PLP.Chemscore.Hbond>
4.0073

> <Gold.PLP.Chemscore.CHOScore>
0.0000

> <Gold.PLP.Chemscore.Metal>
0.0000

> <Gold.Chemscore.Hbonds>
donor molecule, donor type, donor heavy atom, donor atom, acceptor molecule, acceptor atom, score
      P1  H  6931  6943       L1    12  1.00
      P1  H  7989  7998       L1    20  0.96
      P1  H  7997  8008       L1    19  2.00

> <Gold.PLP.Chemscore.Internal.Correction>
0.1750

> <Gold.Rescore>
     Score         DG    S(hbond)    S(metal)    S(lipo)     H(rot)  DE(clash)    DE(int)     intcor
     13.51     -17.95       2.91        0.00      76.38       2.42       1.47       2.97       ----

> <Gold.Chemscore.Fitness>
13.5096

> <Gold.Chemscore.DG>
-17.9509

> <Gold.Chemscore.ZeroCoef>
-5.4800

> <Gold.Chemscore.Hbond>
2.9099

> <Gold.Chemscore.Metal>
0.0000

> <Gold.Chemscore.Lipo>
76.3813

> <Gold.Chemscore.Internal_Hbond>
0.0000

> <Gold.Chemscore.DEClash>
1.4695

> <Gold.Chemscore.DEInternal>
2.9718

> <Gold.Chemscore.Rot>
2.4159

> <Gold.Chemscore.Internal.Correction>
   9.000000E+99

> <Gold.Chemscore.Hbonds>
donor molecule, donor type, donor heavy atom, donor atom, acceptor molecule, acceptor atom, score
      P1  H  6931  6943       L1    12  0.85
      P1  H  6934  6947       L1     9  0.01
      P1  H  7989  7998       L1    20  0.27
      P1  H  7997  8008       L1    19  0.98

> <Gold.Chemscore.Hbond.Weighted>
-9.7191

> <Gold.Chemscore.Metal.Weighted>
-0.0000

> <Gold.Chemscore.Lipo.Weighted>
-8.9366

> <Gold.Chemscore.Internal_Hbond.Weighted>
0.0000

> <Gold.Chemscore.DEClash.Weighted>
1.4695

> <Gold.Chemscore.DEInternal.Weighted>
2.9718

> <Gold.Chemscore.Rot.Weighted>
6.1848

> <Gold.Chemscore.Internal.Correction.Weighted>
   9.000000E+99

> <Gold.Protein.RotatedTorsions>
[ 6907 6896 6895 6894 ] final -121.90 input  -60.11 | X-H torsion
[ 7974 7965 7964 7962 ] final  -60.67 input  175.53 | X-H torsion
[ 8008 7997 7996 7995 ] final  -27.10 input   59.86 | X-H torsion
[ 10167 10162 10161 10158 ] final -148.67 input  -65.29 | X-H torsion
[ 10718 10713 10712 10709 ] final   31.33 input   66.30 | X-H torsion
[ 10763 10752 10751 10750 ] final  153.43 input  -60.55 | X-H torsion
[ 11005 11000 10999 10996 ] final   58.70 input  -57.11 | X-H torsion

> <Gold.Protein.ActiveResidues>
 VAL166  LYS551  ARG553  GLY616  TRP617  ASP618  TYR619  PRO620  LYS621  CYS622 
 ASP623  PHE694  ASN695  SER759  ASP760  ASP761  ALA762  ILE779  LEU786  VAL792 
 PHE793  MET794  SER795  GLU796  ALA797  LYS798  CYS799  TRP800  GLU811  SER814 

> <Gold.Protein.RotatedAtoms>
  150.8526  133.7764  159.3019 H   0  0  0  0  0  0  0  0  0  0  0  0  # atno 6907 bound_to 6896
  151.5432  135.1066  159.9941 H   0  0  0  0  0  0  0  0  0  0  0  0  # atno 6908 bound_to 6896
  152.4564  133.7689  159.6844 H   0  0  0  0  0  0  0  0  0  0  0  0  # atno 6909 bound_to 6896
  145.8127  140.8589  143.0173 H   0  0  0  0  0  0  0  0  0  0  0  0  # atno 7974 bound_to 7965
  154.4393  140.1881  156.0879 H   0  0  0  0  0  0  0  0  0  0  0  0  # atno 8008 bound_to 7997
  156.0388  140.3322  155.7195 H   0  0  0  0  0  0  0  0  0  0  0  0  # atno 8009 bound_to 7997
  155.5730  140.0614  157.2793 H   0  0  0  0  0  0  0  0  0  0  0  0  # atno 8010 bound_to 7997
  139.7511  143.8517  152.2586 H   0  0  0  0  0  0  0  0  0  0  0  0  # atno 10167 bound_to 10162
  157.2711  130.7208  149.6505 H   0  0  0  0  0  0  0  0  0  0  0  0  # atno 10718 bound_to 10713
  154.1361  135.2823  155.3173 H   0  0  0  0  0  0  0  0  0  0  0  0  # atno 10763 bound_to 10752
  154.6320  135.5432  153.7695 H   0  0  0  0  0  0  0  0  0  0  0  0  # atno 10764 bound_to 10752
  153.0265  135.6465  154.1510 H   0  0  0  0  0  0  0  0  0  0  0  0  # atno 10765 bound_to 10752
  140.0358  134.5945  155.9446 H   0  0  0  0  0  0  0  0  0  0  0  0  # atno 11005 bound_to 11000
  144.6755  140.0419  143.7480 LP  0  0  0  0  0  0  0  0  0  0  0  0  # atno 17320 bound_to 7965
  145.9760  139.2905  143.1070 LP  0  0  0  0  0  0  0  0  0  0  0  0  # atno 17321 bound_to 7965
  139.8495  144.7171  150.9231 LP  0  0  0  0  0  0  0  0  0  0  0  0  # atno 17342 bound_to 10162
  140.7798  143.3911  151.1308 LP  0  0  0  0  0  0  0  0  0  0  0  0  # atno 17343 bound_to 10162
  155.9663  130.4367  150.5145 LP  0  0  0  0  0  0  0  0  0  0  0  0  # atno 17370 bound_to 10713
  157.3070  131.0656  151.2028 LP  0  0  0  0  0  0  0  0  0  0  0  0  # atno 17371 bound_to 10713
  141.1856  133.6555  156.5206 LP  0  0  0  0  0  0  0  0  0  0  0  0  # atno 17394 bound_to 11000
  140.4150  134.7238  157.4858 LP  0  0  0  0  0  0  0  0  0  0  0  0  # atno 17395 bound_to 11000

$$$$
