AV-unprocessed.smi:1082|AV-procd|sdf|4714|dock5
  -GOLD-   22720 3243D 1   1.00000     0.00000
 Structure written by MMmdl.
 48 50  0  0  0  0  0  0  0  0  4 V2000
  150.5835  140.7187  156.4127 O   0  0  0  0  0  0  0  0  0  0  0  0
  150.0162  141.8146  156.4863 C   0  0  0  0  0  0  0  0  0  0  0  0
  150.3332  142.8651  157.2888 N   0  5  0  0  0  0  0  0  0  0  0  0
  151.6938  143.2243  157.6955 C   0  0  0  0  0  0  0  0  0  0  0  0
  151.6663  143.8901  159.0866 C   0  0  0  0  0  0  0  0  0  0  0  0
  151.9770  142.9412  160.1895 N   0  3  0  0  0  0  0  0  0  0  0  0
  153.0433  141.9607  159.8739 C   0  0  0  0  0  0  0  0  0  0  0  0
  153.8827  141.7832  161.1470 C   0  0  0  0  0  0  0  0  0  0  0  0
  153.0678  142.4526  162.2490 C   0  0  0  0  0  0  0  0  0  0  0  0
  152.3125  143.5445  161.5003 C   0  0  0  0  0  0  0  0  0  0  0  0
  148.9403  142.0689  155.7221 N   0  0  0  0  0  0  0  0  0  0  0  0
  148.2678  141.1827  154.8367 C   0  0  0  0  0  0  0  0  0  0  0  0
  148.9226  140.0324  154.3298 C   0  0  0  0  0  0  0  0  0  0  0  0
  148.2684  139.2066  153.3964 C   0  0  0  0  0  0  0  0  0  0  0  0
  146.9747  139.5547  152.9710 C   0  0  0  0  0  0  0  0  0  0  0  0
  146.3847  140.6644  153.4615 N   0  3  0  0  0  0  0  0  0  0  0  0
  146.9566  141.4911  154.3728 C   0  0  0  0  0  0  0  0  0  0  0  0
  146.2131  142.6128  154.8058 N   0  0  0  0  0  0  0  0  0  0  0  0
  145.5571  142.5747  156.1096 C   0  0  0  0  0  0  0  0  0  0  0  0
  144.2485  143.3574  155.9569 C   0  0  0  0  0  0  0  0  0  0  0  0
  144.4944  144.2407  154.7372 C   0  0  0  0  0  0  0  0  0  0  0  0
  145.3832  143.3572  153.8659 C   0  0  0  0  0  0  0  0  0  0  0  0
  152.3373  142.3456  157.7395 H   0  0  0  0  0  0  0  0  0  0  0  0
  152.1751  143.9073  156.9944 H   0  0  0  0  0  0  0  0  0  0  0  0
  152.4063  144.6922  159.0903 H   0  0  0  0  0  0  0  0  0  0  0  0
  150.7020  144.3670  159.2656 H   0  0  0  0  0  0  0  0  0  0  0  0
  152.5794  141.0227  159.5676 H   0  0  0  0  0  0  0  0  0  0  0  0
  153.6770  142.3008  159.0534 H   0  0  0  0  0  0  0  0  0  0  0  0
  154.0993  140.7370  161.3650 H   0  0  0  0  0  0  0  0  0  0  0  0
  154.8356  142.3011  161.0313 H   0  0  0  0  0  0  0  0  0  0  0  0
  152.3615  141.7387  162.6750 H   0  0  0  0  0  0  0  0  0  0  0  0
  153.6855  142.8419  163.0588 H   0  0  0  0  0  0  0  0  0  0  0  0
  152.9634  144.4085  161.3568 H   0  0  0  0  0  0  0  0  0  0  0  0
  151.4231  143.8749  162.0384 H   0  0  0  0  0  0  0  0  0  0  0  0
  148.4713  142.9429  155.9097 H   0  0  0  0  0  0  0  0  0  0  0  0
  149.9295  139.7854  154.6324 H   0  0  0  0  0  0  0  0  0  0  0  0
  148.7580  138.3271  153.0049 H   0  0  0  0  0  0  0  0  0  0  0  0
  146.3990  138.9866  152.2547 H   0  0  0  0  0  0  0  0  0  0  0  0
  145.3713  141.5541  156.4479 H   0  0  0  0  0  0  0  0  0  0  0  0
  146.2008  143.0633  156.8418 H   0  0  0  0  0  0  0  0  0  0  0  0
  143.4303  142.6665  155.7485 H   0  0  0  0  0  0  0  0  0  0  0  0
  143.9884  143.9257  156.8505 H   0  0  0  0  0  0  0  0  0  0  0  0
  143.5752  144.5460  154.2365 H   0  0  0  0  0  0  0  0  0  0  0  0
  145.0363  145.1403  155.0332 H   0  0  0  0  0  0  0  0  0  0  0  0
  145.9897  143.9465  153.1774 H   0  0  0  0  0  0  0  0  0  0  0  0
  144.7631  142.6747  153.2831 H   0  0  0  0  0  0  0  0  0  0  0  0
  151.1382  142.3956  160.3315 H   0  0  0  0  0  0  0  0  0  0  0  0
  145.4463  140.8913  153.1325 H   0  0  0  0  0  0  0  0  0  0  0  0
  1  2  2  0  0  0  0
  2  3  1  0  0  0  0
  2 11  1  0  0  0  0
  3  4  1  0  0  0  0
  4  5  1  0  0  0  0
  4 23  1  0  0  0  0
  4 24  1  0  0  0  0
  5  6  1  0  0  0  0
  5 25  1  0  0  0  0
  5 26  1  0  0  0  0
  6 10  1  0  0  0  0
  6  7  1  0  0  0  0
  6 47  1  0  0  0  0
  7  8  1  0  0  0  0
  7 27  1  0  0  0  0
  7 28  1  0  0  0  0
  8  9  1  0  0  0  0
  8 29  1  0  0  0  0
  8 30  1  0  0  0  0
  9 10  1  0  0  0  0
  9 31  1  0  0  0  0
  9 32  1  0  0  0  0
 10 33  1  0  0  0  0
 10 34  1  0  0  0  0
 11 12  1  0  0  0  0
 11 35  1  0  0  0  0
 12 17  1  0  0  0  0
 12 13  2  0  0  0  0
 13 14  1  0  0  0  0
 13 36  1  0  0  0  0
 14 15  2  0  0  0  0
 14 37  1  0  0  0  0
 15 16  1  0  0  0  0
 15 38  1  0  0  0  0
 16 17  2  0  0  0  0
 16 48  1  0  0  0  0
 17 18  1  0  0  0  0
 18 22  1  0  0  0  0
 18 19  1  0  0  0  0
 19 20  1  0  0  0  0
 19 39  1  0  0  0  0
 19 40  1  0  0  0  0
 20 21  1  0  0  0  0
 20 41  1  0  0  0  0
 20 42  1  0  0  0  0
 21 22  1  0  0  0  0
 21 43  1  0  0  0  0
 21 44  1  0  0  0  0
 22 45  1  0  0  0  0
 22 46  1  0  0  0  0
M  CHG  1   3  -1
M  CHG  1   6   1
M  CHG  1  16   1
M  END
> <s_m_source_file>
AV-unprocessed.smi

> <i_m_source_file_index>
1082

> <i_lp_mmshare_version>
43012

> <i_f3d_flags>
0

> <s_epik_input>
W0NIMl0xW0NIMl1bQ0gyXVtDSDJdTjFbQ0gyXVtDSDJdW05IXUMoPU8pW05IXWMyW2NIXVtjSF1bY0hdbmMyTjNbQ0gyXVtDSDJdW0NIMl1bQ0gyXTM=

> <s_epik_cmdline>
J2VwaWtfcHl0aG9uJywgJy1waCcsICc3LjAnLCAnLXRuJywgJzgnLCAnLW1hJywgJzIwMCcsICctbWV0YWxfYmluZGluZycsICctaW1hZScsICc8aW5maWxlLm1hZT4nLCAnLW9tYWUnLCAnPG91dGZpbGUubWFlPic=

> <r_lp_tautomer_probability>
0.999994

> <r_epik_Ionization_Penalty>
8.55934

> <r_epik_Ionization_Penalty_Charging>
8.55934

> <r_epik_Ionization_Penalty_Neutral>
3.77642e-06

> <r_epik_State_Penalty>
8.06887

> <r_epik_Charging_Adjusted_Penalty>
16.6282

> <i_epik_Tot_Q>
1

> <i_epik_Tot_abs_Q>
3

> <r_epik_Metal_State_Penalty>
4.05607

> <b_epik_Metal_Only>
1

> <s_lp_Force_Field>
OPLS_2005

> <r_lp_Energy>
53.4939

> <b_lp_Chiralities_Consistent>
1

> <s_lp_Variant>
AV-unprocessed.smi:1082-3

> <Gold.Version>
5.8.1

> <Gold.Id.Protein>
6NUR|6NUR_protein|mol2

> <Gold.PLP.Fitness>
52.5183

> <Gold.PLP.PLP>
-46.2026

> <Gold.PLP.part.hbond>
-2.0000

> <Gold.PLP.part.metal>
0.0000

> <Gold.PLP.part.buried>
-6.5969

> <Gold.PLP.part.nonpolar>
-40.8093

> <Gold.PLP.part.repulsive>
2.3710

> <Gold.PLP.ligand.clash>
0.0000

> <Gold.PLP.ligand.torsion>
1.4541

> <Gold.PLP.Chemscore.Hbond>
2.8640

> <Gold.PLP.Chemscore.CHOScore>
0.0000

> <Gold.PLP.Chemscore.Metal>
0.0000

> <Gold.Chemscore.Hbonds>
donor molecule, donor type, donor heavy atom, donor atom, acceptor molecule, acceptor atom, score
      L1  H    11    35       P1  8028  0.72
      L1  H    16    48       P1 10175  2.00

> <Gold.PLP.Chemscore.Internal.Correction>
0.6320

> <Gold.Rescore>
     Score         DG    S(hbond)    S(metal)    S(lipo)     H(rot)  DE(clash)    DE(int)     intcor
     17.08     -20.20       1.78        0.00     109.99       1.60       0.24       2.88       ----

> <Gold.Chemscore.Fitness>
17.0764

> <Gold.Chemscore.DG>
-20.2015

> <Gold.Chemscore.ZeroCoef>
-5.4800

> <Gold.Chemscore.Hbond>
1.7809

> <Gold.Chemscore.Metal>
0.0000

> <Gold.Chemscore.Lipo>
109.9897

> <Gold.Chemscore.Internal_Hbond>
0.0000

> <Gold.Chemscore.DEClash>
0.2412

> <Gold.Chemscore.DEInternal>
2.8839

> <Gold.Chemscore.Rot>
1.5998

> <Gold.Chemscore.Internal.Correction>
   9.000000E+99

> <Gold.Chemscore.Hbonds>
donor molecule, donor type, donor heavy atom, donor atom, acceptor molecule, acceptor atom, score
      L1  H    11    35       P1  8028  0.70
      L1  H    16    48       P1 10175  0.54

> <Gold.Chemscore.Hbond.Weighted>
-5.9483

> <Gold.Chemscore.Metal.Weighted>
-0.0000

> <Gold.Chemscore.Lipo.Weighted>
-12.8688

> <Gold.Chemscore.Internal_Hbond.Weighted>
0.0000

> <Gold.Chemscore.DEClash.Weighted>
0.2412

> <Gold.Chemscore.DEInternal.Weighted>
2.8839

> <Gold.Chemscore.Rot.Weighted>
4.0956

> <Gold.Chemscore.Internal.Correction.Weighted>
   9.000000E+99

> <Gold.Protein.RotatedTorsions>
[ 6907 6896 6895 6894 ] final  177.86 input  -60.11 | X-H torsion
[ 7974 7965 7964 7962 ] final  147.52 input  175.53 | X-H torsion
[ 8008 7997 7996 7995 ] final   -4.50 input   59.86 | X-H torsion
[ 10167 10162 10161 10158 ] final -131.07 input  -65.29 | X-H torsion
[ 10718 10713 10712 10709 ] final   79.76 input   66.30 | X-H torsion
[ 10763 10752 10751 10750 ] final   47.95 input  -60.55 | X-H torsion
[ 11005 11000 10999 10996 ] final -161.04 input  -57.11 | X-H torsion

> <Gold.Protein.ActiveResidues>
 VAL166  LYS551  ARG553  GLY616  TRP617  ASP618  TYR619  PRO620  LYS621  CYS622 
 ASP623  PHE694  ASN695  SER759  ASP760  ASP761  ALA762  ILE779  LEU786  VAL792 
 PHE793  MET794  SER795  GLU796  ALA797  LYS798  CYS799  TRP800  GLU811  SER814 

> <Gold.Protein.RotatedAtoms>
  151.6972  133.3311  159.3257 H   0  0  0  0  0  0  0  0  0  0  0  0  # atno 6907 bound_to 6896
  150.7752  134.6647  159.6368 H   0  0  0  0  0  0  0  0  0  0  0  0  # atno 6908 bound_to 6896
  152.3791  134.6620  160.0201 H   0  0  0  0  0  0  0  0  0  0  0  0  # atno 6909 bound_to 6896
  144.8585  139.6040  143.5941 H   0  0  0  0  0  0  0  0  0  0  0  0  # atno 7974 bound_to 7965
  154.6137  140.2482  155.7636 H   0  0  0  0  0  0  0  0  0  0  0  0  # atno 8008 bound_to 7997
  156.2386  140.2941  156.0330 H   0  0  0  0  0  0  0  0  0  0  0  0  # atno 8009 bound_to 7997
  155.2010  140.0394  157.2908 H   0  0  0  0  0  0  0  0  0  0  0  0  # atno 8010 bound_to 7997
  139.9227  143.6364  152.2549 H   0  0  0  0  0  0  0  0  0  0  0  0  # atno 10167 bound_to 10162
  157.6786  130.9929  150.1980 H   0  0  0  0  0  0  0  0  0  0  0  0  # atno 10718 bound_to 10713
  152.9795  135.5960  154.3846 H   0  0  0  0  0  0  0  0  0  0  0  0  # atno 10763 bound_to 10752
  154.3508  135.2767  155.2375 H   0  0  0  0  0  0  0  0  0  0  0  0  # atno 10764 bound_to 10752
  154.4415  135.6012  153.6187 H   0  0  0  0  0  0  0  0  0  0  0  0  # atno 10765 bound_to 10752
  140.6248  134.4712  157.5226 H   0  0  0  0  0  0  0  0  0  0  0  0  # atno 11005 bound_to 11000
  146.2842  139.6958  142.9207 LP  0  0  0  0  0  0  0  0  0  0  0  0  # atno 17320 bound_to 7965
  145.4359  141.0419  143.2884 LP  0  0  0  0  0  0  0  0  0  0  0  0  # atno 17321 bound_to 7965
  139.6848  144.7652  151.1543 LP  0  0  0  0  0  0  0  0  0  0  0  0  # atno 17342 bound_to 10162
  140.7658  143.5673  150.9034 LP  0  0  0  0  0  0  0  0  0  0  0  0  # atno 17343 bound_to 10162
  156.2677  130.3718  149.8064 LP  0  0  0  0  0  0  0  0  0  0  0  0  # atno 17370 bound_to 10713
  156.5790  130.8457  151.3378 LP  0  0  0  0  0  0  0  0  0  0  0  0  # atno 17371 bound_to 10713
  139.9139  134.8287  156.1433 LP  0  0  0  0  0  0  0  0  0  0  0  0  # atno 17394 bound_to 11000
  141.0717  133.6794  156.2153 LP  0  0  0  0  0  0  0  0  0  0  0  0  # atno 17395 bound_to 11000

$$$$
