AV-unprocessed.smi:1475|AV-procd|sdf|5978|dock9
  -GOLD-   22720 6 73D 1   1.00000     0.00000
 Structure written by MMmdl.
 50 51  0  0  0  0  0  0  0  0  2 V2000
  152.5521  138.2938  154.9836 C   0  0  0  0  0  0  0  0  0  0  0  0
  151.4842  139.2713  155.3767 C   0  0  0  0  0  0  0  0  0  0  0  0
  151.0252  139.5959  156.6839 C   0  0  0  0  0  0  0  0  0  0  0  0
  150.0511  140.5315  156.4771 C   0  0  0  0  0  0  0  0  0  0  0  0
  149.1913  141.2578  157.4590 C   0  0  0  0  0  0  0  0  0  0  0  0
  149.9666  140.7277  155.1099 N   0  0  0  0  0  0  0  0  0  0  0  0
  149.0995  141.6246  154.3626 C   0  0  0  0  0  0  0  0  0  0  0  0
  147.7415  140.9754  154.0929 C   0  0  0  0  0  0  0  0  0  0  0  0
  146.8347  141.0739  154.9194 O   0  0  0  0  0  0  0  0  0  0  0  0
  147.6124  140.3170  152.9305 N   0  0  0  0  0  0  0  0  0  0  0  0
  146.3949  139.6610  152.4695 C   0  0  0  0  0  0  0  0  0  0  0  0
  146.6717  138.2302  151.9652 C   0  0  0  0  0  0  0  0  0  0  0  0
  145.4945  137.3367  152.1070 N   0  3  1  0  0  0  0  0  0  0  0  0
  145.6783  136.0520  151.3831 C   0  0  0  0  0  0  0  0  0  0  0  0
  144.3901  135.2062  151.3953 C   0  0  1  0  0  0  0  0  0  0  0  0
  144.5860  133.8752  150.6553 C   0  0  0  0  0  0  0  0  0  0  0  0
  143.9154  134.9756  152.8413 C   0  0  0  0  0  0  0  0  0  0  0  0
  143.7855  136.2994  153.6167 C   0  0  2  0  0  0  0  0  0  0  0  0
  142.5567  137.1240  153.1939 C   0  0  0  0  0  0  0  0  0  0  0  0
  145.0930  137.1103  153.5217 C   0  0  0  0  0  0  0  0  0  0  0  0
  150.8477  139.9535  154.4386 N   0  0  0  0  0  0  0  0  0  0  0  0
  152.9631  137.7871  155.8569 H   0  0  0  0  0  0  0  0  0  0  0  0
  153.3746  138.7950  154.4731 H   0  0  0  0  0  0  0  0  0  0  0  0
  152.1579  137.5302  154.3128 H   0  0  0  0  0  0  0  0  0  0  0  0
  151.3605  139.2007  157.6313 H   0  0  0  0  0  0  0  0  0  0  0  0
  149.4491  140.9812  158.4813 H   0  0  0  0  0  0  0  0  0  0  0  0
  148.1388  141.0204  157.3037 H   0  0  0  0  0  0  0  0  0  0  0  0
  149.3153  142.3364  157.3639 H   0  0  0  0  0  0  0  0  0  0  0  0
  148.9727  142.5543  154.9202 H   0  0  0  0  0  0  0  0  0  0  0  0
  149.5800  141.8868  153.4197 H   0  0  0  0  0  0  0  0  0  0  0  0
  148.4085  140.2971  152.3087 H   0  0  0  0  0  0  0  0  0  0  0  0
  145.6668  139.6690  153.2808 H   0  0  0  0  0  0  0  0  0  0  0  0
  145.9710  140.2629  151.6654 H   0  0  0  0  0  0  0  0  0  0  0  0
  146.9484  138.2942  150.9117 H   0  0  0  0  0  0  0  0  0  0  0  0
  147.5251  137.7867  152.4805 H   0  0  0  0  0  0  0  0  0  0  0  0
  145.9613  136.2538  150.3490 H   0  0  0  0  0  0  0  0  0  0  0  0
  146.5033  135.4972  151.8338 H   0  0  0  0  0  0  0  0  0  0  0  0
  143.6164  135.7602  150.8624 H   0  0  0  0  0  0  0  0  0  0  0  0
  145.3542  133.2651  151.1318 H   0  0  0  0  0  0  0  0  0  0  0  0
  144.8867  134.0400  149.6204 H   0  0  0  0  0  0  0  0  0  0  0  0
  143.6629  133.2950  150.6410 H   0  0  0  0  0  0  0  0  0  0  0  0
  142.9657  134.4392  152.8495 H   0  0  0  0  0  0  0  0  0  0  0  0
  144.6316  134.3329  153.3557 H   0  0  0  0  0  0  0  0  0  0  0  0
  143.6353  136.0446  154.6666 H   0  0  0  0  0  0  0  0  0  0  0  0
  142.6256  137.4608  152.1596 H   0  0  0  0  0  0  0  0  0  0  0  0
  142.4474  138.0099  153.8201 H   0  0  0  0  0  0  0  0  0  0  0  0
  141.6408  136.5404  153.2918 H   0  0  0  0  0  0  0  0  0  0  0  0
  145.8947  136.5799  154.0383 H   0  0  0  0  0  0  0  0  0  0  0  0
  144.9631  138.0560  154.0461 H   0  0  0  0  0  0  0  0  0  0  0  0
  144.7240  137.8073  151.6544 H   0  0  0  0  0  0  0  0  0  0  0  0
  1  2  1  0  0  0  0
  1 22  1  0  0  0  0
  1 23  1  0  0  0  0
  1 24  1  0  0  0  0
  2 21  2  0  0  0  0
  2  3  1  0  0  0  0
  3  4  2  0  0  0  0
  3 25  1  0  0  0  0
  4  5  1  0  0  0  0
  4  6  1  0  0  0  0
  5 26  1  0  0  0  0
  5 27  1  0  0  0  0
  5 28  1  0  0  0  0
  6  7  1  0  0  0  0
  6 21  1  0  0  0  0
  7  8  1  0  0  0  0
  7 29  1  0  0  0  0
  7 30  1  0  0  0  0
  8  9  2  0  0  0  0
  8 10  1  0  0  0  0
 10 11  1  0  0  0  0
 10 31  1  0  0  0  0
 11 12  1  0  0  0  0
 11 32  1  0  0  0  0
 11 33  1  0  0  0  0
 12 13  1  0  0  0  0
 12 34  1  0  0  0  0
 12 35  1  0  0  0  0
 13 20  1  0  0  0  0
 13 14  1  0  0  0  0
 13 50  1  0  0  0  0
 14 15  1  0  0  0  0
 14 36  1  0  0  0  0
 14 37  1  0  0  0  0
 15 16  1  0  0  0  0
 15 17  1  0  0  0  0
 15 38  1  0  0  0  0
 16 39  1  0  0  0  0
 16 40  1  0  0  0  0
 16 41  1  0  0  0  0
 17 18  1  0  0  0  0
 17 42  1  0  0  0  0
 17 43  1  0  0  0  0
 18 19  1  0  0  0  0
 18 20  1  0  0  0  0
 18 44  1  0  0  0  0
 19 45  1  0  0  0  0
 19 46  1  0  0  0  0
 19 47  1  0  0  0  0
 20 48  1  0  0  0  0
 20 49  1  0  0  0  0
M  CHG  1  13   1
M  END
> <s_m_source_file>
AV-unprocessed.smi

> <i_m_source_file_index>
1475

> <i_lp_mmshare_version>
43012

> <i_f3d_flags>
0

> <s_epik_input>
W0NIM11jMVtjSF1jKFtDSDNdKW4objEpW0NIMl1DKD1PKVtOSF1bQ0gyXVtDSDJdTjJbQ0gyXVtDQEBIXShbQ0gzXSlbQ0gyXVtDQEBIXShbQ0gzXSlbQ0gyXTI=

> <s_epik_cmdline>
J2VwaWtfcHl0aG9uJywgJy1waCcsICc3LjAnLCAnLXRuJywgJzgnLCAnLW1hJywgJzIwMCcsICctbWV0YWxfYmluZGluZycsICctaW1hZScsICc8aW5maWxlLm1hZT4nLCAnLW9tYWUnLCAnPG91dGZpbGUubWFlPic=

> <r_lp_tautomer_probability>
1

> <r_epik_Ionization_Penalty>
0.00206431

> <r_epik_Ionization_Penalty_Charging>
0.00187095

> <r_epik_Ionization_Penalty_Neutral>
0.000193364

> <r_epik_State_Penalty>
-0

> <r_epik_Charging_Adjusted_Penalty>
0.00187095

> <i_epik_Tot_Q>
1

> <i_epik_Tot_abs_Q>
1

> <r_epik_Metal_State_Penalty>
-0

> <b_epik_Metal_Only>
0

> <s_lp_Force_Field>
OPLS_2005

> <r_lp_Energy>
16.2356

> <b_lp_Chiralities_Consistent>
1

> <s_lp_Variant>
AV-unprocessed.smi:1475-3

> <Gold.Version>
5.8.1

> <Gold.Id.Protein>
6NUR|6NUR_protein|mol2

> <Gold.PLP.Fitness>
44.4896

> <Gold.PLP.PLP>
-37.4771

> <Gold.PLP.part.hbond>
-2.9541

> <Gold.PLP.part.metal>
0.0000

> <Gold.PLP.part.buried>
-0.3916

> <Gold.PLP.part.nonpolar>
-36.6279

> <Gold.PLP.part.repulsive>
0.3375

> <Gold.PLP.ligand.clash>
0.0000

> <Gold.PLP.ligand.torsion>
0.9823

> <Gold.PLP.Chemscore.Hbond>
2.9833

> <Gold.PLP.Chemscore.CHOScore>
0.0000

> <Gold.PLP.Chemscore.Metal>
0.0000

> <Gold.Chemscore.Hbonds>
donor molecule, donor type, donor heavy atom, donor atom, acceptor molecule, acceptor atom, score
      L1  H    10    31       P1  7957  1.00
      L1  H    13    50       P1 10171  0.61
      P1  H  7989  7998       L1    21  0.99

> <Gold.PLP.Chemscore.Internal.Correction>
0.0273

> <Gold.Rescore>
     Score         DG    S(hbond)    S(metal)    S(lipo)     H(rot)  DE(clash)    DE(int)     intcor
     18.77     -21.09       2.89        0.00      86.85       1.64       1.36       0.97       ----

> <Gold.Chemscore.Fitness>
18.7685

> <Gold.Chemscore.DG>
-21.0906

> <Gold.Chemscore.ZeroCoef>
-5.4800

> <Gold.Chemscore.Hbond>
2.8884

> <Gold.Chemscore.Metal>
0.0000

> <Gold.Chemscore.Lipo>
86.8513

> <Gold.Chemscore.Internal_Hbond>
0.0000

> <Gold.Chemscore.DEClash>
1.3561

> <Gold.Chemscore.DEInternal>
0.9661

> <Gold.Chemscore.Rot>
1.6399

> <Gold.Chemscore.Internal.Correction>
   9.000000E+99

> <Gold.Chemscore.Hbonds>
donor molecule, donor type, donor heavy atom, donor atom, acceptor molecule, acceptor atom, score
      L1  H    10    31       P1  7957  1.00
      L1  H    13    50       P1 10171  0.60
      P1  H  7989  7998       L1    21  0.54

> <Gold.Chemscore.Hbond.Weighted>
-9.6472

> <Gold.Chemscore.Metal.Weighted>
-0.0000

> <Gold.Chemscore.Lipo.Weighted>
-10.1616

> <Gold.Chemscore.Internal_Hbond.Weighted>
0.0000

> <Gold.Chemscore.DEClash.Weighted>
1.3561

> <Gold.Chemscore.DEInternal.Weighted>
0.9661

> <Gold.Chemscore.Rot.Weighted>
4.1982

> <Gold.Chemscore.Internal.Correction.Weighted>
   9.000000E+99

> <Gold.Protein.RotatedTorsions>
[ 6907 6896 6895 6894 ] final  -29.18 input  -60.11 | X-H torsion
[ 7974 7965 7964 7962 ] final   14.63 input  175.53 | X-H torsion
[ 8008 7997 7996 7995 ] final  123.72 input   59.86 | X-H torsion
[ 10167 10162 10161 10158 ] final  -51.11 input  -65.29 | X-H torsion
[ 10718 10713 10712 10709 ] final  165.80 input   66.30 | X-H torsion
[ 10763 10752 10751 10750 ] final  -39.95 input  -60.55 | X-H torsion
[ 11005 11000 10999 10996 ] final  134.84 input  -57.11 | X-H torsion

> <Gold.Protein.ActiveResidues>
 VAL166  LYS551  ARG553  GLY616  TRP617  ASP618  TYR619  PRO620  LYS621  CYS622 
 ASP623  PHE694  ASN695  SER759  ASP760  ASP761  ALA762  ILE779  LEU786  VAL792 
 PHE793  MET794  SER795  GLU796  ALA797  LYS798  CYS799  TRP800  GLU811  SER814 

> <Gold.Protein.RotatedAtoms>
  151.1227  135.0088  159.8545 H   0  0  0  0  0  0  0  0  0  0  0  0  # atno 6907 bound_to 6896
  152.5448  134.1703  159.8604 H   0  0  0  0  0  0  0  0  0  0  0  0  # atno 6908 bound_to 6896
  151.1763  133.4708  159.2627 H   0  0  0  0  0  0  0  0  0  0  0  0  # atno 6909 bound_to 6896
  146.2300  139.9012  142.8539 H   0  0  0  0  0  0  0  0  0  0  0  0  # atno 7974 bound_to 7965
  156.2776  140.2756  156.1673 H   0  0  0  0  0  0  0  0  0  0  0  0  # atno 8008 bound_to 7997
  155.0691  140.0387  157.2620 H   0  0  0  0  0  0  0  0  0  0  0  0  # atno 8009 bound_to 7997
  154.7054  140.2658  155.6685 H   0  0  0  0  0  0  0  0  0  0  0  0  # atno 8010 bound_to 7997
  140.6605  143.2632  151.4456 H   0  0  0  0  0  0  0  0  0  0  0  0  # atno 10167 bound_to 10162
  157.0750  131.0376  151.2597 H   0  0  0  0  0  0  0  0  0  0  0  0  # atno 10718 bound_to 10713
  153.9379  135.6764  153.4744 H   0  0  0  0  0  0  0  0  0  0  0  0  # atno 10763 bound_to 10752
  153.0946  135.4857  154.8752 H   0  0  0  0  0  0  0  0  0  0  0  0  # atno 10764 bound_to 10752
  154.7393  135.3157  154.8715 H   0  0  0  0  0  0  0  0  0  0  0  0  # atno 10765 bound_to 10752
  139.9941  134.9504  156.9923 H   0  0  0  0  0  0  0  0  0  0  0  0  # atno 11005 bound_to 11000
  145.2321  140.9977  143.3985 LP  0  0  0  0  0  0  0  0  0  0  0  0  # atno 17320 bound_to 7965
  144.9522  139.4071  143.6397 LP  0  0  0  0  0  0  0  0  0  0  0  0  # atno 17321 bound_to 7965
  139.5837  144.1652  152.2002 LP  0  0  0  0  0  0  0  0  0  0  0  0  # atno 17342 bound_to 10162
  140.0985  144.5560  150.7005 LP  0  0  0  0  0  0  0  0  0  0  0  0  # atno 17343 bound_to 10162
  157.4847  130.7786  149.7448 LP  0  0  0  0  0  0  0  0  0  0  0  0  # atno 17370 bound_to 10713
  155.9939  130.3921  150.2879 LP  0  0  0  0  0  0  0  0  0  0  0  0  # atno 17371 bound_to 10713
  140.4852  134.1249  155.7223 LP  0  0  0  0  0  0  0  0  0  0  0  0  # atno 17394 bound_to 11000
  141.1590  133.8829  157.1900 LP  0  0  0  0  0  0  0  0  0  0  0  0  # atno 17395 bound_to 11000

$$$$
