AV-unprocessed.smi:1824|AV-procd|sdf|7397|dock6
  -GOLD-   22720 9 63D 1   1.00000     0.00000
 Structure written by MMmdl.
 44 46  0  0  0  0  0  0  0  0  1 V2000
  153.6493  137.7315  157.3436 C   0  0  0  0  0  0  0  0  0  0  0  0
  152.2734  138.0139  156.7311 C   0  0  1  0  0  0  0  0  0  0  0  0
  152.0423  139.5172  156.4944 C   0  0  0  0  0  0  0  0  0  0  0  0
  150.7686  139.7762  155.8350 N   0  0  0  0  0  0  0  0  0  0  0  0
  150.5477  141.2120  155.6619 C   0  0  0  0  0  0  0  0  0  0  0  0
  150.3356  142.0059  156.9688 C   0  0  2  0  0  0  0  0  0  0  0  0
  149.0210  142.5306  156.9856 O   0  0  0  0  0  0  0  0  0  0  0  0
  151.3324  143.1743  157.1018 C   0  0  0  0  0  0  0  0  0  0  0  0
  151.3586  143.7335  158.4419 N   0  0  0  0  0  0  0  0  0  0  0  0
  150.7482  144.8560  158.8687 C   0  0  0  0  0  0  0  0  0  0  0  0
  150.9064  145.1871  160.1472 N   0  0  0  0  0  0  0  0  0  0  0  0
  151.7141  144.1599  160.6041 C   0  0  0  0  0  0  0  0  0  0  0  0
  152.2497  143.9164  161.8889 C   0  0  0  0  0  0  0  0  0  0  0  0
  153.0609  142.7863  162.1230 C   0  0  0  0  0  0  0  0  0  0  0  0
  153.5666  142.5681  163.3602 F   0  0  0  0  0  0  0  0  0  0  0  0
  153.3477  141.8837  161.0771 C   0  0  0  0  0  0  0  0  0  0  0  0
  154.1272  140.8011  161.3102 F   0  0  0  0  0  0  0  0  0  0  0  0
  152.8247  142.1053  159.7887 C   0  0  0  0  0  0  0  0  0  0  0  0
  152.0165  143.2342  159.5604 C   0  0  0  0  0  0  0  0  0  0  0  0
  150.7315  139.0456  154.5703 C   0  0  0  0  0  0  0  0  0  0  0  0
  150.9902  137.5358  154.7462 C   0  0  2  0  0  0  0  0  0  0  0  0
  149.7981  136.7831  155.3613 C   0  0  0  0  0  0  0  0  0  0  0  0
  152.1928  137.3209  155.4868 O   0  0  0  0  0  0  0  0  0  0  0  0
  153.7606  138.2303  158.3065 H   0  0  0  0  0  0  0  0  0  0  0  0
  154.4507  138.0800  156.6914 H   0  0  0  0  0  0  0  0  0  0  0  0
  153.7919  136.6626  157.5045 H   0  0  0  0  0  0  0  0  0  0  0  0
  151.5112  137.6303  157.4098 H   0  0  0  0  0  0  0  0  0  0  0  0
  152.0752  140.0385  157.4518 H   0  0  0  0  0  0  0  0  0  0  0  0
  152.8576  139.9216  155.8921 H   0  0  0  0  0  0  0  0  0  0  0  0
  151.4338  141.6205  155.1741 H   0  0  0  0  0  0  0  0  0  0  0  0
  149.7276  141.3930  154.9652 H   0  0  0  0  0  0  0  0  0  0  0  0
  150.4580  141.3432  157.8268 H   0  0  0  0  0  0  0  0  0  0  0  0
  149.0625  143.4528  156.7843 H   0  0  0  0  0  0  0  0  0  0  0  0
  152.3413  142.8385  156.8585 H   0  0  0  0  0  0  0  0  0  0  0  0
  151.0888  143.9683  156.3941 H   0  0  0  0  0  0  0  0  0  0  0  0
  150.1513  145.4635  158.2038 H   0  0  0  0  0  0  0  0  0  0  0  0
  152.0363  144.6001  162.6970 H   0  0  0  0  0  0  0  0  0  0  0  0
  153.0408  141.4153  158.9866 H   0  0  0  0  0  0  0  0  0  0  0  0
  149.7688  139.1830  154.0787 H   0  0  0  0  0  0  0  0  0  0  0  0
  151.4834  139.4559  153.8943 H   0  0  0  0  0  0  0  0  0  0  0  0
  151.1596  137.1081  153.7577 H   0  0  0  0  0  0  0  0  0  0  0  0
  148.9172  136.8670  154.7246 H   0  0  0  0  0  0  0  0  0  0  0  0
  149.5282  137.1738  156.3421 H   0  0  0  0  0  0  0  0  0  0  0  0
  150.0242  135.7227  155.4741 H   0  0  0  0  0  0  0  0  0  0  0  0
  1  2  1  0  0  0  0
  1 24  1  0  0  0  0
  1 25  1  0  0  0  0
  1 26  1  0  0  0  0
  2 23  1  0  0  0  0
  2  3  1  0  0  0  0
  2 27  1  0  0  0  0
  3  4  1  0  0  0  0
  3 28  1  0  0  0  0
  3 29  1  0  0  0  0
  4  5  1  0  0  0  0
  4 20  1  0  0  0  0
  5  6  1  0  0  0  0
  5 30  1  0  0  0  0
  5 31  1  0  0  0  0
  6  7  1  0  0  0  0
  6  8  1  0  0  0  0
  6 32  1  0  0  0  0
  7 33  1  0  0  0  0
  8  9  1  0  0  0  0
  8 34  1  0  0  0  0
  8 35  1  0  0  0  0
  9 19  1  0  0  0  0
  9 10  1  0  0  0  0
 10 11  2  0  0  0  0
 10 36  1  0  0  0  0
 11 12  1  0  0  0  0
 12 19  2  0  0  0  0
 12 13  1  0  0  0  0
 13 14  2  0  0  0  0
 13 37  1  0  0  0  0
 14 15  1  0  0  0  0
 14 16  1  0  0  0  0
 16 17  1  0  0  0  0
 16 18  2  0  0  0  0
 18 19  1  0  0  0  0
 18 38  1  0  0  0  0
 20 21  1  0  0  0  0
 20 39  1  0  0  0  0
 20 40  1  0  0  0  0
 21 22  1  0  0  0  0
 21 23  1  0  0  0  0
 21 41  1  0  0  0  0
 22 42  1  0  0  0  0
 22 43  1  0  0  0  0
 22 44  1  0  0  0  0
M  END
> <s_m_source_file>
AV-unprocessed.smi

> <i_m_source_file_index>
1824

> <i_lp_mmshare_version>
43012

> <i_f3d_flags>
0

> <s_epik_input>
W0NIM11bQ0BASF0xW0NIMl1OKFtDSDJdW0NASF0oTzEpW0NIM10pW0NIMl1bQ0BIXShbT0hdKVtDSDJdbihbY0hdbjIpYyhjMjMpW2NIXWMoRiljKEYpW2NIXTM=

> <s_epik_cmdline>
J2VwaWtfcHl0aG9uJywgJy1waCcsICc3LjAnLCAnLXRuJywgJzgnLCAnLW1hJywgJzIwMCcsICctbWV0YWxfYmluZGluZycsICctaW1hZScsICc8aW5maWxlLm1hZT4nLCAnLW9tYWUnLCAnPG91dGZpbGUubWFlPic=

> <r_epik_Ionization_Penalty>
0.273778

> <r_epik_Ionization_Penalty_Charging>
0

> <r_epik_Ionization_Penalty_Neutral>
0.273778

> <r_epik_State_Penalty>
0.246794

> <r_epik_Charging_Adjusted_Penalty>
0.246794

> <i_epik_Tot_Q>
0

> <i_epik_Tot_abs_Q>
0

> <r_epik_Metal_State_Penalty>
0.238234

> <b_epik_Metal_Only>
0

> <s_lp_Force_Field>
OPLS_2005

> <r_lp_Energy>
30.6075

> <b_lp_Chiralities_Consistent>
1

> <s_lp_Variant>
AV-unprocessed.smi:1824-5

> <Gold.Version>
5.8.1

> <Gold.Id.Protein>
6NUR|6NUR_protein|mol2

> <Gold.PLP.Fitness>
61.5166

> <Gold.PLP.PLP>
-55.3558

> <Gold.PLP.part.hbond>
-2.0000

> <Gold.PLP.part.metal>
0.0000

> <Gold.PLP.part.buried>
-5.8813

> <Gold.PLP.part.nonpolar>
-47.6210

> <Gold.PLP.part.repulsive>
0.2279

> <Gold.PLP.ligand.clash>
0.0000

> <Gold.PLP.ligand.torsion>
1.1340

> <Gold.PLP.Chemscore.Hbond>
1.7840

> <Gold.PLP.Chemscore.CHOScore>
1.0155

> <Gold.PLP.Chemscore.Metal>
0.0000

> <Gold.Chemscore.Hbonds>
donor molecule, donor type, donor heavy atom, donor atom, acceptor molecule, acceptor atom, score
      L1  H     7    33       P1  8028  1.00
      P1  H 10752 10763       L1    23  0.75
      L1  C    10    36       P1  8028  0.01
      L1  C    10    36       P1  8029  1.00

> <Gold.PLP.Chemscore.Internal.Correction>
0.0303

> <Gold.Rescore>
     Score         DG    S(hbond)    S(metal)    S(lipo)     H(rot)  DE(clash)    DE(int)     intcor
     19.21     -20.47       1.81        0.00     126.05       2.26       0.03       1.23       ----

> <Gold.Chemscore.Fitness>
19.2057

> <Gold.Chemscore.DG>
-20.4710

> <Gold.Chemscore.ZeroCoef>
-5.4800

> <Gold.Chemscore.Hbond>
1.8064

> <Gold.Chemscore.Metal>
0.0000

> <Gold.Chemscore.Lipo>
126.0524

> <Gold.Chemscore.Internal_Hbond>
0.0000

> <Gold.Chemscore.DEClash>
0.0314

> <Gold.Chemscore.DEInternal>
1.2340

> <Gold.Chemscore.Rot>
2.2619

> <Gold.Chemscore.Internal.Correction>
   9.000000E+99

> <Gold.Chemscore.Hbonds>
donor molecule, donor type, donor heavy atom, donor atom, acceptor molecule, acceptor atom, score
      L1  H     7    33       P1  8028  0.83
      P1  H 10752 10763       L1    23  0.36

> <Gold.Chemscore.Hbond.Weighted>
-6.0333

> <Gold.Chemscore.Metal.Weighted>
-0.0000

> <Gold.Chemscore.Lipo.Weighted>
-14.7481

> <Gold.Chemscore.Internal_Hbond.Weighted>
0.0000

> <Gold.Chemscore.DEClash.Weighted>
0.0314

> <Gold.Chemscore.DEInternal.Weighted>
1.2340

> <Gold.Chemscore.Rot.Weighted>
5.7904

> <Gold.Chemscore.Internal.Correction.Weighted>
   9.000000E+99

> <Gold.Protein.RotatedTorsions>
[ 6907 6896 6895 6894 ] final  -88.07 input  -60.11 | X-H torsion
[ 7974 7965 7964 7962 ] final  -15.22 input  175.53 | X-H torsion
[ 8008 7997 7996 7995 ] final -122.95 input   59.86 | X-H torsion
[ 10167 10162 10161 10158 ] final  -45.59 input  -65.29 | X-H torsion
[ 10718 10713 10712 10709 ] final  128.22 input   66.30 | X-H torsion
[ 10763 10752 10751 10750 ] final   67.41 input  -60.55 | X-H torsion
[ 11005 11000 10999 10996 ] final   91.45 input  -57.11 | X-H torsion

> <Gold.Protein.ActiveResidues>
 VAL166  LYS551  ARG553  GLY616  TRP617  ASP618  TYR619  PRO620  LYS621  CYS622 
 ASP623  PHE694  ASN695  SER759  ASP760  ASP761  ALA762  ILE779  LEU786  VAL792 
 PHE793  MET794  SER795  GLU796  ALA797  LYS798  CYS799  TRP800  GLU811  SER814 

> <Gold.Protein.RotatedAtoms>
  150.6867  134.2799  159.4622 H   0  0  0  0  0  0  0  0  0  0  0  0  # atno 6907 bound_to 6896
  152.0713  134.9529  160.0583 H   0  0  0  0  0  0  0  0  0  0  0  0  # atno 6908 bound_to 6896
  152.0917  133.4169  159.4584 H   0  0  0  0  0  0  0  0  0  0  0  0  # atno 6909 bound_to 6896
  146.2041  140.3462  142.8413 H   0  0  0  0  0  0  0  0  0  0  0  0  # atno 7974 bound_to 7965
  155.1726  140.0408  157.2866 H   0  0  0  0  0  0  0  0  0  0  0  0  # atno 8008 bound_to 7997
  154.6259  140.2512  155.7465 H   0  0  0  0  0  0  0  0  0  0  0  0  # atno 8009 bound_to 7997
  156.2459  140.2885  156.0588 H   0  0  0  0  0  0  0  0  0  0  0  0  # atno 8010 bound_to 7997
  140.6852  143.2872  151.3661 H   0  0  0  0  0  0  0  0  0  0  0  0  # atno 10167 bound_to 10162
  157.5264  131.1098  150.9076 H   0  0  0  0  0  0  0  0  0  0  0  0  # atno 10718 bound_to 10713
  153.0185  135.5285  154.6976 H   0  0  0  0  0  0  0  0  0  0  0  0  # atno 10763 bound_to 10752
  154.6093  135.2876  155.0452 H   0  0  0  0  0  0  0  0  0  0  0  0  # atno 10764 bound_to 10752
  154.1479  135.6567  153.5009 H   0  0  0  0  0  0  0  0  0  0  0  0  # atno 10765 bound_to 10752
  139.8838  134.8675  156.3430 H   0  0  0  0  0  0  0  0  0  0  0  0  # atno 11005 bound_to 11000
  144.8751  140.7325  143.6022 LP  0  0  0  0  0  0  0  0  0  0  0  0  # atno 17320 bound_to 7965
  145.3381  139.1740  143.4500 LP  0  0  0  0  0  0  0  0  0  0  0  0  # atno 17321 bound_to 7965
  139.6204  144.0918  152.2386 LP  0  0  0  0  0  0  0  0  0  0  0  0  # atno 17342 bound_to 10162
  140.0360  144.6044  150.7449 LP  0  0  0  0  0  0  0  0  0  0  0  0  # atno 17343 bound_to 10162
  156.9671  130.5477  149.5288 LP  0  0  0  0  0  0  0  0  0  0  0  0  # atno 17370 bound_to 10713
  156.0390  130.5475  150.8725 LP  0  0  0  0  0  0  0  0  0  0  0  0  # atno 17371 bound_to 10713
  140.9646  133.7366  156.0448 LP  0  0  0  0  0  0  0  0  0  0  0  0  # atno 17394 bound_to 11000
  140.7947  134.3577  157.5455 LP  0  0  0  0  0  0  0  0  0  0  0  0  # atno 17395 bound_to 11000

$$$$
