AV-unprocessed.smi:1601|AV-procd|sdf|6433|dock7
  -GOLD-   22720 7 73D 1   1.00000     0.00000
 Structure written by MMmdl.
 41 42  0  0  0  0  0  0  0  0  1 V2000
  148.8614  140.5842  154.4053 C   0  0  0  0  0  0  0  0  0  0  0  0
  149.6152  140.4437  155.7537 C   0  0  2  0  0  0  0  0  0  0  0  0
  150.4151  141.7485  156.0200 C   0  0  0  0  0  0  0  0  0  0  0  0
  150.8404  141.8593  157.4099 N   0  0  0  0  0  0  0  0  0  0  0  0
  151.8383  141.1575  157.9678 C   0  0  0  0  0  0  0  0  0  0  0  0
  152.4726  140.2963  157.3572 O   0  0  0  0  0  0  0  0  0  0  0  0
  152.1551  141.4808  159.4391 C   0  0  1  0  0  0  0  0  0  0  0  0
  153.3586  140.6875  159.9887 C   0  0  0  0  0  0  0  0  0  0  0  0
  152.3223  142.9187  159.6270 N   0  0  0  0  0  0  0  0  0  0  0  0
  152.4150  143.6145  160.8157 C   0  0  0  0  0  0  0  0  0  0  0  0
  152.5228  144.9404  160.5086 C   0  0  0  0  0  0  0  0  0  0  0  0
  152.4779  144.9624  159.0869 C   0  0  0  0  0  0  0  0  0  0  0  0
  152.3518  143.7545  158.5627 N   0  0  0  0  0  0  0  0  0  0  0  0
  150.4498  139.2212  155.8180 N   0  0  0  0  0  0  0  0  0  0  0  0
  149.6917  137.9982  155.5287 C   0  0  0  0  0  0  0  0  0  0  0  0
  150.5638  136.7311  155.5635 C   0  0  0  0  0  0  0  0  0  0  0  0
  151.6424  136.8657  154.6487 O   0  0  0  0  0  0  0  0  0  0  0  0
  152.4520  137.9954  154.9431 C   0  0  0  0  0  0  0  0  0  0  0  0
  151.5942  139.2718  154.9005 C   0  0  0  0  0  0  0  0  0  0  0  0
  148.2914  141.5102  154.3358 H   0  0  0  0  0  0  0  0  0  0  0  0
  148.1294  139.7914  154.2575 H   0  0  0  0  0  0  0  0  0  0  0  0
  149.5543  140.5654  153.5631 H   0  0  0  0  0  0  0  0  0  0  0  0
  148.8567  140.3721  156.5349 H   0  0  0  0  0  0  0  0  0  0  0  0
  151.3287  141.7909  155.4292 H   0  0  0  0  0  0  0  0  0  0  0  0
  149.8110  142.6144  155.7425 H   0  0  0  0  0  0  0  0  0  0  0  0
  150.3651  142.5445  157.9791 H   0  0  0  0  0  0  0  0  0  0  0  0
  151.2802  141.1817  160.0186 H   0  0  0  0  0  0  0  0  0  0  0  0
  153.1892  139.6127  159.9172 H   0  0  0  0  0  0  0  0  0  0  0  0
  153.5282  140.9200  161.0402 H   0  0  0  0  0  0  0  0  0  0  0  0
  154.2779  140.9145  159.4477 H   0  0  0  0  0  0  0  0  0  0  0  0
  152.3954  143.1129  161.7721 H   0  0  0  0  0  0  0  0  0  0  0  0
  152.6161  145.7691  161.1948 H   0  0  0  0  0  0  0  0  0  0  0  0
  152.5296  145.8140  158.4246 H   0  0  0  0  0  0  0  0  0  0  0  0
  148.8990  137.8536  156.2599 H   0  0  0  0  0  0  0  0  0  0  0  0
  149.2132  138.0816  154.5516 H   0  0  0  0  0  0  0  0  0  0  0  0
  150.9483  136.5538  156.5692 H   0  0  0  0  0  0  0  0  0  0  0  0
  149.9723  135.8576  155.2889 H   0  0  0  0  0  0  0  0  0  0  0  0
  152.9181  137.8751  155.9223 H   0  0  0  0  0  0  0  0  0  0  0  0
  153.2572  138.0559  154.2107 H   0  0  0  0  0  0  0  0  0  0  0  0
  151.2437  139.4383  153.8806 H   0  0  0  0  0  0  0  0  0  0  0  0
  152.2499  140.1039  155.1500 H   0  0  0  0  0  0  0  0  0  0  0  0
  1  2  1  0  0  0  0
  1 20  1  0  0  0  0
  1 21  1  0  0  0  0
  1 22  1  0  0  0  0
  2  3  1  0  0  0  0
  2 14  1  0  0  0  0
  2 23  1  0  0  0  0
  3  4  1  0  0  0  0
  3 24  1  0  0  0  0
  3 25  1  0  0  0  0
  4  5  1  0  0  0  0
  4 26  1  0  0  0  0
  5  6  2  0  0  0  0
  5  7  1  0  0  0  0
  7  8  1  0  0  0  0
  7  9  1  0  0  0  0
  7 27  1  0  0  0  0
  8 28  1  0  0  0  0
  8 29  1  0  0  0  0
  8 30  1  0  0  0  0
  9 13  1  0  0  0  0
  9 10  1  0  0  0  0
 10 11  2  0  0  0  0
 10 31  1  0  0  0  0
 11 12  1  0  0  0  0
 11 32  1  0  0  0  0
 12 13  2  0  0  0  0
 12 33  1  0  0  0  0
 14 19  1  0  0  0  0
 14 15  1  0  0  0  0
 15 16  1  0  0  0  0
 15 34  1  0  0  0  0
 15 35  1  0  0  0  0
 16 17  1  0  0  0  0
 16 36  1  0  0  0  0
 16 37  1  0  0  0  0
 17 18  1  0  0  0  0
 18 19  1  0  0  0  0
 18 38  1  0  0  0  0
 18 39  1  0  0  0  0
 19 40  1  0  0  0  0
 19 41  1  0  0  0  0
M  END
> <s_m_source_file>
AV-unprocessed.smi

> <i_m_source_file_index>
1601

> <i_lp_mmshare_version>
43012

> <i_f3d_flags>
0

> <s_epik_input>
W0NIMl0xW0NIMl1PW0NIMl1bQ0gyXU4xW0NASF0oW0NIM10pW0NIMl1bTkhdQyg9TylbQ0BIXShbQ0gzXSluMltjSF1bY0hdW2NIXW4y

> <s_epik_cmdline>
J2VwaWtfcHl0aG9uJywgJy1waCcsICc3LjAnLCAnLXRuJywgJzgnLCAnLW1hJywgJzIwMCcsICctbWV0YWxfYmluZGluZycsICctaW1hZScsICc8aW5maWxlLm1hZT4nLCAnLW9tYWUnLCAnPG91dGZpbGUubWFlPic=

> <r_lp_tautomer_probability>
1

> <r_epik_Ionization_Penalty>
0.203323

> <r_epik_Ionization_Penalty_Charging>
0

> <r_epik_Ionization_Penalty_Neutral>
0.203323

> <r_epik_State_Penalty>
0.193192

> <r_epik_Charging_Adjusted_Penalty>
0.193192

> <i_epik_Tot_Q>
0

> <i_epik_Tot_abs_Q>
0

> <r_epik_Metal_State_Penalty>
0.193187

> <b_epik_Metal_Only>
0

> <s_lp_Force_Field>
OPLS_2005

> <r_lp_Energy>
33.4287

> <b_lp_Chiralities_Consistent>
1

> <s_lp_Variant>
AV-unprocessed.smi:1601-3

> <Gold.Version>
5.8.1

> <Gold.Id.Protein>
6NUR|6NUR_protein|mol2

> <Gold.PLP.Fitness>
44.4950

> <Gold.PLP.PLP>
-39.2743

> <Gold.PLP.part.hbond>
-2.0000

> <Gold.PLP.part.metal>
0.0000

> <Gold.PLP.part.buried>
-3.1996

> <Gold.PLP.part.nonpolar>
-34.0215

> <Gold.PLP.part.repulsive>
0.2267

> <Gold.PLP.ligand.clash>
0.0000

> <Gold.PLP.ligand.torsion>
0.3894

> <Gold.PLP.Chemscore.Hbond>
1.9440

> <Gold.PLP.Chemscore.CHOScore>
0.0000

> <Gold.PLP.Chemscore.Metal>
0.0000

> <Gold.Chemscore.Hbonds>
donor molecule, donor type, donor heavy atom, donor atom, acceptor molecule, acceptor atom, score
      P1  H  7997  8009       L1     6  0.95
      P1  H 10752 10765       L1    17  0.95

> <Gold.PLP.Chemscore.Internal.Correction>
0.1676

> <Gold.Rescore>
     Score         DG    S(hbond)    S(metal)    S(lipo)     H(rot)  DE(clash)    DE(int)     intcor
     12.89     -17.47       1.57        0.00      96.75       1.79       0.19       4.39       ----

> <Gold.Chemscore.Fitness>
12.8920

> <Gold.Chemscore.DG>
-17.4717

> <Gold.Chemscore.ZeroCoef>
-5.4800

> <Gold.Chemscore.Hbond>
1.5710

> <Gold.Chemscore.Metal>
0.0000

> <Gold.Chemscore.Lipo>
96.7500

> <Gold.Chemscore.Internal_Hbond>
0.0000

> <Gold.Chemscore.DEClash>
0.1908

> <Gold.Chemscore.DEInternal>
4.3889

> <Gold.Chemscore.Rot>
1.7872

> <Gold.Chemscore.Internal.Correction>
   9.000000E+99

> <Gold.Chemscore.Hbonds>
donor molecule, donor type, donor heavy atom, donor atom, acceptor molecule, acceptor atom, score
      P1  H  7997  8009       L1     6  0.86
      P1  H 10752 10765       L1    17  0.21

> <Gold.Chemscore.Hbond.Weighted>
-5.2471

> <Gold.Chemscore.Metal.Weighted>
-0.0000

> <Gold.Chemscore.Lipo.Weighted>
-11.3198

> <Gold.Chemscore.Internal_Hbond.Weighted>
0.0000

> <Gold.Chemscore.DEClash.Weighted>
0.1908

> <Gold.Chemscore.DEInternal.Weighted>
4.3889

> <Gold.Chemscore.Rot.Weighted>
4.5752

> <Gold.Chemscore.Internal.Correction.Weighted>
   9.000000E+99

> <Gold.Protein.RotatedTorsions>
[ 6907 6896 6895 6894 ] final   46.60 input  -60.11 | X-H torsion
[ 7974 7965 7964 7962 ] final  132.09 input  175.53 | X-H torsion
[ 8008 7997 7996 7995 ] final -178.90 input   59.86 | X-H torsion
[ 10167 10162 10161 10158 ] final  -75.84 input  -65.29 | X-H torsion
[ 10718 10713 10712 10709 ] final   84.33 input   66.30 | X-H torsion
[ 10763 10752 10751 10750 ] final  171.97 input  -60.55 | X-H torsion
[ 11005 11000 10999 10996 ] final  168.32 input  -57.11 | X-H torsion

> <Gold.Protein.ActiveResidues>
 VAL166  LYS551  ARG553  GLY616  TRP617  ASP618  TYR619  PRO620  LYS621  CYS622 
 ASP623  PHE694  ASN695  SER759  ASP760  ASP761  ALA762  ILE779  LEU786  VAL792 
 PHE793  MET794  SER795  GLU796  ALA797  LYS798  CYS799  TRP800  GLU811  SER814 

> <Gold.Protein.RotatedAtoms>
  152.2583  134.8061  160.0434 H   0  0  0  0  0  0  0  0  0  0  0  0  # atno 6907 bound_to 6896
  151.8717  133.3472  159.3745 H   0  0  0  0  0  0  0  0  0  0  0  0  # atno 6908 bound_to 6896
  150.7107  134.5033  159.5616 H   0  0  0  0  0  0  0  0  0  0  0  0  # atno 6909 bound_to 6896
  145.0004  139.4317  143.5295 H   0  0  0  0  0  0  0  0  0  0  0  0  # atno 7974 bound_to 7965
  156.0242  140.1268  157.0326 H   0  0  0  0  0  0  0  0  0  0  0  0  # atno 8008 bound_to 7997
  154.4324  140.1062  156.6077 H   0  0  0  0  0  0  0  0  0  0  0  0  # atno 8009 bound_to 7997
  155.5900  140.3469  155.4566 H   0  0  0  0  0  0  0  0  0  0  0  0  # atno 8010 bound_to 7997
  140.4908  143.2381  151.7909 H   0  0  0  0  0  0  0  0  0  0  0  0  # atno 10167 bound_to 10162
  157.6896  131.0128  150.2657 H   0  0  0  0  0  0  0  0  0  0  0  0  # atno 10718 bound_to 10713
  154.4195  135.2757  155.1985 H   0  0  0  0  0  0  0  0  0  0  0  0  # atno 10763 bound_to 10752
  154.3937  135.6060  153.5861 H   0  0  0  0  0  0  0  0  0  0  0  0  # atno 10764 bound_to 10752
  152.9832  135.5909  154.4488 H   0  0  0  0  0  0  0  0  0  0  0  0  # atno 10765 bound_to 10752
  140.2860  134.7712  157.3798 H   0  0  0  0  0  0  0  0  0  0  0  0  # atno 11005 bound_to 11000
  146.3451  139.9390  142.8743 LP  0  0  0  0  0  0  0  0  0  0  0  0  # atno 17320 bound_to 7965
  145.2161  140.9916  143.4073 LP  0  0  0  0  0  0  0  0  0  0  0  0  # atno 17321 bound_to 7965
  139.4851  144.4651  151.9493 LP  0  0  0  0  0  0  0  0  0  0  0  0  # atno 17342 bound_to 10162
  140.3738  144.2822  150.5916 LP  0  0  0  0  0  0  0  0  0  0  0  0  # atno 17343 bound_to 10162
  156.3228  130.3788  149.7560 LP  0  0  0  0  0  0  0  0  0  0  0  0  # atno 17370 bound_to 10713
  156.5124  130.8178  151.3174 LP  0  0  0  0  0  0  0  0  0  0  0  0  # atno 17371 bound_to 10713
  140.1239  134.5183  155.8161 LP  0  0  0  0  0  0  0  0  0  0  0  0  # atno 17394 bound_to 11000
  141.2154  133.6766  156.6916 LP  0  0  0  0  0  0  0  0  0  0  0  0  # atno 17395 bound_to 11000

$$$$
