AV-unprocessed.smi:806|AV-procd|sdf|3801|dock6
  -GOLD-   22720 1233D 1   1.00000     0.00000
 Structure written by MMmdl.
 44 45  0  0  0  0  0  0  0  0  1 V2000
  147.0993  141.2488  153.3271 C   0  0  0  0  0  0  0  0  0  0  0  0
  147.6662  139.9995  153.8669 N   0  0  0  0  0  0  0  0  0  0  0  0
  147.3184  138.7843  153.3543 C   0  0  0  0  0  0  0  0  0  0  0  0
  147.6294  137.7265  153.9047 O   0  0  0  0  0  0  0  0  0  0  0  0
  146.5019  138.7040  152.0451 C   0  0  0  0  0  0  0  0  0  0  0  0
  145.3033  137.8488  152.1037 N   0  0  0  0  0  0  0  0  0  0  0  0
  145.6208  136.4263  152.0447 C   0  0  0  0  0  0  0  0  0  0  0  0
  144.4473  135.6691  151.4059 C   0  0  0  0  0  0  0  0  0  0  0  0
  144.8563  134.3705  150.9064 N   0  0  0  0  0  0  0  0  0  0  0  0
  144.0876  133.4135  150.2781 C   0  0  0  0  0  0  0  0  0  0  0  0
  144.9070  132.3604  149.9879 C   0  0  0  0  0  0  0  0  0  0  0  0
  146.1752  132.7722  150.4849 C   0  0  0  0  0  0  0  0  0  0  0  0
  146.1416  133.9757  151.0342 N   0  0  0  0  0  0  0  0  0  0  0  0
  148.6000  140.1200  155.0312 C   0  0  0  0  0  0  0  0  0  0  0  0
  149.9585  139.6600  154.6605 C   0  0  0  0  0  0  0  0  0  0  0  0
  151.0217  139.3027  154.3724 N   0  0  0  0  0  0  0  0  0  0  0  0
  148.7717  141.5843  155.5430 C   0  0  0  0  0  0  0  0  0  0  0  0
  149.6897  141.6760  156.7756 C   0  0  0  0  0  0  0  0  0  0  0  0
  149.1527  140.8034  157.9189 C   0  0  0  0  0  0  0  0  0  0  0  0
  148.9483  139.3513  157.4647 C   0  0  0  0  0  0  0  0  0  0  0  0
  148.0544  139.2730  156.2132 C   0  0  0  0  0  0  0  0  0  0  0  0
  146.2518  141.1221  152.6564 H   0  0  0  0  0  0  0  0  0  0  0  0
  147.8590  141.8160  152.7887 H   0  0  0  0  0  0  0  0  0  0  0  0
  146.7028  141.8666  154.1317 H   0  0  0  0  0  0  0  0  0  0  0  0
  146.1825  139.7148  151.7902 H   0  0  0  0  0  0  0  0  0  0  0  0
  147.1283  138.3489  151.2258 H   0  0  0  0  0  0  0  0  0  0  0  0
  144.6597  138.0701  151.3576 H   0  0  0  0  0  0  0  0  0  0  0  0
  146.5233  136.2801  151.4493 H   0  0  0  0  0  0  0  0  0  0  0  0
  145.8198  136.0251  153.0388 H   0  0  0  0  0  0  0  0  0  0  0  0
  143.6423  135.5266  152.1288 H   0  0  0  0  0  0  0  0  0  0  0  0
  144.0301  136.2409  150.5756 H   0  0  0  0  0  0  0  0  0  0  0  0
  143.0341  133.5601  150.0910 H   0  0  0  0  0  0  0  0  0  0  0  0
  144.6412  131.4367  149.4956 H   0  0  0  0  0  0  0  0  0  0  0  0
  147.1125  132.2361  150.4627 H   0  0  0  0  0  0  0  0  0  0  0  0
  149.1749  142.2140  154.7490 H   0  0  0  0  0  0  0  0  0  0  0  0
  147.8199  142.0235  155.8378 H   0  0  0  0  0  0  0  0  0  0  0  0
  150.7048  141.3708  156.5206 H   0  0  0  0  0  0  0  0  0  0  0  0
  149.7597  142.7125  157.1071 H   0  0  0  0  0  0  0  0  0  0  0  0
  149.8379  140.8358  158.7664 H   0  0  0  0  0  0  0  0  0  0  0  0
  148.2047  141.2105  158.2727 H   0  0  0  0  0  0  0  0  0  0  0  0
  149.9156  138.8913  157.2597 H   0  0  0  0  0  0  0  0  0  0  0  0
  148.5016  138.7723  158.2736 H   0  0  0  0  0  0  0  0  0  0  0  0
  147.0493  139.6105  156.4701 H   0  0  0  0  0  0  0  0  0  0  0  0
  147.9547  138.2260  155.9276 H   0  0  0  0  0  0  0  0  0  0  0  0
  1  2  1  0  0  0  0
  1 22  1  0  0  0  0
  1 23  1  0  0  0  0
  1 24  1  0  0  0  0
  2  3  1  0  0  0  0
  2 14  1  0  0  0  0
  3  4  2  0  0  0  0
  3  5  1  0  0  0  0
  5  6  1  0  0  0  0
  5 25  1  0  0  0  0
  5 26  1  0  0  0  0
  6  7  1  0  0  0  0
  6 27  1  0  0  0  0
  7  8  1  0  0  0  0
  7 28  1  0  0  0  0
  7 29  1  0  0  0  0
  8  9  1  0  0  0  0
  8 30  1  0  0  0  0
  8 31  1  0  0  0  0
  9 13  1  0  0  0  0
  9 10  1  0  0  0  0
 10 11  2  0  0  0  0
 10 32  1  0  0  0  0
 11 12  1  0  0  0  0
 11 33  1  0  0  0  0
 12 13  2  0  0  0  0
 12 34  1  0  0  0  0
 14 21  1  0  0  0  0
 14 15  1  0  0  0  0
 14 17  1  0  0  0  0
 15 16  3  0  0  0  0
 17 18  1  0  0  0  0
 17 35  1  0  0  0  0
 17 36  1  0  0  0  0
 18 19  1  0  0  0  0
 18 37  1  0  0  0  0
 18 38  1  0  0  0  0
 19 20  1  0  0  0  0
 19 39  1  0  0  0  0
 19 40  1  0  0  0  0
 20 21  1  0  0  0  0
 20 41  1  0  0  0  0
 20 42  1  0  0  0  0
 21 43  1  0  0  0  0
 21 44  1  0  0  0  0
M  END
> <s_m_source_file>
AV-unprocessed.smi

> <i_m_source_file_index>
806

> <i_lp_mmshare_version>
43012

> <i_f3d_flags>
0

> <s_epik_input>
W0NIMl0xW0NIMl1bQ0gyXVtDSDJdW0NIMl1DMShDI04pTihbQ0gzXSlDKD1PKVtDSDJdW05IXVtDSDJdW0NIMl1uMltjSF1bY0hdW2NIXW4y

> <s_epik_cmdline>
J2VwaWtfcHl0aG9uJywgJy1waCcsICc3LjAnLCAnLXRuJywgJzgnLCAnLW1hJywgJzIwMCcsICctbWV0YWxfYmluZGluZycsICctaW1hZScsICc8aW5maWxlLm1hZT4nLCAnLW9tYWUnLCAnPG91dGZpbGUubWFlPic=

> <r_lp_tautomer_probability>
1

> <r_epik_Ionization_Penalty>
0.481166

> <r_epik_Ionization_Penalty_Charging>
0

> <r_epik_Ionization_Penalty_Neutral>
0.481166

> <r_epik_State_Penalty>
0.484368

> <r_epik_Charging_Adjusted_Penalty>
0.484368

> <i_epik_Tot_Q>
0

> <i_epik_Tot_abs_Q>
0

> <r_epik_Metal_State_Penalty>
0.483438

> <b_epik_Metal_Only>
0

> <s_lp_Force_Field>
OPLS_2005

> <r_lp_Energy>
29.6392

> <b_lp_Chiralities_Consistent>
1

> <s_lp_Variant>
AV-unprocessed.smi:806-2

> <Gold.Version>
5.8.1

> <Gold.Id.Protein>
6NUR|6NUR_protein|mol2

> <Gold.PLP.Fitness>
46.0538

> <Gold.PLP.PLP>
-34.9014

> <Gold.PLP.part.hbond>
-2.8150

> <Gold.PLP.part.metal>
0.0000

> <Gold.PLP.part.buried>
-6.6458

> <Gold.PLP.part.nonpolar>
-29.1507

> <Gold.PLP.part.repulsive>
2.2667

> <Gold.PLP.ligand.clash>
0.0000

> <Gold.PLP.ligand.torsion>
0.5150

> <Gold.PLP.Chemscore.Hbond>
2.0000

> <Gold.PLP.Chemscore.CHOScore>
2.0000

> <Gold.PLP.Chemscore.Metal>
0.0000

> <Gold.Chemscore.Hbonds>
donor molecule, donor type, donor heavy atom, donor atom, acceptor molecule, acceptor atom, score
      L1  H     6    27       P1 10171  1.00
      P1  H  7989  7998       L1    16  1.00
      L1  C    10    32       P1 10186  1.00
      L1  C    12    34       P1 10747  1.00

> <Gold.PLP.Chemscore.Internal.Correction>
0.1823

> <Gold.Rescore>
     Score         DG    S(hbond)    S(metal)    S(lipo)     H(rot)  DE(clash)    DE(int)     intcor
     12.60     -15.67       1.97        0.00      74.99       2.01       0.95       2.12       ----

> <Gold.Chemscore.Fitness>
12.6024

> <Gold.Chemscore.DG>
-15.6707

> <Gold.Chemscore.ZeroCoef>
-5.4800

> <Gold.Chemscore.Hbond>
1.9679

> <Gold.Chemscore.Metal>
0.0000

> <Gold.Chemscore.Lipo>
74.9924

> <Gold.Chemscore.Internal_Hbond>
0.0000

> <Gold.Chemscore.DEClash>
0.9453

> <Gold.Chemscore.DEInternal>
2.1230

> <Gold.Chemscore.Rot>
2.0142

> <Gold.Chemscore.Internal.Correction>
   9.000000E+99

> <Gold.Chemscore.Hbonds>
donor molecule, donor type, donor heavy atom, donor atom, acceptor molecule, acceptor atom, score
      L1  H     6    27       P1 10171  1.00
      P1  H  7989  7998       L1    16  0.26

> <Gold.Chemscore.Hbond.Weighted>
-6.5729

> <Gold.Chemscore.Metal.Weighted>
-0.0000

> <Gold.Chemscore.Lipo.Weighted>
-8.7741

> <Gold.Chemscore.Internal_Hbond.Weighted>
0.0000

> <Gold.Chemscore.DEClash.Weighted>
0.9453

> <Gold.Chemscore.DEInternal.Weighted>
2.1230

> <Gold.Chemscore.Rot.Weighted>
5.1563

> <Gold.Chemscore.Internal.Correction.Weighted>
   9.000000E+99

> <Gold.Protein.RotatedTorsions>
[ 6907 6896 6895 6894 ] final  103.12 input  -60.11 | X-H torsion
[ 7974 7965 7964 7962 ] final   86.79 input  175.53 | X-H torsion
[ 8008 7997 7996 7995 ] final  -52.94 input   59.86 | X-H torsion
[ 10167 10162 10161 10158 ] final  -35.28 input  -65.29 | X-H torsion
[ 10718 10713 10712 10709 ] final -100.97 input   66.30 | X-H torsion
[ 10763 10752 10751 10750 ] final  -79.27 input  -60.55 | X-H torsion
[ 11005 11000 10999 10996 ] final  -51.60 input  -57.11 | X-H torsion

> <Gold.Protein.ActiveResidues>
 VAL166  LYS551  ARG553  GLY616  TRP617  ASP618  TYR619  PRO620  LYS621  CYS622 
 ASP623  PHE694  ASN695  SER759  ASP760  ASP761  ALA762  ILE779  LEU786  VAL792 
 PHE793  MET794  SER795  GLU796  ALA797  LYS798  CYS799  TRP800  GLU811  SER814 

> <Gold.Protein.RotatedAtoms>
  152.5304  133.9873  159.7833 H   0  0  0  0  0  0  0  0  0  0  0  0  # atno 6907 bound_to 6896
  151.0115  133.5953  159.2689 H   0  0  0  0  0  0  0  0  0  0  0  0  # atno 6908 bound_to 6896
  151.3025  135.0779  159.9297 H   0  0  0  0  0  0  0  0  0  0  0  0  # atno 6909 bound_to 6896
  145.5676  139.2310  143.2424 H   0  0  0  0  0  0  0  0  0  0  0  0  # atno 7974 bound_to 7965
  154.4120  140.1212  156.5073 H   0  0  0  0  0  0  0  0  0  0  0  0  # atno 8008 bound_to 7997
  155.6834  140.3496  155.4845 H   0  0  0  0  0  0  0  0  0  0  0  0  # atno 8009 bound_to 7997
  155.9531  140.1108  157.0950 H   0  0  0  0  0  0  0  0  0  0  0  0  # atno 8010 bound_to 7997
  140.7168  143.3488  151.2199 H   0  0  0  0  0  0  0  0  0  0  0  0  # atno 10167 bound_to 10162
  156.0180  130.5352  150.6895 H   0  0  0  0  0  0  0  0  0  0  0  0  # atno 10718 bound_to 10713
  154.5365  135.5701  153.6803 H   0  0  0  0  0  0  0  0  0  0  0  0  # atno 10763 bound_to 10752
  152.9952  135.6217  154.2559 H   0  0  0  0  0  0  0  0  0  0  0  0  # atno 10764 bound_to 10752
  154.2488  135.2860  155.2804 H   0  0  0  0  0  0  0  0  0  0  0  0  # atno 10765 bound_to 10752
  141.0880  133.6638  156.3901 H   0  0  0  0  0  0  0  0  0  0  0  0  # atno 11005 bound_to 11000
  146.1807  140.6501  142.9190 LP  0  0  0  0  0  0  0  0  0  0  0  0  # atno 17320 bound_to 7965
  144.7453  140.5051  143.6840 LP  0  0  0  0  0  0  0  0  0  0  0  0  # atno 17321 bound_to 7965
  139.7014  143.9527  152.2907 LP  0  0  0  0  0  0  0  0  0  0  0  0  # atno 17342 bound_to 10162
  139.9221  144.6793  150.8450 LP  0  0  0  0  0  0  0  0  0  0  0  0  # atno 17343 bound_to 10162
  157.4580  131.0880  151.0776 LP  0  0  0  0  0  0  0  0  0  0  0  0  # atno 17370 bound_to 10713
  157.1272  130.6087  149.5520 LP  0  0  0  0  0  0  0  0  0  0  0  0  # atno 17371 bound_to 10713
  140.5319  134.6204  157.5352 LP  0  0  0  0  0  0  0  0  0  0  0  0  # atno 17394 bound_to 11000
  139.9701  134.7308  156.0059 LP  0  0  0  0  0  0  0  0  0  0  0  0  # atno 17395 bound_to 11000

$$$$
