AV-unprocessed.smi:2631|AV-procd|sdf|10249|dock10
  -GOLD-   2272014263D 1   1.00000     0.00000
 Structure written by MMmdl.
 34 35  0  0  0  0  0  0  0  0  2 V2000
  147.4896  137.5445  154.6814 C   0  0  0  0  0  0  0  0  0  0  0  0
  148.0529  137.4375  155.9761 O   0  0  0  0  0  0  0  0  0  0  0  0
  147.5007  138.3700  156.8903 C   0  0  0  0  0  0  0  0  0  0  0  0
  148.1124  138.1606  158.2860 C   0  0  0  0  0  0  0  0  0  0  0  0
  149.5536  138.4911  158.3099 N   0  0  0  0  0  0  0  0  0  0  0  0
  149.9520  139.8372  158.0950 C   0  0  0  0  0  0  0  0  0  0  0  0
  148.9987  140.8149  157.8611 N   0  0  0  0  0  0  0  0  0  0  0  0
  151.2663  140.1525  158.1284 C   0  0  0  0  0  0  0  0  0  0  0  0
  151.9533  141.7790  157.9112 S   0  0  0  0  0  0  0  0  0  0  0  0
  152.3705  142.1855  159.5747 C   0  0  0  0  0  0  0  0  0  0  0  0
  151.7988  143.3190  160.1859 C   0  0  0  0  0  0  0  0  0  0  0  0
  152.1250  143.6372  161.5186 C   0  0  0  0  0  0  0  0  0  0  0  0
  153.0223  142.8235  162.2386 C   0  0  0  0  0  0  0  0  0  0  0  0
  153.4188  143.2127  163.8720 Cl  0  0  0  0  0  0  0  0  0  0  0  0
  153.5956  141.6920  161.6249 C   0  0  0  0  0  0  0  0  0  0  0  0
  153.2709  141.3729  160.2920 C   0  0  0  0  0  0  0  0  0  0  0  0
  152.2732  139.1188  158.3762 C   0  0  0  0  0  0  0  0  0  0  0  0
  153.4750  139.3882  158.3972 O   0  0  0  0  0  0  0  0  0  0  0  0
  151.8110  137.8555  158.5822 N   0  5  0  0  0  0  0  0  0  0  0  0
  150.4867  137.5190  158.5620 C   0  0  0  0  0  0  0  0  0  0  0  0
  150.1135  136.3629  158.7654 O   0  0  0  0  0  0  0  0  0  0  0  0
  147.9474  136.8076  154.0215 H   0  0  0  0  0  0  0  0  0  0  0  0
  147.6642  138.5333  154.2556 H   0  0  0  0  0  0  0  0  0  0  0  0
  146.4156  137.3555  154.7028 H   0  0  0  0  0  0  0  0  0  0  0  0
  147.7186  139.3823  156.5470 H   0  0  0  0  0  0  0  0  0  0  0  0
  146.4150  138.2689  156.9276 H   0  0  0  0  0  0  0  0  0  0  0  0
  147.5456  138.7341  159.0209 H   0  0  0  0  0  0  0  0  0  0  0  0
  147.9626  137.1271  158.5987 H   0  0  0  0  0  0  0  0  0  0  0  0
  148.0132  140.5961  157.8384 H   0  0  0  0  0  0  0  0  0  0  0  0
  149.2410  141.7947  157.8384 H   0  0  0  0  0  0  0  0  0  0  0  0
  151.1086  143.9425  159.6370 H   0  0  0  0  0  0  0  0  0  0  0  0
  151.6848  144.5049  161.9877 H   0  0  0  0  0  0  0  0  0  0  0  0
  154.2833  141.0666  162.1748 H   0  0  0  0  0  0  0  0  0  0  0  0
  153.7091  140.5029  159.8250 H   0  0  0  0  0  0  0  0  0  0  0  0
  1  2  1  0  0  0  0
  1 22  1  0  0  0  0
  1 23  1  0  0  0  0
  1 24  1  0  0  0  0
  2  3  1  0  0  0  0
  3  4  1  0  0  0  0
  3 25  1  0  0  0  0
  3 26  1  0  0  0  0
  4  5  1  0  0  0  0
  4 27  1  0  0  0  0
  4 28  1  0  0  0  0
  5 20  1  0  0  0  0
  5  6  1  0  0  0  0
  6  7  1  0  0  0  0
  6  8  2  0  0  0  0
  7 29  1  0  0  0  0
  7 30  1  0  0  0  0
  8  9  1  0  0  0  0
  8 17  1  0  0  0  0
  9 10  1  0  0  0  0
 10 16  1  0  0  0  0
 10 11  2  0  0  0  0
 11 12  1  0  0  0  0
 11 31  1  0  0  0  0
 12 13  2  0  0  0  0
 12 32  1  0  0  0  0
 13 14  1  0  0  0  0
 13 15  1  0  0  0  0
 15 16  2  0  0  0  0
 15 33  1  0  0  0  0
 16 34  1  0  0  0  0
 17 18  2  0  0  0  0
 17 19  1  0  0  0  0
 19 20  1  0  0  0  0
 20 21  2  0  0  0  0
M  CHG  1  19  -1
M  END
> <s_m_source_file>
AV-unprocessed.smi

> <i_m_source_file_index>
2631

> <i_lp_mmshare_version>
43012

> <i_f3d_flags>
0

> <s_epik_input>
W0NIM11PW0NIMl1bQ0gyXW4xYyhbTkgyXSljKGMoPU8pW25IXWMxPU8pU2MyW2NIXVtjSF1jKENsKVtjSF1bY0hdMg==

> <s_epik_cmdline>
J2VwaWtfcHl0aG9uJywgJy1waCcsICc3LjAnLCAnLXRuJywgJzgnLCAnLW1hJywgJzIwMCcsICctbWV0YWxfYmluZGluZycsICctaW1hZScsICc8aW5maWxlLm1hZT4nLCAnLW9tYWUnLCAnPG91dGZpbGUubWFlPic=

> <r_lp_tautomer_probability>
1

> <r_epik_Ionization_Penalty>
5.35309

> <r_epik_Ionization_Penalty_Charging>
0.0281434

> <r_epik_Ionization_Penalty_Neutral>
5.32495

> <r_epik_State_Penalty>
5.32488

> <r_epik_Charging_Adjusted_Penalty>
5.35302

> <i_epik_Tot_Q>
-1

> <i_epik_Tot_abs_Q>
1

> <r_epik_Metal_State_Penalty>
1.30191

> <b_epik_Metal_Only>
1

> <s_epik_Chemistry_Notes>
This compound has an imine and may undergo hydrolysis.

> <s_lp_Force_Field>
OPLS_2005

> <r_lp_Energy>
29.1443

> <b_lp_Chiralities_Consistent>
1

> <s_lp_Variant>
AV-unprocessed.smi:2631-2

> <Gold.Version>
5.8.1

> <Gold.Id.Protein>
6NUR|6NUR_protein|mol2

> <Gold.PLP.Fitness>
43.1758

> <Gold.PLP.PLP>
-37.6197

> <Gold.PLP.part.hbond>
-2.0000

> <Gold.PLP.part.metal>
0.0000

> <Gold.PLP.part.buried>
-5.6249

> <Gold.PLP.part.nonpolar>
-29.3137

> <Gold.PLP.part.repulsive>
0.1935

> <Gold.PLP.ligand.clash>
0.0000

> <Gold.PLP.ligand.torsion>
0.2322

> <Gold.PLP.Chemscore.Hbond>
1.9920

> <Gold.PLP.Chemscore.CHOScore>
0.0000

> <Gold.PLP.Chemscore.Metal>
0.0000

> <Gold.Chemscore.Hbonds>
donor molecule, donor type, donor heavy atom, donor atom, acceptor molecule, acceptor atom, score
      P1  H  6896  6907       L1    21  0.96
      P1  H  7997  8009       L1    18  0.91

> <Gold.PLP.Chemscore.Internal.Correction>
0.0445

> <Gold.Rescore>
     Score         DG    S(hbond)    S(metal)    S(lipo)     H(rot)  DE(clash)    DE(int)     intcor
     15.34     -17.15       1.89        0.00      90.08       2.02       0.03       1.77       ----

> <Gold.Chemscore.Fitness>
15.3414

> <Gold.Chemscore.DG>
-17.1463

> <Gold.Chemscore.ZeroCoef>
-5.4800

> <Gold.Chemscore.Hbond>
1.8881

> <Gold.Chemscore.Metal>
0.0000

> <Gold.Chemscore.Lipo>
90.0842

> <Gold.Chemscore.Internal_Hbond>
0.0000

> <Gold.Chemscore.DEClash>
0.0310

> <Gold.Chemscore.DEInternal>
1.7740

> <Gold.Chemscore.Rot>
2.0234

> <Gold.Chemscore.Internal.Correction>
   9.000000E+99

> <Gold.Chemscore.Hbonds>
donor molecule, donor type, donor heavy atom, donor atom, acceptor molecule, acceptor atom, score
      P1  H  6896  6907       L1    21  0.91
      P1  H  7997  8009       L1    18  0.85

> <Gold.Chemscore.Hbond.Weighted>
-6.3063

> <Gold.Chemscore.Metal.Weighted>
-0.0000

> <Gold.Chemscore.Lipo.Weighted>
-10.5399

> <Gold.Chemscore.Internal_Hbond.Weighted>
0.0000

> <Gold.Chemscore.DEClash.Weighted>
0.0310

> <Gold.Chemscore.DEInternal.Weighted>
1.7740

> <Gold.Chemscore.Rot.Weighted>
5.1798

> <Gold.Chemscore.Internal.Correction.Weighted>
   9.000000E+99

> <Gold.Protein.RotatedTorsions>
[ 6907 6896 6895 6894 ] final  -63.83 input  -60.11 | X-H torsion
[ 7974 7965 7964 7962 ] final  100.43 input  175.53 | X-H torsion
[ 8008 7997 7996 7995 ] final  172.01 input   59.86 | X-H torsion
[ 10167 10162 10161 10158 ] final -150.86 input  -65.29 | X-H torsion
[ 10718 10713 10712 10709 ] final  162.58 input   66.30 | X-H torsion
[ 10763 10752 10751 10750 ] final   64.60 input  -60.55 | X-H torsion
[ 11005 11000 10999 10996 ] final  -19.02 input  -57.11 | X-H torsion

> <Gold.Protein.ActiveResidues>
 VAL166  LYS551  ARG553  GLY616  TRP617  ASP618  TYR619  PRO620  LYS621  CYS622 
 ASP623  PHE694  ASN695  SER759  ASP760  ASP761  ALA762  ILE779  LEU786  VAL792 
 PHE793  MET794  SER795  GLU796  ALA797  LYS798  CYS799  TRP800  GLU811  SER814 

> <Gold.Protein.RotatedAtoms>
  150.7624  134.6381  159.6222 H   0  0  0  0  0  0  0  0  0  0  0  0  # atno 6907 bound_to 6896
  152.3638  134.6831  160.0207 H   0  0  0  0  0  0  0  0  0  0  0  0  # atno 6908 bound_to 6896
  151.7212  133.3278  159.3352 H   0  0  0  0  0  0  0  0  0  0  0  0  # atno 6909 bound_to 6896
  145.3857  139.2371  143.3379 H   0  0  0  0  0  0  0  0  0  0  0  0  # atno 7974 bound_to 7965
  156.1216  140.1497  156.9196 H   0  0  0  0  0  0  0  0  0  0  0  0  # atno 8008 bound_to 7997
  154.4840  140.0871  156.7485 H   0  0  0  0  0  0  0  0  0  0  0  0  # atno 8009 bound_to 7997
  155.4418  140.3431  155.4293 H   0  0  0  0  0  0  0  0  0  0  0  0  # atno 8010 bound_to 7997
  139.7317  143.8798  152.2536 H   0  0  0  0  0  0  0  0  0  0  0  0  # atno 10167 bound_to 10162
  157.1205  131.0491  151.2417 H   0  0  0  0  0  0  0  0  0  0  0  0  # atno 10718 bound_to 10713
  153.0062  135.5387  154.6536 H   0  0  0  0  0  0  0  0  0  0  0  0  # atno 10763 bound_to 10752
  154.5762  135.2846  155.0781 H   0  0  0  0  0  0  0  0  0  0  0  0  # atno 10764 bound_to 10752
  154.1927  135.6497  153.5117 H   0  0  0  0  0  0  0  0  0  0  0  0  # atno 10765 bound_to 10752
  140.8326  133.7986  155.9774 H   0  0  0  0  0  0  0  0  0  0  0  0  # atno 11005 bound_to 11000
  146.2821  140.4532  142.8772 LP  0  0  0  0  0  0  0  0  0  0  0  0  # atno 17320 bound_to 7965
  144.8476  140.6952  143.6189 LP  0  0  0  0  0  0  0  0  0  0  0  0  # atno 17321 bound_to 7965
  139.8723  144.7062  150.8973 LP  0  0  0  0  0  0  0  0  0  0  0  0  # atno 17342 bound_to 10162
  140.7772  143.3728  151.1618 LP  0  0  0  0  0  0  0  0  0  0  0  0  # atno 17343 bound_to 10162
  157.4481  130.7582  149.7127 LP  0  0  0  0  0  0  0  0  0  0  0  0  # atno 17370 bound_to 10713
  155.9830  130.4005  150.3389 LP  0  0  0  0  0  0  0  0  0  0  0  0  # atno 17371 bound_to 10713
  140.8982  134.2411  157.5057 LP  0  0  0  0  0  0  0  0  0  0  0  0  # atno 17394 bound_to 11000
  139.8704  134.9694  156.4664 LP  0  0  0  0  0  0  0  0  0  0  0  0  # atno 17395 bound_to 11000

$$$$
