AV-unprocessed.smi:655|AV-procd|sdf|3217|dock3
  -GOLD-   22720 0153D 1   1.00000     0.00000
 Structure written by MMmdl.
 34 35  0  0  0  0  0  0  0  0  2 V2000
  152.4962  143.7997  162.4603 C   0  0  0  0  0  0  0  0  0  0  0  0
  152.3408  144.1212  160.9671 C   0  0  2  0  0  0  0  0  0  0  0  0
  150.8659  144.3500  160.5913 C   0  0  0  0  0  0  0  0  0  0  0  0
  150.6968  144.6630  159.0927 C   0  0  0  0  0  0  0  0  0  0  0  0
  151.3138  143.5748  158.1803 C   0  0  2  0  0  0  0  0  0  0  0  0
  151.3799  144.1011  156.8684 O   0  0  0  0  0  0  0  0  0  0  0  0
  150.5164  142.2369  158.1079 C   0  0  0  0  0  0  0  0  0  0  0  0
  151.0994  141.2126  157.2176 N   0  0  0  0  0  0  0  0  0  0  0  0
  151.9352  140.2498  157.8122 C   0  0  0  0  0  0  0  0  0  0  0  0
  152.5196  139.2654  157.1027 C   0  0  0  0  0  0  0  0  0  0  0  0
  153.5445  138.1033  157.8669 Cl  0  0  0  0  0  0  0  0  0  0  0  0
  152.2576  139.2086  155.6670 C   0  0  0  0  0  0  0  0  0  0  0  0
  152.7887  138.3337  154.9844 O   0  0  0  0  0  0  0  0  0  0  0  0
  151.4169  140.1455  155.1402 N   0  5  0  0  0  0  0  0  0  0  0  0
  150.8221  141.1311  155.8806 C   0  0  0  0  0  0  0  0  0  0  0  0
  150.0470  141.9430  155.3777 O   0  0  0  0  0  0  0  0  0  0  0  0
  152.7858  143.3306  158.5909 C   0  0  0  0  0  0  0  0  0  0  0  0
  152.9481  143.0137  160.0878 C   0  0  0  0  0  0  0  0  0  0  0  0
  151.9658  142.8845  162.7257 H   0  0  0  0  0  0  0  0  0  0  0  0
  152.0998  144.6052  163.0790 H   0  0  0  0  0  0  0  0  0  0  0  0
  153.5450  143.6656  162.7260 H   0  0  0  0  0  0  0  0  0  0  0  0
  152.8861  145.0455  160.7707 H   0  0  0  0  0  0  0  0  0  0  0  0
  150.2876  143.4673  160.8583 H   0  0  0  0  0  0  0  0  0  0  0  0
  150.4553  145.1708  161.1800 H   0  0  0  0  0  0  0  0  0  0  0  0
  149.6445  144.8224  158.8578 H   0  0  0  0  0  0  0  0  0  0  0  0
  151.1869  145.6173  158.8929 H   0  0  0  0  0  0  0  0  0  0  0  0
  150.5034  144.3249  156.5949 H   0  0  0  0  0  0  0  0  0  0  0  0
  150.4270  141.8152  159.1106 H   0  0  0  0  0  0  0  0  0  0  0  0
  149.4857  142.4383  157.8161 H   0  0  0  0  0  0  0  0  0  0  0  0
  152.0705  140.3596  158.8783 H   0  0  0  0  0  0  0  0  0  0  0  0
  153.2180  142.5261  157.9943 H   0  0  0  0  0  0  0  0  0  0  0  0
  153.3793  144.2192  158.3682 H   0  0  0  0  0  0  0  0  0  0  0  0
  154.0075  142.8977  160.3188 H   0  0  0  0  0  0  0  0  0  0  0  0
  152.4816  142.0561  160.3199 H   0  0  0  0  0  0  0  0  0  0  0  0
  1  2  1  0  0  0  0
  1 19  1  0  0  0  0
  1 20  1  0  0  0  0
  1 21  1  0  0  0  0
  2 18  1  0  0  0  0
  2  3  1  0  0  0  0
  2 22  1  0  0  0  0
  3  4  1  0  0  0  0
  3 23  1  0  0  0  0
  3 24  1  0  0  0  0
  4  5  1  0  0  0  0
  4 25  1  0  0  0  0
  4 26  1  0  0  0  0
  5  6  1  0  0  0  0
  5  7  1  0  0  0  0
  5 17  1  0  0  0  0
  6 27  1  0  0  0  0
  7  8  1  0  0  0  0
  7 28  1  0  0  0  0
  7 29  1  0  0  0  0
  8 15  1  0  0  0  0
  8  9  1  0  0  0  0
  9 10  2  0  0  0  0
  9 30  1  0  0  0  0
 10 11  1  0  0  0  0
 10 12  1  0  0  0  0
 12 13  2  0  0  0  0
 12 14  1  0  0  0  0
 14 15  1  0  0  0  0
 15 16  2  0  0  0  0
 17 18  1  0  0  0  0
 17 31  1  0  0  0  0
 17 32  1  0  0  0  0
 18 33  1  0  0  0  0
 18 34  1  0  0  0  0
M  CHG  1  14  -1
M  END
> <s_m_source_file>
AV-unprocessed.smi

> <i_m_source_file_index>
655

> <i_lp_mmshare_version>
43012

> <i_f3d_flags>
0

> <s_epik_input>
W0NIMl0xW0NIMl1bQ0BIXShbQ0gzXSlbQ0gyXVtDSDJdW0NAQF0xKFtPSF0pW0NIMl1uMltjSF1jKENsKWMoPU8pW25IXWMyPU8=

> <s_epik_cmdline>
J2VwaWtfcHl0aG9uJywgJy1waCcsICc3LjAnLCAnLXRuJywgJzgnLCAnLW1hJywgJzIwMCcsICctbWV0YWxfYmluZGluZycsICctaW1hZScsICc8aW5maWxlLm1hZT4nLCAnLW9tYWUnLCAnPG91dGZpbGUubWFlPic=

> <r_epik_Ionization_Penalty>
2.34257

> <r_epik_Ionization_Penalty_Charging>
1.00552e-07

> <r_epik_Ionization_Penalty_Neutral>
2.34257

> <r_epik_State_Penalty>
2.4963

> <r_epik_Charging_Adjusted_Penalty>
2.4963

> <i_epik_Tot_Q>
-1

> <i_epik_Tot_abs_Q>
1

> <r_epik_Metal_State_Penalty>
0.0381881

> <b_epik_Metal_Only>
0

> <s_lp_Force_Field>
OPLS_2005

> <r_lp_Energy>
26.7084

> <b_lp_Chiralities_Consistent>
1

> <s_lp_Variant>
AV-unprocessed.smi:655-4

> <Gold.Version>
5.8.1

> <Gold.Id.Protein>
6NUR|6NUR_protein|mol2

> <Gold.PLP.Fitness>
43.5651

> <Gold.PLP.PLP>
-38.2157

> <Gold.PLP.part.hbond>
-2.1349

> <Gold.PLP.part.metal>
0.0000

> <Gold.PLP.part.buried>
-4.7170

> <Gold.PLP.part.nonpolar>
-32.0005

> <Gold.PLP.part.repulsive>
1.3245

> <Gold.PLP.ligand.clash>
0.0000

> <Gold.PLP.ligand.torsion>
0.3649

> <Gold.PLP.Chemscore.Hbond>
2.0000

> <Gold.PLP.Chemscore.CHOScore>
0.0000

> <Gold.PLP.Chemscore.Metal>
0.0000

> <Gold.Chemscore.Hbonds>
donor molecule, donor type, donor heavy atom, donor atom, acceptor molecule, acceptor atom, score
      L1  H     6    27       P1  8028  1.00
      P1  H  7989  7998       L1    14  1.00

> <Gold.PLP.Chemscore.Internal.Correction>
0.0791

> <Gold.Rescore>
     Score         DG    S(hbond)    S(metal)    S(lipo)     H(rot)  DE(clash)    DE(int)     intcor
     16.41     -16.93       1.28        0.00     101.05       1.81       0.15       0.37       ----

> <Gold.Chemscore.Fitness>
16.4106

> <Gold.Chemscore.DG>
-16.9330

> <Gold.Chemscore.ZeroCoef>
-5.4800

> <Gold.Chemscore.Hbond>
1.2760

> <Gold.Chemscore.Metal>
0.0000

> <Gold.Chemscore.Lipo>
101.0497

> <Gold.Chemscore.Internal_Hbond>
0.0000

> <Gold.Chemscore.DEClash>
0.1504

> <Gold.Chemscore.DEInternal>
0.3719

> <Gold.Chemscore.Rot>
1.8092

> <Gold.Chemscore.Internal.Correction>
   9.000000E+99

> <Gold.Chemscore.Hbonds>
donor molecule, donor type, donor heavy atom, donor atom, acceptor molecule, acceptor atom, score
      L1  H     6    27       P1  8028  0.99
      P1  H  7989  7998       L1    14  0.48

> <Gold.Chemscore.Hbond.Weighted>
-4.2617

> <Gold.Chemscore.Metal.Weighted>
-0.0000

> <Gold.Chemscore.Lipo.Weighted>
-11.8228

> <Gold.Chemscore.Internal_Hbond.Weighted>
0.0000

> <Gold.Chemscore.DEClash.Weighted>
0.1504

> <Gold.Chemscore.DEInternal.Weighted>
0.3719

> <Gold.Chemscore.Rot.Weighted>
4.6316

> <Gold.Chemscore.Internal.Correction.Weighted>
   9.000000E+99

> <Gold.Protein.RotatedTorsions>
[ 6907 6896 6895 6894 ] final  -13.49 input  -60.11 | X-H torsion
[ 7974 7965 7964 7962 ] final  151.18 input  175.53 | X-H torsion
[ 8008 7997 7996 7995 ] final  -69.20 input   59.86 | X-H torsion
[ 10167 10162 10161 10158 ] final  -34.46 input  -65.29 | X-H torsion
[ 10718 10713 10712 10709 ] final   73.82 input   66.30 | X-H torsion
[ 10763 10752 10751 10750 ] final  113.69 input  -60.55 | X-H torsion
[ 11005 11000 10999 10996 ] final  -99.26 input  -57.11 | X-H torsion

> <Gold.Protein.ActiveResidues>
 VAL166  LYS551  ARG553  GLY616  TRP617  ASP618  TYR619  PRO620  LYS621  CYS622 
 ASP623  PHE694  ASN695  SER759  ASP760  ASP761  ALA762  ILE779  LEU786  VAL792 
 PHE793  MET794  SER795  GLU796  ALA797  LYS798  CYS799  TRP800  GLU811  SER814 

> <Gold.Protein.RotatedAtoms>
  151.3542  135.0890  159.9412 H   0  0  0  0  0  0  0  0  0  0  0  0  # atno 6907 bound_to 6896
  152.5179  133.9322  159.7596 H   0  0  0  0  0  0  0  0  0  0  0  0  # atno 6908 bound_to 6896
  150.9704  133.6296  159.2768 H   0  0  0  0  0  0  0  0  0  0  0  0  # atno 6909 bound_to 6896
  144.8311  139.6504  143.6058 H   0  0  0  0  0  0  0  0  0  0  0  0  # atno 7974 bound_to 7965
  154.4922  140.0858  156.7618 H   0  0  0  0  0  0  0  0  0  0  0  0  # atno 8008 bound_to 7997
  155.4204  140.3445  155.4252 H   0  0  0  0  0  0  0  0  0  0  0  0  # atno 8009 bound_to 7997
  156.1345  140.1511  156.9003 H   0  0  0  0  0  0  0  0  0  0  0  0  # atno 8010 bound_to 7997
  140.7185  143.3546  151.2085 H   0  0  0  0  0  0  0  0  0  0  0  0  # atno 10167 bound_to 10162
  157.6565  130.9647  150.1123 H   0  0  0  0  0  0  0  0  0  0  0  0  # atno 10718 bound_to 10713
  153.4962  135.3648  155.2517 H   0  0  0  0  0  0  0  0  0  0  0  0  # atno 10763 bound_to 10752
  154.8750  135.3989  154.3532 H   0  0  0  0  0  0  0  0  0  0  0  0  # atno 10764 bound_to 10752
  153.4160  135.7079  153.6392 H   0  0  0  0  0  0  0  0  0  0  0  0  # atno 10765 bound_to 10752
  141.1315  133.8308  157.0948 H   0  0  0  0  0  0  0  0  0  0  0  0  # atno 11005 bound_to 11000
  146.2613  139.6418  142.9360 LP  0  0  0  0  0  0  0  0  0  0  0  0  # atno 17320 bound_to 7965
  145.4894  141.0438  143.2601 LP  0  0  0  0  0  0  0  0  0  0  0  0  # atno 17321 bound_to 7965
  139.7085  143.9416  152.2937 LP  0  0  0  0  0  0  0  0  0  0  0  0  # atno 17342 bound_to 10162
  139.9133  144.6843  150.8539 LP  0  0  0  0  0  0  0  0  0  0  0  0  # atno 17343 bound_to 10162
  156.2016  130.3660  149.8781 LP  0  0  0  0  0  0  0  0  0  0  0  0  # atno 17370 bound_to 10713
  156.6683  130.8810  151.3558 LP  0  0  0  0  0  0  0  0  0  0  0  0  # atno 17371 bound_to 10713
  140.0370  134.9873  157.0889 LP  0  0  0  0  0  0  0  0  0  0  0  0  # atno 17394 bound_to 11000
  140.4195  134.1896  155.7164 LP  0  0  0  0  0  0  0  0  0  0  0  0  # atno 17395 bound_to 11000

$$$$
