AV-unprocessed.smi:2525|AV-procd|sdf|9931|dock3
  -GOLD-   2272013573D 1   1.00000     0.00000
 Structure written by MMmdl.
 44 45  0  0  0  0  0  0  0  0  1 V2000
  147.2516  132.2413  157.2020 C   0  0  0  0  0  0  0  0  0  0  0  0
  147.7452  131.6236  155.8826 C   0  0  0  0  0  0  0  0  0  0  0  0
  148.7577  132.4537  155.0560 C   0  0  0  0  0  0  0  0  0  0  0  0
  149.2304  131.5514  153.8798 C   0  0  0  0  0  0  0  0  0  0  0  0
  149.9647  130.2535  154.2668 C   0  0  0  0  0  0  0  0  0  0  0  0
  148.3335  133.9002  154.6629 C   0  0  2  0  0  0  0  0  0  0  0  0
  147.8884  134.0374  153.2801 N   0  0  0  0  0  0  0  0  0  0  0  0
  146.8474  133.3850  152.7430 C   0  0  0  0  0  0  0  0  0  0  0  0
  146.1321  132.6086  153.3755 O   0  0  0  0  0  0  0  0  0  0  0  0
  146.5730  133.6441  151.2612 C   0  0  0  0  0  0  0  0  0  0  0  0
  145.4029  132.9119  150.8106 N   0  0  0  0  0  0  0  0  0  0  0  0
  144.1950  133.4092  150.3644 C   0  0  0  0  0  0  0  0  0  0  0  0
  143.4795  132.2848  150.0664 C   0  0  0  0  0  0  0  0  0  0  0  0
  144.2678  131.1680  150.3389 N   0  0  0  0  0  0  0  0  0  0  0  0
  145.4204  131.5571  150.7859 N   0  0  0  0  0  0  0  0  0  0  0  0
  149.7743  134.3753  154.8883 C   0  0  1  0  0  0  0  0  0  0  0  0
  150.0075  135.7933  155.3953 C   0  0  0  0  0  0  0  0  0  0  0  0
  149.8695  133.1873  155.8601 C   0  0  2  0  0  0  0  0  0  0  0  0
  151.1192  132.5153  155.8465 O   0  0  0  0  0  0  0  0  0  0  0  0
  151.2118  131.4737  156.8022 C   0  0  0  0  0  0  0  0  0  0  0  0
  146.6281  131.5287  157.7422 H   0  0  0  0  0  0  0  0  0  0  0  0
  146.6398  133.1264  157.0277 H   0  0  0  0  0  0  0  0  0  0  0  0
  148.0736  132.5159  157.8619 H   0  0  0  0  0  0  0  0  0  0  0  0
  148.1898  130.6590  156.1287 H   0  0  0  0  0  0  0  0  0  0  0  0
  146.8642  131.3975  155.2803 H   0  0  0  0  0  0  0  0  0  0  0  0
  148.3767  131.2741  153.2602 H   0  0  0  0  0  0  0  0  0  0  0  0
  149.8891  132.1113  153.2162 H   0  0  0  0  0  0  0  0  0  0  0  0
  150.3367  129.7504  153.3742 H   0  0  0  0  0  0  0  0  0  0  0  0
  149.3056  129.5501  154.7751 H   0  0  0  0  0  0  0  0  0  0  0  0
  150.8212  130.4361  154.9136 H   0  0  0  0  0  0  0  0  0  0  0  0
  147.6631  134.3747  155.3806 H   0  0  0  0  0  0  0  0  0  0  0  0
  148.4203  134.6581  152.6876 H   0  0  0  0  0  0  0  0  0  0  0  0
  146.4195  134.7105  151.0880 H   0  0  0  0  0  0  0  0  0  0  0  0
  147.4336  133.3419  150.6629 H   0  0  0  0  0  0  0  0  0  0  0  0
  143.9640  134.4623  150.2997 H   0  0  0  0  0  0  0  0  0  0  0  0
  142.4749  132.1864  149.6820 H   0  0  0  0  0  0  0  0  0  0  0  0
  150.3831  134.1791  154.0039 H   0  0  0  0  0  0  0  0  0  0  0  0
  149.4525  135.9843  156.3140 H   0  0  0  0  0  0  0  0  0  0  0  0
  149.6864  136.5304  154.6593 H   0  0  0  0  0  0  0  0  0  0  0  0
  151.0610  135.9781  155.6005 H   0  0  0  0  0  0  0  0  0  0  0  0
  149.5486  133.4481  156.8705 H   0  0  0  0  0  0  0  0  0  0  0  0
  152.1766  130.9764  156.7044 H   0  0  0  0  0  0  0  0  0  0  0  0
  150.4321  130.7262  156.6501 H   0  0  0  0  0  0  0  0  0  0  0  0
  151.1383  131.8577  157.8191 H   0  0  0  0  0  0  0  0  0  0  0  0
  1  2  1  0  0  0  0
  1 21  1  0  0  0  0
  1 22  1  0  0  0  0
  1 23  1  0  0  0  0
  2  3  1  0  0  0  0
  2 24  1  0  0  0  0
  2 25  1  0  0  0  0
  3 18  1  0  0  0  0
  3  4  1  0  0  0  0
  3  6  1  0  0  0  0
  4  5  1  0  0  0  0
  4 26  1  0  0  0  0
  4 27  1  0  0  0  0
  5 28  1  0  0  0  0
  5 29  1  0  0  0  0
  5 30  1  0  0  0  0
  6  7  1  0  0  0  0
  6 16  1  0  0  0  0
  6 31  1  0  0  0  0
  7  8  1  0  0  0  0
  7 32  1  0  0  0  0
  8  9  2  0  0  0  0
  8 10  1  0  0  0  0
 10 11  1  0  0  0  0
 10 33  1  0  0  0  0
 10 34  1  0  0  0  0
 11 15  1  0  0  0  0
 11 12  1  0  0  0  0
 12 13  2  0  0  0  0
 12 35  1  0  0  0  0
 13 14  1  0  0  0  0
 13 36  1  0  0  0  0
 14 15  2  0  0  0  0
 16 17  1  0  0  0  0
 16 18  1  0  0  0  0
 16 37  1  0  0  0  0
 17 38  1  0  0  0  0
 17 39  1  0  0  0  0
 17 40  1  0  0  0  0
 18 19  1  0  0  0  0
 18 41  1  0  0  0  0
 19 20  1  0  0  0  0
 20 42  1  0  0  0  0
 20 43  1  0  0  0  0
 20 44  1  0  0  0  0
M  END
> <s_m_source_file>
AV-unprocessed.smi

> <i_m_source_file_index>
2525

> <i_lp_mmshare_version>
43012

> <i_f3d_flags>
0

> <s_epik_input>
W0NIM11PW0NAQEhdMVtDQEhdKFtDSDNdKVtDQEBIXShDMShbQ0gyXVtDSDNdKVtDSDJdW0NIM10pW05IXUMoPU8pW0NIMl1uMltjSF1bY0hdbm4y

> <s_epik_cmdline>
J2VwaWtfcHl0aG9uJywgJy1waCcsICc3LjAnLCAnLXRuJywgJzgnLCAnLW1hJywgJzIwMCcsICctbWV0YWxfYmluZGluZycsICctaW1hZScsICc8aW5maWxlLm1hZT4nLCAnLW9tYWUnLCAnPG91dGZpbGUubWFlPic=

> <r_lp_tautomer_probability>
1

> <r_epik_Ionization_Penalty>
1.18045e-06

> <r_epik_Ionization_Penalty_Charging>
0

> <r_epik_Ionization_Penalty_Neutral>
1.18045e-06

> <r_epik_State_Penalty>
-0

> <r_epik_Charging_Adjusted_Penalty>
0

> <i_epik_Tot_Q>
0

> <i_epik_Tot_abs_Q>
0

> <r_epik_Metal_State_Penalty>
-0

> <b_epik_Metal_Only>
0

> <s_lp_Force_Field>
OPLS_2005

> <r_lp_Energy>
27.6116

> <b_lp_Chiralities_Consistent>
1

> <s_lp_Variant>
AV-unprocessed.smi:2525-6

> <Gold.Version>
5.8.1

> <Gold.Id.Protein>
6NUR|6NUR_protein|mol2

> <Gold.PLP.Fitness>
36.9642

> <Gold.PLP.PLP>
-28.2689

> <Gold.PLP.part.hbond>
-2.0000

> <Gold.PLP.part.metal>
0.0000

> <Gold.PLP.part.buried>
-4.0462

> <Gold.PLP.part.nonpolar>
-23.6502

> <Gold.PLP.part.repulsive>
0.3506

> <Gold.PLP.ligand.clash>
0.0000

> <Gold.PLP.ligand.torsion>
0.4630

> <Gold.PLP.Chemscore.Hbond>
1.2037

> <Gold.PLP.Chemscore.CHOScore>
1.8006

> <Gold.PLP.Chemscore.Metal>
0.0000

> <Gold.Chemscore.Hbonds>
donor molecule, donor type, donor heavy atom, donor atom, acceptor molecule, acceptor atom, score
      L1  H     7    32       P1  7948  1.00
      P1  H 10785 10796       L1    14  0.15
      L1  C    13    36       P1 10186  0.50
      L1  C    13    36       P1 10952  1.00

> <Gold.PLP.Chemscore.Internal.Correction>
0.6082

> <Gold.Rescore>
     Score         DG    S(hbond)    S(metal)    S(lipo)     H(rot)  DE(clash)    DE(int)     intcor
      8.99     -10.69       0.88        0.00      62.63       1.98       0.00       1.69       ----

> <Gold.Chemscore.Fitness>
8.9911

> <Gold.Chemscore.DG>
-10.6876

> <Gold.Chemscore.ZeroCoef>
-5.4800

> <Gold.Chemscore.Hbond>
0.8841

> <Gold.Chemscore.Metal>
0.0000

> <Gold.Chemscore.Lipo>
62.6322

> <Gold.Chemscore.Internal_Hbond>
0.0000

> <Gold.Chemscore.DEClash>
0.0019

> <Gold.Chemscore.DEInternal>
1.6946

> <Gold.Chemscore.Rot>
1.9817

> <Gold.Chemscore.Internal.Correction>
   9.000000E+99

> <Gold.Chemscore.Hbonds>
donor molecule, donor type, donor heavy atom, donor atom, acceptor molecule, acceptor atom, score
      L1  H     7    32       P1  7948  0.26
      P1  H 10785 10796       L1    14  0.01

> <Gold.Chemscore.Hbond.Weighted>
-2.9528

> <Gold.Chemscore.Metal.Weighted>
-0.0000

> <Gold.Chemscore.Lipo.Weighted>
-7.3280

> <Gold.Chemscore.Internal_Hbond.Weighted>
0.0000

> <Gold.Chemscore.DEClash.Weighted>
0.0019

> <Gold.Chemscore.DEInternal.Weighted>
1.6946

> <Gold.Chemscore.Rot.Weighted>
5.0731

> <Gold.Chemscore.Internal.Correction.Weighted>
   9.000000E+99

> <Gold.Protein.RotatedTorsions>
[ 6907 6896 6895 6894 ] final  121.03 input  -60.11 | X-H torsion
[ 7974 7965 7964 7962 ] final   90.15 input  175.53 | X-H torsion
[ 8008 7997 7996 7995 ] final -159.31 input   59.86 | X-H torsion
[ 10167 10162 10161 10158 ] final -120.97 input  -65.29 | X-H torsion
[ 10718 10713 10712 10709 ] final  -57.23 input   66.30 | X-H torsion
[ 10763 10752 10751 10750 ] final  132.31 input  -60.55 | X-H torsion
[ 11005 11000 10999 10996 ] final   67.32 input  -57.11 | X-H torsion

> <Gold.Protein.ActiveResidues>
 VAL166  LYS551  ARG553  GLY616  TRP617  ASP618  TYR619  PRO620  LYS621  CYS622 
 ASP623  PHE694  ASN695  SER759  ASP760  ASP761  ALA762  ILE779  LEU786  VAL792 
 PHE793  MET794  SER795  GLU796  ALA797  LYS798  CYS799  TRP800  GLU811  SER814 

> <Gold.Protein.RotatedAtoms>
  152.4353  133.7350  159.6608 H   0  0  0  0  0  0  0  0  0  0  0  0  # atno 6907 bound_to 6896
  150.8236  133.8199  159.3134 H   0  0  0  0  0  0  0  0  0  0  0  0  # atno 6908 bound_to 6896
  151.5874  135.1057  160.0083 H   0  0  0  0  0  0  0  0  0  0  0  0  # atno 6909 bound_to 6896
  145.5229  139.2280  143.2662 H   0  0  0  0  0  0  0  0  0  0  0  0  # atno 7974 bound_to 7965
  155.7607  140.0839  157.2156 H   0  0  0  0  0  0  0  0  0  0  0  0  # atno 8008 bound_to 7997
  154.4004  140.1543  156.2886 H   0  0  0  0  0  0  0  0  0  0  0  0  # atno 8009 bound_to 7997
  155.8842  140.3419  155.5912 H   0  0  0  0  0  0  0  0  0  0  0  0  # atno 8010 bound_to 7997
  140.0301  143.5257  152.2180 H   0  0  0  0  0  0  0  0  0  0  0  0  # atno 10167 bound_to 10162
  156.1226  130.4165  150.0413 H   0  0  0  0  0  0  0  0  0  0  0  0  # atno 10718 bound_to 10713
  153.7887  135.3158  155.3375 H   0  0  0  0  0  0  0  0  0  0  0  0  # atno 10763 bound_to 10752
  154.8134  135.4652  154.0580 H   0  0  0  0  0  0  0  0  0  0  0  0  # atno 10764 bound_to 10752
  153.1891  135.6905  153.8462 H   0  0  0  0  0  0  0  0  0  0  0  0  # atno 10765 bound_to 10752
  139.9778  134.6793  156.0320 H   0  0  0  0  0  0  0  0  0  0  0  0  # atno 11005 bound_to 11000
  146.2094  140.6042  142.9066 LP  0  0  0  0  0  0  0  0  0  0  0  0  # atno 17320 bound_to 7965
  144.7666  140.5545  143.6698 LP  0  0  0  0  0  0  0  0  0  0  0  0  # atno 17321 bound_to 7965
  139.6082  144.7602  151.3014 LP  0  0  0  0  0  0  0  0  0  0  0  0  # atno 17342 bound_to 10162
  140.7305  143.6876  150.7948 LP  0  0  0  0  0  0  0  0  0  0  0  0  # atno 17343 bound_to 10162
  156.8347  130.9405  151.3635 LP  0  0  0  0  0  0  0  0  0  0  0  0  # atno 17370 bound_to 10713
  157.6409  130.8805  149.9447 LP  0  0  0  0  0  0  0  0  0  0  0  0  # atno 17371 bound_to 10713
  141.1453  133.6557  156.3850 LP  0  0  0  0  0  0  0  0  0  0  0  0  # atno 17394 bound_to 11000
  140.5159  134.6351  157.5301 LP  0  0  0  0  0  0  0  0  0  0  0  0  # atno 17395 bound_to 11000

$$$$
