AV-unprocessed.smi:1228|AV-procd|sdf|5147|dock7
  -GOLD-   22720 4213D 1   1.00000     0.00000
 Structure written by MMmdl.
 44 46  0  0  0  0  0  0  0  0  2 V2000
  136.5606  139.9643  153.7590 C   0  0  0  0  0  0  0  0  0  0  0  0
  138.0607  139.9586  153.7702 C   0  0  0  0  0  0  0  0  0  0  0  0
  138.9390  138.9977  153.1899 C   0  0  0  0  0  0  0  0  0  0  0  0
  140.1757  139.4915  153.5040 C   0  0  0  0  0  0  0  0  0  0  0  0
  141.4009  138.9864  153.1999 N   0  0  0  0  0  0  0  0  0  0  0  0
  141.8204  137.7100  153.2564 C   0  0  0  0  0  0  0  0  0  0  0  0
  141.1441  136.7508  153.6278 O   0  0  0  0  0  0  0  0  0  0  0  0
  143.0956  137.5995  152.8552 N   0  0  0  0  0  0  0  0  0  0  0  0
  143.8458  136.3486  152.7841 C   0  0  2  0  0  0  0  0  0  0  0  0
  145.0986  136.5046  151.9016 C   0  0  0  0  0  0  0  0  0  0  0  0
  145.8385  135.1649  151.7516 C   0  0  0  0  0  0  0  0  0  0  0  0
  144.9404  134.1169  151.2059 N   0  3  1  0  0  0  0  0  0  0  0  0
  145.6565  132.8482  150.9500 C   0  0  0  0  0  0  0  0  0  0  0  0
  144.7452  131.6496  150.8239 C   0  0  0  0  0  0  0  0  0  0  0  0
  145.5568  131.8544  152.0838 C   0  0  0  0  0  0  0  0  0  0  0  0
  143.7419  133.9202  152.0592 C   0  0  0  0  0  0  0  0  0  0  0  0
  142.9538  135.2316  152.2179 C   0  0  0  0  0  0  0  0  0  0  0  0
  140.0203  140.6603  154.2159 N   0  0  0  0  0  0  0  0  0  0  0  0
  141.0291  141.5453  154.7648 C   0  0  0  0  0  0  0  0  0  0  0  0
  138.7101  140.9437  154.3806 N   0  0  0  0  0  0  0  0  0  0  0  0
  136.1695  139.2073  153.0790 H   0  0  0  0  0  0  0  0  0  0  0  0
  136.1717  140.9306  153.4365 H   0  0  0  0  0  0  0  0  0  0  0  0
  136.1611  139.7570  154.7519 H   0  0  0  0  0  0  0  0  0  0  0  0
  138.6822  138.1055  152.6389 H   0  0  0  0  0  0  0  0  0  0  0  0
  142.0791  139.6654  152.8876 H   0  0  0  0  0  0  0  0  0  0  0  0
  143.5774  138.4386  152.5671 H   0  0  0  0  0  0  0  0  0  0  0  0
  144.1534  136.0614  153.7918 H   0  0  0  0  0  0  0  0  0  0  0  0
  144.8150  136.8754  150.9153 H   0  0  0  0  0  0  0  0  0  0  0  0
  145.7732  137.2477  152.3289 H   0  0  0  0  0  0  0  0  0  0  0  0
  146.6948  135.2941  151.0887 H   0  0  0  0  0  0  0  0  0  0  0  0
  146.2316  134.8428  152.7174 H   0  0  0  0  0  0  0  0  0  0  0  0
  146.5645  132.9170  150.3530 H   0  0  0  0  0  0  0  0  0  0  0  0
  143.6702  131.8085  150.8887 H   0  0  0  0  0  0  0  0  0  0  0  0
  145.0570  130.8499  150.1552 H   0  0  0  0  0  0  0  0  0  0  0  0
  146.4033  131.1897  152.2446 H   0  0  0  0  0  0  0  0  0  0  0  0
  145.0205  132.1499  152.9838 H   0  0  0  0  0  0  0  0  0  0  0  0
  143.0976  133.1604  151.6154 H   0  0  0  0  0  0  0  0  0  0  0  0
  144.0473  133.5438  153.0370 H   0  0  0  0  0  0  0  0  0  0  0  0
  142.0965  135.0688  152.8722 H   0  0  0  0  0  0  0  0  0  0  0  0
  142.5513  135.5310  151.2489 H   0  0  0  0  0  0  0  0  0  0  0  0
  141.5992  141.0192  155.5307 H   0  0  0  0  0  0  0  0  0  0  0  0
  140.5662  142.4267  155.2108 H   0  0  0  0  0  0  0  0  0  0  0  0
  141.7057  141.8658  153.9724 H   0  0  0  0  0  0  0  0  0  0  0  0
  144.6118  134.4503  150.3110 H   0  0  0  0  0  0  0  0  0  0  0  0
  1  2  1  0  0  0  0
  1 21  1  0  0  0  0
  1 22  1  0  0  0  0
  1 23  1  0  0  0  0
  2 20  2  0  0  0  0
  2  3  1  0  0  0  0
  3  4  2  0  0  0  0
  3 24  1  0  0  0  0
  4  5  1  0  0  0  0
  4 18  1  0  0  0  0
  5  6  1  0  0  0  0
  5 25  1  0  0  0  0
  6  7  2  0  0  0  0
  6  8  1  0  0  0  0
  8  9  1  0  0  0  0
  8 26  1  0  0  0  0
  9 17  1  0  0  0  0
  9 10  1  0  0  0  0
  9 27  1  0  0  0  0
 10 11  1  0  0  0  0
 10 28  1  0  0  0  0
 10 29  1  0  0  0  0
 11 12  1  0  0  0  0
 11 30  1  0  0  0  0
 11 31  1  0  0  0  0
 12 13  1  0  0  0  0
 12 16  1  0  0  0  0
 12 44  1  0  0  0  0
 13 15  1  0  0  0  0
 13 14  1  0  0  0  0
 13 32  1  0  0  0  0
 14 15  1  0  0  0  0
 14 33  1  0  0  0  0
 14 34  1  0  0  0  0
 15 35  1  0  0  0  0
 15 36  1  0  0  0  0
 16 17  1  0  0  0  0
 16 37  1  0  0  0  0
 16 38  1  0  0  0  0
 17 39  1  0  0  0  0
 17 40  1  0  0  0  0
 18 19  1  0  0  0  0
 18 20  1  0  0  0  0
 19 41  1  0  0  0  0
 19 42  1  0  0  0  0
 19 43  1  0  0  0  0
M  CHG  1  12   1
M  END
> <s_m_source_file>
AV-unprocessed.smi

> <i_m_source_file_index>
1228

> <i_lp_mmshare_version>
43012

> <i_f3d_flags>
0

> <s_epik_input>
W0NIM11jMVtjSF1jKG4objEpW0NIM10pW05IXUMoPU8pW05IXVtDSF0yW0NIMl1bQ0gyXU4oW0NIMl1bQ0gyXTIpW0NIXTNbQ0gyXVtDSDJdMw==

> <s_epik_cmdline>
J2VwaWtfcHl0aG9uJywgJy1waCcsICc3LjAnLCAnLXRuJywgJzgnLCAnLW1hJywgJzIwMCcsICctbWV0YWxfYmluZGluZycsICctaW1hZScsICc8aW5maWxlLm1hZT4nLCAnLW9tYWUnLCAnPG91dGZpbGUubWFlPic=

> <r_lp_tautomer_probability>
1

> <r_epik_Ionization_Penalty>
0.11882

> <r_epik_Ionization_Penalty_Charging>
0.11874

> <r_epik_Ionization_Penalty_Neutral>
8.03064e-05

> <r_epik_State_Penalty>
0.108313

> <r_epik_Charging_Adjusted_Penalty>
0.227053

> <i_epik_Tot_Q>
1

> <i_epik_Tot_abs_Q>
1

> <r_epik_Metal_State_Penalty>
0.108316

> <b_epik_Metal_Only>
0

> <s_lp_Force_Field>
OPLS_2005

> <r_lp_Energy>
27.674

> <b_lp_Chiralities_Consistent>
1

> <s_lp_Variant>
AV-unprocessed.smi:1228-1

> <Gold.Version>
5.8.1

> <Gold.Id.Protein>
6NUR|6NUR_protein|mol2

> <Gold.PLP.Fitness>
37.5626

> <Gold.PLP.PLP>
-32.7698

> <Gold.PLP.part.hbond>
-3.1508

> <Gold.PLP.part.metal>
0.0000

> <Gold.PLP.part.buried>
-2.4555

> <Gold.PLP.part.nonpolar>
-27.1674

> <Gold.PLP.part.repulsive>
0.2481

> <Gold.PLP.ligand.clash>
0.0028

> <Gold.PLP.ligand.torsion>
1.2204

> <Gold.PLP.Chemscore.Hbond>
1.9920

> <Gold.PLP.Chemscore.CHOScore>
0.0000

> <Gold.PLP.Chemscore.Metal>
0.0000

> <Gold.Chemscore.Hbonds>
donor molecule, donor type, donor heavy atom, donor atom, acceptor molecule, acceptor atom, score
      L1  H     5    25       P1 10175  1.00
      L1  H     8    26       P1 10175  0.98

> <Gold.PLP.Chemscore.Internal.Correction>
1.2604

> <Gold.Rescore>
     Score         DG    S(hbond)    S(metal)    S(lipo)     H(rot)  DE(clash)    DE(int)     intcor
     13.86     -16.72       1.78        0.00      71.76       1.21       0.03       2.83       ----

> <Gold.Chemscore.Fitness>
13.8610

> <Gold.Chemscore.DG>
-16.7162

> <Gold.Chemscore.ZeroCoef>
-5.4800

> <Gold.Chemscore.Hbond>
1.7777

> <Gold.Chemscore.Metal>
0.0000

> <Gold.Chemscore.Lipo>
71.7572

> <Gold.Chemscore.Internal_Hbond>
0.0000

> <Gold.Chemscore.DEClash>
0.0274

> <Gold.Chemscore.DEInternal>
2.8278

> <Gold.Chemscore.Rot>
1.2097

> <Gold.Chemscore.Internal.Correction>
   9.000000E+99

> <Gold.Chemscore.Hbonds>
donor molecule, donor type, donor heavy atom, donor atom, acceptor molecule, acceptor atom, score
      L1  H     5    25       P1 10175  0.60
      L1  H     8    26       P1 10175  0.90

> <Gold.Chemscore.Hbond.Weighted>
-5.9375

> <Gold.Chemscore.Metal.Weighted>
-0.0000

> <Gold.Chemscore.Lipo.Weighted>
-8.3956

> <Gold.Chemscore.Internal_Hbond.Weighted>
0.0000

> <Gold.Chemscore.DEClash.Weighted>
0.0274

> <Gold.Chemscore.DEInternal.Weighted>
2.8278

> <Gold.Chemscore.Rot.Weighted>
3.0969

> <Gold.Chemscore.Internal.Correction.Weighted>
   9.000000E+99

> <Gold.Protein.RotatedTorsions>
[ 6907 6896 6895 6894 ] final  -70.71 input  -60.11 | X-H torsion
[ 7974 7965 7964 7962 ] final  144.50 input  175.53 | X-H torsion
[ 8008 7997 7996 7995 ] final  -46.61 input   59.86 | X-H torsion
[ 10167 10162 10161 10158 ] final -154.61 input  -65.29 | X-H torsion
[ 10718 10713 10712 10709 ] final   71.29 input   66.30 | X-H torsion
[ 10763 10752 10751 10750 ] final   24.54 input  -60.55 | X-H torsion
[ 11005 11000 10999 10996 ] final  154.06 input  -57.11 | X-H torsion

> <Gold.Protein.ActiveResidues>
 VAL166  LYS551  ARG553  GLY616  TRP617  ASP618  TYR619  PRO620  LYS621  CYS622 
 ASP623  PHE694  ASN695  SER759  ASP760  ASP761  ALA762  ILE779  LEU786  VAL792 
 PHE793  MET794  SER795  GLU796  ALA797  LYS798  CYS799  TRP800  GLU811  SER814 

> <Gold.Protein.RotatedAtoms>
  150.7245  134.5414  159.5748 H   0  0  0  0  0  0  0  0  0  0  0  0  # atno 6907 bound_to 6896
  152.2924  134.7703  160.0384 H   0  0  0  0  0  0  0  0  0  0  0  0  # atno 6908 bound_to 6896
  151.8312  133.3373  159.3651 H   0  0  0  0  0  0  0  0  0  0  0  0  # atno 6909 bound_to 6896
  144.8830  139.5670  143.5834 H   0  0  0  0  0  0  0  0  0  0  0  0  # atno 7974 bound_to 7965
  154.4009  140.1367  156.4039 H   0  0  0  0  0  0  0  0  0  0  0  0  # atno 8008 bound_to 7997
  155.7798  140.3482  155.5271 H   0  0  0  0  0  0  0  0  0  0  0  0  # atno 8009 bound_to 7997
  155.8685  140.0968  157.1556 H   0  0  0  0  0  0  0  0  0  0  0  0  # atno 8010 bound_to 7997
  139.6999  143.9280  152.2424 H   0  0  0  0  0  0  0  0  0  0  0  0  # atno 10167 bound_to 10162
  157.6444  130.9521  150.0769 H   0  0  0  0  0  0  0  0  0  0  0  0  # atno 10718 bound_to 10713
  153.0756  135.6603  154.0153 H   0  0  0  0  0  0  0  0  0  0  0  0  # atno 10763 bound_to 10752
  153.9788  135.2957  155.3423 H   0  0  0  0  0  0  0  0  0  0  0  0  # atno 10764 bound_to 10752
  154.7143  135.5192  153.8784 H   0  0  0  0  0  0  0  0  0  0  0  0  # atno 10765 bound_to 10752
  140.1455  134.8710  157.2386 H   0  0  0  0  0  0  0  0  0  0  0  0  # atno 11005 bound_to 11000
  146.3007  139.7417  142.9093 LP  0  0  0  0  0  0  0  0  0  0  0  0  # atno 17320 bound_to 7965
  145.3919  141.0373  143.3119 LP  0  0  0  0  0  0  0  0  0  0  0  0  # atno 17321 bound_to 7965
  139.9120  144.6851  150.8552 LP  0  0  0  0  0  0  0  0  0  0  0  0  # atno 17342 bound_to 10162
  140.7707  143.3437  151.2156 LP  0  0  0  0  0  0  0  0  0  0  0  0  # atno 17343 bound_to 10162
  156.1757  130.3648  149.9104 LP  0  0  0  0  0  0  0  0  0  0  0  0  # atno 17370 bound_to 10713
  156.7069  130.8955  151.3605 LP  0  0  0  0  0  0  0  0  0  0  0  0  # atno 17371 bound_to 10713
  140.2669  134.3505  155.7387 LP  0  0  0  0  0  0  0  0  0  0  0  0  # atno 17394 bound_to 11000
  141.2192  133.7401  156.9165 LP  0  0  0  0  0  0  0  0  0  0  0  0  # atno 17395 bound_to 11000

$$$$
