AV-unprocessed.smi:5|AV-procd|sdf|38|dock9
  -GOLD-   2262015153D 1   1.00000     0.00000
 Structure written by MMmdl.
 43 44  0  0  0  0  0  0  0  0  2 V2000
  152.3122  144.9799  157.5617 C   0  0  0  0  0  0  0  0  0  0  0  0
  152.3119  143.6073  158.2027 C   0  0  0  0  0  0  0  0  0  0  0  0
  153.0490  143.3177  159.2924 C   0  0  0  0  0  0  0  0  0  0  0  0
  153.0378  141.9509  159.9544 C   0  0  0  0  0  0  0  0  0  0  0  0
  151.8885  141.0775  159.4168 C   0  0  0  0  0  0  0  0  0  0  0  0
  151.8216  141.1945  157.9492 N   0  0  0  0  0  0  0  0  0  0  0  0
  152.2156  140.2486  157.0588 C   0  0  0  0  0  0  0  0  0  0  0  0
  152.9310  139.2922  157.3596 O   0  0  0  0  0  0  0  0  0  0  0  0
  151.7106  140.4007  155.8220 N   0  0  0  0  0  0  0  0  0  0  0  0
  151.7876  139.4107  154.7502 C   0  0  0  0  0  0  0  0  0  0  0  0
  150.5195  138.5670  154.6024 C   0  0  0  0  0  0  0  0  0  0  0  0
  149.3351  139.0472  154.1602 C   0  0  0  0  0  0  0  0  0  0  0  0
  148.1785  138.2551  154.0430 N   0  0  0  0  0  0  0  0  0  0  0  0
  146.9430  138.9122  153.5603 C   0  0  0  0  0  0  0  0  0  0  0  0
  147.0685  139.3119  152.0794 C   0  0  0  0  0  0  0  0  0  0  0  0
  146.5435  140.1005  154.4563 C   0  0  0  0  0  0  0  0  0  0  0  0
  148.2398  136.9279  154.3679 C   0  0  0  0  0  0  0  0  0  0  0  0
  147.2328  136.2292  154.2524 O   0  0  0  0  0  0  0  0  0  0  0  0
  149.4256  136.4114  154.8129 N   0  5  0  0  0  0  0  0  0  0  0  0
  150.5667  137.1456  154.9525 C   0  0  0  0  0  0  0  0  0  0  0  0
  151.6196  136.6513  155.3546 O   0  0  0  0  0  0  0  0  0  0  0  0
  151.4412  142.5529  157.5239 C   0  0  0  0  0  0  0  0  0  0  0  0
  151.2991  145.3813  157.5303 H   0  0  0  0  0  0  0  0  0  0  0  0
  152.6910  144.9209  156.5413 H   0  0  0  0  0  0  0  0  0  0  0  0
  152.9386  145.6787  158.1171 H   0  0  0  0  0  0  0  0  0  0  0  0
  153.6824  144.0693  159.7404 H   0  0  0  0  0  0  0  0  0  0  0  0
  153.9991  141.4717  159.7668 H   0  0  0  0  0  0  0  0  0  0  0  0
  152.9432  142.0716  161.0337 H   0  0  0  0  0  0  0  0  0  0  0  0
  151.9817  140.0557  159.7847 H   0  0  0  0  0  0  0  0  0  0  0  0
  150.9430  141.4377  159.8252 H   0  0  0  0  0  0  0  0  0  0  0  0
  151.1397  141.2142  155.6453 H   0  0  0  0  0  0  0  0  0  0  0  0
  151.9652  139.9396  153.8135 H   0  0  0  0  0  0  0  0  0  0  0  0
  152.6476  138.7569  154.9064 H   0  0  0  0  0  0  0  0  0  0  0  0
  149.1947  140.0752  153.8662 H   0  0  0  0  0  0  0  0  0  0  0  0
  146.1004  138.2221  153.6088 H   0  0  0  0  0  0  0  0  0  0  0  0
  146.1273  139.7153  151.7052 H   0  0  0  0  0  0  0  0  0  0  0  0
  147.3228  138.4490  151.4631 H   0  0  0  0  0  0  0  0  0  0  0  0
  147.8340  140.0717  151.9221 H   0  0  0  0  0  0  0  0  0  0  0  0
  145.5736  140.4993  154.1585 H   0  0  0  0  0  0  0  0  0  0  0  0
  147.2587  140.9216  154.4043 H   0  0  0  0  0  0  0  0  0  0  0  0
  146.4635  139.7929  155.4994 H   0  0  0  0  0  0  0  0  0  0  0  0
  150.3959  142.7363  157.7743 H   0  0  0  0  0  0  0  0  0  0  0  0
  151.5267  142.6883  156.4450 H   0  0  0  0  0  0  0  0  0  0  0  0
  1  2  1  0  0  0  0
  1 23  1  0  0  0  0
  1 24  1  0  0  0  0
  1 25  1  0  0  0  0
  2 22  1  0  0  0  0
  2  3  2  0  0  0  0
  3  4  1  0  0  0  0
  3 26  1  0  0  0  0
  4  5  1  0  0  0  0
  4 27  1  0  0  0  0
  4 28  1  0  0  0  0
  5  6  1  0  0  0  0
  5 29  1  0  0  0  0
  5 30  1  0  0  0  0
  6  7  1  0  0  0  0
  6 22  1  0  0  0  0
  7  8  2  0  0  0  0
  7  9  1  0  0  0  0
  9 10  1  0  0  0  0
  9 31  1  0  0  0  0
 10 11  1  0  0  0  0
 10 32  1  0  0  0  0
 10 33  1  0  0  0  0
 11 20  1  0  0  0  0
 11 12  2  0  0  0  0
 12 13  1  0  0  0  0
 12 34  1  0  0  0  0
 13 14  1  0  0  0  0
 13 17  1  0  0  0  0
 14 15  1  0  0  0  0
 14 16  1  0  0  0  0
 14 35  1  0  0  0  0
 15 36  1  0  0  0  0
 15 37  1  0  0  0  0
 15 38  1  0  0  0  0
 16 39  1  0  0  0  0
 16 40  1  0  0  0  0
 16 41  1  0  0  0  0
 17 18  2  0  0  0  0
 17 19  1  0  0  0  0
 19 20  1  0  0  0  0
 20 21  2  0  0  0  0
 22 42  1  0  0  0  0
 22 43  1  0  0  0  0
M  CHG  1  19  -1
M  END
> <s_m_source_file>
AV-unprocessed.smi

> <i_m_source_file_index>
5

> <i_lp_mmshare_version>
43012

> <i_f3d_flags>
0

> <s_epik_input>
W0NIM11DMT1bQ0hdW0NIMl1bQ0gyXU4oW0NIMl0xKUMoPU8pW05IXVtDSDJdYzJbY0hdbihbQ0hdKFtDSDNdKVtDSDNdKWMoPU8pW25IXWMyPU8=

> <s_epik_cmdline>
J2VwaWtfcHl0aG9uJywgJy1waCcsICc3LjAnLCAnLXRuJywgJzgnLCAnLW1hJywgJzIwMCcsICctbWV0YWxfYmluZGluZycsICctaW1hZScsICc8aW5maWxlLm1hZT4nLCAnLW9tYWUnLCAnPG91dGZpbGUubWFlPic=

> <r_lp_tautomer_probability>
0.999537

> <r_epik_Ionization_Penalty>
3.83548

> <r_epik_Ionization_Penalty_Charging>
1.96903e-07

> <r_epik_Ionization_Penalty_Neutral>
3.83548

> <r_epik_State_Penalty>
3.83512

> <r_epik_Charging_Adjusted_Penalty>
3.83512

> <i_epik_Tot_Q>
-1

> <i_epik_Tot_abs_Q>
1

> <r_epik_Metal_State_Penalty>
0.576105

> <b_epik_Metal_Only>
1

> <s_lp_Force_Field>
OPLS_2005

> <r_lp_Energy>
38.6384

> <b_lp_Chiralities_Consistent>
1

> <s_lp_Variant>
AV-unprocessed.smi:5-2

> <Gold.Version>
5.8.1

> <Gold.Id.Protein>
6NUR|6NUR_protein|mol2

> <Gold.PLP.Fitness>
42.5981

> <Gold.PLP.PLP>
-37.5731

> <Gold.PLP.part.hbond>
-2.0000

> <Gold.PLP.part.metal>
0.0000

> <Gold.PLP.part.buried>
-2.5660

> <Gold.PLP.part.nonpolar>
-32.9965

> <Gold.PLP.part.repulsive>
0.4277

> <Gold.PLP.ligand.clash>
0.0000

> <Gold.PLP.ligand.torsion>
0.5183

> <Gold.PLP.Chemscore.Hbond>
2.0000

> <Gold.PLP.Chemscore.CHOScore>
0.0000

> <Gold.PLP.Chemscore.Metal>
0.0000

> <Gold.Chemscore.Hbonds>
donor molecule, donor type, donor heavy atom, donor atom, acceptor molecule, acceptor atom, score
      P1  H  7997  8010       L1     8  0.94
      P1  H 10752 10764       L1    21  1.00
      L1  C    12    34       P1  7957  0.23

> <Gold.PLP.Chemscore.Internal.Correction>
0.0616

> <Gold.Rescore>
     Score         DG    S(hbond)    S(metal)    S(lipo)     H(rot)  DE(clash)    DE(int)     intcor
     17.42     -19.47       1.70        0.00     102.84       1.46       1.71       0.33       ----

> <Gold.Chemscore.Fitness>
17.4242

> <Gold.Chemscore.DG>
-19.4654

> <Gold.Chemscore.ZeroCoef>
-5.4800

> <Gold.Chemscore.Hbond>
1.7008

> <Gold.Chemscore.Metal>
0.0000

> <Gold.Chemscore.Lipo>
102.8421

> <Gold.Chemscore.Internal_Hbond>
0.0000

> <Gold.Chemscore.DEClash>
1.7087

> <Gold.Chemscore.DEInternal>
0.3325

> <Gold.Chemscore.Rot>
1.4561

> <Gold.Chemscore.Internal.Correction>
   9.000000E+99

> <Gold.Chemscore.Hbonds>
donor molecule, donor type, donor heavy atom, donor atom, acceptor molecule, acceptor atom, score
      P1  H  7997  8010       L1     8  0.27
      P1  H 10752 10764       L1    21  1.00

> <Gold.Chemscore.Hbond.Weighted>
-5.6805

> <Gold.Chemscore.Metal.Weighted>
-0.0000

> <Gold.Chemscore.Lipo.Weighted>
-12.0325

> <Gold.Chemscore.Internal_Hbond.Weighted>
0.0000

> <Gold.Chemscore.DEClash.Weighted>
1.7087

> <Gold.Chemscore.DEInternal.Weighted>
0.3325

> <Gold.Chemscore.Rot.Weighted>
3.7276

> <Gold.Chemscore.Internal.Correction.Weighted>
   9.000000E+99

> <Gold.Protein.RotatedTorsions>
[ 6907 6896 6895 6894 ] final   41.82 input  -60.11 | X-H torsion
[ 7974 7965 7964 7962 ] final  -65.99 input  175.53 | X-H torsion
[ 8008 7997 7996 7995 ] final   28.80 input   59.86 | X-H torsion
[ 10167 10162 10161 10158 ] final  -89.56 input  -65.29 | X-H torsion
[ 10718 10713 10712 10709 ] final  -42.48 input   66.30 | X-H torsion
[ 10763 10752 10751 10750 ] final  -61.64 input  -60.55 | X-H torsion
[ 11005 11000 10999 10996 ] final -102.56 input  -57.11 | X-H torsion

> <Gold.Protein.ActiveResidues>
 VAL166  LYS551  ARG553  GLY616  TRP617  ASP618  TYR619  PRO620  LYS621  CYS622 
 ASP623  PHE694  ASN695  SER759  ASP760  ASP761  ALA762  ILE779  LEU786  VAL792 
 PHE793  MET794  SER795  GLU796  ALA797  LYS798  CYS799  TRP800  GLU811  SER814 

> <Gold.Protein.RotatedAtoms>
  152.2000  134.8596  160.0508 H   0  0  0  0  0  0  0  0  0  0  0  0  # atno 6907 bound_to 6896
  151.9453  133.3645  159.3988 H   0  0  0  0  0  0  0  0  0  0  0  0  # atno 6908 bound_to 6896
  150.6953  134.4321  159.5297 H   0  0  0  0  0  0  0  0  0  0  0  0  # atno 6909 bound_to 6896
  145.7473  140.8925  143.0498 H   0  0  0  0  0  0  0  0  0  0  0  0  # atno 7974 bound_to 7965
  155.0644  140.3193  155.4650 H   0  0  0  0  0  0  0  0  0  0  0  0  # atno 8008 bound_to 7997
  156.2805  140.2123  156.5716 H   0  0  0  0  0  0  0  0  0  0  0  0  # atno 8009 bound_to 7997
  154.7106  140.0498  157.0533 H   0  0  0  0  0  0  0  0  0  0  0  0  # atno 8010 bound_to 7997
  140.3636  143.2829  151.9585 H   0  0  0  0  0  0  0  0  0  0  0  0  # atno 10167 bound_to 10162
  156.2592  130.4195  149.8562 H   0  0  0  0  0  0  0  0  0  0  0  0  # atno 10718 bound_to 10713
  154.2877  135.6259  153.5372 H   0  0  0  0  0  0  0  0  0  0  0  0  # atno 10763 bound_to 10752
  152.9857  135.5648  154.5425 H   0  0  0  0  0  0  0  0  0  0  0  0  # atno 10764 bound_to 10752
  154.5029  135.2873  155.1381 H   0  0  0  0  0  0  0  0  0  0  0  0  # atno 10765 bound_to 10752
  141.1184  133.8569  157.1376 H   0  0  0  0  0  0  0  0  0  0  0  0  # atno 11005 bound_to 11000
  144.6857  139.9543  143.7479 LP  0  0  0  0  0  0  0  0  0  0  0  0  # atno 17320 bound_to 7965
  146.0390  139.3404  143.0709 LP  0  0  0  0  0  0  0  0  0  0  0  0  # atno 17321 bound_to 7965
  139.4811  144.5970  151.7672 LP  0  0  0  0  0  0  0  0  0  0  0  0  # atno 17342 bound_to 10162
  140.5103  144.1035  150.5993 LP  0  0  0  0  0  0  0  0  0  0  0  0  # atno 17343 bound_to 10162
  156.6083  130.8576  151.3448 LP  0  0  0  0  0  0  0  0  0  0  0  0  # atno 17370 bound_to 10713
  157.7244  130.9602  150.1572 LP  0  0  0  0  0  0  0  0  0  0  0  0  # atno 17371 bound_to 10713
  140.0122  134.9983  157.0419 LP  0  0  0  0  0  0  0  0  0  0  0  0  # atno 17394 bound_to 11000
  140.4580  134.1513  155.7188 LP  0  0  0  0  0  0  0  0  0  0  0  0  # atno 17395 bound_to 11000

$$$$
