AV-unprocessed.smi:72|AV-procd|sdf|676|dock8
  -GOLD-   2262016583D 1   1.00000     0.00000
 Structure written by MMmdl.
 29 30  0  0  0  0  0  0  0  0  1 V2000
  151.5514  142.9008  160.1226 N   0  0  0  0  0  0  0  0  0  0  0  0
  151.3612  142.3302  158.9869 C   0  0  0  0  0  0  0  0  0  0  0  0
  150.3943  142.7061  158.0427 N   0  0  0  0  0  0  0  0  0  0  0  0
  150.3238  142.0489  156.9264 C   0  0  0  0  0  0  0  0  0  0  0  0
  151.2262  140.9474  156.6134 N   0  0  0  0  0  0  0  0  0  0  0  0
  151.1485  140.1613  155.3143 C   0  0  1  0  0  0  0  0  0  0  0  0
  151.4009  138.8069  155.5593 O   0  0  0  0  0  0  0  0  0  0  0  0
  150.1704  138.0949  155.6521 C   0  0  2  0  0  0  0  0  0  0  0  0
  150.3875  136.5801  155.4932 C   0  0  0  0  0  0  0  0  0  0  0  0
  151.0195  136.3136  154.2596 O   0  0  0  0  0  0  0  0  0  0  0  0
  149.3347  138.7683  154.5596 C   0  0  2  0  0  0  0  0  0  0  0  0
  149.6670  138.2396  153.2858 O   0  0  0  0  0  0  0  0  0  0  0  0
  149.7295  140.2377  154.7075 C   0  0  2  0  0  0  0  0  0  0  0  0
  149.6792  140.9377  153.4782 O   0  0  0  0  0  0  0  0  0  0  0  0
  152.1809  140.5331  157.5753 C   0  0  0  0  0  0  0  0  0  0  0  0
  152.9396  139.5828  157.3842 O   0  0  0  0  0  0  0  0  0  0  0  0
  152.2115  141.2498  158.7194 N   0  0  0  0  0  0  0  0  0  0  0  0
  151.9371  140.5720  154.6810 H   0  0  0  0  0  0  0  0  0  0  0  0
  149.6996  138.3035  156.6148 H   0  0  0  0  0  0  0  0  0  0  0  0
  148.2659  138.6222  154.7191 H   0  0  0  0  0  0  0  0  0  0  0  0
  149.0557  140.7167  155.4197 H   0  0  0  0  0  0  0  0  0  0  0  0
  150.9065  143.6673  160.2475 H   0  0  0  0  0  0  0  0  0  0  0  0
  149.5829  142.2858  156.1630 H   0  0  0  0  0  0  0  0  0  0  0  0
  151.0420  136.2101  156.2830 H   0  0  0  0  0  0  0  0  0  0  0  0
  149.4482  136.0307  155.5621 H   0  0  0  0  0  0  0  0  0  0  0  0
  150.3801  136.4085  153.5700 H   0  0  0  0  0  0  0  0  0  0  0  0
  149.4400  138.8825  152.6311 H   0  0  0  0  0  0  0  0  0  0  0  0
  149.4630  140.3221  152.7936 H   0  0  0  0  0  0  0  0  0  0  0  0
  152.8881  140.9809  159.4186 H   0  0  0  0  0  0  0  0  0  0  0  0
  1  2  2  0  0  0  0
  1 22  1  0  0  0  0
  2 17  1  0  0  0  0
  2  3  1  0  0  0  0
  3  4  2  0  0  0  0
  4  5  1  0  0  0  0
  4 23  1  0  0  0  0
  5  6  1  0  0  0  0
  5 15  1  0  0  0  0
  6 18  1  0  0  0  0
  6 13  1  0  0  0  0
  6  7  1  0  0  0  0
  7  8  1  0  0  0  0
  8 19  1  0  0  0  0
  8  9  1  0  0  0  0
  8 11  1  0  0  0  0
  9 10  1  0  0  0  0
  9 24  1  0  0  0  0
  9 25  1  0  0  0  0
 10 26  1  0  0  0  0
 11 20  1  0  0  0  0
 11 12  1  0  0  0  0
 11 13  1  0  0  0  0
 12 27  1  0  0  0  0
 13 21  1  0  0  0  0
 13 14  1  0  0  0  0
 14 28  1  0  0  0  0
 15 16  2  0  0  0  0
 15 17  1  0  0  0  0
 17 29  1  0  0  0  0
M  END
> <s_m_source_file>
AV-unprocessed.smi

> <i_m_source_file_index>
72

> <i_lp_mmshare_version>
43012

> <i_f3d_flags>
0

> <s_epik_input>
W05IMl1jMW5bY0hdbihjKD1PKW4xKVtDQEBIXTJPW0NASF0oW0NIMl1bT0hdKVtDQEBIXShbT0hdKVtDQEhdMltPSF0=

> <s_epik_cmdline>
J2VwaWtfcHl0aG9uJywgJy1waCcsICc3LjAnLCAnLXRuJywgJzgnLCAnLW1hJywgJzIwMCcsICctbWV0YWxfYmluZGluZycsICctaW1hZScsICc8aW5maWxlLm1hZT4nLCAnLW9tYWUnLCAnPG91dGZpbGUubWFlPic=

> <r_lp_tautomer_probability>
7.17554e-07

> <r_epik_Ionization_Penalty>
0.0066451

> <r_epik_Ionization_Penalty_Charging>
0.00663793

> <r_epik_Ionization_Penalty_Neutral>
7.17052e-06

> <r_epik_State_Penalty>
0.419231

> <r_epik_Charging_Adjusted_Penalty>
0.425868

> <i_epik_Tot_Q>
0

> <i_epik_Tot_abs_Q>
0

> <r_epik_Metal_State_Penalty>
1.44144

> <b_epik_Metal_Only>
0

> <s_epik_Chemistry_Notes>
This compound contains an acetal/aminal-like group ( X-CH(R)-Y where X, Y are N, S, or O) that may be acid/base labile, releasing an aldehyde.

> <s_lp_Force_Field>
OPLS_2005

> <r_lp_Energy>
42.8821

> <b_lp_Chiralities_Consistent>
1

> <s_lp_Variant>
AV-unprocessed.smi:72-14

> <Gold.Version>
5.8.1

> <Gold.Id.Protein>
6NUR|6NUR_protein|mol2

> <Gold.PLP.Fitness>
42.5917

> <Gold.PLP.PLP>
-27.0181

> <Gold.PLP.part.hbond>
-9.5545

> <Gold.PLP.part.metal>
0.0000

> <Gold.PLP.part.buried>
-1.2601

> <Gold.PLP.part.nonpolar>
-16.1734

> <Gold.PLP.part.repulsive>
0.2366

> <Gold.PLP.ligand.clash>
0.0000

> <Gold.PLP.ligand.torsion>
0.6854

> <Gold.PLP.Chemscore.Hbond>
4.9209

> <Gold.PLP.Chemscore.CHOScore>
0.7199

> <Gold.PLP.Chemscore.Metal>
0.0000

> <Gold.Chemscore.Hbonds>
donor molecule, donor type, donor heavy atom, donor atom, acceptor molecule, acceptor atom, score
      L1  H    10    26       P1  7948  0.25
      L1  H    12    27       P1  7957  1.00
      L1  H    14    28       P1  7957  0.85
      P1  H  7989  7998       L1    14  0.11
      P1  H  7997  8010       L1    16  1.00
      P1  H  8011  8017       L1    14  0.75
      P1  H 10752 10763       L1    10  0.94
      L1  C     4    23       P1  8028  0.73

> <Gold.PLP.Chemscore.Internal.Correction>
0.0219

> <Gold.Rescore>
     Score         DG    S(hbond)    S(metal)    S(lipo)     H(rot)  DE(clash)    DE(int)     intcor
      8.61     -10.78       3.97        0.00      20.82       4.06       0.04       2.13       ----

> <Gold.Chemscore.Fitness>
8.6104

> <Gold.Chemscore.DG>
-10.7772

> <Gold.Chemscore.ZeroCoef>
-5.4800

> <Gold.Chemscore.Hbond>
3.9684

> <Gold.Chemscore.Metal>
0.0000

> <Gold.Chemscore.Lipo>
20.8225

> <Gold.Chemscore.Internal_Hbond>
0.0000

> <Gold.Chemscore.DEClash>
0.0394

> <Gold.Chemscore.DEInternal>
2.1273

> <Gold.Chemscore.Rot>
4.0600

> <Gold.Chemscore.Internal.Correction>
   9.000000E+99

> <Gold.Chemscore.Hbonds>
donor molecule, donor type, donor heavy atom, donor atom, acceptor molecule, acceptor atom, score
      L1  H    10    26       P1  7948  0.01
      L1  H    12    27       P1  7957  0.90
      L1  H    14    28       P1  7957  0.85
      P1  H  7997  8010       L1    16  0.87
      P1  H  8011  8017       L1    14  0.09
      P1  H 10752 10763       L1    10  0.70

> <Gold.Chemscore.Hbond.Weighted>
-13.2545

> <Gold.Chemscore.Metal.Weighted>
-0.0000

> <Gold.Chemscore.Lipo.Weighted>
-2.4362

> <Gold.Chemscore.Internal_Hbond.Weighted>
0.0000

> <Gold.Chemscore.DEClash.Weighted>
0.0394

> <Gold.Chemscore.DEInternal.Weighted>
2.1273

> <Gold.Chemscore.Rot.Weighted>
10.3936

> <Gold.Chemscore.Internal.Correction.Weighted>
   9.000000E+99

> <Gold.Protein.RotatedTorsions>
[ 6907 6896 6895 6894 ] final  123.70 input  -60.11 | X-H torsion
[ 7974 7965 7964 7962 ] final -172.03 input  175.53 | X-H torsion
[ 8008 7997 7996 7995 ] final   37.24 input   59.86 | X-H torsion
[ 10167 10162 10161 10158 ] final -111.02 input  -65.29 | X-H torsion
[ 10718 10713 10712 10709 ] final    4.95 input   66.30 | X-H torsion
[ 10763 10752 10751 10750 ] final   57.98 input  -60.55 | X-H torsion
[ 11005 11000 10999 10996 ] final  166.78 input  -57.11 | X-H torsion

> <Gold.Protein.ActiveResidues>
 VAL166  LYS551  ARG553  GLY616  TRP617  ASP618  TYR619  PRO620  LYS621  CYS622 
 ASP623  PHE694  ASN695  SER759  ASP760  ASP761  ALA762  ILE779  LEU786  VAL792 
 PHE793  MET794  SER795  GLU796  ALA797  LYS798  CYS799  TRP800  GLU811  SER814 

> <Gold.Protein.RotatedAtoms>
  152.4140  133.7008  159.6422 H   0  0  0  0  0  0  0  0  0  0  0  0  # atno 6907 bound_to 6896
  150.8018  133.8574  159.3231 H   0  0  0  0  0  0  0  0  0  0  0  0  # atno 6908 bound_to 6896
  151.6309  135.1025  160.0173 H   0  0  0  0  0  0  0  0  0  0  0  0  # atno 6909 bound_to 6896
  144.7150  140.1834  143.6356 H   0  0  0  0  0  0  0  0  0  0  0  0  # atno 7974 bound_to 7965
  155.2005  140.3315  155.4344 H   0  0  0  0  0  0  0  0  0  0  0  0  # atno 8008 bound_to 7997
  156.2408  140.1894  156.7042 H   0  0  0  0  0  0  0  0  0  0  0  0  # atno 8009 bound_to 7997
  154.6144  140.0604  156.9521 H   0  0  0  0  0  0  0  0  0  0  0  0  # atno 8010 bound_to 7997
  140.1382  143.4302  152.1581 H   0  0  0  0  0  0  0  0  0  0  0  0  # atno 10167 bound_to 10162
  156.9001  130.5719  149.5648 H   0  0  0  0  0  0  0  0  0  0  0  0  # atno 10718 bound_to 10713
  152.9861  135.5623  154.5478 H   0  0  0  0  0  0  0  0  0  0  0  0  # atno 10763 bound_to 10752
  154.4921  135.2793  155.1490 H   0  0  0  0  0  0  0  0  0  0  0  0  # atno 10764 bound_to 10752
  154.2956  135.6317  153.5456 H   0  0  0  0  0  0  0  0  0  0  0  0  # atno 10765 bound_to 10752
  140.2700  134.7834  157.3667 H   0  0  0  0  0  0  0  0  0  0  0  0  # atno 11005 bound_to 11000
  145.8835  139.2336  143.1591 LP  0  0  0  0  0  0  0  0  0  0  0  0  # atno 17320 bound_to 7965
  145.9972  140.8552  143.0037 LP  0  0  0  0  0  0  0  0  0  0  0  0  # atno 17321 bound_to 7965
  139.5485  144.7318  151.4507 LP  0  0  0  0  0  0  0  0  0  0  0  0  # atno 17342 bound_to 10162
  140.6776  143.8154  150.7079 LP  0  0  0  0  0  0  0  0  0  0  0  0  # atno 17343 bound_to 10162
  156.0586  130.5643  150.9144 LP  0  0  0  0  0  0  0  0  0  0  0  0  # atno 17370 bound_to 10713
  157.6031  131.0940  150.8926 LP  0  0  0  0  0  0  0  0  0  0  0  0  # atno 17371 bound_to 10713
  140.1382  134.5006  155.8052 LP  0  0  0  0  0  0  0  0  0  0  0  0  # atno 17394 bound_to 11000
  141.2179  133.6815  156.7163 LP  0  0  0  0  0  0  0  0  0  0  0  0  # atno 17395 bound_to 11000

$$$$
