AV-unprocessed.smi:1605|AV-procd|sdf|6454|dock8
  -GOLD-   22720 7103D 1   1.00000     0.00000
 Structure written by MMmdl.
 51 53  0  0  0  0  0  0  0  0  2 V2000
  143.9780  140.4001  156.0842 C   0  0  0  0  0  0  0  0  0  0  0  0
  145.2910  140.7530  156.4914 O   0  0  0  0  0  0  0  0  0  0  0  0
  145.6100  142.1286  156.3156 C   0  0  2  0  0  0  0  0  0  0  0  0
  146.2335  142.2968  154.9219 C   0  0  0  0  0  0  0  0  0  0  0  0
  147.6106  141.6168  154.8290 C   0  0  0  0  0  0  0  0  0  0  0  0
  148.5303  142.1244  155.8789 N   0  3  2  0  0  0  0  0  0  0  0  0
  149.9165  141.6170  155.7133 C   0  0  0  0  0  0  0  0  0  0  0  0
  150.7899  141.7495  156.9850 C   0  0  1  0  0  0  0  0  0  0  0  0
  151.7743  140.7394  156.9248 O   0  0  0  0  0  0  0  0  0  0  0  0
  151.5241  143.1004  157.1380 C   0  0  0  0  0  0  0  0  0  0  0  0
  151.5527  143.5759  158.5093 N   0  0  0  0  0  0  0  0  0  0  0  0
  150.8491  144.6028  159.0237 C   0  0  0  0  0  0  0  0  0  0  0  0
  151.0503  144.8959  160.3047 N   0  0  0  0  0  0  0  0  0  0  0  0
  151.9807  143.9385  160.6688 C   0  0  0  0  0  0  0  0  0  0  0  0
  152.6248  143.7087  161.9038 C   0  0  0  0  0  0  0  0  0  0  0  0
  153.5688  142.6670  162.0455 C   0  0  0  0  0  0  0  0  0  0  0  0
  154.2432  142.4600  163.3902 C   0  0  0  0  0  0  0  0  0  0  0  0
  153.8769  141.8320  160.9416 C   0  0  0  0  0  0  0  0  0  0  0  0
  154.8915  140.7095  161.0689 C   0  0  0  0  0  0  0  0  0  0  0  0
  153.2401  142.0457  159.7016 C   0  0  0  0  0  0  0  0  0  0  0  0
  152.3083  143.0901  159.5713 C   0  0  0  0  0  0  0  0  0  0  0  0
  147.9719  141.9219  157.2412 C   0  0  0  0  0  0  0  0  0  0  0  0
  146.6070  142.6168  157.3835 C   0  0  0  0  0  0  0  0  0  0  0  0
  143.8290  139.3307  156.2330 H   0  0  0  0  0  0  0  0  0  0  0  0
  143.8228  140.6135  155.0258 H   0  0  0  0  0  0  0  0  0  0  0  0
  143.2165  140.9230  156.6622 H   0  0  0  0  0  0  0  0  0  0  0  0
  144.6964  142.7241  156.3574 H   0  0  0  0  0  0  0  0  0  0  0  0
  145.5644  141.8943  154.1608 H   0  0  0  0  0  0  0  0  0  0  0  0
  146.3413  143.3591  154.7021 H   0  0  0  0  0  0  0  0  0  0  0  0
  147.5094  140.5345  154.9225 H   0  0  0  0  0  0  0  0  0  0  0  0
  148.0335  141.8112  153.8428 H   0  0  0  0  0  0  0  0  0  0  0  0
  149.8668  140.5754  155.3909 H   0  0  0  0  0  0  0  0  0  0  0  0
  150.4088  142.1609  154.9055 H   0  0  0  0  0  0  0  0  0  0  0  0
  150.2026  141.5497  157.8803 H   0  0  0  0  0  0  0  0  0  0  0  0
  151.4979  140.0826  156.3036 H   0  0  0  0  0  0  0  0  0  0  0  0
  152.5570  143.0060  156.7996 H   0  0  0  0  0  0  0  0  0  0  0  0
  151.0621  143.8623  156.5087 H   0  0  0  0  0  0  0  0  0  0  0  0
  150.1632  145.1780  158.4188 H   0  0  0  0  0  0  0  0  0  0  0  0
  152.3898  144.3444  162.7450 H   0  0  0  0  0  0  0  0  0  0  0  0
  153.9730  141.4891  163.8057 H   0  0  0  0  0  0  0  0  0  0  0  0
  153.9463  143.2258  164.1070 H   0  0  0  0  0  0  0  0  0  0  0  0
  155.3275  142.5037  163.2867 H   0  0  0  0  0  0  0  0  0  0  0  0
  154.9682  140.1358  160.1448 H   0  0  0  0  0  0  0  0  0  0  0  0
  154.6057  140.0224  161.8655 H   0  0  0  0  0  0  0  0  0  0  0  0
  155.8785  141.1129  161.2959 H   0  0  0  0  0  0  0  0  0  0  0  0
  153.4720  141.4205  158.8521 H   0  0  0  0  0  0  0  0  0  0  0  0
  147.8770  140.8544  157.4447 H   0  0  0  0  0  0  0  0  0  0  0  0
  148.6461  142.3270  157.9943 H   0  0  0  0  0  0  0  0  0  0  0  0
  146.7430  143.6939  157.2788 H   0  0  0  0  0  0  0  0  0  0  0  0
  146.2125  142.4642  158.3875 H   0  0  0  0  0  0  0  0  0  0  0  0
  148.5844  143.1229  155.7349 H   0  0  0  0  0  0  0  0  0  0  0  0
  1  2  1  0  0  0  0
  1 24  1  0  0  0  0
  1 25  1  0  0  0  0
  1 26  1  0  0  0  0
  2  3  1  0  0  0  0
  3 23  1  0  0  0  0
  3  4  1  0  0  0  0
  3 27  1  0  0  0  0
  4  5  1  0  0  0  0
  4 28  1  0  0  0  0
  4 29  1  0  0  0  0
  5  6  1  0  0  0  0
  5 30  1  0  0  0  0
  5 31  1  0  0  0  0
  6  7  1  0  0  0  0
  6 22  1  0  0  0  0
  6 51  1  0  0  0  0
  7  8  1  0  0  0  0
  7 32  1  0  0  0  0
  7 33  1  0  0  0  0
  8  9  1  0  0  0  0
  8 10  1  0  0  0  0
  8 34  1  0  0  0  0
  9 35  1  0  0  0  0
 10 11  1  0  0  0  0
 10 36  1  0  0  0  0
 10 37  1  0  0  0  0
 11 21  1  0  0  0  0
 11 12  1  0  0  0  0
 12 13  2  0  0  0  0
 12 38  1  0  0  0  0
 13 14  1  0  0  0  0
 14 21  2  0  0  0  0
 14 15  1  0  0  0  0
 15 16  2  0  0  0  0
 15 39  1  0  0  0  0
 16 17  1  0  0  0  0
 16 18  1  0  0  0  0
 17 40  1  0  0  0  0
 17 41  1  0  0  0  0
 17 42  1  0  0  0  0
 18 19  1  0  0  0  0
 18 20  2  0  0  0  0
 19 43  1  0  0  0  0
 19 44  1  0  0  0  0
 19 45  1  0  0  0  0
 20 21  1  0  0  0  0
 20 46  1  0  0  0  0
 22 23  1  0  0  0  0
 22 47  1  0  0  0  0
 22 48  1  0  0  0  0
 23 49  1  0  0  0  0
 23 50  1  0  0  0  0
M  CHG  1   6   1
M  END
> <s_m_source_file>
AV-unprocessed.smi

> <i_m_source_file_index>
1605

> <i_lp_mmshare_version>
43012

> <i_f3d_flags>
0

> <s_epik_input>
W0NIM11PW0NIXTFbQ0gyXVtDSDJdTihbQ0gyXVtDSDJdMSlbQ0gyXVtDQEhdKFtPSF0pW0NIMl1uKFtjSF1uMiljKGMyMylbY0hdYyhbQ0gzXSljKFtjSF0zKVtDSDNd

> <s_epik_cmdline>
J2VwaWtfcHl0aG9uJywgJy1waCcsICc3LjAnLCAnLXRuJywgJzgnLCAnLW1hJywgJzIwMCcsICctbWV0YWxfYmluZGluZycsICctaW1hZScsICc8aW5maWxlLm1hZT4nLCAnLW9tYWUnLCAnPG91dGZpbGUubWFlPic=

> <r_epik_Ionization_Penalty>
0.110943

> <r_epik_Ionization_Penalty_Charging>
0.0229283

> <r_epik_Ionization_Penalty_Neutral>
0.0880146

> <r_epik_State_Penalty>
0.0947554

> <r_epik_Charging_Adjusted_Penalty>
0.117684

> <i_epik_Tot_Q>
1

> <i_epik_Tot_abs_Q>
1

> <r_epik_Metal_State_Penalty>
0.0192456

> <b_epik_Metal_Only>
0

> <s_lp_Force_Field>
OPLS_2005

> <r_lp_Energy>
21.431

> <b_lp_Chiralities_Consistent>
1

> <s_lp_Variant>
AV-unprocessed.smi:1605-4

> <Gold.Version>
5.8.1

> <Gold.Id.Protein>
6NUR|6NUR_protein|mol2

> <Gold.PLP.Fitness>
57.8451

> <Gold.PLP.PLP>
-51.9779

> <Gold.PLP.part.hbond>
-1.0000

> <Gold.PLP.part.metal>
0.0000

> <Gold.PLP.part.buried>
-5.9954

> <Gold.PLP.part.nonpolar>
-45.6034

> <Gold.PLP.part.repulsive>
0.3236

> <Gold.PLP.ligand.clash>
0.0000

> <Gold.PLP.ligand.torsion>
1.6289

> <Gold.PLP.Chemscore.Hbond>
2.0000

> <Gold.PLP.Chemscore.CHOScore>
1.0044

> <Gold.PLP.Chemscore.Metal>
0.0000

> <Gold.Chemscore.Hbonds>
donor molecule, donor type, donor heavy atom, donor atom, acceptor molecule, acceptor atom, score
      L1  H     6    51       P1  8028  2.00
      L1  C    12    38       P1  8029  0.73

> <Gold.PLP.Chemscore.Internal.Correction>
0.1120

> <Gold.Rescore>
     Score         DG    S(hbond)    S(metal)    S(lipo)     H(rot)  DE(clash)    DE(int)     intcor
     16.71     -18.18       0.98        0.00     129.11       2.22       0.09       1.39       ----

> <Gold.Chemscore.Fitness>
16.7085

> <Gold.Chemscore.DG>
-18.1835

> <Gold.Chemscore.ZeroCoef>
-5.4800

> <Gold.Chemscore.Hbond>
0.9799

> <Gold.Chemscore.Metal>
0.0000

> <Gold.Chemscore.Lipo>
129.1101

> <Gold.Chemscore.Internal_Hbond>
0.0000

> <Gold.Chemscore.DEClash>
0.0888

> <Gold.Chemscore.DEInternal>
1.3862

> <Gold.Chemscore.Rot>
2.2169

> <Gold.Chemscore.Internal.Correction>
   9.000000E+99

> <Gold.Chemscore.Hbonds>
donor molecule, donor type, donor heavy atom, donor atom, acceptor molecule, acceptor atom, score
      L1  H     6    51       P1  8028  0.99

> <Gold.Chemscore.Hbond.Weighted>
-3.2730

> <Gold.Chemscore.Metal.Weighted>
-0.0000

> <Gold.Chemscore.Lipo.Weighted>
-15.1059

> <Gold.Chemscore.Internal_Hbond.Weighted>
0.0000

> <Gold.Chemscore.DEClash.Weighted>
0.0888

> <Gold.Chemscore.DEInternal.Weighted>
1.3862

> <Gold.Chemscore.Rot.Weighted>
5.6753

> <Gold.Chemscore.Internal.Correction.Weighted>
   9.000000E+99

> <Gold.Protein.RotatedTorsions>
[ 6907 6896 6895 6894 ] final  154.55 input  -60.11 | X-H torsion
[ 7974 7965 7964 7962 ] final -175.71 input  175.53 | X-H torsion
[ 8008 7997 7996 7995 ] final   67.28 input   59.86 | X-H torsion
[ 10167 10162 10161 10158 ] final  -77.92 input  -65.29 | X-H torsion
[ 10718 10713 10712 10709 ] final   54.41 input   66.30 | X-H torsion
[ 10763 10752 10751 10750 ] final -131.69 input  -60.55 | X-H torsion
[ 11005 11000 10999 10996 ] final   -1.69 input  -57.11 | X-H torsion

> <Gold.Protein.ActiveResidues>
 VAL166  LYS551  ARG553  GLY616  TRP617  ASP618  TYR619  PRO620  LYS621  CYS622 
 ASP623  PHE694  ASN695  SER759  ASP760  ASP761  ALA762  ILE779  LEU786  VAL792 
 PHE793  MET794  SER795  GLU796  ALA797  LYS798  CYS799  TRP800  GLU811  SER814 

> <Gold.Protein.RotatedAtoms>
  152.0568  133.4044  159.4400 H   0  0  0  0  0  0  0  0  0  0  0  0  # atno 6907 bound_to 6896
  150.6868  134.3245  159.4810 H   0  0  0  0  0  0  0  0  0  0  0  0  # atno 6908 bound_to 6896
  152.1061  134.9307  160.0619 H   0  0  0  0  0  0  0  0  0  0  0  0  # atno 6909 bound_to 6896
  144.7127  140.1280  143.6400 H   0  0  0  0  0  0  0  0  0  0  0  0  # atno 7974 bound_to 7965
  155.6904  140.3496  155.4891 H   0  0  0  0  0  0  0  0  0  0  0  0  # atno 8008 bound_to 7997
  155.9529  140.1122  157.0984 H   0  0  0  0  0  0  0  0  0  0  0  0  # atno 8009 bound_to 7997
  154.4126  140.1191  156.5062 H   0  0  0  0  0  0  0  0  0  0  0  0  # atno 8010 bound_to 7997
  140.4728  143.2422  151.8178 H   0  0  0  0  0  0  0  0  0  0  0  0  # atno 10167 bound_to 10162
  157.5254  130.8593  149.8615 H   0  0  0  0  0  0  0  0  0  0  0  0  # atno 10718 bound_to 10713
  154.8749  135.3822  154.4288 H   0  0  0  0  0  0  0  0  0  0  0  0  # atno 10763 bound_to 10752
  153.4984  135.7030  153.5850 H   0  0  0  0  0  0  0  0  0  0  0  0  # atno 10764 bound_to 10752
  153.4193  135.3905  155.2067 H   0  0  0  0  0  0  0  0  0  0  0  0  # atno 10765 bound_to 10752
  140.6501  133.9412  155.8375 H   0  0  0  0  0  0  0  0  0  0  0  0  # atno 11005 bound_to 11000
  145.9312  139.2607  143.1324 LP  0  0  0  0  0  0  0  0  0  0  0  0  # atno 17320 bound_to 7965
  145.9521  140.8901  143.0254 LP  0  0  0  0  0  0  0  0  0  0  0  0  # atno 17321 bound_to 7965
  139.4821  144.4870  151.9234 LP  0  0  0  0  0  0  0  0  0  0  0  0  # atno 17342 bound_to 10162
  140.3955  144.2560  150.5896 LP  0  0  0  0  0  0  0  0  0  0  0  0  # atno 17343 bound_to 10162
  156.0383  130.3745  150.1502 LP  0  0  0  0  0  0  0  0  0  0  0  0  # atno 17370 bound_to 10713
  156.9688  130.9828  151.3463 LP  0  0  0  0  0  0  0  0  0  0  0  0  # atno 17371 bound_to 10713
  141.0543  134.0439  157.3743 LP  0  0  0  0  0  0  0  0  0  0  0  0  # atno 17394 bound_to 11000
  139.9049  135.0176  156.7439 LP  0  0  0  0  0  0  0  0  0  0  0  0  # atno 17395 bound_to 11000

$$$$
