AV-unprocessed.smi:2763|AV-procd|sdf|10638|dock7
  -GOLD-   2272015 83D 1   1.00000     0.00000
 Structure written by MMmdl.
 37 38  0  0  0  0  0  0  0  0  1 V2000
  144.9754  137.7947  152.7101 O   0  0  0  0  0  0  0  0  0  0  0  0
  146.1507  137.4856  152.5110 C   0  0  0  0  0  0  0  0  0  0  0  0
  147.1833  138.3014  152.7680 N   0  0  0  0  0  0  0  0  0  0  0  0
  147.0713  139.6486  153.3142 C   0  0  0  0  0  0  0  0  0  0  0  0
  148.4279  140.3734  153.3124 C   0  0  0  0  0  0  0  0  0  0  0  0
  149.2364  140.1253  154.5956 C   0  0  2  0  0  0  0  0  0  0  0  0
  149.3075  141.3821  155.4849 C   0  0  0  0  0  0  0  0  0  0  0  0
  150.1824  141.1219  156.7166 C   0  0  0  0  0  0  0  0  0  0  0  0
  151.5488  140.5862  156.2760 C   0  0  0  0  0  0  0  0  0  0  0  0
  151.3717  139.3768  155.3443 C   0  0  0  0  0  0  0  0  0  0  0  0
  150.5604  139.7381  154.2308 O   0  0  0  0  0  0  0  0  0  0  0  0
  146.5732  136.3104  152.0124 N   0  0  0  0  0  0  0  0  0  0  0  0
  145.7949  135.1815  151.6423 C   0  0  0  0  0  0  0  0  0  0  0  0
  146.5380  134.0605  151.2073 C   0  0  0  0  0  0  0  0  0  0  0  0
  145.8610  132.8876  150.8205 C   0  0  0  0  0  0  0  0  0  0  0  0
  144.4563  132.8676  150.8802 C   0  0  0  0  0  0  0  0  0  0  0  0
  143.7620  131.7625  150.5193 F   0  0  0  0  0  0  0  0  0  0  0  0
  143.7915  134.0252  151.3250 C   0  0  0  0  0  0  0  0  0  0  0  0
  144.4394  135.1501  151.6958 N   0  0  0  0  0  0  0  0  0  0  0  0
  148.1157  137.9673  152.5729 H   0  0  0  0  0  0  0  0  0  0  0  0
  146.3295  140.2217  152.7553 H   0  0  0  0  0  0  0  0  0  0  0  0
  146.6932  139.5649  154.3333 H   0  0  0  0  0  0  0  0  0  0  0  0
  149.0123  140.0624  152.4453 H   0  0  0  0  0  0  0  0  0  0  0  0
  148.2605  141.4456  153.2006 H   0  0  0  0  0  0  0  0  0  0  0  0
  148.7661  139.3140  155.1545 H   0  0  0  0  0  0  0  0  0  0  0  0
  149.7200  142.2152  154.9141 H   0  0  0  0  0  0  0  0  0  0  0  0
  148.3070  141.6823  155.7975 H   0  0  0  0  0  0  0  0  0  0  0  0
  150.3001  142.0350  157.3007 H   0  0  0  0  0  0  0  0  0  0  0  0
  149.6944  140.3941  157.3661 H   0  0  0  0  0  0  0  0  0  0  0  0
  152.0990  141.3700  155.7537 H   0  0  0  0  0  0  0  0  0  0  0  0
  152.1457  140.3099  157.1455 H   0  0  0  0  0  0  0  0  0  0  0  0
  152.3418  139.0396  154.9786 H   0  0  0  0  0  0  0  0  0  0  0  0
  150.9235  138.5363  155.8765 H   0  0  0  0  0  0  0  0  0  0  0  0
  147.5699  136.2080  151.8915 H   0  0  0  0  0  0  0  0  0  0  0  0
  147.6173  134.0944  151.1688 H   0  0  0  0  0  0  0  0  0  0  0  0
  146.4104  132.0203  150.4849 H   0  0  0  0  0  0  0  0  0  0  0  0
  142.7135  134.0502  151.3855 H   0  0  0  0  0  0  0  0  0  0  0  0
  1  2  2  0  0  0  0
  2  3  1  0  0  0  0
  2 12  1  0  0  0  0
  3  4  1  0  0  0  0
  3 20  1  0  0  0  0
  4  5  1  0  0  0  0
  4 21  1  0  0  0  0
  4 22  1  0  0  0  0
  5  6  1  0  0  0  0
  5 23  1  0  0  0  0
  5 24  1  0  0  0  0
  6 11  1  0  0  0  0
  6  7  1  0  0  0  0
  6 25  1  0  0  0  0
  7  8  1  0  0  0  0
  7 26  1  0  0  0  0
  7 27  1  0  0  0  0
  8  9  1  0  0  0  0
  8 28  1  0  0  0  0
  8 29  1  0  0  0  0
  9 10  1  0  0  0  0
  9 30  1  0  0  0  0
  9 31  1  0  0  0  0
 10 11  1  0  0  0  0
 10 32  1  0  0  0  0
 10 33  1  0  0  0  0
 12 13  1  0  0  0  0
 12 34  1  0  0  0  0
 13 19  1  0  0  0  0
 13 14  2  0  0  0  0
 14 15  1  0  0  0  0
 14 35  1  0  0  0  0
 15 16  2  0  0  0  0
 15 36  1  0  0  0  0
 16 17  1  0  0  0  0
 16 18  1  0  0  0  0
 18 19  2  0  0  0  0
 18 37  1  0  0  0  0
M  END
> <s_m_source_file>
AV-unprocessed.smi

> <i_m_source_file_index>
2763

> <i_lp_mmshare_version>
43012

> <i_f3d_flags>
0

> <s_epik_input>
bjFbY0hdYyhGKVtjSF1bY0hdYzFbTkhdQyg9TylbTkhdW0NIMl1bQ0gyXVtDQEBIXTJbQ0gyXVtDSDJdW0NIMl1bQ0gyXU8y

> <s_epik_cmdline>
J2VwaWtfcHl0aG9uJywgJy1waCcsICc3LjAnLCAnLXRuJywgJzgnLCAnLW1hJywgJzIwMCcsICctbWV0YWxfYmluZGluZycsICctaW1hZScsICc8aW5maWxlLm1hZT4nLCAnLW9tYWUnLCAnPG91dGZpbGUubWFlPic=

> <r_lp_tautomer_probability>
1

> <r_epik_Ionization_Penalty>
3.67849e-05

> <r_epik_Ionization_Penalty_Charging>
0

> <r_epik_Ionization_Penalty_Neutral>
3.67849e-05

> <r_epik_State_Penalty>
-0

> <r_epik_Charging_Adjusted_Penalty>
0

> <i_epik_Tot_Q>
0

> <i_epik_Tot_abs_Q>
0

> <r_epik_Metal_State_Penalty>
-0

> <b_epik_Metal_Only>
0

> <s_lp_Force_Field>
OPLS_2005

> <r_lp_Energy>
12.1233

> <b_lp_Chiralities_Consistent>
1

> <s_lp_Variant>
AV-unprocessed.smi:2763-1

> <Gold.Version>
5.8.1

> <Gold.Id.Protein>
6NUR|6NUR_protein|mol2

> <Gold.PLP.Fitness>
40.6210

> <Gold.PLP.PLP>
-32.4513

> <Gold.PLP.part.hbond>
-2.4503

> <Gold.PLP.part.metal>
0.0000

> <Gold.PLP.part.buried>
-1.0385

> <Gold.PLP.part.nonpolar>
-31.0104

> <Gold.PLP.part.repulsive>
1.7009

> <Gold.PLP.ligand.clash>
0.0000

> <Gold.PLP.ligand.torsion>
0.8981

> <Gold.PLP.Chemscore.Hbond>
2.3370

> <Gold.PLP.Chemscore.CHOScore>
0.9830

> <Gold.PLP.Chemscore.Metal>
0.0000

> <Gold.Chemscore.Hbonds>
donor molecule, donor type, donor heavy atom, donor atom, acceptor molecule, acceptor atom, score
      L1  H     3    20       P1  7948  0.73
      L1  H    12    34       P1  7948  0.57
      P1  H  7989  7998       L1    11  0.95
      L1  C    18    37       P1 10186  0.97

> <Gold.PLP.Chemscore.Internal.Correction>
0.0059

> <Gold.Rescore>
     Score         DG    S(hbond)    S(metal)    S(lipo)     H(rot)  DE(clash)    DE(int)     intcor
     13.90     -17.42       2.39        0.00      67.39       1.54       1.41       2.12       ----

> <Gold.Chemscore.Fitness>
13.9022

> <Gold.Chemscore.DG>
-17.4229

> <Gold.Chemscore.ZeroCoef>
-5.4800

> <Gold.Chemscore.Hbond>
2.3941

> <Gold.Chemscore.Metal>
0.0000

> <Gold.Chemscore.Lipo>
67.3911

> <Gold.Chemscore.Internal_Hbond>
0.0000

> <Gold.Chemscore.DEClash>
1.4050

> <Gold.Chemscore.DEInternal>
2.1157

> <Gold.Chemscore.Rot>
1.5384

> <Gold.Chemscore.Internal.Correction>
   9.000000E+99

> <Gold.Chemscore.Hbonds>
donor molecule, donor type, donor heavy atom, donor atom, acceptor molecule, acceptor atom, score
      L1  H     3    20       P1  7948  0.68
      L1  H    12    34       P1  7948  0.56
      P1  H  7989  7998       L1    11  0.21

> <Gold.Chemscore.Hbond.Weighted>
-7.9964

> <Gold.Chemscore.Metal.Weighted>
-0.0000

> <Gold.Chemscore.Lipo.Weighted>
-7.8848

> <Gold.Chemscore.Internal_Hbond.Weighted>
0.0000

> <Gold.Chemscore.DEClash.Weighted>
1.4050

> <Gold.Chemscore.DEInternal.Weighted>
2.1157

> <Gold.Chemscore.Rot.Weighted>
3.9382

> <Gold.Chemscore.Internal.Correction.Weighted>
   9.000000E+99

> <Gold.Protein.RotatedTorsions>
[ 6907 6896 6895 6894 ] final  -40.29 input  -60.11 | X-H torsion
[ 7974 7965 7964 7962 ] final  132.79 input  175.53 | X-H torsion
[ 8008 7997 7996 7995 ] final  -59.93 input   59.86 | X-H torsion
[ 10167 10162 10161 10158 ] final   77.91 input  -65.29 | X-H torsion
[ 10718 10713 10712 10709 ] final  158.89 input   66.30 | X-H torsion
[ 10763 10752 10751 10750 ] final  103.11 input  -60.55 | X-H torsion
[ 11005 11000 10999 10996 ] final  153.46 input  -57.11 | X-H torsion

> <Gold.Protein.ActiveResidues>
 VAL166  LYS551  ARG553  GLY616  TRP617  ASP618  TYR619  PRO620  LYS621  CYS622 
 ASP623  PHE694  ASN695  SER759  ASP760  ASP761  ALA762  ILE779  LEU786  VAL792 
 PHE793  MET794  SER795  GLU796  ALA797  LYS798  CYS799  TRP800  GLU811  SER814 

> <Gold.Protein.RotatedAtoms>
  150.9802  134.9158  159.7839 H   0  0  0  0  0  0  0  0  0  0  0  0  # atno 6907 bound_to 6896
  152.5219  134.3421  159.9231 H   0  0  0  0  0  0  0  0  0  0  0  0  # atno 6908 bound_to 6896
  151.3428  133.3914  159.2707 H   0  0  0  0  0  0  0  0  0  0  0  0  # atno 6909 bound_to 6896
  144.9932  139.4386  143.5329 H   0  0  0  0  0  0  0  0  0  0  0  0  # atno 7974 bound_to 7965
  154.4375  140.1051  156.6193 H   0  0  0  0  0  0  0  0  0  0  0  0  # atno 8008 bound_to 7997
  155.5725  140.3489  155.4500 H   0  0  0  0  0  0  0  0  0  0  0  0  # atno 8009 bound_to 7997
  156.0379  140.1275  157.0177 H   0  0  0  0  0  0  0  0  0  0  0  0  # atno 8010 bound_to 7997
  139.9765  144.5857  150.7938 H   0  0  0  0  0  0  0  0  0  0  0  0  # atno 10167 bound_to 10162
  157.1717  131.0611  151.2179 H   0  0  0  0  0  0  0  0  0  0  0  0  # atno 10718 bound_to 10713
  153.3484  135.3988  155.1626 H   0  0  0  0  0  0  0  0  0  0  0  0  # atno 10763 bound_to 10752
  154.8657  135.3650  154.5255 H   0  0  0  0  0  0  0  0  0  0  0  0  # atno 10764 bound_to 10752
  153.5704  135.7079  153.5567 H   0  0  0  0  0  0  0  0  0  0  0  0  # atno 10765 bound_to 10752
  140.1399  134.8745  157.2318 H   0  0  0  0  0  0  0  0  0  0  0  0  # atno 11005 bound_to 11000
  146.3436  139.9276  142.8758 LP  0  0  0  0  0  0  0  0  0  0  0  0  # atno 17320 bound_to 7965
  145.2257  140.9953  143.4020 LP  0  0  0  0  0  0  0  0  0  0  0  0  # atno 17321 bound_to 7965
  140.7504  143.2954  151.3218 LP  0  0  0  0  0  0  0  0  0  0  0  0  # atno 17342 bound_to 10162
  139.6441  144.0483  152.2577 LP  0  0  0  0  0  0  0  0  0  0  0  0  # atno 17343 bound_to 10162
  157.4037  130.7347  149.6786 LP  0  0  0  0  0  0  0  0  0  0  0  0  # atno 17370 bound_to 10713
  155.9737  130.4114  150.3978 LP  0  0  0  0  0  0  0  0  0  0  0  0  # atno 17371 bound_to 10713
  140.2735  134.3433  155.7366 LP  0  0  0  0  0  0  0  0  0  0  0  0  # atno 17394 bound_to 11000
  141.2184  133.7437  156.9257 LP  0  0  0  0  0  0  0  0  0  0  0  0  # atno 17395 bound_to 11000

$$$$
