AV-unprocessed.smi:176|AV-procd|sdf|1435|dock10
  -GOLD-   2262019223D 1   1.00000     0.00000
 Structure written by MMmdl.
 57 61  0  0  0  0  0  0  0  0  1 V2000
  144.8634  132.8481  156.5016 O   0  0  0  0  0  0  0  0  0  0  0  0
  145.8126  133.6155  155.7879 C   0  0  0  0  0  0  0  0  0  0  0  0
  145.4874  135.1212  155.7892 C   0  0  0  0  0  0  0  0  0  0  0  0
  144.0776  135.2266  155.1705 C   0  0  0  0  0  0  0  0  0  0  0  0
  143.0860  134.5392  155.9062 O   0  0  0  0  0  0  0  0  0  0  0  0
  145.7101  135.8725  157.1224 C   0  0  0  0  0  0  0  0  0  0  0  0
  146.3912  137.0223  156.3694 C   0  0  0  0  0  0  0  0  0  0  0  0
  147.5189  137.7136  156.9237 N   0  0  0  0  0  0  0  0  0  0  0  0
  147.9802  137.6411  158.2190 C   0  0  0  0  0  0  0  0  0  0  0  0
  149.0033  138.4050  158.4895 N   0  0  0  0  0  0  0  0  0  0  0  0
  149.2489  139.0795  157.2990 C   0  0  0  0  0  0  0  0  0  0  0  0
  150.1974  140.0612  156.8920 C   0  0  0  0  0  0  0  0  0  0  0  0
  151.1702  140.5310  157.7154 N   0  0  0  0  0  0  0  0  0  0  0  0
  151.4185  139.7997  158.9578 C   0  0  0  0  0  0  0  0  0  0  0  0
  152.7597  140.2198  159.5804 C   0  0  0  0  0  0  0  0  0  0  0  0
  152.8717  141.7488  159.7712 C   0  0  2  0  0  0  0  0  0  0  0  0
  154.2241  142.0017  160.1097 O   0  0  0  0  0  0  0  0  0  0  0  0
  151.9940  142.2671  160.9372 C   0  0  0  0  0  0  0  0  0  0  0  0
  152.0419  143.7996  161.0747 C   0  0  0  0  0  0  0  0  0  0  0  0
  151.6743  144.4955  159.7559 C   0  0  0  0  0  0  0  0  0  0  0  0
  152.5648  144.0100  158.5994 C   0  0  0  0  0  0  0  0  0  0  0  0
  152.5420  142.4741  158.4375 C   0  0  2  0  0  0  0  0  0  0  0  0
  151.2007  141.9866  157.8462 C   0  0  0  0  0  0  0  0  0  0  0  0
  150.1024  140.5285  155.6178 N   0  0  0  0  0  0  0  0  0  0  0  0
  149.1571  140.0646  154.7954 C   0  0  0  0  0  0  0  0  0  0  0  0
  148.2209  139.1451  155.0351 N   0  0  0  0  0  0  0  0  0  0  0  0
  148.3063  138.6735  156.3118 C   0  0  0  0  0  0  0  0  0  0  0  0
  146.5658  136.0544  155.1935 C   0  0  0  0  0  0  0  0  0  0  0  0
  144.2391  132.4937  155.8868 H   0  0  0  0  0  0  0  0  0  0  0  0
  146.7906  133.4308  156.2335 H   0  0  0  0  0  0  0  0  0  0  0  0
  145.8535  133.2281  154.7694 H   0  0  0  0  0  0  0  0  0  0  0  0
  143.7676  136.2695  155.0952 H   0  0  0  0  0  0  0  0  0  0  0  0
  144.0702  134.8260  154.1562 H   0  0  0  0  0  0  0  0  0  0  0  0
  142.9775  133.6776  155.5332 H   0  0  0  0  0  0  0  0  0  0  0  0
  144.7961  136.1612  157.6422 H   0  0  0  0  0  0  0  0  0  0  0  0
  146.3920  135.3598  157.8019 H   0  0  0  0  0  0  0  0  0  0  0  0
  145.6661  137.7977  156.1202 H   0  0  0  0  0  0  0  0  0  0  0  0
  147.5363  136.9960  158.9631 H   0  0  0  0  0  0  0  0  0  0  0  0
  150.6016  139.9815  159.6570 H   0  0  0  0  0  0  0  0  0  0  0  0
  151.4374  138.7269  158.7614 H   0  0  0  0  0  0  0  0  0  0  0  0
  152.9059  139.7040  160.5302 H   0  0  0  0  0  0  0  0  0  0  0  0
  153.5597  139.8756  158.9228 H   0  0  0  0  0  0  0  0  0  0  0  0
  154.4036  141.6027  160.9471 H   0  0  0  0  0  0  0  0  0  0  0  0
  150.9567  141.9679  160.7850 H   0  0  0  0  0  0  0  0  0  0  0  0
  152.3025  141.8053  161.8760 H   0  0  0  0  0  0  0  0  0  0  0  0
  151.3619  144.1207  161.8642 H   0  0  0  0  0  0  0  0  0  0  0  0
  153.0392  144.1122  161.3866 H   0  0  0  0  0  0  0  0  0  0  0  0
  150.6254  144.3113  159.5234 H   0  0  0  0  0  0  0  0  0  0  0  0
  151.7743  145.5752  159.8686 H   0  0  0  0  0  0  0  0  0  0  0  0
  152.2589  144.4893  157.6687 H   0  0  0  0  0  0  0  0  0  0  0  0
  153.5890  144.3381  158.7808 H   0  0  0  0  0  0  0  0  0  0  0  0
  153.3120  142.2119  157.7095 H   0  0  0  0  0  0  0  0  0  0  0  0
  151.0384  142.4730  156.8851 H   0  0  0  0  0  0  0  0  0  0  0  0
  150.3677  142.2854  158.4829 H   0  0  0  0  0  0  0  0  0  0  0  0
  149.1524  140.4886  153.8022 H   0  0  0  0  0  0  0  0  0  0  0  0
  147.5628  135.6125  155.1708 H   0  0  0  0  0  0  0  0  0  0  0  0
  146.3145  136.4828  154.2227 H   0  0  0  0  0  0  0  0  0  0  0  0
  1  2  1  0  0  0  0
  1 29  1  0  0  0  0
  2  3  1  0  0  0  0
  2 30  1  0  0  0  0
  2 31  1  0  0  0  0
  3 28  1  0  0  0  0
  3  4  1  0  0  0  0
  3  6  1  0  0  0  0
  4  5  1  0  0  0  0
  4 32  1  0  0  0  0
  4 33  1  0  0  0  0
  5 34  1  0  0  0  0
  6  7  1  0  0  0  0
  6 35  1  0  0  0  0
  6 36  1  0  0  0  0
  7  8  1  0  0  0  0
  7 28  1  0  0  0  0
  7 37  1  0  0  0  0
  8 27  1  0  0  0  0
  8  9  1  0  0  0  0
  9 10  2  0  0  0  0
  9 38  1  0  0  0  0
 10 11  1  0  0  0  0
 11 27  2  0  0  0  0
 11 12  1  0  0  0  0
 12 13  1  0  0  0  0
 12 24  2  0  0  0  0
 13 23  1  0  0  0  0
 13 14  1  0  0  0  0
 14 15  1  0  0  0  0
 14 39  1  0  0  0  0
 14 40  1  0  0  0  0
 15 16  1  0  0  0  0
 15 41  1  0  0  0  0
 15 42  1  0  0  0  0
 16 22  1  0  0  0  0
 16 17  1  0  0  0  0
 16 18  1  0  0  0  0
 17 43  1  0  0  0  0
 18 19  1  0  0  0  0
 18 44  1  0  0  0  0
 18 45  1  0  0  0  0
 19 20  1  0  0  0  0
 19 46  1  0  0  0  0
 19 47  1  0  0  0  0
 20 21  1  0  0  0  0
 20 48  1  0  0  0  0
 20 49  1  0  0  0  0
 21 22  1  0  0  0  0
 21 50  1  0  0  0  0
 21 51  1  0  0  0  0
 22 23  1  0  0  0  0
 22 52  1  0  0  0  0
 23 53  1  0  0  0  0
 23 54  1  0  0  0  0
 24 25  1  0  0  0  0
 25 26  2  0  0  0  0
 25 55  1  0  0  0  0
 26 27  1  0  0  0  0
 28 56  1  0  0  0  0
 28 57  1  0  0  0  0
M  END
> <s_m_source_file>
AV-unprocessed.smi

> <i_m_source_file_index>
176

> <i_lp_mmshare_version>
43012

> <i_f3d_flags>
0

> <s_epik_input>
W09IXVtDSDJdQzEoW0NIMl1bT0hdKVtDSDJdW0NIXShbQ0gyXTEpbihbY0hdbjIpYyhjMjMpbltjSF1uYzNOKFtDSDJdW0NIMl00KVtDSDJdW0NAQEhdKFtDQF00NVtPSF0pW0NIMl1bQ0gyXVtDSDJdW0NIMl01

> <s_epik_cmdline>
J2VwaWtfcHl0aG9uJywgJy1waCcsICc3LjAnLCAnLXRuJywgJzgnLCAnLW1hJywgJzIwMCcsICctbWV0YWxfYmluZGluZycsICctaW1hZScsICc8aW5maWxlLm1hZT4nLCAnLW9tYWUnLCAnPG91dGZpbGUubWFlPic=

> <r_lp_tautomer_probability>
1

> <r_epik_Ionization_Penalty>
0.00642876

> <r_epik_Ionization_Penalty_Charging>
0

> <r_epik_Ionization_Penalty_Neutral>
0.00642876

> <r_epik_State_Penalty>
0.00467813

> <r_epik_Charging_Adjusted_Penalty>
0.00467813

> <i_epik_Tot_Q>
0

> <i_epik_Tot_abs_Q>
0

> <r_epik_Metal_State_Penalty>
-0

> <b_epik_Metal_Only>
0

> <s_lp_Force_Field>
OPLS_2005

> <r_lp_Energy>
56.0126

> <b_lp_Chiralities_Consistent>
1

> <s_lp_Variant>
AV-unprocessed.smi:176-3

> <Gold.Version>
5.8.1

> <Gold.Id.Protein>
6NUR|6NUR_protein|mol2

> <Gold.PLP.Fitness>
41.2968

> <Gold.PLP.PLP>
-32.3757

> <Gold.PLP.part.hbond>
-2.8287

> <Gold.PLP.part.metal>
0.0000

> <Gold.PLP.part.buried>
-4.1315

> <Gold.PLP.part.nonpolar>
-25.6742

> <Gold.PLP.part.repulsive>
0.1511

> <Gold.PLP.ligand.clash>
0.0000

> <Gold.PLP.ligand.torsion>
0.4022

> <Gold.PLP.Chemscore.Hbond>
1.9951

> <Gold.PLP.Chemscore.CHOScore>
1.0000

> <Gold.PLP.Chemscore.Metal>
0.0000

> <Gold.Chemscore.Hbonds>
donor molecule, donor type, donor heavy atom, donor atom, acceptor molecule, acceptor atom, score
      L1  H     1    29       P1 10957  1.00
      L1  H     5    34       P1 10957  0.93
      L1  C    25    55       P1  7957  0.53

> <Gold.PLP.Chemscore.Internal.Correction>
0.7403

> <Gold.Rescore>
     Score         DG    S(hbond)    S(metal)    S(lipo)     H(rot)  DE(clash)    DE(int)     intcor
     11.07     -13.50       1.99        0.00      93.07       3.71       0.69       1.74       ----

> <Gold.Chemscore.Fitness>
11.0659

> <Gold.Chemscore.DG>
-13.5020

> <Gold.Chemscore.ZeroCoef>
-5.4800

> <Gold.Chemscore.Hbond>
1.9858

> <Gold.Chemscore.Metal>
0.0000

> <Gold.Chemscore.Lipo>
93.0726

> <Gold.Chemscore.Internal_Hbond>
0.0000

> <Gold.Chemscore.DEClash>
0.6943

> <Gold.Chemscore.DEInternal>
1.7419

> <Gold.Chemscore.Rot>
3.7109

> <Gold.Chemscore.Internal.Correction>
   9.000000E+99

> <Gold.Chemscore.Hbonds>
donor molecule, donor type, donor heavy atom, donor atom, acceptor molecule, acceptor atom, score
      L1  H     1    29       P1 10957  0.94
      L1  H     5    34       P1 10957  0.89

> <Gold.Chemscore.Hbond.Weighted>
-6.6325

> <Gold.Chemscore.Metal.Weighted>
-0.0000

> <Gold.Chemscore.Lipo.Weighted>
-10.8895

> <Gold.Chemscore.Internal_Hbond.Weighted>
0.0000

> <Gold.Chemscore.DEClash.Weighted>
0.6943

> <Gold.Chemscore.DEInternal.Weighted>
1.7419

> <Gold.Chemscore.Rot.Weighted>
9.5000

> <Gold.Chemscore.Internal.Correction.Weighted>
   9.000000E+99

> <Gold.Protein.RotatedTorsions>
[ 6907 6896 6895 6894 ] final  -38.26 input  -60.11 | X-H torsion
[ 7974 7965 7964 7962 ] final    2.93 input  175.53 | X-H torsion
[ 8008 7997 7996 7995 ] final  -72.69 input   59.86 | X-H torsion
[ 10167 10162 10161 10158 ] final  134.48 input  -65.29 | X-H torsion
[ 10718 10713 10712 10709 ] final  -87.97 input   66.30 | X-H torsion
[ 10763 10752 10751 10750 ] final  144.99 input  -60.55 | X-H torsion
[ 11005 11000 10999 10996 ] final   14.60 input  -57.11 | X-H torsion

> <Gold.Protein.ActiveResidues>
 VAL166  LYS551  ARG553  GLY616  TRP617  ASP618  TYR619  PRO620  LYS621  CYS622 
 ASP623  PHE694  ASN695  SER759  ASP760  ASP761  ALA762  ILE779  LEU786  VAL792 
 PHE793  MET794  SER795  GLU796  ALA797  LYS798  CYS799  TRP800  GLU811  SER814 

> <Gold.Protein.RotatedAtoms>
  151.0046  134.9349  159.7972 H   0  0  0  0  0  0  0  0  0  0  0  0  # atno 6907 bound_to 6896
  152.5287  134.3108  159.9123 H   0  0  0  0  0  0  0  0  0  0  0  0  # atno 6908 bound_to 6896
  151.3114  133.4037  159.2681 H   0  0  0  0  0  0  0  0  0  0  0  0  # atno 6909 bound_to 6896
  146.2444  140.0762  142.8359 H   0  0  0  0  0  0  0  0  0  0  0  0  # atno 7974 bound_to 7965
  154.5187  140.0792  156.8130 H   0  0  0  0  0  0  0  0  0  0  0  0  # atno 8008 bound_to 7997
  155.3624  140.3418  155.4223 H   0  0  0  0  0  0  0  0  0  0  0  0  # atno 8009 bound_to 7997
  156.1656  140.1603  156.8524 H   0  0  0  0  0  0  0  0  0  0  0  0  # atno 8010 bound_to 7997
  139.5254  144.6565  151.5146 H   0  0  0  0  0  0  0  0  0  0  0  0  # atno 10167 bound_to 10162
  155.9984  130.4819  150.4948 H   0  0  0  0  0  0  0  0  0  0  0  0  # atno 10718 bound_to 10713
  153.9980  135.2926  155.3405 H   0  0  0  0  0  0  0  0  0  0  0  0  # atno 10763 bound_to 10752
  154.7176  135.5123  153.8764 H   0  0  0  0  0  0  0  0  0  0  0  0  # atno 10764 bound_to 10752
  153.0779  135.6669  154.0225 H   0  0  0  0  0  0  0  0  0  0  0  0  # atno 10765 bound_to 10752
  140.4677  134.1062  155.7727 H   0  0  0  0  0  0  0  0  0  0  0  0  # atno 11005 bound_to 11000
  145.0773  140.9197  143.4846 LP  0  0  0  0  0  0  0  0  0  0  0  0  # atno 17320 bound_to 7965
  145.0908  139.2892  143.5736 LP  0  0  0  0  0  0  0  0  0  0  0  0  # atno 17321 bound_to 7965
  140.6393  143.8921  150.6676 LP  0  0  0  0  0  0  0  0  0  0  0  0  # atno 17342 bound_to 10162
  140.2251  143.3779  152.1611 LP  0  0  0  0  0  0  0  0  0  0  0  0  # atno 17343 bound_to 10162
  157.2939  131.0632  151.2115 LP  0  0  0  0  0  0  0  0  0  0  0  0  # atno 17370 bound_to 10713
  157.3118  130.6893  149.6220 LP  0  0  0  0  0  0  0  0  0  0  0  0  # atno 17371 bound_to 10713
  141.1591  133.8826  157.1896 LP  0  0  0  0  0  0  0  0  0  0  0  0  # atno 17394 bound_to 11000
  139.9905  135.0066  156.9963 LP  0  0  0  0  0  0  0  0  0  0  0  0  # atno 17395 bound_to 11000

$$$$
