AV-unprocessed.smi:1304|AV-procd|sdf|5429|dock6
  -GOLD-   22720 4593D 1   1.00000     0.00000
 Structure written by MMmdl.
 47 48  0  0  0  0  0  0  0  0  1 V2000
  151.8161  139.0525  155.1380 C   0  0  0  0  0  0  0  0  0  0  0  0
  151.9893  140.1045  156.2485 C   0  0  0  0  0  0  0  0  0  0  0  0
  151.0808  139.9185  157.5060 C   0  0  1  0  0  0  0  0  0  0  0  0
  149.7337  140.6169  157.1759 C   0  0  0  0  0  0  0  0  0  0  0  0
  150.8008  138.3932  157.7073 C   0  0  0  0  0  0  0  0  0  0  0  0
  149.5488  138.1100  158.4087 N   0  0  0  0  0  0  0  0  0  0  0  0
  149.1944  136.9280  158.9353 C   0  0  0  0  0  0  0  0  0  0  0  0
  149.9210  135.9338  158.9216 O   0  0  0  0  0  0  0  0  0  0  0  0
  147.8042  136.8662  159.5812 C   0  0  0  0  0  0  0  0  0  0  0  0
  147.7175  135.8492  160.6419 N   0  0  0  0  0  0  0  0  0  0  0  0
  147.8808  134.5028  160.2595 C   0  0  0  0  0  0  0  0  0  0  0  0
  147.8177  133.4994  161.1491 C   0  0  0  0  0  0  0  0  0  0  0  0
  147.5753  133.8289  162.5337 C   0  0  0  0  0  0  0  0  0  0  0  0
  147.4147  135.1132  162.9099 C   0  0  0  0  0  0  0  0  0  0  0  0
  147.4802  136.2129  161.9406 C   0  0  0  0  0  0  0  0  0  0  0  0
  147.3312  137.3889  162.2751 O   0  0  0  0  0  0  0  0  0  0  0  0
  151.7083  140.5338  158.7103 N   0  0  0  0  0  0  0  0  0  0  0  0
  152.9679  139.9183  159.1455 C   0  0  0  0  0  0  0  0  0  0  0  0
  153.4724  140.5141  160.4712 C   0  0  0  0  0  0  0  0  0  0  0  0
  153.6218  141.9227  160.3391 O   0  0  0  0  0  0  0  0  0  0  0  0
  152.4070  142.5658  159.9723 C   0  0  0  0  0  0  0  0  0  0  0  0
  151.8977  141.9881  158.6411 C   0  0  0  0  0  0  0  0  0  0  0  0
  152.4836  139.2682  154.3036 H   0  0  0  0  0  0  0  0  0  0  0  0
  150.7999  139.0387  154.7446 H   0  0  0  0  0  0  0  0  0  0  0  0
  152.0539  138.0492  155.4901 H   0  0  0  0  0  0  0  0  0  0  0  0
  153.0393  140.0876  156.5412 H   0  0  0  0  0  0  0  0  0  0  0  0
  151.8429  141.0961  155.8204 H   0  0  0  0  0  0  0  0  0  0  0  0
  149.3691  140.3563  156.1818 H   0  0  0  0  0  0  0  0  0  0  0  0
  149.8243  141.7028  157.2088 H   0  0  0  0  0  0  0  0  0  0  0  0
  148.9458  140.3355  157.8746 H   0  0  0  0  0  0  0  0  0  0  0  0
  150.8152  137.8637  156.7546 H   0  0  0  0  0  0  0  0  0  0  0  0
  151.5874  137.9384  158.3081 H   0  0  0  0  0  0  0  0  0  0  0  0
  148.8868  138.8699  158.4720 H   0  0  0  0  0  0  0  0  0  0  0  0
  147.5687  137.8567  159.9725 H   0  0  0  0  0  0  0  0  0  0  0  0
  147.0467  136.6717  158.8190 H   0  0  0  0  0  0  0  0  0  0  0  0
  148.0516  134.3402  159.2052 H   0  0  0  0  0  0  0  0  0  0  0  0
  147.9409  132.4728  160.8369 H   0  0  0  0  0  0  0  0  0  0  0  0
  147.5211  133.0418  163.2711 H   0  0  0  0  0  0  0  0  0  0  0  0
  147.2336  135.3407  163.9502 H   0  0  0  0  0  0  0  0  0  0  0  0
  152.8491  138.8457  159.2886 H   0  0  0  0  0  0  0  0  0  0  0  0
  153.7385  140.0545  158.3872 H   0  0  0  0  0  0  0  0  0  0  0  0
  152.7807  140.2884  161.2842 H   0  0  0  0  0  0  0  0  0  0  0  0
  154.4349  140.0785  160.7400 H   0  0  0  0  0  0  0  0  0  0  0  0
  151.6632  142.4345  160.7599 H   0  0  0  0  0  0  0  0  0  0  0  0
  152.5860  143.6366  159.8761 H   0  0  0  0  0  0  0  0  0  0  0  0
  152.6120  142.2406  157.8576 H   0  0  0  0  0  0  0  0  0  0  0  0
  150.9662  142.4934  158.3934 H   0  0  0  0  0  0  0  0  0  0  0  0
  1  2  1  0  0  0  0
  1 23  1  0  0  0  0
  1 24  1  0  0  0  0
  1 25  1  0  0  0  0
  2  3  1  0  0  0  0
  2 26  1  0  0  0  0
  2 27  1  0  0  0  0
  3  4  1  0  0  0  0
  3  5  1  0  0  0  0
  3 17  1  0  0  0  0
  4 28  1  0  0  0  0
  4 29  1  0  0  0  0
  4 30  1  0  0  0  0
  5  6  1  0  0  0  0
  5 31  1  0  0  0  0
  5 32  1  0  0  0  0
  6  7  1  0  0  0  0
  6 33  1  0  0  0  0
  7  8  2  0  0  0  0
  7  9  1  0  0  0  0
  9 10  1  0  0  0  0
  9 34  1  0  0  0  0
  9 35  1  0  0  0  0
 10 15  1  0  0  0  0
 10 11  1  0  0  0  0
 11 12  2  0  0  0  0
 11 36  1  0  0  0  0
 12 13  1  0  0  0  0
 12 37  1  0  0  0  0
 13 14  2  0  0  0  0
 13 38  1  0  0  0  0
 14 15  1  0  0  0  0
 14 39  1  0  0  0  0
 15 16  2  0  0  0  0
 17 22  1  0  0  0  0
 17 18  1  0  0  0  0
 18 19  1  0  0  0  0
 18 40  1  0  0  0  0
 18 41  1  0  0  0  0
 19 20  1  0  0  0  0
 19 42  1  0  0  0  0
 19 43  1  0  0  0  0
 20 21  1  0  0  0  0
 21 22  1  0  0  0  0
 21 44  1  0  0  0  0
 21 45  1  0  0  0  0
 22 46  1  0  0  0  0
 22 47  1  0  0  0  0
M  END
> <s_m_source_file>
AV-unprocessed.smi

> <i_m_source_file_index>
1304

> <i_lp_mmshare_version>
43012

> <i_f3d_flags>
0

> <s_epik_input>
W0NIMl0xW0NIMl1PW0NIMl1bQ0gyXU4xW0NAQF0oW0NIM10pKFtDSDJdW0NIM10pW0NIMl1bTkhdQyg9TylbQ0gyXW4yW2NIXVtjSF1bY0hdW2NIXWMyPU8=

> <s_epik_cmdline>
J2VwaWtfcHl0aG9uJywgJy1waCcsICc3LjAnLCAnLXRuJywgJzgnLCAnLW1hJywgJzIwMCcsICctbWV0YWxfYmluZGluZycsICctaW1hZScsICc8aW5maWxlLm1hZT4nLCAnLW9tYWUnLCAnPG91dGZpbGUubWFlPic=

> <r_lp_tautomer_probability>
1

> <r_epik_Ionization_Penalty>
0.318667

> <r_epik_Ionization_Penalty_Charging>
3.55364e-07

> <r_epik_Ionization_Penalty_Neutral>
0.318667

> <r_epik_State_Penalty>
0.313095

> <r_epik_Charging_Adjusted_Penalty>
0.313095

> <i_epik_Tot_Q>
0

> <i_epik_Tot_abs_Q>
0

> <r_epik_Metal_State_Penalty>
0.313065

> <b_epik_Metal_Only>
0

> <s_lp_Force_Field>
OPLS_2005

> <r_lp_Energy>
51.6355

> <b_lp_Chiralities_Consistent>
1

> <s_lp_Variant>
AV-unprocessed.smi:1304-1

> <Gold.Version>
5.8.1

> <Gold.Id.Protein>
6NUR|6NUR_protein|mol2

> <Gold.PLP.Fitness>
48.2935

> <Gold.PLP.PLP>
-44.0588

> <Gold.PLP.part.hbond>
-3.0000

> <Gold.PLP.part.metal>
0.0000

> <Gold.PLP.part.buried>
-6.1884

> <Gold.PLP.part.nonpolar>
-35.1575

> <Gold.PLP.part.repulsive>
0.1390

> <Gold.PLP.ligand.clash>
0.0000

> <Gold.PLP.ligand.torsion>
1.3386

> <Gold.PLP.Chemscore.Hbond>
2.2560

> <Gold.PLP.Chemscore.CHOScore>
0.0000

> <Gold.PLP.Chemscore.Metal>
0.0000

> <Gold.Chemscore.Hbonds>
donor molecule, donor type, donor heavy atom, donor atom, acceptor molecule, acceptor atom, score
      P1  H  6896  6908       L1     8  0.88
      P1  H  6931  6943       L1    16  0.74
      P1  H  6934  6947       L1    16  0.47

> <Gold.PLP.Chemscore.Internal.Correction>
0.1438

> <Gold.Rescore>
     Score         DG    S(hbond)    S(metal)    S(lipo)     H(rot)  DE(clash)    DE(int)     intcor
     16.60     -19.71       2.63        0.00      89.31       1.95       0.01       3.09       ----

> <Gold.Chemscore.Fitness>
16.6041

> <Gold.Chemscore.DG>
-19.7063

> <Gold.Chemscore.ZeroCoef>
-5.4800

> <Gold.Chemscore.Hbond>
2.6265

> <Gold.Chemscore.Metal>
0.0000

> <Gold.Chemscore.Lipo>
89.3129

> <Gold.Chemscore.Internal_Hbond>
0.0000

> <Gold.Chemscore.DEClash>
0.0126

> <Gold.Chemscore.DEInternal>
3.0896

> <Gold.Chemscore.Rot>
1.9515

> <Gold.Chemscore.Internal.Correction>
   9.000000E+99

> <Gold.Chemscore.Hbonds>
donor molecule, donor type, donor heavy atom, donor atom, acceptor molecule, acceptor atom, score
      P1  H  6896  6908       L1     8  0.86
      P1  H  6931  6943       L1    16  0.41
      P1  H  6934  6947       L1    16  0.47

> <Gold.Chemscore.Hbond.Weighted>
-8.7725

> <Gold.Chemscore.Metal.Weighted>
-0.0000

> <Gold.Chemscore.Lipo.Weighted>
-10.4496

> <Gold.Chemscore.Internal_Hbond.Weighted>
0.0000

> <Gold.Chemscore.DEClash.Weighted>
0.0126

> <Gold.Chemscore.DEInternal.Weighted>
3.0896

> <Gold.Chemscore.Rot.Weighted>
4.9958

> <Gold.Chemscore.Internal.Correction.Weighted>
   9.000000E+99

> <Gold.Protein.RotatedTorsions>
[ 6907 6896 6895 6894 ] final  163.10 input  -60.11 | X-H torsion
[ 7974 7965 7964 7962 ] final  176.94 input  175.53 | X-H torsion
[ 8008 7997 7996 7995 ] final  169.74 input   59.86 | X-H torsion
[ 10167 10162 10161 10158 ] final   39.64 input  -65.29 | X-H torsion
[ 10718 10713 10712 10709 ] final   -2.26 input   66.30 | X-H torsion
[ 10763 10752 10751 10750 ] final  -21.47 input  -60.55 | X-H torsion
[ 11005 11000 10999 10996 ] final   45.12 input  -57.11 | X-H torsion

> <Gold.Protein.ActiveResidues>
 VAL166  LYS551  ARG553  GLY616  TRP617  ASP618  TYR619  PRO620  LYS621  CYS622 
 ASP623  PHE694  ASN695  SER759  ASP760  ASP761  ALA762  ILE779  LEU786  VAL792 
 PHE793  MET794  SER795  GLU796  ALA797  LYS798  CYS799  TRP800  GLU811  SER814 

> <Gold.Protein.RotatedAtoms>
  151.9303  133.3609  159.3928 H   0  0  0  0  0  0  0  0  0  0  0  0  # atno 6907 bound_to 6896
  150.7018  134.4544  159.5360 H   0  0  0  0  0  0  0  0  0  0  0  0  # atno 6908 bound_to 6896
  152.2183  134.8437  160.0540 H   0  0  0  0  0  0  0  0  0  0  0  0  # atno 6909 bound_to 6896
  144.7176  140.0172  143.6440 H   0  0  0  0  0  0  0  0  0  0  0  0  # atno 7974 bound_to 7965
  156.1430  140.1556  156.8891 H   0  0  0  0  0  0  0  0  0  0  0  0  # atno 8008 bound_to 7997
  154.5004  140.0827  156.7823 H   0  0  0  0  0  0  0  0  0  0  0  0  # atno 8009 bound_to 7997
  155.4042  140.3416  155.4261 H   0  0  0  0  0  0  0  0  0  0  0  0  # atno 8010 bound_to 7997
  140.3820  144.1967  150.6130 H   0  0  0  0  0  0  0  0  0  0  0  0  # atno 10167 bound_to 10162
  156.7934  130.5369  149.5732 H   0  0  0  0  0  0  0  0  0  0  0  0  # atno 10718 bound_to 10713
  153.6366  135.6987  153.5256 H   0  0  0  0  0  0  0  0  0  0  0  0  # atno 10763 bound_to 10752
  153.2816  135.4184  155.1083 H   0  0  0  0  0  0  0  0  0  0  0  0  # atno 10764 bound_to 10752
  154.8509  135.3603  154.5909 H   0  0  0  0  0  0  0  0  0  0  0  0  # atno 10765 bound_to 10752
  140.1489  134.4487  155.8396 H   0  0  0  0  0  0  0  0  0  0  0  0  # atno 11005 bound_to 11000
  146.0210  139.3251  143.0812 LP  0  0  0  0  0  0  0  0  0  0  0  0  # atno 17320 bound_to 7965
  145.8568  140.9498  143.0721 LP  0  0  0  0  0  0  0  0  0  0  0  0  # atno 17321 bound_to 7965
  140.4928  143.2342  151.8793 LP  0  0  0  0  0  0  0  0  0  0  0  0  # atno 17342 bound_to 10162
  139.4795  144.5147  151.8885 LP  0  0  0  0  0  0  0  0  0  0  0  0  # atno 17343 bound_to 10162
  156.1145  130.6065  151.0099 LP  0  0  0  0  0  0  0  0  0  0  0  0  # atno 17370 bound_to 10713
  157.6589  131.0884  150.7884 LP  0  0  0  0  0  0  0  0  0  0  0  0  # atno 17371 bound_to 10713
  141.2196  133.6864  156.7385 LP  0  0  0  0  0  0  0  0  0  0  0  0  # atno 17394 bound_to 11000
  140.2629  134.8452  157.3776 LP  0  0  0  0  0  0  0  0  0  0  0  0  # atno 17395 bound_to 11000

$$$$
