AV-unprocessed.smi:205|AV-procd|sdf|1600|dock3
  -GOLD-   2262019513D 1   1.00000     0.00000
 Structure written by MMmdl.
 54 56  0  0  0  0  0  0  0  0  1 V2000
  151.5872  137.1414  154.0049 O   0  0  0  0  0  0  0  0  0  0  0  0
  151.6315  138.4997  154.3874 C   0  0  0  0  0  0  0  0  0  0  0  0
  150.2136  139.0823  154.4251 C   0  0  0  0  0  0  0  0  0  0  0  0
  149.8040  139.2201  155.7755 O   0  0  0  0  0  0  0  0  0  0  0  0
  149.1768  140.4652  156.0326 C   0  0  0  0  0  0  0  0  0  0  0  0
  147.8915  140.5682  155.1917 C   0  0  0  0  0  0  0  0  0  0  0  0
  147.1008  139.3367  155.1624 N   0  0  0  0  0  0  0  0  0  0  0  0
  146.1249  139.1279  156.2315 C   0  0  0  0  0  0  0  0  0  0  0  0
  144.8280  139.9357  156.0396 C   0  0  0  0  0  0  0  0  0  0  0  0
  144.0044  139.3231  155.0703 O   0  0  0  0  0  0  0  0  0  0  0  0
  146.7669  138.7846  153.9692 C   0  0  0  0  0  0  0  0  0  0  0  0
  147.0481  139.5044  152.8533 N   0  0  0  0  0  0  0  0  0  0  0  0
  146.7323  139.0276  151.6463 C   0  0  0  0  0  0  0  0  0  0  0  0
  146.1406  137.8734  151.3344 N   0  0  0  0  0  0  0  0  0  0  0  0
  145.8639  137.1397  152.4505 C   0  0  0  0  0  0  0  0  0  0  0  0
  146.1522  137.5100  153.7952 C   0  0  0  0  0  0  0  0  0  0  0  0
  145.7574  136.4925  154.6565 N   0  0  0  0  0  0  0  0  0  0  0  0
  145.2524  135.5830  153.8695 C   0  0  0  0  0  0  0  0  0  0  0  0
  145.2430  135.9049  152.5316 N   0  0  0  0  0  0  0  0  0  0  0  0
  144.7764  135.0779  151.4574 C   0  0  0  0  0  0  0  0  0  0  0  0
  144.0892  133.7373  151.7332 C   0  0  0  0  0  0  0  0  0  0  0  0
  144.7771  133.1123  150.4999 C   0  0  0  0  0  0  0  0  0  0  0  0
  145.4171  131.7365  150.7408 C   0  0  0  0  0  0  0  0  0  0  0  0
  146.4046  131.4531  149.7704 O   0  0  0  0  0  0  0  0  0  0  0  0
  143.9417  133.0050  149.2051 C   0  0  0  0  0  0  0  0  0  0  0  0
  142.8464  132.1193  149.3199 O   0  0  0  0  0  0  0  0  0  0  0  0
  145.7632  134.2990  150.5811 C   0  0  0  0  0  0  0  0  0  0  0  0
  151.3439  137.0935  153.0931 H   0  0  0  0  0  0  0  0  0  0  0  0
  152.1331  138.6109  155.3493 H   0  0  0  0  0  0  0  0  0  0  0  0
  152.2299  139.0312  153.6471 H   0  0  0  0  0  0  0  0  0  0  0  0
  150.2174  140.0705  153.9629 H   0  0  0  0  0  0  0  0  0  0  0  0
  149.5203  138.4604  153.8555 H   0  0  0  0  0  0  0  0  0  0  0  0
  148.9196  140.5282  157.0909 H   0  0  0  0  0  0  0  0  0  0  0  0
  149.8610  141.2882  155.8248 H   0  0  0  0  0  0  0  0  0  0  0  0
  147.2701  141.3685  155.5948 H   0  0  0  0  0  0  0  0  0  0  0  0
  148.1355  140.8650  154.1719 H   0  0  0  0  0  0  0  0  0  0  0  0
  145.8736  138.0675  156.2751 H   0  0  0  0  0  0  0  0  0  0  0  0
  146.5802  139.3557  157.1960 H   0  0  0  0  0  0  0  0  0  0  0  0
  144.2830  140.0740  156.9737 H   0  0  0  0  0  0  0  0  0  0  0  0
  145.0748  140.9302  155.6675 H   0  0  0  0  0  0  0  0  0  0  0  0
  144.0900  139.7990  154.2584 H   0  0  0  0  0  0  0  0  0  0  0  0
  146.9844  139.6649  150.8116 H   0  0  0  0  0  0  0  0  0  0  0  0
  144.8619  134.6497  154.2486 H   0  0  0  0  0  0  0  0  0  0  0  0
  144.1384  135.7173  150.8460 H   0  0  0  0  0  0  0  0  0  0  0  0
  144.4188  133.2895  152.6722 H   0  0  0  0  0  0  0  0  0  0  0  0
  143.0004  133.7726  151.6810 H   0  0  0  0  0  0  0  0  0  0  0  0
  145.8663  131.6764  151.7327 H   0  0  0  0  0  0  0  0  0  0  0  0
  144.6695  130.9439  150.6926 H   0  0  0  0  0  0  0  0  0  0  0  0
  147.2332  131.3403  150.2114 H   0  0  0  0  0  0  0  0  0  0  0  0
  143.5479  133.9806  148.9180 H   0  0  0  0  0  0  0  0  0  0  0  0
  144.5543  132.6589  148.3723 H   0  0  0  0  0  0  0  0  0  0  0  0
  142.0593  132.6292  149.4366 H   0  0  0  0  0  0  0  0  0  0  0  0
  145.9878  134.7758  149.6265 H   0  0  0  0  0  0  0  0  0  0  0  0
  146.6824  134.0510  151.1146 H   0  0  0  0  0  0  0  0  0  0  0  0
  1  2  1  0  0  0  0
  1 28  1  0  0  0  0
  2  3  1  0  0  0  0
  2 29  1  0  0  0  0
  2 30  1  0  0  0  0
  3  4  1  0  0  0  0
  3 31  1  0  0  0  0
  3 32  1  0  0  0  0
  4  5  1  0  0  0  0
  5  6  1  0  0  0  0
  5 33  1  0  0  0  0
  5 34  1  0  0  0  0
  6  7  1  0  0  0  0
  6 35  1  0  0  0  0
  6 36  1  0  0  0  0
  7  8  1  0  0  0  0
  7 11  1  0  0  0  0
  8  9  1  0  0  0  0
  8 37  1  0  0  0  0
  8 38  1  0  0  0  0
  9 10  1  0  0  0  0
  9 39  1  0  0  0  0
  9 40  1  0  0  0  0
 10 41  1  0  0  0  0
 11 16  1  0  0  0  0
 11 12  2  0  0  0  0
 12 13  1  0  0  0  0
 13 14  2  0  0  0  0
 13 42  1  0  0  0  0
 14 15  1  0  0  0  0
 15 19  1  0  0  0  0
 15 16  2  0  0  0  0
 16 17  1  0  0  0  0
 17 18  2  0  0  0  0
 18 19  1  0  0  0  0
 18 43  1  0  0  0  0
 19 20  1  0  0  0  0
 20 27  1  0  0  0  0
 20 21  1  0  0  0  0
 20 44  1  0  0  0  0
 21 22  1  0  0  0  0
 21 45  1  0  0  0  0
 21 46  1  0  0  0  0
 22 23  1  0  0  0  0
 22 25  1  0  0  0  0
 22 27  1  0  0  0  0
 23 24  1  0  0  0  0
 23 47  1  0  0  0  0
 23 48  1  0  0  0  0
 24 49  1  0  0  0  0
 25 26  1  0  0  0  0
 25 50  1  0  0  0  0
 25 51  1  0  0  0  0
 26 52  1  0  0  0  0
 27 53  1  0  0  0  0
 27 54  1  0  0  0  0
M  END
> <s_m_source_file>
AV-unprocessed.smi

> <i_m_source_file_index>
205

> <i_lp_mmshare_version>
43012

> <i_f3d_flags>
0

> <s_epik_input>
W09IXVtDSDJdW0NIMl1PW0NIMl1bQ0gyXU4oW0NIMl1bQ0gyXVtPSF0pYyhuW2NIXW4xKWMoYzEyKW5bY0hdbjJbQ0hdKFtDSDJdMylbQ0gyXUMzKFtDSDJdW09IXSlbQ0gyXVtPSF0=

> <s_epik_cmdline>
J2VwaWtfcHl0aG9uJywgJy1waCcsICc3LjAnLCAnLXRuJywgJzgnLCAnLW1hJywgJzIwMCcsICctbWV0YWxfYmluZGluZycsICctaW1hZScsICc8aW5maWxlLm1hZT4nLCAnLW9tYWUnLCAnPG91dGZpbGUubWFlPic=

> <r_lp_tautomer_probability>
1

> <r_epik_Ionization_Penalty>
0.00545557

> <r_epik_Ionization_Penalty_Charging>
0

> <r_epik_Ionization_Penalty_Neutral>
0.00545557

> <r_epik_State_Penalty>
0.00384469

> <r_epik_Charging_Adjusted_Penalty>
0.00384469

> <i_epik_Tot_Q>
0

> <i_epik_Tot_abs_Q>
0

> <r_epik_Metal_State_Penalty>
-0

> <b_epik_Metal_Only>
0

> <s_lp_Force_Field>
OPLS_2005

> <r_lp_Energy>
40.5801

> <b_lp_Chiralities_Consistent>
1

> <s_lp_Variant>
AV-unprocessed.smi:205-1

> <Gold.Version>
5.8.1

> <Gold.Id.Protein>
6NUR|6NUR_protein|mol2

> <Gold.PLP.Fitness>
55.9720

> <Gold.PLP.PLP>
-39.5393

> <Gold.PLP.part.hbond>
-6.9813

> <Gold.PLP.part.metal>
0.0000

> <Gold.PLP.part.buried>
-6.7446

> <Gold.PLP.part.nonpolar>
-28.1673

> <Gold.PLP.part.repulsive>
2.8583

> <Gold.PLP.ligand.clash>
0.0000

> <Gold.PLP.ligand.torsion>
1.9091

> <Gold.PLP.Chemscore.Hbond>
5.7713

> <Gold.PLP.Chemscore.CHOScore>
0.4839

> <Gold.PLP.Chemscore.Metal>
0.0000

> <Gold.Chemscore.Hbonds>
donor molecule, donor type, donor heavy atom, donor atom, acceptor molecule, acceptor atom, score
      L1  H     1    28       P1  7949  0.94
      L1  H    10    41       P1 10175  1.00
      L1  H    24    49       P1 10747  1.00
      L1  H    26    52       P1 10186  0.91
      P1  H 10752 10765       L1     1  1.00
      P1  H 10785 10796       L1    26  0.86
      L1  C    13    42       P1  7957  0.37

> <Gold.PLP.Chemscore.Internal.Correction>
1.4855

> <Gold.Rescore>
     Score         DG    S(hbond)    S(metal)    S(lipo)     H(rot)  DE(clash)    DE(int)     intcor
      9.24     -13.93       5.05        0.00      76.11       6.76       2.64       2.05       ----

> <Gold.Chemscore.Fitness>
9.2450

> <Gold.Chemscore.DG>
-13.9330

> <Gold.Chemscore.ZeroCoef>
-5.4800

> <Gold.Chemscore.Hbond>
5.0459

> <Gold.Chemscore.Metal>
0.0000

> <Gold.Chemscore.Lipo>
76.1141

> <Gold.Chemscore.Internal_Hbond>
0.0000

> <Gold.Chemscore.DEClash>
2.6406

> <Gold.Chemscore.DEInternal>
2.0475

> <Gold.Chemscore.Rot>
6.7600

> <Gold.Chemscore.Internal.Correction>
   9.000000E+99

> <Gold.Chemscore.Hbonds>
donor molecule, donor type, donor heavy atom, donor atom, acceptor molecule, acceptor atom, score
      L1  H     1    28       P1  7949  0.68
      L1  H    10    41       P1 10175  0.99
      L1  H    24    49       P1 10747  0.96
      L1  H    26    52       P1 10186  0.85
      P1  H 10752 10765       L1     1  0.47
      P1  H 10785 10796       L1    26  0.78

> <Gold.Chemscore.Hbond.Weighted>
-16.8532

> <Gold.Chemscore.Metal.Weighted>
-0.0000

> <Gold.Chemscore.Lipo.Weighted>
-8.9054

> <Gold.Chemscore.Internal_Hbond.Weighted>
0.0000

> <Gold.Chemscore.DEClash.Weighted>
2.6406

> <Gold.Chemscore.DEInternal.Weighted>
2.0475

> <Gold.Chemscore.Rot.Weighted>
17.3055

> <Gold.Chemscore.Internal.Correction.Weighted>
   9.000000E+99

> <Gold.Protein.RotatedTorsions>
[ 6907 6896 6895 6894 ] final  -54.10 input  -60.11 | X-H torsion
[ 7974 7965 7964 7962 ] final   41.64 input  175.53 | X-H torsion
[ 8008 7997 7996 7995 ] final -165.66 input   59.86 | X-H torsion
[ 10167 10162 10161 10158 ] final  122.29 input  -65.29 | X-H torsion
[ 10718 10713 10712 10709 ] final  -44.21 input   66.30 | X-H torsion
[ 10763 10752 10751 10750 ] final  160.09 input  -60.55 | X-H torsion
[ 11005 11000 10999 10996 ] final  -35.68 input  -57.11 | X-H torsion

> <Gold.Protein.ActiveResidues>
 VAL166  LYS551  ARG553  GLY616  TRP617  ASP618  TYR619  PRO620  LYS621  CYS622 
 ASP623  PHE694  ASN695  SER759  ASP760  ASP761  ALA762  ILE779  LEU786  VAL792 
 PHE793  MET794  SER795  GLU796  ALA797  LYS798  CYS799  TRP800  GLU811  SER814 

> <Gold.Protein.RotatedAtoms>
  150.8367  134.7643  159.6898 H   0  0  0  0  0  0  0  0  0  0  0  0  # atno 6907 bound_to 6896
  152.4463  134.5485  159.9869 H   0  0  0  0  0  0  0  0  0  0  0  0  # atno 6908 bound_to 6896
  151.5634  133.3362  159.3011 H   0  0  0  0  0  0  0  0  0  0  0  0  # atno 6909 bound_to 6896
  146.0807  139.5392  142.9539 H   0  0  0  0  0  0  0  0  0  0  0  0  # atno 7974 bound_to 7965
  155.8529  140.0966  157.1663 H   0  0  0  0  0  0  0  0  0  0  0  0  # atno 8008 bound_to 7997
  154.3986  140.1379  156.3928 H   0  0  0  0  0  0  0  0  0  0  0  0  # atno 8009 bound_to 7997
  155.7941  140.3455  155.5368 H   0  0  0  0  0  0  0  0  0  0  0  0  # atno 8010 bound_to 7997
  139.5868  144.7009  151.3390 H   0  0  0  0  0  0  0  0  0  0  0  0  # atno 10167 bound_to 10162
  156.2409  130.4180  149.8761 H   0  0  0  0  0  0  0  0  0  0  0  0  # atno 10718 bound_to 10713
  154.2420  135.2774  155.2850 H   0  0  0  0  0  0  0  0  0  0  0  0  # atno 10763 bound_to 10752
  154.5537  135.5667  153.6948 H   0  0  0  0  0  0  0  0  0  0  0  0  # atno 10764 bound_to 10752
  152.9998  135.6281  154.2564 H   0  0  0  0  0  0  0  0  0  0  0  0  # atno 10765 bound_to 10752
  140.9815  133.7053  156.1692 H   0  0  0  0  0  0  0  0  0  0  0  0  # atno 11005 bound_to 11000
  145.6224  141.0320  143.1908 LP  0  0  0  0  0  0  0  0  0  0  0  0  # atno 17320 bound_to 7965
  144.7291  139.7781  143.7354 LP  0  0  0  0  0  0  0  0  0  0  0  0  # atno 17321 bound_to 7965
  140.7138  143.7321  150.7616 LP  0  0  0  0  0  0  0  0  0  0  0  0  # atno 17342 bound_to 10162
  140.0867  143.4917  152.2501 LP  0  0  0  0  0  0  0  0  0  0  0  0  # atno 17343 bound_to 10162
  156.6343  130.8678  151.3501 LP  0  0  0  0  0  0  0  0  0  0  0  0  # atno 17370 bound_to 10713
  157.7175  130.9515  150.1310 LP  0  0  0  0  0  0  0  0  0  0  0  0  # atno 17371 bound_to 10713
  140.7179  134.4391  157.5577 LP  0  0  0  0  0  0  0  0  0  0  0  0  # atno 17394 bound_to 11000
  139.8952  134.8688  156.2141 LP  0  0  0  0  0  0  0  0  0  0  0  0  # atno 17395 bound_to 11000

$$$$
