AV-unprocessed.smi:3287|AV-procd|sdf|12594|dock5
  -GOLD-   2272018513D 1   1.00000     0.00000
 Structure written by MMmdl.
 43 44  0  0  0  0  0  0  0  0  2 V2000
  150.5451  142.0336  156.3226 C   0  0  0  0  0  0  0  0  0  0  0  0
  149.9012  141.2472  155.1668 C   0  0  2  0  0  0  0  0  0  0  0  0
  148.3759  141.1653  155.3782 C   0  0  0  0  0  0  0  0  0  0  0  0
  147.6791  140.3973  154.2475 C   0  0  0  0  0  0  0  0  0  0  0  0
  148.2560  138.9808  154.1048 C   0  0  1  0  0  0  0  0  0  0  0  0
  147.5629  138.2668  153.0096 N   0  3  0  0  0  0  0  0  0  0  0  0
  146.3089  137.5830  153.3940 C   0  0  0  0  0  0  0  0  0  0  0  0
  145.3767  137.3927  152.1850 C   0  0  1  0  0  0  0  0  0  0  0  0
  145.9744  137.9868  151.0490 O   0  0  0  0  0  0  0  0  0  0  0  0
  145.0707  135.9202  151.9580 C   0  0  0  0  0  0  0  0  0  0  0  0
  144.4971  135.1261  152.9749 C   0  0  0  0  0  0  0  0  0  0  0  0
  144.2286  133.7701  152.7008 C   0  0  0  0  0  0  0  0  0  0  0  0
  144.4895  133.1892  151.5104 N   0  0  0  0  0  0  0  0  0  0  0  0
  145.0354  133.9534  150.5407 C   0  0  0  0  0  0  0  0  0  0  0  0
  145.3430  135.3181  150.7118 C   0  0  0  0  0  0  0  0  0  0  0  0
  149.7773  139.0585  153.8663 C   0  0  0  0  0  0  0  0  0  0  0  0
  150.5065  139.8296  154.9873 C   0  0  1  0  0  0  0  0  0  0  0  0
  152.0189  139.8564  154.7025 C   0  0  0  0  0  0  0  0  0  0  0  0
  150.4717  141.4880  157.2639 H   0  0  0  0  0  0  0  0  0  0  0  0
  150.0545  142.9976  156.4607 H   0  0  0  0  0  0  0  0  0  0  0  0
  151.5981  142.2404  156.1349 H   0  0  0  0  0  0  0  0  0  0  0  0
  150.0776  141.8100  154.2487 H   0  0  0  0  0  0  0  0  0  0  0  0
  148.1608  140.6801  156.3313 H   0  0  0  0  0  0  0  0  0  0  0  0
  147.9546  142.1692  155.4439 H   0  0  0  0  0  0  0  0  0  0  0  0
  146.6081  140.3479  154.4475 H   0  0  0  0  0  0  0  0  0  0  0  0
  147.7947  140.9454  153.3111 H   0  0  0  0  0  0  0  0  0  0  0  0
  148.0663  138.4430  155.0352 H   0  0  0  0  0  0  0  0  0  0  0  0
  147.3276  138.9485  152.3026 H   0  0  0  0  0  0  0  0  0  0  0  0
  146.5308  136.6184  153.8509 H   0  0  0  0  0  0  0  0  0  0  0  0
  145.8024  138.1861  154.1492 H   0  0  0  0  0  0  0  0  0  0  0  0
  144.4365  137.9149  152.3689 H   0  0  0  0  0  0  0  0  0  0  0  0
  145.2909  138.2197  150.4382 H   0  0  0  0  0  0  0  0  0  0  0  0
  144.2650  135.5417  153.9444 H   0  0  0  0  0  0  0  0  0  0  0  0
  143.7912  133.1362  153.4578 H   0  0  0  0  0  0  0  0  0  0  0  0
  145.2325  133.4633  149.5988 H   0  0  0  0  0  0  0  0  0  0  0  0
  145.7772  135.8838  149.9008 H   0  0  0  0  0  0  0  0  0  0  0  0
  150.1980  138.0553  153.7969 H   0  0  0  0  0  0  0  0  0  0  0  0
  149.9729  139.5397  152.9066 H   0  0  0  0  0  0  0  0  0  0  0  0
  150.3587  139.2780  155.9172 H   0  0  0  0  0  0  0  0  0  0  0  0
  152.2454  140.4546  153.8194 H   0  0  0  0  0  0  0  0  0  0  0  0
  152.4028  138.8509  154.5276 H   0  0  0  0  0  0  0  0  0  0  0  0
  152.5828  140.2667  155.5397 H   0  0  0  0  0  0  0  0  0  0  0  0
  148.1946  137.5916  152.6024 H   0  0  0  0  0  0  0  0  0  0  0  0
  1  2  1  0  0  0  0
  1 19  1  0  0  0  0
  1 20  1  0  0  0  0
  1 21  1  0  0  0  0
  2 17  1  0  0  0  0
  2  3  1  0  0  0  0
  2 22  1  0  0  0  0
  3  4  1  0  0  0  0
  3 23  1  0  0  0  0
  3 24  1  0  0  0  0
  4  5  1  0  0  0  0
  4 25  1  0  0  0  0
  4 26  1  0  0  0  0
  5  6  1  0  0  0  0
  5 16  1  0  0  0  0
  5 27  1  0  0  0  0
  6  7  1  0  0  0  0
  6 28  1  0  0  0  0
  6 43  1  0  0  0  0
  7  8  1  0  0  0  0
  7 29  1  0  0  0  0
  7 30  1  0  0  0  0
  8  9  1  0  0  0  0
  8 10  1  0  0  0  0
  8 31  1  0  0  0  0
  9 32  1  0  0  0  0
 10 15  1  0  0  0  0
 10 11  2  0  0  0  0
 11 12  1  0  0  0  0
 11 33  1  0  0  0  0
 12 13  2  0  0  0  0
 12 34  1  0  0  0  0
 13 14  1  0  0  0  0
 14 15  2  0  0  0  0
 14 35  1  0  0  0  0
 15 36  1  0  0  0  0
 16 17  1  0  0  0  0
 16 37  1  0  0  0  0
 16 38  1  0  0  0  0
 17 18  1  0  0  0  0
 17 39  1  0  0  0  0
 18 40  1  0  0  0  0
 18 41  1  0  0  0  0
 18 42  1  0  0  0  0
M  CHG  1   6   1
M  END
> <s_m_source_file>
AV-unprocessed.smi

> <i_m_source_file_index>
3287

> <i_lp_mmshare_version>
43012

> <i_f3d_flags>
0

> <s_epik_input>
W0NIM11bQ0BASF0xW0NIMl1bQ0gyXVtDQEhdKFtDSDJdW0NASF0xW0NIM10pW05IXVtDSDJdW0NASF0oW09IXSljMltjSF1bY0hdbltjSF1bY0hdMg==

> <s_epik_cmdline>
J2VwaWtfcHl0aG9uJywgJy1waCcsICc3LjAnLCAnLXRuJywgJzgnLCAnLW1hJywgJzIwMCcsICctbWV0YWxfYmluZGluZycsICctaW1hZScsICc8aW5maWxlLm1hZT4nLCAnLW9tYWUnLCAnPG91dGZpbGUubWFlPic=

> <r_lp_tautomer_probability>
1

> <r_epik_Ionization_Penalty>
0.00537262

> <r_epik_Ionization_Penalty_Charging>
0.00321624

> <r_epik_Ionization_Penalty_Neutral>
0.00215638

> <r_epik_State_Penalty>
-0

> <r_epik_Charging_Adjusted_Penalty>
0.00321624

> <i_epik_Tot_Q>
1

> <i_epik_Tot_abs_Q>
1

> <r_epik_Metal_State_Penalty>
-0

> <b_epik_Metal_Only>
0

> <s_lp_Force_Field>
OPLS_2005

> <r_lp_Energy>
16.1009

> <b_lp_Chiralities_Consistent>
1

> <s_lp_Variant>
AV-unprocessed.smi:3287-5

> <Gold.Version>
5.8.1

> <Gold.Id.Protein>
6NUR|6NUR_protein|mol2

> <Gold.PLP.Fitness>
49.7512

> <Gold.PLP.PLP>
-35.0320

> <Gold.PLP.part.hbond>
-4.1620

> <Gold.PLP.part.metal>
0.0000

> <Gold.PLP.part.buried>
-0.4907

> <Gold.PLP.part.nonpolar>
-30.4213

> <Gold.PLP.part.repulsive>
0.1796

> <Gold.PLP.ligand.clash>
0.0000

> <Gold.PLP.ligand.torsion>
1.2112

> <Gold.PLP.Chemscore.Hbond>
3.9364

> <Gold.PLP.Chemscore.CHOScore>
1.7717

> <Gold.PLP.Chemscore.Metal>
0.0000

> <Gold.Chemscore.Hbonds>
donor molecule, donor type, donor heavy atom, donor atom, acceptor molecule, acceptor atom, score
      L1  H     6    43       P1  7948  2.00
      L1  H     9    32       P1 10171  1.00
      L1  C    12    34       P1 10957  1.00
      L1  C    14    35       P1  7921  0.78

> <Gold.PLP.Chemscore.Internal.Correction>
0.0172

> <Gold.Rescore>
     Score         DG    S(hbond)    S(metal)    S(lipo)     H(rot)  DE(clash)    DE(int)     intcor
     17.56     -19.29       2.35        0.00      92.57       1.90       0.50       1.23       ----

> <Gold.Chemscore.Fitness>
17.5553

> <Gold.Chemscore.DG>
-19.2921

> <Gold.Chemscore.ZeroCoef>
-5.4800

> <Gold.Chemscore.Hbond>
2.3517

> <Gold.Chemscore.Metal>
0.0000

> <Gold.Chemscore.Lipo>
92.5678

> <Gold.Chemscore.Internal_Hbond>
0.0000

> <Gold.Chemscore.DEClash>
0.5041

> <Gold.Chemscore.DEInternal>
1.2327

> <Gold.Chemscore.Rot>
1.9035

> <Gold.Chemscore.Internal.Correction>
   9.000000E+99

> <Gold.Chemscore.Hbonds>
donor molecule, donor type, donor heavy atom, donor atom, acceptor molecule, acceptor atom, score
      L1  H     6    43       P1  7948  1.00
      L1  H     9    32       P1 10171  0.98
      P1  H  7954  7966       L1     9  0.02

> <Gold.Chemscore.Hbond.Weighted>
-7.8545

> <Gold.Chemscore.Metal.Weighted>
-0.0000

> <Gold.Chemscore.Lipo.Weighted>
-10.8304

> <Gold.Chemscore.Internal_Hbond.Weighted>
0.0000

> <Gold.Chemscore.DEClash.Weighted>
0.5041

> <Gold.Chemscore.DEInternal.Weighted>
1.2327

> <Gold.Chemscore.Rot.Weighted>
4.8729

> <Gold.Chemscore.Internal.Correction.Weighted>
   9.000000E+99

> <Gold.Protein.RotatedTorsions>
[ 6907 6896 6895 6894 ] final -128.38 input  -60.11 | X-H torsion
[ 7974 7965 7964 7962 ] final  -93.92 input  175.53 | X-H torsion
[ 8008 7997 7996 7995 ] final   35.03 input   59.86 | X-H torsion
[ 10167 10162 10161 10158 ] final   -7.10 input  -65.29 | X-H torsion
[ 10718 10713 10712 10709 ] final   92.46 input   66.30 | X-H torsion
[ 10763 10752 10751 10750 ] final   20.30 input  -60.55 | X-H torsion
[ 11005 11000 10999 10996 ] final   88.56 input  -57.11 | X-H torsion

> <Gold.Protein.ActiveResidues>
 VAL166  LYS551  ARG553  GLY616  TRP617  ASP618  TYR619  PRO620  LYS621  CYS622 
 ASP623  PHE694  ASN695  SER759  ASP760  ASP761  ALA762  ILE779  LEU786  VAL792 
 PHE793  MET794  SER795  GLU796  ALA797  LYS798  CYS799  TRP800  GLU811  SER814 

> <Gold.Protein.RotatedAtoms>
  150.9173  133.6923  159.2840 H   0  0  0  0  0  0  0  0  0  0  0  0  # atno 6907 bound_to 6896
  151.4390  135.1017  159.9674 H   0  0  0  0  0  0  0  0  0  0  0  0  # atno 6908 bound_to 6896
  152.4961  133.8585  159.7293 H   0  0  0  0  0  0  0  0  0  0  0  0  # atno 6909 bound_to 6896
  145.3801  140.9516  143.2399 H   0  0  0  0  0  0  0  0  0  0  0  0  # atno 7974 bound_to 7965
  155.1644  140.3286  155.4405 H   0  0  0  0  0  0  0  0  0  0  0  0  # atno 8008 bound_to 7997
  156.2531  140.1954  156.6701 H   0  0  0  0  0  0  0  0  0  0  0  0  # atno 8009 bound_to 7997
  154.6382  140.0573  156.9800 H   0  0  0  0  0  0  0  0  0  0  0  0  # atno 8010 bound_to 7997
  140.7018  143.6119  150.8696 H   0  0  0  0  0  0  0  0  0  0  0  0  # atno 10167 bound_to 10162
  157.6958  131.0444  150.3884 H   0  0  0  0  0  0  0  0  0  0  0  0  # atno 10718 bound_to 10713
  153.1089  135.6692  153.9536 H   0  0  0  0  0  0  0  0  0  0  0  0  # atno 10763 bound_to 10752
  153.9085  135.3028  155.3450 H   0  0  0  0  0  0  0  0  0  0  0  0  # atno 10764 bound_to 10752
  154.7509  135.5035  153.9365 H   0  0  0  0  0  0  0  0  0  0  0  0  # atno 10765 bound_to 10752
  139.8894  134.8496  156.3018 H   0  0  0  0  0  0  0  0  0  0  0  0  # atno 11005 bound_to 11000
  144.8514  139.5316  143.6855 LP  0  0  0  0  0  0  0  0  0  0  0  0  # atno 17320 bound_to 7965
  146.2846  139.6969  142.9205 LP  0  0  0  0  0  0  0  0  0  0  0  0  # atno 17321 bound_to 7965
  139.9841  143.5918  152.2933 LP  0  0  0  0  0  0  0  0  0  0  0  0  # atno 17342 bound_to 10162
  139.6550  144.7662  151.2073 LP  0  0  0  0  0  0  0  0  0  0  0  0  # atno 17343 bound_to 10162
  156.4290  130.3968  149.6773 LP  0  0  0  0  0  0  0  0  0  0  0  0  # atno 17370 bound_to 10713
  156.3997  130.7668  151.2675 LP  0  0  0  0  0  0  0  0  0  0  0  0  # atno 17371 bound_to 10713
  140.9908  133.7210  156.0811 LP  0  0  0  0  0  0  0  0  0  0  0  0  # atno 17394 bound_to 11000
  140.7627  134.3921  157.5522 LP  0  0  0  0  0  0  0  0  0  0  0  0  # atno 17395 bound_to 11000

$$$$
