AV-unprocessed.smi:2559|AV-procd|sdf|10037|dock5
  -GOLD-   2272014 83D 1   1.00000     0.00000
 Structure written by MMmdl.
 43 45  0  0  0  0  0  0  0  0  2 V2000
  153.9316  137.8442  158.9295 C   0  0  0  0  0  0  0  0  0  0  0  0
  153.1381  138.1548  157.7362 N   0  0  0  0  0  0  0  0  0  0  0  0
  152.9533  137.2663  156.7080 C   0  0  0  0  0  0  0  0  0  0  0  0
  153.4677  136.1507  156.7894 O   0  0  0  0  0  0  0  0  0  0  0  0
  152.2034  137.6358  155.6120 N   0  5  0  0  0  0  0  0  0  0  0  0
  151.5965  138.8495  155.4206 C   0  0  0  0  0  0  0  0  0  0  0  0
  150.9555  139.1989  154.4314 O   0  0  0  0  0  0  0  0  0  0  0  0
  151.8005  139.7632  156.5681 C   0  0  0  0  0  0  0  0  0  0  0  0
  152.5428  139.4412  157.6606 C   0  0  0  0  0  0  0  0  0  0  0  0
  152.6073  140.4954  158.5572 N   0  0  0  0  0  0  0  0  0  0  0  0
  151.8625  141.4329  157.9682 C   0  0  0  0  0  0  0  0  0  0  0  0
  151.6565  142.6974  158.5220 N   0  0  0  0  0  0  0  0  0  0  0  0
  151.1685  142.9086  159.8839 C   0  0  0  0  0  0  0  0  0  0  0  0
  152.0163  143.9532  160.6320 C   0  0  0  0  0  0  0  0  0  0  0  0
  152.0310  145.2869  159.8730 C   0  0  0  0  0  0  0  0  0  0  0  0
  152.4439  145.0530  158.4139 C   0  0  0  0  0  0  0  0  0  0  0  0
  151.5750  143.9543  157.7766 C   0  0  0  0  0  0  0  0  0  0  0  0
  151.3489  141.0751  156.7592 N   0  0  0  0  0  0  0  0  0  0  0  0
  150.5558  141.8932  155.8405 C   0  0  0  0  0  0  0  0  0  0  0  0
  149.0871  141.4279  155.7433 C   0  0  1  0  0  0  0  0  0  0  0  0
  148.3083  142.0755  156.7301 O   0  0  0  0  0  0  0  0  0  0  0  0
  148.4573  141.7302  154.3734 C   0  0  0  0  0  0  0  0  0  0  0  0
  149.2007  141.1296  153.3342 O   0  0  0  0  0  0  0  0  0  0  0  0
  154.3004  136.8190  158.9716 H   0  0  0  0  0  0  0  0  0  0  0  0
  153.3338  138.0074  159.8267 H   0  0  0  0  0  0  0  0  0  0  0  0
  154.7972  138.5054  158.9792 H   0  0  0  0  0  0  0  0  0  0  0  0
  150.1240  143.2210  159.8488 H   0  0  0  0  0  0  0  0  0  0  0  0
  151.1925  141.9644  160.4292 H   0  0  0  0  0  0  0  0  0  0  0  0
  151.6263  144.1001  161.6394 H   0  0  0  0  0  0  0  0  0  0  0  0
  153.0362  143.5828  160.7441 H   0  0  0  0  0  0  0  0  0  0  0  0
  151.0375  145.7360  159.9048 H   0  0  0  0  0  0  0  0  0  0  0  0
  152.7103  145.9917  160.3530 H   0  0  0  0  0  0  0  0  0  0  0  0
  152.3533  145.9793  157.8462 H   0  0  0  0  0  0  0  0  0  0  0  0
  153.4940  144.7651  158.3732 H   0  0  0  0  0  0  0  0  0  0  0  0
  151.8554  143.7970  156.7357 H   0  0  0  0  0  0  0  0  0  0  0  0
  150.5335  144.2777  157.7535 H   0  0  0  0  0  0  0  0  0  0  0  0
  150.6086  142.9371  156.1399 H   0  0  0  0  0  0  0  0  0  0  0  0
  151.0147  141.8797  154.8563 H   0  0  0  0  0  0  0  0  0  0  0  0
  149.0301  140.3562  155.9380 H   0  0  0  0  0  0  0  0  0  0  0  0
  148.1656  142.9708  156.4598 H   0  0  0  0  0  0  0  0  0  0  0  0
  147.4389  141.3421  154.3287 H   0  0  0  0  0  0  0  0  0  0  0  0
  148.4004  142.8053  154.1996 H   0  0  0  0  0  0  0  0  0  0  0  0
  149.4005  140.2407  153.5847 H   0  0  0  0  0  0  0  0  0  0  0  0
  1  2  1  0  0  0  0
  1 24  1  0  0  0  0
  1 25  1  0  0  0  0
  1 26  1  0  0  0  0
  2  9  1  0  0  0  0
  2  3  1  0  0  0  0
  3  4  2  0  0  0  0
  3  5  1  0  0  0  0
  5  6  1  0  0  0  0
  6  7  2  0  0  0  0
  6  8  1  0  0  0  0
  8 18  1  0  0  0  0
  8  9  2  0  0  0  0
  9 10  1  0  0  0  0
 10 11  2  0  0  0  0
 11 12  1  0  0  0  0
 11 18  1  0  0  0  0
 12 17  1  0  0  0  0
 12 13  1  0  0  0  0
 13 14  1  0  0  0  0
 13 27  1  0  0  0  0
 13 28  1  0  0  0  0
 14 15  1  0  0  0  0
 14 29  1  0  0  0  0
 14 30  1  0  0  0  0
 15 16  1  0  0  0  0
 15 31  1  0  0  0  0
 15 32  1  0  0  0  0
 16 17  1  0  0  0  0
 16 33  1  0  0  0  0
 16 34  1  0  0  0  0
 17 35  1  0  0  0  0
 17 36  1  0  0  0  0
 18 19  1  0  0  0  0
 19 20  1  0  0  0  0
 19 37  1  0  0  0  0
 19 38  1  0  0  0  0
 20 21  1  0  0  0  0
 20 22  1  0  0  0  0
 20 39  1  0  0  0  0
 21 40  1  0  0  0  0
 22 23  1  0  0  0  0
 22 41  1  0  0  0  0
 22 42  1  0  0  0  0
 23 43  1  0  0  0  0
M  CHG  1   5  -1
M  END
> <s_m_source_file>
AV-unprocessed.smi

> <i_m_source_file_index>
2559

> <i_lp_mmshare_version>
43012

> <i_f3d_flags>
0

> <s_epik_input>
Tz1jMVtuSF1jKD1PKW4oW0NIM10pYyhjMTIpbmMobjJbQ0gyXVtDQEhdKFtPSF0pW0NIMl1bT0hdKU4zW0NIMl1bQ0gyXVtDSDJdW0NIMl1bQ0gyXTM=

> <s_epik_cmdline>
J2VwaWtfcHl0aG9uJywgJy1waCcsICc3LjAnLCAnLXRuJywgJzgnLCAnLW1hJywgJzIwMCcsICctbWV0YWxfYmluZGluZycsICctaW1hZScsICc8aW5maWxlLm1hZT4nLCAnLW9tYWUnLCAnPG91dGZpbGUubWFlPic=

> <r_lp_tautomer_probability>
1

> <r_epik_Ionization_Penalty>
5.90509

> <r_epik_Ionization_Penalty_Charging>
0.0759636

> <r_epik_Ionization_Penalty_Neutral>
5.82913

> <r_epik_State_Penalty>
5.18635

> <r_epik_Charging_Adjusted_Penalty>
5.26231

> <i_epik_Tot_Q>
-1

> <i_epik_Tot_abs_Q>
1

> <r_epik_Metal_State_Penalty>
1.25614

> <b_epik_Metal_Only>
1

> <s_lp_Force_Field>
OPLS_2005

> <r_lp_Energy>
39.3002

> <b_lp_Chiralities_Consistent>
1

> <s_lp_Variant>
AV-unprocessed.smi:2559-4

> <Gold.Version>
5.8.1

> <Gold.Id.Protein>
6NUR|6NUR_protein|mol2

> <Gold.PLP.Fitness>
53.4688

> <Gold.PLP.PLP>
-43.1903

> <Gold.PLP.part.hbond>
-6.0809

> <Gold.PLP.part.metal>
0.0000

> <Gold.PLP.part.buried>
-3.0122

> <Gold.PLP.part.nonpolar>
-33.7233

> <Gold.PLP.part.repulsive>
0.1569

> <Gold.PLP.ligand.clash>
0.0000

> <Gold.PLP.ligand.torsion>
1.1963

> <Gold.PLP.Chemscore.Hbond>
3.9913

> <Gold.PLP.Chemscore.CHOScore>
0.0000

> <Gold.PLP.Chemscore.Metal>
0.0000

> <Gold.Chemscore.Hbonds>
donor molecule, donor type, donor heavy atom, donor atom, acceptor molecule, acceptor atom, score
      L1  H    21    40       P1  8028  0.98
      P1  H  7989  7998       L1     7  1.00
      P1  H  8011  8017       L1    23  1.00
      P1  H 10752 10763       L1     4  1.00

> <Gold.PLP.Chemscore.Internal.Correction>
0.6974

> <Gold.Rescore>
     Score         DG    S(hbond)    S(metal)    S(lipo)     H(rot)  DE(clash)    DE(int)     intcor
     16.42     -18.99       3.10        0.00      91.10       2.93       0.37       2.20       ----

> <Gold.Chemscore.Fitness>
16.4238

> <Gold.Chemscore.DG>
-18.9894

> <Gold.Chemscore.ZeroCoef>
-5.4800

> <Gold.Chemscore.Hbond>
3.1015

> <Gold.Chemscore.Metal>
0.0000

> <Gold.Chemscore.Lipo>
91.1014

> <Gold.Chemscore.Internal_Hbond>
0.0000

> <Gold.Chemscore.DEClash>
0.3656

> <Gold.Chemscore.DEInternal>
2.2000

> <Gold.Chemscore.Rot>
2.9330

> <Gold.Chemscore.Internal.Correction>
   9.000000E+99

> <Gold.Chemscore.Hbonds>
donor molecule, donor type, donor heavy atom, donor atom, acceptor molecule, acceptor atom, score
      L1  H    21    40       P1  8028  0.49
      P1  H  7989  7998       L1     7  0.87
      P1  H  8011  8017       L1    23  0.59
      P1  H 10752 10763       L1     4  0.81

> <Gold.Chemscore.Hbond.Weighted>
-10.3590

> <Gold.Chemscore.Metal.Weighted>
-0.0000

> <Gold.Chemscore.Lipo.Weighted>
-10.6589

> <Gold.Chemscore.Internal_Hbond.Weighted>
0.0000

> <Gold.Chemscore.DEClash.Weighted>
0.3656

> <Gold.Chemscore.DEInternal.Weighted>
2.2000

> <Gold.Chemscore.Rot.Weighted>
7.5084

> <Gold.Chemscore.Internal.Correction.Weighted>
   9.000000E+99

> <Gold.Protein.RotatedTorsions>
[ 6907 6896 6895 6894 ] final    7.40 input  -60.11 | X-H torsion
[ 7974 7965 7964 7962 ] final  166.47 input  175.53 | X-H torsion
[ 8008 7997 7996 7995 ] final -171.01 input   59.86 | X-H torsion
[ 10167 10162 10161 10158 ] final -156.73 input  -65.29 | X-H torsion
[ 10718 10713 10712 10709 ] final -117.52 input   66.30 | X-H torsion
[ 10763 10752 10751 10750 ] final  116.45 input  -60.55 | X-H torsion
[ 11005 11000 10999 10996 ] final -159.56 input  -57.11 | X-H torsion

> <Gold.Protein.ActiveResidues>
 VAL166  LYS551  ARG553  GLY616  TRP617  ASP618  TYR619  PRO620  LYS621  CYS622 
 ASP623  PHE694  ASN695  SER759  ASP760  ASP761  ALA762  ILE779  LEU786  VAL792 
 PHE793  MET794  SER795  GLU796  ALA797  LYS798  CYS799  TRP800  GLU811  SER814 

> <Gold.Protein.RotatedAtoms>
  151.6892  135.0949  160.0230 H   0  0  0  0  0  0  0  0  0  0  0  0  # atno 6907 bound_to 6896
  152.3789  133.6514  159.6154 H   0  0  0  0  0  0  0  0  0  0  0  0  # atno 6908 bound_to 6896
  150.7731  133.9064  159.3398 H   0  0  0  0  0  0  0  0  0  0  0  0  # atno 6909 bound_to 6896
  144.7461  139.8620  143.6381 H   0  0  0  0  0  0  0  0  0  0  0  0  # atno 7974 bound_to 7965
  155.9259  140.1082  157.1170 H   0  0  0  0  0  0  0  0  0  0  0  0  # atno 8008 bound_to 7997
  154.4062  140.1247  156.4805 H   0  0  0  0  0  0  0  0  0  0  0  0  # atno 8009 bound_to 7997
  155.7139  140.3470  155.4988 H   0  0  0  0  0  0  0  0  0  0  0  0  # atno 8010 bound_to 7997
  139.6826  143.9555  152.2345 H   0  0  0  0  0  0  0  0  0  0  0  0  # atno 10167 bound_to 10162
  156.1040  130.6195  150.9174 H   0  0  0  0  0  0  0  0  0  0  0  0  # atno 10718 bound_to 10713
  153.5374  135.3566  155.2703 H   0  0  0  0  0  0  0  0  0  0  0  0  # atno 10763 bound_to 10752
  154.8721  135.4083  154.3083 H   0  0  0  0  0  0  0  0  0  0  0  0  # atno 10764 bound_to 10752
  153.3783  135.7067  153.6653 H   0  0  0  0  0  0  0  0  0  0  0  0  # atno 10765 bound_to 10752
  140.6412  134.4549  157.5233 H   0  0  0  0  0  0  0  0  0  0  0  0  # atno 11005 bound_to 11000
  146.1342  139.4384  143.0150 LP  0  0  0  0  0  0  0  0  0  0  0  0  # atno 17320 bound_to 7965
  145.7117  141.0104  143.1449 LP  0  0  0  0  0  0  0  0  0  0  0  0  # atno 17321 bound_to 7965
  139.9349  144.6718  150.8325 LP  0  0  0  0  0  0  0  0  0  0  0  0  # atno 17342 bound_to 10162
  140.7657  143.3283  151.2466 LP  0  0  0  0  0  0  0  0  0  0  0  0  # atno 17343 bound_to 10162
  157.6214  131.0929  150.8615 LP  0  0  0  0  0  0  0  0  0  0  0  0  # atno 17370 bound_to 10713
  156.8738  130.5155  149.5295 LP  0  0  0  0  0  0  0  0  0  0  0  0  # atno 17371 bound_to 10713
  139.9080  134.8407  156.1635 LP  0  0  0  0  0  0  0  0  0  0  0  0  # atno 17394 bound_to 11000
  141.0605  133.6844  156.1944 LP  0  0  0  0  0  0  0  0  0  0  0  0  # atno 17395 bound_to 11000

$$$$
