AV-unprocessed.smi:55|AV-procd|sdf|563|dock10
  -GOLD-   2262016463D 1   1.00000     0.00000
 Structure written by MMmdl.
 31 32  0  0  0  0  0  0  0  0  1 V2000
  148.8417  139.9033  157.1463 C   0  0  0  0  0  0  0  0  0  0  0  0
  150.2600  139.8768  157.6915 C   0  0  0  0  0  0  0  0  0  0  0  0
  150.8905  140.9942  158.1354 C   0  0  0  0  0  0  0  0  0  0  0  0
  152.1851  141.0073  158.6398 N   0  0  0  0  0  0  0  0  0  0  0  0
  152.8662  142.3055  159.0240 C   0  0  2  0  0  0  0  0  0  0  0  0
  153.1619  142.4439  160.5295 C   0  0  0  0  0  0  0  0  0  0  0  0
  152.3738  143.6841  160.9284 C   0  0  2  0  0  0  0  0  0  0  0  0
  151.1611  143.3323  161.5666 O   0  0  0  0  0  0  0  0  0  0  0  0
  152.1463  144.4020  159.5882 C   0  0  2  0  0  0  0  0  0  0  0  0
  150.9431  145.3572  159.5012 C   0  0  0  0  0  0  0  0  0  0  0  0
  149.7571  144.6321  159.2555 O   0  0  0  0  0  0  0  0  0  0  0  0
  152.0251  143.3480  158.6443 O   0  0  0  0  0  0  0  0  0  0  0  0
  152.9433  139.8160  158.5951 C   0  0  0  0  0  0  0  0  0  0  0  0
  154.1263  139.7562  158.9279 O   0  0  0  0  0  0  0  0  0  0  0  0
  152.2926  138.6646  158.1547 N   0  0  0  0  0  0  0  0  0  0  0  0
  150.9718  138.5970  157.7076 C   0  0  0  0  0  0  0  0  0  0  0  0
  150.5036  137.5156  157.3553 O   0  0  0  0  0  0  0  0  0  0  0  0
  153.7978  142.3641  158.4595 H   0  0  0  0  0  0  0  0  0  0  0  0
  152.9412  144.3102  161.6176 H   0  0  0  0  0  0  0  0  0  0  0  0
  153.0551  144.9491  159.3296 H   0  0  0  0  0  0  0  0  0  0  0  0
  152.8266  137.8078  158.1460 H   0  0  0  0  0  0  0  0  0  0  0  0
  148.4136  140.9055  157.1800 H   0  0  0  0  0  0  0  0  0  0  0  0
  148.1968  139.2445  157.7290 H   0  0  0  0  0  0  0  0  0  0  0  0
  148.8262  139.5684  156.1085 H   0  0  0  0  0  0  0  0  0  0  0  0
  150.3499  141.9252  158.0739 H   0  0  0  0  0  0  0  0  0  0  0  0
  152.9216  141.5498  161.1048 H   0  0  0  0  0  0  0  0  0  0  0  0
  154.2310  142.6275  160.6459 H   0  0  0  0  0  0  0  0  0  0  0  0
  150.4778  143.8988  161.2416 H   0  0  0  0  0  0  0  0  0  0  0  0
  150.8278  145.8932  160.4435 H   0  0  0  0  0  0  0  0  0  0  0  0
  151.0833  146.1097  158.7249 H   0  0  0  0  0  0  0  0  0  0  0  0
  149.2265  145.1225  158.6460 H   0  0  0  0  0  0  0  0  0  0  0  0
  1  2  1  0  0  0  0
  1 22  1  0  0  0  0
  1 23  1  0  0  0  0
  1 24  1  0  0  0  0
  2 16  1  0  0  0  0
  2  3  2  0  0  0  0
  3  4  1  0  0  0  0
  3 25  1  0  0  0  0
  4  5  1  0  0  0  0
  4 13  1  0  0  0  0
  5 18  1  0  0  0  0
  5 12  1  0  0  0  0
  5  6  1  0  0  0  0
  6  7  1  0  0  0  0
  6 26  1  0  0  0  0
  6 27  1  0  0  0  0
  7 19  1  0  0  0  0
  7  8  1  0  0  0  0
  7  9  1  0  0  0  0
  8 28  1  0  0  0  0
  9 20  1  0  0  0  0
  9 10  1  0  0  0  0
  9 12  1  0  0  0  0
 10 11  1  0  0  0  0
 10 29  1  0  0  0  0
 10 30  1  0  0  0  0
 11 31  1  0  0  0  0
 13 14  2  0  0  0  0
 13 15  1  0  0  0  0
 15 21  1  0  0  0  0
 15 16  1  0  0  0  0
 16 17  2  0  0  0  0
M  END
> <s_m_source_file>
AV-unprocessed.smi

> <i_m_source_file_index>
55

> <i_lp_mmshare_version>
43012

> <i_f3d_flags>
0

> <s_epik_input>
Tz1jMVtuSF1jKD1PKW4oW2NIXWMxW0NIM10pW0NAQEhdMltDSDJdW0NAQEhdKFtPSF0pW0NAQEhdKE8yKVtDSDJdW09IXQ==

> <s_epik_cmdline>
J2VwaWtfcHl0aG9uJywgJy1waCcsICc3LjAnLCAnLXRuJywgJzgnLCAnLW1hJywgJzIwMCcsICctbWV0YWxfYmluZGluZycsICctaW1hZScsICc8aW5maWxlLm1hZT4nLCAnLW9tYWUnLCAnPG91dGZpbGUubWFlPic=

> <r_lp_tautomer_probability>
0.999537

> <r_epik_Ionization_Penalty>
0.00121888

> <r_epik_Ionization_Penalty_Charging>
0.00121876

> <r_epik_Ionization_Penalty_Neutral>
1.19946e-07

> <r_epik_State_Penalty>
0.000805124

> <r_epik_Charging_Adjusted_Penalty>
0.00202389

> <i_epik_Tot_Q>
0

> <i_epik_Tot_abs_Q>
0

> <r_epik_Metal_State_Penalty>
0.662472

> <b_epik_Metal_Only>
0

> <s_epik_Chemistry_Notes>
This compound contains an acetal/aminal-like group ( X-CH(R)-Y where X, Y are N, S, or O) that may be acid/base labile, releasing an aldehyde.

> <s_lp_Force_Field>
OPLS_2005

> <r_lp_Energy>
26.1821

> <b_lp_Chiralities_Consistent>
1

> <s_lp_Variant>
AV-unprocessed.smi:55-3

> <Gold.Version>
5.8.1

> <Gold.Id.Protein>
6NUR|6NUR_protein|mol2

> <Gold.PLP.Fitness>
38.5167

> <Gold.PLP.PLP>
-32.2818

> <Gold.PLP.part.hbond>
-4.0000

> <Gold.PLP.part.metal>
0.0000

> <Gold.PLP.part.buried>
-5.7132

> <Gold.PLP.part.nonpolar>
-23.3211

> <Gold.PLP.part.repulsive>
0.0913

> <Gold.PLP.ligand.clash>
0.0000

> <Gold.PLP.ligand.torsion>
0.4560

> <Gold.PLP.Chemscore.Hbond>
2.3489

> <Gold.PLP.Chemscore.CHOScore>
0.0000

> <Gold.PLP.Chemscore.Metal>
0.0000

> <Gold.Chemscore.Hbonds>
donor molecule, donor type, donor heavy atom, donor atom, acceptor molecule, acceptor atom, score
      L1  H    11    31       P1  8029  0.89
      P1  H  6933  6945       L1     8  0.36
      P1  H  7997  8008       L1    14  1.00

> <Gold.PLP.Chemscore.Internal.Correction>
0.1003

> <Gold.Rescore>
     Score         DG    S(hbond)    S(metal)    S(lipo)     H(rot)  DE(clash)    DE(int)     intcor
     11.20     -11.71       1.99        0.00      56.15       2.73       0.04       0.47       ----

> <Gold.Chemscore.Fitness>
11.1979

> <Gold.Chemscore.DG>
-11.7103

> <Gold.Chemscore.ZeroCoef>
-5.4800

> <Gold.Chemscore.Hbond>
1.9872

> <Gold.Chemscore.Metal>
0.0000

> <Gold.Chemscore.Lipo>
56.1522

> <Gold.Chemscore.Internal_Hbond>
0.0000

> <Gold.Chemscore.DEClash>
0.0415

> <Gold.Chemscore.DEInternal>
0.4709

> <Gold.Chemscore.Rot>
2.7253

> <Gold.Chemscore.Internal.Correction>
   9.000000E+99

> <Gold.Chemscore.Hbonds>
donor molecule, donor type, donor heavy atom, donor atom, acceptor molecule, acceptor atom, score
      L1  H    11    31       P1  8029  0.79
      P1  H  6933  6945       L1     8  0.08
      P1  H  7997  8008       L1    14  0.39

> <Gold.Chemscore.Hbond.Weighted>
-6.6373

> <Gold.Chemscore.Metal.Weighted>
-0.0000

> <Gold.Chemscore.Lipo.Weighted>
-6.5698

> <Gold.Chemscore.Internal_Hbond.Weighted>
0.0000

> <Gold.Chemscore.DEClash.Weighted>
0.0415

> <Gold.Chemscore.DEInternal.Weighted>
0.4709

> <Gold.Chemscore.Rot.Weighted>
6.9769

> <Gold.Chemscore.Internal.Correction.Weighted>
   9.000000E+99

> <Gold.Protein.RotatedTorsions>
[ 6907 6896 6895 6894 ] final   88.69 input  -60.11 | X-H torsion
[ 7974 7965 7964 7962 ] final -133.60 input  175.53 | X-H torsion
[ 8008 7997 7996 7995 ] final -116.36 input   59.86 | X-H torsion
[ 10167 10162 10161 10158 ] final  -46.05 input  -65.29 | X-H torsion
[ 10718 10713 10712 10709 ] final -100.88 input   66.30 | X-H torsion
[ 10763 10752 10751 10750 ] final -122.74 input  -60.55 | X-H torsion
[ 11005 11000 10999 10996 ] final  -92.74 input  -57.11 | X-H torsion

> <Gold.Protein.ActiveResidues>
 VAL166  LYS551  ARG553  GLY616  TRP617  ASP618  TYR619  PRO620  LYS621  CYS622 
 ASP623  PHE694  ASN695  SER759  ASP760  ASP761  ALA762  ILE779  LEU786  VAL792 
 PHE793  MET794  SER795  GLU796  ALA797  LYS798  CYS799  TRP800  GLU811  SER814 

> <Gold.Protein.RotatedAtoms>
  152.5428  134.2082  159.8739 H   0  0  0  0  0  0  0  0  0  0  0  0  # atno 6907 bound_to 6896
  151.2066  133.4573  159.2605 H   0  0  0  0  0  0  0  0  0  0  0  0  # atno 6908 bound_to 6896
  151.0937  134.9944  159.8471 H   0  0  0  0  0  0  0  0  0  0  0  0  # atno 6909 bound_to 6896
  144.9178  140.6976  143.4984 H   0  0  0  0  0  0  0  0  0  0  0  0  # atno 7974 bound_to 7965
  155.0666  140.0393  157.2595 H   0  0  0  0  0  0  0  0  0  0  0  0  # atno 8008 bound_to 7997
  154.7016  140.2674  155.6690 H   0  0  0  0  0  0  0  0  0  0  0  0  # atno 8009 bound_to 7997
  156.2762  140.2739  156.1628 H   0  0  0  0  0  0  0  0  0  0  0  0  # atno 8010 bound_to 7997
  140.6833  143.2849  151.3728 H   0  0  0  0  0  0  0  0  0  0  0  0  # atno 10167 bound_to 10162
  156.0177  130.5348  150.6882 H   0  0  0  0  0  0  0  0  0  0  0  0  # atno 10718 bound_to 10713
  154.8695  135.4122  154.2830 H   0  0  0  0  0  0  0  0  0  0  0  0  # atno 10763 bound_to 10752
  153.3719  135.7008  153.6637 H   0  0  0  0  0  0  0  0  0  0  0  0  # atno 10764 bound_to 10752
  153.5495  135.3632  155.2725 H   0  0  0  0  0  0  0  0  0  0  0  0  # atno 10765 bound_to 10752
  141.1514  133.7841  157.0062 H   0  0  0  0  0  0  0  0  0  0  0  0  # atno 11005 bound_to 11000
  145.3346  139.1749  143.4518 LP  0  0  0  0  0  0  0  0  0  0  0  0  # atno 17320 bound_to 7965
  146.3190  140.3380  142.8645 LP  0  0  0  0  0  0  0  0  0  0  0  0  # atno 17321 bound_to 7965
  139.6172  144.0980  152.2356 LP  0  0  0  0  0  0  0  0  0  0  0  0  # atno 17342 bound_to 10162
  140.0413  144.6005  150.7409 LP  0  0  0  0  0  0  0  0  0  0  0  0  # atno 17343 bound_to 10162
  157.4569  131.0879  151.0787 LP  0  0  0  0  0  0  0  0  0  0  0  0  # atno 17370 bound_to 10713
  157.1286  130.6092  149.5523 LP  0  0  0  0  0  0  0  0  0  0  0  0  # atno 17371 bound_to 10713
  140.0907  134.9594  157.1772 LP  0  0  0  0  0  0  0  0  0  0  0  0  # atno 17394 bound_to 11000
  140.3450  134.2662  155.7206 LP  0  0  0  0  0  0  0  0  0  0  0  0  # atno 17395 bound_to 11000

$$$$
