AV-unprocessed.smi:2188|AV-procd|sdf|8883|dock1
  -GOLD-   2272012 83D 1   1.00000     0.00000
 Structure written by MMmdl.
 39 41  0  0  0  0  0  0  0  0  3 V2000
  151.6993  140.3474  155.6583 O   0  0  0  0  0  0  0  0  0  0  0  0
  150.9577  141.1838  156.1911 C   0  0  0  0  0  0  0  0  0  0  0  0
  149.6629  141.4314  155.8199 N   0  5  0  0  0  0  0  0  0  0  0  0
  149.1651  141.4798  154.4460 C   0  0  0  0  0  0  0  0  0  0  0  0
  147.7328  140.9121  154.3976 C   0  0  0  0  0  0  0  0  0  0  0  0
  146.6515  141.9661  154.5913 C   0  0  0  0  0  0  0  0  0  0  0  0
  146.3827  142.9190  153.5809 C   0  0  0  0  0  0  0  0  0  0  0  0
  145.3808  143.8891  153.7907 C   0  0  0  0  0  0  0  0  0  0  0  0
  144.6714  143.8903  155.0088 C   0  0  0  0  0  0  0  0  0  0  0  0
  144.9583  142.9698  155.9552 N   0  3  0  0  0  0  0  0  0  0  0  0
  145.9096  142.0242  155.7930 C   0  0  0  0  0  0  0  0  0  0  0  0
  151.4877  142.0121  157.2939 C   0  0  0  0  0  0  0  0  0  0  0  0
  151.1055  143.3149  157.3697 C   0  0  0  0  0  0  0  0  0  0  0  0
  151.5646  144.1852  158.4231 C   0  0  0  0  0  0  0  0  0  0  0  0
  152.4168  143.6852  159.3236 C   0  0  0  0  0  0  0  0  0  0  0  0
  152.8779  142.3704  159.2905 N   0  0  0  0  0  0  0  0  0  0  0  0
  153.8835  141.9993  160.2801 C   0  0  0  0  0  0  0  0  0  0  0  0
  153.6015  140.6118  160.8262 C   0  0  0  0  0  0  0  0  0  0  0  0
  153.7691  139.4751  159.4042 S   0  0  0  0  0  0  0  0  0  0  0  0
  155.1400  139.5954  158.8836 O   0  0  0  0  0  0  0  0  0  0  0  0
  153.2666  138.1548  159.8137 O   0  0  0  0  0  0  0  0  0  0  0  0
  152.7031  140.1824  158.3233 N   0  0  0  0  0  0  0  0  0  0  0  0
  152.3994  141.4501  158.3148 C   0  0  0  0  0  0  0  0  0  0  0  0
  149.1475  142.4944  154.0454 H   0  0  0  0  0  0  0  0  0  0  0  0
  149.7995  140.9036  153.7719 H   0  0  0  0  0  0  0  0  0  0  0  0
  147.5647  140.4109  153.4431 H   0  0  0  0  0  0  0  0  0  0  0  0
  147.6107  140.1475  155.1665 H   0  0  0  0  0  0  0  0  0  0  0  0
  146.9355  142.9027  152.6527 H   0  0  0  0  0  0  0  0  0  0  0  0
  145.1604  144.6205  153.0269 H   0  0  0  0  0  0  0  0  0  0  0  0
  143.8898  144.5947  155.2530 H   0  0  0  0  0  0  0  0  0  0  0  0
  146.0461  141.3438  156.6212 H   0  0  0  0  0  0  0  0  0  0  0  0
  150.4468  143.7468  156.6297 H   0  0  0  0  0  0  0  0  0  0  0  0
  151.2295  145.2100  158.4824 H   0  0  0  0  0  0  0  0  0  0  0  0
  152.7971  144.2883  160.1352 H   0  0  0  0  0  0  0  0  0  0  0  0
  154.8725  142.0455  159.8233 H   0  0  0  0  0  0  0  0  0  0  0  0
  153.8897  142.7077  161.1089 H   0  0  0  0  0  0  0  0  0  0  0  0
  154.3200  140.3230  161.5927 H   0  0  0  0  0  0  0  0  0  0  0  0
  152.5962  140.5290  161.2408 H   0  0  0  0  0  0  0  0  0  0  0  0
  144.4338  142.9886  156.8300 H   0  0  0  0  0  0  0  0  0  0  0  0
  1  2  2  0  0  0  0
  2  3  1  0  0  0  0
  2 12  1  0  0  0  0
  3  4  1  0  0  0  0
  4  5  1  0  0  0  0
  4 24  1  0  0  0  0
  4 25  1  0  0  0  0
  5  6  1  0  0  0  0
  5 26  1  0  0  0  0
  5 27  1  0  0  0  0
  6 11  1  0  0  0  0
  6  7  2  0  0  0  0
  7  8  1  0  0  0  0
  7 28  1  0  0  0  0
  8  9  2  0  0  0  0
  8 29  1  0  0  0  0
  9 10  1  0  0  0  0
  9 30  1  0  0  0  0
 10 11  2  0  0  0  0
 10 39  1  0  0  0  0
 11 31  1  0  0  0  0
 12 23  1  0  0  0  0
 12 13  2  0  0  0  0
 13 14  1  0  0  0  0
 13 32  1  0  0  0  0
 14 15  2  0  0  0  0
 14 33  1  0  0  0  0
 15 16  1  0  0  0  0
 15 34  1  0  0  0  0
 16 23  1  0  0  0  0
 16 17  1  0  0  0  0
 17 18  1  0  0  0  0
 17 35  1  0  0  0  0
 17 36  1  0  0  0  0
 18 19  1  0  0  0  0
 18 37  1  0  0  0  0
 18 38  1  0  0  0  0
 19 20  2  0  0  0  0
 19 21  2  0  0  0  0
 19 22  1  0  0  0  0
 22 23  2  0  0  0  0
M  CHG  1   3  -1
M  CHG  1  10   1
M  END
> <s_m_source_file>
AV-unprocessed.smi

> <i_m_source_file_index>
2188

> <i_lp_mmshare_version>
43012

> <i_f3d_flags>
0

> <s_epik_input>
W0NIMl0xW0NIMl1TKD1PKSg9TylOPUMoTjEyKUMoPVtDSF1bQ0hdPVtDSF0yKUMoPU8pW05IXVtDSDJdW0NIMl1jM1tjSF1bY0hdW2NIXW5bY0hdMw==

> <s_epik_cmdline>
J2VwaWtfcHl0aG9uJywgJy1waCcsICc3LjAnLCAnLXRuJywgJzgnLCAnLW1hJywgJzIwMCcsICctbWV0YWxfYmluZGluZycsICctaW1hZScsICc8aW5maWxlLm1hZT4nLCAnLW9tYWUnLCAnPG91dGZpbGUubWFlPic=

> <r_epik_Ionization_Penalty>
7.27179

> <r_epik_Ionization_Penalty_Charging>
7.27179

> <r_epik_Ionization_Penalty_Neutral>
0

> <r_epik_State_Penalty>
7.89047

> <r_epik_Charging_Adjusted_Penalty>
15.1623

> <i_epik_Tot_Q>
0

> <i_epik_Tot_abs_Q>
2

> <r_epik_Metal_State_Penalty>
3.9241

> <b_epik_Metal_Only>
1

> <s_lp_Force_Field>
OPLS_2005

> <r_lp_Energy>
37.465

> <b_lp_Chiralities_Consistent>
1

> <s_lp_Variant>
AV-unprocessed.smi:2188-4

> <Gold.Version>
5.8.1

> <Gold.Id.Protein>
6NUR|6NUR_protein|mol2

> <Gold.PLP.Fitness>
49.0898

> <Gold.PLP.PLP>
-47.1953

> <Gold.PLP.part.hbond>
-2.2990

> <Gold.PLP.part.metal>
0.0000

> <Gold.PLP.part.buried>
-5.3642

> <Gold.PLP.part.nonpolar>
-38.8863

> <Gold.PLP.part.repulsive>
0.0895

> <Gold.PLP.ligand.clash>
0.0000

> <Gold.PLP.ligand.torsion>
1.3661

> <Gold.PLP.Chemscore.Hbond>
1.4376

> <Gold.PLP.Chemscore.CHOScore>
0.0000

> <Gold.PLP.Chemscore.Metal>
0.0000

> <Gold.Chemscore.Hbonds>
donor molecule, donor type, donor heavy atom, donor atom, acceptor molecule, acceptor atom, score
      P1  H  7989  7998       L1     1  0.44
      P1  H  7997  8008       L1    20  1.00

> <Gold.PLP.Chemscore.Internal.Correction>
0.3140

> <Gold.Rescore>
     Score         DG    S(hbond)    S(metal)    S(lipo)     H(rot)  DE(clash)    DE(int)     intcor
     15.53     -18.48       1.30        0.00     107.16       1.51       0.26       2.69       ----

> <Gold.Chemscore.Fitness>
15.5279

> <Gold.Chemscore.DG>
-18.4812

> <Gold.Chemscore.ZeroCoef>
-5.4800

> <Gold.Chemscore.Hbond>
1.2968

> <Gold.Chemscore.Metal>
0.0000

> <Gold.Chemscore.Lipo>
107.1629

> <Gold.Chemscore.Internal_Hbond>
0.0000

> <Gold.Chemscore.DEClash>
0.2606

> <Gold.Chemscore.DEInternal>
2.6927

> <Gold.Chemscore.Rot>
1.5109

> <Gold.Chemscore.Internal.Correction>
   9.000000E+99

> <Gold.Chemscore.Hbonds>
donor molecule, donor type, donor heavy atom, donor atom, acceptor molecule, acceptor atom, score
      P1  H  7989  7998       L1     1  0.19
      P1  H  7997  8008       L1    20  0.92

> <Gold.Chemscore.Hbond.Weighted>
-4.3312

> <Gold.Chemscore.Metal.Weighted>
-0.0000

> <Gold.Chemscore.Lipo.Weighted>
-12.5381

> <Gold.Chemscore.Internal_Hbond.Weighted>
0.0000

> <Gold.Chemscore.DEClash.Weighted>
0.2606

> <Gold.Chemscore.DEInternal.Weighted>
2.6927

> <Gold.Chemscore.Rot.Weighted>
3.8680

> <Gold.Chemscore.Internal.Correction.Weighted>
   9.000000E+99

> <Gold.Protein.RotatedTorsions>
[ 6907 6896 6895 6894 ] final -171.56 input  -60.11 | X-H torsion
[ 7974 7965 7964 7962 ] final  156.56 input  175.53 | X-H torsion
[ 8008 7997 7996 7995 ] final -130.45 input   59.86 | X-H torsion
[ 10167 10162 10161 10158 ] final  162.46 input  -65.29 | X-H torsion
[ 10718 10713 10712 10709 ] final  -22.36 input   66.30 | X-H torsion
[ 10763 10752 10751 10750 ] final    0.23 input  -60.55 | X-H torsion
[ 11005 11000 10999 10996 ] final   80.11 input  -57.11 | X-H torsion

> <Gold.Protein.ActiveResidues>
 VAL166  LYS551  ARG553  GLY616  TRP617  ASP618  TYR619  PRO620  LYS621  CYS622 
 ASP623  PHE694  ASN695  SER759  ASP760  ASP761  ALA762  ILE779  LEU786  VAL792 
 PHE793  MET794  SER795  GLU796  ALA797  LYS798  CYS799  TRP800  GLU811  SER814 

> <Gold.Protein.RotatedAtoms>
  151.5259  133.3458  159.2909 H   0  0  0  0  0  0  0  0  0  0  0  0  # atno 6907 bound_to 6896
  150.8624  134.7981  159.7103 H   0  0  0  0  0  0  0  0  0  0  0  0  # atno 6908 bound_to 6896
  152.4639  134.5130  159.9811 H   0  0  0  0  0  0  0  0  0  0  0  0  # atno 6909 bound_to 6896
  144.7955  139.7221  143.6203 H   0  0  0  0  0  0  0  0  0  0  0  0  # atno 7974 bound_to 7965
  155.2960  140.0450  157.3026 H   0  0  0  0  0  0  0  0  0  0  0  0  # atno 8008 bound_to 7997
  154.5514  140.2318  155.8446 H   0  0  0  0  0  0  0  0  0  0  0  0  # atno 8009 bound_to 7997
  156.1970  140.3036  155.9454 H   0  0  0  0  0  0  0  0  0  0  0  0  # atno 8010 bound_to 7997
  139.4861  144.4435  151.8921 H   0  0  0  0  0  0  0  0  0  0  0  0  # atno 10167 bound_to 10162
  156.5057  130.4598  149.6676 H   0  0  0  0  0  0  0  0  0  0  0  0  # atno 10718 bound_to 10713
  153.3233  135.6970  153.7011 H   0  0  0  0  0  0  0  0  0  0  0  0  # atno 10763 bound_to 10752
  153.5843  135.3492  155.2887 H   0  0  0  0  0  0  0  0  0  0  0  0  # atno 10764 bound_to 10752
  154.8602  135.4302  154.2403 H   0  0  0  0  0  0  0  0  0  0  0  0  # atno 10765 bound_to 10752
  139.9147  134.7895  156.1867 H   0  0  0  0  0  0  0  0  0  0  0  0  # atno 11005 bound_to 11000
  146.2222  139.5657  142.9611 LP  0  0  0  0  0  0  0  0  0  0  0  0  # atno 17320 bound_to 7965
  145.5684  141.0397  143.2188 LP  0  0  0  0  0  0  0  0  0  0  0  0  # atno 17321 bound_to 7965
  140.3888  144.2642  150.5901 LP  0  0  0  0  0  0  0  0  0  0  0  0  # atno 17342 bound_to 10162
  140.5165  143.2277  151.8455 LP  0  0  0  0  0  0  0  0  0  0  0  0  # atno 17343 bound_to 10162
  156.3290  130.7321  151.2247 LP  0  0  0  0  0  0  0  0  0  0  0  0  # atno 17370 bound_to 10713
  157.7457  131.0435  150.4747 LP  0  0  0  0  0  0  0  0  0  0  0  0  # atno 17371 bound_to 10713
  141.0609  133.6842  156.1951 LP  0  0  0  0  0  0  0  0  0  0  0  0  # atno 17394 bound_to 11000
  140.6662  134.4916  157.5585 LP  0  0  0  0  0  0  0  0  0  0  0  0  # atno 17395 bound_to 11000

$$$$
