AV-unprocessed.smi:287|AV-procd|sdf|2208|dock4
  -GOLD-   2262022 43D 1   1.00000     0.00000
 Structure written by MMmdl.
 55 58  0  0  0  0  0  0  0  0  1 V2000
  151.5665  145.0947  159.4597 C   0  0  0  0  0  0  0  0  0  0  0  0
  151.8268  143.6557  159.1720 C   0  0  0  0  0  0  0  0  0  0  0  0
  151.3776  142.7854  158.2219 C   0  0  0  0  0  0  0  0  0  0  0  0
  151.9920  141.5226  158.4753 C   0  0  0  0  0  0  0  0  0  0  0  0
  151.7996  140.2449  157.6678 C   0  0  2  0  0  0  0  0  0  0  0  0
  151.2382  139.1181  158.5544 C   0  0  0  0  0  0  0  0  0  0  0  0
  153.0190  139.7305  157.1680 O   0  0  0  0  0  0  0  0  0  0  0  0
  150.8798  140.4603  156.4452 C   0  0  0  0  0  0  0  0  0  0  0  0
  149.4638  140.4627  156.7887 N   0  0  0  0  0  0  0  0  0  0  0  0
  148.5280  140.8105  155.8806 C   0  0  0  0  0  0  0  0  0  0  0  0
  148.7453  140.3620  154.6214 N   0  0  0  0  0  0  0  0  0  0  0  0
  147.8764  140.6462  153.6480 C   0  0  0  0  0  0  0  0  0  0  0  0
  146.7462  141.3504  153.7194 N   0  0  0  0  0  0  0  0  0  0  0  0
  146.5190  141.8112  154.9836 C   0  0  0  0  0  0  0  0  0  0  0  0
  147.3557  141.5897  156.1162 C   0  0  0  0  0  0  0  0  0  0  0  0
  146.7989  142.2184  157.2253 N   0  0  0  0  0  0  0  0  0  0  0  0
  145.7060  142.7695  156.7730 C   0  0  0  0  0  0  0  0  0  0  0  0
  145.4574  142.5701  155.4347 N   0  0  0  0  0  0  0  0  0  0  0  0
  144.2916  143.0696  154.6437 C   0  0  1  0  0  0  0  0  0  0  0  0
  143.1979  143.1808  155.5021 O   0  0  0  0  0  0  0  0  0  0  0  0
  142.4967  144.3891  155.2312 C   0  0  1  0  0  0  0  0  0  0  0  0
  141.7094  144.8207  156.4783 C   0  0  0  0  0  0  0  0  0  0  0  0
  142.5915  145.0393  157.5585 O   0  0  0  0  0  0  0  0  0  0  0  0
  143.6278  145.3492  154.8582 C   0  0  2  0  0  0  0  0  0  0  0  0
  143.1813  146.4833  154.1368 O   0  0  0  0  0  0  0  0  0  0  0  0
  144.5810  144.4623  154.0606 C   0  0  2  0  0  0  0  0  0  0  0  0
  144.3032  144.4917  152.6723 O   0  0  0  0  0  0  0  0  0  0  0  0
  152.7909  141.7375  159.5729 C   0  0  0  0  0  0  0  0  0  0  0  0
  153.7238  140.8767  160.3590 C   0  0  0  0  0  0  0  0  0  0  0  0
  152.6926  143.0256  160.0041 O   0  0  0  0  0  0  0  0  0  0  0  0
  144.1169  142.3028  153.8871 H   0  0  0  0  0  0  0  0  0  0  0  0
  141.8387  144.2426  154.3719 H   0  0  0  0  0  0  0  0  0  0  0  0
  144.1298  145.6928  155.7627 H   0  0  0  0  0  0  0  0  0  0  0  0
  145.6221  144.7500  154.2154 H   0  0  0  0  0  0  0  0  0  0  0  0
  150.9010  145.5271  158.7123 H   0  0  0  0  0  0  0  0  0  0  0  0
  152.4958  145.6645  159.4552 H   0  0  0  0  0  0  0  0  0  0  0  0
  151.0999  145.2146  160.4375 H   0  0  0  0  0  0  0  0  0  0  0  0
  150.6829  143.0292  157.4320 H   0  0  0  0  0  0  0  0  0  0  0  0
  150.2586  139.3752  158.9587 H   0  0  0  0  0  0  0  0  0  0  0  0
  151.8977  138.9104  159.3981 H   0  0  0  0  0  0  0  0  0  0  0  0
  151.1195  138.1904  157.9930 H   0  0  0  0  0  0  0  0  0  0  0  0
  153.0485  138.8030  157.3460 H   0  0  0  0  0  0  0  0  0  0  0  0
  151.1501  141.3764  155.9181 H   0  0  0  0  0  0  0  0  0  0  0  0
  151.0312  139.6350  155.7482 H   0  0  0  0  0  0  0  0  0  0  0  0
  149.2483  140.2449  157.7511 H   0  0  0  0  0  0  0  0  0  0  0  0
  148.1209  140.2515  152.6730 H   0  0  0  0  0  0  0  0  0  0  0  0
  145.0433  143.3373  157.4101 H   0  0  0  0  0  0  0  0  0  0  0  0
  141.1170  145.7152  156.2826 H   0  0  0  0  0  0  0  0  0  0  0  0
  141.0170  144.0334  156.7777 H   0  0  0  0  0  0  0  0  0  0  0  0
  143.2407  145.6729  157.2932 H   0  0  0  0  0  0  0  0  0  0  0  0
  143.8811  147.1180  154.1121 H   0  0  0  0  0  0  0  0  0  0  0  0
  143.5690  143.9200  152.5060 H   0  0  0  0  0  0  0  0  0  0  0  0
  153.1753  140.0995  160.8911 H   0  0  0  0  0  0  0  0  0  0  0  0
  154.2756  141.4618  161.0954 H   0  0  0  0  0  0  0  0  0  0  0  0
  154.4486  140.3932  159.7037 H   0  0  0  0  0  0  0  0  0  0  0  0
  1  2  1  0  0  0  0
  1 35  1  0  0  0  0
  1 36  1  0  0  0  0
  1 37  1  0  0  0  0
  2 30  1  0  0  0  0
  2  3  2  0  0  0  0
  3  4  1  0  0  0  0
  3 38  1  0  0  0  0
  4  5  1  0  0  0  0
  4 28  2  0  0  0  0
  5  6  1  0  0  0  0
  5  7  1  0  0  0  0
  5  8  1  0  0  0  0
  6 39  1  0  0  0  0
  6 40  1  0  0  0  0
  6 41  1  0  0  0  0
  7 42  1  0  0  0  0
  8  9  1  0  0  0  0
  8 43  1  0  0  0  0
  8 44  1  0  0  0  0
  9 10  1  0  0  0  0
  9 45  1  0  0  0  0
 10 15  1  0  0  0  0
 10 11  2  0  0  0  0
 11 12  1  0  0  0  0
 12 13  2  0  0  0  0
 12 46  1  0  0  0  0
 13 14  1  0  0  0  0
 14 18  1  0  0  0  0
 14 15  2  0  0  0  0
 15 16  1  0  0  0  0
 16 17  2  0  0  0  0
 17 18  1  0  0  0  0
 17 47  1  0  0  0  0
 18 19  1  0  0  0  0
 19 31  1  0  0  0  0
 19 26  1  0  0  0  0
 19 20  1  0  0  0  0
 20 21  1  0  0  0  0
 21 32  1  0  0  0  0
 21 22  1  0  0  0  0
 21 24  1  0  0  0  0
 22 23  1  0  0  0  0
 22 48  1  0  0  0  0
 22 49  1  0  0  0  0
 23 50  1  0  0  0  0
 24 33  1  0  0  0  0
 24 25  1  0  0  0  0
 24 26  1  0  0  0  0
 25 51  1  0  0  0  0
 26 34  1  0  0  0  0
 26 27  1  0  0  0  0
 27 52  1  0  0  0  0
 28 29  1  0  0  0  0
 28 30  1  0  0  0  0
 29 53  1  0  0  0  0
 29 54  1  0  0  0  0
 29 55  1  0  0  0  0
M  END
> <s_m_source_file>
AV-unprocessed.smi

> <i_m_source_file_index>
287

> <i_lp_mmshare_version>
43012

> <i_f3d_flags>
0

> <s_epik_input>
W0NIM11jMVtjSF1jKGMobzEpW0NIM10pW0NAQF0oW0NIM10pKFtPSF0pW0NIMl1bTkhdYyhuW2NIXW4yKWMoYzIzKW5bY0hdbjNbQ0BASF00T1tDQEhdKFtDSDJdW09IXSlbQ0BASF0oW09IXSlbQ0BIXTRbT0hd

> <s_epik_cmdline>
J2VwaWtfcHl0aG9uJywgJy1waCcsICc3LjAnLCAnLXRuJywgJzgnLCAnLW1hJywgJzIwMCcsICctbWV0YWxfYmluZGluZycsICctaW1hZScsICc8aW5maWxlLm1hZT4nLCAnLW9tYWUnLCAnPG91dGZpbGUubWFlPic=

> <r_lp_tautomer_probability>
1

> <r_epik_Ionization_Penalty>
0.000992612

> <r_epik_Ionization_Penalty_Charging>
0

> <r_epik_Ionization_Penalty_Neutral>
0.000992612

> <r_epik_State_Penalty>
-0

> <r_epik_Charging_Adjusted_Penalty>
0

> <i_epik_Tot_Q>
0

> <i_epik_Tot_abs_Q>
0

> <r_epik_Metal_State_Penalty>
-0

> <b_epik_Metal_Only>
0

> <s_epik_Chemistry_Notes>
This compound contains an acetal/aminal-like group ( X-CH(R)-Y where X, Y are N, S, or O) that may be acid/base labile, releasing an aldehyde.

> <s_lp_Force_Field>
OPLS_2005

> <r_lp_Energy>
44.724

> <b_lp_Chiralities_Consistent>
1

> <s_lp_Variant>
AV-unprocessed.smi:287-32

> <Gold.Version>
5.8.1

> <Gold.Id.Protein>
6NUR|6NUR_protein|mol2

> <Gold.PLP.Fitness>
54.6913

> <Gold.PLP.PLP>
-48.2952

> <Gold.PLP.part.hbond>
-4.4059

> <Gold.PLP.part.metal>
0.0000

> <Gold.PLP.part.buried>
-6.7356

> <Gold.PLP.part.nonpolar>
-38.0189

> <Gold.PLP.part.repulsive>
0.6240

> <Gold.PLP.ligand.clash>
0.0000

> <Gold.PLP.ligand.torsion>
1.3997

> <Gold.PLP.Chemscore.Hbond>
2.0000

> <Gold.PLP.Chemscore.CHOScore>
1.0000

> <Gold.PLP.Chemscore.Metal>
0.0000

> <Gold.Chemscore.Hbonds>
donor molecule, donor type, donor heavy atom, donor atom, acceptor molecule, acceptor atom, score
      L1  H    27    52       P1 10174  1.00
      P1  H  7997  8009       L1     7  0.94
      L1  C    12    46       P1  7957  1.00

> <Gold.PLP.Chemscore.Internal.Correction>
0.1955

> <Gold.Rescore>
     Score         DG    S(hbond)    S(metal)    S(lipo)     H(rot)  DE(clash)    DE(int)     intcor
      9.36     -10.18       1.88        0.00     101.74       5.27       0.08       0.75       ----

> <Gold.Chemscore.Fitness>
9.3590

> <Gold.Chemscore.DG>
-10.1850

> <Gold.Chemscore.ZeroCoef>
-5.4800

> <Gold.Chemscore.Hbond>
1.8819

> <Gold.Chemscore.Metal>
0.0000

> <Gold.Chemscore.Lipo>
101.7377

> <Gold.Chemscore.Internal_Hbond>
0.0000

> <Gold.Chemscore.DEClash>
0.0762

> <Gold.Chemscore.DEInternal>
0.7497

> <Gold.Chemscore.Rot>
5.2672

> <Gold.Chemscore.Internal.Correction>
   9.000000E+99

> <Gold.Chemscore.Hbonds>
donor molecule, donor type, donor heavy atom, donor atom, acceptor molecule, acceptor atom, score
      L1  H    27    52       P1 10174  0.92
      P1  H  7997  8009       L1     7  0.54

> <Gold.Chemscore.Hbond.Weighted>
-6.2856

> <Gold.Chemscore.Metal.Weighted>
-0.0000

> <Gold.Chemscore.Lipo.Weighted>
-11.9033

> <Gold.Chemscore.Internal_Hbond.Weighted>
0.0000

> <Gold.Chemscore.DEClash.Weighted>
0.0762

> <Gold.Chemscore.DEInternal.Weighted>
0.7497

> <Gold.Chemscore.Rot.Weighted>
13.4839

> <Gold.Chemscore.Internal.Correction.Weighted>
   9.000000E+99

> <Gold.Protein.RotatedTorsions>
[ 6907 6896 6895 6894 ] final   78.41 input  -60.11 | X-H torsion
[ 7974 7965 7964 7962 ] final  105.86 input  175.53 | X-H torsion
[ 8008 7997 7996 7995 ] final -174.90 input   59.86 | X-H torsion
[ 10167 10162 10161 10158 ] final -121.22 input  -65.29 | X-H torsion
[ 10718 10713 10712 10709 ] final   16.09 input   66.30 | X-H torsion
[ 10763 10752 10751 10750 ] final   19.35 input  -60.55 | X-H torsion
[ 11005 11000 10999 10996 ] final  -31.37 input  -57.11 | X-H torsion

> <Gold.Protein.ActiveResidues>
 VAL166  LYS551  ARG553  GLY616  TRP617  ASP618  TYR619  PRO620  LYS621  CYS622 
 ASP623  PHE694  ASN695  SER759  ASP760  ASP761  ALA762  ILE779  LEU786  VAL792 
 PHE793  MET794  SER795  GLU796  ALA797  LYS798  CYS799  TRP800  GLU811  SER814 

> <Gold.Protein.RotatedAtoms>
  152.5158  134.3668  159.9303 H   0  0  0  0  0  0  0  0  0  0  0  0  # atno 6907 bound_to 6896
  151.3621  133.3879  159.2698 H   0  0  0  0  0  0  0  0  0  0  0  0  # atno 6908 bound_to 6896
  150.9643  134.9046  159.7808 H   0  0  0  0  0  0  0  0  0  0  0  0  # atno 6909 bound_to 6896
  145.3142  139.2531  143.3746 H   0  0  0  0  0  0  0  0  0  0  0  0  # atno 7974 bound_to 7965
  155.9758  140.1172  157.0771 H   0  0  0  0  0  0  0  0  0  0  0  0  # atno 8008 bound_to 7997
  154.4169  140.1154  156.5436 H   0  0  0  0  0  0  0  0  0  0  0  0  # atno 8009 bound_to 7997
  155.6536  140.3473  155.4759 H   0  0  0  0  0  0  0  0  0  0  0  0  # atno 8010 bound_to 7997
  140.0274  143.5283  152.2192 H   0  0  0  0  0  0  0  0  0  0  0  0  # atno 10167 bound_to 10162
  157.0629  130.6316  149.5790 H   0  0  0  0  0  0  0  0  0  0  0  0  # atno 10718 bound_to 10713
  153.1170  135.6710  153.9401 H   0  0  0  0  0  0  0  0  0  0  0  0  # atno 10763 bound_to 10752
  153.8928  135.3045  155.3449 H   0  0  0  0  0  0  0  0  0  0  0  0  # atno 10764 bound_to 10752
  154.7585  135.5000  153.9498 H   0  0  0  0  0  0  0  0  0  0  0  0  # atno 10765 bound_to 10752
  140.9462  133.7248  156.1151 H   0  0  0  0  0  0  0  0  0  0  0  0  # atno 11005 bound_to 11000
  146.3106  140.3685  142.8672 LP  0  0  0  0  0  0  0  0  0  0  0  0  # atno 17320 bound_to 7965
  144.8991  140.7620  143.5878 LP  0  0  0  0  0  0  0  0  0  0  0  0  # atno 17321 bound_to 7965
  139.6099  144.7606  151.2976 LP  0  0  0  0  0  0  0  0  0  0  0  0  # atno 17342 bound_to 10162
  140.7317  143.6845  150.7973 LP  0  0  0  0  0  0  0  0  0  0  0  0  # atno 17343 bound_to 10162
  155.9973  130.5044  150.7529 LP  0  0  0  0  0  0  0  0  0  0  0  0  # atno 17370 bound_to 10713
  157.4940  131.0913  151.0393 LP  0  0  0  0  0  0  0  0  0  0  0  0  # atno 17371 bound_to 10713
  140.7665  134.3880  157.5516 LP  0  0  0  0  0  0  0  0  0  0  0  0  # atno 17394 bound_to 11000
  139.8834  134.8995  156.2768 LP  0  0  0  0  0  0  0  0  0  0  0  0  # atno 17395 bound_to 11000

$$$$
