AV-unprocessed.smi:512|AV-procd|sdf|2769|dock10
  -GOLD-   2262023233D 1   1.00000     0.00000
 Structure written by MMmdl.
 48 50  0  0  0  0  0  0  0  0  1 V2000
  150.0615  134.4080  154.6803 C   0  0  0  0  0  0  0  0  0  0  0  0
  150.4860  135.1337  155.9588 C   0  0  0  0  0  0  0  0  0  0  0  0
  151.5446  136.0196  155.6434 O   0  0  0  0  0  0  0  0  0  0  0  0
  151.8771  136.8906  156.7120 C   0  0  0  0  0  0  0  0  0  0  0  0
  150.6672  137.7737  157.0472 C   0  0  0  0  0  0  0  0  0  0  0  0
  151.0782  139.0565  157.6153 N   0  0  0  0  0  0  0  0  0  0  0  0
  150.9088  140.3043  157.0985 C   0  0  0  0  0  0  0  0  0  0  0  0
  150.2379  140.5271  155.8960 N   0  0  0  0  0  0  0  0  0  0  0  0
  149.5684  141.7548  155.4730 C   0  0  0  0  0  0  0  0  0  0  0  0
  148.1515  141.4564  154.9453 C   0  0  0  0  0  0  0  0  0  0  0  0
  148.2479  140.5734  153.7833 N   0  0  0  0  0  0  0  0  0  0  0  0
  146.9144  140.2770  153.2812 C   0  0  0  0  0  0  0  0  0  0  0  0
  148.9090  139.3327  154.1886 C   0  0  0  0  0  0  0  0  0  0  0  0
  150.3168  139.6505  154.7315 C   0  0  0  0  0  0  0  0  0  0  0  0
  151.4823  141.2823  157.8044 N   0  0  0  0  0  0  0  0  0  0  0  0
  152.0437  140.6077  158.8772 C   0  0  0  0  0  0  0  0  0  0  0  0
  151.8209  139.2721  158.7792 C   0  0  0  0  0  0  0  0  0  0  0  0
  152.3531  138.3140  159.7599 C   0  0  0  0  0  0  0  0  0  0  0  0
  152.1800  137.0994  159.6900 O   0  0  0  0  0  0  0  0  0  0  0  0
  153.0656  138.9052  160.7494 N   0  0  0  0  0  0  0  0  0  0  0  0
  153.3227  140.2391  160.9065 C   0  0  0  0  0  0  0  0  0  0  0  0
  154.0007  140.6266  161.8580 O   0  0  0  0  0  0  0  0  0  0  0  0
  152.8049  141.1017  159.9747 N   0  0  0  0  0  0  0  0  0  0  0  0
  153.0516  142.5404  160.0883 C   0  0  0  0  0  0  0  0  0  0  0  0
  153.4568  138.2900  161.4477 H   0  0  0  0  0  0  0  0  0  0  0  0
  149.2397  133.7193  154.8768 H   0  0  0  0  0  0  0  0  0  0  0  0
  150.8893  133.8327  154.2648 H   0  0  0  0  0  0  0  0  0  0  0  0
  149.7309  135.1163  153.9202 H   0  0  0  0  0  0  0  0  0  0  0  0
  149.6414  135.6880  156.3708 H   0  0  0  0  0  0  0  0  0  0  0  0
  150.8087  134.4116  156.7100 H   0  0  0  0  0  0  0  0  0  0  0  0
  152.1654  136.3105  157.5898 H   0  0  0  0  0  0  0  0  0  0  0  0
  152.7295  137.5130  156.4370 H   0  0  0  0  0  0  0  0  0  0  0  0
  150.0652  137.9314  156.1574 H   0  0  0  0  0  0  0  0  0  0  0  0
  150.0050  137.2608  157.7410 H   0  0  0  0  0  0  0  0  0  0  0  0
  149.5334  142.4708  156.2930 H   0  0  0  0  0  0  0  0  0  0  0  0
  150.1626  142.2333  154.6931 H   0  0  0  0  0  0  0  0  0  0  0  0
  147.5389  140.9999  155.7244 H   0  0  0  0  0  0  0  0  0  0  0  0
  147.6633  142.3873  154.6545 H   0  0  0  0  0  0  0  0  0  0  0  0
  146.9708  139.6195  152.4129 H   0  0  0  0  0  0  0  0  0  0  0  0
  146.4102  141.1932  152.9721 H   0  0  0  0  0  0  0  0  0  0  0  0
  146.3016  139.7890  154.0407 H   0  0  0  0  0  0  0  0  0  0  0  0
  148.3188  138.8144  154.9465 H   0  0  0  0  0  0  0  0  0  0  0  0
  148.9884  138.6654  153.3296 H   0  0  0  0  0  0  0  0  0  0  0  0
  150.9323  140.1151  153.9597 H   0  0  0  0  0  0  0  0  0  0  0  0
  150.8152  138.7217  155.0114 H   0  0  0  0  0  0  0  0  0  0  0  0
  152.8329  142.8983  161.0957 H   0  0  0  0  0  0  0  0  0  0  0  0
  152.4361  143.1234  159.4031 H   0  0  0  0  0  0  0  0  0  0  0  0
  154.0962  142.7624  159.8673 H   0  0  0  0  0  0  0  0  0  0  0  0
  1  2  1  0  0  0  0
  1 26  1  0  0  0  0
  1 27  1  0  0  0  0
  1 28  1  0  0  0  0
  2  3  1  0  0  0  0
  2 29  1  0  0  0  0
  2 30  1  0  0  0  0
  3  4  1  0  0  0  0
  4  5  1  0  0  0  0
  4 31  1  0  0  0  0
  4 32  1  0  0  0  0
  5  6  1  0  0  0  0
  5 33  1  0  0  0  0
  5 34  1  0  0  0  0
  6 17  1  0  0  0  0
  6  7  1  0  0  0  0
  7  8  1  0  0  0  0
  7 15  2  0  0  0  0
  8 14  1  0  0  0  0
  8  9  1  0  0  0  0
  9 10  1  0  0  0  0
  9 35  1  0  0  0  0
  9 36  1  0  0  0  0
 10 11  1  0  0  0  0
 10 37  1  0  0  0  0
 10 38  1  0  0  0  0
 11 12  1  0  0  0  0
 11 13  1  0  0  0  0
 12 39  1  0  0  0  0
 12 40  1  0  0  0  0
 12 41  1  0  0  0  0
 13 14  1  0  0  0  0
 13 42  1  0  0  0  0
 13 43  1  0  0  0  0
 14 44  1  0  0  0  0
 14 45  1  0  0  0  0
 15 16  1  0  0  0  0
 16 23  1  0  0  0  0
 16 17  2  0  0  0  0
 17 18  1  0  0  0  0
 18 19  2  0  0  0  0
 18 20  1  0  0  0  0
 20 25  1  0  0  0  0
 20 21  1  0  0  0  0
 21 22  2  0  0  0  0
 21 23  1  0  0  0  0
 23 24  1  0  0  0  0
 24 46  1  0  0  0  0
 24 47  1  0  0  0  0
 24 48  1  0  0  0  0
M  END
> <s_m_source_file>
AV-unprocessed.smi

> <i_m_source_file_index>
512

> <i_lp_mmshare_version>
43012

> <i_f3d_flags>
0

> <s_epik_input>
W0NIM11uMWMoPU8pW25IXWMoPU8pYyhjMTIpbihbQ0gyXVtDSDJdT1tDSDJdW0NIM10pYyhuMilOM1tDSDJdW0NIMl1OKFtDSDNdKVtDSDJdW0NIMl0z

> <s_epik_cmdline>
J2VwaWtfcHl0aG9uJywgJy1waCcsICc3LjAnLCAnLXRuJywgJzgnLCAnLW1hJywgJzIwMCcsICctbWV0YWxfYmluZGluZycsICctaW1hZScsICc8aW5maWxlLm1hZT4nLCAnLW9tYWUnLCAnPG91dGZpbGUubWFlPic=

> <r_epik_Ionization_Penalty>
1.34391

> <r_epik_Ionization_Penalty_Charging>
1.55829e-05

> <r_epik_Ionization_Penalty_Neutral>
1.34389

> <r_epik_State_Penalty>
1.4212

> <r_epik_Charging_Adjusted_Penalty>
1.42122

> <i_epik_Tot_Q>
0

> <i_epik_Tot_abs_Q>
0

> <r_epik_Metal_State_Penalty>
1.44738

> <b_epik_Metal_Only>
0

> <s_lp_Force_Field>
OPLS_2005

> <r_lp_Energy>
48.5788

> <b_lp_Chiralities_Consistent>
1

> <s_lp_Variant>
AV-unprocessed.smi:512-2

> <Gold.Version>
5.8.1

> <Gold.Id.Protein>
6NUR|6NUR_protein|mol2

> <Gold.PLP.Fitness>
42.9153

> <Gold.PLP.PLP>
-37.7174

> <Gold.PLP.part.hbond>
-2.0073

> <Gold.PLP.part.metal>
0.0000

> <Gold.PLP.part.buried>
-6.3628

> <Gold.PLP.part.nonpolar>
-31.5601

> <Gold.PLP.part.repulsive>
1.0962

> <Gold.PLP.ligand.clash>
0.0000

> <Gold.PLP.ligand.torsion>
0.6305

> <Gold.PLP.Chemscore.Hbond>
2.0000

> <Gold.PLP.Chemscore.CHOScore>
0.0000

> <Gold.PLP.Chemscore.Metal>
0.0000

> <Gold.Chemscore.Hbonds>
donor molecule, donor type, donor heavy atom, donor atom, acceptor molecule, acceptor atom, score
      P1  H  6896  6907       L1    19  0.99
      P1  H 10752 10765       L1     3  1.00

> <Gold.PLP.Chemscore.Internal.Correction>
0.4589

> <Gold.Rescore>
     Score         DG    S(hbond)    S(metal)    S(lipo)     H(rot)  DE(clash)    DE(int)     intcor
     13.71     -15.51       1.91        0.00      67.02       1.63       0.01       1.79       ----

> <Gold.Chemscore.Fitness>
13.7057

> <Gold.Chemscore.DG>
-15.5060

> <Gold.Chemscore.ZeroCoef>
-5.4800

> <Gold.Chemscore.Hbond>
1.9057

> <Gold.Chemscore.Metal>
0.0000

> <Gold.Chemscore.Lipo>
67.0180

> <Gold.Chemscore.Internal_Hbond>
0.0000

> <Gold.Chemscore.DEClash>
0.0115

> <Gold.Chemscore.DEInternal>
1.7887

> <Gold.Chemscore.Rot>
1.6328

> <Gold.Chemscore.Internal.Correction>
   9.000000E+99

> <Gold.Chemscore.Hbonds>
donor molecule, donor type, donor heavy atom, donor atom, acceptor molecule, acceptor atom, score
      P1  H  6896  6907       L1    19  0.92
      P1  H 10752 10765       L1     3  0.74

> <Gold.Chemscore.Hbond.Weighted>
-6.3649

> <Gold.Chemscore.Metal.Weighted>
-0.0000

> <Gold.Chemscore.Lipo.Weighted>
-7.8411

> <Gold.Chemscore.Internal_Hbond.Weighted>
0.0000

> <Gold.Chemscore.DEClash.Weighted>
0.0115

> <Gold.Chemscore.DEInternal.Weighted>
1.7887

> <Gold.Chemscore.Rot.Weighted>
4.1800

> <Gold.Chemscore.Internal.Correction.Weighted>
   9.000000E+99

> <Gold.Protein.RotatedTorsions>
[ 6907 6896 6895 6894 ] final   19.17 input  -60.11 | X-H torsion
[ 7974 7965 7964 7962 ] final  -22.02 input  175.53 | X-H torsion
[ 8008 7997 7996 7995 ] final  -37.41 input   59.86 | X-H torsion
[ 10167 10162 10161 10158 ] final  -82.36 input  -65.29 | X-H torsion
[ 10718 10713 10712 10709 ] final  118.45 input   66.30 | X-H torsion
[ 10763 10752 10751 10750 ] final -167.52 input  -60.55 | X-H torsion
[ 11005 11000 10999 10996 ] final   56.55 input  -57.11 | X-H torsion

> <Gold.Protein.ActiveResidues>
 VAL166  LYS551  ARG553  GLY616  TRP617  ASP618  TYR619  PRO620  LYS621  CYS622 
 ASP623  PHE694  ASN695  SER759  ASP760  ASP761  ALA762  ILE779  LEU786  VAL792 
 PHE793  MET794  SER795  GLU796  ALA797  LYS798  CYS799  TRP800  GLU811  SER814 

> <Gold.Protein.RotatedAtoms>
  151.8767  135.0469  160.0484 H   0  0  0  0  0  0  0  0  0  0  0  0  # atno 6907 bound_to 6896
  152.2545  133.5239  159.5353 H   0  0  0  0  0  0  0  0  0  0  0  0  # atno 6908 bound_to 6896
  150.7095  134.0831  159.3947 H   0  0  0  0  0  0  0  0  0  0  0  0  # atno 6909 bound_to 6896
  146.1700  140.4421  142.8536 H   0  0  0  0  0  0  0  0  0  0  0  0  # atno 7974 bound_to 7965
  154.4054  140.1605  156.2533 H   0  0  0  0  0  0  0  0  0  0  0  0  # atno 8008 bound_to 7997
  155.9100  140.3428  155.6069 H   0  0  0  0  0  0  0  0  0  0  0  0  # atno 8009 bound_to 7997
  155.7347  140.0785  157.2264 H   0  0  0  0  0  0  0  0  0  0  0  0  # atno 8010 bound_to 7997
  140.4327  143.2543  151.8737 H   0  0  0  0  0  0  0  0  0  0  0  0  # atno 10167 bound_to 10162
  157.6029  131.1048  150.7757 H   0  0  0  0  0  0  0  0  0  0  0  0  # atno 10718 bound_to 10713
  154.6723  135.2941  154.9725 H   0  0  0  0  0  0  0  0  0  0  0  0  # atno 10763 bound_to 10752
  154.0748  135.6613  153.4833 H   0  0  0  0  0  0  0  0  0  0  0  0  # atno 10764 bound_to 10752
  153.0494  135.5183  154.7726 H   0  0  0  0  0  0  0  0  0  0  0  0  # atno 10765 bound_to 10752
  140.0520  134.5723  155.9252 H   0  0  0  0  0  0  0  0  0  0  0  0  # atno 11005 bound_to 11000
  144.8149  140.6450  143.6391 LP  0  0  0  0  0  0  0  0  0  0  0  0  # atno 17320 bound_to 7965
  145.4366  139.1541  143.3993 LP  0  0  0  0  0  0  0  0  0  0  0  0  # atno 17321 bound_to 7965
  139.4785  144.5317  151.8657 LP  0  0  0  0  0  0  0  0  0  0  0  0  # atno 17342 bound_to 10162
  140.4409  144.1987  150.5891 LP  0  0  0  0  0  0  0  0  0  0  0  0  # atno 17343 bound_to 10162
  156.8152  130.4965  149.5350 LP  0  0  0  0  0  0  0  0  0  0  0  0  # atno 17370 bound_to 10713
  156.1108  130.6038  151.0043 LP  0  0  0  0  0  0  0  0  0  0  0  0  # atno 17371 bound_to 10713
  141.1935  133.6579  156.5550 LP  0  0  0  0  0  0  0  0  0  0  0  0  # atno 17394 bound_to 11000
  140.3902  134.7447  157.4717 LP  0  0  0  0  0  0  0  0  0  0  0  0  # atno 17395 bound_to 11000

$$$$
