AV-unprocessed.smi:926|AV-procd|sdf|4183|dock3
  -GOLD-   22720 2 83D 1   1.00000     0.00000
 Structure written by MMmdl.
 37 39  0  0  0  0  0  0  0  0  1 V2000
  155.0222  139.8335  159.2746 O   0  0  0  0  0  0  0  0  0  0  0  0
  154.5750  139.2396  160.2557 C   0  0  0  0  0  0  0  0  0  0  0  0
  154.7059  137.7200  160.3523 C   0  0  0  0  0  0  0  0  0  0  0  0
  154.2228  137.0840  159.1412 N   0  0  0  0  0  0  0  0  0  0  0  0
  154.6645  137.1424  157.8829 C   0  0  0  0  0  0  0  0  0  0  0  0
  153.9203  136.4088  157.0694 N   0  0  0  0  0  0  0  0  0  0  0  0
  152.9630  135.8737  157.9152 N   0  0  0  0  0  0  0  0  0  0  0  0
  153.1375  136.2706  159.1458 N   0  0  0  0  0  0  0  0  0  0  0  0
  153.9505  139.8538  161.2729 N   0  0  0  0  0  0  0  0  0  0  0  0
  153.6830  141.2847  161.3432 C   0  0  0  0  0  0  0  0  0  0  0  0
  153.0688  141.8031  160.0311 C   0  0  0  0  0  0  0  0  0  0  0  0
  153.0186  143.3412  159.9454 C   0  0  2  0  0  0  0  0  0  0  0  0
  151.9515  143.9847  160.8571 C   0  0  0  0  0  0  0  0  0  0  0  0
  151.1941  144.9200  159.8960 C   0  0  2  0  0  0  0  0  0  0  0  0
  150.3083  144.0754  158.9612 C   0  0  0  0  0  0  0  0  0  0  0  0
  151.3365  143.4268  158.0164 C   0  0  0  0  0  0  0  0  0  0  0  0
  152.6804  143.9516  158.5624 C   0  0  1  0  0  0  0  0  0  0  0  0
  152.3021  145.3765  158.9540 C   0  0  0  0  0  0  0  0  0  0  0  0
  155.7504  137.4425  160.4999 H   0  0  0  0  0  0  0  0  0  0  0  0
  154.1464  137.3467  161.2117 H   0  0  0  0  0  0  0  0  0  0  0  0
  155.5197  137.7208  157.5654 H   0  0  0  0  0  0  0  0  0  0  0  0
  153.6164  139.2872  162.0393 H   0  0  0  0  0  0  0  0  0  0  0  0
  152.9986  141.4656  162.1724 H   0  0  0  0  0  0  0  0  0  0  0  0
  154.6050  141.8183  161.5788 H   0  0  0  0  0  0  0  0  0  0  0  0
  153.6102  141.3968  159.1771 H   0  0  0  0  0  0  0  0  0  0  0  0
  152.0532  141.4162  159.9402 H   0  0  0  0  0  0  0  0  0  0  0  0
  153.9960  143.7211  160.2476 H   0  0  0  0  0  0  0  0  0  0  0  0
  151.2868  143.2531  161.3186 H   0  0  0  0  0  0  0  0  0  0  0  0
  152.4262  144.5507  161.6597 H   0  0  0  0  0  0  0  0  0  0  0  0
  150.6556  145.7226  160.4009 H   0  0  0  0  0  0  0  0  0  0  0  0
  149.7196  143.3362  159.5055 H   0  0  0  0  0  0  0  0  0  0  0  0
  149.6180  144.7068  158.4005 H   0  0  0  0  0  0  0  0  0  0  0  0
  151.2689  142.3398  157.9961 H   0  0  0  0  0  0  0  0  0  0  0  0
  151.1805  143.7762  156.9950 H   0  0  0  0  0  0  0  0  0  0  0  0
  153.4977  143.8855  157.8437 H   0  0  0  0  0  0  0  0  0  0  0  0
  151.9395  145.9760  158.1170 H   0  0  0  0  0  0  0  0  0  0  0  0
  153.1047  145.9171  159.4590 H   0  0  0  0  0  0  0  0  0  0  0  0
  1  2  2  0  0  0  0
  2  3  1  0  0  0  0
  2  9  1  0  0  0  0
  3  4  1  0  0  0  0
  3 19  1  0  0  0  0
  3 20  1  0  0  0  0
  4  8  1  0  0  0  0
  4  5  1  0  0  0  0
  5  6  2  0  0  0  0
  5 21  1  0  0  0  0
  6  7  1  0  0  0  0
  7  8  2  0  0  0  0
  9 10  1  0  0  0  0
  9 22  1  0  0  0  0
 10 11  1  0  0  0  0
 10 23  1  0  0  0  0
 10 24  1  0  0  0  0
 11 12  1  0  0  0  0
 11 25  1  0  0  0  0
 11 26  1  0  0  0  0
 12 17  1  0  0  0  0
 12 13  1  0  0  0  0
 12 27  1  0  0  0  0
 13 14  1  0  0  0  0
 13 28  1  0  0  0  0
 13 29  1  0  0  0  0
 14 18  1  0  0  0  0
 14 15  1  0  0  0  0
 14 30  1  0  0  0  0
 15 16  1  0  0  0  0
 15 31  1  0  0  0  0
 15 32  1  0  0  0  0
 16 17  1  0  0  0  0
 16 33  1  0  0  0  0
 16 34  1  0  0  0  0
 17 18  1  0  0  0  0
 17 35  1  0  0  0  0
 18 36  1  0  0  0  0
 18 37  1  0  0  0  0
M  END
> <s_m_source_file>
AV-unprocessed.smi

> <i_m_source_file_index>
926

> <i_lp_mmshare_version>
43012

> <i_f3d_flags>
0

> <s_epik_input>
bjFubltjSF1uMVtDSDJdQyg9TylbTkhdW0NIMl1bQ0gyXVtDQEhdKFtDSDJdW0NASF0yMylbQ0BIXShbQ0gyXTMpW0NIMl1bQ0gyXTI=

> <s_epik_cmdline>
J2VwaWtfcHl0aG9uJywgJy1waCcsICc3LjAnLCAnLXRuJywgJzgnLCAnLW1hJywgJzIwMCcsICctbWV0YWxfYmluZGluZycsICctaW1hZScsICc8aW5maWxlLm1hZT4nLCAnLW9tYWUnLCAnPG91dGZpbGUubWFlPic=

> <r_lp_tautomer_probability>
1

> <r_epik_Ionization_Penalty>
4.22645e-07

> <r_epik_Ionization_Penalty_Charging>
0

> <r_epik_Ionization_Penalty_Neutral>
4.22645e-07

> <r_epik_State_Penalty>
-0

> <r_epik_Charging_Adjusted_Penalty>
0

> <i_epik_Tot_Q>
0

> <i_epik_Tot_abs_Q>
0

> <r_epik_Metal_State_Penalty>
-0

> <b_epik_Metal_Only>
0

> <s_lp_Force_Field>
OPLS_2005

> <r_lp_Energy>
51.1932

> <b_lp_Chiralities_Consistent>
1

> <s_lp_Variant>
AV-unprocessed.smi:926-1

> <Gold.Version>
5.8.1

> <Gold.Id.Protein>
6NUR|6NUR_protein|mol2

> <Gold.PLP.Fitness>
47.7795

> <Gold.PLP.PLP>
-39.5530

> <Gold.PLP.part.hbond>
-3.9036

> <Gold.PLP.part.metal>
0.0000

> <Gold.PLP.part.buried>
-5.3890

> <Gold.PLP.part.nonpolar>
-30.5809

> <Gold.PLP.part.repulsive>
0.0176

> <Gold.PLP.ligand.clash>
0.0000

> <Gold.PLP.ligand.torsion>
0.2623

> <Gold.PLP.Chemscore.Hbond>
2.9120

> <Gold.PLP.Chemscore.CHOScore>
0.0000

> <Gold.PLP.Chemscore.Metal>
0.0000

> <Gold.Chemscore.Hbonds>
donor molecule, donor type, donor heavy atom, donor atom, acceptor molecule, acceptor atom, score
      P1  H  6896  6907       L1     8  0.88
      P1  H  7997  8008       L1     1  1.00
      P1  H 10752 10764       L1     6  1.00

> <Gold.PLP.Chemscore.Internal.Correction>
0.0151

> <Gold.Rescore>
     Score         DG    S(hbond)    S(metal)    S(lipo)     H(rot)  DE(clash)    DE(int)     intcor
     17.72     -19.37       2.43        0.00     105.02       2.54       0.01       1.64       ----

> <Gold.Chemscore.Fitness>
17.7150

> <Gold.Chemscore.DG>
-19.3658

> <Gold.Chemscore.ZeroCoef>
-5.4800

> <Gold.Chemscore.Hbond>
2.4283

> <Gold.Chemscore.Metal>
0.0000

> <Gold.Chemscore.Lipo>
105.0157

> <Gold.Chemscore.Internal_Hbond>
0.0000

> <Gold.Chemscore.DEClash>
0.0089

> <Gold.Chemscore.DEInternal>
1.6419

> <Gold.Chemscore.Rot>
2.5436

> <Gold.Chemscore.Internal.Correction>
   9.000000E+99

> <Gold.Chemscore.Hbonds>
donor molecule, donor type, donor heavy atom, donor atom, acceptor molecule, acceptor atom, score
      P1  H  6896  6907       L1     8  0.19
      P1  H  7997  8008       L1     1  0.98
      P1  H 10752 10764       L1     6  0.47

> <Gold.Chemscore.Hbond.Weighted>
-8.1107

> <Gold.Chemscore.Metal.Weighted>
-0.0000

> <Gold.Chemscore.Lipo.Weighted>
-12.2868

> <Gold.Chemscore.Internal_Hbond.Weighted>
0.0000

> <Gold.Chemscore.DEClash.Weighted>
0.0089

> <Gold.Chemscore.DEInternal.Weighted>
1.6419

> <Gold.Chemscore.Rot.Weighted>
6.5117

> <Gold.Chemscore.Internal.Correction.Weighted>
   9.000000E+99

> <Gold.Protein.RotatedTorsions>
[ 6907 6896 6895 6894 ] final   34.61 input  -60.11 | X-H torsion
[ 7974 7965 7964 7962 ] final  162.41 input  175.53 | X-H torsion
[ 8008 7997 7996 7995 ] final -131.39 input   59.86 | X-H torsion
[ 10167 10162 10161 10158 ] final   66.91 input  -65.29 | X-H torsion
[ 10718 10713 10712 10709 ] final -163.94 input   66.30 | X-H torsion
[ 10763 10752 10751 10750 ] final   12.30 input  -60.55 | X-H torsion
[ 11005 11000 10999 10996 ] final   68.93 input  -57.11 | X-H torsion

> <Gold.Protein.ActiveResidues>
 VAL166  LYS551  ARG553  GLY616  TRP617  ASP618  TYR619  PRO620  LYS621  CYS622 
 ASP623  PHE694  ASN695  SER759  ASP760  ASP761  ALA762  ILE779  LEU786  VAL792 
 PHE793  MET794  SER795  GLU796  ALA797  LYS798  CYS799  TRP800  GLU811  SER814 

> <Gold.Protein.RotatedAtoms>
  152.1048  134.9316  160.0568 H   0  0  0  0  0  0  0  0  0  0  0  0  # atno 6907 bound_to 6896
  152.0517  133.4017  159.4388 H   0  0  0  0  0  0  0  0  0  0  0  0  # atno 6908 bound_to 6896
  150.6841  134.3221  159.4834 H   0  0  0  0  0  0  0  0  0  0  0  0  # atno 6909 bound_to 6896
  144.7638  139.8035  143.6323 H   0  0  0  0  0  0  0  0  0  0  0  0  # atno 7974 bound_to 7965
  155.3115  140.0457  157.3035 H   0  0  0  0  0  0  0  0  0  0  0  0  # atno 8008 bound_to 7997
  154.5430  140.2294  155.8576 H   0  0  0  0  0  0  0  0  0  0  0  0  # atno 8009 bound_to 7997
  156.1898  140.3053  155.9317 H   0  0  0  0  0  0  0  0  0  0  0  0  # atno 8010 bound_to 7997
  140.0952  144.4952  150.7073 H   0  0  0  0  0  0  0  0  0  0  0  0  # atno 10167 bound_to 10162
  156.6319  130.8933  151.2979 H   0  0  0  0  0  0  0  0  0  0  0  0  # atno 10718 bound_to 10713
  153.1837  135.6831  153.8444 H   0  0  0  0  0  0  0  0  0  0  0  0  # atno 10763 bound_to 10752
  153.7767  135.3188  155.3361 H   0  0  0  0  0  0  0  0  0  0  0  0  # atno 10764 bound_to 10752
  154.8075  135.4739  154.0526 H   0  0  0  0  0  0  0  0  0  0  0  0  # atno 10765 bound_to 10752
  139.9683  134.6944  156.0500 H   0  0  0  0  0  0  0  0  0  0  0  0  # atno 11005 bound_to 11000
  146.1727  139.4884  142.9917 LP  0  0  0  0  0  0  0  0  0  0  0  0  # atno 17320 bound_to 7965
  145.6534  141.0258  143.1748 LP  0  0  0  0  0  0  0  0  0  0  0  0  # atno 17321 bound_to 7965
  140.7007  143.2433  151.4872 LP  0  0  0  0  0  0  0  0  0  0  0  0  # atno 17342 bound_to 10162
  139.5702  144.1947  152.1825 LP  0  0  0  0  0  0  0  0  0  0  0  0  # atno 17343 bound_to 10162
  157.7197  130.9543  150.1391 LP  0  0  0  0  0  0  0  0  0  0  0  0  # atno 17370 bound_to 10713
  156.2228  130.3675  149.8536 LP  0  0  0  0  0  0  0  0  0  0  0  0  # atno 17371 bound_to 10713
  141.1363  133.6574  156.3602 LP  0  0  0  0  0  0  0  0  0  0  0  0  # atno 17394 bound_to 11000
  140.5349  134.6177  157.5362 LP  0  0  0  0  0  0  0  0  0  0  0  0  # atno 17395 bound_to 11000

$$$$
