AV-unprocessed.smi:1224|AV-procd|sdf|5135|dock4
  -GOLD-   22720 4193D 1   1.00000     0.00000
 Structure written by MMmdl.
 44 46  0  0  0  0  0  0  0  0  2 V2000
  152.4211  143.0922  161.0366 C   0  0  0  0  0  0  0  0  0  0  0  0
  152.1835  142.2850  159.7717 C   0  0  0  0  0  0  0  0  0  0  0  0
  151.3385  142.8252  158.7758 C   0  0  0  0  0  0  0  0  0  0  0  0
  151.1425  142.0646  157.6291 C   0  0  0  0  0  0  0  0  0  0  0  0
  150.3828  142.3125  156.4835 N   0  3  0  0  0  0  0  0  0  0  0  0
  150.5049  141.2650  155.6217 C   0  0  0  0  0  0  0  0  0  0  0  0
  151.3265  140.3499  156.2038 N   0  0  0  0  0  0  0  0  0  0  0  0
  151.7892  139.0452  155.7127 C   0  0  0  0  0  0  0  0  0  0  0  0
  151.0859  138.6108  154.4093 C   0  0  1  0  0  0  0  0  0  0  0  0
  151.4861  137.2939  154.0894 O   0  0  0  0  0  0  0  0  0  0  0  0
  149.5544  138.6269  154.5309 C   0  0  0  0  0  0  0  0  0  0  0  0
  148.9146  138.3986  153.2363 N   0  0  0  0  0  0  0  0  0  0  0  0
  147.4853  138.6983  153.2179 C   0  0  0  0  0  0  0  0  0  0  0  0
  147.1603  140.0101  153.8551 C   0  0  0  0  0  0  0  0  0  0  0  0
  146.1566  140.2850  154.7491 C   0  0  0  0  0  0  0  0  0  0  0  0
  146.1252  141.6516  155.1541 C   0  0  0  0  0  0  0  0  0  0  0  0
  147.1063  142.4027  154.5632 C   0  0  0  0  0  0  0  0  0  0  0  0
  148.0910  141.4422  153.4941 S   0  0  0  0  0  0  0  0  0  0  0  0
  151.7527  140.8078  157.4543 C   0  0  0  0  0  0  0  0  0  0  0  0
  152.5882  140.2603  158.4244 C   0  0  0  0  0  0  0  0  0  0  0  0
  152.7999  141.0183  159.5983 C   0  0  0  0  0  0  0  0  0  0  0  0
  153.7065  140.4474  160.6755 C   0  0  0  0  0  0  0  0  0  0  0  0
  151.8856  144.0417  161.0107 H   0  0  0  0  0  0  0  0  0  0  0  0
  153.4822  143.3115  161.1572 H   0  0  0  0  0  0  0  0  0  0  0  0
  152.0793  142.5408  161.9128 H   0  0  0  0  0  0  0  0  0  0  0  0
  150.8662  143.7887  158.9005 H   0  0  0  0  0  0  0  0  0  0  0  0
  150.0325  141.1746  154.6539 H   0  0  0  0  0  0  0  0  0  0  0  0
  152.8665  139.1172  155.5557 H   0  0  0  0  0  0  0  0  0  0  0  0
  151.6420  138.3107  156.5055 H   0  0  0  0  0  0  0  0  0  0  0  0
  151.3905  139.2551  153.5835 H   0  0  0  0  0  0  0  0  0  0  0  0
  151.1790  137.0911  153.2192 H   0  0  0  0  0  0  0  0  0  0  0  0
  149.2409  137.8481  155.2274 H   0  0  0  0  0  0  0  0  0  0  0  0
  149.2275  139.5753  154.9593 H   0  0  0  0  0  0  0  0  0  0  0  0
  149.0672  137.4410  152.9370 H   0  0  0  0  0  0  0  0  0  0  0  0
  147.1430  138.7267  152.1832 H   0  0  0  0  0  0  0  0  0  0  0  0
  146.9242  137.8939  153.6951 H   0  0  0  0  0  0  0  0  0  0  0  0
  145.4493  139.5586  155.1211 H   0  0  0  0  0  0  0  0  0  0  0  0
  145.3950  142.0300  155.8539 H   0  0  0  0  0  0  0  0  0  0  0  0
  147.3102  143.4557  154.6896 H   0  0  0  0  0  0  0  0  0  0  0  0
  153.0570  139.2966  158.2893 H   0  0  0  0  0  0  0  0  0  0  0  0
  154.0729  139.4565  160.4048 H   0  0  0  0  0  0  0  0  0  0  0  0
  153.1704  140.3563  161.6204 H   0  0  0  0  0  0  0  0  0  0  0  0
  154.5717  141.0928  160.8283 H   0  0  0  0  0  0  0  0  0  0  0  0
  149.8237  143.1359  156.2998 H   0  0  0  0  0  0  0  0  0  0  0  0
  1  2  1  0  0  0  0
  1 23  1  0  0  0  0
  1 24  1  0  0  0  0
  1 25  1  0  0  0  0
  2 21  1  0  0  0  0
  2  3  2  0  0  0  0
  3  4  1  0  0  0  0
  3 26  1  0  0  0  0
  4 19  2  0  0  0  0
  4  5  1  0  0  0  0
  5  6  2  0  0  0  0
  5 44  1  0  0  0  0
  6  7  1  0  0  0  0
  6 27  1  0  0  0  0
  7  8  1  0  0  0  0
  7 19  1  0  0  0  0
  8  9  1  0  0  0  0
  8 28  1  0  0  0  0
  8 29  1  0  0  0  0
  9 10  1  0  0  0  0
  9 11  1  0  0  0  0
  9 30  1  0  0  0  0
 10 31  1  0  0  0  0
 11 12  1  0  0  0  0
 11 32  1  0  0  0  0
 11 33  1  0  0  0  0
 12 13  1  0  0  0  0
 12 34  1  0  0  0  0
 13 14  1  0  0  0  0
 13 35  1  0  0  0  0
 13 36  1  0  0  0  0
 14 18  1  0  0  0  0
 14 15  2  0  0  0  0
 15 16  1  0  0  0  0
 15 37  1  0  0  0  0
 16 17  2  0  0  0  0
 16 38  1  0  0  0  0
 17 18  1  0  0  0  0
 17 39  1  0  0  0  0
 19 20  1  0  0  0  0
 20 21  2  0  0  0  0
 20 40  1  0  0  0  0
 21 22  1  0  0  0  0
 22 41  1  0  0  0  0
 22 42  1  0  0  0  0
 22 43  1  0  0  0  0
M  CHG  1   5   1
M  END
> <s_m_source_file>
AV-unprocessed.smi

> <i_m_source_file_index>
1224

> <i_lp_mmshare_version>
43012

> <i_f3d_flags>
0

> <s_epik_input>
W0NIM11jKFtjSF0xKWMoW0NIM10pW2NIXWMoYzEyKW4oW2NIXW4yKVtDSDJdW0NASF0oW09IXSlbQ0gyXVtOSF1bQ0gyXWMzW2NIXVtjSF1bY0hdczM=

> <s_epik_cmdline>
J2VwaWtfcHl0aG9uJywgJy1waCcsICc3LjAnLCAnLXRuJywgJzgnLCAnLW1hJywgJzIwMCcsICctbWV0YWxfYmluZGluZycsICctaW1hZScsICc8aW5maWxlLm1hZT4nLCAnLW9tYWUnLCAnPG91dGZpbGUubWFlPic=

> <r_epik_Ionization_Penalty>
2.3772

> <r_epik_Ionization_Penalty_Charging>
0.996291

> <r_epik_Ionization_Penalty_Neutral>
1.38091

> <r_epik_State_Penalty>
2.60954

> <r_epik_Charging_Adjusted_Penalty>
3.60583

> <i_epik_Tot_Q>
1

> <i_epik_Tot_abs_Q>
1

> <r_epik_Metal_State_Penalty>
6.5861

> <b_epik_Metal_Only>
0

> <s_lp_Force_Field>
OPLS_2005

> <r_lp_Energy>
14.7648

> <b_lp_Chiralities_Consistent>
1

> <s_lp_Variant>
AV-unprocessed.smi:1224-8

> <Gold.Version>
5.8.1

> <Gold.Id.Protein>
6NUR|6NUR_protein|mol2

> <Gold.PLP.Fitness>
62.7667

> <Gold.PLP.PLP>
-47.4680

> <Gold.PLP.part.hbond>
-4.6097

> <Gold.PLP.part.metal>
0.0000

> <Gold.PLP.part.buried>
-2.7003

> <Gold.PLP.part.nonpolar>
-39.0355

> <Gold.PLP.part.repulsive>
0.0736

> <Gold.PLP.ligand.clash>
0.0000

> <Gold.PLP.ligand.torsion>
0.3698

> <Gold.PLP.Chemscore.Hbond>
4.5704

> <Gold.PLP.Chemscore.CHOScore>
0.7507

> <Gold.PLP.Chemscore.Metal>
0.0000

> <Gold.Chemscore.Hbonds>
donor molecule, donor type, donor heavy atom, donor atom, acceptor molecule, acceptor atom, score
      L1  H     5    44       P1  8028  2.00
      L1  H    10    31       P1  7949  0.96
      L1  H    12    34       P1  7948  1.00
      P1  H 10752 10764       L1    10  0.48
      L1  C    17    39       P1  8028  0.79

> <Gold.PLP.Chemscore.Internal.Correction>
0.0752

> <Gold.Rescore>
     Score         DG    S(hbond)    S(metal)    S(lipo)     H(rot)  DE(clash)    DE(int)     intcor
     20.69     -22.40       2.48        0.00     126.25       2.40       0.30       1.41       ----

> <Gold.Chemscore.Fitness>
20.6888

> <Gold.Chemscore.DG>
-22.4007

> <Gold.Chemscore.ZeroCoef>
-5.4800

> <Gold.Chemscore.Hbond>
2.4823

> <Gold.Chemscore.Metal>
0.0000

> <Gold.Chemscore.Lipo>
126.2501

> <Gold.Chemscore.Internal_Hbond>
0.0000

> <Gold.Chemscore.DEClash>
0.3034

> <Gold.Chemscore.DEInternal>
1.4085

> <Gold.Chemscore.Rot>
2.3990

> <Gold.Chemscore.Internal.Correction>
   9.000000E+99

> <Gold.Chemscore.Hbonds>
donor molecule, donor type, donor heavy atom, donor atom, acceptor molecule, acceptor atom, score
      L1  H     5    44       P1  8028  0.99
      L1  H    10    31       P1  7949  0.48
      L1  H    12    34       P1  7948  0.94
      P1  H 10752 10764       L1    10  0.07

> <Gold.Chemscore.Hbond.Weighted>
-8.2909

> <Gold.Chemscore.Metal.Weighted>
-0.0000

> <Gold.Chemscore.Lipo.Weighted>
-14.7713

> <Gold.Chemscore.Internal_Hbond.Weighted>
0.0000

> <Gold.Chemscore.DEClash.Weighted>
0.3034

> <Gold.Chemscore.DEInternal.Weighted>
1.4085

> <Gold.Chemscore.Rot.Weighted>
6.1415

> <Gold.Chemscore.Internal.Correction.Weighted>
   9.000000E+99

> <Gold.Protein.RotatedTorsions>
[ 6907 6896 6895 6894 ] final -154.19 input  -60.11 | X-H torsion
[ 7974 7965 7964 7962 ] final  -92.29 input  175.53 | X-H torsion
[ 8008 7997 7996 7995 ] final  -64.92 input   59.86 | X-H torsion
[ 10167 10162 10161 10158 ] final  -68.59 input  -65.29 | X-H torsion
[ 10718 10713 10712 10709 ] final   85.77 input   66.30 | X-H torsion
[ 10763 10752 10751 10750 ] final  -81.65 input  -60.55 | X-H torsion
[ 11005 11000 10999 10996 ] final  -50.28 input  -57.11 | X-H torsion

> <Gold.Protein.ActiveResidues>
 VAL166  LYS551  ARG553  GLY616  TRP617  ASP618  TYR619  PRO620  LYS621  CYS622 
 ASP623  PHE694  ASN695  SER759  ASP760  ASP761  ALA762  ILE779  LEU786  VAL792 
 PHE793  MET794  SER795  GLU796  ALA797  LYS798  CYS799  TRP800  GLU811  SER814 

> <Gold.Protein.RotatedAtoms>
  151.2537  133.4337  159.2612 H   0  0  0  0  0  0  0  0  0  0  0  0  # atno 6907 bound_to 6896
  151.0594  134.9726  159.8262 H   0  0  0  0  0  0  0  0  0  0  0  0  # atno 6908 bound_to 6896
  152.5396  134.2488  159.8943 H   0  0  0  0  0  0  0  0  0  0  0  0  # atno 6909 bound_to 6896
  145.4018  140.9538  143.2283 H   0  0  0  0  0  0  0  0  0  0  0  0  # atno 7974 bound_to 7965
  154.4640  140.0944  156.6970 H   0  0  0  0  0  0  0  0  0  0  0  0  # atno 8008 bound_to 7997
  155.4911  140.3471  155.4337 H   0  0  0  0  0  0  0  0  0  0  0  0  # atno 8009 bound_to 7997
  156.0923  140.1400  156.9565 H   0  0  0  0  0  0  0  0  0  0  0  0  # atno 8010 bound_to 7997
  140.5496  143.2312  151.6937 H   0  0  0  0  0  0  0  0  0  0  0  0  # atno 10167 bound_to 10162
  157.6919  131.0188  150.2872 H   0  0  0  0  0  0  0  0  0  0  0  0  # atno 10718 bound_to 10713
  154.5661  135.5619  153.7052 H   0  0  0  0  0  0  0  0  0  0  0  0  # atno 10763 bound_to 10752
  153.0033  135.6286  154.2178 H   0  0  0  0  0  0  0  0  0  0  0  0  # atno 10764 bound_to 10752
  154.2116  135.2873  155.2936 H   0  0  0  0  0  0  0  0  0  0  0  0  # atno 10765 bound_to 10752
  141.0807  133.6654  156.3708 H   0  0  0  0  0  0  0  0  0  0  0  0  # atno 11005 bound_to 11000
  144.8369  139.5536  143.6918 LP  0  0  0  0  0  0  0  0  0  0  0  0  # atno 17320 bound_to 7965
  146.2748  139.6725  142.9270 LP  0  0  0  0  0  0  0  0  0  0  0  0  # atno 17321 bound_to 7965
  139.5021  144.3840  152.0347 LP  0  0  0  0  0  0  0  0  0  0  0  0  # atno 17342 bound_to 10162
  140.2956  144.3705  150.6075 LP  0  0  0  0  0  0  0  0  0  0  0  0  # atno 17343 bound_to 10162
  156.3409  130.3815  149.7410 LP  0  0  0  0  0  0  0  0  0  0  0  0  # atno 17370 bound_to 10713
  156.4919  130.8089  151.3098 LP  0  0  0  0  0  0  0  0  0  0  0  0  # atno 17371 bound_to 10713
  140.5475  134.6060  157.5398 LP  0  0  0  0  0  0  0  0  0  0  0  0  # atno 17394 bound_to 11000
  139.9621  134.7435  156.0216 LP  0  0  0  0  0  0  0  0  0  0  0  0  # atno 17395 bound_to 11000

$$$$
