AV-unprocessed.smi:1697|AV-procd|sdf|6810|dock10
  -GOLD-   22720 7583D 1   1.00000     0.00000
 Structure written by MMmdl.
 55 57  0  0  0  0  0  0  0  0  3 V2000
  150.3809  141.5425  157.5448 C   0  0  0  0  0  0  0  0  0  0  0  0
  150.8355  140.5246  156.4970 C   0  0  0  0  0  0  0  0  0  0  0  0
  149.9321  139.4289  156.5028 O   0  0  0  0  0  0  0  0  0  0  0  0
  150.2534  138.3918  155.5824 C   0  0  2  0  0  0  0  0  0  0  0  0
  150.5415  138.9558  154.1787 C   0  0  0  0  0  0  0  0  0  0  0  0
  149.2888  139.6040  153.5657 C   0  0  0  0  0  0  0  0  0  0  0  0
  148.1592  138.6378  153.5059 N   0  3  2  0  0  0  0  0  0  0  0  0
  146.9601  139.1722  152.8088 C   0  0  0  0  0  0  0  0  0  0  0  0
  146.1701  138.0854  152.0513 C   0  0  1  0  0  0  0  0  0  0  0  0
  146.9683  137.5883  150.9951 O   0  0  0  0  0  0  0  0  0  0  0  0
  145.7762  136.9171  152.9761 C   0  0  0  0  0  0  0  0  0  0  0  0
  145.0039  135.8765  152.2837 N   0  0  0  0  0  0  0  0  0  0  0  0
  143.8301  135.9626  151.5999 C   0  0  0  0  0  0  0  0  0  0  0  0
  143.5301  134.7151  151.1424 N   0  3  0  0  0  0  0  0  0  0  0  0
  144.5294  133.8213  151.5342 C   0  0  0  0  0  0  0  0  0  0  0  0
  144.6718  132.4567  151.3114 C   0  0  0  0  0  0  0  0  0  0  0  0
  145.8189  131.8309  151.8506 C   0  0  0  0  0  0  0  0  0  0  0  0
  146.0046  130.3400  151.6261 C   0  0  0  0  0  0  0  0  0  0  0  0
  146.7785  132.5739  152.5860 C   0  0  0  0  0  0  0  0  0  0  0  0
  148.0078  131.8911  153.1613 C   0  0  0  0  0  0  0  0  0  0  0  0
  146.6162  133.9613  152.8009 C   0  0  0  0  0  0  0  0  0  0  0  0
  145.4795  134.5611  152.2645 C   0  0  0  0  0  0  0  0  0  0  0  0
  147.8310  138.1024  154.8526 C   0  0  0  0  0  0  0  0  0  0  0  0
  149.0541  137.4348  155.5069 C   0  0  0  0  0  0  0  0  0  0  0  0
  151.0528  142.4006  157.5713 H   0  0  0  0  0  0  0  0  0  0  0  0
  150.3653  141.0995  158.5408 H   0  0  0  0  0  0  0  0  0  0  0  0
  149.3781  141.9090  157.3243 H   0  0  0  0  0  0  0  0  0  0  0  0
  150.8663  141.0007  155.5174 H   0  0  0  0  0  0  0  0  0  0  0  0
  151.8446  140.1815  156.7293 H   0  0  0  0  0  0  0  0  0  0  0  0
  151.1179  137.8339  155.9463 H   0  0  0  0  0  0  0  0  0  0  0  0
  151.3593  139.6751  154.2051 H   0  0  0  0  0  0  0  0  0  0  0  0
  150.8788  138.1466  153.5295 H   0  0  0  0  0  0  0  0  0  0  0  0
  148.9935  140.4769  154.1503 H   0  0  0  0  0  0  0  0  0  0  0  0
  149.5392  139.9649  152.5694 H   0  0  0  0  0  0  0  0  0  0  0  0
  146.2914  139.6396  153.5335 H   0  0  0  0  0  0  0  0  0  0  0  0
  147.2689  139.9657  152.1263 H   0  0  0  0  0  0  0  0  0  0  0  0
  145.2638  138.5062  151.6188 H   0  0  0  0  0  0  0  0  0  0  0  0
  147.4786  136.8616  151.3202 H   0  0  0  0  0  0  0  0  0  0  0  0
  146.6660  136.4434  153.3939 H   0  0  0  0  0  0  0  0  0  0  0  0
  145.1879  137.2708  153.8239 H   0  0  0  0  0  0  0  0  0  0  0  0
  143.2415  136.8566  151.4500 H   0  0  0  0  0  0  0  0  0  0  0  0
  143.9377  131.8973  150.7499 H   0  0  0  0  0  0  0  0  0  0  0  0
  146.0027  129.8072  152.5774 H   0  0  0  0  0  0  0  0  0  0  0  0
  146.9493  130.1422  151.1193 H   0  0  0  0  0  0  0  0  0  0  0  0
  145.2052  129.9265  151.0102 H   0  0  0  0  0  0  0  0  0  0  0  0
  148.6324  132.5931  153.7146 H   0  0  0  0  0  0  0  0  0  0  0  0
  148.6157  131.4619  152.3643 H   0  0  0  0  0  0  0  0  0  0  0  0
  147.7186  131.0927  153.8450 H   0  0  0  0  0  0  0  0  0  0  0  0
  147.3471  134.5270  153.3593 H   0  0  0  0  0  0  0  0  0  0  0  0
  147.4576  138.9099  155.4846 H   0  0  0  0  0  0  0  0  0  0  0  0
  147.0286  137.3682  154.7716 H   0  0  0  0  0  0  0  0  0  0  0  0
  149.3324  136.5505  154.9320 H   0  0  0  0  0  0  0  0  0  0  0  0
  148.7961  137.0807  156.5056 H   0  0  0  0  0  0  0  0  0  0  0  0
  148.4725  137.8482  152.9588 H   0  0  0  0  0  0  0  0  0  0  0  0
  142.7047  134.4935  150.6000 H   0  0  0  0  0  0  0  0  0  0  0  0
  1  2  1  0  0  0  0
  1 25  1  0  0  0  0
  1 26  1  0  0  0  0
  1 27  1  0  0  0  0
  2  3  1  0  0  0  0
  2 28  1  0  0  0  0
  2 29  1  0  0  0  0
  3  4  1  0  0  0  0
  4 24  1  0  0  0  0
  4  5  1  0  0  0  0
  4 30  1  0  0  0  0
  5  6  1  0  0  0  0
  5 31  1  0  0  0  0
  5 32  1  0  0  0  0
  6  7  1  0  0  0  0
  6 33  1  0  0  0  0
  6 34  1  0  0  0  0
  7  8  1  0  0  0  0
  7 23  1  0  0  0  0
  7 54  1  0  0  0  0
  8  9  1  0  0  0  0
  8 35  1  0  0  0  0
  8 36  1  0  0  0  0
  9 10  1  0  0  0  0
  9 11  1  0  0  0  0
  9 37  1  0  0  0  0
 10 38  1  0  0  0  0
 11 12  1  0  0  0  0
 11 39  1  0  0  0  0
 11 40  1  0  0  0  0
 12 22  1  0  0  0  0
 12 13  1  0  0  0  0
 13 14  2  0  0  0  0
 13 41  1  0  0  0  0
 14 15  1  0  0  0  0
 14 55  1  0  0  0  0
 15 22  2  0  0  0  0
 15 16  1  0  0  0  0
 16 17  2  0  0  0  0
 16 42  1  0  0  0  0
 17 18  1  0  0  0  0
 17 19  1  0  0  0  0
 18 43  1  0  0  0  0
 18 44  1  0  0  0  0
 18 45  1  0  0  0  0
 19 20  1  0  0  0  0
 19 21  2  0  0  0  0
 20 46  1  0  0  0  0
 20 47  1  0  0  0  0
 20 48  1  0  0  0  0
 21 22  1  0  0  0  0
 21 49  1  0  0  0  0
 23 24  1  0  0  0  0
 23 50  1  0  0  0  0
 23 51  1  0  0  0  0
 24 52  1  0  0  0  0
 24 53  1  0  0  0  0
M  CHG  1   7   1
M  CHG  1  14   1
M  END
> <s_m_source_file>
AV-unprocessed.smi

> <i_m_source_file_index>
1697

> <i_lp_mmshare_version>
43012

> <i_f3d_flags>
0

> <s_epik_input>
W0NIM11bQ0gyXU9bQ0hdMVtDSDJdW0NIMl1OKFtDSDJdW0NIMl0xKVtDSDJdW0NASF0oW09IXSlbQ0gyXW4oW2NIXW4yKWMoYzIzKVtjSF1jKFtDSDNdKWMoW2NIXTMpW0NIM10=

> <s_epik_cmdline>
J2VwaWtfcHl0aG9uJywgJy1waCcsICc3LjAnLCAnLXRuJywgJzgnLCAnLW1hJywgJzIwMCcsICctbWV0YWxfYmluZGluZycsICctaW1hZScsICc8aW5maWxlLm1hZT4nLCAnLW9tYWUnLCAnPG91dGZpbGUubWFlPic=

> <r_epik_Ionization_Penalty>
1.20016

> <r_epik_Ionization_Penalty_Charging>
1.20016

> <r_epik_Ionization_Penalty_Neutral>
1.70998e-06

> <r_epik_State_Penalty>
1.27959

> <r_epik_Charging_Adjusted_Penalty>
2.47975

> <i_epik_Tot_Q>
2

> <i_epik_Tot_abs_Q>
2

> <r_epik_Metal_State_Penalty>
5.29682

> <b_epik_Metal_Only>
0

> <s_lp_Force_Field>
OPLS_2005

> <r_lp_Energy>
32.2175

> <b_lp_Chiralities_Consistent>
1

> <s_lp_Variant>
AV-unprocessed.smi:1697-8

> <Gold.Version>
5.8.1

> <Gold.Id.Protein>
6NUR|6NUR_protein|mol2

> <Gold.PLP.Fitness>
55.4970

> <Gold.PLP.PLP>
-37.1664

> <Gold.PLP.part.hbond>
-4.8339

> <Gold.PLP.part.metal>
0.0000

> <Gold.PLP.part.buried>
1.8430

> <Gold.PLP.part.nonpolar>
-34.2414

> <Gold.PLP.part.repulsive>
0.0375

> <Gold.PLP.ligand.clash>
0.0000

> <Gold.PLP.ligand.torsion>
0.4398

> <Gold.PLP.Chemscore.Hbond>
5.4920

> <Gold.PLP.Chemscore.CHOScore>
0.8936

> <Gold.PLP.Chemscore.Metal>
0.0000

> <Gold.Chemscore.Hbonds>
donor molecule, donor type, donor heavy atom, donor atom, acceptor molecule, acceptor atom, score
      L1  H     7    54       P1  7948  2.00
      L1  H    10    38       P1  7948  0.99
      L1  H    14    55       P1 10186  2.00
      P1  H  7954  7966       L1    10  0.40
      L1  C    13    41       P1 10171  0.86

> <Gold.PLP.Chemscore.Internal.Correction>
0.0534

> <Gold.Rescore>
     Score         DG    S(hbond)    S(metal)    S(lipo)     H(rot)  DE(clash)    DE(int)     intcor
     18.54     -21.06       2.70        0.00     107.52       2.35       2.01       0.50       ----

> <Gold.Chemscore.Fitness>
18.5448

> <Gold.Chemscore.DG>
-21.0601

> <Gold.Chemscore.ZeroCoef>
-5.4800

> <Gold.Chemscore.Hbond>
2.6971

> <Gold.Chemscore.Metal>
0.0000

> <Gold.Chemscore.Lipo>
107.5169

> <Gold.Chemscore.Internal_Hbond>
0.0000

> <Gold.Chemscore.DEClash>
2.0128

> <Gold.Chemscore.DEInternal>
0.5025

> <Gold.Chemscore.Rot>
2.3468

> <Gold.Chemscore.Internal.Correction>
   9.000000E+99

> <Gold.Chemscore.Hbonds>
donor molecule, donor type, donor heavy atom, donor atom, acceptor molecule, acceptor atom, score
      L1  H     7    54       P1  7948  0.97
      L1  H    10    38       P1  7948  0.94
      L1  H    14    55       P1 10186  0.34
      P1  H  7954  7966       L1    10  0.01

> <Gold.Chemscore.Hbond.Weighted>
-9.0083

> <Gold.Chemscore.Metal.Weighted>
-0.0000

> <Gold.Chemscore.Lipo.Weighted>
-12.5795

> <Gold.Chemscore.Internal_Hbond.Weighted>
0.0000

> <Gold.Chemscore.DEClash.Weighted>
2.0128

> <Gold.Chemscore.DEInternal.Weighted>
0.5025

> <Gold.Chemscore.Rot.Weighted>
6.0077

> <Gold.Chemscore.Internal.Correction.Weighted>
   9.000000E+99

> <Gold.Protein.RotatedTorsions>
[ 6907 6896 6895 6894 ] final  -50.85 input  -60.11 | X-H torsion
[ 7974 7965 7964 7962 ] final  -11.42 input  175.53 | X-H torsion
[ 8008 7997 7996 7995 ] final  165.79 input   59.86 | X-H torsion
[ 10167 10162 10161 10158 ] final   53.75 input  -65.29 | X-H torsion
[ 10718 10713 10712 10709 ] final   -1.18 input   66.30 | X-H torsion
[ 10763 10752 10751 10750 ] final   80.25 input  -60.55 | X-H torsion
[ 11005 11000 10999 10996 ] final   31.02 input  -57.11 | X-H torsion

> <Gold.Protein.ActiveResidues>
 VAL166  LYS551  ARG553  GLY616  TRP617  ASP618  TYR619  PRO620  LYS621  CYS622 
 ASP623  PHE694  ASN695  SER759  ASP760  ASP761  ALA762  ILE779  LEU786  VAL792 
 PHE793  MET794  SER795  GLU796  ALA797  LYS798  CYS799  TRP800  GLU811  SER814 

> <Gold.Protein.RotatedAtoms>
  150.8667  134.8032  159.7123 H   0  0  0  0  0  0  0  0  0  0  0  0  # atno 6907 bound_to 6896
  152.4686  134.5012  159.9735 H   0  0  0  0  0  0  0  0  0  0  0  0  # atno 6908 bound_to 6896
  151.5107  133.3447  159.2920 H   0  0  0  0  0  0  0  0  0  0  0  0  # atno 6909 bound_to 6896
  146.2188  140.2908  142.8368 H   0  0  0  0  0  0  0  0  0  0  0  0  # atno 7974 bound_to 7965
  156.1772  140.1661  156.8341 H   0  0  0  0  0  0  0  0  0  0  0  0  # atno 8008 bound_to 7997
  154.5320  140.0755  156.8395 H   0  0  0  0  0  0  0  0  0  0  0  0  # atno 8009 bound_to 7997
  155.3388  140.3383  155.4241 H   0  0  0  0  0  0  0  0  0  0  0  0  # atno 8010 bound_to 7997
  140.2375  144.3620  150.6392 H   0  0  0  0  0  0  0  0  0  0  0  0  # atno 10167 bound_to 10162
  156.8094  130.5419  149.5711 H   0  0  0  0  0  0  0  0  0  0  0  0  # atno 10718 bound_to 10713
  153.1018  135.4809  154.8881 H   0  0  0  0  0  0  0  0  0  0  0  0  # atno 10763 bound_to 10752
  154.7387  135.3077  154.8768 H   0  0  0  0  0  0  0  0  0  0  0  0  # atno 10764 bound_to 10752
  153.9382  135.6837  153.4798 H   0  0  0  0  0  0  0  0  0  0  0  0  # atno 10765 bound_to 10752
  140.2883  134.2894  155.7782 H   0  0  0  0  0  0  0  0  0  0  0  0  # atno 11005 bound_to 11000
  144.9128  140.7777  143.5797 LP  0  0  0  0  0  0  0  0  0  0  0  0  # atno 17320 bound_to 7965
  145.2840  139.1908  143.4776 LP  0  0  0  0  0  0  0  0  0  0  0  0  # atno 17321 bound_to 7965
  140.6139  143.2171  151.6831 LP  0  0  0  0  0  0  0  0  0  0  0  0  # atno 17342 bound_to 10162
  139.5089  144.3596  152.0574 LP  0  0  0  0  0  0  0  0  0  0  0  0  # atno 17343 bound_to 10162
  156.1053  130.6000  150.9961 LP  0  0  0  0  0  0  0  0  0  0  0  0  # atno 17370 bound_to 10713
  157.6513  131.0896  150.8044 LP  0  0  0  0  0  0  0  0  0  0  0  0  # atno 17371 bound_to 10713
  141.2151  133.7569  156.9585 LP  0  0  0  0  0  0  0  0  0  0  0  0  # atno 17394 bound_to 11000
  140.1219  134.9411  157.2216 LP  0  0  0  0  0  0  0  0  0  0  0  0  # atno 17395 bound_to 11000

$$$$
