AV-unprocessed.smi:2715|AV-procd|sdf|10482|dock1
  -GOLD-   2272014523D 1   1.00000     0.00000
 Structure written by MMmdl.
 38 39  0  0  0  0  0  0  0  0  1 V2000
  148.3764  135.9024  160.5605 C   0  0  0  0  0  0  0  0  0  0  0  0
  149.4838  136.7897  160.1057 C   0  0  0  0  0  0  0  0  0  0  0  0
  150.7753  136.5304  160.3254 N   0  0  0  0  0  0  0  0  0  0  0  0
  151.6199  137.5168  159.8040 C   0  0  0  0  0  0  0  0  0  0  0  0
  153.1079  137.3917  159.9628 C   0  0  0  0  0  0  0  0  0  0  0  0
  153.8017  138.6906  159.5495 C   0  0  0  0  0  0  0  0  0  0  0  0
  154.5380  138.7058  158.5636 O   0  0  0  0  0  0  0  0  0  0  0  0
  153.5670  139.7657  160.3192 N   0  0  0  0  0  0  0  0  0  0  0  0
  154.1378  141.0961  160.1286 C   0  0  0  0  0  0  0  0  0  0  0  0
  153.4256  142.1514  160.9945 C   0  0  0  0  0  0  0  0  0  0  0  0
  152.6378  143.1707  160.1863 C   0  0  0  0  0  0  0  0  0  0  0  0
  152.4952  143.0657  158.8505 C   0  0  0  0  0  0  0  0  0  0  0  0
  151.6859  144.0302  158.0017 C   0  0  0  0  0  0  0  0  0  0  0  0
  150.7659  144.9225  158.8515 C   0  0  0  0  0  0  0  0  0  0  0  0
  151.5025  145.4571  160.0859 C   0  0  0  0  0  0  0  0  0  0  0  0
  152.0044  144.3087  160.9794 C   0  0  0  0  0  0  0  0  0  0  0  0
  150.9409  138.5300  159.1727 C   0  0  0  0  0  0  0  0  0  0  0  0
  149.2168  138.2857  159.2192 S   0  0  0  0  0  0  0  0  0  0  0  0
  148.7413  135.1726  161.2842 H   0  0  0  0  0  0  0  0  0  0  0  0
  147.9529  135.3700  159.7088 H   0  0  0  0  0  0  0  0  0  0  0  0
  147.5910  136.4953  161.0294 H   0  0  0  0  0  0  0  0  0  0  0  0
  153.3740  137.1573  160.9945 H   0  0  0  0  0  0  0  0  0  0  0  0
  153.4884  136.5707  159.3538 H   0  0  0  0  0  0  0  0  0  0  0  0
  152.9438  139.6500  161.1054 H   0  0  0  0  0  0  0  0  0  0  0  0
  155.2124  141.1002  160.3175 H   0  0  0  0  0  0  0  0  0  0  0  0
  154.0184  141.3558  159.0768 H   0  0  0  0  0  0  0  0  0  0  0  0
  152.7427  141.6588  161.6873 H   0  0  0  0  0  0  0  0  0  0  0  0
  154.1619  142.6662  161.6133 H   0  0  0  0  0  0  0  0  0  0  0  0
  152.9714  142.2531  158.3213 H   0  0  0  0  0  0  0  0  0  0  0  0
  152.3818  144.6415  157.4266 H   0  0  0  0  0  0  0  0  0  0  0  0
  151.0915  143.4640  157.2843 H   0  0  0  0  0  0  0  0  0  0  0  0
  150.3839  145.7467  158.2486 H   0  0  0  0  0  0  0  0  0  0  0  0
  149.8978  144.3466  159.1756 H   0  0  0  0  0  0  0  0  0  0  0  0
  152.3498  146.0632  159.7621 H   0  0  0  0  0  0  0  0  0  0  0  0
  150.8528  146.1178  160.6603 H   0  0  0  0  0  0  0  0  0  0  0  0
  151.1732  143.9042  161.5568 H   0  0  0  0  0  0  0  0  0  0  0  0
  152.7252  144.6978  161.6990 H   0  0  0  0  0  0  0  0  0  0  0  0
  151.3503  139.4041  158.6882 H   0  0  0  0  0  0  0  0  0  0  0  0
  1  2  1  0  0  0  0
  1 19  1  0  0  0  0
  1 20  1  0  0  0  0
  1 21  1  0  0  0  0
  2 18  1  0  0  0  0
  2  3  2  0  0  0  0
  3  4  1  0  0  0  0
  4  5  1  0  0  0  0
  4 17  2  0  0  0  0
  5  6  1  0  0  0  0
  5 22  1  0  0  0  0
  5 23  1  0  0  0  0
  6  7  2  0  0  0  0
  6  8  1  0  0  0  0
  8  9  1  0  0  0  0
  8 24  1  0  0  0  0
  9 10  1  0  0  0  0
  9 25  1  0  0  0  0
  9 26  1  0  0  0  0
 10 11  1  0  0  0  0
 10 27  1  0  0  0  0
 10 28  1  0  0  0  0
 11 16  1  0  0  0  0
 11 12  2  0  0  0  0
 12 13  1  0  0  0  0
 12 29  1  0  0  0  0
 13 14  1  0  0  0  0
 13 30  1  0  0  0  0
 13 31  1  0  0  0  0
 14 15  1  0  0  0  0
 14 32  1  0  0  0  0
 14 33  1  0  0  0  0
 15 16  1  0  0  0  0
 15 34  1  0  0  0  0
 15 35  1  0  0  0  0
 16 36  1  0  0  0  0
 16 37  1  0  0  0  0
 17 18  1  0  0  0  0
 17 38  1  0  0  0  0
M  END
> <s_m_source_file>
AV-unprocessed.smi

> <i_m_source_file_index>
2715

> <i_lp_mmshare_version>
43012

> <i_f3d_flags>
0

> <s_epik_input>
W0NIM11jMW5jKFtjSF1zMSlbQ0gyXUMoPU8pW05IXVtDSDJdW0NIMl1DMj1bQ0hdW0NIMl1bQ0gyXVtDSDJdW0NIMl0y

> <s_epik_cmdline>
J2VwaWtfcHl0aG9uJywgJy1waCcsICc3LjAnLCAnLXRuJywgJzgnLCAnLW1hJywgJzIwMCcsICctbWV0YWxfYmluZGluZycsICctaW1hZScsICc8aW5maWxlLm1hZT4nLCAnLW9tYWUnLCAnPG91dGZpbGUubWFlPic=

> <r_lp_tautomer_probability>
1

> <r_epik_Ionization_Penalty>
5.73492e-05

> <r_epik_Ionization_Penalty_Charging>
0

> <r_epik_Ionization_Penalty_Neutral>
5.73492e-05

> <r_epik_State_Penalty>
-0

> <r_epik_Charging_Adjusted_Penalty>
0

> <i_epik_Tot_Q>
0

> <i_epik_Tot_abs_Q>
0

> <r_epik_Metal_State_Penalty>
-0

> <b_epik_Metal_Only>
0

> <s_lp_Force_Field>
OPLS_2005

> <r_lp_Energy>
6.36926

> <b_lp_Chiralities_Consistent>
1

> <s_lp_Variant>
AV-unprocessed.smi:2715-1

> <Gold.Version>
5.8.1

> <Gold.Id.Protein>
6NUR|6NUR_protein|mol2

> <Gold.PLP.Fitness>
49.9473

> <Gold.PLP.PLP>
-45.0844

> <Gold.PLP.part.hbond>
-2.0000

> <Gold.PLP.part.metal>
0.0000

> <Gold.PLP.part.buried>
-5.7015

> <Gold.PLP.part.nonpolar>
-37.2637

> <Gold.PLP.part.repulsive>
0.0723

> <Gold.PLP.ligand.clash>
0.0000

> <Gold.PLP.ligand.torsion>
0.5980

> <Gold.PLP.Chemscore.Hbond>
2.0000

> <Gold.PLP.Chemscore.CHOScore>
0.0000

> <Gold.PLP.Chemscore.Metal>
0.0000

> <Gold.Chemscore.Hbonds>
donor molecule, donor type, donor heavy atom, donor atom, acceptor molecule, acceptor atom, score
      P1  H  6896  6908       L1     3  1.00
      P1  H  7997  8010       L1     7  1.00

> <Gold.PLP.Chemscore.Internal.Correction>
0.0589

> <Gold.Rescore>
     Score         DG    S(hbond)    S(metal)    S(lipo)     H(rot)  DE(clash)    DE(int)     intcor
     22.23     -22.84       1.97        0.00     124.79       1.50       0.06       0.55       ----

> <Gold.Chemscore.Fitness>
22.2255

> <Gold.Chemscore.DG>
-22.8354

> <Gold.Chemscore.ZeroCoef>
-5.4800

> <Gold.Chemscore.Hbond>
1.9719

> <Gold.Chemscore.Metal>
0.0000

> <Gold.Chemscore.Lipo>
124.7900

> <Gold.Chemscore.Internal_Hbond>
0.0000

> <Gold.Chemscore.DEClash>
0.0618

> <Gold.Chemscore.DEInternal>
0.5481

> <Gold.Chemscore.Rot>
1.4965

> <Gold.Chemscore.Internal.Correction>
   9.000000E+99

> <Gold.Chemscore.Hbonds>
donor molecule, donor type, donor heavy atom, donor atom, acceptor molecule, acceptor atom, score
      P1  H  6896  6908       L1     3  0.66
      P1  H  7997  8010       L1     7  1.00

> <Gold.Chemscore.Hbond.Weighted>
-6.5860

> <Gold.Chemscore.Metal.Weighted>
-0.0000

> <Gold.Chemscore.Lipo.Weighted>
-14.6004

> <Gold.Chemscore.Internal_Hbond.Weighted>
0.0000

> <Gold.Chemscore.DEClash.Weighted>
0.0618

> <Gold.Chemscore.DEInternal.Weighted>
0.5481

> <Gold.Chemscore.Rot.Weighted>
3.8311

> <Gold.Chemscore.Internal.Correction.Weighted>
   9.000000E+99

> <Gold.Protein.RotatedTorsions>
[ 6907 6896 6895 6894 ] final -145.05 input  -60.11 | X-H torsion
[ 7974 7965 7964 7962 ] final  -58.71 input  175.53 | X-H torsion
[ 8008 7997 7996 7995 ] final   -1.62 input   59.86 | X-H torsion
[ 10167 10162 10161 10158 ] final   26.98 input  -65.29 | X-H torsion
[ 10718 10713 10712 10709 ] final   20.15 input   66.30 | X-H torsion
[ 10763 10752 10751 10750 ] final  -50.23 input  -60.55 | X-H torsion
[ 11005 11000 10999 10996 ] final   73.54 input  -57.11 | X-H torsion

> <Gold.Protein.ActiveResidues>
 VAL166  LYS551  ARG553  GLY616  TRP617  ASP618  TYR619  PRO620  LYS621  CYS622 
 ASP623  PHE694  ASN695  SER759  ASP760  ASP761  ALA762  ILE779  LEU786  VAL792 
 PHE793  MET794  SER795  GLU796  ALA797  LYS798  CYS799  TRP800  GLU811  SER814 

> <Gold.Protein.RotatedAtoms>
  151.1224  133.5094  159.2601 H   0  0  0  0  0  0  0  0  0  0  0  0  # atno 6907 bound_to 6896
  151.1847  135.0376  159.8817 H   0  0  0  0  0  0  0  0  0  0  0  0  # atno 6908 bound_to 6896
  152.5456  134.1072  159.8396 H   0  0  0  0  0  0  0  0  0  0  0  0  # atno 6909 bound_to 6896
  145.8361  140.8448  143.0059 H   0  0  0  0  0  0  0  0  0  0  0  0  # atno 7974 bound_to 7965
  154.6448  140.2555  155.7280 H   0  0  0  0  0  0  0  0  0  0  0  0  # atno 8008 bound_to 7997
  156.2547  140.2880  156.0778 H   0  0  0  0  0  0  0  0  0  0  0  0  # atno 8009 bound_to 7997
  155.1541  140.0383  157.2818 H   0  0  0  0  0  0  0  0  0  0  0  0  # atno 8010 bound_to 7997
  140.4977  144.0365  150.6321 H   0  0  0  0  0  0  0  0  0  0  0  0  # atno 10167 bound_to 10162
  157.1205  130.6547  149.5922 H   0  0  0  0  0  0  0  0  0  0  0  0  # atno 10718 bound_to 10713
  154.1070  135.6555  153.4878 H   0  0  0  0  0  0  0  0  0  0  0  0  # atno 10763 bound_to 10752
  153.0269  135.5238  154.7230 H   0  0  0  0  0  0  0  0  0  0  0  0  # atno 10764 bound_to 10752
  154.6398  135.2987  155.0086 H   0  0  0  0  0  0  0  0  0  0  0  0  # atno 10765 bound_to 10752
  139.9435  134.7356  156.1039 H   0  0  0  0  0  0  0  0  0  0  0  0  # atno 11005 bound_to 11000
  144.6736  140.0743  143.7472 LP  0  0  0  0  0  0  0  0  0  0  0  0  # atno 17320 bound_to 7965
  145.9517  139.2738  143.1208 LP  0  0  0  0  0  0  0  0  0  0  0  0  # atno 17321 bound_to 7965
  140.3652  143.2885  152.0339 LP  0  0  0  0  0  0  0  0  0  0  0  0  # atno 17342 bound_to 10162
  139.4865  144.6272  151.7140 LP  0  0  0  0  0  0  0  0  0  0  0  0  # atno 17343 bound_to 10162
  155.9829  130.4846  150.6908 LP  0  0  0  0  0  0  0  0  0  0  0  0  # atno 17370 bound_to 10713
  157.4480  131.0869  151.0875 LP  0  0  0  0  0  0  0  0  0  0  0  0  # atno 17371 bound_to 10713
  141.1077  133.6654  156.2904 LP  0  0  0  0  0  0  0  0  0  0  0  0  # atno 17394 bound_to 11000
  140.5893  134.5667  157.5496 LP  0  0  0  0  0  0  0  0  0  0  0  0  # atno 17395 bound_to 11000

$$$$
