AV-unprocessed.smi:356|AV-procd|sdf|2414|dock4
  -GOLD-   2262022343D 1   1.00000     0.00000
 Structure written by MMmdl.
 43 45  0  0  0  0  0  0  0  0  3 V2000
  149.3661  141.1506  155.2536 C   0  0  0  0  0  0  0  0  0  0  0  0
  150.2743  141.7206  156.2911 C   0  0  0  0  0  0  0  0  0  0  0  0
  150.4673  143.0457  156.5450 N   0  3  0  0  0  0  0  0  0  0  0  0
  151.3844  143.1987  157.5855 C   0  0  0  0  0  0  0  0  0  0  0  0
  151.8923  144.3433  158.1923 C   0  0  0  0  0  0  0  0  0  0  0  0
  152.8190  144.1471  159.2373 C   0  0  0  0  0  0  0  0  0  0  0  0
  153.2075  142.8531  159.6413 C   0  0  0  0  0  0  0  0  0  0  0  0
  152.6867  141.6999  159.0177 C   0  0  0  0  0  0  0  0  0  0  0  0
  151.7708  141.9031  157.9859 C   0  0  0  0  0  0  0  0  0  0  0  0
  151.0636  141.0237  157.1586 N   0  0  0  0  0  0  0  0  0  0  0  0
  151.2486  139.5736  157.3244 C   0  0  0  0  0  0  0  0  0  0  0  0
  152.6164  139.0773  156.8131 C   0  0  2  0  0  0  0  0  0  0  0  0
  152.8234  139.5668  155.5014 O   0  0  0  0  0  0  0  0  0  0  0  0
  152.6847  137.5364  156.7967 C   0  0  0  0  0  0  0  0  0  0  0  0
  153.6645  136.9827  157.7667 N   0  3  0  0  0  0  0  0  0  0  0  0
  153.3114  137.2368  159.1862 C   0  0  0  0  0  0  0  0  0  0  0  0
  154.3904  136.6618  160.1199 C   0  0  0  0  0  0  0  0  0  0  0  0
  154.5507  135.2717  159.8675 O   0  0  0  0  0  0  0  0  0  0  0  0
  154.9764  135.0197  158.5344 C   0  0  0  0  0  0  0  0  0  0  0  0
  153.9152  135.5377  157.5492 C   0  0  0  0  0  0  0  0  0  0  0  0
  148.8700  141.9475  154.6993 H   0  0  0  0  0  0  0  0  0  0  0  0
  148.6038  140.5275  155.7217 H   0  0  0  0  0  0  0  0  0  0  0  0
  149.9327  140.5404  154.5500 H   0  0  0  0  0  0  0  0  0  0  0  0
  151.5956  145.3356  157.8854 H   0  0  0  0  0  0  0  0  0  0  0  0
  153.2394  145.0065  159.7395 H   0  0  0  0  0  0  0  0  0  0  0  0
  153.9192  142.7432  160.4467 H   0  0  0  0  0  0  0  0  0  0  0  0
  152.9898  140.7136  159.3357 H   0  0  0  0  0  0  0  0  0  0  0  0
  151.1144  139.3292  158.3789 H   0  0  0  0  0  0  0  0  0  0  0  0
  150.4399  139.0730  156.7903 H   0  0  0  0  0  0  0  0  0  0  0  0
  153.3948  139.4884  157.4545 H   0  0  0  0  0  0  0  0  0  0  0  0
  152.1759  139.1891  154.9265 H   0  0  0  0  0  0  0  0  0  0  0  0
  151.7014  137.1100  157.0024 H   0  0  0  0  0  0  0  0  0  0  0  0
  152.9489  137.2136  155.7880 H   0  0  0  0  0  0  0  0  0  0  0  0
  153.2108  138.3049  159.3738 H   0  0  0  0  0  0  0  0  0  0  0  0
  152.3462  136.7805  159.4111 H   0  0  0  0  0  0  0  0  0  0  0  0
  155.3408  137.1809  159.9837 H   0  0  0  0  0  0  0  0  0  0  0  0
  154.0991  136.7999  161.1613 H   0  0  0  0  0  0  0  0  0  0  0  0
  155.9427  135.4931  158.3521 H   0  0  0  0  0  0  0  0  0  0  0  0
  155.1183  133.9466  158.4050 H   0  0  0  0  0  0  0  0  0  0  0  0
  152.9847  134.9812  157.6755 H   0  0  0  0  0  0  0  0  0  0  0  0
  154.2539  135.3693  156.5260 H   0  0  0  0  0  0  0  0  0  0  0  0
  154.5430  137.4484  157.5891 H   0  0  0  0  0  0  0  0  0  0  0  0
  150.0025  143.7903  156.0413 H   0  0  0  0  0  0  0  0  0  0  0  0
  1  2  1  0  0  0  0
  1 21  1  0  0  0  0
  1 22  1  0  0  0  0
  1 23  1  0  0  0  0
  2 10  1  0  0  0  0
  2  3  2  0  0  0  0
  3  4  1  0  0  0  0
  3 43  1  0  0  0  0
  4  9  2  0  0  0  0
  4  5  1  0  0  0  0
  5  6  2  0  0  0  0
  5 24  1  0  0  0  0
  6  7  1  0  0  0  0
  6 25  1  0  0  0  0
  7  8  2  0  0  0  0
  7 26  1  0  0  0  0
  8  9  1  0  0  0  0
  8 27  1  0  0  0  0
  9 10  1  0  0  0  0
 10 11  1  0  0  0  0
 11 12  1  0  0  0  0
 11 28  1  0  0  0  0
 11 29  1  0  0  0  0
 12 13  1  0  0  0  0
 12 14  1  0  0  0  0
 12 30  1  0  0  0  0
 13 31  1  0  0  0  0
 14 15  1  0  0  0  0
 14 32  1  0  0  0  0
 14 33  1  0  0  0  0
 15 20  1  0  0  0  0
 15 16  1  0  0  0  0
 15 42  1  0  0  0  0
 16 17  1  0  0  0  0
 16 34  1  0  0  0  0
 16 35  1  0  0  0  0
 17 18  1  0  0  0  0
 17 36  1  0  0  0  0
 17 37  1  0  0  0  0
 18 19  1  0  0  0  0
 19 20  1  0  0  0  0
 19 38  1  0  0  0  0
 19 39  1  0  0  0  0
 20 40  1  0  0  0  0
 20 41  1  0  0  0  0
M  CHG  1   3   1
M  CHG  1  15   1
M  END
> <s_m_source_file>
AV-unprocessed.smi

> <i_m_source_file_index>
356

> <i_lp_mmshare_version>
43012

> <i_f3d_flags>
0

> <s_epik_input>
W2NIXTFbY0hdW2NIXVtjSF1jKGMxMiluKGMobjIpW0NIM10pW0NIMl1bQ0BIXShbT0hdKVtDSDJdTjNbQ0gyXVtDSDJdT1tDSDJdW0NIMl0z

> <s_epik_cmdline>
J2VwaWtfcHl0aG9uJywgJy1waCcsICc3LjAnLCAnLXRuJywgJzgnLCAnLW1hJywgJzIwMCcsICctbWV0YWxfYmluZGluZycsICctaW1hZScsICc8aW5maWxlLm1hZT4nLCAnLW9tYWUnLCAnPG91dGZpbGUubWFlPic=

> <r_epik_Ionization_Penalty>
1.81899

> <r_epik_Ionization_Penalty_Charging>
1.81898

> <r_epik_Ionization_Penalty_Neutral>
1.42224e-05

> <r_epik_State_Penalty>
1.87399

> <r_epik_Charging_Adjusted_Penalty>
3.69296

> <i_epik_Tot_Q>
2

> <i_epik_Tot_abs_Q>
2

> <r_epik_Metal_State_Penalty>
5.87601

> <b_epik_Metal_Only>
0

> <s_lp_Force_Field>
OPLS_2005

> <r_lp_Energy>
28.369

> <b_lp_Chiralities_Consistent>
1

> <s_lp_Variant>
AV-unprocessed.smi:356-7

> <Gold.Version>
5.8.1

> <Gold.Id.Protein>
6NUR|6NUR_protein|mol2

> <Gold.PLP.Fitness>
47.0854

> <Gold.PLP.PLP>
-37.0042

> <Gold.PLP.part.hbond>
-2.7219

> <Gold.PLP.part.metal>
0.0000

> <Gold.PLP.part.buried>
-2.7941

> <Gold.PLP.part.nonpolar>
-31.9870

> <Gold.PLP.part.repulsive>
0.2249

> <Gold.PLP.ligand.clash>
0.0000

> <Gold.PLP.ligand.torsion>
0.9514

> <Gold.PLP.Chemscore.Hbond>
3.9840

> <Gold.PLP.Chemscore.CHOScore>
0.0000

> <Gold.PLP.Chemscore.Metal>
0.0000

> <Gold.Chemscore.Hbonds>
donor molecule, donor type, donor heavy atom, donor atom, acceptor molecule, acceptor atom, score
      L1  H     3    43       P1  8028  1.82
      P1  H  6896  6907       L1    18  0.57
      P1  H  7997  8008       L1    13  0.65

> <Gold.PLP.Chemscore.Internal.Correction>
0.0320

> <Gold.Rescore>
     Score         DG    S(hbond)    S(metal)    S(lipo)     H(rot)  DE(clash)    DE(int)     intcor
     17.52     -18.30       1.86        0.00     103.19       2.13       0.07       0.72       ----

> <Gold.Chemscore.Fitness>
17.5175

> <Gold.Chemscore.DG>
-18.3044

> <Gold.Chemscore.ZeroCoef>
-5.4800

> <Gold.Chemscore.Hbond>
1.8596

> <Gold.Chemscore.Metal>
0.0000

> <Gold.Chemscore.Lipo>
103.1879

> <Gold.Chemscore.Internal_Hbond>
0.0000

> <Gold.Chemscore.DEClash>
0.0673

> <Gold.Chemscore.DEInternal>
0.7197

> <Gold.Chemscore.Rot>
2.1327

> <Gold.Chemscore.Internal.Correction>
   9.000000E+99

> <Gold.Chemscore.Hbonds>
donor molecule, donor type, donor heavy atom, donor atom, acceptor molecule, acceptor atom, score
      L1  H     3    43       P1  8028  0.86
      P1  H  6896  6907       L1    18  0.08
      P1  H  7997  8008       L1    13  0.06

> <Gold.Chemscore.Hbond.Weighted>
-6.2111

> <Gold.Chemscore.Metal.Weighted>
-0.0000

> <Gold.Chemscore.Lipo.Weighted>
-12.0730

> <Gold.Chemscore.Internal_Hbond.Weighted>
0.0000

> <Gold.Chemscore.DEClash.Weighted>
0.0673

> <Gold.Chemscore.DEInternal.Weighted>
0.7197

> <Gold.Chemscore.Rot.Weighted>
5.4596

> <Gold.Chemscore.Internal.Correction.Weighted>
   9.000000E+99

> <Gold.Protein.RotatedTorsions>
[ 6907 6896 6895 6894 ] final   58.74 input  -60.11 | X-H torsion
[ 7974 7965 7964 7962 ] final  122.96 input  175.53 | X-H torsion
[ 8008 7997 7996 7995 ] final  -14.24 input   59.86 | X-H torsion
[ 10167 10162 10161 10158 ] final   12.15 input  -65.29 | X-H torsion
[ 10718 10713 10712 10709 ] final  177.80 input   66.30 | X-H torsion
[ 10763 10752 10751 10750 ] final -130.06 input  -60.55 | X-H torsion
[ 11005 11000 10999 10996 ] final    5.20 input  -57.11 | X-H torsion

> <Gold.Protein.ActiveResidues>
 VAL166  LYS551  ARG553  GLY616  TRP617  ASP618  TYR619  PRO620  LYS621  CYS622 
 ASP623  PHE694  ASN695  SER759  ASP760  ASP761  ALA762  ILE779  LEU786  VAL792 
 PHE793  MET794  SER795  GLU796  ALA797  LYS798  CYS799  TRP800  GLU811  SER814 

> <Gold.Protein.RotatedAtoms>
  152.3852  134.6528  160.0127 H   0  0  0  0  0  0  0  0  0  0  0  0  # atno 6907 bound_to 6896
  151.6779  133.3307  159.3220 H   0  0  0  0  0  0  0  0  0  0  0  0  # atno 6908 bound_to 6896
  150.7780  134.6742  159.6453 H   0  0  0  0  0  0  0  0  0  0  0  0  # atno 6909 bound_to 6896
  145.1015  139.3515  143.4809 H   0  0  0  0  0  0  0  0  0  0  0  0  # atno 7974 bound_to 7965
  154.5226  140.2228  155.8948 H   0  0  0  0  0  0  0  0  0  0  0  0  # atno 8008 bound_to 7997
  156.1678  140.3128  155.8885 H   0  0  0  0  0  0  0  0  0  0  0  0  # atno 8009 bound_to 7997
  155.3620  140.0461  157.3037 H   0  0  0  0  0  0  0  0  0  0  0  0  # atno 8010 bound_to 7997
  140.6086  143.8455  150.7041 H   0  0  0  0  0  0  0  0  0  0  0  0  # atno 10167 bound_to 10162
  156.9000  130.9875  151.3037 H   0  0  0  0  0  0  0  0  0  0  0  0  # atno 10718 bound_to 10713
  154.8756  135.3875  154.4022 H   0  0  0  0  0  0  0  0  0  0  0  0  # atno 10763 bound_to 10752
  153.4745  135.7030  153.5979 H   0  0  0  0  0  0  0  0  0  0  0  0  # atno 10764 bound_to 10752
  153.4421  135.3853  155.2202 H   0  0  0  0  0  0  0  0  0  0  0  0  # atno 10765 bound_to 10752
  140.5734  134.0081  155.8018 H   0  0  0  0  0  0  0  0  0  0  0  0  # atno 11005 bound_to 11000
  146.3529  140.0894  142.8613 LP  0  0  0  0  0  0  0  0  0  0  0  0  # atno 17320 bound_to 7965
  145.0950  140.9309  143.4746 LP  0  0  0  0  0  0  0  0  0  0  0  0  # atno 17321 bound_to 7965
  140.2018  143.3953  152.1786 LP  0  0  0  0  0  0  0  0  0  0  0  0  # atno 17342 bound_to 10162
  139.5344  144.7194  151.4944 LP  0  0  0  0  0  0  0  0  0  0  0  0  # atno 17343 bound_to 10162
  157.6032  130.8528  149.8834 LP  0  0  0  0  0  0  0  0  0  0  0  0  # atno 17370 bound_to 10713
  156.0587  130.3704  150.1032 LP  0  0  0  0  0  0  0  0  0  0  0  0  # atno 17371 bound_to 10713
  141.1042  133.9720  157.3026 LP  0  0  0  0  0  0  0  0  0  0  0  0  # atno 17394 bound_to 11000
  139.9351  135.0197  156.8529 LP  0  0  0  0  0  0  0  0  0  0  0  0  # atno 17395 bound_to 11000

$$$$
