AV-unprocessed.smi:106|AV-procd|sdf|1011|dock3
  -GOLD-   2262018 13D 1   1.00000     0.00000
 Structure written by MMmdl.
 51 54  0  0  0  0  0  0  0  0  1 V2000
  147.0250  138.5272  156.0365 O   0  0  0  0  0  0  0  0  0  0  0  0
  147.1456  138.7718  154.8338 C   0  0  0  0  0  0  0  0  0  0  0  0
  147.8445  140.0799  154.4024 C   0  0  0  0  0  0  0  0  0  0  0  0
  149.1339  140.3184  155.0903 N   0  0  0  0  0  0  0  0  0  0  0  0
  150.2474  139.5179  154.7343 C   0  0  0  0  0  0  0  0  0  0  0  0
  150.1536  138.6378  153.8772 O   0  0  0  0  0  0  0  0  0  0  0  0
  151.4852  139.8085  155.4477 C   0  0  0  0  0  0  0  0  0  0  0  0
  152.6007  139.1186  155.1550 F   0  0  0  0  0  0  0  0  0  0  0  0
  151.5305  140.7650  156.3974 C   0  0  0  0  0  0  0  0  0  0  0  0
  150.4292  141.5135  156.7643 N   0  0  0  0  0  0  0  0  0  0  0  0
  150.5931  142.5849  157.8205 C   0  0  2  0  0  0  0  0  0  0  0  0
  151.6094  143.6742  157.4462 C   0  0  0  0  0  0  0  0  0  0  0  0
  152.2081  143.9937  158.7988 C   0  0  0  0  0  0  0  0  0  0  0  0
  152.2009  142.6290  159.4792 C   0  0  0  0  0  0  0  0  0  0  0  0
  151.0129  141.9921  159.0158 O   0  0  0  0  0  0  0  0  0  0  0  0
  149.1997  141.3176  156.0921 C   0  0  0  0  0  0  0  0  0  0  0  0
  148.2083  141.9943  156.3678 O   0  0  0  0  0  0  0  0  0  0  0  0
  146.6818  137.9280  153.8792 N   0  0  0  0  0  0  0  0  0  0  0  0
  146.7576  138.2095  152.4376 C   0  0  0  0  0  0  0  0  0  0  0  0
  145.6551  137.4913  151.6351 C   0  0  0  0  0  0  0  0  0  0  0  0
  145.6383  136.0375  151.8531 N   0  0  0  0  0  0  0  0  0  0  0  0
  145.0392  135.2233  150.9468 C   0  0  0  0  0  0  0  0  0  0  0  0
  144.3832  135.6700  150.0038 O   0  0  0  0  0  0  0  0  0  0  0  0
  145.1890  133.7519  151.0765 C   0  0  0  0  0  0  0  0  0  0  0  0
  146.1498  132.9601  151.6586 C   0  0  0  0  0  0  0  0  0  0  0  0
  145.9066  131.5651  151.4918 C   0  0  0  0  0  0  0  0  0  0  0  0
  144.7784  131.3056  150.7607 C   0  0  0  0  0  0  0  0  0  0  0  0
  143.9954  132.7754  150.2503 S   0  0  0  0  0  0  0  0  0  0  0  0
  146.1921  135.5845  153.1386 C   0  0  0  0  0  0  0  0  0  0  0  0
  146.0598  136.6472  154.2462 C   0  0  0  0  0  0  0  0  0  0  0  0
  147.9921  140.0683  153.3213 H   0  0  0  0  0  0  0  0  0  0  0  0
  147.1611  140.9126  154.5721 H   0  0  0  0  0  0  0  0  0  0  0  0
  152.4742  140.9420  156.8925 H   0  0  0  0  0  0  0  0  0  0  0  0
  149.5985  143.0013  157.9848 H   0  0  0  0  0  0  0  0  0  0  0  0
  152.3736  143.2966  156.7683 H   0  0  0  0  0  0  0  0  0  0  0  0
  151.1150  144.5245  156.9760 H   0  0  0  0  0  0  0  0  0  0  0  0
  153.2037  144.4335  158.7342 H   0  0  0  0  0  0  0  0  0  0  0  0
  151.5613  144.6851  159.3407 H   0  0  0  0  0  0  0  0  0  0  0  0
  153.0690  142.0447  159.1736 H   0  0  0  0  0  0  0  0  0  0  0  0
  152.2130  142.7042  160.5667 H   0  0  0  0  0  0  0  0  0  0  0  0
  146.6643  139.2749  152.2295 H   0  0  0  0  0  0  0  0  0  0  0  0
  147.7402  137.9041  152.0753 H   0  0  0  0  0  0  0  0  0  0  0  0
  144.6783  137.8947  151.9077 H   0  0  0  0  0  0  0  0  0  0  0  0
  145.8026  137.7196  150.5780 H   0  0  0  0  0  0  0  0  0  0  0  0
  147.0138  133.3254  152.1930 H   0  0  0  0  0  0  0  0  0  0  0  0
  146.5633  130.8115  151.9007 H   0  0  0  0  0  0  0  0  0  0  0  0
  144.3674  130.3468  150.4809 H   0  0  0  0  0  0  0  0  0  0  0  0
  145.6868  134.6846  153.4909 H   0  0  0  0  0  0  0  0  0  0  0  0
  147.2429  135.3286  152.9984 H   0  0  0  0  0  0  0  0  0  0  0  0
  146.5061  136.2397  155.1550 H   0  0  0  0  0  0  0  0  0  0  0  0
  145.0066  136.8231  154.4695 H   0  0  0  0  0  0  0  0  0  0  0  0
  1  2  2  0  0  0  0
  2  3  1  0  0  0  0
  2 18  1  0  0  0  0
  3  4  1  0  0  0  0
  3 31  1  0  0  0  0
  3 32  1  0  0  0  0
  4 16  1  0  0  0  0
  4  5  1  0  0  0  0
  5  6  2  0  0  0  0
  5  7  1  0  0  0  0
  7  8  1  0  0  0  0
  7  9  2  0  0  0  0
  9 10  1  0  0  0  0
  9 33  1  0  0  0  0
 10 11  1  0  0  0  0
 10 16  1  0  0  0  0
 11 15  1  0  0  0  0
 11 12  1  0  0  0  0
 11 34  1  0  0  0  0
 12 13  1  0  0  0  0
 12 35  1  0  0  0  0
 12 36  1  0  0  0  0
 13 14  1  0  0  0  0
 13 37  1  0  0  0  0
 13 38  1  0  0  0  0
 14 15  1  0  0  0  0
 14 39  1  0  0  0  0
 14 40  1  0  0  0  0
 16 17  2  0  0  0  0
 18 30  1  0  0  0  0
 18 19  1  0  0  0  0
 19 20  1  0  0  0  0
 19 41  1  0  0  0  0
 19 42  1  0  0  0  0
 20 21  1  0  0  0  0
 20 43  1  0  0  0  0
 20 44  1  0  0  0  0
 21 22  1  0  0  0  0
 21 29  1  0  0  0  0
 22 23  2  0  0  0  0
 22 24  1  0  0  0  0
 24 28  1  0  0  0  0
 24 25  2  0  0  0  0
 25 26  1  0  0  0  0
 25 45  1  0  0  0  0
 26 27  2  0  0  0  0
 26 46  1  0  0  0  0
 27 28  1  0  0  0  0
 27 47  1  0  0  0  0
 29 30  1  0  0  0  0
 29 48  1  0  0  0  0
 29 49  1  0  0  0  0
 30 50  1  0  0  0  0
 30 51  1  0  0  0  0
M  END
> <s_m_source_file>
AV-unprocessed.smi

> <i_m_source_file_index>
106

> <i_lp_mmshare_version>
43012

> <i_f3d_flags>
0

> <s_epik_input>
czFbY0hdW2NIXVtjSF1jMUMoPU8pTihbQ0gyXVtDSDJdMilbQ0gyXVtDSDJdTjJDKD1PKVtDSDJdbjNjKD1PKWMoRilbY0hdbihjMz1PKVtDQEBIXTRbQ0gyXVtDSDJdW0NIMl1PNA==

> <s_epik_cmdline>
J2VwaWtfcHl0aG9uJywgJy1waCcsICc3LjAnLCAnLXRuJywgJzgnLCAnLW1hJywgJzIwMCcsICctbWV0YWxfYmluZGluZycsICctaW1hZScsICc8aW5maWxlLm1hZT4nLCAnLW9tYWUnLCAnPG91dGZpbGUubWFlPic=

> <r_lp_tautomer_probability>
1

> <r_epik_Ionization_Penalty>
4.82844e-09

> <r_epik_Ionization_Penalty_Charging>
4.20153e-09

> <r_epik_Ionization_Penalty_Neutral>
6.26919e-10

> <r_epik_State_Penalty>
-0

> <r_epik_Charging_Adjusted_Penalty>
4.20153e-09

> <i_epik_Tot_Q>
0

> <i_epik_Tot_abs_Q>
0

> <r_epik_Metal_State_Penalty>
-0

> <b_epik_Metal_Only>
0

> <s_epik_Chemistry_Notes>
This compound contains an acetal/aminal-like group ( X-CH(R)-Y where X, Y are N, S, or O) that may be acid/base labile, releasing an aldehyde.

> <s_lp_Force_Field>
OPLS_2005

> <r_lp_Energy>
67.8789

> <b_lp_Chiralities_Consistent>
1

> <s_lp_Variant>
AV-unprocessed.smi:106-1

> <Gold.Version>
5.8.1

> <Gold.Id.Protein>
6NUR|6NUR_protein|mol2

> <Gold.PLP.Fitness>
49.9649

> <Gold.PLP.PLP>
-50.5159

> <Gold.PLP.part.hbond>
0.0000

> <Gold.PLP.part.metal>
0.0000

> <Gold.PLP.part.buried>
-2.5650

> <Gold.PLP.part.nonpolar>
-50.5913

> <Gold.PLP.part.repulsive>
3.4892

> <Gold.PLP.ligand.clash>
0.0000

> <Gold.PLP.ligand.torsion>
0.5681

> <Gold.PLP.Chemscore.Hbond>
0.0000

> <Gold.PLP.Chemscore.CHOScore>
0.0000

> <Gold.PLP.Chemscore.Metal>
0.0000

> <Gold.PLP.Chemscore.Internal.Correction>
0.5852

> <Gold.Rescore>
     Score         DG    S(hbond)    S(metal)    S(lipo)     H(rot)  DE(clash)    DE(int)     intcor
     11.32     -13.60       0.00        0.00     104.98       1.63       0.77       1.51       ----

> <Gold.Chemscore.Fitness>
11.3249

> <Gold.Chemscore.DG>
-13.6022

> <Gold.Chemscore.ZeroCoef>
-5.4800

> <Gold.Chemscore.Hbond>
0.0000

> <Gold.Chemscore.Metal>
0.0000

> <Gold.Chemscore.Lipo>
104.9801

> <Gold.Chemscore.Internal_Hbond>
0.0000

> <Gold.Chemscore.DEClash>
0.7661

> <Gold.Chemscore.DEInternal>
1.5112

> <Gold.Chemscore.Rot>
1.6252

> <Gold.Chemscore.Internal.Correction>
   9.000000E+99

> <Gold.Chemscore.Hbond.Weighted>
-0.0000

> <Gold.Chemscore.Metal.Weighted>
-0.0000

> <Gold.Chemscore.Lipo.Weighted>
-12.2827

> <Gold.Chemscore.Internal_Hbond.Weighted>
0.0000

> <Gold.Chemscore.DEClash.Weighted>
0.7661

> <Gold.Chemscore.DEInternal.Weighted>
1.5112

> <Gold.Chemscore.Rot.Weighted>
4.1605

> <Gold.Chemscore.Internal.Correction.Weighted>
   9.000000E+99

> <Gold.Protein.RotatedTorsions>
[ 6907 6896 6895 6894 ] final -117.91 input  -60.11 | X-H torsion
[ 7974 7965 7964 7962 ] final   30.53 input  175.53 | X-H torsion
[ 8008 7997 7996 7995 ] final   43.80 input   59.86 | X-H torsion
[ 10167 10162 10161 10158 ] final -118.18 input  -65.29 | X-H torsion
[ 10718 10713 10712 10709 ] final  123.84 input   66.30 | X-H torsion
[ 10763 10752 10751 10750 ] final   56.35 input  -60.55 | X-H torsion
[ 11005 11000 10999 10996 ] final  107.91 input  -57.11 | X-H torsion

> <Gold.Protein.ActiveResidues>
 VAL166  LYS551  ARG553  GLY616  TRP617  ASP618  TYR619  PRO620  LYS621  CYS622 
 ASP623  PHE694  ASN695  SER759  ASP760  ASP761  ALA762  ILE779  LEU786  VAL792 
 PHE793  MET794  SER795  GLU796  ALA797  LYS798  CYS799  TRP800  GLU811  SER814 

> <Gold.Protein.RotatedAtoms>
  150.8176  133.8310  159.3153 H   0  0  0  0  0  0  0  0  0  0  0  0  # atno 6907 bound_to 6896
  151.6078  135.1041  160.0084 H   0  0  0  0  0  0  0  0  0  0  0  0  # atno 6908 bound_to 6896
  152.4266  133.7165  159.6565 H   0  0  0  0  0  0  0  0  0  0  0  0  # atno 6909 bound_to 6896
  146.1606  139.6776  142.9036 H   0  0  0  0  0  0  0  0  0  0  0  0  # atno 7974 bound_to 7965
  155.3087  140.3389  155.4244 H   0  0  0  0  0  0  0  0  0  0  0  0  # atno 8008 bound_to 7997
  156.1966  140.1717  156.8024 H   0  0  0  0  0  0  0  0  0  0  0  0  # atno 8009 bound_to 7997
  154.5506  140.0706  156.8646 H   0  0  0  0  0  0  0  0  0  0  0  0  # atno 8010 bound_to 7997
  140.0603  143.4974  152.2035 H   0  0  0  0  0  0  0  0  0  0  0  0  # atno 10167 bound_to 10162
  157.5633  131.1088  150.8499 H   0  0  0  0  0  0  0  0  0  0  0  0  # atno 10718 bound_to 10713
  152.9830  135.5679  154.5215 H   0  0  0  0  0  0  0  0  0  0  0  0  # atno 10763 bound_to 10752
  154.4702  135.2784  155.1650 H   0  0  0  0  0  0  0  0  0  0  0  0  # atno 10764 bound_to 10752
  154.3202  135.6270  153.5557 H   0  0  0  0  0  0  0  0  0  0  0  0  # atno 10765 bound_to 10752
  139.8835  134.9415  156.5891 H   0  0  0  0  0  0  0  0  0  0  0  0  # atno 11005 bound_to 11000
  145.4598  141.0432  143.2758 LP  0  0  0  0  0  0  0  0  0  0  0  0  # atno 17320 bound_to 7965
  144.8022  139.6120  143.7067 LP  0  0  0  0  0  0  0  0  0  0  0  0  # atno 17321 bound_to 7965
  139.5898  144.7545  151.3430 LP  0  0  0  0  0  0  0  0  0  0  0  0  # atno 17342 bound_to 10162
  140.7175  143.7227  150.7683 LP  0  0  0  0  0  0  0  0  0  0  0  0  # atno 17343 bound_to 10162
  156.8991  130.5240  149.5283 LP  0  0  0  0  0  0  0  0  0  0  0  0  # atno 17370 bound_to 10713
  156.0683  130.5722  150.9333 LP  0  0  0  0  0  0  0  0  0  0  0  0  # atno 17371 bound_to 10713
  140.7969  133.8537  155.8693 LP  0  0  0  0  0  0  0  0  0  0  0  0  # atno 17394 bound_to 11000
  140.9627  134.1634  157.4641 LP  0  0  0  0  0  0  0  0  0  0  0  0  # atno 17395 bound_to 11000

$$$$
