AV-unprocessed.smi:101|AV-procd|sdf|913|dock10
  -GOLD-   2262017413D 1   1.00000     0.00000
 Structure written by MMmdl.
 44 46  0  0  0  0  0  0  0  0  1 V2000
  146.8969  136.4003  158.4249 C   0  0  0  0  0  0  0  0  0  0  0  0
  148.1302  136.2791  157.5443 C   0  0  0  0  0  0  0  0  0  0  0  0
  148.3757  137.1296  156.5149 C   0  0  0  0  0  0  0  0  0  0  0  0
  149.4925  137.0443  155.6880 N   0  0  0  0  0  0  0  0  0  0  0  0
  149.7602  138.0319  154.5617 C   0  0  2  0  0  0  0  0  0  0  0  0
  150.7826  138.9005  154.9462 O   0  0  0  0  0  0  0  0  0  0  0  0
  150.2076  140.0720  155.5112 C   0  0  1  0  0  0  0  0  0  0  0  0
  151.2565  141.1790  155.6714 C   0  0  0  0  0  0  0  0  0  0  0  0
  150.9856  141.8435  156.8937 O   0  0  0  0  0  0  0  0  0  0  0  0
  151.5465  141.4245  158.0408 C   0  0  0  0  0  0  0  0  0  0  0  0
  151.8502  140.2513  158.2647 O   0  0  0  0  0  0  0  0  0  0  0  0
  151.7598  142.5356  159.0129 C   0  0  0  0  0  0  0  0  0  0  0  0
  151.4142  143.8566  158.6450 C   0  0  0  0  0  0  0  0  0  0  0  0
  151.6070  144.9247  159.5428 C   0  0  0  0  0  0  0  0  0  0  0  0
  152.1481  144.6846  160.8195 C   0  0  0  0  0  0  0  0  0  0  0  0
  152.4965  143.3749  161.1976 C   0  0  0  0  0  0  0  0  0  0  0  0
  152.3040  142.3057  160.3014 C   0  0  0  0  0  0  0  0  0  0  0  0
  149.0522  140.3442  154.5486 C   0  0  1  0  0  0  0  0  0  0  0  0
  149.5285  140.9899  153.3784 O   0  0  0  0  0  0  0  0  0  0  0  0
  148.5269  138.9294  154.2875 C   0  0  1  0  0  0  0  0  0  0  0  0
  147.9932  138.7721  152.9860 O   0  0  0  0  0  0  0  0  0  0  0  0
  150.4674  136.0609  155.9590 C   0  0  0  0  0  0  0  0  0  0  0  0
  151.5092  135.9605  155.3121 O   0  0  0  0  0  0  0  0  0  0  0  0
  150.2117  135.1823  157.0095 N   0  0  0  0  0  0  0  0  0  0  0  0
  149.0863  135.2084  157.8358 C   0  0  0  0  0  0  0  0  0  0  0  0
  148.9684  134.3710  158.7289 O   0  0  0  0  0  0  0  0  0  0  0  0
  150.9022  134.4693  157.1940 H   0  0  0  0  0  0  0  0  0  0  0  0
  146.2635  137.2360  158.1260 H   0  0  0  0  0  0  0  0  0  0  0  0
  147.1854  136.5566  159.4648 H   0  0  0  0  0  0  0  0  0  0  0  0
  146.2975  135.4910  158.3687 H   0  0  0  0  0  0  0  0  0  0  0  0
  147.6497  137.9116  156.3520 H   0  0  0  0  0  0  0  0  0  0  0  0
  150.0837  137.4222  153.7158 H   0  0  0  0  0  0  0  0  0  0  0  0
  149.7865  139.8338  156.4903 H   0  0  0  0  0  0  0  0  0  0  0  0
  152.2657  140.7648  155.6668 H   0  0  0  0  0  0  0  0  0  0  0  0
  151.1809  141.8937  154.8509 H   0  0  0  0  0  0  0  0  0  0  0  0
  150.9979  144.0655  157.6698 H   0  0  0  0  0  0  0  0  0  0  0  0
  151.3395  145.9295  159.2510 H   0  0  0  0  0  0  0  0  0  0  0  0
  152.2958  145.5039  161.5074 H   0  0  0  0  0  0  0  0  0  0  0  0
  152.9123  143.1888  162.1770 H   0  0  0  0  0  0  0  0  0  0  0  0
  152.5827  141.3132  160.6243 H   0  0  0  0  0  0  0  0  0  0  0  0
  148.2894  140.9787  155.0011 H   0  0  0  0  0  0  0  0  0  0  0  0
  149.5268  140.3677  152.6674 H   0  0  0  0  0  0  0  0  0  0  0  0
  147.7459  138.7069  155.0162 H   0  0  0  0  0  0  0  0  0  0  0  0
  148.5414  139.2472  152.3799 H   0  0  0  0  0  0  0  0  0  0  0  0
  1  2  1  0  0  0  0
  1 28  1  0  0  0  0
  1 29  1  0  0  0  0
  1 30  1  0  0  0  0
  2 25  1  0  0  0  0
  2  3  2  0  0  0  0
  3  4  1  0  0  0  0
  3 31  1  0  0  0  0
  4  5  1  0  0  0  0
  4 22  1  0  0  0  0
  5 20  1  0  0  0  0
  5  6  1  0  0  0  0
  5 32  1  0  0  0  0
  6  7  1  0  0  0  0
  7  8  1  0  0  0  0
  7 18  1  0  0  0  0
  7 33  1  0  0  0  0
  8  9  1  0  0  0  0
  8 34  1  0  0  0  0
  8 35  1  0  0  0  0
  9 10  1  0  0  0  0
 10 11  2  0  0  0  0
 10 12  1  0  0  0  0
 12 17  1  0  0  0  0
 12 13  2  0  0  0  0
 13 14  1  0  0  0  0
 13 36  1  0  0  0  0
 14 15  2  0  0  0  0
 14 37  1  0  0  0  0
 15 16  1  0  0  0  0
 15 38  1  0  0  0  0
 16 17  2  0  0  0  0
 16 39  1  0  0  0  0
 17 40  1  0  0  0  0
 18 19  1  0  0  0  0
 18 20  1  0  0  0  0
 18 41  1  0  0  0  0
 19 42  1  0  0  0  0
 20 21  1  0  0  0  0
 20 43  1  0  0  0  0
 21 44  1  0  0  0  0
 22 23  2  0  0  0  0
 22 24  1  0  0  0  0
 24 27  1  0  0  0  0
 24 25  1  0  0  0  0
 25 26  2  0  0  0  0
M  END
> <s_m_source_file>
AV-unprocessed.smi

> <i_m_source_file_index>
101

> <i_lp_mmshare_version>
43012

> <i_f3d_flags>
0

> <s_epik_input>
Tz1jMVtuSF1jKD1PKW4oW2NIXWMxW0NIM10pW0NAQEhdMk9bQ0BIXShbQ0BASF0oW09IXSlbQ0BIXTJbT0hdKVtDSDJdT0MoPU8pYzNbY0hdW2NIXVtjSF1bY0hdW2NIXTM=

> <s_epik_cmdline>
J2VwaWtfcHl0aG9uJywgJy1waCcsICc3LjAnLCAnLXRuJywgJzgnLCAnLW1hJywgJzIwMCcsICctbWV0YWxfYmluZGluZycsICctaW1hZScsICc8aW5maWxlLm1hZT4nLCAnLW9tYWUnLCAnPG91dGZpbGUubWFlPic=

> <r_lp_tautomer_probability>
0.999537

> <r_epik_Ionization_Penalty>
0.00263537

> <r_epik_Ionization_Penalty_Charging>
0.00263428

> <r_epik_Ionization_Penalty_Neutral>
1.09111e-06

> <r_epik_State_Penalty>
0.00183335

> <r_epik_Charging_Adjusted_Penalty>
0.00446763

> <i_epik_Tot_Q>
0

> <i_epik_Tot_abs_Q>
0

> <r_epik_Metal_State_Penalty>
1.00528

> <b_epik_Metal_Only>
0

> <s_epik_Chemistry_Notes>
This compound has an ester and may undergo hydrolysis at high or low pH. This compound contains an acetal/aminal-like group ( X-CH(R)-Y where X, Y are N, S, or O) that may be acid/base labile, releasing an aldehyde.

> <s_lp_Force_Field>
OPLS_2005

> <r_lp_Energy>
35.8118

> <b_lp_Chiralities_Consistent>
1

> <s_lp_Variant>
AV-unprocessed.smi:101-1

> <Gold.Version>
5.8.1

> <Gold.Id.Protein>
6NUR|6NUR_protein|mol2

> <Gold.PLP.Fitness>
53.4091

> <Gold.PLP.PLP>
-41.2516

> <Gold.PLP.part.hbond>
-6.4963

> <Gold.PLP.part.metal>
0.0000

> <Gold.PLP.part.buried>
-6.6192

> <Gold.PLP.part.nonpolar>
-28.3622

> <Gold.PLP.part.repulsive>
0.3606

> <Gold.PLP.ligand.clash>
0.0000

> <Gold.PLP.ligand.torsion>
1.3460

> <Gold.PLP.Chemscore.Hbond>
4.9316

> <Gold.PLP.Chemscore.CHOScore>
0.0000

> <Gold.PLP.Chemscore.Metal>
0.0000

> <Gold.Chemscore.Hbonds>
donor molecule, donor type, donor heavy atom, donor atom, acceptor molecule, acceptor atom, score
      L1  H    19    42       P1  7957  1.00
      L1  H    21    44       P1  7957  1.00
      P1  H  6896  6907       L1    26  1.00
      P1  H  7989  7998       L1    19  0.10
      P1  H  8011  8017       L1    19  0.75
      P1  H 10752 10765       L1    23  1.00

> <Gold.PLP.Chemscore.Internal.Correction>
0.0547

> <Gold.Rescore>
     Score         DG    S(hbond)    S(metal)    S(lipo)     H(rot)  DE(clash)    DE(int)     intcor
     18.28     -20.59       3.81        0.00      93.03       3.32       0.15       2.17       ----

> <Gold.Chemscore.Fitness>
18.2750

> <Gold.Chemscore.DG>
-20.5948

> <Gold.Chemscore.ZeroCoef>
-5.4800

> <Gold.Chemscore.Hbond>
3.8090

> <Gold.Chemscore.Metal>
0.0000

> <Gold.Chemscore.Lipo>
93.0325

> <Gold.Chemscore.Internal_Hbond>
0.0000

> <Gold.Chemscore.DEClash>
0.1513

> <Gold.Chemscore.DEInternal>
2.1685

> <Gold.Chemscore.Rot>
3.3172

> <Gold.Chemscore.Internal.Correction>
   9.000000E+99

> <Gold.Chemscore.Hbonds>
donor molecule, donor type, donor heavy atom, donor atom, acceptor molecule, acceptor atom, score
      L1  H    19    42       P1  7957  0.89
      L1  H    21    44       P1  7957  1.00
      P1  H  6896  6907       L1    26  0.40
      P1  H  8011  8017       L1    19  0.09
      P1  H 10752 10765       L1    23  0.99

> <Gold.Chemscore.Hbond.Weighted>
-12.7221

> <Gold.Chemscore.Metal.Weighted>
-0.0000

> <Gold.Chemscore.Lipo.Weighted>
-10.8848

> <Gold.Chemscore.Internal_Hbond.Weighted>
0.0000

> <Gold.Chemscore.DEClash.Weighted>
0.1513

> <Gold.Chemscore.DEInternal.Weighted>
2.1685

> <Gold.Chemscore.Rot.Weighted>
8.4920

> <Gold.Chemscore.Internal.Correction.Weighted>
   9.000000E+99

> <Gold.Protein.RotatedTorsions>
[ 6907 6896 6895 6894 ] final  -86.09 input  -60.11 | X-H torsion
[ 7974 7965 7964 7962 ] final -105.22 input  175.53 | X-H torsion
[ 8008 7997 7996 7995 ] final  157.96 input   59.86 | X-H torsion
[ 10167 10162 10161 10158 ] final  -70.04 input  -65.29 | X-H torsion
[ 10718 10713 10712 10709 ] final -108.01 input   66.30 | X-H torsion
[ 10763 10752 10751 10750 ] final -177.26 input  -60.55 | X-H torsion
[ 11005 11000 10999 10996 ] final   34.48 input  -57.11 | X-H torsion

> <Gold.Protein.ActiveResidues>
 VAL166  LYS551  ARG553  GLY616  TRP617  ASP618  TYR619  PRO620  LYS621  CYS622 
 ASP623  PHE694  ASN695  SER759  ASP760  ASP761  ALA762  ILE779  LEU786  VAL792 
 PHE793  MET794  SER795  GLU796  ALA797  LYS798  CYS799  TRP800  GLU811  SER814 

> <Gold.Protein.RotatedAtoms>
  150.6868  134.3104  159.4743 H   0  0  0  0  0  0  0  0  0  0  0  0  # atno 6907 bound_to 6896
  152.0991  134.9352  160.0579 H   0  0  0  0  0  0  0  0  0  0  0  0  # atno 6908 bound_to 6896
  152.0638  133.4039  159.4466 H   0  0  0  0  0  0  0  0  0  0  0  0  # atno 6909 bound_to 6896
  145.2332  140.9178  143.3192 H   0  0  0  0  0  0  0  0  0  0  0  0  # atno 7974 bound_to 7965
  156.2332  140.1871  156.7188 H   0  0  0  0  0  0  0  0  0  0  0  0  # atno 8008 bound_to 7997
  154.6059  140.0629  156.9458 H   0  0  0  0  0  0  0  0  0  0  0  0  # atno 8009 bound_to 7997
  155.2096  140.3299  155.4333 H   0  0  0  0  0  0  0  0  0  0  0  0  # atno 8010 bound_to 7997
  140.5384  143.2316  151.7135 H   0  0  0  0  0  0  0  0  0  0  0  0  # atno 10167 bound_to 10162
  156.0464  130.5691  150.7902 H   0  0  0  0  0  0  0  0  0  0  0  0  # atno 10718 bound_to 10713
  154.5623  135.2821  155.0907 H   0  0  0  0  0  0  0  0  0  0  0  0  # atno 10763 bound_to 10752
  154.2311  135.6374  153.5179 H   0  0  0  0  0  0  0  0  0  0  0  0  # atno 10764 bound_to 10752
  153.0033  135.5537  154.6221 H   0  0  0  0  0  0  0  0  0  0  0  0  # atno 10765 bound_to 10752
  140.2524  134.3288  155.7886 H   0  0  0  0  0  0  0  0  0  0  0  0  # atno 11005 bound_to 11000
  144.9657  139.3933  143.6334 LP  0  0  0  0  0  0  0  0  0  0  0  0  # atno 17320 bound_to 7965
  146.3347  139.8731  142.8836 LP  0  0  0  0  0  0  0  0  0  0  0  0  # atno 17321 bound_to 7965
  139.4979  144.4007  152.0184 LP  0  0  0  0  0  0  0  0  0  0  0  0  # atno 17342 bound_to 10162
  140.3114  144.3533  150.6033 LP  0  0  0  0  0  0  0  0  0  0  0  0  # atno 17343 bound_to 10162
  157.5345  131.0938  150.9911 LP  0  0  0  0  0  0  0  0  0  0  0  0  # atno 17370 bound_to 10713
  157.0209  130.5673  149.5331 LP  0  0  0  0  0  0  0  0  0  0  0  0  # atno 17371 bound_to 10713
  141.2200  133.7361  156.9058 LP  0  0  0  0  0  0  0  0  0  0  0  0  # atno 17394 bound_to 11000
  140.1545  134.9208  157.2635 LP  0  0  0  0  0  0  0  0  0  0  0  0  # atno 17395 bound_to 11000

$$$$
