AV-unprocessed.smi:2320|AV-procd|sdf|9280|dock6
  -GOLD-   2272012503D 1   1.00000     0.00000
 Structure written by MMmdl.
 41 42  0  0  0  0  0  0  0  0  1 V2000
  151.5596  141.5644  156.8183 C   0  0  0  0  0  0  0  0  0  0  0  0
  150.5886  140.7314  156.0073 C   0  0  0  0  0  0  0  0  0  0  0  0
  150.9799  139.4827  155.4846 C   0  0  0  0  0  0  0  0  0  0  0  0
  150.0697  138.7163  154.7319 C   0  0  0  0  0  0  0  0  0  0  0  0
  148.7611  139.1814  154.4888 C   0  0  0  0  0  0  0  0  0  0  0  0
  147.9378  138.3667  153.7417 O   0  0  0  0  0  0  0  0  0  0  0  0
  146.6154  138.8118  153.4692 C   0  0  0  0  0  0  0  0  0  0  0  0
  145.9115  137.7638  152.5933 C   0  0  1  0  0  0  0  0  0  0  0  0
  146.5966  137.7286  151.3576 O   0  0  0  0  0  0  0  0  0  0  0  0
  145.9438  136.3555  153.2296 C   0  0  0  0  0  0  0  0  0  0  0  0
  145.4246  135.3224  152.3176 N   0  0  0  0  0  0  0  0  0  0  0  0
  144.3764  135.7124  151.4670 C   0  0  0  0  0  0  0  0  0  0  0  0
  143.8397  134.8882  150.6278 N   0  0  0  0  0  0  0  0  0  0  0  0
  144.3044  133.5722  150.5501 C   0  0  0  0  0  0  0  0  0  0  0  0
  143.5978  132.6863  149.5394 C   0  0  0  0  0  0  0  0  0  0  0  0
  145.3231  133.1340  151.3392 C   0  0  0  0  0  0  0  0  0  0  0  0
  145.8679  131.7113  151.2997 C   0  0  0  0  0  0  0  0  0  0  0  0
  145.9461  134.0620  152.2971 C   0  0  0  0  0  0  0  0  0  0  0  0
  146.8746  133.7324  153.0376 O   0  0  0  0  0  0  0  0  0  0  0  0
  148.3737  140.4382  155.0180 C   0  0  0  0  0  0  0  0  0  0  0  0
  149.2835  141.2056  155.7712 C   0  0  0  0  0  0  0  0  0  0  0  0
  152.5164  141.0554  156.9394 H   0  0  0  0  0  0  0  0  0  0  0  0
  151.1514  141.7619  157.8099 H   0  0  0  0  0  0  0  0  0  0  0  0
  151.7421  142.5191  156.3245 H   0  0  0  0  0  0  0  0  0  0  0  0
  151.9776  139.1069  155.6583 H   0  0  0  0  0  0  0  0  0  0  0  0
  150.3796  137.7606  154.3356 H   0  0  0  0  0  0  0  0  0  0  0  0
  146.0752  138.9292  154.4104 H   0  0  0  0  0  0  0  0  0  0  0  0
  146.6280  139.7781  152.9616 H   0  0  0  0  0  0  0  0  0  0  0  0
  144.8861  138.0882  152.4114 H   0  0  0  0  0  0  0  0  0  0  0  0
  147.3446  137.1574  151.4438 H   0  0  0  0  0  0  0  0  0  0  0  0
  146.9474  136.1174  153.5876 H   0  0  0  0  0  0  0  0  0  0  0  0
  145.3364  136.3521  154.1369 H   0  0  0  0  0  0  0  0  0  0  0  0
  144.0559  136.7514  151.5636 H   0  0  0  0  0  0  0  0  0  0  0  0
  143.1393  131.8312  150.0367 H   0  0  0  0  0  0  0  0  0  0  0  0
  144.3028  132.3202  148.7928 H   0  0  0  0  0  0  0  0  0  0  0  0
  142.8100  133.2298  149.0160 H   0  0  0  0  0  0  0  0  0  0  0  0
  146.9342  131.7220  151.0713 H   0  0  0  0  0  0  0  0  0  0  0  0
  145.3812  131.0855  150.5533 H   0  0  0  0  0  0  0  0  0  0  0  0
  145.7341  131.2312  152.2696 H   0  0  0  0  0  0  0  0  0  0  0  0
  147.3828  140.8366  154.8619 H   0  0  0  0  0  0  0  0  0  0  0  0
  148.9757  142.1616  156.1692 H   0  0  0  0  0  0  0  0  0  0  0  0
  1  2  1  0  0  0  0
  1 22  1  0  0  0  0
  1 23  1  0  0  0  0
  1 24  1  0  0  0  0
  2 21  1  0  0  0  0
  2  3  2  0  0  0  0
  3  4  1  0  0  0  0
  3 25  1  0  0  0  0
  4  5  2  0  0  0  0
  4 26  1  0  0  0  0
  5  6  1  0  0  0  0
  5 20  1  0  0  0  0
  6  7  1  0  0  0  0
  7  8  1  0  0  0  0
  7 27  1  0  0  0  0
  7 28  1  0  0  0  0
  8  9  1  0  0  0  0
  8 10  1  0  0  0  0
  8 29  1  0  0  0  0
  9 30  1  0  0  0  0
 10 11  1  0  0  0  0
 10 31  1  0  0  0  0
 10 32  1  0  0  0  0
 11 18  1  0  0  0  0
 11 12  1  0  0  0  0
 12 13  2  0  0  0  0
 12 33  1  0  0  0  0
 13 14  1  0  0  0  0
 14 15  1  0  0  0  0
 14 16  2  0  0  0  0
 15 34  1  0  0  0  0
 15 35  1  0  0  0  0
 15 36  1  0  0  0  0
 16 17  1  0  0  0  0
 16 18  1  0  0  0  0
 17 37  1  0  0  0  0
 17 38  1  0  0  0  0
 17 39  1  0  0  0  0
 18 19  2  0  0  0  0
 20 21  2  0  0  0  0
 20 40  1  0  0  0  0
 21 41  1  0  0  0  0
M  END
> <s_m_source_file>
AV-unprocessed.smi

> <i_m_source_file_index>
2320

> <i_lp_mmshare_version>
43012

> <i_f3d_flags>
0

> <s_epik_input>
W0NIM11jMVtjSF1bY0hdYyhbY0hdW2NIXTEpT1tDSDJdW0NASF0oW09IXSlbQ0gyXW4yW2NIXW5jKFtDSDNdKWMoW0NIM10pYzI9Tw==

> <s_epik_cmdline>
J2VwaWtfcHl0aG9uJywgJy1waCcsICc3LjAnLCAnLXRuJywgJzgnLCAnLW1hJywgJzIwMCcsICctbWV0YWxfYmluZGluZycsICctaW1hZScsICc8aW5maWxlLm1hZT4nLCAnLW9tYWUnLCAnPG91dGZpbGUubWFlPic=

> <r_lp_tautomer_probability>
1

> <r_epik_Ionization_Penalty>
3.74127e-05

> <r_epik_Ionization_Penalty_Charging>
8.43242e-08

> <r_epik_Ionization_Penalty_Neutral>
3.73284e-05

> <r_epik_State_Penalty>
-0

> <r_epik_Charging_Adjusted_Penalty>
8.43242e-08

> <i_epik_Tot_Q>
0

> <i_epik_Tot_abs_Q>
0

> <r_epik_Metal_State_Penalty>
-0

> <b_epik_Metal_Only>
0

> <s_lp_Force_Field>
OPLS_2005

> <r_lp_Energy>
22.1305

> <b_lp_Chiralities_Consistent>
1

> <s_lp_Variant>
AV-unprocessed.smi:2320-2

> <Gold.Version>
5.8.1

> <Gold.Id.Protein>
6NUR|6NUR_protein|mol2

> <Gold.PLP.Fitness>
44.4964

> <Gold.PLP.PLP>
-39.2472

> <Gold.PLP.part.hbond>
-2.2497

> <Gold.PLP.part.metal>
0.0000

> <Gold.PLP.part.buried>
-3.7053

> <Gold.PLP.part.nonpolar>
-35.9065

> <Gold.PLP.part.repulsive>
1.5191

> <Gold.PLP.ligand.clash>
0.0000

> <Gold.PLP.ligand.torsion>
0.3869

> <Gold.PLP.Chemscore.Hbond>
1.0000

> <Gold.PLP.Chemscore.CHOScore>
1.0000

> <Gold.PLP.Chemscore.Metal>
0.0000

> <Gold.Chemscore.Hbonds>
donor molecule, donor type, donor heavy atom, donor atom, acceptor molecule, acceptor atom, score
      L1  H     9    30       P1  7948  1.00
      L1  C    12    33       P1 10171  0.98

> <Gold.PLP.Chemscore.Internal.Correction>
0.0229

> <Gold.Rescore>
     Score         DG    S(hbond)    S(metal)    S(lipo)     H(rot)  DE(clash)    DE(int)     intcor
     13.74     -14.86       1.00        0.00     103.10       2.35       0.70       0.42       ----

> <Gold.Chemscore.Fitness>
13.7393

> <Gold.Chemscore.DG>
-14.8565

> <Gold.Chemscore.ZeroCoef>
-5.4800

> <Gold.Chemscore.Hbond>
0.9963

> <Gold.Chemscore.Metal>
0.0000

> <Gold.Chemscore.Lipo>
103.0990

> <Gold.Chemscore.Internal_Hbond>
0.0000

> <Gold.Chemscore.DEClash>
0.6994

> <Gold.Chemscore.DEInternal>
0.4178

> <Gold.Chemscore.Rot>
2.3490

> <Gold.Chemscore.Internal.Correction>
   9.000000E+99

> <Gold.Chemscore.Hbonds>
donor molecule, donor type, donor heavy atom, donor atom, acceptor molecule, acceptor atom, score
      L1  H     9    30       P1  7948  1.00

> <Gold.Chemscore.Hbond.Weighted>
-3.3275

> <Gold.Chemscore.Metal.Weighted>
-0.0000

> <Gold.Chemscore.Lipo.Weighted>
-12.0626

> <Gold.Chemscore.Internal_Hbond.Weighted>
0.0000

> <Gold.Chemscore.DEClash.Weighted>
0.6994

> <Gold.Chemscore.DEInternal.Weighted>
0.4178

> <Gold.Chemscore.Rot.Weighted>
6.0136

> <Gold.Chemscore.Internal.Correction.Weighted>
   9.000000E+99

> <Gold.Protein.RotatedTorsions>
[ 6907 6896 6895 6894 ] final  162.47 input  -60.11 | X-H torsion
[ 7974 7965 7964 7962 ] final  -83.71 input  175.53 | X-H torsion
[ 8008 7997 7996 7995 ] final  157.99 input   59.86 | X-H torsion
[ 10167 10162 10161 10158 ] final  154.57 input  -65.29 | X-H torsion
[ 10718 10713 10712 10709 ] final -170.09 input   66.30 | X-H torsion
[ 10763 10752 10751 10750 ] final   20.59 input  -60.55 | X-H torsion
[ 11005 11000 10999 10996 ] final   33.82 input  -57.11 | X-H torsion

> <Gold.Protein.ActiveResidues>
 VAL166  LYS551  ARG553  GLY616  TRP617  ASP618  TYR619  PRO620  LYS621  CYS622 
 ASP623  PHE694  ASN695  SER759  ASP760  ASP761  ALA762  ILE779  LEU786  VAL792 
 PHE793  MET794  SER795  GLU796  ALA797  LYS798  CYS799  TRP800  GLU811  SER814 

> <Gold.Protein.RotatedAtoms>
  151.9399  133.3635  159.3961 H   0  0  0  0  0  0  0  0  0  0  0  0  # atno 6907 bound_to 6896
  150.7000  134.4450  159.5319 H   0  0  0  0  0  0  0  0  0  0  0  0  # atno 6908 bound_to 6896
  152.2105  134.8506  160.0548 H   0  0  0  0  0  0  0  0  0  0  0  0  # atno 6909 bound_to 6896
  145.5163  140.9535  143.1679 H   0  0  0  0  0  0  0  0  0  0  0  0  # atno 7974 bound_to 7965
  156.2330  140.1870  156.7192 H   0  0  0  0  0  0  0  0  0  0  0  0  # atno 8008 bound_to 7997
  154.6057  140.0629  156.9455 H   0  0  0  0  0  0  0  0  0  0  0  0  # atno 8009 bound_to 7997
  155.2100  140.3299  155.4333 H   0  0  0  0  0  0  0  0  0  0  0  0  # atno 8010 bound_to 7997
  139.4823  144.5175  151.7928 H   0  0  0  0  0  0  0  0  0  0  0  0  # atno 10167 bound_to 10162
  156.7211  130.9270  151.3097 H   0  0  0  0  0  0  0  0  0  0  0  0  # atno 10718 bound_to 10713
  153.1065  135.6686  153.9577 H   0  0  0  0  0  0  0  0  0  0  0  0  # atno 10763 bound_to 10752
  153.9133  135.3022  155.3450 H   0  0  0  0  0  0  0  0  0  0  0  0  # atno 10764 bound_to 10752
  154.7486  135.5045  153.9325 H   0  0  0  0  0  0  0  0  0  0  0  0  # atno 10765 bound_to 10752
  140.2591  134.3213  155.7863 H   0  0  0  0  0  0  0  0  0  0  0  0  # atno 11005 bound_to 11000
  144.7700  139.6757  143.7199 LP  0  0  0  0  0  0  0  0  0  0  0  0  # atno 17320 bound_to 7965
  146.2134  139.5507  142.9666 LP  0  0  0  0  0  0  0  0  0  0  0  0  # atno 17321 bound_to 7965
  140.4685  144.1620  150.5915 LP  0  0  0  0  0  0  0  0  0  0  0  0  # atno 17342 bound_to 10162
  140.4407  143.2527  151.9476 LP  0  0  0  0  0  0  0  0  0  0  0  0  # atno 17343 bound_to 10162
  157.6897  130.9221  150.0482 LP  0  0  0  0  0  0  0  0  0  0  0  0  # atno 17370 bound_to 10713
  156.1594  130.3643  149.9322 LP  0  0  0  0  0  0  0  0  0  0  0  0  # atno 17371 bound_to 10713
  141.2192  133.7399  156.9159 LP  0  0  0  0  0  0  0  0  0  0  0  0  # atno 17394 bound_to 11000
  140.1482  134.9248  157.2557 LP  0  0  0  0  0  0  0  0  0  0  0  0  # atno 17395 bound_to 11000

$$$$
