AV-unprocessed.smi:40|AV-procd|sdf|380|dock4
  -GOLD-   2262016233D 1   1.00000     0.00000
 Structure written by MMmdl.
 47 48  0  0  0  0  0  0  0  0  1 V2000
  152.5773  143.1035  161.3041 C   0  0  0  0  0  0  0  0  0  0  0  0
  153.0580  143.2515  159.8564 C   0  0  0  0  0  0  0  0  0  0  0  0
  152.0855  144.0698  158.9962 C   0  0  0  0  0  0  0  0  0  0  0  0
  150.7429  143.3540  158.7758 C   0  0  0  0  0  0  0  0  0  0  0  0
  150.8903  142.0055  158.0580 C   0  0  0  0  0  0  0  0  0  0  0  0
  151.6230  141.1161  158.8838 O   0  0  0  0  0  0  0  0  0  0  0  0
  152.2004  140.0173  158.3667 C   0  0  0  0  0  0  0  0  0  0  0  0
  152.2671  139.7773  157.1614 O   0  0  0  0  0  0  0  0  0  0  0  0
  152.7638  139.1702  159.4060 N   0  0  0  0  0  0  0  0  0  0  0  0
  153.4205  137.9890  159.2883 C   0  0  0  0  0  0  0  0  0  0  0  0
  153.5186  137.3348  158.1430 N   0  0  0  0  0  0  0  0  0  0  0  0
  154.1842  136.1493  157.9835 C   0  0  0  0  0  0  0  0  0  0  0  0
  154.1417  135.5745  156.8973 O   0  0  0  0  0  0  0  0  0  0  0  0
  154.8888  135.6344  159.1067 N   0  0  0  0  0  0  0  0  0  0  0  0
  155.6063  134.2854  159.0410 C   0  0  1  0  0  0  0  0  0  0  0  0
  154.6699  133.2444  158.9957 O   0  0  0  0  0  0  0  0  0  0  0  0
  154.4226  132.8610  157.6532 C   0  0  2  0  0  0  0  0  0  0  0  0
  153.6569  131.5322  157.5706 C   0  0  0  0  0  0  0  0  0  0  0  0
  155.8335  132.8779  157.0697 C   0  0  2  0  0  0  0  0  0  0  0  0
  156.5354  131.6946  157.4157 O   0  0  0  0  0  0  0  0  0  0  0  0
  156.4188  134.1295  157.7234 C   0  0  2  0  0  0  0  0  0  0  0  0
  157.8159  134.0344  157.9311 O   0  0  0  0  0  0  0  0  0  0  0  0
  154.7429  136.2820  160.3288 C   0  0  0  0  0  0  0  0  0  0  0  0
  154.0614  137.4403  160.4610 C   0  0  0  0  0  0  0  0  0  0  0  0
  153.9724  138.0524  161.6546 F   0  0  0  0  0  0  0  0  0  0  0  0
  156.2008  134.2414  159.9544 H   0  0  0  0  0  0  0  0  0  0  0  0
  153.8275  133.6440  157.1792 H   0  0  0  0  0  0  0  0  0  0  0  0
  155.8204  132.9599  155.9823 H   0  0  0  0  0  0  0  0  0  0  0  0
  156.2152  134.9580  157.0460 H   0  0  0  0  0  0  0  0  0  0  0  0
  153.2847  142.5168  161.8904 H   0  0  0  0  0  0  0  0  0  0  0  0
  151.6108  142.6000  161.3479 H   0  0  0  0  0  0  0  0  0  0  0  0
  152.4717  144.0760  161.7853 H   0  0  0  0  0  0  0  0  0  0  0  0
  154.0414  143.7229  159.8487 H   0  0  0  0  0  0  0  0  0  0  0  0
  153.1866  142.2601  159.4200 H   0  0  0  0  0  0  0  0  0  0  0  0
  151.9127  145.0323  159.4783 H   0  0  0  0  0  0  0  0  0  0  0  0
  152.5450  144.2879  158.0316 H   0  0  0  0  0  0  0  0  0  0  0  0
  150.2619  143.1893  159.7403 H   0  0  0  0  0  0  0  0  0  0  0  0
  150.0714  143.9954  158.2039 H   0  0  0  0  0  0  0  0  0  0  0  0
  149.9104  141.5828  157.8325 H   0  0  0  0  0  0  0  0  0  0  0  0
  151.4142  142.1465  157.1114 H   0  0  0  0  0  0  0  0  0  0  0  0
  152.6270  139.5228  160.3421 H   0  0  0  0  0  0  0  0  0  0  0  0
  153.5355  131.2146  156.5347 H   0  0  0  0  0  0  0  0  0  0  0  0
  152.6627  131.6350  158.0056 H   0  0  0  0  0  0  0  0  0  0  0  0
  154.1684  130.7352  158.1105 H   0  0  0  0  0  0  0  0  0  0  0  0
  156.6371  131.1708  156.6356 H   0  0  0  0  0  0  0  0  0  0  0  0
  157.9749  133.4307  158.6404 H   0  0  0  0  0  0  0  0  0  0  0  0
  155.1744  135.8610  161.2246 H   0  0  0  0  0  0  0  0  0  0  0  0
  1  2  1  0  0  0  0
  1 30  1  0  0  0  0
  1 31  1  0  0  0  0
  1 32  1  0  0  0  0
  2  3  1  0  0  0  0
  2 33  1  0  0  0  0
  2 34  1  0  0  0  0
  3  4  1  0  0  0  0
  3 35  1  0  0  0  0
  3 36  1  0  0  0  0
  4  5  1  0  0  0  0
  4 37  1  0  0  0  0
  4 38  1  0  0  0  0
  5  6  1  0  0  0  0
  5 39  1  0  0  0  0
  5 40  1  0  0  0  0
  6  7  1  0  0  0  0
  7  8  2  0  0  0  0
  7  9  1  0  0  0  0
  9 10  1  0  0  0  0
  9 41  1  0  0  0  0
 10 24  1  0  0  0  0
 10 11  2  0  0  0  0
 11 12  1  0  0  0  0
 12 13  2  0  0  0  0
 12 14  1  0  0  0  0
 14 15  1  0  0  0  0
 14 23  1  0  0  0  0
 15 26  1  0  0  0  0
 15 21  1  0  0  0  0
 15 16  1  0  0  0  0
 16 17  1  0  0  0  0
 17 27  1  0  0  0  0
 17 18  1  0  0  0  0
 17 19  1  0  0  0  0
 18 42  1  0  0  0  0
 18 43  1  0  0  0  0
 18 44  1  0  0  0  0
 19 28  1  0  0  0  0
 19 20  1  0  0  0  0
 19 21  1  0  0  0  0
 20 45  1  0  0  0  0
 21 29  1  0  0  0  0
 21 22  1  0  0  0  0
 22 46  1  0  0  0  0
 23 24  2  0  0  0  0
 23 47  1  0  0  0  0
 24 25  1  0  0  0  0
M  END
> <s_m_source_file>
AV-unprocessed.smi

> <i_m_source_file_index>
40

> <i_lp_mmshare_version>
43012

> <i_f3d_flags>
0

> <s_epik_input>
W0NIM11bQ0gyXVtDSDJdW0NIMl1bQ0gyXU9DKD1PKVtOSF1jMW5jKD1PKW4oW2NIXWMxRilbQ0BASF0yT1tDQEhdKFtDSDNdKVtDQEBIXShbT0hdKVtDQEhdMltPSF0=

> <s_epik_cmdline>
J2VwaWtfcHl0aG9uJywgJy1waCcsICc3LjAnLCAnLXRuJywgJzgnLCAnLW1hJywgJzIwMCcsICctbWV0YWxfYmluZGluZycsICctaW1hZScsICc8aW5maWxlLm1hZT4nLCAnLW9tYWUnLCAnPG91dGZpbGUubWFlPic=

> <r_lp_tautomer_probability>
1

> <r_epik_Ionization_Penalty>
2.29506e-06

> <r_epik_Ionization_Penalty_Charging>
8.26867e-09

> <r_epik_Ionization_Penalty_Neutral>
2.2868e-06

> <r_epik_State_Penalty>
-0

> <r_epik_Charging_Adjusted_Penalty>
8.26867e-09

> <i_epik_Tot_Q>
0

> <i_epik_Tot_abs_Q>
0

> <r_epik_Metal_State_Penalty>
-0

> <b_epik_Metal_Only>
0

> <s_epik_Chemistry_Notes>
This compound has an ester and may undergo hydrolysis at high or low pH. This compound contains an acetal/aminal-like group ( X-CH(R)-Y where X, Y are N, S, or O) that may be acid/base labile, releasing an aldehyde.

> <s_lp_Force_Field>
OPLS_2005

> <r_lp_Energy>
41.2702

> <b_lp_Chiralities_Consistent>
1

> <s_lp_Variant>
AV-unprocessed.smi:40-14

> <Gold.Version>
5.8.1

> <Gold.Id.Protein>
6NUR|6NUR_protein|mol2

> <Gold.PLP.Fitness>
40.2565

> <Gold.PLP.PLP>
-32.3309

> <Gold.PLP.part.hbond>
-2.9888

> <Gold.PLP.part.metal>
0.0000

> <Gold.PLP.part.buried>
-5.3126

> <Gold.PLP.part.nonpolar>
-24.9943

> <Gold.PLP.part.repulsive>
0.0954

> <Gold.PLP.ligand.clash>
0.0000

> <Gold.PLP.ligand.torsion>
0.6426

> <Gold.PLP.Chemscore.Hbond>
3.0000

> <Gold.PLP.Chemscore.CHOScore>
0.0000

> <Gold.PLP.Chemscore.Metal>
0.0000

> <Gold.Chemscore.Hbonds>
donor molecule, donor type, donor heavy atom, donor atom, acceptor molecule, acceptor atom, score
      P1  H  6896  6909       L1    16  0.31
      P1  H  7997  8009       L1     8  0.57
      P1  H 10752 10765       L1    13  1.00

> <Gold.PLP.Chemscore.Internal.Correction>
0.2107

> <Gold.Rescore>
     Score         DG    S(hbond)    S(metal)    S(lipo)     H(rot)  DE(clash)    DE(int)     intcor
      8.07     -14.11       2.66        0.00      78.64       3.70       0.11       5.93       ----

> <Gold.Chemscore.Fitness>
8.0693

> <Gold.Chemscore.DG>
-14.1107

> <Gold.Chemscore.ZeroCoef>
-5.4800

> <Gold.Chemscore.Hbond>
2.6619

> <Gold.Chemscore.Metal>
0.0000

> <Gold.Chemscore.Lipo>
78.6409

> <Gold.Chemscore.Internal_Hbond>
0.0000

> <Gold.Chemscore.DEClash>
0.1147

> <Gold.Chemscore.DEInternal>
5.9267

> <Gold.Chemscore.Rot>
3.6957

> <Gold.Chemscore.Internal.Correction>
   9.000000E+99

> <Gold.Chemscore.Hbonds>
donor molecule, donor type, donor heavy atom, donor atom, acceptor molecule, acceptor atom, score
      P1  H  6896  6909       L1    16  0.08
      P1  H  7997  8009       L1     8  0.19
      P1  H 10752 10765       L1    13  0.93

> <Gold.Chemscore.Hbond.Weighted>
-8.8907

> <Gold.Chemscore.Metal.Weighted>
-0.0000

> <Gold.Chemscore.Lipo.Weighted>
-9.2010

> <Gold.Chemscore.Internal_Hbond.Weighted>
0.0000

> <Gold.Chemscore.DEClash.Weighted>
0.1147

> <Gold.Chemscore.DEInternal.Weighted>
5.9267

> <Gold.Chemscore.Rot.Weighted>
9.4610

> <Gold.Chemscore.Internal.Correction.Weighted>
   9.000000E+99

> <Gold.Protein.RotatedTorsions>
[ 6907 6896 6895 6894 ] final -126.33 input  -60.11 | X-H torsion
[ 7974 7965 7964 7962 ] final    1.32 input  175.53 | X-H torsion
[ 8008 7997 7996 7995 ] final  173.27 input   59.86 | X-H torsion
[ 10167 10162 10161 10158 ] final -152.45 input  -65.29 | X-H torsion
[ 10718 10713 10712 10709 ] final -107.62 input   66.30 | X-H torsion
[ 10763 10752 10751 10750 ] final -103.54 input  -60.55 | X-H torsion
[ 11005 11000 10999 10996 ] final  -47.37 input  -57.11 | X-H torsion

> <Gold.Protein.ActiveResidues>
 VAL166  LYS551  ARG553  GLY616  TRP617  ASP618  TYR619  PRO620  LYS621  CYS622 
 ASP623  PHE694  ASN695  SER759  ASP760  ASP761  ALA762  ILE779  LEU786  VAL792 
 PHE793  MET794  SER795  GLU796  ALA797  LYS798  CYS799  TRP800  GLU811  SER814 

> <Gold.Protein.RotatedAtoms>
  150.8958  133.7183  159.2891 H   0  0  0  0  0  0  0  0  0  0  0  0  # atno 6907 bound_to 6896
  151.4718  135.1045  159.9763 H   0  0  0  0  0  0  0  0  0  0  0  0  # atno 6908 bound_to 6896
  152.4848  133.8296  159.7152 H   0  0  0  0  0  0  0  0  0  0  0  0  # atno 6909 bound_to 6896
  146.2439  140.1004  142.8348 H   0  0  0  0  0  0  0  0  0  0  0  0  # atno 7974 bound_to 7965
  156.1092  140.1464  156.9362 H   0  0  0  0  0  0  0  0  0  0  0  0  # atno 8008 bound_to 7997
  154.4755  140.0896  156.7295 H   0  0  0  0  0  0  0  0  0  0  0  0  # atno 8009 bound_to 7997
  155.4626  140.3439  155.4317 H   0  0  0  0  0  0  0  0  0  0  0  0  # atno 8010 bound_to 7997
  139.7180  143.9002  152.2493 H   0  0  0  0  0  0  0  0  0  0  0  0  # atno 10167 bound_to 10162
  156.0445  130.5672  150.7847 H   0  0  0  0  0  0  0  0  0  0  0  0  # atno 10718 bound_to 10713
  154.7815  135.4819  153.9854 H   0  0  0  0  0  0  0  0  0  0  0  0  # atno 10763 bound_to 10752
  153.1500  135.6789  153.8904 H   0  0  0  0  0  0  0  0  0  0  0  0  # atno 10764 bound_to 10752
  153.8551  135.3162  155.3413 H   0  0  0  0  0  0  0  0  0  0  0  0  # atno 10765 bound_to 10752
  141.0636  133.6701  156.3288 H   0  0  0  0  0  0  0  0  0  0  0  0  # atno 11005 bound_to 11000
  145.0573  140.9062  143.4960 LP  0  0  0  0  0  0  0  0  0  0  0  0  # atno 17320 bound_to 7965
  145.1113  139.2755  143.5636 LP  0  0  0  0  0  0  0  0  0  0  0  0  # atno 17321 bound_to 7965
  139.8890  144.6976  150.8791 LP  0  0  0  0  0  0  0  0  0  0  0  0  # atno 17342 bound_to 10162
  140.7748  143.3601  151.1845 LP  0  0  0  0  0  0  0  0  0  0  0  0  # atno 17343 bound_to 10162
  157.5305  131.0936  150.9961 LP  0  0  0  0  0  0  0  0  0  0  0  0  # atno 17370 bound_to 10713
  157.0269  130.5696  149.5338 LP  0  0  0  0  0  0  0  0  0  0  0  0  # atno 17371 bound_to 10713
  140.5818  134.5738  157.5481 LP  0  0  0  0  0  0  0  0  0  0  0  0  # atno 17394 bound_to 11000
  139.9456  134.7709  156.0571 LP  0  0  0  0  0  0  0  0  0  0  0  0  # atno 17395 bound_to 11000

$$$$
