AV-unprocessed.smi:1231|AV-procd|sdf|5163|dock1
  -GOLD-   22720 4233D 1   1.00000     0.00000
 Structure written by MMmdl.
 43 44  0  0  0  0  0  0  0  0  2 V2000
  152.6650  138.4368  154.5536 C   0  0  0  0  0  0  0  0  0  0  0  0
  151.2497  137.8797  154.3651 C   0  0  2  0  0  0  0  0  0  0  0  0
  150.2324  138.9880  154.0396 C   0  0  0  0  0  0  0  0  0  0  0  0
  148.8645  138.4270  153.9530 N   0  3  2  0  0  0  0  0  0  0  0  0
  147.8633  139.4394  153.5359 C   0  0  0  0  0  0  0  0  0  0  0  0
  146.5622  138.7991  153.0134 C   0  0  0  0  0  0  0  0  0  0  0  0
  146.7992  137.4681  152.4663 N   0  0  0  0  0  0  0  0  0  0  0  0
  145.8412  136.5675  152.2026 C   0  0  0  0  0  0  0  0  0  0  0  0
  144.6434  136.7811  152.3932 O   0  0  0  0  0  0  0  0  0  0  0  0
  146.3619  135.4280  151.7142 N   0  0  0  0  0  0  0  0  0  0  0  0
  145.6733  134.2596  151.2920 C   0  0  0  0  0  0  0  0  0  0  0  0
  146.5003  133.2145  150.8216 C   0  0  0  0  0  0  0  0  0  0  0  0
  145.9137  132.0138  150.3767 C   0  0  0  0  0  0  0  0  0  0  0  0
  144.5134  131.8898  150.4121 C   0  0  0  0  0  0  0  0  0  0  0  0
  143.7633  132.9782  150.8942 C   0  0  0  0  0  0  0  0  0  0  0  0
  144.3234  134.1296  151.3216 N   0  0  0  0  0  0  0  0  0  0  0  0
  148.5154  137.7319  155.2167 C   0  0  0  0  0  0  0  0  0  0  0  0
  149.5631  136.6573  155.5662 C   0  0  1  0  0  0  0  0  0  0  0  0
  149.4770  135.4054  154.6749 C   0  0  0  0  0  0  0  0  0  0  0  0
  150.8716  137.2281  155.5748 O   0  0  0  0  0  0  0  0  0  0  0  0
  153.0155  138.9345  153.6492 H   0  0  0  0  0  0  0  0  0  0  0  0
  153.3694  137.6384  154.7876 H   0  0  0  0  0  0  0  0  0  0  0  0
  152.6994  139.1601  155.3689 H   0  0  0  0  0  0  0  0  0  0  0  0
  151.2777  137.1563  153.5499 H   0  0  0  0  0  0  0  0  0  0  0  0
  150.2588  139.7665  154.8042 H   0  0  0  0  0  0  0  0  0  0  0  0
  150.4992  139.4602  153.0931 H   0  0  0  0  0  0  0  0  0  0  0  0
  147.6647  140.1174  154.3673 H   0  0  0  0  0  0  0  0  0  0  0  0
  148.2845  140.0493  152.7352 H   0  0  0  0  0  0  0  0  0  0  0  0
  145.8406  138.7082  153.8255 H   0  0  0  0  0  0  0  0  0  0  0  0
  146.0914  139.4159  152.2475 H   0  0  0  0  0  0  0  0  0  0  0  0
  147.7588  137.2122  152.2843 H   0  0  0  0  0  0  0  0  0  0  0  0
  147.3669  135.3932  151.6284 H   0  0  0  0  0  0  0  0  0  0  0  0
  147.5744  133.3271  150.8001 H   0  0  0  0  0  0  0  0  0  0  0  0
  146.5282  131.2031  150.0138 H   0  0  0  0  0  0  0  0  0  0  0  0
  144.0268  130.9850  150.0791 H   0  0  0  0  0  0  0  0  0  0  0  0
  142.6856  132.9239  150.9377 H   0  0  0  0  0  0  0  0  0  0  0  0
  148.4614  138.4652  156.0230 H   0  0  0  0  0  0  0  0  0  0  0  0
  147.5312  137.2695  155.1497 H   0  0  0  0  0  0  0  0  0  0  0  0
  149.3721  136.3283  156.5880 H   0  0  0  0  0  0  0  0  0  0  0  0
  148.5107  134.9144  154.7929 H   0  0  0  0  0  0  0  0  0  0  0  0
  150.2477  134.6831  154.9439 H   0  0  0  0  0  0  0  0  0  0  0  0
  149.5922  135.6401  153.6170 H   0  0  0  0  0  0  0  0  0  0  0  0
  148.8894  137.7277  153.2247 H   0  0  0  0  0  0  0  0  0  0  0  0
  1  2  1  0  0  0  0
  1 21  1  0  0  0  0
  1 22  1  0  0  0  0
  1 23  1  0  0  0  0
  2 20  1  0  0  0  0
  2  3  1  0  0  0  0
  2 24  1  0  0  0  0
  3  4  1  0  0  0  0
  3 25  1  0  0  0  0
  3 26  1  0  0  0  0
  4  5  1  0  0  0  0
  4 17  1  0  0  0  0
  4 43  1  0  0  0  0
  5  6  1  0  0  0  0
  5 27  1  0  0  0  0
  5 28  1  0  0  0  0
  6  7  1  0  0  0  0
  6 29  1  0  0  0  0
  6 30  1  0  0  0  0
  7  8  1  0  0  0  0
  7 31  1  0  0  0  0
  8  9  2  0  0  0  0
  8 10  1  0  0  0  0
 10 11  1  0  0  0  0
 10 32  1  0  0  0  0
 11 16  1  0  0  0  0
 11 12  2  0  0  0  0
 12 13  1  0  0  0  0
 12 33  1  0  0  0  0
 13 14  2  0  0  0  0
 13 34  1  0  0  0  0
 14 15  1  0  0  0  0
 14 35  1  0  0  0  0
 15 16  2  0  0  0  0
 15 36  1  0  0  0  0
 17 18  1  0  0  0  0
 17 37  1  0  0  0  0
 17 38  1  0  0  0  0
 18 19  1  0  0  0  0
 18 20  1  0  0  0  0
 18 39  1  0  0  0  0
 19 40  1  0  0  0  0
 19 41  1  0  0  0  0
 19 42  1  0  0  0  0
M  CHG  1   4   1
M  END
> <s_m_source_file>
AV-unprocessed.smi

> <i_m_source_file_index>
1231

> <i_lp_mmshare_version>
43012

> <i_f3d_flags>
0

> <s_epik_input>
W0NIM11bQ0BASF0xW0NIMl1OKFtDSDJdW0NASF0oTzEpW0NIM10pW0NIMl1bQ0gyXVtOSF1DKD1PKVtOSF1jMltjSF1bY0hdW2NIXVtjSF1uMg==

> <s_epik_cmdline>
J2VwaWtfcHl0aG9uJywgJy1waCcsICc3LjAnLCAnLXRuJywgJzgnLCAnLW1hJywgJzIwMCcsICctbWV0YWxfYmluZGluZycsICctaW1hZScsICc8aW5maWxlLm1hZT4nLCAnLW9tYWUnLCAnPG91dGZpbGUubWFlPic=

> <r_epik_Ionization_Penalty>
0.602565

> <r_epik_Ionization_Penalty_Charging>
0.602531

> <r_epik_Ionization_Penalty_Neutral>
3.43186e-05

> <r_epik_State_Penalty>
0.617039

> <r_epik_Charging_Adjusted_Penalty>
1.21957

> <i_epik_Tot_Q>
1

> <i_epik_Tot_abs_Q>
1

> <r_epik_Metal_State_Penalty>
0.617041

> <b_epik_Metal_Only>
0

> <s_lp_Force_Field>
OPLS_2005

> <r_lp_Energy>
18.1203

> <b_lp_Chiralities_Consistent>
1

> <s_lp_Variant>
AV-unprocessed.smi:1231-4

> <Gold.Version>
5.8.1

> <Gold.Id.Protein>
6NUR|6NUR_protein|mol2

> <Gold.PLP.Fitness>
47.8829

> <Gold.PLP.PLP>
-33.7470

> <Gold.PLP.part.hbond>
-3.0000

> <Gold.PLP.part.metal>
0.0000

> <Gold.PLP.part.buried>
-1.6539

> <Gold.PLP.part.nonpolar>
-29.7297

> <Gold.PLP.part.repulsive>
0.5649

> <Gold.PLP.ligand.clash>
0.0000

> <Gold.PLP.ligand.torsion>
0.4278

> <Gold.PLP.Chemscore.Hbond>
3.9920

> <Gold.PLP.Chemscore.CHOScore>
0.9984

> <Gold.PLP.Chemscore.Metal>
0.0000

> <Gold.Chemscore.Hbonds>
donor molecule, donor type, donor heavy atom, donor atom, acceptor molecule, acceptor atom, score
      L1  H     4    43       P1  7948  2.00
      L1  H     7    31       P1  7948  1.00
      L1  H    10    32       P1  7948  0.99
      L1  C    15    36       P1 10186  0.68

> <Gold.PLP.Chemscore.Internal.Correction>
0.0202

> <Gold.Rescore>
     Score         DG    S(hbond)    S(metal)    S(lipo)     H(rot)  DE(clash)    DE(int)     intcor
     18.29     -21.01       2.88        0.00      84.40       1.55       1.00       1.72       ----

> <Gold.Chemscore.Fitness>
18.2916

> <Gold.Chemscore.DG>
-21.0072

> <Gold.Chemscore.ZeroCoef>
-5.4800

> <Gold.Chemscore.Hbond>
2.8837

> <Gold.Chemscore.Metal>
0.0000

> <Gold.Chemscore.Lipo>
84.4048

> <Gold.Chemscore.Internal_Hbond>
0.0000

> <Gold.Chemscore.DEClash>
0.9999

> <Gold.Chemscore.DEInternal>
1.7156

> <Gold.Chemscore.Rot>
1.5546

> <Gold.Chemscore.Internal.Correction>
   9.000000E+99

> <Gold.Chemscore.Hbonds>
donor molecule, donor type, donor heavy atom, donor atom, acceptor molecule, acceptor atom, score
      L1  H     4    43       P1  7948  0.96
      L1  H     7    31       P1  7948  0.96
      L1  H    10    32       P1  7948  0.89

> <Gold.Chemscore.Hbond.Weighted>
-9.6315

> <Gold.Chemscore.Metal.Weighted>
-0.0000

> <Gold.Chemscore.Lipo.Weighted>
-9.8754

> <Gold.Chemscore.Internal_Hbond.Weighted>
0.0000

> <Gold.Chemscore.DEClash.Weighted>
0.9999

> <Gold.Chemscore.DEInternal.Weighted>
1.7156

> <Gold.Chemscore.Rot.Weighted>
3.9797

> <Gold.Chemscore.Internal.Correction.Weighted>
   9.000000E+99

> <Gold.Protein.RotatedTorsions>
[ 6907 6896 6895 6894 ] final  137.21 input  -60.11 | X-H torsion
[ 7974 7965 7964 7962 ] final  116.91 input  175.53 | X-H torsion
[ 8008 7997 7996 7995 ] final  -41.73 input   59.86 | X-H torsion
[ 10167 10162 10161 10158 ] final  -17.25 input  -65.29 | X-H torsion
[ 10718 10713 10712 10709 ] final   38.49 input   66.30 | X-H torsion
[ 10763 10752 10751 10750 ] final  135.20 input  -60.55 | X-H torsion
[ 11005 11000 10999 10996 ] final   77.56 input  -57.11 | X-H torsion

> <Gold.Protein.ActiveResidues>
 VAL166  LYS551  ARG553  GLY616  TRP617  ASP618  TYR619  PRO620  LYS621  CYS622 
 ASP623  PHE694  ASN695  SER759  ASP760  ASP761  ALA762  ILE779  LEU786  VAL792 
 PHE793  MET794  SER795  GLU796  ALA797  LYS798  CYS799  TRP800  GLU811  SER814 

> <Gold.Protein.RotatedAtoms>
  152.2806  133.5467  159.5495 H   0  0  0  0  0  0  0  0  0  0  0  0  # atno 6907 bound_to 6896
  150.7194  134.0569  159.3826 H   0  0  0  0  0  0  0  0  0  0  0  0  # atno 6908 bound_to 6896
  151.8480  135.0568  160.0506 H   0  0  0  0  0  0  0  0  0  0  0  0  # atno 6909 bound_to 6896
  145.1738  139.3087  143.4453 H   0  0  0  0  0  0  0  0  0  0  0  0  # atno 7974 bound_to 7965
  154.4002  140.1492  156.3238 H   0  0  0  0  0  0  0  0  0  0  0  0  # atno 8008 bound_to 7997
  155.8505  140.3458  155.5669 H   0  0  0  0  0  0  0  0  0  0  0  0  # atno 8009 bound_to 7997
  155.7989  140.0867  157.1958 H   0  0  0  0  0  0  0  0  0  0  0  0  # atno 8010 bound_to 7997
  140.7245  143.5034  150.9840 H   0  0  0  0  0  0  0  0  0  0  0  0  # atno 10167 bound_to 10162
  157.3594  130.7641  149.7036 H   0  0  0  0  0  0  0  0  0  0  0  0  # atno 10718 bound_to 10713
  153.8361  135.3097  155.3422 H   0  0  0  0  0  0  0  0  0  0  0  0  # atno 10763 bound_to 10752
  154.7952  135.4759  154.0148 H   0  0  0  0  0  0  0  0  0  0  0  0  # atno 10764 bound_to 10752
  153.1604  135.6860  153.8842 H   0  0  0  0  0  0  0  0  0  0  0  0  # atno 10765 bound_to 10752
  139.9249  134.7692  156.1537 H   0  0  0  0  0  0  0  0  0  0  0  0  # atno 11005 bound_to 11000
  146.3464  140.1893  142.8589 LP  0  0  0  0  0  0  0  0  0  0  0  0  # atno 17320 bound_to 7965
  145.0205  140.8790  143.5169 LP  0  0  0  0  0  0  0  0  0  0  0  0  # atno 17321 bound_to 7965
  139.8744  143.7151  152.3163 LP  0  0  0  0  0  0  0  0  0  0  0  0  # atno 17342 bound_to 10162
  139.7411  144.7559  151.0651 LP  0  0  0  0  0  0  0  0  0  0  0  0  # atno 17343 bound_to 10162
  155.9735  130.4118  150.3999 LP  0  0  0  0  0  0  0  0  0  0  0  0  # atno 17370 bound_to 10713
  157.2074  131.0452  151.2618 LP  0  0  0  0  0  0  0  0  0  0  0  0  # atno 17371 bound_to 10713
  141.0800  133.6758  156.2315 LP  0  0  0  0  0  0  0  0  0  0  0  0  # atno 17394 bound_to 11000
  140.6364  134.5211  157.5565 LP  0  0  0  0  0  0  0  0  0  0  0  0  # atno 17395 bound_to 11000

$$$$
