AV-unprocessed.smi:1047|AV-procd|sdf|4574|dock2
  -GOLD-   22720 3 33D 1   1.00000     0.00000
 Structure written by MMmdl.
 56 58  0  0  0  0  0  0  0  0  2 V2000
  144.1212  145.5677  158.8368 C   0  0  0  0  0  0  0  0  0  0  0  0
  144.6626  144.2986  158.1643 C   0  0  0  0  0  0  0  0  0  0  0  0
  145.9316  143.8273  158.7797 N   0  3  1  0  0  0  0  0  0  0  0  0
  145.8426  143.5198  160.2300 C   0  0  0  0  0  0  0  0  0  0  0  0
  145.1767  142.1531  160.4766 C   0  0  0  0  0  0  0  0  0  0  0  0
  145.8704  141.1454  159.7511 O   0  0  0  0  0  0  0  0  0  0  0  0
  145.8414  141.3658  158.3440 C   0  0  2  0  0  0  0  0  0  0  0  0
  146.5400  140.1788  157.6649 C   0  0  0  0  0  0  0  0  0  0  0  0
  146.5687  140.3508  156.2164 N   0  0  0  0  0  0  0  0  0  0  0  0
  147.8077  139.8869  155.5993 C   0  0  0  0  0  0  0  0  0  0  0  0
  148.2364  140.8176  154.4479 C   0  0  2  0  0  0  0  0  0  0  0  0
  147.9272  140.1889  153.2208 O   0  0  0  0  0  0  0  0  0  0  0  0
  149.7467  141.1242  154.4309 C   0  0  0  0  0  0  0  0  0  0  0  0
  150.4515  140.5528  155.5640 N   0  0  0  0  0  0  0  0  0  0  0  0
  150.7398  139.2525  155.7653 C   0  0  0  0  0  0  0  0  0  0  0  0
  151.3915  138.9390  156.8813 N   0  0  0  0  0  0  0  0  0  0  0  0
  151.5379  140.1802  157.4766 C   0  0  0  0  0  0  0  0  0  0  0  0
  152.1441  140.5442  158.6989 C   0  0  0  0  0  0  0  0  0  0  0  0
  152.1781  141.8934  159.1176 C   0  0  0  0  0  0  0  0  0  0  0  0
  152.8350  142.2396  160.4424 C   0  0  0  0  0  0  0  0  0  0  0  0
  151.6023  142.9038  158.3062 C   0  0  0  0  0  0  0  0  0  0  0  0
  151.6296  144.3604  158.7338 C   0  0  0  0  0  0  0  0  0  0  0  0
  150.9928  142.5577  157.0822 C   0  0  0  0  0  0  0  0  0  0  0  0
  150.9614  141.2111  156.6781 C   0  0  0  0  0  0  0  0  0  0  0  0
  146.5610  142.6990  158.0493 C   0  0  0  0  0  0  0  0  0  0  0  0
  143.2537  145.9463  158.2961 H   0  0  0  0  0  0  0  0  0  0  0  0
  144.8720  146.3585  158.8490 H   0  0  0  0  0  0  0  0  0  0  0  0
  143.8056  145.3856  159.8635 H   0  0  0  0  0  0  0  0  0  0  0  0
  143.9079  143.5122  158.1740 H   0  0  0  0  0  0  0  0  0  0  0  0
  144.8444  144.5346  157.1151 H   0  0  0  0  0  0  0  0  0  0  0  0
  146.8559  143.4989  160.6332 H   0  0  0  0  0  0  0  0  0  0  0  0
  145.3190  144.3063  160.7719 H   0  0  0  0  0  0  0  0  0  0  0  0
  145.2129  141.9072  161.5379 H   0  0  0  0  0  0  0  0  0  0  0  0
  144.1233  142.1633  160.1942 H   0  0  0  0  0  0  0  0  0  0  0  0
  144.8082  141.4200  157.9954 H   0  0  0  0  0  0  0  0  0  0  0  0
  147.5621  140.0963  158.0367 H   0  0  0  0  0  0  0  0  0  0  0  0
  146.0350  139.2494  157.9317 H   0  0  0  0  0  0  0  0  0  0  0  0
  145.7819  139.8606  155.8028 H   0  0  0  0  0  0  0  0  0  0  0  0
  148.5856  139.8600  156.3626 H   0  0  0  0  0  0  0  0  0  0  0  0
  147.6993  138.8643  155.2349 H   0  0  0  0  0  0  0  0  0  0  0  0
  147.6868  141.7585  154.5053 H   0  0  0  0  0  0  0  0  0  0  0  0
  148.6629  140.2920  152.6372 H   0  0  0  0  0  0  0  0  0  0  0  0
  150.1995  140.7484  153.5125 H   0  0  0  0  0  0  0  0  0  0  0  0
  149.9130  142.2023  154.4392 H   0  0  0  0  0  0  0  0  0  0  0  0
  150.4556  138.4938  155.0508 H   0  0  0  0  0  0  0  0  0  0  0  0
  152.5826  139.7741  159.3165 H   0  0  0  0  0  0  0  0  0  0  0  0
  152.1127  142.6981  161.1186 H   0  0  0  0  0  0  0  0  0  0  0  0
  153.6595  142.9366  160.2903 H   0  0  0  0  0  0  0  0  0  0  0  0
  153.2348  141.3515  160.9329 H   0  0  0  0  0  0  0  0  0  0  0  0
  151.1446  145.0007  157.9965 H   0  0  0  0  0  0  0  0  0  0  0  0
  152.6573  144.7047  158.8513 H   0  0  0  0  0  0  0  0  0  0  0  0
  151.1098  144.4899  159.6832 H   0  0  0  0  0  0  0  0  0  0  0  0
  150.5506  143.3183  156.4559 H   0  0  0  0  0  0  0  0  0  0  0  0
  146.5798  142.9034  156.9780 H   0  0  0  0  0  0  0  0  0  0  0  0
  147.6031  142.6274  158.3640 H   0  0  0  0  0  0  0  0  0  0  0  0
  146.5709  144.6042  158.6891 H   0  0  0  0  0  0  0  0  0  0  0  0
  1  2  1  0  0  0  0
  1 26  1  0  0  0  0
  1 27  1  0  0  0  0
  1 28  1  0  0  0  0
  2  3  1  0  0  0  0
  2 29  1  0  0  0  0
  2 30  1  0  0  0  0
  3 25  1  0  0  0  0
  3  4  1  0  0  0  0
  3 56  1  0  0  0  0
  4  5  1  0  0  0  0
  4 31  1  0  0  0  0
  4 32  1  0  0  0  0
  5  6  1  0  0  0  0
  5 33  1  0  0  0  0
  5 34  1  0  0  0  0
  6  7  1  0  0  0  0
  7  8  1  0  0  0  0
  7 25  1  0  0  0  0
  7 35  1  0  0  0  0
  8  9  1  0  0  0  0
  8 36  1  0  0  0  0
  8 37  1  0  0  0  0
  9 10  1  0  0  0  0
  9 38  1  0  0  0  0
 10 11  1  0  0  0  0
 10 39  1  0  0  0  0
 10 40  1  0  0  0  0
 11 12  1  0  0  0  0
 11 13  1  0  0  0  0
 11 41  1  0  0  0  0
 12 42  1  0  0  0  0
 13 14  1  0  0  0  0
 13 43  1  0  0  0  0
 13 44  1  0  0  0  0
 14 24  1  0  0  0  0
 14 15  1  0  0  0  0
 15 16  2  0  0  0  0
 15 45  1  0  0  0  0
 16 17  1  0  0  0  0
 17 24  2  0  0  0  0
 17 18  1  0  0  0  0
 18 19  2  0  0  0  0
 18 46  1  0  0  0  0
 19 20  1  0  0  0  0
 19 21  1  0  0  0  0
 20 47  1  0  0  0  0
 20 48  1  0  0  0  0
 20 49  1  0  0  0  0
 21 22  1  0  0  0  0
 21 23  2  0  0  0  0
 22 50  1  0  0  0  0
 22 51  1  0  0  0  0
 22 52  1  0  0  0  0
 23 24  1  0  0  0  0
 23 53  1  0  0  0  0
 25 54  1  0  0  0  0
 25 55  1  0  0  0  0
M  CHG  1   3   1
M  END
> <s_m_source_file>
AV-unprocessed.smi

> <i_m_source_file_index>
1047

> <i_lp_mmshare_version>
43012

> <i_f3d_flags>
0

> <s_epik_input>
W0NIM11bQ0gyXU4xW0NIMl1bQ0gyXU9bQ0BIXShbQ0gyXTEpW0NIMl1bTkhdW0NIMl1bQ0BIXShbT0hdKVtDSDJdbihbY0hdbjIpYyhjMjMpW2NIXWMoW0NIM10pYyhbY0hdMylbQ0gzXQ==

> <s_epik_cmdline>
J2VwaWtfcHl0aG9uJywgJy1waCcsICc3LjAnLCAnLXRuJywgJzgnLCAnLW1hJywgJzIwMCcsICctbWV0YWxfYmluZGluZycsICctaW1hZScsICc8aW5maWxlLm1hZT4nLCAnLW9tYWUnLCAnPG91dGZpbGUubWFlPic=

> <r_epik_Ionization_Penalty>
1.19246

> <r_epik_Ionization_Penalty_Charging>
0.210041

> <r_epik_Ionization_Penalty_Neutral>
0.982415

> <r_epik_State_Penalty>
1.57595

> <r_epik_Charging_Adjusted_Penalty>
1.78599

> <i_epik_Tot_Q>
1

> <i_epik_Tot_abs_Q>
1

> <r_epik_Metal_State_Penalty>
1.46172

> <b_epik_Metal_Only>
0

> <s_lp_Force_Field>
OPLS_2005

> <r_lp_Energy>
32.9743

> <b_lp_Chiralities_Consistent>
1

> <s_lp_Variant>
AV-unprocessed.smi:1047-15

> <Gold.Version>
5.8.1

> <Gold.Id.Protein>
6NUR|6NUR_protein|mol2

> <Gold.PLP.Fitness>
48.1252

> <Gold.PLP.PLP>
-40.1629

> <Gold.PLP.part.hbond>
-3.0000

> <Gold.PLP.part.metal>
0.0000

> <Gold.PLP.part.buried>
-2.2538

> <Gold.PLP.part.nonpolar>
-34.5811

> <Gold.PLP.part.repulsive>
0.0000

> <Gold.PLP.ligand.clash>
0.0000

> <Gold.PLP.ligand.torsion>
2.0437

> <Gold.PLP.Chemscore.Hbond>
4.0000

> <Gold.PLP.Chemscore.CHOScore>
0.0000

> <Gold.PLP.Chemscore.Metal>
0.0000

> <Gold.Chemscore.Hbonds>
donor molecule, donor type, donor heavy atom, donor atom, acceptor molecule, acceptor atom, score
      L1  H     3    56       P1  8029  0.46
      L1  H    12    42       P1  7957  1.00
      P1  H  6934  6946       L1     6  0.63

> <Gold.PLP.Chemscore.Internal.Correction>
0.0498

> <Gold.Rescore>
     Score         DG    S(hbond)    S(metal)    S(lipo)     H(rot)  DE(clash)    DE(int)     intcor
     16.89     -20.35       2.91        0.00     101.32       2.62       1.24       2.22       ----

> <Gold.Chemscore.Fitness>
16.8858

> <Gold.Chemscore.DG>
-20.3467

> <Gold.Chemscore.ZeroCoef>
-5.4800

> <Gold.Chemscore.Hbond>
2.9109

> <Gold.Chemscore.Metal>
0.0000

> <Gold.Chemscore.Lipo>
101.3162

> <Gold.Chemscore.Internal_Hbond>
0.0000

> <Gold.Chemscore.DEClash>
1.2393

> <Gold.Chemscore.DEInternal>
2.2216

> <Gold.Chemscore.Rot>
2.6209

> <Gold.Chemscore.Internal.Correction>
   9.000000E+99

> <Gold.Chemscore.Hbonds>
donor molecule, donor type, donor heavy atom, donor atom, acceptor molecule, acceptor atom, score
      L1  H     3    56       P1  8029  0.22
      L1  H    12    42       P1  7957  0.99
      P1  H  6934  6946       L1     6  0.15

> <Gold.Chemscore.Hbond.Weighted>
-9.7223

> <Gold.Chemscore.Metal.Weighted>
-0.0000

> <Gold.Chemscore.Lipo.Weighted>
-11.8540

> <Gold.Chemscore.Internal_Hbond.Weighted>
0.0000

> <Gold.Chemscore.DEClash.Weighted>
1.2393

> <Gold.Chemscore.DEInternal.Weighted>
2.2216

> <Gold.Chemscore.Rot.Weighted>
6.7096

> <Gold.Chemscore.Internal.Correction.Weighted>
   9.000000E+99

> <Gold.Protein.RotatedTorsions>
[ 6907 6896 6895 6894 ] final   23.04 input  -60.11 | X-H torsion
[ 7974 7965 7964 7962 ] final -114.03 input  175.53 | X-H torsion
[ 8008 7997 7996 7995 ] final  -53.24 input   59.86 | X-H torsion
[ 10167 10162 10161 10158 ] final -130.03 input  -65.29 | X-H torsion
[ 10718 10713 10712 10709 ] final    3.06 input   66.30 | X-H torsion
[ 10763 10752 10751 10750 ] final   90.61 input  -60.55 | X-H torsion
[ 11005 11000 10999 10996 ] final -131.54 input  -57.11 | X-H torsion

> <Gold.Protein.ActiveResidues>
 VAL166  LYS551  ARG553  GLY616  TRP617  ASP618  TYR619  PRO620  LYS621  CYS622 
 ASP623  PHE694  ASN695  SER759  ASP760  ASP761  ALA762  ILE779  LEU786  VAL792 
 PHE793  MET794  SER795  GLU796  ALA797  LYS798  CYS799  TRP800  GLU811  SER814 

> <Gold.Protein.RotatedAtoms>
  151.9362  135.0234  160.0532 H   0  0  0  0  0  0  0  0  0  0  0  0  # atno 6907 bound_to 6896
  152.2075  133.4882  159.5100 H   0  0  0  0  0  0  0  0  0  0  0  0  # atno 6908 bound_to 6896
  150.6968  134.1427  159.4153 H   0  0  0  0  0  0  0  0  0  0  0  0  # atno 6909 bound_to 6896
  145.1250  140.8691  143.3791 H   0  0  0  0  0  0  0  0  0  0  0  0  # atno 7974 bound_to 7965
  154.4128  140.1205  156.5121 H   0  0  0  0  0  0  0  0  0  0  0  0  # atno 8008 bound_to 7997
  155.6788  140.3496  155.4828 H   0  0  0  0  0  0  0  0  0  0  0  0  # atno 8009 bound_to 7997
  155.9569  140.1115  157.0919 H   0  0  0  0  0  0  0  0  0  0  0  0  # atno 8010 bound_to 7997
  139.9336  143.6244  152.2523 H   0  0  0  0  0  0  0  0  0  0  0  0  # atno 10167 bound_to 10162
  156.8722  130.5624  149.5657 H   0  0  0  0  0  0  0  0  0  0  0  0  # atno 10718 bound_to 10713
  153.1994  135.4427  155.0248 H   0  0  0  0  0  0  0  0  0  0  0  0  # atno 10763 bound_to 10752
  154.8138  135.3306  154.7235 H   0  0  0  0  0  0  0  0  0  0  0  0  # atno 10764 bound_to 10752
  153.7681  135.6986  153.4967 H   0  0  0  0  0  0  0  0  0  0  0  0  # atno 10765 bound_to 10752
  140.9249  134.1396  157.4283 H   0  0  0  0  0  0  0  0  0  0  0  0  # atno 11005 bound_to 11000
  145.0698  139.3040  143.5838 LP  0  0  0  0  0  0  0  0  0  0  0  0  # atno 17320 bound_to 7965
  146.3518  140.0169  142.8662 LP  0  0  0  0  0  0  0  0  0  0  0  0  # atno 17321 bound_to 7965
  139.6762  144.7658  151.1692 LP  0  0  0  0  0  0  0  0  0  0  0  0  # atno 17342 bound_to 10162
  140.7631  143.5791  150.8913 LP  0  0  0  0  0  0  0  0  0  0  0  0  # atno 17343 bound_to 10162
  156.0721  130.5751  150.9403 LP  0  0  0  0  0  0  0  0  0  0  0  0  # atno 17370 bound_to 10713
  157.6189  131.0931  150.8659 LP  0  0  0  0  0  0  0  0  0  0  0  0  # atno 17371 bound_to 10713
  139.8783  134.9985  156.5901 LP  0  0  0  0  0  0  0  0  0  0  0  0  # atno 17394 bound_to 11000
  140.7939  133.8560  155.8669 LP  0  0  0  0  0  0  0  0  0  0  0  0  # atno 17395 bound_to 11000

$$$$
