AV-unprocessed.smi:148|AV-procd|sdf|1221|dock9
  -GOLD-   2262018413D 1   1.00000     0.00000
 Structure written by MMmdl.
 63 67  0  0  0  0  0  0  0  0  1 V2000
  148.3533  142.1270  154.9827 O   0  0  0  0  0  0  0  0  0  0  0  0
  149.3770  141.2013  154.6829 C   0  0  0  0  0  0  0  0  0  0  0  0
  149.3962  140.0326  155.6994 C   0  0  1  0  0  0  0  0  0  0  0  0
  148.0618  139.2402  155.7117 C   0  0  0  0  0  0  0  0  0  0  0  0
  147.8578  138.4836  156.9343 N   0  0  0  0  0  0  0  0  0  0  0  0
  147.0327  138.8212  157.9824 C   0  0  0  0  0  0  0  0  0  0  0  0
  147.0154  137.9698  158.9714 N   0  0  0  0  0  0  0  0  0  0  0  0
  147.8940  136.9684  158.5738 C   0  0  0  0  0  0  0  0  0  0  0  0
  148.3393  135.7435  159.1491 C   0  0  0  0  0  0  0  0  0  0  0  0
  147.9419  135.2543  160.3468 N   0  0  0  0  0  0  0  0  0  0  0  0
  148.1710  136.2653  161.3808 C   0  0  0  0  0  0  0  0  0  0  0  0
  147.9729  135.6910  162.7896 C   0  0  0  0  0  0  0  0  0  0  0  0
  146.5894  135.0448  162.9125 C   0  0  0  0  0  0  0  0  0  0  0  0
  146.4227  133.9773  161.8244 C   0  0  0  0  0  0  0  0  0  0  0  0
  146.6355  134.5712  160.4067 C   0  0  2  0  0  0  0  0  0  0  0  0
  146.4136  133.5254  159.2655 C   0  0  2  0  0  0  0  0  0  0  0  0
  144.9856  132.9390  159.2157 C   0  0  0  0  0  0  0  0  0  0  0  0
  145.1330  131.4362  158.9404 C   0  0  0  0  0  0  0  0  0  0  0  0
  146.5693  131.2495  158.4568 C   0  0  0  0  0  0  0  0  0  0  0  0
  147.3518  132.3007  159.2414 C   0  0  1  0  0  0  0  0  0  0  0  0
  148.5883  132.5723  158.6160 O   0  0  0  0  0  0  0  0  0  0  0  0
  149.2518  135.0136  158.4610 N   0  0  0  0  0  0  0  0  0  0  0  0
  149.6829  135.4336  157.2679 C   0  0  0  0  0  0  0  0  0  0  0  0
  149.3435  136.5374  156.5991 N   0  0  0  0  0  0  0  0  0  0  0  0
  148.4420  137.2839  157.2991 C   0  0  0  0  0  0  0  0  0  0  0  0
  150.6506  139.1331  155.5088 C   0  0  1  0  0  0  0  0  0  0  0  0
  150.7626  138.3830  154.1935 C   0  0  0  0  0  0  0  0  0  0  0  0
  152.2162  137.9253  154.2366 C   0  0  0  0  0  0  0  0  0  0  0  0
  152.9238  138.9841  154.8744 O   0  0  0  0  0  0  0  0  0  0  0  0
  152.0172  139.8241  155.5865 C   0  0  0  0  0  0  0  0  0  0  0  0
  148.7451  142.8907  155.3786 H   0  0  0  0  0  0  0  0  0  0  0  0
  149.1877  140.8458  153.6705 H   0  0  0  0  0  0  0  0  0  0  0  0
  150.3376  141.7165  154.6628 H   0  0  0  0  0  0  0  0  0  0  0  0
  149.4879  140.4845  156.6885 H   0  0  0  0  0  0  0  0  0  0  0  0
  147.2105  139.9072  155.5824 H   0  0  0  0  0  0  0  0  0  0  0  0
  148.0252  138.5292  154.8874 H   0  0  0  0  0  0  0  0  0  0  0  0
  146.4369  139.7226  157.9873 H   0  0  0  0  0  0  0  0  0  0  0  0
  149.1817  136.6684  161.2961 H   0  0  0  0  0  0  0  0  0  0  0  0
  147.4845  137.0990  161.2245 H   0  0  0  0  0  0  0  0  0  0  0  0
  148.7469  134.9507  162.9964 H   0  0  0  0  0  0  0  0  0  0  0  0
  148.0878  136.4792  163.5340 H   0  0  0  0  0  0  0  0  0  0  0  0
  146.4690  134.5988  163.9001 H   0  0  0  0  0  0  0  0  0  0  0  0
  145.8122  135.8034  162.8121 H   0  0  0  0  0  0  0  0  0  0  0  0
  147.1435  133.1846  162.0206 H   0  0  0  0  0  0  0  0  0  0  0  0
  145.4363  133.5260  161.9198 H   0  0  0  0  0  0  0  0  0  0  0  0
  145.8762  135.3429  160.2799 H   0  0  0  0  0  0  0  0  0  0  0  0
  146.5259  134.0225  158.3018 H   0  0  0  0  0  0  0  0  0  0  0  0
  144.4198  133.1032  160.1315 H   0  0  0  0  0  0  0  0  0  0  0  0
  144.4197  133.4183  158.4157 H   0  0  0  0  0  0  0  0  0  0  0  0
  144.9892  130.8817  159.8688 H   0  0  0  0  0  0  0  0  0  0  0  0
  144.4007  131.0687  158.2209 H   0  0  0  0  0  0  0  0  0  0  0  0
  146.9405  130.2374  158.6209 H   0  0  0  0  0  0  0  0  0  0  0  0
  146.6228  131.4565  157.3867 H   0  0  0  0  0  0  0  0  0  0  0  0
  147.5363  131.9142  160.2418 H   0  0  0  0  0  0  0  0  0  0  0  0
  148.4457  133.2098  157.9325 H   0  0  0  0  0  0  0  0  0  0  0  0
  150.4005  134.7923  156.7779 H   0  0  0  0  0  0  0  0  0  0  0  0
  150.6350  138.3692  156.2882 H   0  0  0  0  0  0  0  0  0  0  0  0
  150.0591  137.5544  154.1092 H   0  0  0  0  0  0  0  0  0  0  0  0
  150.6241  139.0415  153.3371 H   0  0  0  0  0  0  0  0  0  0  0  0
  152.3140  137.0237  154.8427 H   0  0  0  0  0  0  0  0  0  0  0  0
  152.6197  137.7137  153.2462 H   0  0  0  0  0  0  0  0  0  0  0  0
  152.0120  140.7981  155.0997 H   0  0  0  0  0  0  0  0  0  0  0  0
  152.3458  139.9678  156.6161 H   0  0  0  0  0  0  0  0  0  0  0  0
  1  2  1  0  0  0  0
  1 31  1  0  0  0  0
  2  3  1  0  0  0  0
  2 32  1  0  0  0  0
  2 33  1  0  0  0  0
  3  4  1  0  0  0  0
  3 26  1  0  0  0  0
  3 34  1  0  0  0  0
  4  5  1  0  0  0  0
  4 35  1  0  0  0  0
  4 36  1  0  0  0  0
  5 25  1  0  0  0  0
  5  6  1  0  0  0  0
  6  7  2  0  0  0  0
  6 37  1  0  0  0  0
  7  8  1  0  0  0  0
  8 25  2  0  0  0  0
  8  9  1  0  0  0  0
  9 10  1  0  0  0  0
  9 22  2  0  0  0  0
 10 15  1  0  0  0  0
 10 11  1  0  0  0  0
 11 12  1  0  0  0  0
 11 38  1  0  0  0  0
 11 39  1  0  0  0  0
 12 13  1  0  0  0  0
 12 40  1  0  0  0  0
 12 41  1  0  0  0  0
 13 14  1  0  0  0  0
 13 42  1  0  0  0  0
 13 43  1  0  0  0  0
 14 15  1  0  0  0  0
 14 44  1  0  0  0  0
 14 45  1  0  0  0  0
 15 16  1  0  0  0  0
 15 46  1  0  0  0  0
 16 20  1  0  0  0  0
 16 17  1  0  0  0  0
 16 47  1  0  0  0  0
 17 18  1  0  0  0  0
 17 48  1  0  0  0  0
 17 49  1  0  0  0  0
 18 19  1  0  0  0  0
 18 50  1  0  0  0  0
 18 51  1  0  0  0  0
 19 20  1  0  0  0  0
 19 52  1  0  0  0  0
 19 53  1  0  0  0  0
 20 21  1  0  0  0  0
 20 54  1  0  0  0  0
 21 55  1  0  0  0  0
 22 23  1  0  0  0  0
 23 24  2  0  0  0  0
 23 56  1  0  0  0  0
 24 25  1  0  0  0  0
 26 30  1  0  0  0  0
 26 27  1  0  0  0  0
 26 57  1  0  0  0  0
 27 28  1  0  0  0  0
 27 58  1  0  0  0  0
 27 59  1  0  0  0  0
 28 29  1  0  0  0  0
 28 60  1  0  0  0  0
 28 61  1  0  0  0  0
 29 30  1  0  0  0  0
 30 62  1  0  0  0  0
 30 63  1  0  0  0  0
M  END
> <s_m_source_file>
AV-unprocessed.smi

> <i_m_source_file_index>
148

> <i_lp_mmshare_version>
43012

> <i_f3d_flags>
0

> <s_epik_input>
W0NIMl0xT1tDSDJdW0NIMl1bQ0BIXTFbQ0BIXShbQ0gyXVtPSF0pW0NIMl1uKFtjSF1uMiljKGMyMyluW2NIXW5jM040W0NIMl1bQ0gyXVtDSDJdW0NIMl1bQ0BIXTRbQ0BASF01W0NIMl1bQ0gyXVtDSDJdW0NASF01W09IXQ==

> <s_epik_cmdline>
J2VwaWtfcHl0aG9uJywgJy1waCcsICc3LjAnLCAnLXRuJywgJzgnLCAnLW1hJywgJzIwMCcsICctbWV0YWxfYmluZGluZycsICctaW1hZScsICc8aW5maWxlLm1hZT4nLCAnLW9tYWUnLCAnPG91dGZpbGUubWFlPic=

> <r_lp_tautomer_probability>
1

> <r_epik_Ionization_Penalty>
0.00556303

> <r_epik_Ionization_Penalty_Charging>
0

> <r_epik_Ionization_Penalty_Neutral>
0.00556303

> <r_epik_State_Penalty>
0.00401767

> <r_epik_Charging_Adjusted_Penalty>
0.00401767

> <i_epik_Tot_Q>
0

> <i_epik_Tot_abs_Q>
0

> <r_epik_Metal_State_Penalty>
-0

> <b_epik_Metal_Only>
0

> <s_lp_Force_Field>
OPLS_2005

> <r_lp_Energy>
68.4806

> <b_lp_Chiralities_Consistent>
1

> <s_lp_Variant>
AV-unprocessed.smi:148-20

> <Gold.Version>
5.8.1

> <Gold.Id.Protein>
6NUR|6NUR_protein|mol2

> <Gold.PLP.Fitness>
48.1803

> <Gold.PLP.PLP>
-39.6803

> <Gold.PLP.part.hbond>
-5.3268

> <Gold.PLP.part.metal>
0.0000

> <Gold.PLP.part.buried>
-5.4580

> <Gold.PLP.part.nonpolar>
-29.6742

> <Gold.PLP.part.repulsive>
0.0024

> <Gold.PLP.ligand.clash>
0.0000

> <Gold.PLP.ligand.torsion>
0.7232

> <Gold.PLP.Chemscore.Hbond>
3.1802

> <Gold.PLP.Chemscore.CHOScore>
0.0000

> <Gold.PLP.Chemscore.Metal>
0.0000

> <Gold.Chemscore.Hbonds>
donor molecule, donor type, donor heavy atom, donor atom, acceptor molecule, acceptor atom, score
      L1  H     1    31       P1  8028  1.00
      P1  H  6896  6907       L1    22  1.00
      P1  H  6934  6947       L1     7  0.32

> <Gold.PLP.Chemscore.Internal.Correction>
0.4057

> <Gold.Rescore>
     Score         DG    S(hbond)    S(metal)    S(lipo)     H(rot)  DE(clash)    DE(int)     intcor
     15.85     -17.13       2.83        0.00      91.35       3.32       0.28       1.00       ----

> <Gold.Chemscore.Fitness>
15.8527

> <Gold.Chemscore.DG>
-17.1295

> <Gold.Chemscore.ZeroCoef>
-5.4800

> <Gold.Chemscore.Hbond>
2.8329

> <Gold.Chemscore.Metal>
0.0000

> <Gold.Chemscore.Lipo>
91.3464

> <Gold.Chemscore.Internal_Hbond>
0.0000

> <Gold.Chemscore.DEClash>
0.2805

> <Gold.Chemscore.DEInternal>
0.9963

> <Gold.Chemscore.Rot>
3.3203

> <Gold.Chemscore.Internal.Correction>
   9.000000E+99

> <Gold.Chemscore.Hbonds>
donor molecule, donor type, donor heavy atom, donor atom, acceptor molecule, acceptor atom, score
      L1  H     1    31       P1  8028  0.96
      P1  H  6896  6907       L1    22  0.71
      P1  H  6934  6947       L1     7  0.22

> <Gold.Chemscore.Hbond.Weighted>
-9.4620

> <Gold.Chemscore.Metal.Weighted>
-0.0000

> <Gold.Chemscore.Lipo.Weighted>
-10.6875

> <Gold.Chemscore.Internal_Hbond.Weighted>
0.0000

> <Gold.Chemscore.DEClash.Weighted>
0.2805

> <Gold.Chemscore.DEInternal.Weighted>
0.9963

> <Gold.Chemscore.Rot.Weighted>
8.5000

> <Gold.Chemscore.Internal.Correction.Weighted>
   9.000000E+99

> <Gold.Protein.RotatedTorsions>
[ 6907 6896 6895 6894 ] final  -90.96 input  -60.11 | X-H torsion
[ 7974 7965 7964 7962 ] final  131.48 input  175.53 | X-H torsion
[ 8008 7997 7996 7995 ] final  -35.16 input   59.86 | X-H torsion
[ 10167 10162 10161 10158 ] final   14.14 input  -65.29 | X-H torsion
[ 10718 10713 10712 10709 ] final  -83.60 input   66.30 | X-H torsion
[ 10763 10752 10751 10750 ] final  175.14 input  -60.55 | X-H torsion
[ 11005 11000 10999 10996 ] final   55.25 input  -57.11 | X-H torsion

> <Gold.Protein.ActiveResidues>
 VAL166  LYS551  ARG553  GLY616  TRP617  ASP618  TYR619  PRO620  LYS621  CYS622 
 ASP623  PHE694  ASN695  SER759  ASP760  ASP761  ALA762  ILE779  LEU786  VAL792 
 PHE793  MET794  SER795  GLU796  ALA797  LYS798  CYS799  TRP800  GLU811  SER814 

> <Gold.Protein.RotatedAtoms>
  150.6887  134.2350  159.4449 H   0  0  0  0  0  0  0  0  0  0  0  0  # atno 6907 bound_to 6896
  152.0298  134.9771  160.0581 H   0  0  0  0  0  0  0  0  0  0  0  0  # atno 6908 bound_to 6896
  152.1315  133.4376  159.4760 H   0  0  0  0  0  0  0  0  0  0  0  0  # atno 6909 bound_to 6896
  145.0069  139.4257  143.5264 H   0  0  0  0  0  0  0  0  0  0  0  0  # atno 7974 bound_to 7965
  154.4102  140.1665  156.2166 H   0  0  0  0  0  0  0  0  0  0  0  0  # atno 8008 bound_to 7997
  155.9399  140.3409  155.6295 H   0  0  0  0  0  0  0  0  0  0  0  0  # atno 8009 bound_to 7997
  155.7002  140.0744  157.2404 H   0  0  0  0  0  0  0  0  0  0  0  0  # atno 8010 bound_to 7997
  140.5956  143.8709  150.6914 H   0  0  0  0  0  0  0  0  0  0  0  0  # atno 10167 bound_to 10162
  156.0016  130.4670  150.4281 H   0  0  0  0  0  0  0  0  0  0  0  0  # atno 10718 bound_to 10713
  154.4636  135.2768  155.1695 H   0  0  0  0  0  0  0  0  0  0  0  0  # atno 10763 bound_to 10752
  154.3473  135.6157  153.5629 H   0  0  0  0  0  0  0  0  0  0  0  0  # atno 10764 bound_to 10752
  152.9857  135.5803  154.5003 H   0  0  0  0  0  0  0  0  0  0  0  0  # atno 10765 bound_to 10752
  140.0622  134.5586  155.9139 H   0  0  0  0  0  0  0  0  0  0  0  0  # atno 11005 bound_to 11000
  146.3463  139.9490  142.8731 LP  0  0  0  0  0  0  0  0  0  0  0  0  # atno 17320 bound_to 7965
  145.2076  140.9882  143.4119 LP  0  0  0  0  0  0  0  0  0  0  0  0  # atno 17321 bound_to 7965
  140.2242  143.3785  152.1618 LP  0  0  0  0  0  0  0  0  0  0  0  0  # atno 17342 bound_to 10162
  139.5256  144.7097  151.5243 LP  0  0  0  0  0  0  0  0  0  0  0  0  # atno 17343 bound_to 10162
  157.2332  131.0509  151.2480 LP  0  0  0  0  0  0  0  0  0  0  0  0  # atno 17370 bound_to 10713
  157.3691  130.7171  149.6553 LP  0  0  0  0  0  0  0  0  0  0  0  0  # atno 17371 bound_to 10713
  141.1978  133.6598  156.5759 LP  0  0  0  0  0  0  0  0  0  0  0  0  # atno 17394 bound_to 11000
  140.3753  134.7570  157.4625 LP  0  0  0  0  0  0  0  0  0  0  0  0  # atno 17395 bound_to 11000

$$$$
