AV-unprocessed.smi:245|AV-procd|sdf|1878|dock8
  -GOLD-   2262020523D 1   1.00000     0.00000
 Structure written by MMmdl.
 54 58  0  0  0  0  0  0  0  0  1 V2000
  154.9352  139.7806  160.7320 O   0  0  0  0  0  0  0  0  0  0  0  0
  154.0172  140.4212  160.2254 C   0  0  0  0  0  0  0  0  0  0  0  0
  153.2710  139.8427  159.0102 C   0  0  0  0  0  0  0  0  0  0  0  0
  152.2166  140.7033  158.4466 N   0  0  0  0  0  0  0  0  0  0  0  0
  151.8598  140.2731  157.2125 C   0  0  0  0  0  0  0  0  0  0  0  0
  152.7960  139.7629  156.3689 N   0  0  0  0  0  0  0  0  0  0  0  0
  152.4352  139.3143  155.1627 C   0  0  0  0  0  0  0  0  0  0  0  0
  151.2176  139.2724  154.6170 N   0  0  0  0  0  0  0  0  0  0  0  0
  150.2751  139.7701  155.4686 C   0  0  0  0  0  0  0  0  0  0  0  0
  150.5097  140.2884  156.7724 C   0  0  0  0  0  0  0  0  0  0  0  0
  149.3160  140.7176  157.3380 N   0  0  0  0  0  0  0  0  0  0  0  0
  148.4247  140.4729  156.4162 C   0  0  0  0  0  0  0  0  0  0  0  0
  148.9098  139.8795  155.2716 N   0  0  0  0  0  0  0  0  0  0  0  0
  148.1672  139.5326  154.0956 C   0  0  0  0  0  0  0  0  0  0  0  0
  146.6421  139.6600  154.0424 C   0  0  0  0  0  0  0  0  0  0  0  0
  146.5824  138.4419  153.0923 C   0  0  0  0  0  0  0  0  0  0  0  0
  145.4205  137.4723  153.3723 C   0  0  0  0  0  0  0  0  0  0  0  0
  144.1723  138.0213  153.0031 O   0  0  0  0  0  0  0  0  0  0  0  0
  146.5829  138.8177  151.5952 C   0  0  0  0  0  0  0  0  0  0  0  0
  146.8488  137.7067  150.7643 O   0  0  0  0  0  0  0  0  0  0  0  0
  147.9503  138.0689  153.7093 C   0  0  0  0  0  0  0  0  0  0  0  0
  152.3175  142.1501  158.6747 C   0  0  1  0  0  0  0  0  0  0  0  0
  151.0721  142.9464  158.2102 C   0  0  0  0  0  0  0  0  0  0  0  0
  151.2361  144.4495  158.4955 C   0  0  0  0  0  0  0  0  0  0  0  0
  151.5273  144.7156  159.9809 C   0  0  0  0  0  0  0  0  0  0  0  0
  152.7387  143.9047  160.4677 C   0  0  0  0  0  0  0  0  0  0  0  0
  152.5398  142.4064  160.1820 C   0  0  2  0  0  0  0  0  0  0  0  0
  153.6583  141.6257  160.6952 N   0  0  0  0  0  0  0  0  0  0  0  0
  154.0170  139.6132  158.2464 H   0  0  0  0  0  0  0  0  0  0  0  0
  152.8265  138.8931  159.3109 H   0  0  0  0  0  0  0  0  0  0  0  0
  153.2360  138.9308  154.5476 H   0  0  0  0  0  0  0  0  0  0  0  0
  147.3810  140.7157  156.5530 H   0  0  0  0  0  0  0  0  0  0  0  0
  148.6308  140.0822  153.2746 H   0  0  0  0  0  0  0  0  0  0  0  0
  146.1739  139.4717  155.0103 H   0  0  0  0  0  0  0  0  0  0  0  0
  146.2830  140.5963  153.6137 H   0  0  0  0  0  0  0  0  0  0  0  0
  145.5449  136.5460  152.8108 H   0  0  0  0  0  0  0  0  0  0  0  0
  145.3848  137.1888  154.4247 H   0  0  0  0  0  0  0  0  0  0  0  0
  144.3102  138.9052  152.6991 H   0  0  0  0  0  0  0  0  0  0  0  0
  145.6289  139.2546  151.2991 H   0  0  0  0  0  0  0  0  0  0  0  0
  147.3384  139.5733  151.3798 H   0  0  0  0  0  0  0  0  0  0  0  0
  147.1938  137.0073  151.2977 H   0  0  0  0  0  0  0  0  0  0  0  0
  148.6850  137.6751  153.0065 H   0  0  0  0  0  0  0  0  0  0  0  0
  147.8588  137.4177  154.5808 H   0  0  0  0  0  0  0  0  0  0  0  0
  153.1892  142.5145  158.1266 H   0  0  0  0  0  0  0  0  0  0  0  0
  150.8910  142.8169  157.1439 H   0  0  0  0  0  0  0  0  0  0  0  0
  150.1827  142.5717  158.7189 H   0  0  0  0  0  0  0  0  0  0  0  0
  152.0505  144.8470  157.8884 H   0  0  0  0  0  0  0  0  0  0  0  0
  150.3361  144.9856  158.1927 H   0  0  0  0  0  0  0  0  0  0  0  0
  151.7015  145.7798  160.1420 H   0  0  0  0  0  0  0  0  0  0  0  0
  150.6511  144.4527  160.5753 H   0  0  0  0  0  0  0  0  0  0  0  0
  153.6431  144.2613  159.9725 H   0  0  0  0  0  0  0  0  0  0  0  0
  152.8833  144.0689  161.5362 H   0  0  0  0  0  0  0  0  0  0  0  0
  151.6570  142.0688  160.7283 H   0  0  0  0  0  0  0  0  0  0  0  0
  154.1659  142.0038  161.4819 H   0  0  0  0  0  0  0  0  0  0  0  0
  1  2  2  0  0  0  0
  2 28  1  0  0  0  0
  2  3  1  0  0  0  0
  3  4  1  0  0  0  0
  3 29  1  0  0  0  0
  3 30  1  0  0  0  0
  4  5  1  0  0  0  0
  4 22  1  0  0  0  0
  5 10  1  0  0  0  0
  5  6  2  0  0  0  0
  6  7  1  0  0  0  0
  7  8  2  0  0  0  0
  7 31  1  0  0  0  0
  8  9  1  0  0  0  0
  9 13  1  0  0  0  0
  9 10  2  0  0  0  0
 10 11  1  0  0  0  0
 11 12  2  0  0  0  0
 12 13  1  0  0  0  0
 12 32  1  0  0  0  0
 13 14  1  0  0  0  0
 14 21  1  0  0  0  0
 14 15  1  0  0  0  0
 14 33  1  0  0  0  0
 15 16  1  0  0  0  0
 15 34  1  0  0  0  0
 15 35  1  0  0  0  0
 16 17  1  0  0  0  0
 16 19  1  0  0  0  0
 16 21  1  0  0  0  0
 17 18  1  0  0  0  0
 17 36  1  0  0  0  0
 17 37  1  0  0  0  0
 18 38  1  0  0  0  0
 19 20  1  0  0  0  0
 19 39  1  0  0  0  0
 19 40  1  0  0  0  0
 20 41  1  0  0  0  0
 21 42  1  0  0  0  0
 21 43  1  0  0  0  0
 22 27  1  0  0  0  0
 22 23  1  0  0  0  0
 22 44  1  0  0  0  0
 23 24  1  0  0  0  0
 23 45  1  0  0  0  0
 23 46  1  0  0  0  0
 24 25  1  0  0  0  0
 24 47  1  0  0  0  0
 24 48  1  0  0  0  0
 25 26  1  0  0  0  0
 25 49  1  0  0  0  0
 25 50  1  0  0  0  0
 26 27  1  0  0  0  0
 26 51  1  0  0  0  0
 26 52  1  0  0  0  0
 27 28  1  0  0  0  0
 27 53  1  0  0  0  0
 28 54  1  0  0  0  0
M  END
> <s_m_source_file>
AV-unprocessed.smi

> <i_m_source_file_index>
245

> <i_lp_mmshare_version>
43012

> <i_f3d_flags>
0

> <s_epik_input>
W0NIMl0xW0NIMl1bQ0gyXVtDSDJdW0NASF0oW0NASF0xMilbTkhdQyg9TylbQ0gyXU4yYyhuW2NIXW4zKWMoYzM0KW5bY0hdbjRbQ0hdKFtDSDJdNSlbQ0gyXUM1KFtDSDJdW09IXSlbQ0gyXVtPSF0=

> <s_epik_cmdline>
J2VwaWtfcHl0aG9uJywgJy1waCcsICc3LjAnLCAnLXRuJywgJzgnLCAnLW1hJywgJzIwMCcsICctbWV0YWxfYmluZGluZycsICctaW1hZScsICc8aW5maWxlLm1hZT4nLCAnLW9tYWUnLCAnPG91dGZpbGUubWFlPic=

> <r_lp_tautomer_probability>
1

> <r_epik_Ionization_Penalty>
0.000702616

> <r_epik_Ionization_Penalty_Charging>
0

> <r_epik_Ionization_Penalty_Neutral>
0.000702616

> <r_epik_State_Penalty>
0.000343985

> <r_epik_Charging_Adjusted_Penalty>
0.000343985

> <i_epik_Tot_Q>
0

> <i_epik_Tot_abs_Q>
0

> <r_epik_Metal_State_Penalty>
-0

> <b_epik_Metal_Only>
0

> <s_lp_Force_Field>
OPLS_2005

> <r_lp_Energy>
49.1986

> <b_lp_Chiralities_Consistent>
1

> <s_lp_Variant>
AV-unprocessed.smi:245-3

> <Gold.Version>
5.8.1

> <Gold.Id.Protein>
6NUR|6NUR_protein|mol2

> <Gold.PLP.Fitness>
57.8714

> <Gold.PLP.PLP>
-46.7164

> <Gold.PLP.part.hbond>
-5.4039

> <Gold.PLP.part.metal>
0.0000

> <Gold.PLP.part.buried>
-5.9460

> <Gold.PLP.part.nonpolar>
-37.7605

> <Gold.PLP.part.repulsive>
0.1657

> <Gold.PLP.ligand.clash>
0.0000

> <Gold.PLP.ligand.torsion>
0.8157

> <Gold.PLP.Chemscore.Hbond>
3.9683

> <Gold.PLP.Chemscore.CHOScore>
0.0000

> <Gold.PLP.Chemscore.Metal>
0.0000

> <Gold.Chemscore.Hbonds>
donor molecule, donor type, donor heavy atom, donor atom, acceptor molecule, acceptor atom, score
      L1  H    18    38       P1 10175  0.94
      L1  H    20    41       P1  7948  0.78
      P1  H  7954  7966       L1    20  0.75
      P1  H  7989  7998       L1     8  0.55
      P1  H  7997  8009       L1     6  1.00

> <Gold.PLP.Chemscore.Internal.Correction>
0.8817

> <Gold.Rescore>
     Score         DG    S(hbond)    S(metal)    S(lipo)     H(rot)  DE(clash)    DE(int)     intcor
     17.39     -19.81       2.88        0.00     111.92       3.28       1.59       0.83       ----

> <Gold.Chemscore.Fitness>
17.3942

> <Gold.Chemscore.DG>
-19.8092

> <Gold.Chemscore.ZeroCoef>
-5.4800

> <Gold.Chemscore.Hbond>
2.8805

> <Gold.Chemscore.Metal>
0.0000

> <Gold.Chemscore.Lipo>
111.9167

> <Gold.Chemscore.Internal_Hbond>
0.0000

> <Gold.Chemscore.DEClash>
1.5875

> <Gold.Chemscore.DEInternal>
0.8274

> <Gold.Chemscore.Rot>
3.2758

> <Gold.Chemscore.Internal.Correction>
   9.000000E+99

> <Gold.Chemscore.Hbonds>
donor molecule, donor type, donor heavy atom, donor atom, acceptor molecule, acceptor atom, score
      L1  H    18    38       P1 10175  0.91
      L1  H    20    41       P1  7948  0.76
      P1  H  7954  7966       L1    20  0.08
      P1  H  7989  7998       L1     8  0.01
      P1  H  7997  8009       L1     6  0.59

> <Gold.Chemscore.Hbond.Weighted>
-9.6209

> <Gold.Chemscore.Metal.Weighted>
-0.0000

> <Gold.Chemscore.Lipo.Weighted>
-13.0942

> <Gold.Chemscore.Internal_Hbond.Weighted>
0.0000

> <Gold.Chemscore.DEClash.Weighted>
1.5875

> <Gold.Chemscore.DEInternal.Weighted>
0.8274

> <Gold.Chemscore.Rot.Weighted>
8.3859

> <Gold.Chemscore.Internal.Correction.Weighted>
   9.000000E+99

> <Gold.Protein.RotatedTorsions>
[ 6907 6896 6895 6894 ] final   41.09 input  -60.11 | X-H torsion
[ 7974 7965 7964 7962 ] final  -15.20 input  175.53 | X-H torsion
[ 8008 7997 7996 7995 ] final -159.66 input   59.86 | X-H torsion
[ 10167 10162 10161 10158 ] final  111.42 input  -65.29 | X-H torsion
[ 10718 10713 10712 10709 ] final   76.31 input   66.30 | X-H torsion
[ 10763 10752 10751 10750 ] final  -43.89 input  -60.55 | X-H torsion
[ 11005 11000 10999 10996 ] final   87.05 input  -57.11 | X-H torsion

> <Gold.Protein.ActiveResidues>
 VAL166  LYS551  ARG553  GLY616  TRP617  ASP618  TYR619  PRO620  LYS621  CYS622 
 ASP623  PHE694  ASN695  SER759  ASP760  ASP761  ALA762  ILE779  LEU786  VAL792 
 PHE793  MET794  SER795  GLU796  ALA797  LYS798  CYS799  TRP800  GLU811  SER814 

> <Gold.Protein.RotatedAtoms>
  152.1908  134.8674  160.0517 H   0  0  0  0  0  0  0  0  0  0  0  0  # atno 6907 bound_to 6896
  151.9563  133.3676  159.4027 H   0  0  0  0  0  0  0  0  0  0  0  0  # atno 6908 bound_to 6896
  150.6935  134.4211  159.5249 H   0  0  0  0  0  0  0  0  0  0  0  0  # atno 6909 bound_to 6896
  146.2042  140.3459  142.8413 H   0  0  0  0  0  0  0  0  0  0  0  0  # atno 7974 bound_to 7965
  155.7658  140.0845  157.2132 H   0  0  0  0  0  0  0  0  0  0  0  0  # atno 8008 bound_to 7997
  154.4000  140.1534  156.2942 H   0  0  0  0  0  0  0  0  0  0  0  0  # atno 8009 bound_to 7997
  155.8795  140.3421  155.5880 H   0  0  0  0  0  0  0  0  0  0  0  0  # atno 8010 bound_to 7997
  139.6613  144.7128  151.1860 H   0  0  0  0  0  0  0  0  0  0  0  0  # atno 10167 bound_to 10162
  157.6668  130.9768  150.1478 H   0  0  0  0  0  0  0  0  0  0  0  0  # atno 10718 bound_to 10713
  154.0030  135.6691  153.4760 H   0  0  0  0  0  0  0  0  0  0  0  0  # atno 10763 bound_to 10752
  153.0654  135.5004  154.8184 H   0  0  0  0  0  0  0  0  0  0  0  0  # atno 10764 bound_to 10752
  154.7041  135.3084  154.9260 H   0  0  0  0  0  0  0  0  0  0  0  0  # atno 10765 bound_to 10752
  139.8929  134.8397  156.2806 H   0  0  0  0  0  0  0  0  0  0  0  0  # atno 11005 bound_to 11000
  144.8753  140.7328  143.6021 LP  0  0  0  0  0  0  0  0  0  0  0  0  # atno 17320 bound_to 7965
  145.3378  139.1741  143.4502 LP  0  0  0  0  0  0  0  0  0  0  0  0  # atno 17321 bound_to 7965
  140.7581  143.5990  150.8719 LP  0  0  0  0  0  0  0  0  0  0  0  0  # atno 17342 bound_to 10162
  139.9648  143.6123  152.2991 LP  0  0  0  0  0  0  0  0  0  0  0  0  # atno 17343 bound_to 10162
  156.2285  130.3680  149.8472 LP  0  0  0  0  0  0  0  0  0  0  0  0  # atno 17370 bound_to 10713
  156.6306  130.8664  151.3494 LP  0  0  0  0  0  0  0  0  0  0  0  0  # atno 17371 bound_to 10713
  141.0041  133.7134  156.1007 LP  0  0  0  0  0  0  0  0  0  0  0  0  # atno 17394 bound_to 11000
  140.7458  134.4100  157.5548 LP  0  0  0  0  0  0  0  0  0  0  0  0  # atno 17395 bound_to 11000

$$$$
