AV-unprocessed.smi:1724|AV-procd|sdf|6949|dock5
  -GOLD-   22720 8163D 1   1.00000     0.00000
 Structure written by MMmdl.
 38 39  0  0  0  0  0  0  0  0  1 V2000
  149.5525  134.8206  157.7254 O   0  0  0  0  0  0  0  0  0  0  0  0
  148.9442  135.8631  157.9652 C   0  0  0  0  0  0  0  0  0  0  0  0
  148.9784  136.9364  157.1617 N   0  0  0  0  0  0  0  0  0  0  0  0
  149.7354  137.0432  155.9170 C   0  0  0  0  0  0  0  0  0  0  0  0
  150.6760  138.2661  155.9024 C   0  0  2  0  0  0  0  0  0  0  0  0
  151.0069  138.7914  157.3125 C   0  0  0  0  0  0  0  0  0  0  0  0
  151.8614  140.0607  157.2204 C   0  0  0  0  0  0  0  0  0  0  0  0
  151.1903  141.0958  156.3056 C   0  0  0  0  0  0  0  0  0  0  0  0
  150.9609  140.5245  155.0229 O   0  0  0  0  0  0  0  0  0  0  0  0
  150.0747  139.4108  155.0609 C   0  0  0  0  0  0  0  0  0  0  0  0
  148.1502  136.0866  159.0287 N   0  0  0  0  0  0  0  0  0  0  0  0
  147.8497  135.2436  160.1127 C   0  0  0  0  0  0  0  0  0  0  0  0
  147.8034  133.8865  160.0560 C   0  0  0  0  0  0  0  0  0  0  0  0
  147.4954  133.0750  161.2219 C   0  0  0  0  0  0  0  0  0  0  0  0
  147.3633  131.5628  161.1287 C   0  0  0  0  0  0  0  0  0  0  0  0
  146.1478  131.1601  161.5018 F   0  0  0  0  0  0  0  0  0  0  0  0
  147.5813  131.1380  159.8840 F   0  0  0  0  0  0  0  0  0  0  0  0
  148.2565  130.9807  161.9278 F   0  0  0  0  0  0  0  0  0  0  0  0
  147.2502  133.7383  162.3669 C   0  0  0  0  0  0  0  0  0  0  0  0
  147.3182  135.1312  162.4396 N   0  0  0  0  0  0  0  0  0  0  0  0
  147.6028  135.9340  161.3898 C   0  0  0  0  0  0  0  0  0  0  0  0
  147.6423  137.1553  161.5357 O   0  0  0  0  0  0  0  0  0  0  0  0
  147.1377  135.5532  163.3392 H   0  0  0  0  0  0  0  0  0  0  0  0
  148.4407  137.7467  157.4331 H   0  0  0  0  0  0  0  0  0  0  0  0
  150.3240  136.1305  155.8182 H   0  0  0  0  0  0  0  0  0  0  0  0
  149.0699  137.0660  155.0523 H   0  0  0  0  0  0  0  0  0  0  0  0
  151.6111  137.9647  155.4274 H   0  0  0  0  0  0  0  0  0  0  0  0
  150.0843  139.0092  157.8519 H   0  0  0  0  0  0  0  0  0  0  0  0
  151.5389  138.0383  157.8939 H   0  0  0  0  0  0  0  0  0  0  0  0
  152.0198  140.4812  158.2138 H   0  0  0  0  0  0  0  0  0  0  0  0
  152.8468  139.8110  156.8252 H   0  0  0  0  0  0  0  0  0  0  0  0
  150.2497  141.4447  156.7347 H   0  0  0  0  0  0  0  0  0  0  0  0
  151.8325  141.9694  156.1931 H   0  0  0  0  0  0  0  0  0  0  0  0
  149.9036  139.0752  154.0377 H   0  0  0  0  0  0  0  0  0  0  0  0
  149.1062  139.7205  155.4570 H   0  0  0  0  0  0  0  0  0  0  0  0
  147.6699  136.9748  159.0470 H   0  0  0  0  0  0  0  0  0  0  0  0
  148.0147  133.3600  159.1400 H   0  0  0  0  0  0  0  0  0  0  0  0
  146.9820  133.2636  163.2992 H   0  0  0  0  0  0  0  0  0  0  0  0
  1  2  2  0  0  0  0
  2  3  1  0  0  0  0
  2 11  1  0  0  0  0
  3  4  1  0  0  0  0
  3 24  1  0  0  0  0
  4  5  1  0  0  0  0
  4 25  1  0  0  0  0
  4 26  1  0  0  0  0
  5 10  1  0  0  0  0
  5  6  1  0  0  0  0
  5 27  1  0  0  0  0
  6  7  1  0  0  0  0
  6 28  1  0  0  0  0
  6 29  1  0  0  0  0
  7  8  1  0  0  0  0
  7 30  1  0  0  0  0
  7 31  1  0  0  0  0
  8  9  1  0  0  0  0
  8 32  1  0  0  0  0
  8 33  1  0  0  0  0
  9 10  1  0  0  0  0
 10 34  1  0  0  0  0
 10 35  1  0  0  0  0
 11 12  1  0  0  0  0
 11 36  1  0  0  0  0
 12 21  1  0  0  0  0
 12 13  2  0  0  0  0
 13 14  1  0  0  0  0
 13 37  1  0  0  0  0
 14 15  1  0  0  0  0
 14 19  2  0  0  0  0
 15 16  1  0  0  0  0
 15 17  1  0  0  0  0
 15 18  1  0  0  0  0
 19 20  1  0  0  0  0
 19 38  1  0  0  0  0
 20 23  1  0  0  0  0
 20 21  1  0  0  0  0
 21 22  2  0  0  0  0
M  END
> <s_m_source_file>
AV-unprocessed.smi

> <i_m_source_file_index>
1724

> <i_lp_mmshare_version>
43012

> <i_f3d_flags>
0

> <s_epik_input>
Tz1jMVtuSF1bY0hdYyhDKEYpKEYpRilbY0hdYzFbTkhdQyg9TylbTkhdW0NIMl1bQ0BASF0yW0NIMl1bQ0gyXVtDSDJdT1tDSDJdMg==

> <s_epik_cmdline>
J2VwaWtfcHl0aG9uJywgJy1waCcsICc3LjAnLCAnLXRuJywgJzgnLCAnLW1hJywgJzIwMCcsICctbWV0YWxfYmluZGluZycsICctaW1hZScsICc8aW5maWxlLm1hZT4nLCAnLW9tYWUnLCAnPG91dGZpbGUubWFlPic=

> <r_lp_tautomer_probability>
1

> <r_epik_Ionization_Penalty>
0.00384958

> <r_epik_Ionization_Penalty_Charging>
0.00382926

> <r_epik_Ionization_Penalty_Neutral>
2.03186e-05

> <r_epik_State_Penalty>
-0

> <r_epik_Charging_Adjusted_Penalty>
0.00382926

> <i_epik_Tot_Q>
0

> <i_epik_Tot_abs_Q>
0

> <r_epik_Metal_State_Penalty>
0.371494

> <b_epik_Metal_Only>
0

> <s_lp_Force_Field>
OPLS_2005

> <r_lp_Energy>
21.9541

> <b_lp_Chiralities_Consistent>
1

> <s_lp_Variant>
AV-unprocessed.smi:1724-1

> <Gold.Version>
5.8.1

> <Gold.Id.Protein>
6NUR|6NUR_protein|mol2

> <Gold.PLP.Fitness>
41.0909

> <Gold.PLP.PLP>
-31.2218

> <Gold.PLP.part.hbond>
-4.0000

> <Gold.PLP.part.metal>
0.0000

> <Gold.PLP.part.buried>
-5.1270

> <Gold.PLP.part.nonpolar>
-23.2358

> <Gold.PLP.part.repulsive>
0.3110

> <Gold.PLP.ligand.clash>
0.0000

> <Gold.PLP.ligand.torsion>
0.8122

> <Gold.PLP.Chemscore.Hbond>
3.8160

> <Gold.PLP.Chemscore.CHOScore>
0.0000

> <Gold.PLP.Chemscore.Metal>
0.0000

> <Gold.Chemscore.Hbonds>
donor molecule, donor type, donor heavy atom, donor atom, acceptor molecule, acceptor atom, score
      P1  H  6896  6908       L1     1  0.84
      P1  H  6931  6943       L1    22  1.00
      P1  H  6934  6947       L1    22  0.78
      P1  H  7989  7998       L1     9  1.00

> <Gold.PLP.Chemscore.Internal.Correction>
0.0455

> <Gold.Rescore>
     Score         DG    S(hbond)    S(metal)    S(lipo)     H(rot)  DE(clash)    DE(int)     intcor
     20.41     -21.17       3.66        0.00      58.85       1.33       0.10       0.66       ----

> <Gold.Chemscore.Fitness>
20.4057

> <Gold.Chemscore.DG>
-21.1680

> <Gold.Chemscore.ZeroCoef>
-5.4800

> <Gold.Chemscore.Hbond>
3.6583

> <Gold.Chemscore.Metal>
0.0000

> <Gold.Chemscore.Lipo>
58.8484

> <Gold.Chemscore.Internal_Hbond>
0.0000

> <Gold.Chemscore.DEClash>
0.0993

> <Gold.Chemscore.DEInternal>
0.6630

> <Gold.Chemscore.Rot>
1.3344

> <Gold.Chemscore.Internal.Correction>
   9.000000E+99

> <Gold.Chemscore.Hbonds>
donor molecule, donor type, donor heavy atom, donor atom, acceptor molecule, acceptor atom, score
      P1  H  6896  6908       L1     1  0.71
      P1  H  6931  6943       L1    22  0.94
      P1  H  6934  6947       L1    22  0.76
      P1  H  7989  7998       L1     9  0.87

> <Gold.Chemscore.Hbond.Weighted>
-12.2186

> <Gold.Chemscore.Metal.Weighted>
-0.0000

> <Gold.Chemscore.Lipo.Weighted>
-6.8853

> <Gold.Chemscore.Internal_Hbond.Weighted>
0.0000

> <Gold.Chemscore.DEClash.Weighted>
0.0993

> <Gold.Chemscore.DEInternal.Weighted>
0.6630

> <Gold.Chemscore.Rot.Weighted>
3.4160

> <Gold.Chemscore.Internal.Correction.Weighted>
   9.000000E+99

> <Gold.Protein.RotatedTorsions>
[ 6907 6896 6895 6894 ] final  139.20 input  -60.11 | X-H torsion
[ 7974 7965 7964 7962 ] final -106.39 input  175.53 | X-H torsion
[ 8008 7997 7996 7995 ] final  -70.32 input   59.86 | X-H torsion
[ 10167 10162 10161 10158 ] final  -19.72 input  -65.29 | X-H torsion
[ 10718 10713 10712 10709 ] final  156.03 input   66.30 | X-H torsion
[ 10763 10752 10751 10750 ] final  153.26 input  -60.55 | X-H torsion
[ 11005 11000 10999 10996 ] final  154.94 input  -57.11 | X-H torsion

> <Gold.Protein.ActiveResidues>
 VAL166  LYS551  ARG553  GLY616  TRP617  ASP618  TYR619  PRO620  LYS621  CYS622 
 ASP623  PHE694  ASN695  SER759  ASP760  ASP761  ALA762  ILE779  LEU786  VAL792 
 PHE793  MET794  SER795  GLU796  ALA797  LYS798  CYS799  TRP800  GLU811  SER814 

> <Gold.Protein.RotatedAtoms>
  152.2577  133.5270  159.5362 H   0  0  0  0  0  0  0  0  0  0  0  0  # atno 6907 bound_to 6896
  150.7114  134.0872  159.3928 H   0  0  0  0  0  0  0  0  0  0  0  0  # atno 6908 bound_to 6896
  151.8791  135.0460  160.0538 H   0  0  0  0  0  0  0  0  0  0  0  0  # atno 6909 bound_to 6896
  145.2184  140.9124  143.3274 H   0  0  0  0  0  0  0  0  0  0  0  0  # atno 7974 bound_to 7965
  154.5003  140.0836  156.7784 H   0  0  0  0  0  0  0  0  0  0  0  0  # atno 8008 bound_to 7997
  155.4018  140.3437  155.4239 H   0  0  0  0  0  0  0  0  0  0  0  0  # atno 8009 bound_to 7997
  156.1448  140.1540  156.8852 H   0  0  0  0  0  0  0  0  0  0  0  0  # atno 8010 bound_to 7997
  140.7270  143.4791  151.0142 H   0  0  0  0  0  0  0  0  0  0  0  0  # atno 10167 bound_to 10162
  157.2105  131.0696  151.1972 H   0  0  0  0  0  0  0  0  0  0  0  0  # atno 10718 bound_to 10713
  154.1334  135.2825  155.3179 H   0  0  0  0  0  0  0  0  0  0  0  0  # atno 10763 bound_to 10752
  154.6339  135.5425  153.7715 H   0  0  0  0  0  0  0  0  0  0  0  0  # atno 10764 bound_to 10752
  153.0274  135.6469  154.1483 H   0  0  0  0  0  0  0  0  0  0  0  0  # atno 10765 bound_to 10752
  140.1535  134.8658  157.2485 H   0  0  0  0  0  0  0  0  0  0  0  0  # atno 11005 bound_to 11000
  144.9789  139.3804  143.6272 LP  0  0  0  0  0  0  0  0  0  0  0  0  # atno 17320 bound_to 7965
  146.3381  139.8920  142.8807 LP  0  0  0  0  0  0  0  0  0  0  0  0  # atno 17321 bound_to 7965
  139.8488  143.7465  152.3178 LP  0  0  0  0  0  0  0  0  0  0  0  0  # atno 17342 bound_to 10162
  139.7640  144.7497  151.0321 LP  0  0  0  0  0  0  0  0  0  0  0  0  # atno 17343 bound_to 10162
  157.3677  130.7164  149.6544 LP  0  0  0  0  0  0  0  0  0  0  0  0  # atno 17370 bound_to 10713
  155.9691  130.4207  150.4437 LP  0  0  0  0  0  0  0  0  0  0  0  0  # atno 17371 bound_to 10713
  140.2575  134.3610  155.7419 LP  0  0  0  0  0  0  0  0  0  0  0  0  # atno 17394 bound_to 11000
  141.2202  133.7351  156.9030 LP  0  0  0  0  0  0  0  0  0  0  0  0  # atno 17395 bound_to 11000

$$$$
