AV-unprocessed.smi:2039|AV-procd|sdf|8282|dock1
  -GOLD-   2272010553D 1   1.00000     0.00000
 Structure written by MMmdl.
 33 34  0  0  0  0  0  0  0  0  1 V2000
  153.8843  138.7864  146.3068 C   0  0  0  0  0  0  0  0  0  0  0  0
  152.8684  138.0928  147.1485 C   0  0  0  0  0  0  0  0  0  0  0  0
  153.1675  137.0579  147.9434 N   0  0  0  0  0  0  0  0  0  0  0  0
  152.0576  136.5813  148.6270 N   0  0  0  0  0  0  0  0  0  0  0  0
  150.9503  137.2737  148.3262 C   0  0  0  0  0  0  0  0  0  0  0  0
  149.6725  136.9994  148.8816 N   0  0  0  0  0  0  0  0  0  0  0  0
  148.4853  136.9401  148.2529 C   0  0  0  0  0  0  0  0  0  0  0  0
  148.3076  137.1213  147.0479 O   0  0  0  0  0  0  0  0  0  0  0  0
  147.4960  136.6524  149.1113 N   0  0  0  0  0  0  0  0  0  0  0  0
  146.0859  136.5161  148.7577 C   0  0  2  0  0  0  0  0  0  0  0  0
  145.5565  137.8593  148.2206 C   0  0  0  0  0  0  0  0  0  0  0  0
  144.0577  137.7806  147.8883 C   0  0  0  0  0  0  0  0  0  0  0  0
  143.2443  137.3222  149.1107 C   0  0  1  0  0  0  0  0  0  0  0  0
  141.8842  137.1972  148.7535 O   0  0  0  0  0  0  0  0  0  0  0  0
  143.7616  135.9761  149.6460 C   0  0  0  0  0  0  0  0  0  0  0  0
  145.2613  136.0492  149.9759 C   0  0  0  0  0  0  0  0  0  0  0  0
  151.1771  138.5768  147.1719 S   0  0  0  0  0  0  0  0  0  0  0  0
  154.8540  138.2943  146.3889 H   0  0  0  0  0  0  0  0  0  0  0  0
  153.9898  139.8224  146.6289 H   0  0  0  0  0  0  0  0  0  0  0  0
  153.5740  138.7737  145.2619 H   0  0  0  0  0  0  0  0  0  0  0  0
  149.6616  136.8265  149.8758 H   0  0  0  0  0  0  0  0  0  0  0  0
  147.7337  136.5191  150.0833 H   0  0  0  0  0  0  0  0  0  0  0  0
  145.9904  135.7740  147.9624 H   0  0  0  0  0  0  0  0  0  0  0  0
  145.7202  138.6446  148.9602 H   0  0  0  0  0  0  0  0  0  0  0  0
  146.1140  138.1525  147.3302 H   0  0  0  0  0  0  0  0  0  0  0  0
  143.7042  138.7539  147.5457 H   0  0  0  0  0  0  0  0  0  0  0  0
  143.9072  137.0866  147.0600 H   0  0  0  0  0  0  0  0  0  0  0  0
  143.3164  138.0757  149.8963 H   0  0  0  0  0  0  0  0  0  0  0  0
  141.5884  136.3325  148.9945 H   0  0  0  0  0  0  0  0  0  0  0  0
  143.2022  135.6860  150.5363 H   0  0  0  0  0  0  0  0  0  0  0  0
  143.5936  135.1925  148.9055 H   0  0  0  0  0  0  0  0  0  0  0  0
  145.6069  135.0713  150.3130 H   0  0  0  0  0  0  0  0  0  0  0  0
  145.4140  136.7352  150.8105 H   0  0  0  0  0  0  0  0  0  0  0  0
  1  2  1  0  0  0  0
  1 18  1  0  0  0  0
  1 19  1  0  0  0  0
  1 20  1  0  0  0  0
  2 17  1  0  0  0  0
  2  3  2  0  0  0  0
  3  4  1  0  0  0  0
  4  5  2  0  0  0  0
  5  6  1  0  0  0  0
  5 17  1  0  0  0  0
  6  7  1  0  0  0  0
  6 21  1  0  0  0  0
  7  8  2  0  0  0  0
  7  9  1  0  0  0  0
  9 10  1  0  0  0  0
  9 22  1  0  0  0  0
 10 16  1  0  0  0  0
 10 11  1  0  0  0  0
 10 23  1  0  0  0  0
 11 12  1  0  0  0  0
 11 24  1  0  0  0  0
 11 25  1  0  0  0  0
 12 13  1  0  0  0  0
 12 26  1  0  0  0  0
 12 27  1  0  0  0  0
 13 14  1  0  0  0  0
 13 15  1  0  0  0  0
 13 28  1  0  0  0  0
 14 29  1  0  0  0  0
 15 16  1  0  0  0  0
 15 30  1  0  0  0  0
 15 31  1  0  0  0  0
 16 32  1  0  0  0  0
 16 33  1  0  0  0  0
M  END
> <s_m_source_file>
AV-unprocessed.smi

> <i_m_source_file_index>
2039

> <i_lp_mmshare_version>
43012

> <i_f3d_flags>
0

> <s_epik_input>
W0NIM11jMW5uYyhzMSlbTkhdQyg9TylbTkhdW0NAQEhdMltDSDJdW0NIMl1bQ0BASF0oW09IXSlbQ0gyXVtDSDJdMg==

> <s_epik_cmdline>
J2VwaWtfcHl0aG9uJywgJy1waCcsICc3LjAnLCAnLXRuJywgJzgnLCAnLW1hJywgJzIwMCcsICctbWV0YWxfYmluZGluZycsICctaW1hZScsICc8aW5maWxlLm1hZT4nLCAnLW9tYWUnLCAnPG91dGZpbGUubWFlPic=

> <r_lp_tautomer_probability>
1

> <r_epik_Ionization_Penalty>
0.000385244

> <r_epik_Ionization_Penalty_Charging>
0

> <r_epik_Ionization_Penalty_Neutral>
0.000385244

> <r_epik_State_Penalty>
-0

> <r_epik_Charging_Adjusted_Penalty>
0

> <i_epik_Tot_Q>
0

> <i_epik_Tot_abs_Q>
0

> <r_epik_Metal_State_Penalty>
0.189642

> <b_epik_Metal_Only>
0

> <s_lp_Force_Field>
OPLS_2005

> <r_lp_Energy>
6.55666

> <b_lp_Chiralities_Consistent>
1

> <s_lp_Variant>
AV-unprocessed.smi:2039-1

> <Gold.Version>
5.8.1

> <Gold.Id.Protein>
6NUR|6NUR_protein|mol2

> <Gold.PLP.Fitness>
40.9307

> <Gold.PLP.PLP>
-31.2361

> <Gold.PLP.part.hbond>
-5.0000

> <Gold.PLP.part.metal>
0.0000

> <Gold.PLP.part.buried>
-5.8938

> <Gold.PLP.part.nonpolar>
-21.9007

> <Gold.PLP.part.repulsive>
0.1224

> <Gold.PLP.ligand.clash>
0.0000

> <Gold.PLP.ligand.torsion>
0.3837

> <Gold.PLP.Chemscore.Hbond>
3.4863

> <Gold.PLP.Chemscore.CHOScore>
0.0000

> <Gold.PLP.Chemscore.Metal>
0.0000

> <Gold.Chemscore.Hbonds>
donor molecule, donor type, donor heavy atom, donor atom, acceptor molecule, acceptor atom, score
      L1  H     9    22       P1  7948  0.63

> <Gold.PLP.Chemscore.Internal.Correction>
0.0033

> <Gold.Rescore>
     Score         DG    S(hbond)    S(metal)    S(lipo)     H(rot)  DE(clash)    DE(int)     intcor
     17.01     -17.49       2.65        0.00      59.87       1.50       0.10       0.38       ----

> <Gold.Chemscore.Fitness>
17.0095

> <Gold.Chemscore.DG>
-17.4945

> <Gold.Chemscore.ZeroCoef>
-5.4800

> <Gold.Chemscore.Hbond>
2.6500

> <Gold.Chemscore.Metal>
0.0000

> <Gold.Chemscore.Lipo>
59.8681

> <Gold.Chemscore.Internal_Hbond>
0.0000

> <Gold.Chemscore.DEClash>
0.1004

> <Gold.Chemscore.DEInternal>
0.3846

> <Gold.Chemscore.Rot>
1.5004

> <Gold.Chemscore.Internal.Correction>
   9.000000E+99

> <Gold.Chemscore.Hbonds>
donor molecule, donor type, donor heavy atom, donor atom, acceptor molecule, acceptor atom, score
      L1  H     9    22       P1  7948  0.08

> <Gold.Chemscore.Hbond.Weighted>
-8.8509

> <Gold.Chemscore.Metal.Weighted>
-0.0000

> <Gold.Chemscore.Lipo.Weighted>
-7.0046

> <Gold.Chemscore.Internal_Hbond.Weighted>
0.0000

> <Gold.Chemscore.DEClash.Weighted>
0.1004

> <Gold.Chemscore.DEInternal.Weighted>
0.3846

> <Gold.Chemscore.Rot.Weighted>
3.8409

> <Gold.Chemscore.Internal.Correction.Weighted>
   9.000000E+99

> <Gold.Protein.RotatedTorsions>
[ 6907 6896 6895 6894 ] final -163.74 input  -60.11 | X-H torsion
[ 7974 7965 7964 7962 ] final -173.11 input  175.53 | X-H torsion
[ 8008 7997 7996 7995 ] final -105.16 input   59.86 | X-H torsion
[ 10167 10162 10161 10158 ] final  -80.17 input  -65.29 | X-H torsion
[ 10718 10713 10712 10709 ] final -174.66 input   66.30 | X-H torsion
[ 10763 10752 10751 10750 ] final   29.92 input  -60.55 | X-H torsion
[ 11005 11000 10999 10996 ] final  -52.71 input  -57.11 | X-H torsion

> <Gold.Protein.ActiveResidues>
 VAL166  LYS551  ARG553  GLY616  TRP617  ASP618  TYR619  PRO620  LYS621  CYS622 
 ASP623  PHE694  ASN695  SER759  ASP760  ASP761  ALA762  ILE779  LEU786  VAL792 
 PHE793  MET794  SER795  GLU796  ALA797  LYS798  CYS799  TRP800  GLU811  SER814 

> <Gold.Protein.RotatedAtoms>
  151.4009  133.3758  159.2731 H   0  0  0  0  0  0  0  0  0  0  0  0  # atno 6907 bound_to 6896
  150.9434  134.8843  159.7637 H   0  0  0  0  0  0  0  0  0  0  0  0  # atno 6908 bound_to 6896
  152.5081  134.3960  159.9452 H   0  0  0  0  0  0  0  0  0  0  0  0  # atno 6909 bound_to 6896
  144.7140  140.1671  143.6371 H   0  0  0  0  0  0  0  0  0  0  0  0  # atno 7974 bound_to 7965
  154.8958  140.0414  157.1865 H   0  0  0  0  0  0  0  0  0  0  0  0  # atno 8008 bound_to 7997
  154.8494  140.2927  155.5587 H   0  0  0  0  0  0  0  0  0  0  0  0  # atno 8009 bound_to 7997
  156.2995  140.2467  156.3450 H   0  0  0  0  0  0  0  0  0  0  0  0  # atno 8010 bound_to 7997
  140.4527  143.2478  151.8465 H   0  0  0  0  0  0  0  0  0  0  0  0  # atno 10167 bound_to 10162
  156.7884  130.9509  151.3120 H   0  0  0  0  0  0  0  0  0  0  0  0  # atno 10718 bound_to 10713
  153.0401  135.6477  154.0966 H   0  0  0  0  0  0  0  0  0  0  0  0  # atno 10763 bound_to 10752
  154.0674  135.2883  155.3316 H   0  0  0  0  0  0  0  0  0  0  0  0  # atno 10764 bound_to 10752
  154.6617  135.5389  153.8091 H   0  0  0  0  0  0  0  0  0  0  0  0  # atno 10765 bound_to 10752
  141.0939  133.6628  156.4065 H   0  0  0  0  0  0  0  0  0  0  0  0  # atno 11005 bound_to 11000
  145.8978  139.2412  143.1511 LP  0  0  0  0  0  0  0  0  0  0  0  0  # atno 17320 bound_to 7965
  145.9841  140.8658  143.0100 LP  0  0  0  0  0  0  0  0  0  0  0  0  # atno 17321 bound_to 7965
  139.4798  144.5101  151.8944 LP  0  0  0  0  0  0  0  0  0  0  0  0  # atno 17342 bound_to 10162
  140.4188  144.2271  150.5887 LP  0  0  0  0  0  0  0  0  0  0  0  0  # atno 17343 bound_to 10162
  157.6613  130.8968  149.9835 LP  0  0  0  0  0  0  0  0  0  0  0  0  # atno 17370 bound_to 10713
  156.1174  130.3647  149.9944 LP  0  0  0  0  0  0  0  0  0  0  0  0  # atno 17371 bound_to 10713
  140.5188  134.6324  157.5310 LP  0  0  0  0  0  0  0  0  0  0  0  0  # atno 17394 bound_to 11000
  139.9770  134.7198  155.9930 LP  0  0  0  0  0  0  0  0  0  0  0  0  # atno 17395 bound_to 11000

$$$$
