AV-unprocessed.smi:876|AV-procd|sdf|4024|dock8
  -GOLD-   22720 1513D 1   1.00000     0.00000
 Structure written by MMmdl.
 40 41  0  0  0  0  0  0  0  0  1 V2000
  149.1363  141.8452  158.0746 C   0  0  0  0  0  0  0  0  0  0  0  0
  149.7495  141.3654  156.8422 N   0  0  0  0  0  0  0  0  0  0  0  0
  150.9972  141.9587  156.3718 C   0  0  0  0  0  0  0  0  0  0  0  0
  149.1162  140.3595  156.0769 C   0  0  0  0  0  0  0  0  0  0  0  0
  147.9283  139.7281  156.5226 C   0  0  0  0  0  0  0  0  0  0  0  0
  147.3331  138.7321  155.7245 C   0  0  0  0  0  0  0  0  0  0  0  0
  147.9337  138.3913  154.4908 C   0  0  0  0  0  0  0  0  0  0  0  0
  147.4444  137.3945  153.6034 N   0  0  0  0  0  0  0  0  0  0  0  0
  146.2347  136.8092  153.5797 C   0  0  0  0  0  0  0  0  0  0  0  0
  145.3011  137.0660  154.3396 O   0  0  0  0  0  0  0  0  0  0  0  0
  146.1562  135.9018  152.5963 N   0  0  0  0  0  0  0  0  0  0  0  0
  144.9760  135.0995  152.2953 C   0  0  1  0  0  0  0  0  0  0  0  0
  144.3559  135.5363  150.9968 C   0  0  0  0  0  0  0  0  0  0  0  0
  144.2719  134.5482  150.1091 C   0  0  0  0  0  0  0  0  0  0  0  0
  144.8404  133.2494  150.6216 C   0  0  2  0  0  0  0  0  0  0  0  0
  143.8207  132.0980  150.5845 C   0  0  0  0  0  0  0  0  0  0  0  0
  143.0568  132.1468  149.3975 O   0  0  0  0  0  0  0  0  0  0  0  0
  145.3077  133.6024  152.0569 C   0  0  0  0  0  0  0  0  0  0  0  0
  149.1201  139.0630  154.1378 C   0  0  0  0  0  0  0  0  0  0  0  0
  149.6933  140.0178  154.8990 N   0  0  0  0  0  0  0  0  0  0  0  0
  144.2327  135.2115  153.0865 H   0  0  0  0  0  0  0  0  0  0  0  0
  145.7069  132.9930  150.0103 H   0  0  0  0  0  0  0  0  0  0  0  0
  149.0585  141.0378  158.8033 H   0  0  0  0  0  0  0  0  0  0  0  0
  148.1383  142.2385  157.8789 H   0  0  0  0  0  0  0  0  0  0  0  0
  149.7246  142.6443  158.5259 H   0  0  0  0  0  0  0  0  0  0  0  0
  150.8476  142.4518  155.4107 H   0  0  0  0  0  0  0  0  0  0  0  0
  151.7651  141.1937  156.2531 H   0  0  0  0  0  0  0  0  0  0  0  0
  151.3745  142.7020  157.0739 H   0  0  0  0  0  0  0  0  0  0  0  0
  147.4635  139.9826  157.4629 H   0  0  0  0  0  0  0  0  0  0  0  0
  146.4401  138.2454  156.0838 H   0  0  0  0  0  0  0  0  0  0  0  0
  148.0788  137.1276  152.8648 H   0  0  0  0  0  0  0  0  0  0  0  0
  146.9681  135.7551  152.0146 H   0  0  0  0  0  0  0  0  0  0  0  0
  144.0117  136.5472  150.8344 H   0  0  0  0  0  0  0  0  0  0  0  0
  143.8585  134.6413  149.1154 H   0  0  0  0  0  0  0  0  0  0  0  0
  144.3340  131.1368  150.6246 H   0  0  0  0  0  0  0  0  0  0  0  0
  143.1516  132.1435  151.4446 H   0  0  0  0  0  0  0  0  0  0  0  0
  142.4445  132.8638  149.4637 H   0  0  0  0  0  0  0  0  0  0  0  0
  146.3751  133.4024  152.1617 H   0  0  0  0  0  0  0  0  0  0  0  0
  144.8032  132.9867  152.8027 H   0  0  0  0  0  0  0  0  0  0  0  0
  149.6269  138.8317  153.2121 H   0  0  0  0  0  0  0  0  0  0  0  0
  1  2  1  0  0  0  0
  1 23  1  0  0  0  0
  1 24  1  0  0  0  0
  1 25  1  0  0  0  0
  2  3  1  0  0  0  0
  2  4  1  0  0  0  0
  3 26  1  0  0  0  0
  3 27  1  0  0  0  0
  3 28  1  0  0  0  0
  4 20  1  0  0  0  0
  4  5  2  0  0  0  0
  5  6  1  0  0  0  0
  5 29  1  0  0  0  0
  6  7  2  0  0  0  0
  6 30  1  0  0  0  0
  7  8  1  0  0  0  0
  7 19  1  0  0  0  0
  8  9  1  0  0  0  0
  8 31  1  0  0  0  0
  9 10  2  0  0  0  0
  9 11  1  0  0  0  0
 11 12  1  0  0  0  0
 11 32  1  0  0  0  0
 12 21  1  0  0  0  0
 12 18  1  0  0  0  0
 12 13  1  0  0  0  0
 13 14  2  0  0  0  0
 13 33  1  0  0  0  0
 14 15  1  0  0  0  0
 14 34  1  0  0  0  0
 15 22  1  0  0  0  0
 15 16  1  0  0  0  0
 15 18  1  0  0  0  0
 16 17  1  0  0  0  0
 16 35  1  0  0  0  0
 16 36  1  0  0  0  0
 17 37  1  0  0  0  0
 18 38  1  0  0  0  0
 18 39  1  0  0  0  0
 19 20  2  0  0  0  0
 19 40  1  0  0  0  0
M  END
> <s_m_source_file>
AV-unprocessed.smi

> <i_m_source_file_index>
876

> <i_lp_mmshare_version>
43012

> <i_f3d_flags>
0

> <s_epik_input>
W0NIM11OKFtDSDNdKWMxW2NIXVtjSF1jKFtjSF1uMSlbTkhdQyg9TylbTkhdW0NAQEhdMltDSF09W0NIXVtDQEBIXShbQ0gyXTIpW0NIMl1bT0hd

> <s_epik_cmdline>
J2VwaWtfcHl0aG9uJywgJy1waCcsICc3LjAnLCAnLXRuJywgJzgnLCAnLW1hJywgJzIwMCcsICctbWV0YWxfYmluZGluZycsICctaW1hZScsICc8aW5maWxlLm1hZT4nLCAnLW9tYWUnLCAnPG91dGZpbGUubWFlPic=

> <r_lp_tautomer_probability>
1

> <r_epik_Ionization_Penalty>
0.617998

> <r_epik_Ionization_Penalty_Charging>
0

> <r_epik_Ionization_Penalty_Neutral>
0.617998

> <r_epik_State_Penalty>
0.632637

> <r_epik_Charging_Adjusted_Penalty>
0.632637

> <i_epik_Tot_Q>
0

> <i_epik_Tot_abs_Q>
0

> <r_epik_Metal_State_Penalty>
0.305596

> <b_epik_Metal_Only>
0

> <s_lp_Force_Field>
OPLS_2005

> <r_lp_Energy>
20.6708

> <b_lp_Chiralities_Consistent>
1

> <s_lp_Variant>
AV-unprocessed.smi:876-6

> <Gold.Version>
5.8.1

> <Gold.Id.Protein>
6NUR|6NUR_protein|mol2

> <Gold.PLP.Fitness>
40.8839

> <Gold.PLP.PLP>
-28.2701

> <Gold.PLP.part.hbond>
-4.7163

> <Gold.PLP.part.metal>
0.0000

> <Gold.PLP.part.buried>
-4.7932

> <Gold.PLP.part.nonpolar>
-19.0161

> <Gold.PLP.part.repulsive>
0.1578

> <Gold.PLP.ligand.clash>
0.0000

> <Gold.PLP.ligand.torsion>
0.4008

> <Gold.PLP.Chemscore.Hbond>
3.4725

> <Gold.PLP.Chemscore.CHOScore>
0.9945

> <Gold.PLP.Chemscore.Metal>
0.0000

> <Gold.Chemscore.Hbonds>
donor molecule, donor type, donor heavy atom, donor atom, acceptor molecule, acceptor atom, score
      L1  H     8    31       P1  7948  1.00
      L1  H    11    32       P1  7948  0.88
      L1  H    17    37       P1 10186  0.80
      P1  H 10785 10796       L1    17  0.80
      L1  C    19    40       P1  7957  0.99

> <Gold.PLP.Chemscore.Internal.Correction>
0.0144

> <Gold.Rescore>
     Score         DG    S(hbond)    S(metal)    S(lipo)     H(rot)  DE(clash)    DE(int)     intcor
     16.80     -18.21       3.11        0.00      59.37       1.80       0.01       1.41       ----

> <Gold.Chemscore.Fitness>
16.8000

> <Gold.Chemscore.DG>
-18.2145

> <Gold.Chemscore.ZeroCoef>
-5.4800

> <Gold.Chemscore.Hbond>
3.1109

> <Gold.Chemscore.Metal>
0.0000

> <Gold.Chemscore.Lipo>
59.3748

> <Gold.Chemscore.Internal_Hbond>
0.0000

> <Gold.Chemscore.DEClash>
0.0058

> <Gold.Chemscore.DEInternal>
1.4087

> <Gold.Chemscore.Rot>
1.7980

> <Gold.Chemscore.Internal.Correction>
   9.000000E+99

> <Gold.Chemscore.Hbonds>
donor molecule, donor type, donor heavy atom, donor atom, acceptor molecule, acceptor atom, score
      L1  H     8    31       P1  7948  0.98
      L1  H    11    32       P1  7948  0.82
      L1  H    17    37       P1 10186  0.79
      P1  H 10785 10796       L1    17  0.24

> <Gold.Chemscore.Hbond.Weighted>
-10.3905

> <Gold.Chemscore.Metal.Weighted>
-0.0000

> <Gold.Chemscore.Lipo.Weighted>
-6.9468

> <Gold.Chemscore.Internal_Hbond.Weighted>
0.0000

> <Gold.Chemscore.DEClash.Weighted>
0.0058

> <Gold.Chemscore.DEInternal.Weighted>
1.4087

> <Gold.Chemscore.Rot.Weighted>
4.6029

> <Gold.Chemscore.Internal.Correction.Weighted>
   9.000000E+99

> <Gold.Protein.RotatedTorsions>
[ 6907 6896 6895 6894 ] final -130.82 input  -60.11 | X-H torsion
[ 7974 7965 7964 7962 ] final  111.73 input  175.53 | X-H torsion
[ 8008 7997 7996 7995 ] final    5.28 input   59.86 | X-H torsion
[ 10167 10162 10161 10158 ] final -146.06 input  -65.29 | X-H torsion
[ 10718 10713 10712 10709 ] final   -8.78 input   66.30 | X-H torsion
[ 10763 10752 10751 10750 ] final  -37.55 input  -60.55 | X-H torsion
[ 11005 11000 10999 10996 ] final   41.77 input  -57.11 | X-H torsion

> <Gold.Protein.ActiveResidues>
 VAL166  LYS551  ARG553  GLY616  TRP617  ASP618  TYR619  PRO620  LYS621  CYS622 
 ASP623  PHE694  ASN695  SER759  ASP760  ASP761  ALA762  ILE779  LEU786  VAL792 
 PHE793  MET794  SER795  GLU796  ALA797  LYS798  CYS799  TRP800  GLU811  SER814 

> <Gold.Protein.RotatedAtoms>
  150.9440  133.6624  159.2784 H   0  0  0  0  0  0  0  0  0  0  0  0  # atno 6907 bound_to 6896
  151.4004  135.0969  159.9563 H   0  0  0  0  0  0  0  0  0  0  0  0  # atno 6908 bound_to 6896
  152.5081  133.8935  159.7460 H   0  0  0  0  0  0  0  0  0  0  0  0  # atno 6909 bound_to 6896
  145.2385  139.2789  143.4130 H   0  0  0  0  0  0  0  0  0  0  0  0  # atno 7974 bound_to 7965
  154.7265  140.2722  155.6494 H   0  0  0  0  0  0  0  0  0  0  0  0  # atno 8008 bound_to 7997
  156.2838  140.2724  156.1877 H   0  0  0  0  0  0  0  0  0  0  0  0  # atno 8009 bound_to 7997
  155.0438  140.0371  157.2509 H   0  0  0  0  0  0  0  0  0  0  0  0  # atno 8010 bound_to 7997
  139.7748  143.8186  152.2630 H   0  0  0  0  0  0  0  0  0  0  0  0  # atno 10167 bound_to 10162
  156.6976  130.5083  149.5926 H   0  0  0  0  0  0  0  0  0  0  0  0  # atno 10718 bound_to 10713
  153.8981  135.6805  153.4757 H   0  0  0  0  0  0  0  0  0  0  0  0  # atno 10763 bound_to 10752
  153.1144  135.4768  154.9088 H   0  0  0  0  0  0  0  0  0  0  0  0  # atno 10764 bound_to 10752
  154.7589  135.3205  154.8371 H   0  0  0  0  0  0  0  0  0  0  0  0  # atno 10765 bound_to 10752
  140.1802  134.4113  155.8204 H   0  0  0  0  0  0  0  0  0  0  0  0  # atno 11005 bound_to 11000
  146.3335  140.2741  142.8607 LP  0  0  0  0  0  0  0  0  0  0  0  0  # atno 17320 bound_to 7965
  144.9611  140.8276  143.5513 LP  0  0  0  0  0  0  0  0  0  0  0  0  # atno 17321 bound_to 7965
  139.8231  144.7287  150.9547 LP  0  0  0  0  0  0  0  0  0  0  0  0  # atno 17342 bound_to 10162
  140.7816  143.4140  151.0947 LP  0  0  0  0  0  0  0  0  0  0  0  0  # atno 17343 bound_to 10162
  156.1752  130.6463  151.0886 LP  0  0  0  0  0  0  0  0  0  0  0  0  # atno 17370 bound_to 10713
  157.6985  131.0785  150.6893 LP  0  0  0  0  0  0  0  0  0  0  0  0  # atno 17371 bound_to 10713
  141.2222  133.6997  156.7918 LP  0  0  0  0  0  0  0  0  0  0  0  0  # atno 17394 bound_to 11000
  140.2275  134.8710  157.3442 LP  0  0  0  0  0  0  0  0  0  0  0  0  # atno 17395 bound_to 11000

$$$$
