AV-unprocessed.smi:2801|AV-procd|sdf|10800|dock7
  -GOLD-   2272015233D 1   1.00000     0.00000
 Structure written by MMmdl.
 32 32  0  0  0  0  0  0  0  0  1 V2000
  146.5782  144.5371  161.4617 C   0  0  0  0  0  0  0  0  0  0  0  0
  147.9243  144.9499  160.8627 C   0  0  0  0  0  0  0  0  0  0  0  0
  148.4575  143.8476  160.1389 O   0  0  0  0  0  0  0  0  0  0  0  0
  149.5716  144.1473  159.3005 C   0  0  1  0  0  0  0  0  0  0  0  0
  150.6602  144.7978  160.1752 C   0  0  0  0  0  0  0  0  0  0  0  0
  151.9057  145.1978  159.3744 C   0  0  0  0  0  0  0  0  0  0  0  0
  150.0901  142.8631  158.6323 C   0  0  0  0  0  0  0  0  0  0  0  0
  150.6831  142.0245  159.3100 O   0  0  0  0  0  0  0  0  0  0  0  0
  149.8165  142.7387  157.3201 N   0  0  0  0  0  0  0  0  0  0  0  0
  150.1545  141.6883  156.4205 C   0  0  0  0  0  0  0  0  0  0  0  0
  151.2616  140.8221  156.5939 C   0  0  0  0  0  0  0  0  0  0  0  0
  151.5042  139.8299  155.6234 C   0  0  0  0  0  0  0  0  0  0  0  0
  150.7401  139.6605  154.5245 N   0  0  0  0  0  0  0  0  0  0  0  0
  149.6937  140.4943  154.3534 C   0  0  0  0  0  0  0  0  0  0  0  0
  149.3608  141.5202  155.2619 C   0  0  0  0  0  0  0  0  0  0  0  0
  148.2861  142.3269  155.0117 O   0  0  0  0  0  0  0  0  0  0  0  0
  146.1372  145.3561  162.0301 H   0  0  0  0  0  0  0  0  0  0  0  0
  146.6933  143.6862  162.1336 H   0  0  0  0  0  0  0  0  0  0  0  0
  145.8723  144.2548  160.6803 H   0  0  0  0  0  0  0  0  0  0  0  0
  147.7839  145.8166  160.2159 H   0  0  0  0  0  0  0  0  0  0  0  0
  148.6100  145.2405  161.6598 H   0  0  0  0  0  0  0  0  0  0  0  0
  149.2695  144.8628  158.5329 H   0  0  0  0  0  0  0  0  0  0  0  0
  150.2586  145.6779  160.6794 H   0  0  0  0  0  0  0  0  0  0  0  0
  150.9625  144.1054  160.9623 H   0  0  0  0  0  0  0  0  0  0  0  0
  152.6589  145.6429  160.0245 H   0  0  0  0  0  0  0  0  0  0  0  0
  151.6614  145.9274  158.6019 H   0  0  0  0  0  0  0  0  0  0  0  0
  152.3564  144.3324  158.8879 H   0  0  0  0  0  0  0  0  0  0  0  0
  149.2513  143.4736  156.9198 H   0  0  0  0  0  0  0  0  0  0  0  0
  151.9331  140.9013  157.4339 H   0  0  0  0  0  0  0  0  0  0  0  0
  152.3415  139.1564  155.7308 H   0  0  0  0  0  0  0  0  0  0  0  0
  149.1047  140.3401  153.4614 H   0  0  0  0  0  0  0  0  0  0  0  0
  148.4981  143.2472  155.0552 H   0  0  0  0  0  0  0  0  0  0  0  0
  1  2  1  0  0  0  0
  1 17  1  0  0  0  0
  1 18  1  0  0  0  0
  1 19  1  0  0  0  0
  2  3  1  0  0  0  0
  2 20  1  0  0  0  0
  2 21  1  0  0  0  0
  3  4  1  0  0  0  0
  4  5  1  0  0  0  0
  4  7  1  0  0  0  0
  4 22  1  0  0  0  0
  5  6  1  0  0  0  0
  5 23  1  0  0  0  0
  5 24  1  0  0  0  0
  6 25  1  0  0  0  0
  6 26  1  0  0  0  0
  6 27  1  0  0  0  0
  7  8  2  0  0  0  0
  7  9  1  0  0  0  0
  9 10  1  0  0  0  0
  9 28  1  0  0  0  0
 10 15  1  0  0  0  0
 10 11  2  0  0  0  0
 11 12  1  0  0  0  0
 11 29  1  0  0  0  0
 12 13  2  0  0  0  0
 12 30  1  0  0  0  0
 13 14  1  0  0  0  0
 14 15  2  0  0  0  0
 14 31  1  0  0  0  0
 15 16  1  0  0  0  0
 16 32  1  0  0  0  0
M  END
> <s_m_source_file>
AV-unprocessed.smi

> <i_m_source_file_index>
2801

> <i_lp_mmshare_version>
43012

> <i_f3d_flags>
0

> <s_epik_input>
W0NIM11bQ0gyXU9bQ0BIXShbQ0gyXVtDSDNdKUMoPU8pW05IXWMxW2NIXVtjSF1uW2NIXWMxW09IXQ==

> <s_epik_cmdline>
J2VwaWtfcHl0aG9uJywgJy1waCcsICc3LjAnLCAnLXRuJywgJzgnLCAnLW1hJywgJzIwMCcsICctbWV0YWxfYmluZGluZycsICctaW1hZScsICc8aW5maWxlLm1hZT4nLCAnLW9tYWUnLCAnPG91dGZpbGUubWFlPic=

> <r_lp_tautomer_probability>
0.43658

> <r_epik_Ionization_Penalty>
0.0250035

> <r_epik_Ionization_Penalty_Charging>
0

> <r_epik_Ionization_Penalty_Neutral>
0.0250035

> <r_epik_State_Penalty>
0.520524

> <r_epik_Charging_Adjusted_Penalty>
0.520524

> <i_epik_Tot_Q>
0

> <i_epik_Tot_abs_Q>
0

> <r_epik_Metal_State_Penalty>
0.772586

> <b_epik_Metal_Only>
0

> <s_lp_Force_Field>
OPLS_2005

> <r_lp_Energy>
11.8743

> <b_lp_Chiralities_Consistent>
1

> <s_lp_Variant>
AV-unprocessed.smi:2801-4

> <Gold.Version>
5.8.1

> <Gold.Id.Protein>
6NUR|6NUR_protein|mol2

> <Gold.PLP.Fitness>
48.1166

> <Gold.PLP.PLP>
-36.7477

> <Gold.PLP.part.hbond>
-5.0000

> <Gold.PLP.part.metal>
0.0000

> <Gold.PLP.part.buried>
-4.8586

> <Gold.PLP.part.nonpolar>
-27.8724

> <Gold.PLP.part.repulsive>
0.2625

> <Gold.PLP.ligand.clash>
0.0000

> <Gold.PLP.ligand.torsion>
0.4500

> <Gold.PLP.Chemscore.Hbond>
3.0840

> <Gold.PLP.Chemscore.CHOScore>
1.0000

> <Gold.PLP.Chemscore.Metal>
0.0000

> <Gold.Chemscore.Hbonds>
donor molecule, donor type, donor heavy atom, donor atom, acceptor molecule, acceptor atom, score
      L1  H     9    28       P1  8028  1.00
      L1  H    16    32       P1  8028  1.00
      P1  H  6933  6944       L1     3  0.86
      P1  H  7989  7998       L1    13  0.16
      L1  C    14    31       P1  7957  1.00

> <Gold.PLP.Chemscore.Internal.Correction>
0.0168

> <Gold.Rescore>
     Score         DG    S(hbond)    S(metal)    S(lipo)     H(rot)  DE(clash)    DE(int)     intcor
     15.83     -17.16       2.56        0.00      72.89       2.11       0.01       1.31       ----

> <Gold.Chemscore.Fitness>
15.8341

> <Gold.Chemscore.DG>
-17.1598

> <Gold.Chemscore.ZeroCoef>
-5.4800

> <Gold.Chemscore.Hbond>
2.5632

> <Gold.Chemscore.Metal>
0.0000

> <Gold.Chemscore.Lipo>
72.8865

> <Gold.Chemscore.Internal_Hbond>
0.0000

> <Gold.Chemscore.DEClash>
0.0108

> <Gold.Chemscore.DEInternal>
1.3149

> <Gold.Chemscore.Rot>
2.1129

> <Gold.Chemscore.Internal.Correction>
   9.000000E+99

> <Gold.Chemscore.Hbonds>
donor molecule, donor type, donor heavy atom, donor atom, acceptor molecule, acceptor atom, score
      L1  H     9    28       P1  8028  0.86
      L1  H    16    32       P1  8028  0.99
      P1  H  6933  6944       L1     3  0.42

> <Gold.Chemscore.Hbond.Weighted>
-8.5610

> <Gold.Chemscore.Metal.Weighted>
-0.0000

> <Gold.Chemscore.Lipo.Weighted>
-8.5277

> <Gold.Chemscore.Internal_Hbond.Weighted>
0.0000

> <Gold.Chemscore.DEClash.Weighted>
0.0108

> <Gold.Chemscore.DEInternal.Weighted>
1.3149

> <Gold.Chemscore.Rot.Weighted>
5.4089

> <Gold.Chemscore.Internal.Correction.Weighted>
   9.000000E+99

> <Gold.Protein.RotatedTorsions>
[ 6907 6896 6895 6894 ] final  118.41 input  -60.11 | X-H torsion
[ 7974 7965 7964 7962 ] final -154.97 input  175.53 | X-H torsion
[ 8008 7997 7996 7995 ] final  136.67 input   59.86 | X-H torsion
[ 10167 10162 10161 10158 ] final   24.67 input  -65.29 | X-H torsion
[ 10718 10713 10712 10709 ] final  -59.34 input   66.30 | X-H torsion
[ 10763 10752 10751 10750 ] final  170.47 input  -60.55 | X-H torsion
[ 11005 11000 10999 10996 ] final  -86.00 input  -57.11 | X-H torsion

> <Gold.Protein.ActiveResidues>
 VAL166  LYS551  ARG553  GLY616  TRP617  ASP618  TYR619  PRO620  LYS621  CYS622 
 ASP623  PHE694  ASN695  SER759  ASP760  ASP761  ALA762  ILE779  LEU786  VAL792 
 PHE793  MET794  SER795  GLU796  ALA797  LYS798  CYS799  TRP800  GLU811  SER814 

> <Gold.Protein.RotatedAtoms>
  152.4545  133.7695  159.6790 H   0  0  0  0  0  0  0  0  0  0  0  0  # atno 6907 bound_to 6896
  150.8466  133.7841  159.3047 H   0  0  0  0  0  0  0  0  0  0  0  0  # atno 6908 bound_to 6896
  151.5449  135.1071  159.9987 H   0  0  0  0  0  0  0  0  0  0  0  0  # atno 6909 bound_to 6896
  144.7663  140.4314  143.5940 H   0  0  0  0  0  0  0  0  0  0  0  0  # atno 7974 bound_to 7965
  156.3004  140.2439  156.3783 H   0  0  0  0  0  0  0  0  0  0  0  0  # atno 8008 bound_to 7997
  154.8724  140.0415  157.1752 H   0  0  0  0  0  0  0  0  0  0  0  0  # atno 8009 bound_to 7997
  154.8781  140.2945  155.5445 H   0  0  0  0  0  0  0  0  0  0  0  0  # atno 8010 bound_to 7997
  140.5169  144.0067  150.6398 H   0  0  0  0  0  0  0  0  0  0  0  0  # atno 10167 bound_to 10162
  156.1069  130.4179  150.0701 H   0  0  0  0  0  0  0  0  0  0  0  0  # atno 10718 bound_to 10713
  154.3980  135.2754  155.2114 H   0  0  0  0  0  0  0  0  0  0  0  0  # atno 10763 bound_to 10752
  154.4152  135.6013  153.5980 H   0  0  0  0  0  0  0  0  0  0  0  0  # atno 10764 bound_to 10752
  152.9831  135.5959  154.4244 H   0  0  0  0  0  0  0  0  0  0  0  0  # atno 10765 bound_to 10752
  141.1635  133.7430  156.9097 H   0  0  0  0  0  0  0  0  0  0  0  0  # atno 11005 bound_to 11000
  145.6460  139.1557  143.2888 LP  0  0  0  0  0  0  0  0  0  0  0  0  # atno 17320 bound_to 7965
  146.1773  140.6553  142.9205 LP  0  0  0  0  0  0  0  0  0  0  0  0  # atno 17321 bound_to 7965
  140.3406  143.3022  152.0592 LP  0  0  0  0  0  0  0  0  0  0  0  0  # atno 17342 bound_to 10162
  139.4912  144.6445  151.6807 LP  0  0  0  0  0  0  0  0  0  0  0  0  # atno 17343 bound_to 10162
  156.8675  130.9513  151.3612 LP  0  0  0  0  0  0  0  0  0  0  0  0  # atno 17370 bound_to 10713
  157.6246  130.8682  149.9168 LP  0  0  0  0  0  0  0  0  0  0  0  0  # atno 17371 bound_to 10713
  140.1526  134.9220  157.2612 LP  0  0  0  0  0  0  0  0  0  0  0  0  # atno 17394 bound_to 11000
  140.2705  134.3465  155.7375 LP  0  0  0  0  0  0  0  0  0  0  0  0  # atno 17395 bound_to 11000

$$$$
