AV-unprocessed.smi:1535|AV-procd|sdf|6175|dock3
  -GOLD-   22720 6323D 1   1.00000     0.00000
 Structure written by MMmdl.
 47 48  0  0  0  0  0  0  0  0  2 V2000
  152.6796  143.3277  161.4474 C   0  0  0  0  0  0  0  0  0  0  0  0
  152.2434  142.5762  160.2011 C   0  0  0  0  0  0  0  0  0  0  0  0
  151.2550  143.1573  159.3748 C   0  0  0  0  0  0  0  0  0  0  0  0
  150.8749  142.4450  158.2436 C   0  0  0  0  0  0  0  0  0  0  0  0
  149.9419  142.7398  157.2471 N   0  3  0  0  0  0  0  0  0  0  0  0
  149.9153  141.7279  156.3360 C   0  0  0  0  0  0  0  0  0  0  0  0
  150.8177  140.7913  156.7368 N   0  0  0  0  0  0  0  0  0  0  0  0
  151.1814  139.5061  156.1245 C   0  0  0  0  0  0  0  0  0  0  0  0
  150.2516  139.1094  154.9604 C   0  0  1  0  0  0  0  0  0  0  0  0
  150.4091  140.0383  153.9051 O   0  0  0  0  0  0  0  0  0  0  0  0
  150.5825  137.7007  154.4257 C   0  0  0  0  0  0  0  0  0  0  0  0
  149.9298  136.5895  155.1274 N   0  0  0  0  0  0  0  0  0  0  0  0
  150.1134  136.6925  156.5726 C   0  0  0  0  0  0  0  0  0  0  0  0
  150.4142  135.2875  154.6623 C   0  0  0  0  0  0  0  0  0  0  0  0
  149.6064  134.0633  155.1388 C   0  0  2  0  0  0  0  0  0  0  0  0
  148.0915  134.3079  155.0798 C   0  0  0  0  0  0  0  0  0  0  0  0
  150.0100  133.6834  156.5019 C   0  0  0  0  0  0  0  0  0  0  0  0
  150.3274  133.3848  157.5737 N   0  0  0  0  0  0  0  0  0  0  0  0
  151.4426  141.1973  157.9207 C   0  0  0  0  0  0  0  0  0  0  0  0
  152.4200  140.6118  158.7215 C   0  0  0  0  0  0  0  0  0  0  0  0
  152.8190  141.3199  159.8779 C   0  0  0  0  0  0  0  0  0  0  0  0
  153.8813  140.7052  160.7733 C   0  0  0  0  0  0  0  0  0  0  0  0
  152.1197  144.2552  161.5709 H   0  0  0  0  0  0  0  0  0  0  0  0
  153.7379  143.5824  161.3893 H   0  0  0  0  0  0  0  0  0  0  0  0
  152.5169  142.7215  162.3386 H   0  0  0  0  0  0  0  0  0  0  0  0
  150.8133  144.1137  159.6135 H   0  0  0  0  0  0  0  0  0  0  0  0
  149.2883  141.6757  155.4577 H   0  0  0  0  0  0  0  0  0  0  0  0
  152.2120  139.5900  155.7760 H   0  0  0  0  0  0  0  0  0  0  0  0
  151.1784  138.7428  156.9037 H   0  0  0  0  0  0  0  0  0  0  0  0
  149.2220  139.1647  155.3091 H   0  0  0  0  0  0  0  0  0  0  0  0
  149.9844  139.6929  153.1350 H   0  0  0  0  0  0  0  0  0  0  0  0
  150.3211  137.6875  153.3692 H   0  0  0  0  0  0  0  0  0  0  0  0
  151.6626  137.5494  154.4575 H   0  0  0  0  0  0  0  0  0  0  0  0
  149.6376  135.8546  157.0831 H   0  0  0  0  0  0  0  0  0  0  0  0
  149.6628  137.5988  156.9733 H   0  0  0  0  0  0  0  0  0  0  0  0
  151.1715  136.6904  156.8377 H   0  0  0  0  0  0  0  0  0  0  0  0
  150.4589  135.2874  153.5719 H   0  0  0  0  0  0  0  0  0  0  0  0
  151.4424  135.1467  154.9990 H   0  0  0  0  0  0  0  0  0  0  0  0
  149.8423  133.1938  154.5278 H   0  0  0  0  0  0  0  0  0  0  0  0
  147.5419  133.4349  155.4328 H   0  0  0  0  0  0  0  0  0  0  0  0
  147.7617  134.5128  154.0611 H   0  0  0  0  0  0  0  0  0  0  0  0
  147.8041  135.1561  155.7018 H   0  0  0  0  0  0  0  0  0  0  0  0
  152.8562  139.6550  158.4754 H   0  0  0  0  0  0  0  0  0  0  0  0
  154.2232  139.7448  160.3862 H   0  0  0  0  0  0  0  0  0  0  0  0
  153.4874  140.5383  161.7759 H   0  0  0  0  0  0  0  0  0  0  0  0
  154.7482  141.3624  160.8458 H   0  0  0  0  0  0  0  0  0  0  0  0
  149.3627  143.5677  157.1917 H   0  0  0  0  0  0  0  0  0  0  0  0
  1  2  1  0  0  0  0
  1 23  1  0  0  0  0
  1 24  1  0  0  0  0
  1 25  1  0  0  0  0
  2 21  1  0  0  0  0
  2  3  2  0  0  0  0
  3  4  1  0  0  0  0
  3 26  1  0  0  0  0
  4 19  2  0  0  0  0
  4  5  1  0  0  0  0
  5  6  2  0  0  0  0
  5 47  1  0  0  0  0
  6  7  1  0  0  0  0
  6 27  1  0  0  0  0
  7  8  1  0  0  0  0
  7 19  1  0  0  0  0
  8  9  1  0  0  0  0
  8 28  1  0  0  0  0
  8 29  1  0  0  0  0
  9 10  1  0  0  0  0
  9 11  1  0  0  0  0
  9 30  1  0  0  0  0
 10 31  1  0  0  0  0
 11 12  1  0  0  0  0
 11 32  1  0  0  0  0
 11 33  1  0  0  0  0
 12 13  1  0  0  0  0
 12 14  1  0  0  0  0
 13 34  1  0  0  0  0
 13 35  1  0  0  0  0
 13 36  1  0  0  0  0
 14 15  1  0  0  0  0
 14 37  1  0  0  0  0
 14 38  1  0  0  0  0
 15 16  1  0  0  0  0
 15 17  1  0  0  0  0
 15 39  1  0  0  0  0
 16 40  1  0  0  0  0
 16 41  1  0  0  0  0
 16 42  1  0  0  0  0
 17 18  3  0  0  0  0
 19 20  1  0  0  0  0
 20 21  2  0  0  0  0
 20 43  1  0  0  0  0
 21 22  1  0  0  0  0
 22 44  1  0  0  0  0
 22 45  1  0  0  0  0
 22 46  1  0  0  0  0
M  CHG  1   5   1
M  END
> <s_m_source_file>
AV-unprocessed.smi

> <i_m_source_file_index>
1535

> <i_lp_mmshare_version>
43012

> <i_f3d_flags>
0

> <s_epik_input>
W0NIM11jKFtjSF0xKWMoW0NIM10pW2NIXWMoYzEyKW4oW2NIXW4yKVtDSDJdW0NASF0oW09IXSlbQ0gyXU4oW0NIM10pW0NIMl1bQ0BIXShbQ0gzXSlDI04=

> <s_epik_cmdline>
J2VwaWtfcHl0aG9uJywgJy1waCcsICc3LjAnLCAnLXRuJywgJzgnLCAnLW1hJywgJzIwMCcsICctbWV0YWxfYmluZGluZycsICctaW1hZScsICc8aW5maWxlLm1hZT4nLCAnLW9tYWUnLCAnPG91dGZpbGUubWFlPic=

> <r_epik_Ionization_Penalty>
1.22846

> <r_epik_Ionization_Penalty_Charging>
1.21333

> <r_epik_Ionization_Penalty_Neutral>
0.0151341

> <r_epik_State_Penalty>
1.27012

> <r_epik_Charging_Adjusted_Penalty>
2.48344

> <i_epik_Tot_Q>
1

> <i_epik_Tot_abs_Q>
1

> <r_epik_Metal_State_Penalty>
5.28751

> <b_epik_Metal_Only>
0

> <s_lp_Force_Field>
OPLS_2005

> <r_lp_Energy>
30.2724

> <b_lp_Chiralities_Consistent>
1

> <s_lp_Variant>
AV-unprocessed.smi:1535-6

> <Gold.Version>
5.8.1

> <Gold.Id.Protein>
6NUR|6NUR_protein|mol2

> <Gold.PLP.Fitness>
52.7193

> <Gold.PLP.PLP>
-41.3308

> <Gold.PLP.part.hbond>
-3.6974

> <Gold.PLP.part.metal>
0.0000

> <Gold.PLP.part.buried>
-4.0619

> <Gold.PLP.part.nonpolar>
-33.8735

> <Gold.PLP.part.repulsive>
0.1500

> <Gold.PLP.ligand.clash>
0.0000

> <Gold.PLP.ligand.torsion>
0.6556

> <Gold.PLP.Chemscore.Hbond>
4.1752

> <Gold.PLP.Chemscore.CHOScore>
0.0000

> <Gold.PLP.Chemscore.Metal>
0.0000

> <Gold.Chemscore.Hbonds>
donor molecule, donor type, donor heavy atom, donor atom, acceptor molecule, acceptor atom, score
      L1  H     5    47       P1  8028  1.28
      L1  H    10    31       P1  7957  0.87
      P1  H  6896  6908       L1    18  1.00
      P1  H  7989  7998       L1    10  0.97

> <Gold.PLP.Chemscore.Internal.Correction>
0.1742

> <Gold.Rescore>
     Score         DG    S(hbond)    S(metal)    S(lipo)     H(rot)  DE(clash)    DE(int)     intcor
     20.78     -23.47       3.48        0.00     111.22       2.59       0.63       2.06       ----

> <Gold.Chemscore.Fitness>
20.7848

> <Gold.Chemscore.DG>
-23.4729

> <Gold.Chemscore.ZeroCoef>
-5.4800

> <Gold.Chemscore.Hbond>
3.4777

> <Gold.Chemscore.Metal>
0.0000

> <Gold.Chemscore.Lipo>
111.2166

> <Gold.Chemscore.Internal_Hbond>
0.0000

> <Gold.Chemscore.DEClash>
0.6283

> <Gold.Chemscore.DEInternal>
2.0598

> <Gold.Chemscore.Rot>
2.5918

> <Gold.Chemscore.Internal.Correction>
   9.000000E+99

> <Gold.Chemscore.Hbonds>
donor molecule, donor type, donor heavy atom, donor atom, acceptor molecule, acceptor atom, score
      L1  H     5    47       P1  8028  0.47
      L1  H    10    31       P1  7957  0.80
      P1  H  6896  6908       L1    18  0.96
      P1  H  7989  7998       L1    10  0.60

> <Gold.Chemscore.Hbond.Weighted>
-11.6156

> <Gold.Chemscore.Metal.Weighted>
-0.0000

> <Gold.Chemscore.Lipo.Weighted>
-13.0123

> <Gold.Chemscore.Internal_Hbond.Weighted>
0.0000

> <Gold.Chemscore.DEClash.Weighted>
0.6283

> <Gold.Chemscore.DEInternal.Weighted>
2.0598

> <Gold.Chemscore.Rot.Weighted>
6.6351

> <Gold.Chemscore.Internal.Correction.Weighted>
   9.000000E+99

> <Gold.Protein.RotatedTorsions>
[ 6907 6896 6895 6894 ] final  101.99 input  -60.11 | X-H torsion
[ 7974 7965 7964 7962 ] final   74.42 input  175.53 | X-H torsion
[ 8008 7997 7996 7995 ] final -103.51 input   59.86 | X-H torsion
[ 10167 10162 10161 10158 ] final -103.44 input  -65.29 | X-H torsion
[ 10718 10713 10712 10709 ] final -109.85 input   66.30 | X-H torsion
[ 10763 10752 10751 10750 ] final -110.13 input  -60.55 | X-H torsion
[ 11005 11000 10999 10996 ] final  -47.25 input  -57.11 | X-H torsion

> <Gold.Protein.ActiveResidues>
 VAL166  LYS551  ARG553  GLY616  TRP617  ASP618  TYR619  PRO620  LYS621  CYS622 
 ASP623  PHE694  ASN695  SER759  ASP760  ASP761  ALA762  ILE779  LEU786  VAL792 
 PHE793  MET794  SER795  GLU796  ALA797  LYS798  CYS799  TRP800  GLU811  SER814 

> <Gold.Protein.RotatedAtoms>
  152.5335  134.0042  159.7908 H   0  0  0  0  0  0  0  0  0  0  0  0  # atno 6907 bound_to 6896
  151.0256  133.5829  159.2673 H   0  0  0  0  0  0  0  0  0  0  0  0  # atno 6908 bound_to 6896
  151.2852  135.0733  159.9237 H   0  0  0  0  0  0  0  0  0  0  0  0  # atno 6909 bound_to 6896
  145.7285  139.2674  143.1555 H   0  0  0  0  0  0  0  0  0  0  0  0  # atno 7974 bound_to 7965
  154.8720  140.0422  157.1730 H   0  0  0  0  0  0  0  0  0  0  0  0  # atno 8008 bound_to 7997
  154.8729  140.2961  155.5450 H   0  0  0  0  0  0  0  0  0  0  0  0  # atno 8009 bound_to 7997
  156.2999  140.2425  156.3720 H   0  0  0  0  0  0  0  0  0  0  0  0  # atno 8010 bound_to 7997
  140.2200  143.3683  152.0978 H   0  0  0  0  0  0  0  0  0  0  0  0  # atno 10167 bound_to 10162
  156.0559  130.5785  150.8156 H   0  0  0  0  0  0  0  0  0  0  0  0  # atno 10718 bound_to 10713
  154.8231  135.4575  154.0838 H   0  0  0  0  0  0  0  0  0  0  0  0  # atno 10763 bound_to 10752
  153.2174  135.6890  153.8047 H   0  0  0  0  0  0  0  0  0  0  0  0  # atno 10764 bound_to 10752
  153.7476  135.3303  155.3292 H   0  0  0  0  0  0  0  0  0  0  0  0  # atno 10765 bound_to 10752
  141.0629  133.6703  156.3270 H   0  0  0  0  0  0  0  0  0  0  0  0  # atno 11005 bound_to 11000
  146.0560  140.8020  142.9758 LP  0  0  0  0  0  0  0  0  0  0  0  0  # atno 17320 bound_to 7965
  144.6899  140.3124  143.7246 LP  0  0  0  0  0  0  0  0  0  0  0  0  # atno 17321 bound_to 7965
  139.5148  144.6953  151.5648 LP  0  0  0  0  0  0  0  0  0  0  0  0  # atno 17342 bound_to 10162
  140.6262  143.9164  150.6566 LP  0  0  0  0  0  0  0  0  0  0  0  0  # atno 17343 bound_to 10162
  157.5528  131.0944  150.9671 LP  0  0  0  0  0  0  0  0  0  0  0  0  # atno 17370 bound_to 10713
  156.9927  130.5569  149.5304 LP  0  0  0  0  0  0  0  0  0  0  0  0  # atno 17371 bound_to 10713
  140.5833  134.5724  157.5484 LP  0  0  0  0  0  0  0  0  0  0  0  0  # atno 17394 bound_to 11000
  139.9449  134.7720  156.0587 LP  0  0  0  0  0  0  0  0  0  0  0  0  # atno 17395 bound_to 11000

$$$$
