AV-unprocessed.smi:1965|AV-procd|sdf|7937|dock4
  -GOLD-   2272010103D 1   1.00000     0.00000
 Structure written by MMmdl.
 37 39  0  0  0  0  0  0  0  0  2 V2000
  146.2318  139.4280  154.1057 O   0  0  0  0  0  0  0  0  0  0  0  0
  147.0254  139.6413  153.1909 C   0  0  0  0  0  0  0  0  0  0  0  0
  147.1520  138.7752  152.1629 N   0  0  0  0  0  0  0  0  0  0  0  0
  146.5004  137.5391  151.8798 C   0  0  0  0  0  0  0  0  0  0  0  0
  146.1526  136.6204  152.7903 N   0  0  0  0  0  0  0  0  0  0  0  0
  145.5339  135.5095  152.2111 C   0  0  0  0  0  0  0  0  0  0  0  0
  145.4193  135.5960  150.8466 C   0  0  0  0  0  0  0  0  0  0  0  0
  146.0866  137.0846  150.2326 S   0  0  0  0  0  0  0  0  0  0  0  0
  147.8057  140.7334  153.1499 N   0  0  0  0  0  0  0  0  0  0  0  0
  147.8244  141.8031  154.1421 C   0  0  1  0  0  0  0  0  0  0  0  0
  146.4135  142.2446  154.5702 C   0  0  0  0  0  0  0  0  0  0  0  0
  146.5146  142.5269  156.0822 C   0  0  0  0  0  0  0  0  0  0  0  0
  147.9398  142.3489  156.4186 N   0  3  1  0  0  0  0  0  0  0  0  0
  148.2645  142.0178  157.8232 C   0  0  0  0  0  0  0  0  0  0  0  0
  149.7960  141.9573  157.9901 C   0  0  0  0  0  0  0  0  0  0  0  0
  150.4456  141.0046  156.9660 C   0  0  0  0  0  0  0  0  0  0  0  0
  149.9966  141.3398  155.5306 C   0  0  0  0  0  0  0  0  0  0  0  0
  148.4599  141.3601  155.4623 C   0  0  2  0  0  0  0  0  0  0  0  0
  147.8471  139.0406  151.4802 H   0  0  0  0  0  0  0  0  0  0  0  0
  145.2057  134.6997  152.8460 H   0  0  0  0  0  0  0  0  0  0  0  0
  144.9847  134.8770  150.1679 H   0  0  0  0  0  0  0  0  0  0  0  0
  148.4315  140.8292  152.3623 H   0  0  0  0  0  0  0  0  0  0  0  0
  148.3549  142.6764  153.7564 H   0  0  0  0  0  0  0  0  0  0  0  0
  146.0932  143.1258  154.0132 H   0  0  0  0  0  0  0  0  0  0  0  0
  145.6773  141.4595  154.3910 H   0  0  0  0  0  0  0  0  0  0  0  0
  146.1786  143.5312  156.3421 H   0  0  0  0  0  0  0  0  0  0  0  0
  145.9057  141.8115  156.6373 H   0  0  0  0  0  0  0  0  0  0  0  0
  147.8431  142.7749  158.4852 H   0  0  0  0  0  0  0  0  0  0  0  0
  147.8122  141.0625  158.0942 H   0  0  0  0  0  0  0  0  0  0  0  0
  150.2121  142.9577  157.8627 H   0  0  0  0  0  0  0  0  0  0  0  0
  150.0499  141.6461  159.0039 H   0  0  0  0  0  0  0  0  0  0  0  0
  151.5322  141.0557  157.0414 H   0  0  0  0  0  0  0  0  0  0  0  0
  150.1677  139.9765  157.2015 H   0  0  0  0  0  0  0  0  0  0  0  0
  150.4002  142.3077  155.2305 H   0  0  0  0  0  0  0  0  0  0  0  0
  150.3992  140.6027  154.8357 H   0  0  0  0  0  0  0  0  0  0  0  0
  148.0712  140.3756  155.7342 H   0  0  0  0  0  0  0  0  0  0  0  0
  148.3976  143.2225  156.2010 H   0  0  0  0  0  0  0  0  0  0  0  0
  1  2  2  0  0  0  0
  2  3  1  0  0  0  0
  2  9  1  0  0  0  0
  3  4  1  0  0  0  0
  3 19  1  0  0  0  0
  4  8  1  0  0  0  0
  4  5  2  0  0  0  0
  5  6  1  0  0  0  0
  6  7  2  0  0  0  0
  6 20  1  0  0  0  0
  7  8  1  0  0  0  0
  7 21  1  0  0  0  0
  9 10  1  0  0  0  0
  9 22  1  0  0  0  0
 10 18  1  0  0  0  0
 10 11  1  0  0  0  0
 10 23  1  0  0  0  0
 11 12  1  0  0  0  0
 11 24  1  0  0  0  0
 11 25  1  0  0  0  0
 12 13  1  0  0  0  0
 12 26  1  0  0  0  0
 12 27  1  0  0  0  0
 13 18  1  0  0  0  0
 13 14  1  0  0  0  0
 13 37  1  0  0  0  0
 14 15  1  0  0  0  0
 14 28  1  0  0  0  0
 14 29  1  0  0  0  0
 15 16  1  0  0  0  0
 15 30  1  0  0  0  0
 15 31  1  0  0  0  0
 16 17  1  0  0  0  0
 16 32  1  0  0  0  0
 16 33  1  0  0  0  0
 17 18  1  0  0  0  0
 17 34  1  0  0  0  0
 17 35  1  0  0  0  0
 18 36  1  0  0  0  0
M  CHG  1  13   1
M  END
> <s_m_source_file>
AV-unprocessed.smi

> <i_m_source_file_index>
1965

> <i_lp_mmshare_version>
43012

> <i_f3d_flags>
0

> <s_epik_input>
czFbY0hdW2NIXW5jMVtOSF1DKD1PKVtOSF1bQ0BIXShbQ0gyXVtDSDJdMilbQ0BASF0oTjIzKVtDSDJdW0NIMl1bQ0gyXVtDSDJdMw==

> <s_epik_cmdline>
J2VwaWtfcHl0aG9uJywgJy1waCcsICc3LjAnLCAnLXRuJywgJzgnLCAnLW1hJywgJzIwMCcsICctbWV0YWxfYmluZGluZycsICctaW1hZScsICc8aW5maWxlLm1hZT4nLCAnLW9tYWUnLCAnPG91dGZpbGUubWFlPic=

> <r_lp_tautomer_probability>
1

> <r_epik_Ionization_Penalty>
0.00125962

> <r_epik_Ionization_Penalty_Charging>
0.00107044

> <r_epik_Ionization_Penalty_Neutral>
0.000189176

> <r_epik_State_Penalty>
-0

> <r_epik_Charging_Adjusted_Penalty>
0.00107044

> <i_epik_Tot_Q>
1

> <i_epik_Tot_abs_Q>
1

> <r_epik_Metal_State_Penalty>
0.0179285

> <b_epik_Metal_Only>
0

> <s_lp_Force_Field>
OPLS_2005

> <r_lp_Energy>
35.2761

> <b_lp_Chiralities_Consistent>
1

> <s_lp_Variant>
AV-unprocessed.smi:1965-6

> <Gold.Version>
5.8.1

> <Gold.Id.Protein>
6NUR|6NUR_protein|mol2

> <Gold.PLP.Fitness>
40.3098

> <Gold.PLP.PLP>
-28.6692

> <Gold.PLP.part.hbond>
-3.4865

> <Gold.PLP.part.metal>
0.0000

> <Gold.PLP.part.buried>
2.9236

> <Gold.PLP.part.nonpolar>
-28.9683

> <Gold.PLP.part.repulsive>
0.9697

> <Gold.PLP.ligand.clash>
0.0000

> <Gold.PLP.ligand.torsion>
0.4283

> <Gold.PLP.Chemscore.Hbond>
3.9360

> <Gold.PLP.Chemscore.CHOScore>
0.2267

> <Gold.PLP.Chemscore.Metal>
0.0000

> <Gold.Chemscore.Hbonds>
donor molecule, donor type, donor heavy atom, donor atom, acceptor molecule, acceptor atom, score
      L1  H     3    19       P1  7957  0.94
      L1  H     9    22       P1  7957  0.99
      L1  H    13    37       P1  8028  2.00
      L1  C     7    21       P1  7921  0.26

> <Gold.PLP.Chemscore.Internal.Correction>
0.0093

> <Gold.Rescore>
     Score         DG    S(hbond)    S(metal)    S(lipo)     H(rot)  DE(clash)    DE(int)     intcor
     14.06     -18.41       2.58        0.00      58.65       1.00       2.63       1.72       ----

> <Gold.Chemscore.Fitness>
14.0619

> <Gold.Chemscore.DG>
-18.4116

> <Gold.Chemscore.ZeroCoef>
-5.4800

> <Gold.Chemscore.Hbond>
2.5836

> <Gold.Chemscore.Metal>
0.0000

> <Gold.Chemscore.Lipo>
58.6533

> <Gold.Chemscore.Internal_Hbond>
0.0000

> <Gold.Chemscore.DEClash>
2.6305

> <Gold.Chemscore.DEInternal>
1.7192

> <Gold.Chemscore.Rot>
1.0000

> <Gold.Chemscore.Internal.Correction>
   9.000000E+99

> <Gold.Chemscore.Hbonds>
donor molecule, donor type, donor heavy atom, donor atom, acceptor molecule, acceptor atom, score
      L1  H     3    19       P1  7957  0.72
      L1  H     9    22       P1  7957  0.94
      L1  H    13    37       P1  8028  0.78

> <Gold.Chemscore.Hbond.Weighted>
-8.6292

> <Gold.Chemscore.Metal.Weighted>
-0.0000

> <Gold.Chemscore.Lipo.Weighted>
-6.8624

> <Gold.Chemscore.Internal_Hbond.Weighted>
0.0000

> <Gold.Chemscore.DEClash.Weighted>
2.6305

> <Gold.Chemscore.DEInternal.Weighted>
1.7192

> <Gold.Chemscore.Rot.Weighted>
2.5600

> <Gold.Chemscore.Internal.Correction.Weighted>
   9.000000E+99

> <Gold.Protein.RotatedTorsions>
[ 6907 6896 6895 6894 ] final  -23.65 input  -60.11 | X-H torsion
[ 7974 7965 7964 7962 ] final  -28.26 input  175.53 | X-H torsion
[ 8008 7997 7996 7995 ] final  -17.23 input   59.86 | X-H torsion
[ 10167 10162 10161 10158 ] final  -21.88 input  -65.29 | X-H torsion
[ 10718 10713 10712 10709 ] final  -33.70 input   66.30 | X-H torsion
[ 10763 10752 10751 10750 ] final -141.22 input  -60.55 | X-H torsion
[ 11005 11000 10999 10996 ] final  159.23 input  -57.11 | X-H torsion

> <Gold.Protein.ActiveResidues>
 VAL166  LYS551  ARG553  GLY616  TRP617  ASP618  TYR619  PRO620  LYS621  CYS622 
 ASP623  PHE694  ASN695  SER759  ASP760  ASP761  ALA762  ILE779  LEU786  VAL792 
 PHE793  MET794  SER795  GLU796  ALA797  LYS798  CYS799  TRP800  GLU811  SER814 

> <Gold.Protein.RotatedAtoms>
  151.2010  135.0442  159.8871 H   0  0  0  0  0  0  0  0  0  0  0  0  # atno 6907 bound_to 6896
  152.5432  134.0850  159.8262 H   0  0  0  0  0  0  0  0  0  0  0  0  # atno 6908 bound_to 6896
  151.0991  133.5210  159.2643 H   0  0  0  0  0  0  0  0  0  0  0  0  # atno 6909 bound_to 6896
  146.1300  140.5260  142.8697 H   0  0  0  0  0  0  0  0  0  0  0  0  # atno 7974 bound_to 7965
  154.4994  140.2148  155.9379 H   0  0  0  0  0  0  0  0  0  0  0  0  # atno 8008 bound_to 7997
  156.1413  140.3179  155.8468 H   0  0  0  0  0  0  0  0  0  0  0  0  # atno 8009 bound_to 7997
  155.4114  140.0491  157.3022 H   0  0  0  0  0  0  0  0  0  0  0  0  # atno 8010 bound_to 7997
  140.7284  143.4586  151.0412 H   0  0  0  0  0  0  0  0  0  0  0  0  # atno 10167 bound_to 10162
  156.3595  130.4321  149.7636 H   0  0  0  0  0  0  0  0  0  0  0  0  # atno 10718 bound_to 10713
  154.8552  135.3530  154.5833 H   0  0  0  0  0  0  0  0  0  0  0  0  # atno 10763 bound_to 10752
  153.6443  135.6997  153.5235 H   0  0  0  0  0  0  0  0  0  0  0  0  # atno 10764 bound_to 10752
  153.2945  135.4225  155.1156 H   0  0  0  0  0  0  0  0  0  0  0  0  # atno 10765 bound_to 10752
  140.1941  134.8385  157.2945 H   0  0  0  0  0  0  0  0  0  0  0  0  # atno 11005 bound_to 11000
  144.7681  140.5576  143.6689 LP  0  0  0  0  0  0  0  0  0  0  0  0  # atno 17320 bound_to 7965
  145.5281  139.1475  143.3515 LP  0  0  0  0  0  0  0  0  0  0  0  0  # atno 17321 bound_to 7965
  139.8269  143.7744  152.3179 LP  0  0  0  0  0  0  0  0  0  0  0  0  # atno 17342 bound_to 10162
  139.7846  144.7432  151.0040 LP  0  0  0  0  0  0  0  0  0  0  0  0  # atno 17343 bound_to 10162
  156.4805  130.8039  151.3053 LP  0  0  0  0  0  0  0  0  0  0  0  0  # atno 17370 bound_to 10713
  157.7472  131.0007  150.2936 LP  0  0  0  0  0  0  0  0  0  0  0  0  # atno 17371 bound_to 10713
  140.2126  134.4120  155.7605 LP  0  0  0  0  0  0  0  0  0  0  0  0  # atno 17394 bound_to 11000
  141.2227  133.7126  156.8363 LP  0  0  0  0  0  0  0  0  0  0  0  0  # atno 17395 bound_to 11000

$$$$
