AV-unprocessed.smi:109|AV-procd|sdf|1062|dock7
  -GOLD-   2262018143D 1   1.00000     0.00000
 Structure written by MMmdl.
 58 61  0  0  0  0  0  0  0  0  1 V2000
  149.2736  141.1214  153.2027 O   0  0  0  0  0  0  0  0  0  0  0  0
  149.3353  140.6753  154.5402 C   0  0  0  0  0  0  0  0  0  0  0  0
  150.0456  141.7267  155.4100 C   0  0  0  0  0  0  0  0  0  0  0  0
  150.2971  141.2812  156.8724 C   0  0  1  0  0  0  0  0  0  0  0  0
  151.3223  140.2354  156.8969 N   0  0  0  0  0  0  0  0  0  0  0  0
  151.3173  139.2364  157.8074 C   0  0  0  0  0  0  0  0  0  0  0  0
  152.4537  138.8423  158.4386 N   0  0  0  0  0  0  0  0  0  0  0  0
  152.4112  137.8578  159.3408 C   0  0  0  0  0  0  0  0  0  0  0  0
  151.3579  137.1490  159.7519 N   0  0  0  0  0  0  0  0  0  0  0  0
  150.2136  137.5379  159.1191 C   0  0  0  0  0  0  0  0  0  0  0  0
  150.1125  138.5661  158.1412 C   0  0  0  0  0  0  0  0  0  0  0  0
  148.7954  138.6852  157.7174 N   0  0  0  0  0  0  0  0  0  0  0  0
  148.1592  137.7755  158.4055 C   0  0  0  0  0  0  0  0  0  0  0  0
  148.9342  137.0451  159.2788 N   0  0  0  0  0  0  0  0  0  0  0  0
  148.4897  135.9462  160.1872 C   0  0  1  0  0  0  0  0  0  0  0  0
  148.6252  136.3932  161.4977 O   0  0  0  0  0  0  0  0  0  0  0  0
  147.6067  135.8352  162.3304 C   0  0  1  0  0  0  0  0  0  0  0  0
  146.9094  136.9834  163.0804 C   0  0  0  0  0  0  0  0  0  0  0  0
  146.2577  137.8370  162.1643 O   0  0  0  0  0  0  0  0  0  0  0  0
  146.6556  135.0822  161.3784 C   0  0  2  0  0  0  0  0  0  0  0  0
  146.9023  133.6905  161.4979 O   0  0  0  0  0  0  0  0  0  0  0  0
  147.0112  135.6231  159.9961 C   0  0  2  0  0  0  0  0  0  0  0  0
  146.7697  134.6768  158.9717 O   0  0  0  0  0  0  0  0  0  0  0  0
  150.7311  142.4446  157.8102 C   0  0  0  0  0  0  0  0  0  0  0  0
  151.5319  143.5203  157.0315 C   0  0  0  0  0  0  0  0  0  0  0  0
  151.9720  144.6892  157.9265 C   0  0  0  0  0  0  0  0  0  0  0  0
  152.8015  144.1925  159.1162 C   0  0  0  0  0  0  0  0  0  0  0  0
  152.0207  143.1432  159.9163 C   0  0  0  0  0  0  0  0  0  0  0  0
  151.5702  141.9740  159.0249 C   0  0  0  0  0  0  0  0  0  0  0  0
  149.1567  135.1034  159.9994 H   0  0  0  0  0  0  0  0  0  0  0  0
  148.0549  135.1466  163.0496 H   0  0  0  0  0  0  0  0  0  0  0  0
  145.6040  135.2528  161.6118 H   0  0  0  0  0  0  0  0  0  0  0  0
  146.4517  136.5391  159.8058 H   0  0  0  0  0  0  0  0  0  0  0  0
  149.5425  140.4136  152.6371 H   0  0  0  0  0  0  0  0  0  0  0  0
  148.3217  140.4988  154.9014 H   0  0  0  0  0  0  0  0  0  0  0  0
  149.8626  139.7217  154.5609 H   0  0  0  0  0  0  0  0  0  0  0  0
  150.9904  142.0115  154.9449 H   0  0  0  0  0  0  0  0  0  0  0  0
  149.4169  142.6152  155.3981 H   0  0  0  0  0  0  0  0  0  0  0  0
  149.3551  140.9018  157.2679 H   0  0  0  0  0  0  0  0  0  0  0  0
  152.0496  140.3291  156.2023 H   0  0  0  0  0  0  0  0  0  0  0  0
  153.3549  137.6029  159.7997 H   0  0  0  0  0  0  0  0  0  0  0  0
  147.0966  137.6141  158.2963 H   0  0  0  0  0  0  0  0  0  0  0  0
  146.2035  136.6114  163.8220 H   0  0  0  0  0  0  0  0  0  0  0  0
  147.6447  137.5872  163.6130 H   0  0  0  0  0  0  0  0  0  0  0  0
  145.3241  137.7398  162.2747 H   0  0  0  0  0  0  0  0  0  0  0  0
  147.7999  133.5653  161.7645 H   0  0  0  0  0  0  0  0  0  0  0  0
  145.8812  134.7852  158.6683 H   0  0  0  0  0  0  0  0  0  0  0  0
  149.8271  142.9163  158.1996 H   0  0  0  0  0  0  0  0  0  0  0  0
  152.4114  143.0624  156.5767 H   0  0  0  0  0  0  0  0  0  0  0  0
  150.9415  143.9250  156.2093 H   0  0  0  0  0  0  0  0  0  0  0  0
  152.5516  145.4054  157.3434 H   0  0  0  0  0  0  0  0  0  0  0  0
  151.0933  145.2243  158.2889 H   0  0  0  0  0  0  0  0  0  0  0  0
  153.7375  143.7615  158.7586 H   0  0  0  0  0  0  0  0  0  0  0  0
  153.0701  145.0303  159.7605 H   0  0  0  0  0  0  0  0  0  0  0  0
  152.6351  142.7691  160.7357 H   0  0  0  0  0  0  0  0  0  0  0  0
  151.1471  143.6094  160.3738 H   0  0  0  0  0  0  0  0  0  0  0  0
  150.9980  141.2919  159.6515 H   0  0  0  0  0  0  0  0  0  0  0  0
  152.4437  141.4212  158.6770 H   0  0  0  0  0  0  0  0  0  0  0  0
  1  2  1  0  0  0  0
  1 34  1  0  0  0  0
  2  3  1  0  0  0  0
  2 35  1  0  0  0  0
  2 36  1  0  0  0  0
  3  4  1  0  0  0  0
  3 37  1  0  0  0  0
  3 38  1  0  0  0  0
  4  5  1  0  0  0  0
  4 24  1  0  0  0  0
  4 39  1  0  0  0  0
  5  6  1  0  0  0  0
  5 40  1  0  0  0  0
  6 11  1  0  0  0  0
  6  7  2  0  0  0  0
  7  8  1  0  0  0  0
  8  9  2  0  0  0  0
  8 41  1  0  0  0  0
  9 10  1  0  0  0  0
 10 14  1  0  0  0  0
 10 11  2  0  0  0  0
 11 12  1  0  0  0  0
 12 13  2  0  0  0  0
 13 14  1  0  0  0  0
 13 42  1  0  0  0  0
 14 15  1  0  0  0  0
 15 30  1  0  0  0  0
 15 22  1  0  0  0  0
 15 16  1  0  0  0  0
 16 17  1  0  0  0  0
 17 31  1  0  0  0  0
 17 18  1  0  0  0  0
 17 20  1  0  0  0  0
 18 19  1  0  0  0  0
 18 43  1  0  0  0  0
 18 44  1  0  0  0  0
 19 45  1  0  0  0  0
 20 32  1  0  0  0  0
 20 21  1  0  0  0  0
 20 22  1  0  0  0  0
 21 46  1  0  0  0  0
 22 33  1  0  0  0  0
 22 23  1  0  0  0  0
 23 47  1  0  0  0  0
 24 29  1  0  0  0  0
 24 25  1  0  0  0  0
 24 48  1  0  0  0  0
 25 26  1  0  0  0  0
 25 49  1  0  0  0  0
 25 50  1  0  0  0  0
 26 27  1  0  0  0  0
 26 51  1  0  0  0  0
 26 52  1  0  0  0  0
 27 28  1  0  0  0  0
 27 53  1  0  0  0  0
 27 54  1  0  0  0  0
 28 29  1  0  0  0  0
 28 55  1  0  0  0  0
 28 56  1  0  0  0  0
 29 57  1  0  0  0  0
 29 58  1  0  0  0  0
M  END
> <s_m_source_file>
AV-unprocessed.smi

> <i_m_source_file_index>
109

> <i_lp_mmshare_version>
43012

> <i_f3d_flags>
0

> <s_epik_input>
W0NIMl0xW0NIMl1bQ0gyXVtDSDJdW0NIMl1bQ0hdMVtDQEhdKFtDSDJdW0NIMl1bT0hdKVtOSF1jKG5bY0hdbjIpYyhjMjMpbltjSF1uM1tDQEBIXTRPW0NASF0oW0NIMl1bT0hdKVtDQEBIXShbT0hdKVtDQEhdNFtPSF0=

> <s_epik_cmdline>
J2VwaWtfcHl0aG9uJywgJy1waCcsICc3LjAnLCAnLXRuJywgJzgnLCAnLW1hJywgJzIwMCcsICctbWV0YWxfYmluZGluZycsICctaW1hZScsICc8aW5maWxlLm1hZT4nLCAnLW9tYWUnLCAnPG91dGZpbGUubWFlPic=

> <r_lp_tautomer_probability>
1

> <r_epik_Ionization_Penalty>
0.000793976

> <r_epik_Ionization_Penalty_Charging>
0

> <r_epik_Ionization_Penalty_Neutral>
0.000793976

> <r_epik_State_Penalty>
-0

> <r_epik_Charging_Adjusted_Penalty>
0

> <i_epik_Tot_Q>
0

> <i_epik_Tot_abs_Q>
0

> <r_epik_Metal_State_Penalty>
-0

> <b_epik_Metal_Only>
0

> <s_epik_Chemistry_Notes>
This compound contains an acetal/aminal-like group ( X-CH(R)-Y where X, Y are N, S, or O) that may be acid/base labile, releasing an aldehyde.

> <s_lp_Force_Field>
OPLS_2005

> <r_lp_Energy>
55.705

> <b_lp_Chiralities_Consistent>
1

> <s_lp_Variant>
AV-unprocessed.smi:109-32

> <Gold.Version>
5.8.1

> <Gold.Id.Protein>
6NUR|6NUR_protein|mol2

> <Gold.PLP.Fitness>
61.1213

> <Gold.PLP.PLP>
-50.8741

> <Gold.PLP.part.hbond>
-5.3911

> <Gold.PLP.part.metal>
0.0000

> <Gold.PLP.part.buried>
-6.1751

> <Gold.PLP.part.nonpolar>
-39.1491

> <Gold.PLP.part.repulsive>
0.0883

> <Gold.PLP.ligand.clash>
0.0000

> <Gold.PLP.ligand.torsion>
1.5826

> <Gold.PLP.Chemscore.Hbond>
4.4240

> <Gold.PLP.Chemscore.CHOScore>
0.0000

> <Gold.PLP.Chemscore.Metal>
0.0000

> <Gold.Chemscore.Hbonds>
donor molecule, donor type, donor heavy atom, donor atom, acceptor molecule, acceptor atom, score
      L1  H     1    34       P1  7957  0.80
      P1  H  6896  6908       L1     9  1.00
      P1  H  6931  6943       L1    16  1.00
      P1  H  6934  6947       L1    19  0.62
      P1  H  8011  8017       L1     1  1.00

> <Gold.PLP.Chemscore.Internal.Correction>
0.1404

> <Gold.Rescore>
     Score         DG    S(hbond)    S(metal)    S(lipo)     H(rot)  DE(clash)    DE(int)     intcor
     14.09     -17.39       3.70        0.00     115.70       5.47       0.12       3.18       ----

> <Gold.Chemscore.Fitness>
14.0942

> <Gold.Chemscore.DG>
-17.3919

> <Gold.Chemscore.ZeroCoef>
-5.4800

> <Gold.Chemscore.Hbond>
3.7030

> <Gold.Chemscore.Metal>
0.0000

> <Gold.Chemscore.Lipo>
115.7037

> <Gold.Chemscore.Internal_Hbond>
0.0000

> <Gold.Chemscore.DEClash>
0.1180

> <Gold.Chemscore.DEInternal>
3.1797

> <Gold.Chemscore.Rot>
5.4662

> <Gold.Chemscore.Internal.Correction>
   9.000000E+99

> <Gold.Chemscore.Hbonds>
donor molecule, donor type, donor heavy atom, donor atom, acceptor molecule, acceptor atom, score
      L1  H     1    34       P1  7957  0.73
      P1  H  6896  6908       L1     9  0.67
      P1  H  6931  6943       L1    16  0.87
      P1  H  6934  6947       L1    19  0.62
      P1  H  8011  8017       L1     1  0.25

> <Gold.Chemscore.Hbond.Weighted>
-12.3680

> <Gold.Chemscore.Metal.Weighted>
-0.0000

> <Gold.Chemscore.Lipo.Weighted>
-13.5373

> <Gold.Chemscore.Internal_Hbond.Weighted>
0.0000

> <Gold.Chemscore.DEClash.Weighted>
0.1180

> <Gold.Chemscore.DEInternal.Weighted>
3.1797

> <Gold.Chemscore.Rot.Weighted>
13.9935

> <Gold.Chemscore.Internal.Correction.Weighted>
   9.000000E+99

> <Gold.Protein.RotatedTorsions>
[ 6907 6896 6895 6894 ] final -134.75 input  -60.11 | X-H torsion
[ 7974 7965 7964 7962 ] final -138.54 input  175.53 | X-H torsion
[ 8008 7997 7996 7995 ] final -107.85 input   59.86 | X-H torsion
[ 10167 10162 10161 10158 ] final  -96.49 input  -65.29 | X-H torsion
[ 10718 10713 10712 10709 ] final -121.69 input   66.30 | X-H torsion
[ 10763 10752 10751 10750 ] final  -86.31 input  -60.55 | X-H torsion
[ 11005 11000 10999 10996 ] final   69.92 input  -57.11 | X-H torsion

> <Gold.Protein.ActiveResidues>
 VAL166  LYS551  ARG553  GLY616  TRP617  ASP618  TYR619  PRO620  LYS621  CYS622 
 ASP623  PHE694  ASN695  SER759  ASP760  ASP761  ALA762  ILE779  LEU786  VAL792 
 PHE793  MET794  SER795  GLU796  ALA797  LYS798  CYS799  TRP800  GLU811  SER814 

> <Gold.Protein.RotatedAtoms>
  150.9895  133.6163  159.2710 H   0  0  0  0  0  0  0  0  0  0  0  0  # atno 6907 bound_to 6896
  151.3389  135.0858  159.9374 H   0  0  0  0  0  0  0  0  0  0  0  0  # atno 6908 bound_to 6896
  152.5241  133.9511  159.7726 H   0  0  0  0  0  0  0  0  0  0  0  0  # atno 6909 bound_to 6896
  144.8750  140.6424  143.5242 H   0  0  0  0  0  0  0  0  0  0  0  0  # atno 7974 bound_to 7965
  154.9355  140.0404  157.2070 H   0  0  0  0  0  0  0  0  0  0  0  0  # atno 8008 bound_to 7997
  154.8119  140.2869  155.5825 H   0  0  0  0  0  0  0  0  0  0  0  0  # atno 8009 bound_to 7997
  156.2972  140.2535  156.3009 H   0  0  0  0  0  0  0  0  0  0  0  0  # atno 8010 bound_to 7997
  140.2932  143.3208  152.0324 H   0  0  0  0  0  0  0  0  0  0  0  0  # atno 10167 bound_to 10162
  156.1357  130.6429  150.9693 H   0  0  0  0  0  0  0  0  0  0  0  0  # atno 10718 bound_to 10713
  154.6210  135.5454  153.7575 H   0  0  0  0  0  0  0  0  0  0  0  0  # atno 10763 bound_to 10752
  153.0238  135.6413  154.1440 H   0  0  0  0  0  0  0  0  0  0  0  0  # atno 10764 bound_to 10752
  154.1374  135.2910  155.3149 H   0  0  0  0  0  0  0  0  0  0  0  0  # atno 10765 bound_to 10752
  139.9626  134.7034  156.0613 H   0  0  0  0  0  0  0  0  0  0  0  0  # atno 11005 bound_to 11000
  145.4059  139.1589  143.4152 LP  0  0  0  0  0  0  0  0  0  0  0  0  # atno 17320 bound_to 7965
  146.2957  140.4159  142.8723 LP  0  0  0  0  0  0  0  0  0  0  0  0  # atno 17321 bound_to 7965
  139.4933  144.6510  151.6676 LP  0  0  0  0  0  0  0  0  0  0  0  0  # atno 17342 bound_to 10162
  140.5714  144.0102  150.6219 LP  0  0  0  0  0  0  0  0  0  0  0  0  # atno 17343 bound_to 10162
  157.6530  131.0894  150.8009 LP  0  0  0  0  0  0  0  0  0  0  0  0  # atno 17370 bound_to 10713
  156.8089  130.4946  149.5359 LP  0  0  0  0  0  0  0  0  0  0  0  0  # atno 17371 bound_to 10713
  141.1304  133.6588  156.3450 LP  0  0  0  0  0  0  0  0  0  0  0  0  # atno 17394 bound_to 11000
  140.5466  134.6068  157.5395 LP  0  0  0  0  0  0  0  0  0  0  0  0  # atno 17395 bound_to 11000

$$$$
