AV-unprocessed.smi:819|AV-procd|sdf|3835|dock5
  -GOLD-   22720 1273D 1   1.00000     0.00000
 Structure written by MMmdl.
 40 41  0  0  0  0  0  0  0  0  1 V2000
  146.0915  142.2649  155.0414 C   0  0  0  0  0  0  0  0  0  0  0  0
  146.6128  141.8475  156.4266 C   0  0  1  0  0  0  0  0  0  0  0  0
  147.9474  142.4185  156.6031 N   0  0  0  0  0  0  0  0  0  0  0  0
  148.8498  142.0085  157.5074 C   0  0  0  0  0  0  0  0  0  0  0  0
  148.6464  141.0820  158.2914 O   0  0  0  0  0  0  0  0  0  0  0  0
  149.9712  142.7467  157.4389 N   0  0  0  0  0  0  0  0  0  0  0  0
  151.1663  142.6493  158.2045 C   0  0  0  0  0  0  0  0  0  0  0  0
  152.0729  143.7139  158.4342 C   0  0  0  0  0  0  0  0  0  0  0  0
  153.2156  143.4761  159.2220 C   0  0  0  0  0  0  0  0  0  0  0  0
  153.4103  142.1876  159.7553 C   0  0  0  0  0  0  0  0  0  0  0  0
  152.5532  141.1658  159.5511 N   0  0  0  0  0  0  0  0  0  0  0  0
  151.4606  141.4009  158.7939 C   0  0  0  0  0  0  0  0  0  0  0  0
  145.6511  142.3903  157.4954 C   0  0  0  0  0  0  0  0  0  0  0  0
  144.4554  142.0930  157.4716 O   0  0  0  0  0  0  0  0  0  0  0  0
  146.1938  143.1862  158.4286 N   0  0  0  0  0  0  0  0  0  0  0  0
  145.4617  143.8310  159.5148 C   0  0  0  0  0  0  0  0  0  0  0  0
  146.3469  144.8479  160.2633 C   0  0  0  0  0  0  0  0  0  0  0  0
  146.6763  144.2049  161.6104 C   0  0  0  0  0  0  0  0  0  0  0  0
  145.4513  143.3516  161.9233 C   0  0  0  0  0  0  0  0  0  0  0  0
  145.0190  142.7941  160.5657 C   0  0  0  0  0  0  0  0  0  0  0  0
  145.0916  141.8690  154.8585 H   0  0  0  0  0  0  0  0  0  0  0  0
  146.7394  141.8839  154.2517 H   0  0  0  0  0  0  0  0  0  0  0  0
  146.0443  143.3499  154.9335 H   0  0  0  0  0  0  0  0  0  0  0  0
  146.6668  140.7582  156.4817 H   0  0  0  0  0  0  0  0  0  0  0  0
  148.1913  143.1930  156.0037 H   0  0  0  0  0  0  0  0  0  0  0  0
  149.9593  143.4961  156.7625 H   0  0  0  0  0  0  0  0  0  0  0  0
  151.9218  144.7042  158.0367 H   0  0  0  0  0  0  0  0  0  0  0  0
  153.9268  144.2657  159.4151 H   0  0  0  0  0  0  0  0  0  0  0  0
  154.2757  141.9736  160.3649 H   0  0  0  0  0  0  0  0  0  0  0  0
  150.7975  140.5596  158.6533 H   0  0  0  0  0  0  0  0  0  0  0  0
  147.1831  143.3788  158.3683 H   0  0  0  0  0  0  0  0  0  0  0  0
  144.5835  144.3389  159.1114 H   0  0  0  0  0  0  0  0  0  0  0  0
  147.2468  145.1315  159.7154 H   0  0  0  0  0  0  0  0  0  0  0  0
  145.7761  145.7622  160.4322 H   0  0  0  0  0  0  0  0  0  0  0  0
  147.5544  143.5655  161.5076 H   0  0  0  0  0  0  0  0  0  0  0  0
  146.8871  144.9405  162.3870 H   0  0  0  0  0  0  0  0  0  0  0  0
  145.6598  142.5678  162.6519 H   0  0  0  0  0  0  0  0  0  0  0  0
  144.6600  143.9830  162.3299 H   0  0  0  0  0  0  0  0  0  0  0  0
  143.9458  142.6042  160.5291 H   0  0  0  0  0  0  0  0  0  0  0  0
  145.5195  141.8387  160.4001 H   0  0  0  0  0  0  0  0  0  0  0  0
  1  2  1  0  0  0  0
  1 21  1  0  0  0  0
  1 22  1  0  0  0  0
  1 23  1  0  0  0  0
  2  3  1  0  0  0  0
  2 13  1  0  0  0  0
  2 24  1  0  0  0  0
  3  4  1  0  0  0  0
  3 25  1  0  0  0  0
  4  5  2  0  0  0  0
  4  6  1  0  0  0  0
  6  7  1  0  0  0  0
  6 26  1  0  0  0  0
  7 12  1  0  0  0  0
  7  8  2  0  0  0  0
  8  9  1  0  0  0  0
  8 27  1  0  0  0  0
  9 10  2  0  0  0  0
  9 28  1  0  0  0  0
 10 11  1  0  0  0  0
 10 29  1  0  0  0  0
 11 12  2  0  0  0  0
 12 30  1  0  0  0  0
 13 14  2  0  0  0  0
 13 15  1  0  0  0  0
 15 16  1  0  0  0  0
 15 31  1  0  0  0  0
 16 20  1  0  0  0  0
 16 17  1  0  0  0  0
 16 32  1  0  0  0  0
 17 18  1  0  0  0  0
 17 33  1  0  0  0  0
 17 34  1  0  0  0  0
 18 19  1  0  0  0  0
 18 35  1  0  0  0  0
 18 36  1  0  0  0  0
 19 20  1  0  0  0  0
 19 37  1  0  0  0  0
 19 38  1  0  0  0  0
 20 39  1  0  0  0  0
 20 40  1  0  0  0  0
M  END
> <s_m_source_file>
AV-unprocessed.smi

> <i_m_source_file_index>
819

> <i_lp_mmshare_version>
43012

> <i_f3d_flags>
0

> <s_epik_input>
W0NIMl0xW0NIMl1bQ0gyXVtDSDJdW0NIXTFbTkhdQyg9TylbQ0BIXShbQ0gzXSlbTkhdQyg9TylbTkhdYzJbY0hdW2NIXVtjSF1uW2NIXTI=

> <s_epik_cmdline>
J2VwaWtfcHl0aG9uJywgJy1waCcsICc3LjAnLCAnLXRuJywgJzgnLCAnLW1hJywgJzIwMCcsICctbWV0YWxfYmluZGluZycsICctaW1hZScsICc8aW5maWxlLm1hZT4nLCAnLW9tYWUnLCAnPG91dGZpbGUubWFlPic=

> <r_epik_Ionization_Penalty>
0.00416979

> <r_epik_Ionization_Penalty_Charging>
0

> <r_epik_Ionization_Penalty_Neutral>
0.00416979

> <r_epik_State_Penalty>
0.00297037

> <r_epik_Charging_Adjusted_Penalty>
0.00297037

> <i_epik_Tot_Q>
0

> <i_epik_Tot_abs_Q>
0

> <r_epik_Metal_State_Penalty>
-0

> <b_epik_Metal_Only>
0

> <s_lp_Force_Field>
OPLS_2005

> <r_lp_Energy>
20.1385

> <b_lp_Chiralities_Consistent>
1

> <s_lp_Variant>
AV-unprocessed.smi:819-2

> <Gold.Version>
5.8.1

> <Gold.Id.Protein>
6NUR|6NUR_protein|mol2

> <Gold.PLP.Fitness>
40.3587

> <Gold.PLP.PLP>
-35.5751

> <Gold.PLP.part.hbond>
-2.7864

> <Gold.PLP.part.metal>
0.0000

> <Gold.PLP.part.buried>
-6.1663

> <Gold.PLP.part.nonpolar>
-26.9393

> <Gold.PLP.part.repulsive>
0.1030

> <Gold.PLP.ligand.clash>
0.0000

> <Gold.PLP.ligand.torsion>
0.5104

> <Gold.PLP.Chemscore.Hbond>
1.9280

> <Gold.PLP.Chemscore.CHOScore>
0.0000

> <Gold.PLP.Chemscore.Metal>
0.0000

> <Gold.Chemscore.Hbonds>
donor molecule, donor type, donor heavy atom, donor atom, acceptor molecule, acceptor atom, score
      L1  H     3    25       P1  8028  1.00
      L1  H     6    26       P1  8028  0.96

> <Gold.PLP.Chemscore.Internal.Correction>
0.0205

> <Gold.Rescore>
     Score         DG    S(hbond)    S(metal)    S(lipo)     H(rot)  DE(clash)    DE(int)     intcor
     15.63     -17.67       1.85        0.00      84.66       1.52       0.19       1.86       ----

> <Gold.Chemscore.Fitness>
15.6281

> <Gold.Chemscore.DG>
-17.6742

> <Gold.Chemscore.ZeroCoef>
-5.4800

> <Gold.Chemscore.Hbond>
1.8524

> <Gold.Chemscore.Metal>
0.0000

> <Gold.Chemscore.Lipo>
84.6572

> <Gold.Chemscore.Internal_Hbond>
0.0000

> <Gold.Chemscore.DEClash>
0.1893

> <Gold.Chemscore.DEInternal>
1.8568

> <Gold.Chemscore.Rot>
1.5225

> <Gold.Chemscore.Internal.Correction>
   9.000000E+99

> <Gold.Chemscore.Hbonds>
donor molecule, donor type, donor heavy atom, donor atom, acceptor molecule, acceptor atom, score
      L1  H     3    25       P1  8028  0.69
      L1  H     6    26       P1  8028  0.91

> <Gold.Chemscore.Hbond.Weighted>
-6.1870

> <Gold.Chemscore.Metal.Weighted>
-0.0000

> <Gold.Chemscore.Lipo.Weighted>
-9.9049

> <Gold.Chemscore.Internal_Hbond.Weighted>
0.0000

> <Gold.Chemscore.DEClash.Weighted>
0.1893

> <Gold.Chemscore.DEInternal.Weighted>
1.8568

> <Gold.Chemscore.Rot.Weighted>
3.8977

> <Gold.Chemscore.Internal.Correction.Weighted>
   9.000000E+99

> <Gold.Protein.RotatedTorsions>
[ 6907 6896 6895 6894 ] final   74.30 input  -60.11 | X-H torsion
[ 7974 7965 7964 7962 ] final -156.58 input  175.53 | X-H torsion
[ 8008 7997 7996 7995 ] final  151.72 input   59.86 | X-H torsion
[ 10167 10162 10161 10158 ] final   33.77 input  -65.29 | X-H torsion
[ 10718 10713 10712 10709 ] final  157.06 input   66.30 | X-H torsion
[ 10763 10752 10751 10750 ] final  110.83 input  -60.55 | X-H torsion
[ 11005 11000 10999 10996 ] final   29.81 input  -57.11 | X-H torsion

> <Gold.Protein.ActiveResidues>
 VAL166  LYS551  ARG553  GLY616  TRP617  ASP618  TYR619  PRO620  LYS621  CYS622 
 ASP623  PHE694  ASN695  SER759  ASP760  ASP761  ALA762  ILE779  LEU786  VAL792 
 PHE793  MET794  SER795  GLU796  ALA797  LYS798  CYS799  TRP800  GLU811  SER814 

> <Gold.Protein.RotatedAtoms>
  152.4968  134.4293  159.9506 H   0  0  0  0  0  0  0  0  0  0  0  0  # atno 6907 bound_to 6896
  151.4270  133.3675  159.2771 H   0  0  0  0  0  0  0  0  0  0  0  0  # atno 6908 bound_to 6896
  150.9182  134.8622  159.7530 H   0  0  0  0  0  0  0  0  0  0  0  0  # atno 6909 bound_to 6896
  144.7587  140.4090  143.5993 H   0  0  0  0  0  0  0  0  0  0  0  0  # atno 7974 bound_to 7965
  156.2661  140.2040  156.6221 H   0  0  0  0  0  0  0  0  0  0  0  0  # atno 8008 bound_to 7997
  154.6749  140.0546  157.0229 H   0  0  0  0  0  0  0  0  0  0  0  0  # atno 8009 bound_to 7997
  155.1084  140.3213  155.4531 H   0  0  0  0  0  0  0  0  0  0  0  0  # atno 8010 bound_to 7997
  140.4377  144.1233  150.6169 H   0  0  0  0  0  0  0  0  0  0  0  0  # atno 10167 bound_to 10162
  157.1966  131.0667  151.2049 H   0  0  0  0  0  0  0  0  0  0  0  0  # atno 10718 bound_to 10713
  153.4546  135.3736  155.2303 H   0  0  0  0  0  0  0  0  0  0  0  0  # atno 10763 bound_to 10752
  154.8757  135.3894  154.3998 H   0  0  0  0  0  0  0  0  0  0  0  0  # atno 10764 bound_to 10752
  153.4562  135.7086  153.6142 H   0  0  0  0  0  0  0  0  0  0  0  0  # atno 10765 bound_to 10752
  140.3010  134.2757  155.7754 H   0  0  0  0  0  0  0  0  0  0  0  0  # atno 11005 bound_to 11000
  145.6692  139.1596  143.2764 LP  0  0  0  0  0  0  0  0  0  0  0  0  # atno 17320 bound_to 7965
  146.1626  140.6765  142.9270 LP  0  0  0  0  0  0  0  0  0  0  0  0  # atno 17321 bound_to 7965
  140.4354  143.2549  151.9541 LP  0  0  0  0  0  0  0  0  0  0  0  0  # atno 17342 bound_to 10162
  139.4788  144.5704  151.8097 LP  0  0  0  0  0  0  0  0  0  0  0  0  # atno 17343 bound_to 10162
  157.3808  130.7230  149.6629 LP  0  0  0  0  0  0  0  0  0  0  0  0  # atno 17370 bound_to 10713
  155.9705  130.4173  150.4272 LP  0  0  0  0  0  0  0  0  0  0  0  0  # atno 17371 bound_to 10713
  141.2128  133.7646  156.9767 LP  0  0  0  0  0  0  0  0  0  0  0  0  # atno 17394 bound_to 11000
  140.1109  134.9477  157.2064 LP  0  0  0  0  0  0  0  0  0  0  0  0  # atno 17395 bound_to 11000

$$$$
