AV-unprocessed.smi:970|AV-procd|sdf|4294|dock10
  -GOLD-   22720 2203D 1   1.00000     0.00000
 Structure written by MMmdl.
 31 31  0  0  0  0  0  0  0  0  1 V2000
  151.2890  138.1550  154.4627 C   0  0  0  0  0  0  0  0  0  0  0  0
  150.6276  139.3799  154.8845 N   0  0  0  0  0  0  0  0  0  0  0  0
  151.2076  140.3343  155.6263 C   0  0  0  0  0  0  0  0  0  0  0  0
  152.3689  140.2587  156.0317 O   0  0  0  0  0  0  0  0  0  0  0  0
  150.3340  141.5507  155.9745 C   0  0  1  0  0  0  0  0  0  0  0  0
  149.1254  141.0547  156.7859 C   0  0  0  0  0  0  0  0  0  0  0  0
  151.0748  142.4971  156.8062 N   0  0  0  0  0  0  0  0  0  0  0  0
  151.6614  142.2063  157.9792 C   0  0  0  0  0  0  0  0  0  0  0  0
  151.6368  141.0820  158.4816 O   0  0  0  0  0  0  0  0  0  0  0  0
  152.3832  143.3656  158.6832 C   0  0  1  0  0  0  0  0  0  0  0  0
  151.5077  144.6307  158.7915 C   0  0  0  0  0  0  0  0  0  0  0  0
  152.8882  142.9280  159.9790 N   0  0  0  0  0  0  0  0  0  0  0  0
  153.7730  141.9733  160.2761 C   0  0  0  0  0  0  0  0  0  0  0  0
  153.9664  141.8030  161.5764 N   0  0  0  0  0  0  0  0  0  0  0  0
  153.1007  142.7422  162.0603 C   0  0  0  0  0  0  0  0  0  0  0  0
  152.4217  143.4361  161.1473 N   0  0  0  0  0  0  0  0  0  0  0  0
  150.6302  137.5821  153.8104 H   0  0  0  0  0  0  0  0  0  0  0  0
  151.5397  137.5350  155.3244 H   0  0  0  0  0  0  0  0  0  0  0  0
  152.2052  138.3754  153.9132 H   0  0  0  0  0  0  0  0  0  0  0  0
  149.6712  139.5144  154.5899 H   0  0  0  0  0  0  0  0  0  0  0  0
  149.9873  142.0434  155.0638 H   0  0  0  0  0  0  0  0  0  0  0  0
  148.5289  140.3425  156.2141 H   0  0  0  0  0  0  0  0  0  0  0  0
  148.4700  141.8842  157.0530 H   0  0  0  0  0  0  0  0  0  0  0  0
  149.4302  140.5654  157.7124 H   0  0  0  0  0  0  0  0  0  0  0  0
  151.1337  143.4468  156.4690 H   0  0  0  0  0  0  0  0  0  0  0  0
  153.2508  143.6280  158.0751 H   0  0  0  0  0  0  0  0  0  0  0  0
  151.1919  144.9742  157.8058 H   0  0  0  0  0  0  0  0  0  0  0  0
  152.0595  145.4463  159.2594 H   0  0  0  0  0  0  0  0  0  0  0  0
  150.6081  144.4588  159.3841 H   0  0  0  0  0  0  0  0  0  0  0  0
  154.2828  141.3873  159.5255 H   0  0  0  0  0  0  0  0  0  0  0  0
  152.9613  142.9152  163.1173 H   0  0  0  0  0  0  0  0  0  0  0  0
  1  2  1  0  0  0  0
  1 17  1  0  0  0  0
  1 18  1  0  0  0  0
  1 19  1  0  0  0  0
  2  3  1  0  0  0  0
  2 20  1  0  0  0  0
  3  4  2  0  0  0  0
  3  5  1  0  0  0  0
  5  6  1  0  0  0  0
  5  7  1  0  0  0  0
  5 21  1  0  0  0  0
  6 22  1  0  0  0  0
  6 23  1  0  0  0  0
  6 24  1  0  0  0  0
  7  8  1  0  0  0  0
  7 25  1  0  0  0  0
  8  9  2  0  0  0  0
  8 10  1  0  0  0  0
 10 11  1  0  0  0  0
 10 12  1  0  0  0  0
 10 26  1  0  0  0  0
 11 27  1  0  0  0  0
 11 28  1  0  0  0  0
 11 29  1  0  0  0  0
 12 16  1  0  0  0  0
 12 13  1  0  0  0  0
 13 14  2  0  0  0  0
 13 30  1  0  0  0  0
 14 15  1  0  0  0  0
 15 16  2  0  0  0  0
 15 31  1  0  0  0  0
M  END
> <s_m_source_file>
AV-unprocessed.smi

> <i_m_source_file_index>
970

> <i_lp_mmshare_version>
43012

> <i_f3d_flags>
0

> <s_epik_input>
W0NIM11bTkhdQyg9TylbQ0BIXShbQ0gzXSlbTkhdQyg9TylbQ0BIXShbQ0gzXSluMVtjSF1uW2NIXW4x

> <s_epik_cmdline>
J2VwaWtfcHl0aG9uJywgJy1waCcsICc3LjAnLCAnLXRuJywgJzgnLCAnLW1hJywgJzIwMCcsICctbWV0YWxfYmluZGluZycsICctaW1hZScsICc8aW5maWxlLm1hZT4nLCAnLW9tYWUnLCAnPG91dGZpbGUubWFlPic=

> <r_lp_tautomer_probability>
1

> <r_epik_Ionization_Penalty>
1.07271e-05

> <r_epik_Ionization_Penalty_Charging>
0

> <r_epik_Ionization_Penalty_Neutral>
1.07271e-05

> <r_epik_State_Penalty>
-0

> <r_epik_Charging_Adjusted_Penalty>
0

> <i_epik_Tot_Q>
0

> <i_epik_Tot_abs_Q>
0

> <r_epik_Metal_State_Penalty>
-0

> <b_epik_Metal_Only>
0

> <s_lp_Force_Field>
OPLS_2005

> <r_lp_Energy>
8.70478

> <b_lp_Chiralities_Consistent>
1

> <s_lp_Variant>
AV-unprocessed.smi:970-4

> <Gold.Version>
5.8.1

> <Gold.Id.Protein>
6NUR|6NUR_protein|mol2

> <Gold.PLP.Fitness>
38.8418

> <Gold.PLP.PLP>
-36.2190

> <Gold.PLP.part.hbond>
-1.0740

> <Gold.PLP.part.metal>
0.0000

> <Gold.PLP.part.buried>
-4.0387

> <Gold.PLP.part.nonpolar>
-30.2107

> <Gold.PLP.part.repulsive>
0.2849

> <Gold.PLP.ligand.clash>
0.0000

> <Gold.PLP.ligand.torsion>
0.2293

> <Gold.PLP.Chemscore.Hbond>
0.9913

> <Gold.PLP.Chemscore.CHOScore>
0.0000

> <Gold.PLP.Chemscore.Metal>
0.0000

> <Gold.Chemscore.Hbonds>
donor molecule, donor type, donor heavy atom, donor atom, acceptor molecule, acceptor atom, score
      P1  H  7997  8010       L1     4  1.00

> <Gold.PLP.Chemscore.Internal.Correction>
0.1077

> <Gold.Rescore>
     Score         DG    S(hbond)    S(metal)    S(lipo)     H(rot)  DE(clash)    DE(int)     intcor
      1.06      -7.23       1.00        0.00      43.15       2.59       0.13       6.05       ----

> <Gold.Chemscore.Fitness>
1.0568

> <Gold.Chemscore.DG>
-7.2349

> <Gold.Chemscore.ZeroCoef>
-5.4800

> <Gold.Chemscore.Hbond>
0.9954

> <Gold.Chemscore.Metal>
0.0000

> <Gold.Chemscore.Lipo>
43.1497

> <Gold.Chemscore.Internal_Hbond>
0.0000

> <Gold.Chemscore.DEClash>
0.1301

> <Gold.Chemscore.DEInternal>
6.0480

> <Gold.Chemscore.Rot>
2.5852

> <Gold.Chemscore.Internal.Correction>
   9.000000E+99

> <Gold.Chemscore.Hbonds>
donor molecule, donor type, donor heavy atom, donor atom, acceptor molecule, acceptor atom, score
      P1  H  7997  8010       L1     4  0.92

> <Gold.Chemscore.Hbond.Weighted>
-3.3245

> <Gold.Chemscore.Metal.Weighted>
-0.0000

> <Gold.Chemscore.Lipo.Weighted>
-5.0485

> <Gold.Chemscore.Internal_Hbond.Weighted>
0.0000

> <Gold.Chemscore.DEClash.Weighted>
0.1301

> <Gold.Chemscore.DEInternal.Weighted>
6.0480

> <Gold.Chemscore.Rot.Weighted>
6.6182

> <Gold.Chemscore.Internal.Correction.Weighted>
   9.000000E+99

> <Gold.Protein.RotatedTorsions>
[ 6907 6896 6895 6894 ] final  100.66 input  -60.11 | X-H torsion
[ 7974 7965 7964 7962 ] final  -61.92 input  175.53 | X-H torsion
[ 8008 7997 7996 7995 ] final   93.57 input   59.86 | X-H torsion
[ 10167 10162 10161 10158 ] final   17.26 input  -65.29 | X-H torsion
[ 10718 10713 10712 10709 ] final -100.18 input   66.30 | X-H torsion
[ 10763 10752 10751 10750 ] final  103.09 input  -60.55 | X-H torsion
[ 11005 11000 10999 10996 ] final  150.00 input  -57.11 | X-H torsion

> <Gold.Protein.ActiveResidues>
 VAL166  LYS551  ARG553  GLY616  TRP617  ASP618  TYR619  PRO620  LYS621  CYS622 
 ASP623  PHE694  ASN695  SER759  ASP760  ASP761  ALA762  ILE779  LEU786  VAL792 
 PHE793  MET794  SER795  GLU796  ALA797  LYS798  CYS799  TRP800  GLU811  SER814 

> <Gold.Protein.RotatedAtoms>
  152.5367  134.0243  159.7995 H   0  0  0  0  0  0  0  0  0  0  0  0  # atno 6907 bound_to 6896
  151.0425  133.5686  159.2657 H   0  0  0  0  0  0  0  0  0  0  0  0  # atno 6908 bound_to 6896
  151.2651  135.0674  159.9166 H   0  0  0  0  0  0  0  0  0  0  0  0  # atno 6909 bound_to 6896
  145.7975  140.8674  143.0248 H   0  0  0  0  0  0  0  0  0  0  0  0  # atno 7974 bound_to 7965
  156.0482  140.3311  155.7320 H   0  0  0  0  0  0  0  0  0  0  0  0  # atno 8008 bound_to 7997
  155.5641  140.0622  157.2839 H   0  0  0  0  0  0  0  0  0  0  0  0  # atno 8009 bound_to 7997
  154.4423  140.1872  156.0801 H   0  0  0  0  0  0  0  0  0  0  0  0  # atno 8010 bound_to 7997
  140.5739  143.9109  150.6734 H   0  0  0  0  0  0  0  0  0  0  0  0  # atno 10167 bound_to 10162
  156.0155  130.5316  150.6779 H   0  0  0  0  0  0  0  0  0  0  0  0  # atno 10718 bound_to 10713
  153.3481  135.3988  155.1625 H   0  0  0  0  0  0  0  0  0  0  0  0  # atno 10763 bound_to 10752
  154.8657  135.3650  154.5257 H   0  0  0  0  0  0  0  0  0  0  0  0  # atno 10764 bound_to 10752
  153.5707  135.7079  153.5566 H   0  0  0  0  0  0  0  0  0  0  0  0  # atno 10765 bound_to 10752
  140.1093  134.8934  157.1912 H   0  0  0  0  0  0  0  0  0  0  0  0  # atno 11005 bound_to 11000
  144.6773  140.0212  143.7483 LP  0  0  0  0  0  0  0  0  0  0  0  0  # atno 17320 bound_to 7965
  145.9912  139.3016  143.0984 LP  0  0  0  0  0  0  0  0  0  0  0  0  # atno 17321 bound_to 7965
  140.2592  143.3536  152.1338 LP  0  0  0  0  0  0  0  0  0  0  0  0  # atno 17342 bound_to 10162
  139.5132  144.6929  151.5711 LP  0  0  0  0  0  0  0  0  0  0  0  0  # atno 17343 bound_to 10162
  157.4487  131.0870  151.0868 LP  0  0  0  0  0  0  0  0  0  0  0  0  # atno 17370 bound_to 10713
  157.1390  130.6135  149.5550 LP  0  0  0  0  0  0  0  0  0  0  0  0  # atno 17371 bound_to 10713
  140.3113  134.3021  155.7266 LP  0  0  0  0  0  0  0  0  0  0  0  0  # atno 17394 bound_to 11000
  141.2126  133.7652  156.9780 LP  0  0  0  0  0  0  0  0  0  0  0  0  # atno 17395 bound_to 11000

$$$$
