AV-unprocessed.smi:749|AV-procd|sdf|3586|dock10
  -GOLD-   22720 0583D 1   1.00000     0.00000
 Structure written by MMmdl.
 42 43  0  0  0  0  0  0  0  0  2 V2000
  146.5030  140.9655  152.7539 C   0  0  0  0  0  0  0  0  0  0  0  0
  147.6962  140.6954  153.5580 N   0  0  0  0  0  0  0  0  0  0  0  0
  148.1415  139.2934  153.5507 C   0  0  0  0  0  0  0  0  0  0  0  0
  149.1456  138.9462  154.6631 C   0  0  1  0  0  0  0  0  0  0  0  0
  149.7511  137.6461  154.3907 N   0  0  0  0  0  0  0  0  0  0  0  0
  150.6568  137.0076  155.1575 C   0  0  0  0  0  0  0  0  0  0  0  0
  151.0395  137.5427  156.1974 O   0  0  0  0  0  0  0  0  0  0  0  0
  151.1038  135.7947  154.7357 N   0  5  0  0  0  0  0  0  0  0  0  0
  150.4626  134.6462  155.0140 C   0  0  0  0  0  0  0  0  0  0  0  0
  149.6295  133.9194  154.1211 C   0  0  0  0  0  0  0  0  0  0  0  0
  149.2275  132.8437  154.8648 C   0  0  0  0  0  0  0  0  0  0  0  0
  148.3532  131.6558  154.5770 C   0  0  0  0  0  0  0  0  0  0  0  0
  149.1744  130.3511  154.6078 C   0  0  0  0  0  0  0  0  0  0  0  0
  147.7152  131.7966  153.1822 C   0  0  0  0  0  0  0  0  0  0  0  0
  147.2396  131.5537  155.6361 C   0  0  0  0  0  0  0  0  0  0  0  0
  149.7657  132.9192  156.1140 O   0  0  0  0  0  0  0  0  0  0  0  0
  150.5475  134.0761  156.2035 N   0  0  0  0  0  0  0  0  0  0  0  0
  150.2160  140.0387  154.7478 C   0  0  0  0  0  0  0  0  0  0  0  0
  149.5719  141.3964  155.0523 C   0  0  0  0  0  0  0  0  0  0  0  0
  148.3446  141.7087  154.1820 C   0  0  0  0  0  0  0  0  0  0  0  0
  147.9701  142.8794  154.1067 O   0  0  0  0  0  0  0  0  0  0  0  0
  145.6907  141.3252  153.3864 H   0  0  0  0  0  0  0  0  0  0  0  0
  146.1478  140.0760  152.2320 H   0  0  0  0  0  0  0  0  0  0  0  0
  146.7084  141.7237  151.9968 H   0  0  0  0  0  0  0  0  0  0  0  0
  147.2794  138.6295  153.6305 H   0  0  0  0  0  0  0  0  0  0  0  0
  148.5916  139.1018  152.5751 H   0  0  0  0  0  0  0  0  0  0  0  0
  148.6052  138.9023  155.6109 H   0  0  0  0  0  0  0  0  0  0  0  0
  149.4613  137.1836  153.5415 H   0  0  0  0  0  0  0  0  0  0  0  0
  149.3761  134.1498  153.0971 H   0  0  0  0  0  0  0  0  0  0  0  0
  148.5494  129.4817  154.4006 H   0  0  0  0  0  0  0  0  0  0  0  0
  149.6374  130.1949  155.5831 H   0  0  0  0  0  0  0  0  0  0  0  0
  149.9716  130.3649  153.8634 H   0  0  0  0  0  0  0  0  0  0  0  0
  148.4766  131.8672  152.4047 H   0  0  0  0  0  0  0  0  0  0  0  0
  147.0943  132.6907  153.1152 H   0  0  0  0  0  0  0  0  0  0  0  0
  147.0814  130.9414  152.9450 H   0  0  0  0  0  0  0  0  0  0  0  0
  146.5962  130.6916  155.4567 H   0  0  0  0  0  0  0  0  0  0  0  0
  146.6041  132.4401  155.6346 H   0  0  0  0  0  0  0  0  0  0  0  0
  147.6560  131.4510  156.6390 H   0  0  0  0  0  0  0  0  0  0  0  0
  150.9433  139.7995  155.5245 H   0  0  0  0  0  0  0  0  0  0  0  0
  150.7714  140.0936  153.8101 H   0  0  0  0  0  0  0  0  0  0  0  0
  149.2503  141.4186  156.0942 H   0  0  0  0  0  0  0  0  0  0  0  0
  150.3102  142.1909  154.9378 H   0  0  0  0  0  0  0  0  0  0  0  0
  1  2  1  0  0  0  0
  1 22  1  0  0  0  0
  1 23  1  0  0  0  0
  1 24  1  0  0  0  0
  2 20  1  0  0  0  0
  2  3  1  0  0  0  0
  3  4  1  0  0  0  0
  3 25  1  0  0  0  0
  3 26  1  0  0  0  0
  4  5  1  0  0  0  0
  4 18  1  0  0  0  0
  4 27  1  0  0  0  0
  5  6  1  0  0  0  0
  5 28  1  0  0  0  0
  6  7  2  0  0  0  0
  6  8  1  0  0  0  0
  8  9  1  0  0  0  0
  9 17  2  0  0  0  0
  9 10  1  0  0  0  0
 10 11  2  0  0  0  0
 10 29  1  0  0  0  0
 11 12  1  0  0  0  0
 11 16  1  0  0  0  0
 12 13  1  0  0  0  0
 12 14  1  0  0  0  0
 12 15  1  0  0  0  0
 13 30  1  0  0  0  0
 13 31  1  0  0  0  0
 13 32  1  0  0  0  0
 14 33  1  0  0  0  0
 14 34  1  0  0  0  0
 14 35  1  0  0  0  0
 15 36  1  0  0  0  0
 15 37  1  0  0  0  0
 15 38  1  0  0  0  0
 16 17  1  0  0  0  0
 18 19  1  0  0  0  0
 18 39  1  0  0  0  0
 18 40  1  0  0  0  0
 19 20  1  0  0  0  0
 19 41  1  0  0  0  0
 19 42  1  0  0  0  0
 20 21  2  0  0  0  0
M  CHG  1   8  -1
M  END
> <s_m_source_file>
AV-unprocessed.smi

> <i_m_source_file_index>
749

> <i_lp_mmshare_version>
43012

> <i_f3d_flags>
0

> <s_epik_input>
Tz1DMVtDSDJdW0NIMl1bQ0BASF0oW0NIMl1OMVtDSDNdKVtOSF1DKD1PKVtOSF1jMltjSF1jKG9uMilDKFtDSDNdKShbQ0gzXSlbQ0gzXQ==

> <s_epik_cmdline>
J2VwaWtfcHl0aG9uJywgJy1waCcsICc3LjAnLCAnLXRuJywgJzgnLCAnLW1hJywgJzIwMCcsICctbWV0YWxfYmluZGluZycsICctaW1hZScsICc8aW5maWxlLm1hZT4nLCAnLW9tYWUnLCAnPG91dGZpbGUubWFlPic=

> <r_lp_tautomer_probability>
1

> <r_epik_Ionization_Penalty>
6.47858

> <r_epik_Ionization_Penalty_Charging>
6.47844

> <r_epik_Ionization_Penalty_Neutral>
0.000138814

> <r_epik_State_Penalty>
6.47843

> <r_epik_Charging_Adjusted_Penalty>
12.9569

> <i_epik_Tot_Q>
-1

> <i_epik_Tot_abs_Q>
1

> <r_epik_Metal_State_Penalty>
2.40644

> <b_epik_Metal_Only>
1

> <s_lp_Force_Field>
OPLS_2005

> <r_lp_Energy>
10.0232

> <b_lp_Chiralities_Consistent>
1

> <s_lp_Variant>
AV-unprocessed.smi:749-3

> <Gold.Version>
5.8.1

> <Gold.Id.Protein>
6NUR|6NUR_protein|mol2

> <Gold.PLP.Fitness>
34.2865

> <Gold.PLP.PLP>
-25.7378

> <Gold.PLP.part.hbond>
-4.0000

> <Gold.PLP.part.metal>
0.0000

> <Gold.PLP.part.buried>
4.7940

> <Gold.PLP.part.nonpolar>
-28.8019

> <Gold.PLP.part.repulsive>
4.0580

> <Gold.PLP.ligand.clash>
0.0000

> <Gold.PLP.ligand.torsion>
1.5722

> <Gold.PLP.Chemscore.Hbond>
3.8882

> <Gold.PLP.Chemscore.CHOScore>
0.0000

> <Gold.PLP.Chemscore.Metal>
0.0000

> <Gold.Chemscore.Hbonds>
donor molecule, donor type, donor heavy atom, donor atom, acceptor molecule, acceptor atom, score
      L1  H     5    28       P1  7948  1.00
      P1  H  8022  8030       L1    21  0.89
      P1  H 10752 10764       L1     8  2.00

> <Gold.PLP.Chemscore.Internal.Correction>
0.0285

> <Gold.Rescore>
     Score         DG    S(hbond)    S(metal)    S(lipo)     H(rot)  DE(clash)    DE(int)     intcor
     12.45     -17.60       2.49        0.00      59.27       1.22       2.64       2.52       ----

> <Gold.Chemscore.Fitness>
12.4459

> <Gold.Chemscore.DG>
-17.6045

> <Gold.Chemscore.ZeroCoef>
-5.4800

> <Gold.Chemscore.Hbond>
2.4889

> <Gold.Chemscore.Metal>
0.0000

> <Gold.Chemscore.Lipo>
59.2691

> <Gold.Chemscore.Internal_Hbond>
0.0000

> <Gold.Chemscore.DEClash>
2.6426

> <Gold.Chemscore.DEInternal>
2.5160

> <Gold.Chemscore.Rot>
1.2198

> <Gold.Chemscore.Internal.Correction>
   9.000000E+99

> <Gold.Chemscore.Hbonds>
donor molecule, donor type, donor heavy atom, donor atom, acceptor molecule, acceptor atom, score
      L1  H     5    28       P1  7948  0.91
      P1  H  8022  8030       L1    21  0.81
      P1  H 10752 10764       L1     8  0.82

> <Gold.Chemscore.Hbond.Weighted>
-8.3128

> <Gold.Chemscore.Metal.Weighted>
-0.0000

> <Gold.Chemscore.Lipo.Weighted>
-6.9345

> <Gold.Chemscore.Internal_Hbond.Weighted>
0.0000

> <Gold.Chemscore.DEClash.Weighted>
2.6426

> <Gold.Chemscore.DEInternal.Weighted>
2.5160

> <Gold.Chemscore.Rot.Weighted>
3.1228

> <Gold.Chemscore.Internal.Correction.Weighted>
   9.000000E+99

> <Gold.Protein.RotatedTorsions>
[ 6907 6896 6895 6894 ] final  -59.00 input  -60.11 | X-H torsion
[ 7974 7965 7964 7962 ] final  -94.24 input  175.53 | X-H torsion
[ 8008 7997 7996 7995 ] final  151.82 input   59.86 | X-H torsion
[ 10167 10162 10161 10158 ] final -112.05 input  -65.29 | X-H torsion
[ 10718 10713 10712 10709 ] final    0.97 input   66.30 | X-H torsion
[ 10763 10752 10751 10750 ] final  -59.61 input  -60.55 | X-H torsion
[ 11005 11000 10999 10996 ] final  -92.73 input  -57.11 | X-H torsion

> <Gold.Protein.ActiveResidues>
 VAL166  LYS551  ARG553  GLY616  TRP617  ASP618  TYR619  PRO620  LYS621  CYS622 
 ASP623  PHE694  ASN695  SER759  ASP760  ASP761  ALA762  ILE779  LEU786  VAL792 
 PHE793  MET794  SER795  GLU796  ALA797  LYS798  CYS799  TRP800  GLU811  SER814 

> <Gold.Protein.RotatedAtoms>
  150.7964  134.7026  159.6558 H   0  0  0  0  0  0  0  0  0  0  0  0  # atno 6907 bound_to 6896
  152.4076  134.6176  160.0052 H   0  0  0  0  0  0  0  0  0  0  0  0  # atno 6908 bound_to 6896
  151.6429  133.3288  159.3170 H   0  0  0  0  0  0  0  0  0  0  0  0  # atno 6909 bound_to 6896
  145.3759  140.9511  143.2421 H   0  0  0  0  0  0  0  0  0  0  0  0  # atno 7974 bound_to 7965
  156.2657  140.2037  156.6236 H   0  0  0  0  0  0  0  0  0  0  0  0  # atno 8008 bound_to 7997
  154.6737  140.0547  157.0217 H   0  0  0  0  0  0  0  0  0  0  0  0  # atno 8009 bound_to 7997
  155.1099  140.3214  155.4527 H   0  0  0  0  0  0  0  0  0  0  0  0  # atno 8010 bound_to 7997
  140.1270  143.4394  152.1653 H   0  0  0  0  0  0  0  0  0  0  0  0  # atno 10167 bound_to 10162
  156.8413  130.5522  149.5677 H   0  0  0  0  0  0  0  0  0  0  0  0  # atno 10718 bound_to 10713
  154.2564  135.6316  153.5259 H   0  0  0  0  0  0  0  0  0  0  0  0  # atno 10763 bound_to 10752
  152.9903  135.5577  154.5752 H   0  0  0  0  0  0  0  0  0  0  0  0  # atno 10764 bound_to 10752
  154.5291  135.2887  155.1171 H   0  0  0  0  0  0  0  0  0  0  0  0  # atno 10765 bound_to 10752
  141.1515  133.7840  157.0060 H   0  0  0  0  0  0  0  0  0  0  0  0  # atno 11005 bound_to 11000
  144.8542  139.5274  143.6842 LP  0  0  0  0  0  0  0  0  0  0  0  0  # atno 17320 bound_to 7965
  146.2864  139.7016  142.9192 LP  0  0  0  0  0  0  0  0  0  0  0  0  # atno 17321 bound_to 7965
  139.5539  144.7358  151.4352 LP  0  0  0  0  0  0  0  0  0  0  0  0  # atno 17342 bound_to 10162
  140.6839  143.8018  150.7159 LP  0  0  0  0  0  0  0  0  0  0  0  0  # atno 17343 bound_to 10162
  156.0879  130.5873  150.9681 LP  0  0  0  0  0  0  0  0  0  0  0  0  # atno 17370 bound_to 10713
  157.6354  131.0916  150.8359 LP  0  0  0  0  0  0  0  0  0  0  0  0  # atno 17371 bound_to 10713
  140.0909  134.9593  157.1774 LP  0  0  0  0  0  0  0  0  0  0  0  0  # atno 17394 bound_to 11000
  140.3448  134.2664  155.7207 LP  0  0  0  0  0  0  0  0  0  0  0  0  # atno 17395 bound_to 11000

$$$$
