AV-unprocessed.smi:3263|AV-procd|sdf|12486|dock6
  -GOLD-   2272018383D 1   1.00000     0.00000
 Structure written by MMmdl.
 41 43  0  0  0  0  0  0  0  0  1 V2000
  155.8998  139.0380  159.0020 O   0  0  0  0  0  0  0  0  0  0  0  0
  155.7459  139.0905  160.2220 C   0  0  0  0  0  0  0  0  0  0  0  0
  156.3040  137.9802  161.1164 C   0  0  0  0  0  0  0  0  0  0  0  0
  155.2292  136.9545  161.5419 C   0  0  2  0  0  0  0  0  0  0  0  0
  153.9187  137.5909  162.0530 C   0  0  0  0  0  0  0  0  0  0  0  0
  153.6771  136.8595  163.3874 C   0  0  2  0  0  0  0  0  0  0  0  0
  154.6783  137.3775  164.4365 C   0  0  0  0  0  0  0  0  0  0  0  0
  156.0071  136.7547  163.9715 C   0  0  0  0  0  0  0  0  0  0  0  0
  155.5982  135.9883  162.6966 C   0  0  1  0  0  0  0  0  0  0  0  0
  154.2218  135.4660  163.0948 C   0  0  0  0  0  0  0  0  0  0  0  0
  155.1128  140.0968  160.8436 N   0  0  0  0  0  0  0  0  0  0  0  0
  154.5735  141.2797  160.1841 C   0  0  0  0  0  0  0  0  0  0  0  0
  153.1207  141.5470  160.6129 C   0  0  0  0  0  0  0  0  0  0  0  0
  152.5918  142.8601  160.0681 C   0  0  0  0  0  0  0  0  0  0  0  0
  152.1510  143.8779  160.9408 C   0  0  0  0  0  0  0  0  0  0  0  0
  151.6644  145.0758  160.3825 C   0  0  0  0  0  0  0  0  0  0  0  0
  151.6374  145.2091  158.9808 C   0  0  0  0  0  0  0  0  0  0  0  0
  152.0996  144.1337  158.1963 C   0  0  0  0  0  0  0  0  0  0  0  0
  152.5681  142.9811  158.7215 N   0  0  0  0  0  0  0  0  0  0  0  0
  157.1346  137.4808  160.6160 H   0  0  0  0  0  0  0  0  0  0  0  0
  156.7299  138.4461  162.0054 H   0  0  0  0  0  0  0  0  0  0  0  0
  154.9847  136.3472  160.6681 H   0  0  0  0  0  0  0  0  0  0  0  0
  153.9931  138.6704  162.1900 H   0  0  0  0  0  0  0  0  0  0  0  0
  153.1048  137.4035  161.3515 H   0  0  0  0  0  0  0  0  0  0  0  0
  152.6396  136.8899  163.7213 H   0  0  0  0  0  0  0  0  0  0  0  0
  154.7178  138.4669  164.4692 H   0  0  0  0  0  0  0  0  0  0  0  0
  154.4176  137.0217  165.4341 H   0  0  0  0  0  0  0  0  0  0  0  0
  156.7849  137.4977  163.7998 H   0  0  0  0  0  0  0  0  0  0  0  0
  156.3839  136.0623  164.7255 H   0  0  0  0  0  0  0  0  0  0  0  0
  156.3080  135.2121  162.4082 H   0  0  0  0  0  0  0  0  0  0  0  0
  154.2412  134.8154  163.9710 H   0  0  0  0  0  0  0  0  0  0  0  0
  153.6973  134.9572  162.2840 H   0  0  0  0  0  0  0  0  0  0  0  0
  155.0274  140.0553  161.8490 H   0  0  0  0  0  0  0  0  0  0  0  0
  155.2036  142.1458  160.3939 H   0  0  0  0  0  0  0  0  0  0  0  0
  154.6175  141.1166  159.1068 H   0  0  0  0  0  0  0  0  0  0  0  0
  152.4782  140.7333  160.2738 H   0  0  0  0  0  0  0  0  0  0  0  0
  153.0432  141.5642  161.7011 H   0  0  0  0  0  0  0  0  0  0  0  0
  152.1839  143.7461  162.0125 H   0  0  0  0  0  0  0  0  0  0  0  0
  151.3178  145.8775  161.0177 H   0  0  0  0  0  0  0  0  0  0  0  0
  151.2709  146.1134  158.5177 H   0  0  0  0  0  0  0  0  0  0  0  0
  152.0923  144.2008  157.1183 H   0  0  0  0  0  0  0  0  0  0  0  0
  1  2  2  0  0  0  0
  2  3  1  0  0  0  0
  2 11  1  0  0  0  0
  3  4  1  0  0  0  0
  3 20  1  0  0  0  0
  3 21  1  0  0  0  0
  4  9  1  0  0  0  0
  4  5  1  0  0  0  0
  4 22  1  0  0  0  0
  5  6  1  0  0  0  0
  5 23  1  0  0  0  0
  5 24  1  0  0  0  0
  6 10  1  0  0  0  0
  6  7  1  0  0  0  0
  6 25  1  0  0  0  0
  7  8  1  0  0  0  0
  7 26  1  0  0  0  0
  7 27  1  0  0  0  0
  8  9  1  0  0  0  0
  8 28  1  0  0  0  0
  8 29  1  0  0  0  0
  9 10  1  0  0  0  0
  9 30  1  0  0  0  0
 10 31  1  0  0  0  0
 10 32  1  0  0  0  0
 11 12  1  0  0  0  0
 11 33  1  0  0  0  0
 12 13  1  0  0  0  0
 12 34  1  0  0  0  0
 12 35  1  0  0  0  0
 13 14  1  0  0  0  0
 13 36  1  0  0  0  0
 13 37  1  0  0  0  0
 14 19  1  0  0  0  0
 14 15  2  0  0  0  0
 15 16  1  0  0  0  0
 15 38  1  0  0  0  0
 16 17  2  0  0  0  0
 16 39  1  0  0  0  0
 17 18  1  0  0  0  0
 17 40  1  0  0  0  0
 18 19  2  0  0  0  0
 18 41  1  0  0  0  0
M  END
> <s_m_source_file>
AV-unprocessed.smi

> <i_m_source_file_index>
3263

> <i_lp_mmshare_version>
43012

> <i_f3d_flags>
0

> <s_epik_input>
W0NIMl0xW0NIMl1bQ0BASF0oW0NIMl0yKVtDQEBIXShbQ0gyXVtDQEhdMTIpW0NIMl1DKD1PKVtOSF1bQ0gyXVtDSDJdYzNbY0hdW2NIXVtjSF1bY0hdbjM=

> <s_epik_cmdline>
J2VwaWtfcHl0aG9uJywgJy1waCcsICc3LjAnLCAnLXRuJywgJzgnLCAnLW1hJywgJzIwMCcsICctbWV0YWxfYmluZGluZycsICctaW1hZScsICc8aW5maWxlLm1hZT4nLCAnLW9tYWUnLCAnPG91dGZpbGUubWFlPic=

> <r_epik_Ionization_Penalty>
0.0273541

> <r_epik_Ionization_Penalty_Charging>
0

> <r_epik_Ionization_Penalty_Neutral>
0.0273541

> <r_epik_State_Penalty>
0.0223838

> <r_epik_Charging_Adjusted_Penalty>
0.0223838

> <i_epik_Tot_Q>
0

> <i_epik_Tot_abs_Q>
0

> <r_epik_Metal_State_Penalty>
0.0213927

> <b_epik_Metal_Only>
0

> <s_lp_Force_Field>
OPLS_2005

> <r_lp_Energy>
46.2802

> <b_lp_Chiralities_Consistent>
1

> <s_lp_Variant>
AV-unprocessed.smi:3263-1

> <Gold.Version>
5.8.1

> <Gold.Id.Protein>
6NUR|6NUR_protein|mol2

> <Gold.PLP.Fitness>
46.5406

> <Gold.PLP.PLP>
-44.3868

> <Gold.PLP.part.hbond>
-1.0000

> <Gold.PLP.part.metal>
0.0000

> <Gold.PLP.part.buried>
-5.8020

> <Gold.PLP.part.nonpolar>
-38.6877

> <Gold.PLP.part.repulsive>
0.0530

> <Gold.PLP.ligand.clash>
0.0000

> <Gold.PLP.ligand.torsion>
0.4404

> <Gold.PLP.Chemscore.Hbond>
1.0000

> <Gold.PLP.Chemscore.CHOScore>
0.0000

> <Gold.PLP.Chemscore.Metal>
0.0000

> <Gold.Chemscore.Hbonds>
donor molecule, donor type, donor heavy atom, donor atom, acceptor molecule, acceptor atom, score
      P1  H  7997  8010       L1     1  1.00

> <Gold.PLP.Chemscore.Internal.Correction>
0.0346

> <Gold.Rescore>
     Score         DG    S(hbond)    S(metal)    S(lipo)     H(rot)  DE(clash)    DE(int)     intcor
     19.77     -20.39       0.99        0.00     131.10       1.46       0.10       0.51       ----

> <Gold.Chemscore.Fitness>
19.7732

> <Gold.Chemscore.DG>
-20.3865

> <Gold.Chemscore.ZeroCoef>
-5.4800

> <Gold.Chemscore.Hbond>
0.9863

> <Gold.Chemscore.Metal>
0.0000

> <Gold.Chemscore.Lipo>
131.0952

> <Gold.Chemscore.Internal_Hbond>
0.0000

> <Gold.Chemscore.DEClash>
0.1036

> <Gold.Chemscore.DEInternal>
0.5097

> <Gold.Chemscore.Rot>
1.4555

> <Gold.Chemscore.Internal.Correction>
   9.000000E+99

> <Gold.Chemscore.Hbonds>
donor molecule, donor type, donor heavy atom, donor atom, acceptor molecule, acceptor atom, score
      P1  H  7997  8010       L1     1  0.99

> <Gold.Chemscore.Hbond.Weighted>
-3.2944

> <Gold.Chemscore.Metal.Weighted>
-0.0000

> <Gold.Chemscore.Lipo.Weighted>
-15.3381

> <Gold.Chemscore.Internal_Hbond.Weighted>
0.0000

> <Gold.Chemscore.DEClash.Weighted>
0.1036

> <Gold.Chemscore.DEInternal.Weighted>
0.5097

> <Gold.Chemscore.Rot.Weighted>
3.7260

> <Gold.Chemscore.Internal.Correction.Weighted>
   9.000000E+99

> <Gold.Protein.RotatedTorsions>
[ 6907 6896 6895 6894 ] final -132.12 input  -60.11 | X-H torsion
[ 7974 7965 7964 7962 ] final  132.33 input  175.53 | X-H torsion
[ 8008 7997 7996 7995 ] final  -24.51 input   59.86 | X-H torsion
[ 10167 10162 10161 10158 ] final  -41.46 input  -65.29 | X-H torsion
[ 10718 10713 10712 10709 ] final  169.37 input   66.30 | X-H torsion
[ 10763 10752 10751 10750 ] final   87.71 input  -60.55 | X-H torsion
[ 11005 11000 10999 10996 ] final   83.42 input  -57.11 | X-H torsion

> <Gold.Protein.ActiveResidues>
 VAL166  LYS551  ARG553  GLY616  TRP617  ASP618  TYR619  PRO620  LYS621  CYS622 
 ASP623  PHE694  ASN695  SER759  ASP760  ASP761  ALA762  ILE779  LEU786  VAL792 
 PHE793  MET794  SER795  GLU796  ALA797  LYS798  CYS799  TRP800  GLU811  SER814 

> <Gold.Protein.RotatedAtoms>
  150.9587  133.6468  159.2758 H   0  0  0  0  0  0  0  0  0  0  0  0  # atno 6907 bound_to 6896
  151.3798  135.0936  159.9502 H   0  0  0  0  0  0  0  0  0  0  0  0  # atno 6908 bound_to 6896
  152.5139  133.9124  159.7549 H   0  0  0  0  0  0  0  0  0  0  0  0  # atno 6909 bound_to 6896
  144.9980  139.4340  143.5306 H   0  0  0  0  0  0  0  0  0  0  0  0  # atno 7974 bound_to 7965
  154.4525  140.1951  156.0476 H   0  0  0  0  0  0  0  0  0  0  0  0  # atno 8008 bound_to 7997
  156.0678  140.3288  155.7512 H   0  0  0  0  0  0  0  0  0  0  0  0  # atno 8009 bound_to 7997
  155.5310  140.0578  157.2879 H   0  0  0  0  0  0  0  0  0  0  0  0  # atno 8010 bound_to 7997
  140.7002  143.3093  151.3070 H   0  0  0  0  0  0  0  0  0  0  0  0  # atno 10167 bound_to 10162
  157.0237  131.0239  151.2766 H   0  0  0  0  0  0  0  0  0  0  0  0  # atno 10718 bound_to 10713
  153.1696  135.4533  154.9884 H   0  0  0  0  0  0  0  0  0  0  0  0  # atno 10763 bound_to 10752
  154.7956  135.3236  154.7676 H   0  0  0  0  0  0  0  0  0  0  0  0  # atno 10764 bound_to 10752
  153.8155  135.6951  153.4889 H   0  0  0  0  0  0  0  0  0  0  0  0  # atno 10765 bound_to 10752
  139.9031  134.8143  156.2307 H   0  0  0  0  0  0  0  0  0  0  0  0  # atno 11005 bound_to 11000
  146.3446  139.9351  142.8748 LP  0  0  0  0  0  0  0  0  0  0  0  0  # atno 17320 bound_to 7965
  145.2193  140.9928  143.4055 LP  0  0  0  0  0  0  0  0  0  0  0  0  # atno 17321 bound_to 7965
  139.6510  144.0362  152.2626 LP  0  0  0  0  0  0  0  0  0  0  0  0  # atno 17342 bound_to 10162
  139.9899  144.6369  150.7824 LP  0  0  0  0  0  0  0  0  0  0  0  0  # atno 17343 bound_to 10162
  157.5230  130.8010  149.7831 LP  0  0  0  0  0  0  0  0  0  0  0  0  # atno 17370 bound_to 10713
  156.0093  130.3840  150.2319 LP  0  0  0  0  0  0  0  0  0  0  0  0  # atno 17371 bound_to 10713
  141.0347  133.6970  156.1491 LP  0  0  0  0  0  0  0  0  0  0  0  0  # atno 17394 bound_to 11000
  140.7044  134.4529  157.5585 LP  0  0  0  0  0  0  0  0  0  0  0  0  # atno 17395 bound_to 11000

$$$$
