AV-unprocessed.smi:287|AV-procd|sdf|2199|dock5
  -GOLD-   2262022 13D 1   1.00000     0.00000
 Structure written by MMmdl.
 55 58  0  0  0  0  0  0  0  0  1 V2000
  154.2103  140.4902  161.0230 C   0  0  0  0  0  0  0  0  0  0  0  0
  153.1594  141.2933  160.3362 C   0  0  0  0  0  0  0  0  0  0  0  0
  152.2464  141.0162  159.3611 C   0  0  0  0  0  0  0  0  0  0  0  0
  151.5123  142.2139  159.1112 C   0  0  0  0  0  0  0  0  0  0  0  0
  150.3923  142.3770  158.0920 C   0  0  1  0  0  0  0  0  0  0  0  0
  149.2639  141.3768  158.3924 C   0  0  0  0  0  0  0  0  0  0  0  0
  149.7847  143.6536  158.1416 O   0  0  0  0  0  0  0  0  0  0  0  0
  150.8911  142.1976  156.6395 C   0  0  0  0  0  0  0  0  0  0  0  0
  149.8041  141.9547  155.6970 N   0  0  0  0  0  0  0  0  0  0  0  0
  149.6429  140.7366  155.1407 C   0  0  0  0  0  0  0  0  0  0  0  0
  150.7067  139.9233  154.9116 N   0  0  0  0  0  0  0  0  0  0  0  0
  150.5186  138.7231  154.3547 C   0  0  0  0  0  0  0  0  0  0  0  0
  149.3765  138.1562  153.9598 N   0  0  0  0  0  0  0  0  0  0  0  0
  148.3045  138.9683  154.1916 C   0  0  0  0  0  0  0  0  0  0  0  0
  148.3564  140.2648  154.7748 C   0  0  0  0  0  0  0  0  0  0  0  0
  147.0770  140.7988  154.8543 N   0  0  0  0  0  0  0  0  0  0  0  0
  146.3152  139.8672  154.3477 C   0  0  0  0  0  0  0  0  0  0  0  0
  146.9707  138.7321  153.9245 N   0  0  0  0  0  0  0  0  0  0  0  0
  146.3662  137.5101  153.3144 C   0  0  1  0  0  0  0  0  0  0  0  0
  145.6078  136.8650  154.2865 O   0  0  0  0  0  0  0  0  0  0  0  0
  144.4674  136.2827  153.6727 C   0  0  1  0  0  0  0  0  0  0  0  0
  143.3803  135.9706  154.7157 C   0  0  0  0  0  0  0  0  0  0  0  0
  142.4367  135.0704  154.1759 O   0  0  0  0  0  0  0  0  0  0  0  0
  144.0844  137.3077  152.5935 C   0  0  1  0  0  0  0  0  0  0  0  0
  143.2575  138.3319  153.1136 O   0  0  0  0  0  0  0  0  0  0  0  0
  145.4298  137.8786  152.1502 C   0  0  2  0  0  0  0  0  0  0  0  0
  145.8383  137.2468  150.9528 O   0  0  0  0  0  0  0  0  0  0  0  0
  152.0400  143.1366  159.9827 C   0  0  0  0  0  0  0  0  0  0  0  0
  151.7527  144.5727  160.2742 C   0  0  0  0  0  0  0  0  0  0  0  0
  153.0406  142.5869  160.7263 O   0  0  0  0  0  0  0  0  0  0  0  0
  147.2157  136.8921  153.0189 H   0  0  0  0  0  0  0  0  0  0  0  0
  144.7800  135.3652  153.1698 H   0  0  0  0  0  0  0  0  0  0  0  0
  143.5388  136.8361  151.7749 H   0  0  0  0  0  0  0  0  0  0  0  0
  145.3958  138.9584  151.9923 H   0  0  0  0  0  0  0  0  0  0  0  0
  154.3295  139.5171  160.5463 H   0  0  0  0  0  0  0  0  0  0  0  0
  153.9485  140.3251  162.0680 H   0  0  0  0  0  0  0  0  0  0  0  0
  155.1722  141.0022  160.9900 H   0  0  0  0  0  0  0  0  0  0  0  0
  152.1228  140.0609  158.8727 H   0  0  0  0  0  0  0  0  0  0  0  0
  149.6226  140.3482  158.3403 H   0  0  0  0  0  0  0  0  0  0  0  0
  148.4437  141.4726  157.6798 H   0  0  0  0  0  0  0  0  0  0  0  0
  148.8538  141.5305  159.3915 H   0  0  0  0  0  0  0  0  0  0  0  0
  149.4191  143.8445  157.2916 H   0  0  0  0  0  0  0  0  0  0  0  0
  151.3886  143.1174  156.3280 H   0  0  0  0  0  0  0  0  0  0  0  0
  151.6360  141.4029  156.5753 H   0  0  0  0  0  0  0  0  0  0  0  0
  149.2542  142.7620  155.4389 H   0  0  0  0  0  0  0  0  0  0  0  0
  151.4097  138.1322  154.2033 H   0  0  0  0  0  0  0  0  0  0  0  0
  145.2439  139.9825  154.2712 H   0  0  0  0  0  0  0  0  0  0  0  0
  143.8128  135.5627  155.6301 H   0  0  0  0  0  0  0  0  0  0  0  0
  142.8437  136.8805  154.9849 H   0  0  0  0  0  0  0  0  0  0  0  0
  141.8984  134.7408  154.8793 H   0  0  0  0  0  0  0  0  0  0  0  0
  143.3765  139.1107  152.5926 H   0  0  0  0  0  0  0  0  0  0  0  0
  145.3202  137.5892  150.2407 H   0  0  0  0  0  0  0  0  0  0  0  0
  150.7072  144.7090  160.5507 H   0  0  0  0  0  0  0  0  0  0  0  0
  151.9574  145.1921  159.4011 H   0  0  0  0  0  0  0  0  0  0  0  0
  152.3670  144.9400  161.0965 H   0  0  0  0  0  0  0  0  0  0  0  0
  1  2  1  0  0  0  0
  1 35  1  0  0  0  0
  1 36  1  0  0  0  0
  1 37  1  0  0  0  0
  2 30  1  0  0  0  0
  2  3  2  0  0  0  0
  3  4  1  0  0  0  0
  3 38  1  0  0  0  0
  4  5  1  0  0  0  0
  4 28  2  0  0  0  0
  5  6  1  0  0  0  0
  5  7  1  0  0  0  0
  5  8  1  0  0  0  0
  6 39  1  0  0  0  0
  6 40  1  0  0  0  0
  6 41  1  0  0  0  0
  7 42  1  0  0  0  0
  8  9  1  0  0  0  0
  8 43  1  0  0  0  0
  8 44  1  0  0  0  0
  9 10  1  0  0  0  0
  9 45  1  0  0  0  0
 10 15  1  0  0  0  0
 10 11  2  0  0  0  0
 11 12  1  0  0  0  0
 12 13  2  0  0  0  0
 12 46  1  0  0  0  0
 13 14  1  0  0  0  0
 14 18  1  0  0  0  0
 14 15  2  0  0  0  0
 15 16  1  0  0  0  0
 16 17  2  0  0  0  0
 17 18  1  0  0  0  0
 17 47  1  0  0  0  0
 18 19  1  0  0  0  0
 19 31  1  0  0  0  0
 19 26  1  0  0  0  0
 19 20  1  0  0  0  0
 20 21  1  0  0  0  0
 21 32  1  0  0  0  0
 21 22  1  0  0  0  0
 21 24  1  0  0  0  0
 22 23  1  0  0  0  0
 22 48  1  0  0  0  0
 22 49  1  0  0  0  0
 23 50  1  0  0  0  0
 24 33  1  0  0  0  0
 24 25  1  0  0  0  0
 24 26  1  0  0  0  0
 25 51  1  0  0  0  0
 26 34  1  0  0  0  0
 26 27  1  0  0  0  0
 27 52  1  0  0  0  0
 28 29  1  0  0  0  0
 28 30  1  0  0  0  0
 29 53  1  0  0  0  0
 29 54  1  0  0  0  0
 29 55  1  0  0  0  0
M  END
> <s_m_source_file>
AV-unprocessed.smi

> <i_m_source_file_index>
287

> <i_lp_mmshare_version>
43012

> <i_f3d_flags>
0

> <s_epik_input>
W0NIM11jMVtjSF1jKGMobzEpW0NIM10pW0NAQF0oW0NIM10pKFtPSF0pW0NIMl1bTkhdYyhuW2NIXW4yKWMoYzIzKW5bY0hdbjNbQ0BASF00T1tDQEhdKFtDSDJdW09IXSlbQ0BASF0oW09IXSlbQ0BIXTRbT0hd

> <s_epik_cmdline>
J2VwaWtfcHl0aG9uJywgJy1waCcsICc3LjAnLCAnLXRuJywgJzgnLCAnLW1hJywgJzIwMCcsICctbWV0YWxfYmluZGluZycsICctaW1hZScsICc8aW5maWxlLm1hZT4nLCAnLW9tYWUnLCAnPG91dGZpbGUubWFlPic=

> <r_lp_tautomer_probability>
1

> <r_epik_Ionization_Penalty>
0.000992612

> <r_epik_Ionization_Penalty_Charging>
0

> <r_epik_Ionization_Penalty_Neutral>
0.000992612

> <r_epik_State_Penalty>
-0

> <r_epik_Charging_Adjusted_Penalty>
0

> <i_epik_Tot_Q>
0

> <i_epik_Tot_abs_Q>
0

> <r_epik_Metal_State_Penalty>
-0

> <b_epik_Metal_Only>
0

> <s_epik_Chemistry_Notes>
This compound contains an acetal/aminal-like group ( X-CH(R)-Y where X, Y are N, S, or O) that may be acid/base labile, releasing an aldehyde.

> <s_lp_Force_Field>
OPLS_2005

> <r_lp_Energy>
38.8116

> <b_lp_Chiralities_Consistent>
1

> <s_lp_Variant>
AV-unprocessed.smi:287-23

> <Gold.Version>
5.8.1

> <Gold.Id.Protein>
6NUR|6NUR_protein|mol2

> <Gold.PLP.Fitness>
62.9544

> <Gold.PLP.PLP>
-47.2988

> <Gold.PLP.part.hbond>
-7.4565

> <Gold.PLP.part.metal>
0.0000

> <Gold.PLP.part.buried>
-7.3987

> <Gold.PLP.part.nonpolar>
-35.0108

> <Gold.PLP.part.repulsive>
2.2057

> <Gold.PLP.ligand.clash>
0.0000

> <Gold.PLP.ligand.torsion>
0.8019

> <Gold.PLP.Chemscore.Hbond>
4.9200

> <Gold.PLP.Chemscore.CHOScore>
0.7771

> <Gold.PLP.Chemscore.Metal>
0.0000

> <Gold.Chemscore.Hbonds>
donor molecule, donor type, donor heavy atom, donor atom, acceptor molecule, acceptor atom, score
      L1  H     7    42       P1  8028  1.00
      L1  H     9    45       P1  8028  0.98
      L1  H    25    51       P1 10175  0.55
      L1  H    27    52       P1 10171  0.91
      P1  H  7989  7998       L1    11  1.00
      L1  C    17    47       P1 10175  1.00

> <Gold.PLP.Chemscore.Internal.Correction>
0.1682

> <Gold.Rescore>
     Score         DG    S(hbond)    S(metal)    S(lipo)     H(rot)  DE(clash)    DE(int)     intcor
     14.52     -17.58       4.08        0.00     102.15       5.27       1.56       1.50       ----

> <Gold.Chemscore.Fitness>
14.5245

> <Gold.Chemscore.DG>
-17.5828

> <Gold.Chemscore.ZeroCoef>
-5.4800

> <Gold.Chemscore.Hbond>
4.0822

> <Gold.Chemscore.Metal>
0.0000

> <Gold.Chemscore.Lipo>
102.1541

> <Gold.Chemscore.Internal_Hbond>
0.0000

> <Gold.Chemscore.DEClash>
1.5622

> <Gold.Chemscore.DEInternal>
1.4960

> <Gold.Chemscore.Rot>
5.2672

> <Gold.Chemscore.Internal.Correction>
   9.000000E+99

> <Gold.Chemscore.Hbonds>
donor molecule, donor type, donor heavy atom, donor atom, acceptor molecule, acceptor atom, score
      L1  H     7    42       P1  8028  0.50
      L1  H     9    45       P1  8028  0.90
      L1  H    25    51       P1 10175  0.52
      L1  H    27    52       P1 10171  0.90
      P1  H  7989  7998       L1    11  0.12

> <Gold.Chemscore.Hbond.Weighted>
-13.6347

> <Gold.Chemscore.Metal.Weighted>
-0.0000

> <Gold.Chemscore.Lipo.Weighted>
-11.9520

> <Gold.Chemscore.Internal_Hbond.Weighted>
0.0000

> <Gold.Chemscore.DEClash.Weighted>
1.5622

> <Gold.Chemscore.DEInternal.Weighted>
1.4960

> <Gold.Chemscore.Rot.Weighted>
13.4839

> <Gold.Chemscore.Internal.Correction.Weighted>
   9.000000E+99

> <Gold.Protein.RotatedTorsions>
[ 6907 6896 6895 6894 ] final  101.80 input  -60.11 | X-H torsion
[ 7974 7965 7964 7962 ] final   70.01 input  175.53 | X-H torsion
[ 8008 7997 7996 7995 ] final  168.60 input   59.86 | X-H torsion
[ 10167 10162 10161 10158 ] final   38.34 input  -65.29 | X-H torsion
[ 10718 10713 10712 10709 ] final  -81.86 input   66.30 | X-H torsion
[ 10763 10752 10751 10750 ] final  -49.83 input  -60.55 | X-H torsion
[ 11005 11000 10999 10996 ] final    0.79 input  -57.11 | X-H torsion

> <Gold.Protein.ActiveResidues>
 VAL166  LYS551  ARG553  GLY616  TRP617  ASP618  TYR619  PRO620  LYS621  CYS622 
 ASP623  PHE694  ASN695  SER759  ASP760  ASP761  ALA762  ILE779  LEU786  VAL792 
 PHE793  MET794  SER795  GLU796  ALA797  LYS798  CYS799  TRP800  GLU811  SER814 

> <Gold.Protein.RotatedAtoms>
  152.5340  134.0072  159.7921 H   0  0  0  0  0  0  0  0  0  0  0  0  # atno 6907 bound_to 6896
  151.0280  133.5808  159.2671 H   0  0  0  0  0  0  0  0  0  0  0  0  # atno 6908 bound_to 6896
  151.2823  135.0724  159.9227 H   0  0  0  0  0  0  0  0  0  0  0  0  # atno 6909 bound_to 6896
  145.7834  139.2898  143.1252 H   0  0  0  0  0  0  0  0  0  0  0  0  # atno 7974 bound_to 7965
  156.1532  140.1586  156.8736 H   0  0  0  0  0  0  0  0  0  0  0  0  # atno 8008 bound_to 7997
  154.5090  140.0805  156.7989 H   0  0  0  0  0  0  0  0  0  0  0  0  # atno 8009 bound_to 7997
  155.3855  140.3407  155.4251 H   0  0  0  0  0  0  0  0  0  0  0  0  # atno 8010 bound_to 7997
  140.3946  144.1806  150.6131 H   0  0  0  0  0  0  0  0  0  0  0  0  # atno 10167 bound_to 10162
  156.0043  130.4616  150.4016 H   0  0  0  0  0  0  0  0  0  0  0  0  # atno 10718 bound_to 10713
  154.1004  135.6564  153.4867 H   0  0  0  0  0  0  0  0  0  0  0  0  # atno 10763 bound_to 10752
  153.0290  135.5223  154.7292 H   0  0  0  0  0  0  0  0  0  0  0  0  # atno 10764 bound_to 10752
  154.6442  135.2992  155.0035 H   0  0  0  0  0  0  0  0  0  0  0  0  # atno 10765 bound_to 10752
  140.6226  133.9648  155.8232 H   0  0  0  0  0  0  0  0  0  0  0  0  # atno 11005 bound_to 11000
  146.0051  140.8486  142.9999 LP  0  0  0  0  0  0  0  0  0  0  0  0  # atno 17320 bound_to 7965
  144.6793  140.2408  143.7344 LP  0  0  0  0  0  0  0  0  0  0  0  0  # atno 17321 bound_to 7965
  140.4804  143.2381  151.8963 LP  0  0  0  0  0  0  0  0  0  0  0  0  # atno 17342 bound_to 10162
  139.4787  144.5275  151.8714 LP  0  0  0  0  0  0  0  0  0  0  0  0  # atno 17343 bound_to 10162
  157.2085  131.0455  151.2612 LP  0  0  0  0  0  0  0  0  0  0  0  0  # atno 17370 bound_to 10713
  157.3910  130.7282  149.6698 LP  0  0  0  0  0  0  0  0  0  0  0  0  # atno 17371 bound_to 10713
  141.0732  134.0175  157.3496 LP  0  0  0  0  0  0  0  0  0  0  0  0  # atno 17394 bound_to 11000
  139.9147  135.0195  156.7835 LP  0  0  0  0  0  0  0  0  0  0  0  0  # atno 17395 bound_to 11000

$$$$
