AV-unprocessed.smi:2923|AV-procd|sdf|11204|dock2
  -GOLD-   2272016 93D 1   1.00000     0.00000
 Structure written by MMmdl.
 47 49  0  0  0  0  0  0  0  0  2 V2000
  143.7913  132.6070  149.2029 C   0  0  0  0  0  0  0  0  0  0  0  0
  144.4751  132.7119  150.4853 N   0  0  0  0  0  0  0  0  0  0  0  0
  144.9236  131.5110  151.1816 C   0  0  0  0  0  0  0  0  0  0  0  0
  144.6538  133.9778  151.0840 C   0  0  0  0  0  0  0  0  0  0  0  0
  145.8207  134.3395  151.8008 C   0  0  0  0  0  0  0  0  0  0  0  0
  145.9240  135.6251  152.3704 C   0  0  0  0  0  0  0  0  0  0  0  0
  144.8692  136.5485  152.2168 C   0  0  0  0  0  0  0  0  0  0  0  0
  145.0132  137.8268  152.8211 N   0  0  0  0  0  0  0  0  0  0  0  0
  145.8982  138.2158  153.7551 C   0  0  0  0  0  0  0  0  0  0  0  0
  146.7294  137.4871  154.2961 O   0  0  0  0  0  0  0  0  0  0  0  0
  145.7597  139.5167  154.0432 N   0  0  0  0  0  0  0  0  0  0  0  0
  146.5773  140.2358  155.0151 C   0  0  2  0  0  0  0  0  0  0  0  0
  145.7440  141.1609  155.9156 C   0  0  1  0  0  0  0  0  0  0  0  0
  145.6499  140.8849  157.3918 C   0  0  0  0  0  0  0  0  0  0  0  0
  146.7396  141.7870  157.9783 C   0  0  0  0  0  0  0  0  0  0  0  0
  147.6304  142.0275  156.8917 O   0  0  0  0  0  0  0  0  0  0  0  0
  146.8393  142.1979  155.7181 C   0  0  1  0  0  0  0  0  0  0  0  0
  147.3236  141.4703  154.4462 C   0  0  0  0  0  0  0  0  0  0  0  0
  148.8387  141.3295  154.2910 C   0  0  0  0  0  0  0  0  0  0  0  0
  146.7990  142.0773  153.1369 C   0  0  0  0  0  0  0  0  0  0  0  0
  143.7192  136.1366  151.5022 C   0  0  0  0  0  0  0  0  0  0  0  0
  143.6616  134.8948  150.9747 N   0  3  0  0  0  0  0  0  0  0  0  0
  142.7747  132.9945  149.2775 H   0  0  0  0  0  0  0  0  0  0  0  0
  143.7295  131.5707  148.8702 H   0  0  0  0  0  0  0  0  0  0  0  0
  144.3248  133.1706  148.4368 H   0  0  0  0  0  0  0  0  0  0  0  0
  145.9998  131.5479  151.3546 H   0  0  0  0  0  0  0  0  0  0  0  0
  144.7096  130.6125  150.6022 H   0  0  0  0  0  0  0  0  0  0  0  0
  144.4196  131.4154  152.1442 H   0  0  0  0  0  0  0  0  0  0  0  0
  146.6425  133.6503  151.9257 H   0  0  0  0  0  0  0  0  0  0  0  0
  146.8140  135.8983  152.9186 H   0  0  0  0  0  0  0  0  0  0  0  0
  144.3417  138.5224  152.5307 H   0  0  0  0  0  0  0  0  0  0  0  0
  145.0500  140.0466  153.5593 H   0  0  0  0  0  0  0  0  0  0  0  0
  147.2349  139.5891  155.6006 H   0  0  0  0  0  0  0  0  0  0  0  0
  144.8083  141.4744  155.4489 H   0  0  0  0  0  0  0  0  0  0  0  0
  144.6684  141.1227  157.8026 H   0  0  0  0  0  0  0  0  0  0  0  0
  145.8576  139.8360  157.6055 H   0  0  0  0  0  0  0  0  0  0  0  0
  146.3151  142.7374  158.3055 H   0  0  0  0  0  0  0  0  0  0  0  0
  147.2532  141.3326  158.8258 H   0  0  0  0  0  0  0  0  0  0  0  0
  146.4704  143.2157  155.5822 H   0  0  0  0  0  0  0  0  0  0  0  0
  149.3180  142.2982  154.1471 H   0  0  0  0  0  0  0  0  0  0  0  0
  149.0963  140.7019  153.4373 H   0  0  0  0  0  0  0  0  0  0  0  0
  149.2924  140.8724  155.1707 H   0  0  0  0  0  0  0  0  0  0  0  0
  147.2426  143.0550  152.9462 H   0  0  0  0  0  0  0  0  0  0  0  0
  145.7179  142.2173  153.1601 H   0  0  0  0  0  0  0  0  0  0  0  0
  147.0265  141.4441  152.2788 H   0  0  0  0  0  0  0  0  0  0  0  0
  142.8377  136.7377  151.3379 H   0  0  0  0  0  0  0  0  0  0  0  0
  142.8180  134.6317  150.4650 H   0  0  0  0  0  0  0  0  0  0  0  0
  1  2  1  0  0  0  0
  1 23  1  0  0  0  0
  1 24  1  0  0  0  0
  1 25  1  0  0  0  0
  2  3  1  0  0  0  0
  2  4  1  0  0  0  0
  3 26  1  0  0  0  0
  3 27  1  0  0  0  0
  3 28  1  0  0  0  0
  4 22  1  0  0  0  0
  4  5  2  0  0  0  0
  5  6  1  0  0  0  0
  5 29  1  0  0  0  0
  6  7  2  0  0  0  0
  6 30  1  0  0  0  0
  7  8  1  0  0  0  0
  7 21  1  0  0  0  0
  8  9  1  0  0  0  0
  8 31  1  0  0  0  0
  9 10  2  0  0  0  0
  9 11  1  0  0  0  0
 11 12  1  0  0  0  0
 11 32  1  0  0  0  0
 12 18  1  0  0  0  0
 12 13  1  0  0  0  0
 12 33  1  0  0  0  0
 13 17  1  0  0  0  0
 13 14  1  0  0  0  0
 13 34  1  0  0  0  0
 14 15  1  0  0  0  0
 14 35  1  0  0  0  0
 14 36  1  0  0  0  0
 15 16  1  0  0  0  0
 15 37  1  0  0  0  0
 15 38  1  0  0  0  0
 16 17  1  0  0  0  0
 17 18  1  0  0  0  0
 17 39  1  0  0  0  0
 18 19  1  0  0  0  0
 18 20  1  0  0  0  0
 19 40  1  0  0  0  0
 19 41  1  0  0  0  0
 19 42  1  0  0  0  0
 20 43  1  0  0  0  0
 20 44  1  0  0  0  0
 20 45  1  0  0  0  0
 21 22  2  0  0  0  0
 21 46  1  0  0  0  0
 22 47  1  0  0  0  0
M  CHG  1  22   1
M  END
> <s_m_source_file>
AV-unprocessed.smi

> <i_m_source_file_index>
2923

> <i_lp_mmshare_version>
43012

> <i_f3d_flags>
0

> <s_epik_input>
W0NIM11OKFtDSDNdKWMxW2NIXVtjSF1jKFtjSF1uMSlbTkhdQyg9TylbTkhdW0NASF0yQyhbQ0gzXSkoW0NIM10pW0NAQEhdKFtDQEhdMjMpT1tDSDJdW0NIMl0z

> <s_epik_cmdline>
J2VwaWtfcHl0aG9uJywgJy1waCcsICc3LjAnLCAnLXRuJywgJzgnLCAnLW1hJywgJzIwMCcsICctbWV0YWxfYmluZGluZycsICctaW1hZScsICc8aW5maWxlLm1hZT4nLCAnLW9tYWUnLCAnPG91dGZpbGUubWFlPic=

> <r_lp_tautomer_probability>
0.999994

> <r_epik_Ionization_Penalty>
0.252205

> <r_epik_Ionization_Penalty_Charging>
0.252185

> <r_epik_Ionization_Penalty_Neutral>
1.99479e-05

> <r_epik_State_Penalty>
0.243573

> <r_epik_Charging_Adjusted_Penalty>
0.495758

> <i_epik_Tot_Q>
1

> <i_epik_Tot_abs_Q>
1

> <r_epik_Metal_State_Penalty>
0.534372

> <b_epik_Metal_Only>
0

> <s_lp_Force_Field>
OPLS_2005

> <r_lp_Energy>
44.365

> <b_lp_Chiralities_Consistent>
1

> <s_lp_Variant>
AV-unprocessed.smi:2923-3

> <Gold.Version>
5.8.1

> <Gold.Id.Protein>
6NUR|6NUR_protein|mol2

> <Gold.PLP.Fitness>
40.6148

> <Gold.PLP.PLP>
-29.9678

> <Gold.PLP.part.hbond>
-3.0546

> <Gold.PLP.part.metal>
0.0000

> <Gold.PLP.part.buried>
-4.0588

> <Gold.PLP.part.nonpolar>
-23.2508

> <Gold.PLP.part.repulsive>
0.2558

> <Gold.PLP.ligand.clash>
0.0000

> <Gold.PLP.ligand.torsion>
0.7531

> <Gold.PLP.Chemscore.Hbond>
3.9913

> <Gold.PLP.Chemscore.CHOScore>
0.0000

> <Gold.PLP.Chemscore.Metal>
0.0000

> <Gold.Chemscore.Hbonds>
donor molecule, donor type, donor heavy atom, donor atom, acceptor molecule, acceptor atom, score
      L1  H     8    31       P1 10175  0.99
      L1  H    11    32       P1 10175  1.00
      L1  H    22    47       P1 10186  2.00

> <Gold.PLP.Chemscore.Internal.Correction>
0.1793

> <Gold.Rescore>
     Score         DG    S(hbond)    S(metal)    S(lipo)     H(rot)  DE(clash)    DE(int)     intcor
     15.71     -18.17       2.27        0.00      65.36       1.00       0.46       2.00       ----

> <Gold.Chemscore.Fitness>
15.7071

> <Gold.Chemscore.DG>
-18.1656

> <Gold.Chemscore.ZeroCoef>
-5.4800

> <Gold.Chemscore.Hbond>
2.2750

> <Gold.Chemscore.Metal>
0.0000

> <Gold.Chemscore.Lipo>
65.3605

> <Gold.Chemscore.Internal_Hbond>
0.0000

> <Gold.Chemscore.DEClash>
0.4599

> <Gold.Chemscore.DEInternal>
1.9986

> <Gold.Chemscore.Rot>
1.0000

> <Gold.Chemscore.Internal.Correction>
   9.000000E+99

> <Gold.Chemscore.Hbonds>
donor molecule, donor type, donor heavy atom, donor atom, acceptor molecule, acceptor atom, score
      L1  H     8    31       P1 10175  0.89
      L1  H    11    32       P1 10175  1.00
      L1  H    22    47       P1 10186  0.32

> <Gold.Chemscore.Hbond.Weighted>
-7.5984

> <Gold.Chemscore.Metal.Weighted>
-0.0000

> <Gold.Chemscore.Lipo.Weighted>
-7.6472

> <Gold.Chemscore.Internal_Hbond.Weighted>
0.0000

> <Gold.Chemscore.DEClash.Weighted>
0.4599

> <Gold.Chemscore.DEInternal.Weighted>
1.9986

> <Gold.Chemscore.Rot.Weighted>
2.5600

> <Gold.Chemscore.Internal.Correction.Weighted>
   9.000000E+99

> <Gold.Protein.RotatedTorsions>
[ 6907 6896 6895 6894 ] final -110.42 input  -60.11 | X-H torsion
[ 7974 7965 7964 7962 ] final  -29.85 input  175.53 | X-H torsion
[ 8008 7997 7996 7995 ] final -177.14 input   59.86 | X-H torsion
[ 10167 10162 10161 10158 ] final  150.79 input  -65.29 | X-H torsion
[ 10718 10713 10712 10709 ] final  177.49 input   66.30 | X-H torsion
[ 10763 10752 10751 10750 ] final   30.03 input  -60.55 | X-H torsion
[ 11005 11000 10999 10996 ] final  -76.15 input  -57.11 | X-H torsion

> <Gold.Protein.ActiveResidues>
 VAL166  LYS551  ARG553  GLY616  TRP617  ASP618  TYR619  PRO620  LYS621  CYS622 
 ASP623  PHE694  ASN695  SER759  ASP760  ASP761  ALA762  ILE779  LEU786  VAL792 
 PHE793  MET794  SER795  GLU796  ALA797  LYS798  CYS799  TRP800  GLU811  SER814 

> <Gold.Protein.RotatedAtoms>
  150.7624  133.9384  159.3448 H   0  0  0  0  0  0  0  0  0  0  0  0  # atno 6907 bound_to 6896
  151.7289  135.0877  160.0306 H   0  0  0  0  0  0  0  0  0  0  0  0  # atno 6908 bound_to 6896
  152.3602  133.6250  159.6045 H   0  0  0  0  0  0  0  0  0  0  0  0  # atno 6909 bound_to 6896
  146.1186  140.5465  142.8745 H   0  0  0  0  0  0  0  0  0  0  0  0  # atno 7974 bound_to 7965
  156.0033  140.1225  157.0525 H   0  0  0  0  0  0  0  0  0  0  0  0  # atno 8008 bound_to 7997
  154.4250  140.1102  156.5797 H   0  0  0  0  0  0  0  0  0  0  0  0  # atno 8009 bound_to 7997
  155.6181  140.3472  155.4645 H   0  0  0  0  0  0  0  0  0  0  0  0  # atno 8010 bound_to 7997
  139.4846  144.5494  151.7428 H   0  0  0  0  0  0  0  0  0  0  0  0  # atno 10167 bound_to 10162
  156.9046  130.9890  151.3030 H   0  0  0  0  0  0  0  0  0  0  0  0  # atno 10718 bound_to 10713
  153.0395  135.6474  154.0982 H   0  0  0  0  0  0  0  0  0  0  0  0  # atno 10763 bound_to 10752
  154.0691  135.2882  155.3313 H   0  0  0  0  0  0  0  0  0  0  0  0  # atno 10764 bound_to 10752
  154.6606  135.5393  153.8078 H   0  0  0  0  0  0  0  0  0  0  0  0  # atno 10765 bound_to 10752
  141.1651  133.6973  156.7625 H   0  0  0  0  0  0  0  0  0  0  0  0  # atno 11005 bound_to 11000
  144.7576  140.5345  143.6758 LP  0  0  0  0  0  0  0  0  0  0  0  0  # atno 17320 bound_to 7965
  145.5514  139.1477  143.3392 LP  0  0  0  0  0  0  0  0  0  0  0  0  # atno 17321 bound_to 7965
  140.5045  144.1118  150.5979 LP  0  0  0  0  0  0  0  0  0  0  0  0  # atno 17342 bound_to 10162
  140.4023  143.2697  151.9933 LP  0  0  0  0  0  0  0  0  0  0  0  0  # atno 17343 bound_to 10162
  157.6005  130.8509  149.8795 LP  0  0  0  0  0  0  0  0  0  0  0  0  # atno 17370 bound_to 10713
  156.0565  130.3707  150.1079 LP  0  0  0  0  0  0  0  0  0  0  0  0  # atno 17371 bound_to 10713
  140.2523  134.8531  157.3679 LP  0  0  0  0  0  0  0  0  0  0  0  0  # atno 17394 bound_to 11000
  140.1691  134.4632  155.7844 LP  0  0  0  0  0  0  0  0  0  0  0  0  # atno 17395 bound_to 11000

$$$$
