AV-unprocessed.smi:1510|AV-procd|sdf|6094|dock1
  -GOLD-   22720 6223D 1   1.00000     0.00000
 Structure written by MMmdl.
 32 33  0  0  0  0  0  0  0  0  2 V2000
  147.2419  139.1989  154.8783 O   0  0  0  0  0  0  0  0  0  0  0  0
  147.8449  138.6276  153.9685 C   0  0  0  0  0  0  0  0  0  0  0  0
  149.3359  138.8983  153.7127 C   0  0  0  0  0  0  0  0  0  0  0  0
  149.9526  139.8117  154.6862 N   0  0  0  0  0  0  0  0  0  0  0  0
  150.9730  139.1842  155.5215 N   0  5  0  0  0  0  0  0  0  0  0  0
  151.6292  139.9372  156.4437 C   0  0  0  0  0  0  0  0  0  0  0  0
  152.5114  139.4834  157.1689 O   0  0  0  0  0  0  0  0  0  0  0  0
  151.2599  141.3372  156.5723 C   0  0  0  0  0  0  0  0  0  0  0  0
  150.2949  141.8833  155.8065 C   0  0  0  0  0  0  0  0  0  0  0  0
  149.5683  141.1151  154.8029 C   0  0  0  0  0  0  0  0  0  0  0  0
  148.6766  141.6045  154.1090 O   0  0  0  0  0  0  0  0  0  0  0  0
  147.2589  137.7568  153.1325 N   0  0  0  0  0  0  0  0  0  0  0  0
  145.8585  137.3486  153.1762 C   0  0  0  0  0  0  0  0  0  0  0  0
  145.5106  136.3738  152.0383 C   0  0  2  0  0  0  0  0  0  0  0  0
  144.0298  136.0068  151.9270 C   0  0  0  0  0  0  0  0  0  0  0  0
  144.1002  134.6649  151.2357 C   0  0  0  0  0  0  0  0  0  0  0  0
  145.3291  134.0445  151.8931 C   0  0  0  0  0  0  0  0  0  0  0  0
  146.1856  135.1329  152.2308 O   0  0  0  0  0  0  0  0  0  0  0  0
  149.8807  137.9525  153.7122 H   0  0  0  0  0  0  0  0  0  0  0  0
  149.4355  139.2940  152.7005 H   0  0  0  0  0  0  0  0  0  0  0  0
  151.7689  141.9521  157.3000 H   0  0  0  0  0  0  0  0  0  0  0  0
  150.0519  142.9273  155.9373 H   0  0  0  0  0  0  0  0  0  0  0  0
  147.8305  137.3415  152.4113 H   0  0  0  0  0  0  0  0  0  0  0  0
  145.6887  136.8597  154.1355 H   0  0  0  0  0  0  0  0  0  0  0  0
  145.1946  138.2145  153.1557 H   0  0  0  0  0  0  0  0  0  0  0  0
  145.8505  136.7807  151.0844 H   0  0  0  0  0  0  0  0  0  0  0  0
  143.5850  135.8916  152.9166 H   0  0  0  0  0  0  0  0  0  0  0  0
  143.4477  136.7443  151.3738 H   0  0  0  0  0  0  0  0  0  0  0  0
  143.1983  134.0659  151.3643 H   0  0  0  0  0  0  0  0  0  0  0  0
  144.2721  134.8027  150.1674 H   0  0  0  0  0  0  0  0  0  0  0  0
  145.0490  133.5284  152.8121 H   0  0  0  0  0  0  0  0  0  0  0  0
  145.8321  133.3287  151.2425 H   0  0  0  0  0  0  0  0  0  0  0  0
  1  2  2  0  0  0  0
  2  3  1  0  0  0  0
  2 12  1  0  0  0  0
  3 19  1  0  0  0  0
  3 20  1  0  0  0  0
  3  4  1  0  0  0  0
  4  5  1  0  0  0  0
  4 10  1  0  0  0  0
  5  6  1  0  0  0  0
  6  7  2  0  0  0  0
  6  8  1  0  0  0  0
  8 21  1  0  0  0  0
  8  9  2  0  0  0  0
  9 22  1  0  0  0  0
  9 10  1  0  0  0  0
 10 11  2  0  0  0  0
 12 13  1  0  0  0  0
 12 23  1  0  0  0  0
 13 14  1  0  0  0  0
 13 24  1  0  0  0  0
 13 25  1  0  0  0  0
 14 18  1  0  0  0  0
 14 15  1  0  0  0  0
 14 26  1  0  0  0  0
 15 16  1  0  0  0  0
 15 27  1  0  0  0  0
 15 28  1  0  0  0  0
 16 17  1  0  0  0  0
 16 29  1  0  0  0  0
 16 30  1  0  0  0  0
 17 18  1  0  0  0  0
 17 31  1  0  0  0  0
 17 32  1  0  0  0  0
M  CHG  1   5  -1
M  END
> <s_m_source_file>
AV-unprocessed.smi

> <i_m_source_file_index>
1510

> <i_lp_mmshare_version>
43012

> <i_f3d_flags>
0

> <s_epik_input>
TzFbQ0gyXVtDSDJdW0NIMl1bQ0BIXTFbQ0gyXVtOSF1DKD1PKVtDSDJdbjJbbkhdYyg9TylbY0hdW2NIXWMyPU8=

> <s_epik_cmdline>
J2VwaWtfcHl0aG9uJywgJy1waCcsICc3LjAnLCAnLXRuJywgJzgnLCAnLW1hJywgJzIwMCcsICctbWV0YWxfYmluZGluZycsICctaW1hZScsICc8aW5maWxlLm1hZT4nLCAnLW9tYWUnLCAnPG91dGZpbGUubWFlPic=

> <r_lp_tautomer_probability>
1

> <r_epik_Ionization_Penalty>
0.0970799

> <r_epik_Ionization_Penalty_Charging>
0.0970799

> <r_epik_Ionization_Penalty_Neutral>
2.6859e-08

> <r_epik_State_Penalty>
0.0341592

> <r_epik_Charging_Adjusted_Penalty>
0.131239

> <i_epik_Tot_Q>
-1

> <i_epik_Tot_abs_Q>
1

> <r_epik_Metal_State_Penalty>
0.0341592

> <b_epik_Metal_Only>
0

> <s_lp_Force_Field>
OPLS_2005

> <r_lp_Energy>
32.5095

> <b_lp_Chiralities_Consistent>
1

> <s_lp_Variant>
AV-unprocessed.smi:1510-1

> <Gold.Version>
5.8.1

> <Gold.Id.Protein>
6NUR|6NUR_protein|mol2

> <Gold.PLP.Fitness>
31.6394

> <Gold.PLP.PLP>
-24.5394

> <Gold.PLP.part.hbond>
-3.0000

> <Gold.PLP.part.metal>
0.0000

> <Gold.PLP.part.buried>
0.6765

> <Gold.PLP.part.nonpolar>
-22.1762

> <Gold.PLP.part.repulsive>
1.5288

> <Gold.PLP.ligand.clash>
0.0000

> <Gold.PLP.ligand.torsion>
0.0602

> <Gold.PLP.Chemscore.Hbond>
2.4025

> <Gold.PLP.Chemscore.CHOScore>
0.0000

> <Gold.PLP.Chemscore.Metal>
0.0000

> <Gold.Chemscore.Hbonds>
donor molecule, donor type, donor heavy atom, donor atom, acceptor molecule, acceptor atom, score
      L1  H    12    23       P1  7948  1.00
      P1  H  7997  8010       L1     7  0.99
      P1  H  8011  8017       L1    11  0.27

> <Gold.PLP.Chemscore.Internal.Correction>
0.0130

> <Gold.Rescore>
     Score         DG    S(hbond)    S(metal)    S(lipo)     H(rot)  DE(clash)    DE(int)     intcor
      8.80     -11.31       1.80        0.00      43.27       2.05       1.55       0.96       ----

> <Gold.Chemscore.Fitness>
8.8016

> <Gold.Chemscore.DG>
-11.3135

> <Gold.Chemscore.ZeroCoef>
-5.4800

> <Gold.Chemscore.Hbond>
1.7993

> <Gold.Chemscore.Metal>
0.0000

> <Gold.Chemscore.Lipo>
43.2687

> <Gold.Chemscore.Internal_Hbond>
0.0000

> <Gold.Chemscore.DEClash>
1.5475

> <Gold.Chemscore.DEInternal>
0.9645

> <Gold.Chemscore.Rot>
2.0463

> <Gold.Chemscore.Internal.Correction>
   9.000000E+99

> <Gold.Chemscore.Hbonds>
donor molecule, donor type, donor heavy atom, donor atom, acceptor molecule, acceptor atom, score
      L1  H    12    23       P1  7948  0.97
      P1  H  7997  8010       L1     7  0.72
      P1  H  8011  8017       L1    11  0.12

> <Gold.Chemscore.Hbond.Weighted>
-6.0097

> <Gold.Chemscore.Metal.Weighted>
-0.0000

> <Gold.Chemscore.Lipo.Weighted>
-5.0624

> <Gold.Chemscore.Internal_Hbond.Weighted>
0.0000

> <Gold.Chemscore.DEClash.Weighted>
1.5475

> <Gold.Chemscore.DEInternal.Weighted>
0.9645

> <Gold.Chemscore.Rot.Weighted>
5.2386

> <Gold.Chemscore.Internal.Correction.Weighted>
   9.000000E+99

> <Gold.Protein.RotatedTorsions>
[ 6907 6896 6895 6894 ] final   25.14 input  -60.11 | X-H torsion
[ 7974 7965 7964 7962 ] final   20.33 input  175.53 | X-H torsion
[ 8008 7997 7996 7995 ] final   65.03 input   59.86 | X-H torsion
[ 10167 10162 10161 10158 ] final  -20.32 input  -65.29 | X-H torsion
[ 10718 10713 10712 10709 ] final   88.53 input   66.30 | X-H torsion
[ 10763 10752 10751 10750 ] final  132.26 input  -60.55 | X-H torsion
[ 11005 11000 10999 10996 ] final -175.60 input  -57.11 | X-H torsion

> <Gold.Protein.ActiveResidues>
 VAL166  LYS551  ARG553  GLY616  TRP617  ASP618  TYR619  PRO620  LYS621  CYS622 
 ASP623  PHE694  ASN695  SER759  ASP760  ASP761  ALA762  ILE779  LEU786  VAL792 
 PHE793  MET794  SER795  GLU796  ALA797  LYS798  CYS799  TRP800  GLU811  SER814 

> <Gold.Protein.RotatedAtoms>
  151.9681  135.0090  160.0551 H   0  0  0  0  0  0  0  0  0  0  0  0  # atno 6907 bound_to 6896
  152.1808  133.4701  159.4965 H   0  0  0  0  0  0  0  0  0  0  0  0  # atno 6908 bound_to 6896
  150.6917  134.1753  159.4271 H   0  0  0  0  0  0  0  0  0  0  0  0  # atno 6909 bound_to 6896
  146.2115  139.8185  142.8685 H   0  0  0  0  0  0  0  0  0  0  0  0  # atno 7974 bound_to 7965
  155.6554  140.3497  155.4763 H   0  0  0  0  0  0  0  0  0  0  0  0  # atno 8008 bound_to 7997
  155.9813  140.1175  157.0747 H   0  0  0  0  0  0  0  0  0  0  0  0  # atno 8009 bound_to 7997
  154.4192  140.1137  156.5426 H   0  0  0  0  0  0  0  0  0  0  0  0  # atno 8010 bound_to 7997
  140.7275  143.4734  151.0216 H   0  0  0  0  0  0  0  0  0  0  0  0  # atno 10167 bound_to 10162
  157.6949  131.0298  150.3289 H   0  0  0  0  0  0  0  0  0  0  0  0  # atno 10718 bound_to 10713
  153.7878  135.3159  155.3374 H   0  0  0  0  0  0  0  0  0  0  0  0  # atno 10763 bound_to 10752
  154.8137  135.4650  154.0588 H   0  0  0  0  0  0  0  0  0  0  0  0  # atno 10764 bound_to 10752
  153.1897  135.6906  153.8455 H   0  0  0  0  0  0  0  0  0  0  0  0  # atno 10765 bound_to 10752
  140.4615  134.6250  157.4844 H   0  0  0  0  0  0  0  0  0  0  0  0  # atno 11005 bound_to 11000
  145.3121  141.0222  143.3548 LP  0  0  0  0  0  0  0  0  0  0  0  0  # atno 17320 bound_to 7965
  144.8928  139.4752  143.6670 LP  0  0  0  0  0  0  0  0  0  0  0  0  # atno 17321 bound_to 7965
  139.8427  143.7542  152.3180 LP  0  0  0  0  0  0  0  0  0  0  0  0  # atno 17342 bound_to 10162
  139.7696  144.7480  151.0243 LP  0  0  0  0  0  0  0  0  0  0  0  0  # atno 17343 bound_to 10162
  156.3765  130.3873  149.7134 LP  0  0  0  0  0  0  0  0  0  0  0  0  # atno 17370 bound_to 10713
  156.4531  130.7916  151.2937 LP  0  0  0  0  0  0  0  0  0  0  0  0  # atno 17371 bound_to 10713
  139.9942  134.6937  155.9637 LP  0  0  0  0  0  0  0  0  0  0  0  0  # atno 17394 bound_to 11000
  141.1619  133.6538  156.4347 LP  0  0  0  0  0  0  0  0  0  0  0  0  # atno 17395 bound_to 11000

$$$$
