AV-unprocessed.smi:2229|AV-procd|sdf|9032|dock10
  -GOLD-   2272012243D 1   1.00000     0.00000
 Structure written by MMmdl.
 43 44  0  0  0  0  0  0  0  0  2 V2000
  151.4834  144.7448  160.2826 C   0  0  0  0  0  0  0  0  0  0  0  0
  151.8092  143.7385  159.1652 C   0  0  0  0  0  0  0  0  0  0  0  0
  152.7158  144.3859  158.1074 C   0  0  0  0  0  0  0  0  0  0  0  0
  150.5451  143.1441  158.5090 C   0  0  0  0  0  0  0  0  0  0  0  0
  150.7958  141.8060  157.7940 C   0  0  0  0  0  0  0  0  0  0  0  0
  149.7005  141.4108  156.7779 C   0  0  1  0  0  0  0  0  0  0  0  0
  149.8617  142.0702  155.4035 C   0  0  0  0  0  0  0  0  0  0  0  0
  148.9986  141.2203  154.4781 C   0  0  0  0  0  0  0  0  0  0  0  0
  149.2022  139.7885  154.9747 C   0  0  0  0  0  0  0  0  0  0  0  0
  149.5545  139.8938  156.4723 C   0  0  1  0  0  0  0  0  0  0  0  0
  150.7702  139.1305  156.7607 N   0  0  0  0  0  0  0  0  0  0  0  0
  151.8496  139.0553  155.9662 C   0  0  0  0  0  0  0  0  0  0  0  0
  151.9740  139.6990  154.9241 O   0  0  0  0  0  0  0  0  0  0  0  0
  152.9575  138.0966  156.4092 C   0  0  0  0  0  0  0  0  0  0  0  0
  152.7557  137.6693  157.7946 N   0  0  0  0  0  0  0  0  0  0  0  0
  152.8226  138.5264  158.8646 C   0  0  0  0  0  0  0  0  0  0  0  0
  152.6443  137.8919  159.9674 N   0  0  0  0  0  0  0  0  0  0  0  0
  152.4461  136.5180  159.6176 N   0  5  0  0  0  0  0  0  0  0  0  0
  152.5284  136.4443  158.2710 C   0  0  0  0  0  0  0  0  0  0  0  0
  152.4211  135.4512  157.5529 O   0  0  0  0  0  0  0  0  0  0  0  0
  150.8691  145.5658  159.9121 H   0  0  0  0  0  0  0  0  0  0  0  0
  152.3946  145.1740  160.6998 H   0  0  0  0  0  0  0  0  0  0  0  0
  150.9515  144.2735  161.1088 H   0  0  0  0  0  0  0  0  0  0  0  0
  152.3727  142.9193  159.6143 H   0  0  0  0  0  0  0  0  0  0  0  0
  152.2145  145.2175  157.6114 H   0  0  0  0  0  0  0  0  0  0  0  0
  153.0042  143.6654  157.3416 H   0  0  0  0  0  0  0  0  0  0  0  0
  153.6325  144.7689  158.5564 H   0  0  0  0  0  0  0  0  0  0  0  0
  149.7610  143.0205  159.2570 H   0  0  0  0  0  0  0  0  0  0  0  0
  150.1624  143.8629  157.7844 H   0  0  0  0  0  0  0  0  0  0  0  0
  151.7614  141.8482  157.2910 H   0  0  0  0  0  0  0  0  0  0  0  0
  150.8693  141.0215  158.5463 H   0  0  0  0  0  0  0  0  0  0  0  0
  148.7418  141.7407  157.1817 H   0  0  0  0  0  0  0  0  0  0  0  0
  149.5602  143.1182  155.4001 H   0  0  0  0  0  0  0  0  0  0  0  0
  150.9033  142.0208  155.0828 H   0  0  0  0  0  0  0  0  0  0  0  0
  147.9515  141.5038  154.5929 H   0  0  0  0  0  0  0  0  0  0  0  0
  149.2626  141.3423  153.4274 H   0  0  0  0  0  0  0  0  0  0  0  0
  148.3174  139.1741  154.8046 H   0  0  0  0  0  0  0  0  0  0  0  0
  150.0203  139.3317  154.4150 H   0  0  0  0  0  0  0  0  0  0  0  0
  148.7233  139.4957  157.0574 H   0  0  0  0  0  0  0  0  0  0  0  0
  150.7613  138.5608  157.5944 H   0  0  0  0  0  0  0  0  0  0  0  0
  152.9677  137.2332  155.7419 H   0  0  0  0  0  0  0  0  0  0  0  0
  153.9347  138.5719  156.3084 H   0  0  0  0  0  0  0  0  0  0  0  0
  153.0107  139.5897  158.7066 H   0  0  0  0  0  0  0  0  0  0  0  0
  1  2  1  0  0  0  0
  1 21  1  0  0  0  0
  1 22  1  0  0  0  0
  1 23  1  0  0  0  0
  2  3  1  0  0  0  0
  2  4  1  0  0  0  0
  2 24  1  0  0  0  0
  3 25  1  0  0  0  0
  3 26  1  0  0  0  0
  3 27  1  0  0  0  0
  4  5  1  0  0  0  0
  4 28  1  0  0  0  0
  4 29  1  0  0  0  0
  5  6  1  0  0  0  0
  5 30  1  0  0  0  0
  5 31  1  0  0  0  0
  6 10  1  0  0  0  0
  6  7  1  0  0  0  0
  6 32  1  0  0  0  0
  7  8  1  0  0  0  0
  7 33  1  0  0  0  0
  7 34  1  0  0  0  0
  8  9  1  0  0  0  0
  8 35  1  0  0  0  0
  8 36  1  0  0  0  0
  9 10  1  0  0  0  0
  9 37  1  0  0  0  0
  9 38  1  0  0  0  0
 10 11  1  0  0  0  0
 10 39  1  0  0  0  0
 11 12  1  0  0  0  0
 11 40  1  0  0  0  0
 12 13  2  0  0  0  0
 12 14  1  0  0  0  0
 14 15  1  0  0  0  0
 14 41  1  0  0  0  0
 14 42  1  0  0  0  0
 15 19  1  0  0  0  0
 15 16  1  0  0  0  0
 16 17  2  0  0  0  0
 16 43  1  0  0  0  0
 17 18  1  0  0  0  0
 18 19  1  0  0  0  0
 19 20  2  0  0  0  0
M  CHG  1  18  -1
M  END
> <s_m_source_file>
AV-unprocessed.smi

> <i_m_source_file_index>
2229

> <i_lp_mmshare_version>
43012

> <i_f3d_flags>
0

> <s_epik_input>
W0NIM11bQ0hdKFtDSDNdKVtDSDJdW0NIMl1bQ0BASF0xW0NIMl1bQ0gyXVtDSDJdW0NASF0xW05IXUMoPU8pW0NIMl1uMltjSF1uW25IXWMyPU8=

> <s_epik_cmdline>
J2VwaWtfcHl0aG9uJywgJy1waCcsICc3LjAnLCAnLXRuJywgJzgnLCAnLW1hJywgJzIwMCcsICctbWV0YWxfYmluZGluZycsICctaW1hZScsICc8aW5maWxlLm1hZT4nLCAnLW9tYWUnLCAnPG91dGZpbGUubWFlPic=

> <r_lp_tautomer_probability>
1

> <r_epik_Ionization_Penalty>
13.6733

> <r_epik_Ionization_Penalty_Charging>
13.6725

> <r_epik_Ionization_Penalty_Neutral>
0.000837689

> <r_epik_State_Penalty>
5.67062

> <r_epik_Charging_Adjusted_Penalty>
19.3431

> <i_epik_Tot_Q>
-1

> <i_epik_Tot_abs_Q>
1

> <r_epik_Metal_State_Penalty>
1.61781

> <b_epik_Metal_Only>
1

> <s_lp_Force_Field>
OPLS_2005

> <r_lp_Energy>
25.9104

> <b_lp_Chiralities_Consistent>
1

> <s_lp_Variant>
AV-unprocessed.smi:2229-6

> <Gold.Version>
5.8.1

> <Gold.Id.Protein>
6NUR|6NUR_protein|mol2

> <Gold.PLP.Fitness>
43.3345

> <Gold.PLP.PLP>
-33.5847

> <Gold.PLP.part.hbond>
-2.7280

> <Gold.PLP.part.metal>
0.0000

> <Gold.PLP.part.buried>
-0.7565

> <Gold.PLP.part.nonpolar>
-30.0388

> <Gold.PLP.part.repulsive>
0.1112

> <Gold.PLP.ligand.clash>
0.0000

> <Gold.PLP.ligand.torsion>
0.9687

> <Gold.PLP.Chemscore.Hbond>
3.8800

> <Gold.PLP.Chemscore.CHOScore>
0.0000

> <Gold.PLP.Chemscore.Metal>
0.0000

> <Gold.Chemscore.Hbonds>
donor molecule, donor type, donor heavy atom, donor atom, acceptor molecule, acceptor atom, score
      P1  H  6896  6908       L1    18  2.00
      P1  H  7989  7998       L1    13  0.93

> <Gold.PLP.Chemscore.Internal.Correction>
0.0472

> <Gold.Rescore>
     Score         DG    S(hbond)    S(metal)    S(lipo)     H(rot)  DE(clash)    DE(int)     intcor
     15.61     -17.86       2.86        0.00      81.04       2.59       0.20       2.05       ----

> <Gold.Chemscore.Fitness>
15.6097

> <Gold.Chemscore.DG>
-17.8624

> <Gold.Chemscore.ZeroCoef>
-5.4800

> <Gold.Chemscore.Hbond>
2.8566

> <Gold.Chemscore.Metal>
0.0000

> <Gold.Chemscore.Lipo>
81.0401

> <Gold.Chemscore.Internal_Hbond>
0.0000

> <Gold.Chemscore.DEClash>
0.2039

> <Gold.Chemscore.DEInternal>
2.0487

> <Gold.Chemscore.Rot>
2.5939

> <Gold.Chemscore.Internal.Correction>
   9.000000E+99

> <Gold.Chemscore.Hbonds>
donor molecule, donor type, donor heavy atom, donor atom, acceptor molecule, acceptor atom, score
      P1  H  6896  6908       L1    18  0.38
      P1  H  7989  7998       L1    13  0.90
      P1  H 10752 10763       L1    20  0.03

> <Gold.Chemscore.Hbond.Weighted>
-9.5412

> <Gold.Chemscore.Metal.Weighted>
-0.0000

> <Gold.Chemscore.Lipo.Weighted>
-9.4817

> <Gold.Chemscore.Internal_Hbond.Weighted>
0.0000

> <Gold.Chemscore.DEClash.Weighted>
0.2039

> <Gold.Chemscore.DEInternal.Weighted>
2.0487

> <Gold.Chemscore.Rot.Weighted>
6.6405

> <Gold.Chemscore.Internal.Correction.Weighted>
   9.000000E+99

> <Gold.Protein.RotatedTorsions>
[ 6907 6896 6895 6894 ] final  -89.55 input  -60.11 | X-H torsion
[ 7974 7965 7964 7962 ] final -140.22 input  175.53 | X-H torsion
[ 8008 7997 7996 7995 ] final  158.14 input   59.86 | X-H torsion
[ 10167 10162 10161 10158 ] final  -48.96 input  -65.29 | X-H torsion
[ 10718 10713 10712 10709 ] final -104.48 input   66.30 | X-H torsion
[ 10763 10752 10751 10750 ] final  115.08 input  -60.55 | X-H torsion
[ 11005 11000 10999 10996 ] final -149.83 input  -57.11 | X-H torsion

> <Gold.Protein.ActiveResidues>
 VAL166  LYS551  ARG553  GLY616  TRP617  ASP618  TYR619  PRO620  LYS621  CYS622 
 ASP623  PHE694  ASN695  SER759  ASP760  ASP761  ALA762  ILE779  LEU786  VAL792 
 PHE793  MET794  SER795  GLU796  ALA797  LYS798  CYS799  TRP800  GLU811  SER814 

> <Gold.Protein.RotatedAtoms>
  150.6874  134.2569  159.4533 H   0  0  0  0  0  0  0  0  0  0  0  0  # atno 6907 bound_to 6896
  152.0502  134.9655  160.0584 H   0  0  0  0  0  0  0  0  0  0  0  0  # atno 6908 bound_to 6896
  152.1123  133.4272  159.4673 H   0  0  0  0  0  0  0  0  0  0  0  0  # atno 6909 bound_to 6896
  144.8614  140.6226  143.5326 H   0  0  0  0  0  0  0  0  0  0  0  0  # atno 7974 bound_to 7965
  156.2321  140.1866  156.7216 H   0  0  0  0  0  0  0  0  0  0  0  0  # atno 8008 bound_to 7997
  154.6040  140.0631  156.9434 H   0  0  0  0  0  0  0  0  0  0  0  0  # atno 8009 bound_to 7997
  155.2126  140.3301  155.4329 H   0  0  0  0  0  0  0  0  0  0  0  0  # atno 8010 bound_to 7997
  140.6707  143.2717  151.4147 H   0  0  0  0  0  0  0  0  0  0  0  0  # atno 10167 bound_to 10162
  156.0306  130.5517  150.7402 H   0  0  0  0  0  0  0  0  0  0  0  0  # atno 10718 bound_to 10713
  153.5168  135.3606  155.2613 H   0  0  0  0  0  0  0  0  0  0  0  0  # atno 10763 bound_to 10752
  154.8738  135.4036  154.3305 H   0  0  0  0  0  0  0  0  0  0  0  0  # atno 10764 bound_to 10752
  153.3968  135.7073  153.6521 H   0  0  0  0  0  0  0  0  0  0  0  0  # atno 10765 bound_to 10752
  140.7466  134.3454  157.5135 H   0  0  0  0  0  0  0  0  0  0  0  0  # atno 11005 bound_to 11000
  145.4304  139.1550  143.4025 LP  0  0  0  0  0  0  0  0  0  0  0  0  # atno 17320 bound_to 7965
  146.2863  140.4420  142.8756 LP  0  0  0  0  0  0  0  0  0  0  0  0  # atno 17321 bound_to 7965
  139.5974  144.1368  152.2159 LP  0  0  0  0  0  0  0  0  0  0  0  0  # atno 17342 bound_to 10162
  140.0742  144.5754  150.7170 LP  0  0  0  0  0  0  0  0  0  0  0  0  # atno 17343 bound_to 10162
  157.4972  131.0916  151.0357 LP  0  0  0  0  0  0  0  0  0  0  0  0  # atno 17370 bound_to 10713
  157.0747  130.5878  149.5409 LP  0  0  0  0  0  0  0  0  0  0  0  0  # atno 17371 bound_to 10713
  139.8795  134.9115  156.3039 LP  0  0  0  0  0  0  0  0  0  0  0  0  # atno 17394 bound_to 11000
  140.9789  133.7280  156.0642 LP  0  0  0  0  0  0  0  0  0  0  0  0  # atno 17395 bound_to 11000

$$$$
