AV-unprocessed.smi:900|AV-procd|sdf|4089|dock7
  -GOLD-   22720 1573D 1   1.00000     0.00000
 Structure written by MMmdl.
 33 34  0  0  0  0  0  0  0  0  1 V2000
  146.7347  138.9141  152.4064 C   0  0  0  0  0  0  0  0  0  0  0  0
  147.9834  138.3719  152.9187 N   0  0  0  0  0  0  0  0  0  0  0  0
  148.7264  138.9560  153.8706 C   0  0  0  0  0  0  0  0  0  0  0  0
  148.4116  140.0104  154.4221 O   0  0  0  0  0  0  0  0  0  0  0  0
  150.0227  138.2440  154.2624 C   0  0  0  0  0  0  0  0  0  0  0  0
  150.7778  139.0483  155.2716 C   0  0  0  0  0  0  0  0  0  0  0  0
  152.0120  139.4757  155.0311 N   0  0  0  0  0  0  0  0  0  0  0  0
  152.3566  140.1511  156.2105 O   0  0  0  0  0  0  0  0  0  0  0  0
  151.2703  140.0679  157.0152 C   0  0  0  0  0  0  0  0  0  0  0  0
  151.3463  140.6450  158.3899 C   0  0  0  0  0  0  0  0  0  0  0  0
  152.0680  142.0035  158.4307 C   0  0  0  0  0  0  0  0  0  0  0  0
  152.2409  142.5927  159.8344 C   0  0  0  0  0  0  0  0  0  0  0  0
  152.4933  144.0874  159.6097 C   0  0  0  0  0  0  0  0  0  0  0  0
  151.9090  144.4207  158.2280 C   0  0  0  0  0  0  0  0  0  0  0  0
  151.3318  143.1125  157.6764 C   0  0  0  0  0  0  0  0  0  0  0  0
  150.2582  139.3856  156.4850 N   0  0  0  0  0  0  0  0  0  0  0  0
  146.2787  138.2063  151.7141 H   0  0  0  0  0  0  0  0  0  0  0  0
  146.9118  139.8483  151.8721 H   0  0  0  0  0  0  0  0  0  0  0  0
  146.0275  139.1036  153.2152 H   0  0  0  0  0  0  0  0  0  0  0  0
  148.3127  137.5068  152.5143 H   0  0  0  0  0  0  0  0  0  0  0  0
  149.7943  137.2581  154.6704 H   0  0  0  0  0  0  0  0  0  0  0  0
  150.6429  138.0849  153.3791 H   0  0  0  0  0  0  0  0  0  0  0  0
  150.3309  140.7543  158.7722 H   0  0  0  0  0  0  0  0  0  0  0  0
  151.8471  139.9287  159.0423 H   0  0  0  0  0  0  0  0  0  0  0  0
  153.0573  141.8919  157.9829 H   0  0  0  0  0  0  0  0  0  0  0  0
  151.3216  142.4625  160.4071 H   0  0  0  0  0  0  0  0  0  0  0  0
  153.0470  142.1159  160.3934 H   0  0  0  0  0  0  0  0  0  0  0  0
  152.0434  144.6897  160.3998 H   0  0  0  0  0  0  0  0  0  0  0  0
  153.5647  144.2914  159.6144 H   0  0  0  0  0  0  0  0  0  0  0  0
  151.1464  145.1983  158.2843 H   0  0  0  0  0  0  0  0  0  0  0  0
  152.7001  144.7879  157.5729 H   0  0  0  0  0  0  0  0  0  0  0  0
  151.4476  143.0301  156.5953 H   0  0  0  0  0  0  0  0  0  0  0  0
  150.2644  143.0667  157.8978 H   0  0  0  0  0  0  0  0  0  0  0  0
  1  2  1  0  0  0  0
  1 17  1  0  0  0  0
  1 18  1  0  0  0  0
  1 19  1  0  0  0  0
  2  3  1  0  0  0  0
  2 20  1  0  0  0  0
  3  4  2  0  0  0  0
  3  5  1  0  0  0  0
  5  6  1  0  0  0  0
  5 21  1  0  0  0  0
  5 22  1  0  0  0  0
  6 16  1  0  0  0  0
  6  7  2  0  0  0  0
  7  8  1  0  0  0  0
  8  9  1  0  0  0  0
  9 10  1  0  0  0  0
  9 16  2  0  0  0  0
 10 11  1  0  0  0  0
 10 23  1  0  0  0  0
 10 24  1  0  0  0  0
 11 15  1  0  0  0  0
 11 12  1  0  0  0  0
 11 25  1  0  0  0  0
 12 13  1  0  0  0  0
 12 26  1  0  0  0  0
 12 27  1  0  0  0  0
 13 14  1  0  0  0  0
 13 28  1  0  0  0  0
 13 29  1  0  0  0  0
 14 15  1  0  0  0  0
 14 30  1  0  0  0  0
 14 31  1  0  0  0  0
 15 32  1  0  0  0  0
 15 33  1  0  0  0  0
M  END
> <s_m_source_file>
AV-unprocessed.smi

> <i_m_source_file_index>
900

> <i_lp_mmshare_version>
43012

> <i_f3d_flags>
0

> <s_epik_input>
W0NIM11bTkhdQyg9TylbQ0gyXWMxbm9jKG4xKVtDSDJdW0NIXTJbQ0gyXVtDSDJdW0NIMl1bQ0gyXTI=

> <s_epik_cmdline>
J2VwaWtfcHl0aG9uJywgJy1waCcsICc3LjAnLCAnLXRuJywgJzgnLCAnLW1hJywgJzIwMCcsICctbWV0YWxfYmluZGluZycsICctaW1hZScsICc8aW5maWxlLm1hZT4nLCAnLW9tYWUnLCAnPG91dGZpbGUubWFlPic=

> <r_lp_tautomer_probability>
1

> <r_epik_Ionization_Penalty>
1.02915e-07

> <r_epik_Ionization_Penalty_Charging>
0

> <r_epik_Ionization_Penalty_Neutral>
1.02915e-07

> <r_epik_State_Penalty>
-0

> <r_epik_Charging_Adjusted_Penalty>
0

> <i_epik_Tot_Q>
0

> <i_epik_Tot_abs_Q>
0

> <r_epik_Metal_State_Penalty>
-0

> <b_epik_Metal_Only>
0

> <s_lp_Force_Field>
OPLS_2005

> <r_lp_Energy>
19.3932

> <b_lp_Chiralities_Consistent>
1

> <s_lp_Variant>
AV-unprocessed.smi:900-1

> <Gold.Version>
5.8.1

> <Gold.Id.Protein>
6NUR|6NUR_protein|mol2

> <Gold.PLP.Fitness>
41.9134

> <Gold.PLP.PLP>
-33.8710

> <Gold.PLP.part.hbond>
-4.0000

> <Gold.PLP.part.metal>
0.0000

> <Gold.PLP.part.buried>
-0.9379

> <Gold.PLP.part.nonpolar>
-29.3362

> <Gold.PLP.part.repulsive>
0.1965

> <Gold.PLP.ligand.clash>
0.0000

> <Gold.PLP.ligand.torsion>
0.3080

> <Gold.PLP.Chemscore.Hbond>
2.8800

> <Gold.PLP.Chemscore.CHOScore>
0.0000

> <Gold.PLP.Chemscore.Metal>
0.0000

> <Gold.Chemscore.Hbonds>
donor molecule, donor type, donor heavy atom, donor atom, acceptor molecule, acceptor atom, score
      L1  H     2    20       P1  7948  1.00
      P1  H  7989  7998       L1     7  0.78
      P1  H  7997  8008       L1     8  1.00

> <Gold.PLP.Chemscore.Internal.Correction>
0.0183

> <Gold.Rescore>
     Score         DG    S(hbond)    S(metal)    S(lipo)     H(rot)  DE(clash)    DE(int)     intcor
     15.28     -16.98       2.12        0.00      78.78       1.87       0.13       1.58       ----

> <Gold.Chemscore.Fitness>
15.2769

> <Gold.Chemscore.DG>
-16.9791

> <Gold.Chemscore.ZeroCoef>
-5.4800

> <Gold.Chemscore.Hbond>
2.1187

> <Gold.Chemscore.Metal>
0.0000

> <Gold.Chemscore.Lipo>
78.7752

> <Gold.Chemscore.Internal_Hbond>
0.0000

> <Gold.Chemscore.DEClash>
0.1256

> <Gold.Chemscore.DEInternal>
1.5766

> <Gold.Chemscore.Rot>
1.8727

> <Gold.Chemscore.Internal.Correction>
   9.000000E+99

> <Gold.Chemscore.Hbonds>
donor molecule, donor type, donor heavy atom, donor atom, acceptor molecule, acceptor atom, score
      L1  H     2    20       P1  7948  0.95
      P1  H  7989  7998       L1     7  0.16
      P1  H  7997  8008       L1     8  0.67

> <Gold.Chemscore.Hbond.Weighted>
-7.0764

> <Gold.Chemscore.Metal.Weighted>
-0.0000

> <Gold.Chemscore.Lipo.Weighted>
-9.2167

> <Gold.Chemscore.Internal_Hbond.Weighted>
0.0000

> <Gold.Chemscore.DEClash.Weighted>
0.1256

> <Gold.Chemscore.DEInternal.Weighted>
1.5766

> <Gold.Chemscore.Rot.Weighted>
4.7940

> <Gold.Chemscore.Internal.Correction.Weighted>
   9.000000E+99

> <Gold.Protein.RotatedTorsions>
[ 6907 6896 6895 6894 ] final  -13.35 input  -60.11 | X-H torsion
[ 7974 7965 7964 7962 ] final -108.22 input  175.53 | X-H torsion
[ 8008 7997 7996 7995 ] final  -47.66 input   59.86 | X-H torsion
[ 10167 10162 10161 10158 ] final    9.51 input  -65.29 | X-H torsion
[ 10718 10713 10712 10709 ] final   71.52 input   66.30 | X-H torsion
[ 10763 10752 10751 10750 ] final   69.96 input  -60.55 | X-H torsion
[ 11005 11000 10999 10996 ] final  178.50 input  -57.11 | X-H torsion

> <Gold.Protein.ActiveResidues>
 VAL166  LYS551  ARG553  GLY616  TRP617  ASP618  TYR619  PRO620  LYS621  CYS622 
 ASP623  PHE694  ASN695  SER759  ASP760  ASP761  ALA762  ILE779  LEU786  VAL792 
 PHE793  MET794  SER795  GLU796  ALA797  LYS798  CYS799  TRP800  GLU811  SER814 

> <Gold.Protein.RotatedAtoms>
  151.3563  135.0895  159.9419 H   0  0  0  0  0  0  0  0  0  0  0  0  # atno 6907 bound_to 6896
  152.5174  133.9302  159.7587 H   0  0  0  0  0  0  0  0  0  0  0  0  # atno 6908 bound_to 6896
  150.9688  133.6312  159.2771 H   0  0  0  0  0  0  0  0  0  0  0  0  # atno 6909 bound_to 6896
  145.1956  140.9034  143.3399 H   0  0  0  0  0  0  0  0  0  0  0  0  # atno 7974 bound_to 7965
  154.4019  140.1341  156.4211 H   0  0  0  0  0  0  0  0  0  0  0  0  # atno 8008 bound_to 7997
  155.7642  140.3485  155.5193 H   0  0  0  0  0  0  0  0  0  0  0  0  # atno 8009 bound_to 7997
  155.8830  140.0990  157.1462 H   0  0  0  0  0  0  0  0  0  0  0  0  # atno 8010 bound_to 7997
  140.6251  143.8119  150.7223 H   0  0  0  0  0  0  0  0  0  0  0  0  # atno 10167 bound_to 10162
  157.6456  130.9532  150.0801 H   0  0  0  0  0  0  0  0  0  0  0  0  # atno 10718 bound_to 10713
  153.0315  135.5191  154.7368 H   0  0  0  0  0  0  0  0  0  0  0  0  # atno 10763 bound_to 10752
  154.6379  135.2908  155.0141 H   0  0  0  0  0  0  0  0  0  0  0  0  # atno 10764 bound_to 10752
  154.1069  135.6628  153.4930 H   0  0  0  0  0  0  0  0  0  0  0  0  # atno 10765 bound_to 10752
  140.3958  134.6822  157.4533 H   0  0  0  0  0  0  0  0  0  0  0  0  # atno 11005 bound_to 11000
  144.9998  139.3609  143.6173 LP  0  0  0  0  0  0  0  0  0  0  0  0  # atno 17320 bound_to 7965
  146.3428  139.9216  142.8766 LP  0  0  0  0  0  0  0  0  0  0  0  0  # atno 17321 bound_to 7965
  140.1718  143.4188  152.1995 LP  0  0  0  0  0  0  0  0  0  0  0  0  # atno 17342 bound_to 10162
  139.5472  144.7308  151.4545 LP  0  0  0  0  0  0  0  0  0  0  0  0  # atno 17343 bound_to 10162
  156.1780  130.3649  149.9074 LP  0  0  0  0  0  0  0  0  0  0  0  0  # atno 17370 bound_to 10713
  156.7033  130.8941  151.3602 LP  0  0  0  0  0  0  0  0  0  0  0  0  # atno 17371 bound_to 10713
  140.0373  134.6319  155.9027 LP  0  0  0  0  0  0  0  0  0  0  0  0  # atno 17394 bound_to 11000
  141.1875  133.6560  156.5283 LP  0  0  0  0  0  0  0  0  0  0  0  0  # atno 17395 bound_to 11000

$$$$
