AV-unprocessed.smi:2240|AV-procd|sdf|9057|dock4
  -GOLD-   2272012263D 1   1.00000     0.00000
 Structure written by MMmdl.
 37 38  0  0  0  0  0  0  0  0  1 V2000
  155.3646  135.3038  159.1995 C   0  0  0  0  0  0  0  0  0  0  0  0
  155.9679  135.4146  160.4822 O   0  0  0  0  0  0  0  0  0  0  0  0
  155.6413  136.5872  161.2293 C   0  0  0  0  0  0  0  0  0  0  0  0
  156.1536  137.8658  160.5445 C   0  0  0  0  0  0  0  0  0  0  0  0
  155.5451  139.0630  161.1163 N   0  0  0  0  0  0  0  0  0  0  0  0
  154.7562  139.9276  160.4629 C   0  0  0  0  0  0  0  0  0  0  0  0
  154.4269  139.7926  159.2840 O   0  0  0  0  0  0  0  0  0  0  0  0
  154.3994  140.9521  161.2573 N   0  0  0  0  0  0  0  0  0  0  0  0
  153.6233  142.0952  160.9289 C   0  0  0  0  0  0  0  0  0  0  0  0
  153.0850  142.9228  161.9476 C   0  0  0  0  0  0  0  0  0  0  0  0
  152.3438  144.0654  161.5902 C   0  0  0  0  0  0  0  0  0  0  0  0
  152.1674  144.3621  160.2261 C   0  0  0  0  0  0  0  0  0  0  0  0
  151.3763  145.5784  159.7923 C   0  0  0  0  0  0  0  0  0  0  0  0
  152.7491  143.4960  159.2803 C   0  0  0  0  0  0  0  0  0  0  0  0
  153.4617  142.4014  159.6207 N   0  0  0  0  0  0  0  0  0  0  0  0
  154.1494  136.5090  161.6100 C   0  0  0  0  0  0  0  0  0  0  0  0
  154.5308  136.9256  163.0310 C   0  0  0  0  0  0  0  0  0  0  0  0
  155.9311  136.3897  162.7315 C   0  0  0  0  0  0  0  0  0  0  0  0
  155.7789  134.4377  158.6838 H   0  0  0  0  0  0  0  0  0  0  0  0
  155.5558  136.1800  158.5799 H   0  0  0  0  0  0  0  0  0  0  0  0
  154.2879  135.1532  159.2717 H   0  0  0  0  0  0  0  0  0  0  0  0
  157.2415  137.9235  160.6062 H   0  0  0  0  0  0  0  0  0  0  0  0
  155.9327  137.8500  159.4776 H   0  0  0  0  0  0  0  0  0  0  0  0
  155.7664  139.2615  162.0810 H   0  0  0  0  0  0  0  0  0  0  0  0
  154.8284  140.9725  162.1705 H   0  0  0  0  0  0  0  0  0  0  0  0
  153.2385  142.7086  162.9944 H   0  0  0  0  0  0  0  0  0  0  0  0
  151.9235  144.7044  162.3529 H   0  0  0  0  0  0  0  0  0  0  0  0
  151.5866  145.8337  158.7532 H   0  0  0  0  0  0  0  0  0  0  0  0
  151.6294  146.4396  160.4111 H   0  0  0  0  0  0  0  0  0  0  0  0
  150.3077  145.3868  159.8893 H   0  0  0  0  0  0  0  0  0  0  0  0
  152.6448  143.6843  158.2218 H   0  0  0  0  0  0  0  0  0  0  0  0
  153.4969  137.2147  161.0969 H   0  0  0  0  0  0  0  0  0  0  0  0
  153.7468  135.4954  161.5672 H   0  0  0  0  0  0  0  0  0  0  0  0
  154.5109  138.0068  163.1767 H   0  0  0  0  0  0  0  0  0  0  0  0
  153.9977  136.3980  163.8222 H   0  0  0  0  0  0  0  0  0  0  0  0
  156.0424  135.3420  163.0172 H   0  0  0  0  0  0  0  0  0  0  0  0
  156.7433  137.0006  163.1261 H   0  0  0  0  0  0  0  0  0  0  0  0
  1  2  1  0  0  0  0
  1 19  1  0  0  0  0
  1 20  1  0  0  0  0
  1 21  1  0  0  0  0
  2  3  1  0  0  0  0
  3 18  1  0  0  0  0
  3  4  1  0  0  0  0
  3 16  1  0  0  0  0
  4  5  1  0  0  0  0
  4 22  1  0  0  0  0
  4 23  1  0  0  0  0
  5  6  1  0  0  0  0
  5 24  1  0  0  0  0
  6  7  2  0  0  0  0
  6  8  1  0  0  0  0
  8  9  1  0  0  0  0
  8 25  1  0  0  0  0
  9 15  1  0  0  0  0
  9 10  2  0  0  0  0
 10 11  1  0  0  0  0
 10 26  1  0  0  0  0
 11 12  2  0  0  0  0
 11 27  1  0  0  0  0
 12 13  1  0  0  0  0
 12 14  1  0  0  0  0
 13 28  1  0  0  0  0
 13 29  1  0  0  0  0
 13 30  1  0  0  0  0
 14 15  2  0  0  0  0
 14 31  1  0  0  0  0
 16 17  1  0  0  0  0
 16 32  1  0  0  0  0
 16 33  1  0  0  0  0
 17 18  1  0  0  0  0
 17 34  1  0  0  0  0
 17 35  1  0  0  0  0
 18 36  1  0  0  0  0
 18 37  1  0  0  0  0
M  END
> <s_m_source_file>
AV-unprocessed.smi

> <i_m_source_file_index>
2240

> <i_lp_mmshare_version>
43012

> <i_f3d_flags>
0

> <s_epik_input>
W0NIMl0xW0NIMl1bQ0gyXUMxKE9bQ0gzXSlbQ0gyXVtOSF1DKD1PKVtOSF1jMltjSF1bY0hdYyhbQ0gzXSlbY0hdbjI=

> <s_epik_cmdline>
J2VwaWtfcHl0aG9uJywgJy1waCcsICc3LjAnLCAnLXRuJywgJzgnLCAnLW1hJywgJzIwMCcsICctbWV0YWxfYmluZGluZycsICctaW1hZScsICc8aW5maWxlLm1hZT4nLCAnLW9tYWUnLCAnPG91dGZpbGUubWFlPic=

> <r_lp_tautomer_probability>
1

> <r_epik_Ionization_Penalty>
5.83017e-05

> <r_epik_Ionization_Penalty_Charging>
0

> <r_epik_Ionization_Penalty_Neutral>
5.83017e-05

> <r_epik_State_Penalty>
-0

> <r_epik_Charging_Adjusted_Penalty>
0

> <i_epik_Tot_Q>
0

> <i_epik_Tot_abs_Q>
0

> <r_epik_Metal_State_Penalty>
-0

> <b_epik_Metal_Only>
0

> <s_lp_Force_Field>
OPLS_2005

> <r_lp_Energy>
21.5554

> <b_lp_Chiralities_Consistent>
1

> <s_lp_Variant>
AV-unprocessed.smi:2240-1

> <Gold.Version>
5.8.1

> <Gold.Id.Protein>
6NUR|6NUR_protein|mol2

> <Gold.PLP.Fitness>
39.0160

> <Gold.PLP.PLP>
-36.3920

> <Gold.PLP.part.hbond>
-1.0000

> <Gold.PLP.part.metal>
0.0000

> <Gold.PLP.part.buried>
-4.8333

> <Gold.PLP.part.nonpolar>
-29.7943

> <Gold.PLP.part.repulsive>
0.0000

> <Gold.PLP.ligand.clash>
0.0000

> <Gold.PLP.ligand.torsion>
0.3212

> <Gold.PLP.Chemscore.Hbond>
1.0000

> <Gold.PLP.Chemscore.CHOScore>
0.0000

> <Gold.PLP.Chemscore.Metal>
0.0000

> <Gold.Chemscore.Hbonds>
donor molecule, donor type, donor heavy atom, donor atom, acceptor molecule, acceptor atom, score
      P1  H  7997  8010       L1     7  0.86

> <Gold.PLP.Chemscore.Internal.Correction>
0.2664

> <Gold.Rescore>
     Score         DG    S(hbond)    S(metal)    S(lipo)     H(rot)  DE(clash)    DE(int)     intcor
     13.28     -15.81       0.99        0.00      91.94       1.45       0.00       2.53       ----

> <Gold.Chemscore.Fitness>
13.2796

> <Gold.Chemscore.DG>
-15.8134

> <Gold.Chemscore.ZeroCoef>
-5.4800

> <Gold.Chemscore.Hbond>
0.9862

> <Gold.Chemscore.Metal>
0.0000

> <Gold.Chemscore.Lipo>
91.9444

> <Gold.Chemscore.Internal_Hbond>
0.0000

> <Gold.Chemscore.DEClash>
0.0038

> <Gold.Chemscore.DEInternal>
2.5300

> <Gold.Chemscore.Rot>
1.4523

> <Gold.Chemscore.Internal.Correction>
   9.000000E+99

> <Gold.Chemscore.Hbonds>
donor molecule, donor type, donor heavy atom, donor atom, acceptor molecule, acceptor atom, score
      P1  H  7997  8010       L1     7  0.82

> <Gold.Chemscore.Hbond.Weighted>
-3.2939

> <Gold.Chemscore.Metal.Weighted>
-0.0000

> <Gold.Chemscore.Lipo.Weighted>
-10.7575

> <Gold.Chemscore.Internal_Hbond.Weighted>
0.0000

> <Gold.Chemscore.DEClash.Weighted>
0.0038

> <Gold.Chemscore.DEInternal.Weighted>
2.5300

> <Gold.Chemscore.Rot.Weighted>
3.7179

> <Gold.Chemscore.Internal.Correction.Weighted>
   9.000000E+99

> <Gold.Protein.RotatedTorsions>
[ 6907 6896 6895 6894 ] final -133.15 input  -60.11 | X-H torsion
[ 7974 7965 7964 7962 ] final  -82.80 input  175.53 | X-H torsion
[ 8008 7997 7996 7995 ] final   -4.89 input   59.86 | X-H torsion
[ 10167 10162 10161 10158 ] final   45.46 input  -65.29 | X-H torsion
[ 10718 10713 10712 10709 ] final   59.05 input   66.30 | X-H torsion
[ 10763 10752 10751 10750 ] final    8.24 input  -60.55 | X-H torsion
[ 11005 11000 10999 10996 ] final  -98.20 input  -57.11 | X-H torsion

> <Gold.Protein.ActiveResidues>
 VAL166  LYS551  ARG553  GLY616  TRP617  ASP618  TYR619  PRO620  LYS621  CYS622 
 ASP623  PHE694  ASN695  SER759  ASP760  ASP761  ALA762  ILE779  LEU786  VAL792 
 PHE793  MET794  SER795  GLU796  ALA797  LYS798  CYS799  TRP800  GLU811  SER814 

> <Gold.Protein.RotatedAtoms>
  150.9707  133.6347  159.2738 H   0  0  0  0  0  0  0  0  0  0  0  0  # atno 6907 bound_to 6896
  151.3637  135.0908  159.9452 H   0  0  0  0  0  0  0  0  0  0  0  0  # atno 6908 bound_to 6896
  152.5181  133.9275  159.7619 H   0  0  0  0  0  0  0  0  0  0  0  0  # atno 6909 bound_to 6896
  145.5284  140.9524  143.1616 H   0  0  0  0  0  0  0  0  0  0  0  0  # atno 7974 bound_to 7965
  154.6095  140.2472  155.7687 H   0  0  0  0  0  0  0  0  0  0  0  0  # atno 8008 bound_to 7997
  156.2362  140.2949  156.0269 H   0  0  0  0  0  0  0  0  0  0  0  0  # atno 8009 bound_to 7997
  155.2075  140.0396  157.2918 H   0  0  0  0  0  0  0  0  0  0  0  0  # atno 8010 bound_to 7997
  140.3239  144.2671  150.6178 H   0  0  0  0  0  0  0  0  0  0  0  0  # atno 10167 bound_to 10162
  157.5645  130.8860  149.9164 H   0  0  0  0  0  0  0  0  0  0  0  0  # atno 10718 bound_to 10713
  153.2272  135.6888  153.7931 H   0  0  0  0  0  0  0  0  0  0  0  0  # atno 10763 bound_to 10752
  153.7109  135.3282  155.3247 H   0  0  0  0  0  0  0  0  0  0  0  0  # atno 10764 bound_to 10752
  154.8297  135.4590  154.1143 H   0  0  0  0  0  0  0  0  0  0  0  0  # atno 10765 bound_to 10752
  141.1353  133.8228  157.0808 H   0  0  0  0  0  0  0  0  0  0  0  0  # atno 11005 bound_to 11000
  144.7639  139.6892  143.7223 LP  0  0  0  0  0  0  0  0  0  0  0  0  # atno 17320 bound_to 7965
  146.2060  139.5385  142.9712 LP  0  0  0  0  0  0  0  0  0  0  0  0  # atno 17321 bound_to 7965
  140.5458  143.2215  151.8009 LP  0  0  0  0  0  0  0  0  0  0  0  0  # atno 17342 bound_to 10162
  139.4869  144.4541  151.9619 LP  0  0  0  0  0  0  0  0  0  0  0  0  # atno 17343 bound_to 10162
  156.0694  130.3687  150.0808 LP  0  0  0  0  0  0  0  0  0  0  0  0  # atno 17370 bound_to 10713
  156.8968  130.9607  151.3581 LP  0  0  0  0  0  0  0  0  0  0  0  0  # atno 17371 bound_to 10713
  140.0452  134.9834  157.1036 LP  0  0  0  0  0  0  0  0  0  0  0  0  # atno 17394 bound_to 11000
  140.4073  134.2018  155.7163 LP  0  0  0  0  0  0  0  0  0  0  0  0  # atno 17395 bound_to 11000

$$$$
