AV-unprocessed.smi:2243|AV-procd|sdf|9062|dock7
  -GOLD-   2272012273D 1   1.00000     0.00000
 Structure written by MMmdl.
 34 35  0  0  0  0  0  0  0  0  1 V2000
  154.6434  139.8904  160.5239 C   0  0  0  0  0  0  0  0  0  0  0  0
  153.3563  140.5910  160.0555 C   0  0  2  0  0  0  0  0  0  0  0  0
  153.2429  140.4057  158.6083 N   0  0  0  0  0  0  0  0  0  0  0  0
  152.3038  139.6859  157.9753 C   0  0  0  0  0  0  0  0  0  0  0  0
  151.3962  139.0857  158.5517 O   0  0  0  0  0  0  0  0  0  0  0  0
  152.4874  139.7138  156.6448 N   0  0  0  0  0  0  0  0  0  0  0  0
  151.7007  139.0790  155.6506 C   0  0  0  0  0  0  0  0  0  0  0  0
  151.4935  137.7680  155.5172 N   0  0  0  0  0  0  0  0  0  0  0  0
  150.6666  137.6556  154.4089 C   0  0  0  0  0  0  0  0  0  0  0  0
  150.4187  138.9168  153.9308 C   0  0  0  0  0  0  0  0  0  0  0  0
  151.0711  139.8331  154.7113 O   0  0  0  0  0  0  0  0  0  0  0  0
  153.3105  142.1001  160.4152 C   0  0  0  0  0  0  0  0  0  0  0  0
  152.8603  142.3490  161.8692 C   0  0  0  0  0  0  0  0  0  0  0  0
  152.7465  143.8521  162.1710 C   0  0  0  0  0  0  0  0  0  0  0  0
  151.8469  144.4667  161.2572 O   0  0  0  0  0  0  0  0  0  0  0  0
  152.2912  144.3772  159.9094 C   0  0  0  0  0  0  0  0  0  0  0  0
  152.3799  142.9037  159.4809 C   0  0  0  0  0  0  0  0  0  0  0  0
  154.7221  139.8718  161.6104 H   0  0  0  0  0  0  0  0  0  0  0  0
  155.5320  140.3852  160.1302 H   0  0  0  0  0  0  0  0  0  0  0  0
  154.6664  138.8525  160.1891 H   0  0  0  0  0  0  0  0  0  0  0  0
  152.5190  140.1019  160.5569 H   0  0  0  0  0  0  0  0  0  0  0  0
  153.9431  140.8636  158.0432 H   0  0  0  0  0  0  0  0  0  0  0  0
  153.2741  140.2467  156.3047 H   0  0  0  0  0  0  0  0  0  0  0  0
  150.3226  136.6967  154.0505 H   0  0  0  0  0  0  0  0  0  0  0  0
  149.8418  139.3057  153.1049 H   0  0  0  0  0  0  0  0  0  0  0  0
  154.3183  142.5042  160.3051 H   0  0  0  0  0  0  0  0  0  0  0  0
  151.8957  141.8710  162.0450 H   0  0  0  0  0  0  0  0  0  0  0  0
  153.5630  141.9041  162.5732 H   0  0  0  0  0  0  0  0  0  0  0  0
  152.3744  144.0022  163.1844 H   0  0  0  0  0  0  0  0  0  0  0  0
  153.7235  144.3348  162.1165 H   0  0  0  0  0  0  0  0  0  0  0  0
  151.5857  144.9096  159.2711 H   0  0  0  0  0  0  0  0  0  0  0  0
  153.2564  144.8736  159.7991 H   0  0  0  0  0  0  0  0  0  0  0  0
  152.7308  142.8583  158.4497 H   0  0  0  0  0  0  0  0  0  0  0  0
  151.3815  142.4643  159.4882 H   0  0  0  0  0  0  0  0  0  0  0  0
  1  2  1  0  0  0  0
  1 18  1  0  0  0  0
  1 19  1  0  0  0  0
  1 20  1  0  0  0  0
  2  3  1  0  0  0  0
  2 12  1  0  0  0  0
  2 21  1  0  0  0  0
  3  4  1  0  0  0  0
  3 22  1  0  0  0  0
  4  5  2  0  0  0  0
  4  6  1  0  0  0  0
  6  7  1  0  0  0  0
  6 23  1  0  0  0  0
  7 11  1  0  0  0  0
  7  8  2  0  0  0  0
  8  9  1  0  0  0  0
  9 10  2  0  0  0  0
  9 24  1  0  0  0  0
 10 11  1  0  0  0  0
 10 25  1  0  0  0  0
 12 17  1  0  0  0  0
 12 13  1  0  0  0  0
 12 26  1  0  0  0  0
 13 14  1  0  0  0  0
 13 27  1  0  0  0  0
 13 28  1  0  0  0  0
 14 15  1  0  0  0  0
 14 29  1  0  0  0  0
 14 30  1  0  0  0  0
 15 16  1  0  0  0  0
 16 17  1  0  0  0  0
 16 31  1  0  0  0  0
 16 32  1  0  0  0  0
 17 33  1  0  0  0  0
 17 34  1  0  0  0  0
M  END
> <s_m_source_file>
AV-unprocessed.smi

> <i_m_source_file_index>
2243

> <i_lp_mmshare_version>
43012

> <i_f3d_flags>
0

> <s_epik_input>
W0NIMl0xW0NIMl1PW0NIMl1bQ0gyXVtDSF0xW0NASF0oW0NIM10pW05IXUMoPU8pW05IXWMybltjSF1bY0hdbzI=

> <s_epik_cmdline>
J2VwaWtfcHl0aG9uJywgJy1waCcsICc3LjAnLCAnLXRuJywgJzgnLCAnLW1hJywgJzIwMCcsICctbWV0YWxfYmluZGluZycsICctaW1hZScsICc8aW5maWxlLm1hZT4nLCAnLW9tYWUnLCAnPG91dGZpbGUubWFlPic=

> <r_lp_tautomer_probability>
0.785861

> <r_epik_Ionization_Penalty>
5.17761e-05

> <r_epik_Ionization_Penalty_Charging>
0

> <r_epik_Ionization_Penalty_Neutral>
5.17761e-05

> <r_epik_State_Penalty>
0.0447104

> <r_epik_Charging_Adjusted_Penalty>
0.0447104

> <i_epik_Tot_Q>
0

> <i_epik_Tot_abs_Q>
0

> <r_epik_Metal_State_Penalty>
0.0593601

> <b_epik_Metal_Only>
0

> <s_lp_Force_Field>
OPLS_2005

> <r_lp_Energy>
10.6877

> <b_lp_Chiralities_Consistent>
1

> <s_lp_Variant>
AV-unprocessed.smi:2243-1

> <Gold.Version>
5.8.1

> <Gold.Id.Protein>
6NUR|6NUR_protein|mol2

> <Gold.PLP.Fitness>
40.6468

> <Gold.PLP.PLP>
-33.9635

> <Gold.PLP.part.hbond>
-1.0000

> <Gold.PLP.part.metal>
0.0000

> <Gold.PLP.part.buried>
-4.6365

> <Gold.PLP.part.nonpolar>
-30.2531

> <Gold.PLP.part.repulsive>
2.0291

> <Gold.PLP.ligand.clash>
0.0000

> <Gold.PLP.ligand.torsion>
1.1113

> <Gold.PLP.Chemscore.Hbond>
1.0000

> <Gold.PLP.Chemscore.CHOScore>
1.9636

> <Gold.PLP.Chemscore.Metal>
0.0000

> <Gold.Chemscore.Hbonds>
donor molecule, donor type, donor heavy atom, donor atom, acceptor molecule, acceptor atom, score
      P1  H  7989  7998       L1    11  0.95
      L1  C     9    24       P1  7948  0.69
      L1  C     9    24       P1  7949  0.10
      L1  C    10    25       P1  7957  1.00

> <Gold.PLP.Chemscore.Internal.Correction>
0.0151

> <Gold.Rescore>
     Score         DG    S(hbond)    S(metal)    S(lipo)     H(rot)  DE(clash)    DE(int)     intcor
     13.85     -15.47       0.97        0.00      86.62       1.32       0.84       0.78       ----

> <Gold.Chemscore.Fitness>
13.8455

> <Gold.Chemscore.DG>
-15.4667

> <Gold.Chemscore.ZeroCoef>
-5.4800

> <Gold.Chemscore.Hbond>
0.9675

> <Gold.Chemscore.Metal>
0.0000

> <Gold.Chemscore.Lipo>
86.6224

> <Gold.Chemscore.Internal_Hbond>
0.0000

> <Gold.Chemscore.DEClash>
0.8378

> <Gold.Chemscore.DEInternal>
0.7834

> <Gold.Chemscore.Rot>
1.3201

> <Gold.Chemscore.Internal.Correction>
   9.000000E+99

> <Gold.Chemscore.Hbonds>
donor molecule, donor type, donor heavy atom, donor atom, acceptor molecule, acceptor atom, score
      P1  H  7989  7998       L1    11  0.22

> <Gold.Chemscore.Hbond.Weighted>
-3.2313

> <Gold.Chemscore.Metal.Weighted>
-0.0000

> <Gold.Chemscore.Lipo.Weighted>
-10.1348

> <Gold.Chemscore.Internal_Hbond.Weighted>
0.0000

> <Gold.Chemscore.DEClash.Weighted>
0.8378

> <Gold.Chemscore.DEInternal.Weighted>
0.7834

> <Gold.Chemscore.Rot.Weighted>
3.3794

> <Gold.Chemscore.Internal.Correction.Weighted>
   9.000000E+99

> <Gold.Protein.RotatedTorsions>
[ 6907 6896 6895 6894 ] final  137.38 input  -60.11 | X-H torsion
[ 7974 7965 7964 7962 ] final  155.10 input  175.53 | X-H torsion
[ 8008 7997 7996 7995 ] final  151.29 input   59.86 | X-H torsion
[ 10167 10162 10161 10158 ] final  178.87 input  -65.29 | X-H torsion
[ 10718 10713 10712 10709 ] final  123.52 input   66.30 | X-H torsion
[ 10763 10752 10751 10750 ] final   43.06 input  -60.55 | X-H torsion
[ 11005 11000 10999 10996 ] final -177.72 input  -57.11 | X-H torsion

> <Gold.Protein.ActiveResidues>
 VAL166  LYS551  ARG553  GLY616  TRP617  ASP618  TYR619  PRO620  LYS621  CYS622 
 ASP623  PHE694  ASN695  SER759  ASP760  ASP761  ALA762  ILE779  LEU786  VAL792 
 PHE793  MET794  SER795  GLU796  ALA797  LYS798  CYS799  TRP800  GLU811  SER814 

> <Gold.Protein.RotatedAtoms>
  152.2788  133.5450  159.5484 H   0  0  0  0  0  0  0  0  0  0  0  0  # atno 6907 bound_to 6896
  150.7187  134.0594  159.3835 H   0  0  0  0  0  0  0  0  0  0  0  0  # atno 6908 bound_to 6896
  151.8505  135.0559  160.0509 H   0  0  0  0  0  0  0  0  0  0  0  0  # atno 6909 bound_to 6896
  144.8046  139.7023  143.6167 H   0  0  0  0  0  0  0  0  0  0  0  0  # atno 7974 bound_to 7965
  156.2680  140.2052  156.6153 H   0  0  0  0  0  0  0  0  0  0  0  0  # atno 8008 bound_to 7997
  154.6800  140.0541  157.0279 H   0  0  0  0  0  0  0  0  0  0  0  0  # atno 8009 bound_to 7997
  155.1015  140.3206  155.4549 H   0  0  0  0  0  0  0  0  0  0  0  0  # atno 8010 bound_to 7997
  139.5312  144.2629  152.0692 H   0  0  0  0  0  0  0  0  0  0  0  0  # atno 10167 bound_to 10162
  157.5658  131.1086  150.8457 H   0  0  0  0  0  0  0  0  0  0  0  0  # atno 10718 bound_to 10713
  152.9869  135.6113  154.3050 H   0  0  0  0  0  0  0  0  0  0  0  0  # atno 10763 bound_to 10752
  154.2769  135.2778  155.2716 H   0  0  0  0  0  0  0  0  0  0  0  0  # atno 10764 bound_to 10752
  154.5073  135.5850  153.6634 H   0  0  0  0  0  0  0  0  0  0  0  0  # atno 10765 bound_to 10752
  140.4377  134.6460  157.4743 H   0  0  0  0  0  0  0  0  0  0  0  0  # atno 11005 bound_to 11000
  146.2335  139.5859  142.9539 LP  0  0  0  0  0  0  0  0  0  0  0  0  # atno 17320 bound_to 7965
  145.5469  141.0416  143.2300 LP  0  0  0  0  0  0  0  0  0  0  0  0  # atno 17321 bound_to 7965
  140.2093  144.4579  150.6393 LP  0  0  0  0  0  0  0  0  0  0  0  0  # atno 17342 bound_to 10162
  140.6491  143.2220  151.6118 LP  0  0  0  0  0  0  0  0  0  0  0  0  # atno 17343 bound_to 10162
  156.8942  130.5223  149.5285 LP  0  0  0  0  0  0  0  0  0  0  0  0  # atno 17370 bound_to 10713
  156.0707  130.5740  150.9377 LP  0  0  0  0  0  0  0  0  0  0  0  0  # atno 17371 bound_to 10713
  140.0091  134.6718  155.9409 LP  0  0  0  0  0  0  0  0  0  0  0  0  # atno 17394 bound_to 11000
  141.1719  133.6538  156.4682 LP  0  0  0  0  0  0  0  0  0  0  0  0  # atno 17395 bound_to 11000

$$$$
