AV-unprocessed.smi:438|AV-procd|sdf|2568|dock6
  -GOLD-   2262022543D 1   1.00000     0.00000
 Structure written by MMmdl.
 48 49  0  0  0  0  0  0  0  0  1 V2000
  145.5336  135.5210  151.3433 C   0  0  0  0  0  0  0  0  0  0  0  0
  146.0751  134.1626  151.7511 C   0  0  0  0  0  0  0  0  0  0  0  0
  147.3408  134.1933  152.3078 N   0  0  0  0  0  0  0  0  0  0  0  0
  147.8999  133.0124  152.7704 C   0  0  0  0  0  0  0  0  0  0  0  0
  149.5144  133.3519  153.5385 S   0  0  0  0  0  0  0  0  0  0  0  0
  149.2388  132.8850  155.2748 C   0  0  0  0  0  0  0  0  0  0  0  0
  149.6555  133.9925  156.2420 C   0  0  0  0  0  0  0  0  0  0  0  0
  149.9651  133.7135  157.3998 O   0  0  0  0  0  0  0  0  0  0  0  0
  149.6856  135.2392  155.7474 N   0  0  0  0  0  0  0  0  0  0  0  0
  150.1574  136.4284  156.4557 C   0  0  1  0  0  0  0  0  0  0  0  0
  151.4721  136.9477  155.8319 C   0  0  0  0  0  0  0  0  0  0  0  0
  151.2534  137.5493  154.4328 C   0  0  0  0  0  0  0  0  0  0  0  0
  150.1907  138.6567  154.4689 C   0  0  0  0  0  0  0  0  0  0  0  0
  148.8712  138.1476  155.0703 C   0  0  0  0  0  0  0  0  0  0  0  0
  149.0761  137.5377  156.4726 C   0  0  1  0  0  0  0  0  0  0  0  0
  147.7442  137.0628  157.0787 C   0  0  0  0  0  0  0  0  0  0  0  0
  147.3207  131.8530  152.6625 N   0  0  0  0  0  0  0  0  0  0  0  0
  146.0581  131.7504  152.0607 C   0  0  0  0  0  0  0  0  0  0  0  0
  145.5197  130.6529  151.9231 O   0  0  0  0  0  0  0  0  0  0  0  0
  145.3997  132.9960  151.6151 C   0  0  0  0  0  0  0  0  0  0  0  0
  143.9995  132.9033  151.0158 C   0  0  0  0  0  0  0  0  0  0  0  0
  144.0363  132.6407  149.5031 C   0  0  0  0  0  0  0  0  0  0  0  0
  142.8010  132.1072  149.0797 O   0  0  0  0  0  0  0  0  0  0  0  0
  144.5815  135.7141  151.8386 H   0  0  0  0  0  0  0  0  0  0  0  0
  145.3772  135.5598  150.2649 H   0  0  0  0  0  0  0  0  0  0  0  0
  146.2201  136.3253  151.6108 H   0  0  0  0  0  0  0  0  0  0  0  0
  149.8402  132.0000  155.4848 H   0  0  0  0  0  0  0  0  0  0  0  0
  148.1999  132.5963  155.4377 H   0  0  0  0  0  0  0  0  0  0  0  0
  149.4130  135.3675  154.7834 H   0  0  0  0  0  0  0  0  0  0  0  0
  150.3594  136.1472  157.4909 H   0  0  0  0  0  0  0  0  0  0  0  0
  151.8977  137.7115  156.4839 H   0  0  0  0  0  0  0  0  0  0  0  0
  152.2138  136.1498  155.7817 H   0  0  0  0  0  0  0  0  0  0  0  0
  152.1924  137.9495  154.0501 H   0  0  0  0  0  0  0  0  0  0  0  0
  150.9477  136.7688  153.7358 H   0  0  0  0  0  0  0  0  0  0  0  0
  150.5597  139.4966  155.0588 H   0  0  0  0  0  0  0  0  0  0  0  0
  150.0184  139.0383  153.4629 H   0  0  0  0  0  0  0  0  0  0  0  0
  148.1560  138.9691  155.1224 H   0  0  0  0  0  0  0  0  0  0  0  0
  148.4318  137.4036  154.4072 H   0  0  0  0  0  0  0  0  0  0  0  0
  149.4478  138.3349  157.1182 H   0  0  0  0  0  0  0  0  0  0  0  0
  147.2683  136.3001  156.4617 H   0  0  0  0  0  0  0  0  0  0  0  0
  147.0422  137.8914  157.1740 H   0  0  0  0  0  0  0  0  0  0  0  0
  147.8930  136.6422  158.0733 H   0  0  0  0  0  0  0  0  0  0  0  0
  147.7994  135.0887  152.3973 H   0  0  0  0  0  0  0  0  0  0  0  0
  143.4532  133.8243  151.2253 H   0  0  0  0  0  0  0  0  0  0  0  0
  143.4306  132.1142  151.5069 H   0  0  0  0  0  0  0  0  0  0  0  0
  144.2268  133.5627  148.9535 H   0  0  0  0  0  0  0  0  0  0  0  0
  144.8329  131.9395  149.2519 H   0  0  0  0  0  0  0  0  0  0  0  0
  142.1597  132.8013  149.0722 H   0  0  0  0  0  0  0  0  0  0  0  0
  1 24  1  0  0  0  0
  1 25  1  0  0  0  0
  1 26  1  0  0  0  0
  1  2  1  0  0  0  0
  2 20  2  0  0  0  0
  2  3  1  0  0  0  0
  3  4  1  0  0  0  0
  3 43  1  0  0  0  0
  4  5  1  0  0  0  0
  4 17  2  0  0  0  0
  5  6  1  0  0  0  0
  6  7  1  0  0  0  0
  6 27  1  0  0  0  0
  6 28  1  0  0  0  0
  7  8  2  0  0  0  0
  7  9  1  0  0  0  0
  9 10  1  0  0  0  0
  9 29  1  0  0  0  0
 10 15  1  0  0  0  0
 10 11  1  0  0  0  0
 10 30  1  0  0  0  0
 11 12  1  0  0  0  0
 11 31  1  0  0  0  0
 11 32  1  0  0  0  0
 12 13  1  0  0  0  0
 12 33  1  0  0  0  0
 12 34  1  0  0  0  0
 13 14  1  0  0  0  0
 13 35  1  0  0  0  0
 13 36  1  0  0  0  0
 14 15  1  0  0  0  0
 14 37  1  0  0  0  0
 14 38  1  0  0  0  0
 15 16  1  0  0  0  0
 15 39  1  0  0  0  0
 16 40  1  0  0  0  0
 16 41  1  0  0  0  0
 16 42  1  0  0  0  0
 17 18  1  0  0  0  0
 18 19  2  0  0  0  0
 18 20  1  0  0  0  0
 20 21  1  0  0  0  0
 21 22  1  0  0  0  0
 21 44  1  0  0  0  0
 21 45  1  0  0  0  0
 22 23  1  0  0  0  0
 22 46  1  0  0  0  0
 22 47  1  0  0  0  0
 23 48  1  0  0  0  0
M  END
> <s_m_source_file>
AV-unprocessed.smi

> <i_m_source_file_index>
438

> <i_lp_mmshare_version>
43012

> <i_f3d_flags>
0

> <s_epik_input>
W09IXVtDSDJdW0NIMl1jMWMoW09IXSluYyhuYzFbQ0gzXSlTW0NIMl1DKD1PKVtOSF1bQ0BASF0yW0NIMl1bQ0gyXVtDSDJdW0NIMl1bQ0BIXTJbQ0gzXQ==

> <s_epik_cmdline>
J2VwaWtfcHl0aG9uJywgJy1waCcsICc3LjAnLCAnLXRuJywgJzgnLCAnLW1hJywgJzIwMCcsICctbWV0YWxfYmluZGluZycsICctaW1hZScsICc8aW5maWxlLm1hZT4nLCAnLW9tYWUnLCAnPG91dGZpbGUubWFlPic=

> <r_lp_tautomer_probability>
0.273662

> <r_epik_Ionization_Penalty>
0.0875285

> <r_epik_Ionization_Penalty_Charging>
0.0875254

> <r_epik_Ionization_Penalty_Neutral>
3.01536e-06

> <r_epik_State_Penalty>
0.985796

> <r_epik_Charging_Adjusted_Penalty>
1.07332

> <i_epik_Tot_Q>
0

> <i_epik_Tot_abs_Q>
0

> <r_epik_Metal_State_Penalty>
1.58101

> <b_epik_Metal_Only>
0

> <s_lp_Force_Field>
OPLS_2005

> <r_lp_Energy>
13.0189

> <b_lp_Chiralities_Consistent>
1

> <s_lp_Variant>
AV-unprocessed.smi:438-6

> <Gold.Version>
5.8.1

> <Gold.Id.Protein>
6NUR|6NUR_protein|mol2

> <Gold.PLP.Fitness>
48.2306

> <Gold.PLP.PLP>
-38.7051

> <Gold.PLP.part.hbond>
-5.0000

> <Gold.PLP.part.metal>
0.0000

> <Gold.PLP.part.buried>
-6.9242

> <Gold.PLP.part.nonpolar>
-27.2504

> <Gold.PLP.part.repulsive>
0.4028

> <Gold.PLP.ligand.clash>
0.0000

> <Gold.PLP.ligand.torsion>
1.2270

> <Gold.PLP.Chemscore.Hbond>
3.9825

> <Gold.PLP.Chemscore.CHOScore>
0.0000

> <Gold.PLP.Chemscore.Metal>
0.0000

> <Gold.Chemscore.Hbonds>
donor molecule, donor type, donor heavy atom, donor atom, acceptor molecule, acceptor atom, score
      L1  H     3    43       P1  7948  0.98
      L1  H    23    48       P1 10186  1.00
      P1  H  6896  6907       L1     8  0.98
      P1  H 10785 10796       L1    23  1.00

> <Gold.PLP.Chemscore.Internal.Correction>
0.0320

> <Gold.Rescore>
     Score         DG    S(hbond)    S(metal)    S(lipo)     H(rot)  DE(clash)    DE(int)     intcor
     16.82     -18.15       3.48        0.00      71.74       2.86       0.00       1.33       ----

> <Gold.Chemscore.Fitness>
16.8210

> <Gold.Chemscore.DG>
-18.1485

> <Gold.Chemscore.ZeroCoef>
-5.4800

> <Gold.Chemscore.Hbond>
3.4756

> <Gold.Chemscore.Metal>
0.0000

> <Gold.Chemscore.Lipo>
71.7370

> <Gold.Chemscore.Internal_Hbond>
0.0000

> <Gold.Chemscore.DEClash>
0.0000

> <Gold.Chemscore.DEInternal>
1.3275

> <Gold.Chemscore.Rot>
2.8645

> <Gold.Chemscore.Internal.Correction>
   9.000000E+99

> <Gold.Chemscore.Hbonds>
donor molecule, donor type, donor heavy atom, donor atom, acceptor molecule, acceptor atom, score
      L1  H     3    43       P1  7948  0.89
      L1  H    23    48       P1 10186  0.93
      P1  H  6896  6907       L1     8  0.88
      P1  H 10785 10796       L1    23  0.47

> <Gold.Chemscore.Hbond.Weighted>
-11.6084

> <Gold.Chemscore.Metal.Weighted>
-0.0000

> <Gold.Chemscore.Lipo.Weighted>
-8.3932

> <Gold.Chemscore.Internal_Hbond.Weighted>
0.0000

> <Gold.Chemscore.DEClash.Weighted>
0.0000

> <Gold.Chemscore.DEInternal.Weighted>
1.3275

> <Gold.Chemscore.Rot.Weighted>
7.3331

> <Gold.Chemscore.Internal.Correction.Weighted>
   9.000000E+99

> <Gold.Protein.RotatedTorsions>
[ 6907 6896 6895 6894 ] final -127.69 input  -60.11 | X-H torsion
[ 7974 7965 7964 7962 ] final   98.53 input  175.53 | X-H torsion
[ 8008 7997 7996 7995 ] final  142.51 input   59.86 | X-H torsion
[ 10167 10162 10161 10158 ] final  -42.06 input  -65.29 | X-H torsion
[ 10718 10713 10712 10709 ] final -160.86 input   66.30 | X-H torsion
[ 10763 10752 10751 10750 ] final  -48.32 input  -60.55 | X-H torsion
[ 11005 11000 10999 10996 ] final  -50.21 input  -57.11 | X-H torsion

> <Gold.Protein.ActiveResidues>
 VAL166  LYS551  ARG553  GLY616  TRP617  ASP618  TYR619  PRO620  LYS621  CYS622 
 ASP623  PHE694  ASN695  SER759  ASP760  ASP761  ALA762  ILE779  LEU786  VAL792 
 PHE793  MET794  SER795  GLU796  ALA797  LYS798  CYS799  TRP800  GLU811  SER814 

> <Gold.Protein.RotatedAtoms>
  150.9100  133.7010  159.2856 H   0  0  0  0  0  0  0  0  0  0  0  0  # atno 6907 bound_to 6896
  151.4499  135.1027  159.9704 H   0  0  0  0  0  0  0  0  0  0  0  0  # atno 6908 bound_to 6896
  152.4924  133.8488  159.7246 H   0  0  0  0  0  0  0  0  0  0  0  0  # atno 6909 bound_to 6896
  145.4109  139.2334  143.3249 H   0  0  0  0  0  0  0  0  0  0  0  0  # atno 7974 bound_to 7965
  156.2948  140.2287  156.4740 H   0  0  0  0  0  0  0  0  0  0  0  0  # atno 8008 bound_to 7997
  154.7910  140.0454  157.1222 H   0  0  0  0  0  0  0  0  0  0  0  0  # atno 8009 bound_to 7997
  154.9645  140.3058  155.5019 H   0  0  0  0  0  0  0  0  0  0  0  0  # atno 8010 bound_to 7997
  140.6982  143.3059  151.3155 H   0  0  0  0  0  0  0  0  0  0  0  0  # atno 10167 bound_to 10162
  156.5881  130.8758  151.2882 H   0  0  0  0  0  0  0  0  0  0  0  0  # atno 10718 bound_to 10713
  154.0758  135.6598  153.4831 H   0  0  0  0  0  0  0  0  0  0  0  0  # atno 10763 bound_to 10752
  153.0374  135.5168  154.7522 H   0  0  0  0  0  0  0  0  0  0  0  0  # atno 10764 bound_to 10752
  154.6602  135.3014  154.9844 H   0  0  0  0  0  0  0  0  0  0  0  0  # atno 10765 bound_to 10752
  141.0803  133.6655  156.3698 H   0  0  0  0  0  0  0  0  0  0  0  0  # atno 11005 bound_to 11000
  146.2705  140.4820  142.8816 LP  0  0  0  0  0  0  0  0  0  0  0  0  # atno 17320 bound_to 7965
  144.8310  140.6706  143.6291 LP  0  0  0  0  0  0  0  0  0  0  0  0  # atno 17321 bound_to 7965
  139.6464  144.0442  152.2594 LP  0  0  0  0  0  0  0  0  0  0  0  0  # atno 17342 bound_to 10162
  139.9965  144.6324  150.7768 LP  0  0  0  0  0  0  0  0  0  0  0  0  # atno 17343 bound_to 10162
  157.7310  130.9694  150.1861 LP  0  0  0  0  0  0  0  0  0  0  0  0  # atno 17370 bound_to 10713
  156.2573  130.3707  149.8167 LP  0  0  0  0  0  0  0  0  0  0  0  0  # atno 17371 bound_to 10713
  140.5483  134.6053  157.5400 LP  0  0  0  0  0  0  0  0  0  0  0  0  # atno 17394 bound_to 11000
  139.9617  134.7442  156.0224 LP  0  0  0  0  0  0  0  0  0  0  0  0  # atno 17395 bound_to 11000

$$$$
