AV-unprocessed.smi:2784|AV-procd|sdf|10728|dock4
  -GOLD-   2272015163D 1   1.00000     0.00000
 Structure written by MMmdl.
 31 32  0  0  0  0  0  0  0  0  1 V2000
  148.6802  145.0682  160.4934 C   0  0  0  0  0  0  0  0  0  0  0  0
  149.4188  144.5800  159.3851 O   0  0  0  0  0  0  0  0  0  0  0  0
  150.6331  143.9275  159.7471 C   0  0  2  0  0  0  0  0  0  0  0  0
  151.5751  144.9502  160.3913 C   0  0  0  0  0  0  0  0  0  0  0  0
  152.2076  145.6726  159.2049 C   0  0  0  0  0  0  0  0  0  0  0  0
  152.3884  144.5890  158.1380 C   0  0  0  0  0  0  0  0  0  0  0  0
  151.3868  143.4675  158.4782 C   0  0  2  0  0  0  0  0  0  0  0  0
  150.4983  143.1879  157.3519 N   0  0  0  0  0  0  0  0  0  0  0  0
  150.4279  142.0144  156.7071 C   0  0  0  0  0  0  0  0  0  0  0  0
  151.1225  141.0389  156.9944 O   0  0  0  0  0  0  0  0  0  0  0  0
  149.5105  142.0505  155.7265 N   0  0  0  0  0  0  0  0  0  0  0  0
  149.1460  141.0009  154.8462 C   0  0  0  0  0  0  0  0  0  0  0  0
  149.9753  140.1654  154.2184 N   0  0  0  0  0  0  0  0  0  0  0  0
  149.1430  139.3318  153.4853 C   0  0  0  0  0  0  0  0  0  0  0  0
  147.8461  139.7142  153.7138 C   0  0  0  0  0  0  0  0  0  0  0  0
  147.8325  140.7752  154.5791 O   0  0  0  0  0  0  0  0  0  0  0  0
  147.7807  145.5705  160.1383 H   0  0  0  0  0  0  0  0  0  0  0  0
  149.2551  145.7847  161.0802 H   0  0  0  0  0  0  0  0  0  0  0  0
  148.3702  144.2510  161.1460 H   0  0  0  0  0  0  0  0  0  0  0  0
  150.4348  143.0770  160.4023 H   0  0  0  0  0  0  0  0  0  0  0  0
  151.0768  145.6326  161.0798 H   0  0  0  0  0  0  0  0  0  0  0  0
  152.3504  144.4268  160.9523 H   0  0  0  0  0  0  0  0  0  0  0  0
  151.5221  146.4375  158.8376 H   0  0  0  0  0  0  0  0  0  0  0  0
  153.1449  146.1650  159.4651 H   0  0  0  0  0  0  0  0  0  0  0  0
  152.2449  144.9998  157.1376 H   0  0  0  0  0  0  0  0  0  0  0  0
  153.4045  144.1944  158.1777 H   0  0  0  0  0  0  0  0  0  0  0  0
  151.9593  142.5678  158.7123 H   0  0  0  0  0  0  0  0  0  0  0  0
  149.8866  143.9347  157.0574 H   0  0  0  0  0  0  0  0  0  0  0  0
  149.0161  142.9207  155.5977 H   0  0  0  0  0  0  0  0  0  0  0  0
  149.5344  138.5397  152.8643 H   0  0  0  0  0  0  0  0  0  0  0  0
  146.8874  139.3608  153.3636 H   0  0  0  0  0  0  0  0  0  0  0  0
  1  2  1  0  0  0  0
  1 17  1  0  0  0  0
  1 18  1  0  0  0  0
  1 19  1  0  0  0  0
  2  3  1  0  0  0  0
  3  7  1  0  0  0  0
  3  4  1  0  0  0  0
  3 20  1  0  0  0  0
  4  5  1  0  0  0  0
  4 21  1  0  0  0  0
  4 22  1  0  0  0  0
  5  6  1  0  0  0  0
  5 23  1  0  0  0  0
  5 24  1  0  0  0  0
  6  7  1  0  0  0  0
  6 25  1  0  0  0  0
  6 26  1  0  0  0  0
  7  8  1  0  0  0  0
  7 27  1  0  0  0  0
  8  9  1  0  0  0  0
  8 28  1  0  0  0  0
  9 10  2  0  0  0  0
  9 11  1  0  0  0  0
 11 12  1  0  0  0  0
 11 29  1  0  0  0  0
 12 16  1  0  0  0  0
 12 13  2  0  0  0  0
 13 14  1  0  0  0  0
 14 15  2  0  0  0  0
 14 30  1  0  0  0  0
 15 16  1  0  0  0  0
 15 31  1  0  0  0  0
M  END
> <s_m_source_file>
AV-unprocessed.smi

> <i_m_source_file_index>
2784

> <i_lp_mmshare_version>
43012

> <i_f3d_flags>
0

> <s_epik_input>
W0NIM11PW0NAQEhdMVtDSDJdW0NIMl1bQ0gyXVtDQEhdMVtOSF1DKD1PKVtOSF1jMm5bY0hdW2NIXW8y

> <s_epik_cmdline>
J2VwaWtfcHl0aG9uJywgJy1waCcsICc3LjAnLCAnLXRuJywgJzgnLCAnLW1hJywgJzIwMCcsICctbWV0YWxfYmluZGluZycsICctaW1hZScsICc8aW5maWxlLm1hZT4nLCAnLW9tYWUnLCAnPG91dGZpbGUubWFlPic=

> <r_lp_tautomer_probability>
0.785861

> <r_epik_Ionization_Penalty>
4.58897e-05

> <r_epik_Ionization_Penalty_Charging>
0

> <r_epik_Ionization_Penalty_Neutral>
4.58897e-05

> <r_epik_State_Penalty>
0.0380021

> <r_epik_Charging_Adjusted_Penalty>
0.0380021

> <i_epik_Tot_Q>
0

> <i_epik_Tot_abs_Q>
0

> <r_epik_Metal_State_Penalty>
0.0585611

> <b_epik_Metal_Only>
0

> <s_lp_Force_Field>
OPLS_2005

> <r_lp_Energy>
20.0171

> <b_lp_Chiralities_Consistent>
1

> <s_lp_Variant>
AV-unprocessed.smi:2784-3

> <Gold.Version>
5.8.1

> <Gold.Id.Protein>
6NUR|6NUR_protein|mol2

> <Gold.PLP.Fitness>
40.7386

> <Gold.PLP.PLP>
-29.2066

> <Gold.PLP.part.hbond>
-3.0000

> <Gold.PLP.part.metal>
0.0000

> <Gold.PLP.part.buried>
-1.8129

> <Gold.PLP.part.nonpolar>
-25.7718

> <Gold.PLP.part.repulsive>
1.4387

> <Gold.PLP.ligand.clash>
0.0000

> <Gold.PLP.ligand.torsion>
0.3704

> <Gold.PLP.Chemscore.Hbond>
2.8720

> <Gold.PLP.Chemscore.CHOScore>
1.2152

> <Gold.PLP.Chemscore.Metal>
0.0000

> <Gold.Chemscore.Hbonds>
donor molecule, donor type, donor heavy atom, donor atom, acceptor molecule, acceptor atom, score
      L1  H     8    28       P1  8028  0.98
      L1  H    11    29       P1  8028  1.00
      P1  H  7989  7998       L1    13  0.93
      L1  C    14    30       P1  7948  0.98
      L1  C    14    30       P1  7957  0.18

> <Gold.PLP.Chemscore.Internal.Correction>
0.0111

> <Gold.Rescore>
     Score         DG    S(hbond)    S(metal)    S(lipo)     H(rot)  DE(clash)    DE(int)     intcor
     18.07     -20.10       2.66        0.00      78.06       1.32       1.64       0.39       ----

> <Gold.Chemscore.Fitness>
18.0718

> <Gold.Chemscore.DG>
-20.1026

> <Gold.Chemscore.ZeroCoef>
-5.4800

> <Gold.Chemscore.Hbond>
2.6581

> <Gold.Chemscore.Metal>
0.0000

> <Gold.Chemscore.Lipo>
78.0584

> <Gold.Chemscore.Internal_Hbond>
0.0000

> <Gold.Chemscore.DEClash>
1.6425

> <Gold.Chemscore.DEInternal>
0.3883

> <Gold.Chemscore.Rot>
1.3235

> <Gold.Chemscore.Internal.Correction>
   9.000000E+99

> <Gold.Chemscore.Hbonds>
donor molecule, donor type, donor heavy atom, donor atom, acceptor molecule, acceptor atom, score
      L1  H     8    28       P1  8028  0.85
      L1  H    11    29       P1  8028  0.98
      P1  H  7989  7998       L1    13  0.84

> <Gold.Chemscore.Hbond.Weighted>
-8.8780

> <Gold.Chemscore.Metal.Weighted>
-0.0000

> <Gold.Chemscore.Lipo.Weighted>
-9.1328

> <Gold.Chemscore.Internal_Hbond.Weighted>
0.0000

> <Gold.Chemscore.DEClash.Weighted>
1.6425

> <Gold.Chemscore.DEInternal.Weighted>
0.3883

> <Gold.Chemscore.Rot.Weighted>
3.3882

> <Gold.Chemscore.Internal.Correction.Weighted>
   9.000000E+99

> <Gold.Protein.RotatedTorsions>
[ 6907 6896 6895 6894 ] final  139.84 input  -60.11 | X-H torsion
[ 7974 7965 7964 7962 ] final    6.97 input  175.53 | X-H torsion
[ 8008 7997 7996 7995 ] final   39.67 input   59.86 | X-H torsion
[ 10167 10162 10161 10158 ] final -176.90 input  -65.29 | X-H torsion
[ 10718 10713 10712 10709 ] final  -17.28 input   66.30 | X-H torsion
[ 10763 10752 10751 10750 ] final -174.99 input  -60.55 | X-H torsion
[ 11005 11000 10999 10996 ] final    3.15 input  -57.11 | X-H torsion

> <Gold.Protein.ActiveResidues>
 VAL166  LYS551  ARG553  GLY616  TRP617  ASP618  TYR619  PRO620  LYS621  CYS622 
 ASP623  PHE694  ASN695  SER759  ASP760  ASP761  ALA762  ILE779  LEU786  VAL792 
 PHE793  MET794  SER795  GLU796  ALA797  LYS798  CYS799  TRP800  GLU811  SER814 

> <Gold.Protein.RotatedAtoms>
  152.2501  133.5208  159.5320 H   0  0  0  0  0  0  0  0  0  0  0  0  # atno 6907 bound_to 6896
  150.7091  134.0972  159.3961 H   0  0  0  0  0  0  0  0  0  0  0  0  # atno 6908 bound_to 6896
  151.8891  135.0423  160.0547 H   0  0  0  0  0  0  0  0  0  0  0  0  # atno 6909 bound_to 6896
  146.2430  140.0154  142.8403 H   0  0  0  0  0  0  0  0  0  0  0  0  # atno 7974 bound_to 7965
  155.2405  140.3345  155.4293 H   0  0  0  0  0  0  0  0  0  0  0  0  # atno 8008 bound_to 7997
  156.2258  140.1828  156.7412 H   0  0  0  0  0  0  0  0  0  0  0  0  # atno 8009 bound_to 7997
  154.5896  140.0640  156.9205 H   0  0  0  0  0  0  0  0  0  0  0  0  # atno 8010 bound_to 7997
  139.5506  144.2119  152.1070 H   0  0  0  0  0  0  0  0  0  0  0  0  # atno 10167 bound_to 10162
  156.5757  130.4761  149.6343 H   0  0  0  0  0  0  0  0  0  0  0  0  # atno 10718 bound_to 10713
  154.5898  135.2844  155.0648 H   0  0  0  0  0  0  0  0  0  0  0  0  # atno 10763 bound_to 10752
  154.1953  135.6434  153.5075 H   0  0  0  0  0  0  0  0  0  0  0  0  # atno 10764 bound_to 10752
  153.0117  135.5456  154.6579 H   0  0  0  0  0  0  0  0  0  0  0  0  # atno 10765 bound_to 10752
  140.5963  133.9877  155.8111 H   0  0  0  0  0  0  0  0  0  0  0  0  # atno 11005 bound_to 11000
  145.1290  140.9507  143.4556 LP  0  0  0  0  0  0  0  0  0  0  0  0  # atno 17320 bound_to 7965
  145.0406  139.3263  143.5978 LP  0  0  0  0  0  0  0  0  0  0  0  0  # atno 17321 bound_to 7965
  140.1613  144.5023  150.6631 LP  0  0  0  0  0  0  0  0  0  0  0  0  # atno 17342 bound_to 10162
  140.6768  143.2308  151.5487 LP  0  0  0  0  0  0  0  0  0  0  0  0  # atno 17343 bound_to 10162
  156.2675  130.6998  151.1786 LP  0  0  0  0  0  0  0  0  0  0  0  0  # atno 17370 bound_to 10713
  157.7338  131.0587  150.5558 LP  0  0  0  0  0  0  0  0  0  0  0  0  # atno 17371 bound_to 10713
  141.0902  133.9929  157.3250 LP  0  0  0  0  0  0  0  0  0  0  0  0  # atno 17394 bound_to 11000
  139.9252  135.0201  156.8207 LP  0  0  0  0  0  0  0  0  0  0  0  0  # atno 17395 bound_to 11000

$$$$
