AV-unprocessed.smi:1672|AV-procd|sdf|6708|dock9
  -GOLD-   22720 7453D 1   1.00000     0.00000
 Structure written by MMmdl.
 49 51  0  0  0  0  0  0  0  0  3 V2000
  144.7330  133.3491  150.6869 C   0  0  0  0  0  0  0  0  0  0  0  0
  146.1945  133.8105  150.8232 C   0  0  2  0  0  0  0  0  0  0  0  0
  146.5609  134.2138  152.2631 C   0  0  0  0  0  0  0  0  0  0  0  0
  145.9510  135.5694  152.6618 C   0  0  0  0  0  0  0  0  0  0  0  0
  146.3464  136.6379  151.7061 N   0  3  2  0  0  0  0  0  0  0  0  0
  145.8871  137.9909  152.1131 C   0  0  0  0  0  0  0  0  0  0  0  0
  146.8373  138.6660  153.1253 C   0  0  1  0  0  0  0  0  0  0  0  0
  147.8476  137.7475  153.4878 O   0  0  0  0  0  0  0  0  0  0  0  0
  147.5327  139.9287  152.5743 C   0  0  0  0  0  0  0  0  0  0  0  0
  148.0275  140.8317  153.6259 N   0  0  0  0  0  0  0  0  0  0  0  0
  147.4930  141.9776  154.1441 C   0  0  0  0  0  0  0  0  0  0  0  0
  146.2085  142.6361  153.7574 C   0  0  0  0  0  0  0  0  0  0  0  0
  145.0804  141.9773  154.2888 O   0  0  0  0  0  0  0  0  0  0  0  0
  148.3534  142.4257  155.1013 N   0  3  0  0  0  0  0  0  0  0  0  0
  149.4556  141.5745  155.1848 C   0  0  0  0  0  0  0  0  0  0  0  0
  150.5845  141.6219  155.9972 C   0  0  0  0  0  0  0  0  0  0  0  0
  151.5338  140.5937  155.8220 C   0  0  0  0  0  0  0  0  0  0  0  0
  151.3424  139.5725  154.8688 C   0  0  0  0  0  0  0  0  0  0  0  0
  150.1928  139.5342  154.0522 C   0  0  0  0  0  0  0  0  0  0  0  0
  149.2572  140.5527  154.2342 C   0  0  0  0  0  0  0  0  0  0  0  0
  145.9419  136.3036  150.3163 C   0  0  0  0  0  0  0  0  0  0  0  0
  146.5480  134.9625  149.8650 C   0  0  0  0  0  0  0  0  0  0  0  0
  144.0253  134.1425  150.9250 H   0  0  0  0  0  0  0  0  0  0  0  0
  144.5249  132.5111  151.3529 H   0  0  0  0  0  0  0  0  0  0  0  0
  144.5233  133.0162  149.6701 H   0  0  0  0  0  0  0  0  0  0  0  0
  146.8142  132.9542  150.5534 H   0  0  0  0  0  0  0  0  0  0  0  0
  146.2461  133.4398  152.9640 H   0  0  0  0  0  0  0  0  0  0  0  0
  147.6467  134.2757  152.3509 H   0  0  0  0  0  0  0  0  0  0  0  0
  144.8633  135.4996  152.7045 H   0  0  0  0  0  0  0  0  0  0  0  0
  146.2845  135.8172  153.6684 H   0  0  0  0  0  0  0  0  0  0  0  0
  145.8118  138.6344  151.2351 H   0  0  0  0  0  0  0  0  0  0  0  0
  144.8780  137.9078  152.5179 H   0  0  0  0  0  0  0  0  0  0  0  0
  146.2951  138.9334  154.0308 H   0  0  0  0  0  0  0  0  0  0  0  0
  148.3417  137.5175  152.7153 H   0  0  0  0  0  0  0  0  0  0  0  0
  148.3747  139.6611  151.9341 H   0  0  0  0  0  0  0  0  0  0  0  0
  146.8419  140.4936  151.9481 H   0  0  0  0  0  0  0  0  0  0  0  0
  146.2111  143.6671  154.1127 H   0  0  0  0  0  0  0  0  0  0  0  0
  146.1259  142.6759  152.6713 H   0  0  0  0  0  0  0  0  0  0  0  0
  144.6831  141.4629  153.6021 H   0  0  0  0  0  0  0  0  0  0  0  0
  150.7358  142.4055  156.7252 H   0  0  0  0  0  0  0  0  0  0  0  0
  152.4280  140.5897  156.4286 H   0  0  0  0  0  0  0  0  0  0  0  0
  152.0940  138.8037  154.7605 H   0  0  0  0  0  0  0  0  0  0  0  0
  150.0594  138.7491  153.3225 H   0  0  0  0  0  0  0  0  0  0  0  0
  144.8535  136.2770  150.2473 H   0  0  0  0  0  0  0  0  0  0  0  0
  146.2792  137.0882  149.6378 H   0  0  0  0  0  0  0  0  0  0  0  0
  147.6329  135.0653  149.8158 H   0  0  0  0  0  0  0  0  0  0  0  0
  146.2218  134.7257  148.8517 H   0  0  0  0  0  0  0  0  0  0  0  0
  147.3562  136.6727  151.7027 H   0  0  0  0  0  0  0  0  0  0  0  0
  148.1975  143.2599  155.6528 H   0  0  0  0  0  0  0  0  0  0  0  0
  1  2  1  0  0  0  0
  1 23  1  0  0  0  0
  1 24  1  0  0  0  0
  1 25  1  0  0  0  0
  2 22  1  0  0  0  0
  2  3  1  0  0  0  0
  2 26  1  0  0  0  0
  3  4  1  0  0  0  0
  3 27  1  0  0  0  0
  3 28  1  0  0  0  0
  4  5  1  0  0  0  0
  4 29  1  0  0  0  0
  4 30  1  0  0  0  0
  5  6  1  0  0  0  0
  5 21  1  0  0  0  0
  5 48  1  0  0  0  0
  6  7  1  0  0  0  0
  6 31  1  0  0  0  0
  6 32  1  0  0  0  0
  7  8  1  0  0  0  0
  7  9  1  0  0  0  0
  7 33  1  0  0  0  0
  8 34  1  0  0  0  0
  9 10  1  0  0  0  0
  9 35  1  0  0  0  0
  9 36  1  0  0  0  0
 10 20  1  0  0  0  0
 10 11  1  0  0  0  0
 11 12  1  0  0  0  0
 11 14  2  0  0  0  0
 12 13  1  0  0  0  0
 12 37  1  0  0  0  0
 12 38  1  0  0  0  0
 13 39  1  0  0  0  0
 14 15  1  0  0  0  0
 14 49  1  0  0  0  0
 15 20  2  0  0  0  0
 15 16  1  0  0  0  0
 16 17  2  0  0  0  0
 16 40  1  0  0  0  0
 17 18  1  0  0  0  0
 17 41  1  0  0  0  0
 18 19  2  0  0  0  0
 18 42  1  0  0  0  0
 19 20  1  0  0  0  0
 19 43  1  0  0  0  0
 21 22  1  0  0  0  0
 21 44  1  0  0  0  0
 21 45  1  0  0  0  0
 22 46  1  0  0  0  0
 22 47  1  0  0  0  0
M  CHG  1   5   1
M  CHG  1  14   1
M  END
> <s_m_source_file>
AV-unprocessed.smi

> <i_m_source_file_index>
1672

> <i_lp_mmshare_version>
43012

> <i_f3d_flags>
0

> <s_epik_input>
W0NIM11bQ0hdMVtDSDJdW0NIMl1OKFtDSDJdW0NIMl0xKVtDSDJdW0NASF0oW09IXSlbQ0gyXW4oYyhuMilbQ0gyXVtPSF0pYyhjMjMpW2NIXVtjSF1bY0hdW2NIXTM=

> <s_epik_cmdline>
J2VwaWtfcHl0aG9uJywgJy1waCcsICc3LjAnLCAnLXRuJywgJzgnLCAnLW1hJywgJzIwMCcsICctbWV0YWxfYmluZGluZycsICctaW1hZScsICc8aW5maWxlLm1hZT4nLCAnLW9tYWUnLCAnPG91dGZpbGUubWFlPic=

> <r_epik_Ionization_Penalty>
1.51642

> <r_epik_Ionization_Penalty_Charging>
1.51557

> <r_epik_Ionization_Penalty_Neutral>
0.000856474

> <r_epik_State_Penalty>
1.6048

> <r_epik_Charging_Adjusted_Penalty>
3.12037

> <i_epik_Tot_Q>
2

> <i_epik_Tot_abs_Q>
2

> <r_epik_Metal_State_Penalty>
5.65673

> <b_epik_Metal_Only>
0

> <s_lp_Force_Field>
OPLS_2005

> <r_lp_Energy>
31.8272

> <b_lp_Chiralities_Consistent>
1

> <s_lp_Variant>
AV-unprocessed.smi:1672-8

> <Gold.Version>
5.8.1

> <Gold.Id.Protein>
6NUR|6NUR_protein|mol2

> <Gold.PLP.Fitness>
58.7895

> <Gold.PLP.PLP>
-44.3228

> <Gold.PLP.part.hbond>
-3.9015

> <Gold.PLP.part.metal>
0.0000

> <Gold.PLP.part.buried>
-1.7636

> <Gold.PLP.part.nonpolar>
-38.3460

> <Gold.PLP.part.repulsive>
0.1988

> <Gold.PLP.ligand.clash>
0.0000

> <Gold.PLP.ligand.torsion>
1.7787

> <Gold.PLP.Chemscore.Hbond>
6.0000

> <Gold.PLP.Chemscore.CHOScore>
0.0000

> <Gold.PLP.Chemscore.Metal>
0.0000

> <Gold.Chemscore.Hbonds>
donor molecule, donor type, donor heavy atom, donor atom, acceptor molecule, acceptor atom, score
      L1  H     5    48       P1  7948  2.00
      L1  H     8    34       P1  7948  0.90
      L1  H    13    39       P1 10175  0.75
      L1  H    14    49       P1  8028  1.34

> <Gold.PLP.Chemscore.Internal.Correction>
0.0241

> <Gold.Rescore>
     Score         DG    S(hbond)    S(metal)    S(lipo)     H(rot)  DE(clash)    DE(int)     intcor
     17.98     -22.14       3.83        0.00      97.65       2.96       1.40       2.76       ----

> <Gold.Chemscore.Fitness>
17.9803

> <Gold.Chemscore.DG>
-22.1369

> <Gold.Chemscore.ZeroCoef>
-5.4800

> <Gold.Chemscore.Hbond>
3.8316

> <Gold.Chemscore.Metal>
0.0000

> <Gold.Chemscore.Lipo>
97.6527

> <Gold.Chemscore.Internal_Hbond>
0.0000

> <Gold.Chemscore.DEClash>
1.3952

> <Gold.Chemscore.DEInternal>
2.7615

> <Gold.Chemscore.Rot>
2.9555

> <Gold.Chemscore.Internal.Correction>
   9.000000E+99

> <Gold.Chemscore.Hbonds>
donor molecule, donor type, donor heavy atom, donor atom, acceptor molecule, acceptor atom, score
      L1  H     5    48       P1  7948  0.99
      L1  H     8    34       P1  7948  0.88
      L1  H    13    39       P1 10175  0.09
      L1  H    14    49       P1  8028  0.57

> <Gold.Chemscore.Hbond.Weighted>
-12.7976

> <Gold.Chemscore.Metal.Weighted>
-0.0000

> <Gold.Chemscore.Lipo.Weighted>
-11.4254

> <Gold.Chemscore.Internal_Hbond.Weighted>
0.0000

> <Gold.Chemscore.DEClash.Weighted>
1.3952

> <Gold.Chemscore.DEInternal.Weighted>
2.7615

> <Gold.Chemscore.Rot.Weighted>
7.5660

> <Gold.Chemscore.Internal.Correction.Weighted>
   9.000000E+99

> <Gold.Protein.RotatedTorsions>
[ 6907 6896 6895 6894 ] final    0.01 input  -60.11 | X-H torsion
[ 7974 7965 7964 7962 ] final   67.65 input  175.53 | X-H torsion
[ 8008 7997 7996 7995 ] final -145.05 input   59.86 | X-H torsion
[ 10167 10162 10161 10158 ] final  -21.32 input  -65.29 | X-H torsion
[ 10718 10713 10712 10709 ] final  -53.96 input   66.30 | X-H torsion
[ 10763 10752 10751 10750 ] final   10.20 input  -60.55 | X-H torsion
[ 11005 11000 10999 10996 ] final  -92.17 input  -57.11 | X-H torsion

> <Gold.Protein.ActiveResidues>
 VAL166  LYS551  ARG553  GLY616  TRP617  ASP618  TYR619  PRO620  LYS621  CYS622 
 ASP623  PHE694  ASN695  SER759  ASP760  ASP761  ALA762  ILE779  LEU786  VAL792 
 PHE793  MET794  SER795  GLU796  ALA797  LYS798  CYS799  TRP800  GLU811  SER814 

> <Gold.Protein.RotatedAtoms>
  151.5695  135.1063  159.9991 H   0  0  0  0  0  0  0  0  0  0  0  0  # atno 6907 bound_to 6896
  152.4407  133.7439  159.6667 H   0  0  0  0  0  0  0  0  0  0  0  0  # atno 6908 bound_to 6896
  150.8313  133.8018  159.3121 H   0  0  0  0  0  0  0  0  0  0  0  0  # atno 6909 bound_to 6896
  145.8121  139.3038  143.1093 H   0  0  0  0  0  0  0  0  0  0  0  0  # atno 7974 bound_to 7965
  155.5369  140.0604  157.2878 H   0  0  0  0  0  0  0  0  0  0  0  0  # atno 8008 bound_to 7997
  154.4465  140.1926  156.0595 H   0  0  0  0  0  0  0  0  0  0  0  0  # atno 8009 bound_to 7997
  156.0612  140.3272  155.7468 H   0  0  0  0  0  0  0  0  0  0  0  0  # atno 8010 bound_to 7997
  140.7281  143.4639  151.0341 H   0  0  0  0  0  0  0  0  0  0  0  0  # atno 10167 bound_to 10162
  156.1490  130.4152  149.9975 H   0  0  0  0  0  0  0  0  0  0  0  0  # atno 10718 bound_to 10713
  153.2057  135.6862  153.8175 H   0  0  0  0  0  0  0  0  0  0  0  0  # atno 10763 bound_to 10752
  153.7426  135.3236  155.3308 H   0  0  0  0  0  0  0  0  0  0  0  0  # atno 10764 bound_to 10752
  154.8196  135.4662  154.0843 H   0  0  0  0  0  0  0  0  0  0  0  0  # atno 10765 bound_to 10752
  141.1528  133.7803  156.9982 H   0  0  0  0  0  0  0  0  0  0  0  0  # atno 11005 bound_to 11000
  145.9766  140.8717  143.0136 LP  0  0  0  0  0  0  0  0  0  0  0  0  # atno 17320 bound_to 7965
  144.6756  140.2020  143.7386 LP  0  0  0  0  0  0  0  0  0  0  0  0  # atno 17321 bound_to 7965
  139.8326  143.7671  152.3180 LP  0  0  0  0  0  0  0  0  0  0  0  0  # atno 17342 bound_to 10162
  139.7792  144.7450  151.0113 LP  0  0  0  0  0  0  0  0  0  0  0  0  # atno 17343 bound_to 10162
  156.7839  130.9231  151.3646 LP  0  0  0  0  0  0  0  0  0  0  0  0  # atno 17370 bound_to 10713
  157.6641  130.8992  149.9894 LP  0  0  0  0  0  0  0  0  0  0  0  0  # atno 17371 bound_to 10713
  140.0958  134.9565  157.1846 LP  0  0  0  0  0  0  0  0  0  0  0  0  # atno 17394 bound_to 11000
  140.3385  134.2730  155.7216 LP  0  0  0  0  0  0  0  0  0  0  0  0  # atno 17395 bound_to 11000

$$$$
