AV-unprocessed.smi:2440|AV-procd|sdf|9616|dock2
  -GOLD-   2272013253D 1   1.00000     0.00000
 Structure written by MMmdl.
 52 54  0  0  0  0  0  0  0  0  2 V2000
  152.2510  144.1740  159.4351 C   0  0  0  0  0  0  0  0  0  0  0  0
  152.6584  142.7172  159.5714 C   0  0  0  0  0  0  0  0  0  0  0  0
  153.6890  142.3545  160.4655 C   0  0  0  0  0  0  0  0  0  0  0  0
  154.1109  141.0856  160.6428 N   0  0  0  0  0  0  0  0  0  0  0  0
  153.5124  140.1174  159.9192 C   0  0  0  0  0  0  0  0  0  0  0  0
  152.4746  140.3654  159.0000 C   0  0  0  0  0  0  0  0  0  0  0  0
  152.0221  141.6956  158.8254 C   0  0  0  0  0  0  0  0  0  0  0  0
  150.9974  142.0538  157.9042 N   0  0  0  0  0  0  0  0  0  0  0  0
  150.1226  141.2540  157.2701 C   0  0  0  0  0  0  0  0  0  0  0  0
  150.0400  140.0343  157.4138 O   0  0  0  0  0  0  0  0  0  0  0  0
  149.3205  141.9621  156.4611 N   0  0  0  0  0  0  0  0  0  0  0  0
  148.2527  141.4163  155.6268 C   0  0  2  0  0  0  0  0  0  0  0  0
  148.0997  142.2650  154.3513 C   0  0  0  0  0  0  0  0  0  0  0  0
  146.8753  141.8149  153.5314 C   0  0  0  0  0  0  0  0  0  0  0  0
  145.6190  141.8789  154.3331 N   0  3  2  0  0  0  0  0  0  0  0  0
  145.1126  143.2628  154.6364 C   0  0  0  0  0  0  0  0  0  0  0  0
  143.7063  143.2321  155.2946 C   0  0  0  0  0  0  0  0  0  0  0  0
  143.1346  144.6349  155.5538 C   0  0  0  0  0  0  0  0  0  0  0  0
  143.0832  145.4643  154.2678 C   0  0  0  0  0  0  0  0  0  0  0  0
  144.4764  145.5519  153.6389 C   0  0  0  0  0  0  0  0  0  0  0  0
  145.0584  144.1558  153.3667 C   0  0  0  0  0  0  0  0  0  0  0  0
  145.7522  140.9732  155.5111 C   0  0  0  0  0  0  0  0  0  0  0  0
  146.9315  141.3782  156.4173 C   0  0  0  0  0  0  0  0  0  0  0  0
  152.8429  144.8146  160.0897 H   0  0  0  0  0  0  0  0  0  0  0  0
  151.2008  144.3014  159.6993 H   0  0  0  0  0  0  0  0  0  0  0  0
  152.3939  144.5164  158.4099 H   0  0  0  0  0  0  0  0  0  0  0  0
  154.1939  143.1043  161.0568 H   0  0  0  0  0  0  0  0  0  0  0  0
  153.8767  139.1120  160.0710 H   0  0  0  0  0  0  0  0  0  0  0  0
  152.0605  139.5396  158.4424 H   0  0  0  0  0  0  0  0  0  0  0  0
  150.8807  143.0452  157.7558 H   0  0  0  0  0  0  0  0  0  0  0  0
  149.4617  142.9608  156.4181 H   0  0  0  0  0  0  0  0  0  0  0  0
  148.4908  140.3962  155.3197 H   0  0  0  0  0  0  0  0  0  0  0  0
  148.0096  143.3214  154.6066 H   0  0  0  0  0  0  0  0  0  0  0  0
  148.9999  142.1769  153.7416 H   0  0  0  0  0  0  0  0  0  0  0  0
  146.8014  142.3687  152.5982 H   0  0  0  0  0  0  0  0  0  0  0  0
  147.0245  140.7804  153.2190 H   0  0  0  0  0  0  0  0  0  0  0  0
  145.7962  143.7369  155.3407 H   0  0  0  0  0  0  0  0  0  0  0  0
  143.0159  142.6708  154.6635 H   0  0  0  0  0  0  0  0  0  0  0  0
  143.7333  142.7256  156.2577 H   0  0  0  0  0  0  0  0  0  0  0  0
  142.1347  144.5545  155.9815 H   0  0  0  0  0  0  0  0  0  0  0  0
  143.7471  145.1485  156.2959 H   0  0  0  0  0  0  0  0  0  0  0  0
  142.3847  145.0128  153.5621 H   0  0  0  0  0  0  0  0  0  0  0  0
  142.7062  146.4647  154.4825 H   0  0  0  0  0  0  0  0  0  0  0  0
  144.4271  146.1206  152.7096 H   0  0  0  0  0  0  0  0  0  0  0  0
  145.1434  146.1033  154.3029 H   0  0  0  0  0  0  0  0  0  0  0  0
  146.0536  144.3110  152.9533 H   0  0  0  0  0  0  0  0  0  0  0  0
  144.4687  143.6622  152.5928 H   0  0  0  0  0  0  0  0  0  0  0  0
  144.8296  140.8954  156.0816 H   0  0  0  0  0  0  0  0  0  0  0  0
  145.9269  139.9619  155.1410 H   0  0  0  0  0  0  0  0  0  0  0  0
  147.0175  140.6699  157.2424 H   0  0  0  0  0  0  0  0  0  0  0  0
  146.7343  142.3491  156.8733 H   0  0  0  0  0  0  0  0  0  0  0  0
  144.9052  141.4646  153.7505 H   0  0  0  0  0  0  0  0  0  0  0  0
  1  2  1  0  0  0  0
  1 24  1  0  0  0  0
  1 25  1  0  0  0  0
  1 26  1  0  0  0  0
  2  7  1  0  0  0  0
  2  3  2  0  0  0  0
  3  4  1  0  0  0  0
  3 27  1  0  0  0  0
  4  5  2  0  0  0  0
  5  6  1  0  0  0  0
  5 28  1  0  0  0  0
  6  7  2  0  0  0  0
  6 29  1  0  0  0  0
  7  8  1  0  0  0  0
  8  9  1  0  0  0  0
  8 30  1  0  0  0  0
  9 10  2  0  0  0  0
  9 11  1  0  0  0  0
 11 12  1  0  0  0  0
 11 31  1  0  0  0  0
 12 23  1  0  0  0  0
 12 13  1  0  0  0  0
 12 32  1  0  0  0  0
 13 14  1  0  0  0  0
 13 33  1  0  0  0  0
 13 34  1  0  0  0  0
 14 15  1  0  0  0  0
 14 35  1  0  0  0  0
 14 36  1  0  0  0  0
 15 16  1  0  0  0  0
 15 22  1  0  0  0  0
 15 52  1  0  0  0  0
 16 21  1  0  0  0  0
 16 17  1  0  0  0  0
 16 37  1  0  0  0  0
 17 18  1  0  0  0  0
 17 38  1  0  0  0  0
 17 39  1  0  0  0  0
 18 19  1  0  0  0  0
 18 40  1  0  0  0  0
 18 41  1  0  0  0  0
 19 20  1  0  0  0  0
 19 42  1  0  0  0  0
 19 43  1  0  0  0  0
 20 21  1  0  0  0  0
 20 44  1  0  0  0  0
 20 45  1  0  0  0  0
 21 46  1  0  0  0  0
 21 47  1  0  0  0  0
 22 23  1  0  0  0  0
 22 48  1  0  0  0  0
 22 49  1  0  0  0  0
 23 50  1  0  0  0  0
 23 51  1  0  0  0  0
M  CHG  1  15   1
M  END
> <s_m_source_file>
AV-unprocessed.smi

> <i_m_source_file_index>
2440

> <i_lp_mmshare_version>
43012

> <i_f3d_flags>
0

> <s_epik_input>
W0NIM11jMVtjSF1uW2NIXVtjSF1jMVtOSF1DKD1PKVtOSF1bQ0hdMltDSDJdW0NIMl1OKFtDSDJdW0NIMl0yKVtDSF0zW0NIMl1bQ0gyXVtDSDJdW0NIMl1bQ0gyXTM=

> <s_epik_cmdline>
J2VwaWtfcHl0aG9uJywgJy1waCcsICc3LjAnLCAnLXRuJywgJzgnLCAnLW1hJywgJzIwMCcsICctbWV0YWxfYmluZGluZycsICctaW1hZScsICc8aW5maWxlLm1hZT4nLCAnLW9tYWUnLCAnPG91dGZpbGUubWFlPic=

> <r_epik_Ionization_Penalty>
0.180356

> <r_epik_Ionization_Penalty_Charging>
0.00171891

> <r_epik_Ionization_Penalty_Neutral>
0.178637

> <r_epik_State_Penalty>
0.173134

> <r_epik_Charging_Adjusted_Penalty>
0.174853

> <i_epik_Tot_Q>
1

> <i_epik_Tot_abs_Q>
1

> <r_epik_Metal_State_Penalty>
0.131816

> <b_epik_Metal_Only>
0

> <s_lp_Force_Field>
OPLS_2005

> <r_lp_Energy>
36.8114

> <b_lp_Chiralities_Consistent>
1

> <s_lp_Variant>
AV-unprocessed.smi:2440-2

> <Gold.Version>
5.8.1

> <Gold.Id.Protein>
6NUR|6NUR_protein|mol2

> <Gold.PLP.Fitness>
49.6862

> <Gold.PLP.PLP>
-41.6389

> <Gold.PLP.part.hbond>
-2.0000

> <Gold.PLP.part.metal>
0.0000

> <Gold.PLP.part.buried>
-3.9283

> <Gold.PLP.part.nonpolar>
-36.5524

> <Gold.PLP.part.repulsive>
0.0854

> <Gold.PLP.ligand.clash>
0.0000

> <Gold.PLP.ligand.torsion>
0.4628

> <Gold.PLP.Chemscore.Hbond>
2.9760

> <Gold.PLP.Chemscore.CHOScore>
0.0000

> <Gold.PLP.Chemscore.Metal>
0.0000

> <Gold.Chemscore.Hbonds>
donor molecule, donor type, donor heavy atom, donor atom, acceptor molecule, acceptor atom, score
      L1  H    11    31       P1  8028  0.96
      L1  H    15    52       P1 10175  1.90

> <Gold.PLP.Chemscore.Internal.Correction>
0.0449

> <Gold.Rescore>
     Score         DG    S(hbond)    S(metal)    S(lipo)     H(rot)  DE(clash)    DE(int)     intcor
     19.28     -22.48       1.75        0.00     121.02       1.17       1.53       1.67       ----

> <Gold.Chemscore.Fitness>
19.2776

> <Gold.Chemscore.DG>
-22.4772

> <Gold.Chemscore.ZeroCoef>
-5.4800

> <Gold.Chemscore.Hbond>
1.7476

> <Gold.Chemscore.Metal>
0.0000

> <Gold.Chemscore.Lipo>
121.0189

> <Gold.Chemscore.Internal_Hbond>
0.0000

> <Gold.Chemscore.DEClash>
1.5294

> <Gold.Chemscore.DEInternal>
1.6702

> <Gold.Chemscore.Rot>
1.1715

> <Gold.Chemscore.Internal.Correction>
   9.000000E+99

> <Gold.Chemscore.Hbonds>
donor molecule, donor type, donor heavy atom, donor atom, acceptor molecule, acceptor atom, score
      L1  H    11    31       P1  8028  0.89
      L1  H    15    52       P1 10175  0.21

> <Gold.Chemscore.Hbond.Weighted>
-5.8371

> <Gold.Chemscore.Metal.Weighted>
-0.0000

> <Gold.Chemscore.Lipo.Weighted>
-14.1592

> <Gold.Chemscore.Internal_Hbond.Weighted>
0.0000

> <Gold.Chemscore.DEClash.Weighted>
1.5294

> <Gold.Chemscore.DEInternal.Weighted>
1.6702

> <Gold.Chemscore.Rot.Weighted>
2.9991

> <Gold.Chemscore.Internal.Correction.Weighted>
   9.000000E+99

> <Gold.Protein.RotatedTorsions>
[ 6907 6896 6895 6894 ] final  159.41 input  -60.11 | X-H torsion
[ 7974 7965 7964 7962 ] final  -11.34 input  175.53 | X-H torsion
[ 8008 7997 7996 7995 ] final  -86.71 input   59.86 | X-H torsion
[ 10167 10162 10161 10158 ] final  115.04 input  -65.29 | X-H torsion
[ 10718 10713 10712 10709 ] final  168.63 input   66.30 | X-H torsion
[ 10763 10752 10751 10750 ] final -102.98 input  -60.55 | X-H torsion
[ 11005 11000 10999 10996 ] final   48.32 input  -57.11 | X-H torsion

> <Gold.Protein.ActiveResidues>
 VAL166  LYS551  ARG553  GLY616  TRP617  ASP618  TYR619  PRO620  LYS621  CYS622 
 ASP623  PHE694  ASN695  SER759  ASP760  ASP761  ALA762  ILE779  LEU786  VAL792 
 PHE793  MET794  SER795  GLU796  ALA797  LYS798  CYS799  TRP800  GLU811  SER814 

> <Gold.Protein.RotatedAtoms>
  151.9860  133.3774  159.4125 H   0  0  0  0  0  0  0  0  0  0  0  0  # atno 6907 bound_to 6896
  150.6928  134.3988  159.5119 H   0  0  0  0  0  0  0  0  0  0  0  0  # atno 6908 bound_to 6896
  152.1714  134.8831  160.0585 H   0  0  0  0  0  0  0  0  0  0  0  0  # atno 6909 bound_to 6896
  146.2191  140.2896  142.8367 H   0  0  0  0  0  0  0  0  0  0  0  0  # atno 7974 bound_to 7965
  154.6550  140.0575  156.9998 H   0  0  0  0  0  0  0  0  0  0  0  0  # atno 8008 bound_to 7997
  155.1314  140.3257  155.4454 H   0  0  0  0  0  0  0  0  0  0  0  0  # atno 8009 bound_to 7997
  156.2593  140.1980  156.6433 H   0  0  0  0  0  0  0  0  0  0  0  0  # atno 8010 bound_to 7997
  139.6345  144.7118  151.2362 H   0  0  0  0  0  0  0  0  0  0  0  0  # atno 10167 bound_to 10162
  157.0343  131.0268  151.2734 H   0  0  0  0  0  0  0  0  0  0  0  0  # atno 10718 bound_to 10713
  154.7774  135.4840  153.9772 H   0  0  0  0  0  0  0  0  0  0  0  0  # atno 10763 bound_to 10752
  153.1447  135.6779  153.8981 H   0  0  0  0  0  0  0  0  0  0  0  0  # atno 10764 bound_to 10752
  153.8644  135.3151  155.3417 H   0  0  0  0  0  0  0  0  0  0  0  0  # atno 10765 bound_to 10752
  140.1201  134.4840  155.8604 H   0  0  0  0  0  0  0  0  0  0  0  0  # atno 11005 bound_to 11000
  144.9136  140.7787  143.5792 LP  0  0  0  0  0  0  0  0  0  0  0  0  # atno 17320 bound_to 7965
  145.2828  139.1912  143.4781 LP  0  0  0  0  0  0  0  0  0  0  0  0  # atno 17321 bound_to 7965
  140.7458  143.6420  150.8326 LP  0  0  0  0  0  0  0  0  0  0  0  0  # atno 17342 bound_to 10162
  140.0049  143.5704  152.2861 LP  0  0  0  0  0  0  0  0  0  0  0  0  # atno 17343 bound_to 10162
  157.5153  130.7964  149.7750 LP  0  0  0  0  0  0  0  0  0  0  0  0  # atno 17370 bound_to 10713
  156.0059  130.3856  150.2434 LP  0  0  0  0  0  0  0  0  0  0  0  0  # atno 17371 bound_to 10713
  141.2150  133.6757  156.6873 LP  0  0  0  0  0  0  0  0  0  0  0  0  # atno 17394 bound_to 11000
  140.2976  134.8190  157.4070 LP  0  0  0  0  0  0  0  0  0  0  0  0  # atno 17395 bound_to 11000

$$$$
