AV-unprocessed.smi:933|AV-procd|sdf|4204|dock4
  -GOLD-   22720 2113D 1   1.00000     0.00000
 Structure written by MMmdl.
 42 43  0  0  0  0  0  0  0  0  1 V2000
  144.7200  145.9782  156.1316 C   0  0  0  0  0  0  0  0  0  0  0  0
  144.4150  144.4782  156.1976 C   0  0  0  0  0  0  0  0  0  0  0  0
  145.3445  143.6654  155.3599 C   0  0  0  0  0  0  0  0  0  0  0  0
  146.0206  142.6104  155.8218 N   0  0  0  0  0  0  0  0  0  0  0  0
  146.8091  142.0026  154.8397 C   0  0  0  0  0  0  0  0  0  0  0  0
  147.6535  140.8151  155.1905 C   0  0  0  0  0  0  0  0  0  0  0  0
  149.1229  141.0153  154.7954 C   0  0  0  0  0  0  0  0  0  0  0  0
  149.7186  142.1114  155.5550 N   0  0  0  0  0  0  0  0  0  0  0  0
  150.7372  142.0326  156.4282 C   0  0  0  0  0  0  0  0  0  0  0  0
  151.2955  140.9667  156.6812 O   0  0  0  0  0  0  0  0  0  0  0  0
  151.0836  143.2048  156.9864 N   0  0  0  0  0  0  0  0  0  0  0  0
  152.1256  143.3882  157.9929 C   0  0  1  0  0  0  0  0  0  0  0  0
  152.4280  144.8872  158.1751 C   0  0  0  0  0  0  0  0  0  0  0  0
  151.8347  145.2739  159.5289 C   0  0  0  0  0  0  0  0  0  0  0  0
  151.9676  144.0041  160.3623 C   0  0  0  0  0  0  0  0  0  0  0  0
  151.6664  142.8694  159.3766 C   0  0  2  0  0  0  0  0  0  0  0  0
  152.3034  141.5323  159.7808 C   0  0  0  0  0  0  0  0  0  0  0  0
  146.7035  142.6061  153.6114 C   0  0  0  0  0  0  0  0  0  0  0  0
  145.6108  143.9626  153.6459 S   0  0  0  0  0  0  0  0  0  0  0  0
  144.0260  146.5433  156.7541 H   0  0  0  0  0  0  0  0  0  0  0  0
  144.6330  146.3527  155.1113 H   0  0  0  0  0  0  0  0  0  0  0  0
  145.7306  146.1897  156.4816 H   0  0  0  0  0  0  0  0  0  0  0  0
  144.4813  144.1307  157.2290 H   0  0  0  0  0  0  0  0  0  0  0  0
  143.3912  144.2927  155.8710 H   0  0  0  0  0  0  0  0  0  0  0  0
  147.5872  140.6185  156.2615 H   0  0  0  0  0  0  0  0  0  0  0  0
  147.2633  139.9235  154.6977 H   0  0  0  0  0  0  0  0  0  0  0  0
  149.6868  140.0992  154.9788 H   0  0  0  0  0  0  0  0  0  0  0  0
  149.1899  141.2321  153.7279 H   0  0  0  0  0  0  0  0  0  0  0  0
  149.3387  143.0306  155.3808 H   0  0  0  0  0  0  0  0  0  0  0  0
  150.5699  144.0288  156.7101 H   0  0  0  0  0  0  0  0  0  0  0  0
  153.0417  142.8889  157.6714 H   0  0  0  0  0  0  0  0  0  0  0  0
  153.5087  145.0326  158.2057 H   0  0  0  0  0  0  0  0  0  0  0  0
  152.0459  145.5105  157.3652 H   0  0  0  0  0  0  0  0  0  0  0  0
  152.3387  146.1290  159.9799 H   0  0  0  0  0  0  0  0  0  0  0  0
  150.7808  145.5293  159.4109 H   0  0  0  0  0  0  0  0  0  0  0  0
  152.9901  143.9211  160.7342 H   0  0  0  0  0  0  0  0  0  0  0  0
  151.2998  143.9980  161.2243 H   0  0  0  0  0  0  0  0  0  0  0  0
  150.5828  142.7380  159.3639 H   0  0  0  0  0  0  0  0  0  0  0  0
  153.3904  141.6060  159.8239 H   0  0  0  0  0  0  0  0  0  0  0  0
  152.0507  140.7473  159.0680 H   0  0  0  0  0  0  0  0  0  0  0  0
  151.9511  141.2137  160.7620 H   0  0  0  0  0  0  0  0  0  0  0  0
  147.1997  142.3356  152.6912 H   0  0  0  0  0  0  0  0  0  0  0  0
  1  2  1  0  0  0  0
  1 20  1  0  0  0  0
  1 21  1  0  0  0  0
  1 22  1  0  0  0  0
  2  3  1  0  0  0  0
  2 23  1  0  0  0  0
  2 24  1  0  0  0  0
  3 19  1  0  0  0  0
  3  4  2  0  0  0  0
  4  5  1  0  0  0  0
  5  6  1  0  0  0  0
  5 18  2  0  0  0  0
  6  7  1  0  0  0  0
  6 25  1  0  0  0  0
  6 26  1  0  0  0  0
  7  8  1  0  0  0  0
  7 27  1  0  0  0  0
  7 28  1  0  0  0  0
  8  9  1  0  0  0  0
  8 29  1  0  0  0  0
  9 10  2  0  0  0  0
  9 11  1  0  0  0  0
 11 12  1  0  0  0  0
 11 30  1  0  0  0  0
 12 16  1  0  0  0  0
 12 13  1  0  0  0  0
 12 31  1  0  0  0  0
 13 14  1  0  0  0  0
 13 32  1  0  0  0  0
 13 33  1  0  0  0  0
 14 15  1  0  0  0  0
 14 34  1  0  0  0  0
 14 35  1  0  0  0  0
 15 16  1  0  0  0  0
 15 36  1  0  0  0  0
 15 37  1  0  0  0  0
 16 17  1  0  0  0  0
 16 38  1  0  0  0  0
 17 39  1  0  0  0  0
 17 40  1  0  0  0  0
 17 41  1  0  0  0  0
 18 19  1  0  0  0  0
 18 42  1  0  0  0  0
M  END
> <s_m_source_file>
AV-unprocessed.smi

> <i_m_source_file_index>
933

> <i_lp_mmshare_version>
43012

> <i_f3d_flags>
0

> <s_epik_input>
W0NIM11bQ0gyXWMxbmMoW2NIXXMxKVtDSDJdW0NIMl1bTkhdQyg9TylbTkhdW0NAQEhdMltDSDJdW0NIMl1bQ0gyXVtDQEhdMltDSDNd

> <s_epik_cmdline>
J2VwaWtfcHl0aG9uJywgJy1waCcsICc3LjAnLCAnLXRuJywgJzgnLCAnLW1hJywgJzIwMCcsICctbWV0YWxfYmluZGluZycsICctaW1hZScsICc8aW5maWxlLm1hZT4nLCAnLW9tYWUnLCAnPG91dGZpbGUubWFlPic=

> <r_epik_Ionization_Penalty>
0.00203408

> <r_epik_Ionization_Penalty_Charging>
0

> <r_epik_Ionization_Penalty_Neutral>
0.00203408

> <r_epik_State_Penalty>
0.0013452

> <r_epik_Charging_Adjusted_Penalty>
0.0013452

> <i_epik_Tot_Q>
0

> <i_epik_Tot_abs_Q>
0

> <r_epik_Metal_State_Penalty>
-0

> <b_epik_Metal_Only>
0

> <s_lp_Force_Field>
OPLS_2005

> <r_lp_Energy>
18.1851

> <b_lp_Chiralities_Consistent>
1

> <s_lp_Variant>
AV-unprocessed.smi:933-4

> <Gold.Version>
5.8.1

> <Gold.Id.Protein>
6NUR|6NUR_protein|mol2

> <Gold.PLP.Fitness>
48.6989

> <Gold.PLP.PLP>
-43.4087

> <Gold.PLP.part.hbond>
-2.0000

> <Gold.PLP.part.metal>
0.0000

> <Gold.PLP.part.buried>
-7.9782

> <Gold.PLP.part.nonpolar>
-33.9820

> <Gold.PLP.part.repulsive>
0.3318

> <Gold.PLP.ligand.clash>
0.0000

> <Gold.PLP.ligand.torsion>
0.2442

> <Gold.PLP.Chemscore.Hbond>
1.9120

> <Gold.PLP.Chemscore.CHOScore>
0.0000

> <Gold.PLP.Chemscore.Metal>
0.0000

> <Gold.Chemscore.Hbonds>
donor molecule, donor type, donor heavy atom, donor atom, acceptor molecule, acceptor atom, score
      L1  H     8    29       P1  8028  1.00
      L1  H    11    30       P1  8028  0.80

> <Gold.PLP.Chemscore.Internal.Correction>
0.0427

> <Gold.Rescore>
     Score         DG    S(hbond)    S(metal)    S(lipo)     H(rot)  DE(clash)    DE(int)     intcor
     20.06     -20.57       1.91        0.00     108.36       1.55       0.20       0.32       ----

> <Gold.Chemscore.Fitness>
20.0566

> <Gold.Chemscore.DG>
-20.5706

> <Gold.Chemscore.ZeroCoef>
-5.4800

> <Gold.Chemscore.Hbond>
1.9091

> <Gold.Chemscore.Metal>
0.0000

> <Gold.Chemscore.Lipo>
108.3553

> <Gold.Chemscore.Internal_Hbond>
0.0000

> <Gold.Chemscore.DEClash>
0.1974

> <Gold.Chemscore.DEInternal>
0.3166

> <Gold.Chemscore.Rot>
1.5482

> <Gold.Chemscore.Internal.Correction>
   9.000000E+99

> <Gold.Chemscore.Hbonds>
donor molecule, donor type, donor heavy atom, donor atom, acceptor molecule, acceptor atom, score
      L1  H     8    29       P1  8028  1.00
      L1  H    11    30       P1  8028  0.77

> <Gold.Chemscore.Hbond.Weighted>
-6.3765

> <Gold.Chemscore.Metal.Weighted>
-0.0000

> <Gold.Chemscore.Lipo.Weighted>
-12.6776

> <Gold.Chemscore.Internal_Hbond.Weighted>
0.0000

> <Gold.Chemscore.DEClash.Weighted>
0.1974

> <Gold.Chemscore.DEInternal.Weighted>
0.3166

> <Gold.Chemscore.Rot.Weighted>
3.9635

> <Gold.Chemscore.Internal.Correction.Weighted>
   9.000000E+99

> <Gold.Protein.RotatedTorsions>
[ 6907 6896 6895 6894 ] final   91.87 input  -60.11 | X-H torsion
[ 7974 7965 7964 7962 ] final  157.72 input  175.53 | X-H torsion
[ 8008 7997 7996 7995 ] final   48.92 input   59.86 | X-H torsion
[ 10167 10162 10161 10158 ] final  110.87 input  -65.29 | X-H torsion
[ 10718 10713 10712 10709 ] final -137.75 input   66.30 | X-H torsion
[ 10763 10752 10751 10750 ] final -101.50 input  -60.55 | X-H torsion
[ 11005 11000 10999 10996 ] final -131.28 input  -57.11 | X-H torsion

> <Gold.Protein.ActiveResidues>
 VAL166  LYS551  ARG553  GLY616  TRP617  ASP618  TYR619  PRO620  LYS621  CYS622 
 ASP623  PHE694  ASN695  SER759  ASP760  ASP761  ALA762  ILE779  LEU786  VAL792 
 PHE793  MET794  SER795  GLU796  ALA797  LYS798  CYS799  TRP800  GLU811  SER814 

> <Gold.Protein.RotatedAtoms>
  152.5451  134.1589  159.8549 H   0  0  0  0  0  0  0  0  0  0  0  0  # atno 6907 bound_to 6896
  151.1609  133.4838  159.2602 H   0  0  0  0  0  0  0  0  0  0  0  0  # atno 6908 bound_to 6896
  151.1373  135.0172  159.8665 H   0  0  0  0  0  0  0  0  0  0  0  0  # atno 6909 bound_to 6896
  144.7887  139.7380  143.6230 H   0  0  0  0  0  0  0  0  0  0  0  0  # atno 7974 bound_to 7965
  155.3937  140.3434  155.4253 H   0  0  0  0  0  0  0  0  0  0  0  0  # atno 8008 bound_to 7997
  156.1543  140.1580  156.8751 H   0  0  0  0  0  0  0  0  0  0  0  0  # atno 8009 bound_to 7997
  154.5080  140.0797  156.7915 H   0  0  0  0  0  0  0  0  0  0  0  0  # atno 8010 bound_to 7997
  139.6655  144.7127  151.1785 H   0  0  0  0  0  0  0  0  0  0  0  0  # atno 10167 bound_to 10162
  156.2916  130.7378  151.1405 H   0  0  0  0  0  0  0  0  0  0  0  0  # atno 10718 bound_to 10713
  154.7662  135.4895  153.9560 H   0  0  0  0  0  0  0  0  0  0  0  0  # atno 10763 bound_to 10752
  153.1311  135.6753  153.9184 H   0  0  0  0  0  0  0  0  0  0  0  0  # atno 10764 bound_to 10752
  153.8887  135.3123  155.3425 H   0  0  0  0  0  0  0  0  0  0  0  0  # atno 10765 bound_to 10752
  140.9272  134.1366  157.4265 H   0  0  0  0  0  0  0  0  0  0  0  0  # atno 11005 bound_to 11000
  146.2130  139.5499  142.9669 LP  0  0  0  0  0  0  0  0  0  0  0  0  # atno 17320 bound_to 7965
  145.5853  141.0377  143.2100 LP  0  0  0  0  0  0  0  0  0  0  0  0  # atno 17321 bound_to 7965
  140.7597  143.5927  150.8780 LP  0  0  0  0  0  0  0  0  0  0  0  0  # atno 17342 bound_to 10162
  139.9588  143.6188  152.3008 LP  0  0  0  0  0  0  0  0  0  0  0  0  # atno 17343 bound_to 10162
  157.7344  131.0582  150.5526 LP  0  0  0  0  0  0  0  0  0  0  0  0  # atno 17370 bound_to 10713
  156.5643  130.4263  149.6048 LP  0  0  0  0  0  0  0  0  0  0  0  0  # atno 17371 bound_to 10713
  139.8788  134.9992  156.5944 LP  0  0  0  0  0  0  0  0  0  0  0  0  # atno 17394 bound_to 11000
  140.7910  133.8582  155.8646 LP  0  0  0  0  0  0  0  0  0  0  0  0  # atno 17395 bound_to 11000

$$$$
