AV-unprocessed.smi:1252|AV-procd|sdf|5265|dock7
  -GOLD-   22720 4383D 1   1.00000     0.00000
 Structure written by MMmdl.
 43 44  0  0  0  0  0  0  0  0  1 V2000
  154.2748  140.2163  161.0918 C   0  0  0  0  0  0  0  0  0  0  0  0
  153.7553  141.1869  160.0111 C   0  0  1  0  0  0  0  0  0  0  0  0
  152.7343  140.5401  159.0589 C   0  0  0  0  0  0  0  0  0  0  0  0
  152.9988  139.5010  158.4534 O   0  0  0  0  0  0  0  0  0  0  0  0
  151.5599  141.1756  158.9372 N   0  0  0  0  0  0  0  0  0  0  0  0
  150.4286  140.7150  158.1403 C   0  0  0  0  0  0  0  0  0  0  0  0
  150.5677  141.1376  156.6498 C   0  0  0  0  0  0  0  0  0  0  0  0
  151.0540  142.6068  156.6312 C   0  0  0  0  0  0  0  0  0  0  0  0
  151.7063  140.2667  156.0579 C   0  0  0  0  0  0  0  0  0  0  0  0
  149.2949  140.9341  155.9017 N   0  0  0  0  0  0  0  0  0  0  0  0
  148.1466  141.6849  156.4234 C   0  0  0  0  0  0  0  0  0  0  0  0
  146.8431  141.3320  155.6877 C   0  0  0  0  0  0  0  0  0  0  0  0
  147.0010  141.5704  154.2945 O   0  0  0  0  0  0  0  0  0  0  0  0
  148.0689  140.8166  153.7332 C   0  0  0  0  0  0  0  0  0  0  0  0
  149.3835  141.1598  154.4545 C   0  0  0  0  0  0  0  0  0  0  0  0
  153.2047  142.4074  160.5909 N   0  0  0  0  0  0  0  0  0  0  0  0
  153.1343  142.7942  161.8667 C   0  0  0  0  0  0  0  0  0  0  0  0
  152.6199  144.0041  162.0357 N   0  0  0  0  0  0  0  0  0  0  0  0
  152.3855  144.3358  160.7315 C   0  0  0  0  0  0  0  0  0  0  0  0
  152.7270  143.4202  159.8253 N   0  0  0  0  0  0  0  0  0  0  0  0
  154.7671  139.3534  160.6421 H   0  0  0  0  0  0  0  0  0  0  0  0
  153.4704  139.8439  161.7275 H   0  0  0  0  0  0  0  0  0  0  0  0
  155.0043  140.7069  161.7366 H   0  0  0  0  0  0  0  0  0  0  0  0
  154.6112  141.4819  159.4019 H   0  0  0  0  0  0  0  0  0  0  0  0
  151.4236  142.0294  159.4586 H   0  0  0  0  0  0  0  0  0  0  0  0
  150.3371  139.6337  158.2454 H   0  0  0  0  0  0  0  0  0  0  0  0
  149.5064  141.1237  158.5580 H   0  0  0  0  0  0  0  0  0  0  0  0
  151.9927  142.7142  157.1759 H   0  0  0  0  0  0  0  0  0  0  0  0
  150.3402  143.2821  157.1024 H   0  0  0  0  0  0  0  0  0  0  0  0
  151.2356  142.9686  155.6196 H   0  0  0  0  0  0  0  0  0  0  0  0
  152.5903  140.2747  156.6967 H   0  0  0  0  0  0  0  0  0  0  0  0
  152.0358  140.6246  155.0825 H   0  0  0  0  0  0  0  0  0  0  0  0
  151.4009  139.2259  155.9411 H   0  0  0  0  0  0  0  0  0  0  0  0
  147.9949  141.4805  157.4814 H   0  0  0  0  0  0  0  0  0  0  0  0
  148.3224  142.7566  156.3295 H   0  0  0  0  0  0  0  0  0  0  0  0
  146.5736  140.2884  155.8591 H   0  0  0  0  0  0  0  0  0  0  0  0
  146.0203  141.9409  156.0620 H   0  0  0  0  0  0  0  0  0  0  0  0
  147.8521  139.7503  153.8128 H   0  0  0  0  0  0  0  0  0  0  0  0
  148.1482  141.0484  152.6711 H   0  0  0  0  0  0  0  0  0  0  0  0
  149.6354  142.2002  154.2493 H   0  0  0  0  0  0  0  0  0  0  0  0
  150.1695  140.5498  154.0127 H   0  0  0  0  0  0  0  0  0  0  0  0
  153.4752  142.1814  162.6884 H   0  0  0  0  0  0  0  0  0  0  0  0
  151.9568  145.2836  160.4405 H   0  0  0  0  0  0  0  0  0  0  0  0
  1  2  1  0  0  0  0
  1 21  1  0  0  0  0
  1 22  1  0  0  0  0
  1 23  1  0  0  0  0
  2  3  1  0  0  0  0
  2 16  1  0  0  0  0
  2 24  1  0  0  0  0
  3  4  2  0  0  0  0
  3  5  1  0  0  0  0
  5  6  1  0  0  0  0
  5 25  1  0  0  0  0
  6  7  1  0  0  0  0
  6 26  1  0  0  0  0
  6 27  1  0  0  0  0
  7  8  1  0  0  0  0
  7  9  1  0  0  0  0
  7 10  1  0  0  0  0
  8 28  1  0  0  0  0
  8 29  1  0  0  0  0
  8 30  1  0  0  0  0
  9 31  1  0  0  0  0
  9 32  1  0  0  0  0
  9 33  1  0  0  0  0
 10 15  1  0  0  0  0
 10 11  1  0  0  0  0
 11 12  1  0  0  0  0
 11 34  1  0  0  0  0
 11 35  1  0  0  0  0
 12 13  1  0  0  0  0
 12 36  1  0  0  0  0
 12 37  1  0  0  0  0
 13 14  1  0  0  0  0
 14 15  1  0  0  0  0
 14 38  1  0  0  0  0
 14 39  1  0  0  0  0
 15 40  1  0  0  0  0
 15 41  1  0  0  0  0
 16 20  1  0  0  0  0
 16 17  1  0  0  0  0
 17 18  2  0  0  0  0
 17 42  1  0  0  0  0
 18 19  1  0  0  0  0
 19 20  2  0  0  0  0
 19 43  1  0  0  0  0
M  END
> <s_m_source_file>
AV-unprocessed.smi

> <i_m_source_file_index>
1252

> <i_lp_mmshare_version>
43012

> <i_f3d_flags>
0

> <s_epik_input>
bjFbY0hdbltjSF1uMVtDQEhdKFtDSDNdKUMoPU8pW05IXVtDSDJdQyhbQ0gzXSkoW0NIM10pTjJbQ0gyXVtDSDJdT1tDSDJdW0NIMl0y

> <s_epik_cmdline>
J2VwaWtfcHl0aG9uJywgJy1waCcsICc3LjAnLCAnLXRuJywgJzgnLCAnLW1hJywgJzIwMCcsICctbWV0YWxfYmluZGluZycsICctaW1hZScsICc8aW5maWxlLm1hZT4nLCAnLW9tYWUnLCAnPG91dGZpbGUubWFlPic=

> <r_lp_tautomer_probability>
1

> <r_epik_Ionization_Penalty>
0.211373

> <r_epik_Ionization_Penalty_Charging>
0

> <r_epik_Ionization_Penalty_Neutral>
0.211373

> <r_epik_State_Penalty>
0.201459

> <r_epik_Charging_Adjusted_Penalty>
0.201459

> <i_epik_Tot_Q>
0

> <i_epik_Tot_abs_Q>
0

> <r_epik_Metal_State_Penalty>
0.201458

> <b_epik_Metal_Only>
0

> <s_lp_Force_Field>
OPLS_2005

> <r_lp_Energy>
47.0271

> <b_lp_Chiralities_Consistent>
1

> <s_lp_Variant>
AV-unprocessed.smi:1252-2

> <Gold.Version>
5.8.1

> <Gold.Id.Protein>
6NUR|6NUR_protein|mol2

> <Gold.PLP.Fitness>
40.9600

> <Gold.PLP.PLP>
-38.6545

> <Gold.PLP.part.hbond>
-1.0000

> <Gold.PLP.part.metal>
0.0000

> <Gold.PLP.part.buried>
-3.3551

> <Gold.PLP.part.nonpolar>
-32.9301

> <Gold.PLP.part.repulsive>
0.5389

> <Gold.PLP.ligand.clash>
0.0000

> <Gold.PLP.ligand.torsion>
0.4296

> <Gold.PLP.Chemscore.Hbond>
1.0000

> <Gold.PLP.Chemscore.CHOScore>
0.0000

> <Gold.PLP.Chemscore.Metal>
0.0000

> <Gold.Chemscore.Hbonds>
donor molecule, donor type, donor heavy atom, donor atom, acceptor molecule, acceptor atom, score
      P1  H  7997  8008       L1     4  0.52

> <Gold.PLP.Chemscore.Internal.Correction>
0.1646

> <Gold.Rescore>
     Score         DG    S(hbond)    S(metal)    S(lipo)     H(rot)  DE(clash)    DE(int)     intcor
      5.78      -9.87       0.94        0.00      65.72       2.52       0.76       3.33       ----

> <Gold.Chemscore.Fitness>
5.7758

> <Gold.Chemscore.DG>
-9.8676

> <Gold.Chemscore.ZeroCoef>
-5.4800

> <Gold.Chemscore.Hbond>
0.9395

> <Gold.Chemscore.Metal>
0.0000

> <Gold.Chemscore.Lipo>
65.7175

> <Gold.Chemscore.Internal_Hbond>
0.0000

> <Gold.Chemscore.DEClash>
0.7573

> <Gold.Chemscore.DEInternal>
3.3345

> <Gold.Chemscore.Rot>
2.5153

> <Gold.Chemscore.Internal.Correction>
   9.000000E+99

> <Gold.Chemscore.Hbonds>
donor molecule, donor type, donor heavy atom, donor atom, acceptor molecule, acceptor atom, score
      P1  H  7997  8008       L1     4  0.29

> <Gold.Chemscore.Hbond.Weighted>
-3.1378

> <Gold.Chemscore.Metal.Weighted>
-0.0000

> <Gold.Chemscore.Lipo.Weighted>
-7.6890

> <Gold.Chemscore.Internal_Hbond.Weighted>
0.0000

> <Gold.Chemscore.DEClash.Weighted>
0.7573

> <Gold.Chemscore.DEInternal.Weighted>
3.3345

> <Gold.Chemscore.Rot.Weighted>
6.4392

> <Gold.Chemscore.Internal.Correction.Weighted>
   9.000000E+99

> <Gold.Protein.RotatedTorsions>
[ 6907 6896 6895 6894 ] final  -44.58 input  -60.11 | X-H torsion
[ 7974 7965 7964 7962 ] final  168.39 input  175.53 | X-H torsion
[ 8008 7997 7996 7995 ] final  -76.63 input   59.86 | X-H torsion
[ 10167 10162 10161 10158 ] final  125.08 input  -65.29 | X-H torsion
[ 10718 10713 10712 10709 ] final -124.05 input   66.30 | X-H torsion
[ 10763 10752 10751 10750 ] final -132.08 input  -60.55 | X-H torsion
[ 11005 11000 10999 10996 ] final  -78.73 input  -57.11 | X-H torsion

> <Gold.Protein.ActiveResidues>
 VAL166  LYS551  ARG553  GLY616  TRP617  ASP618  TYR619  PRO620  LYS621  CYS622 
 ASP623  PHE694  ASN695  SER759  ASP760  ASP761  ALA762  ILE779  LEU786  VAL792 
 PHE793  MET794  SER795  GLU796  ALA797  LYS798  CYS799  TRP800  GLU811  SER814 

> <Gold.Protein.RotatedAtoms>
  150.9312  134.8727  159.7552 H   0  0  0  0  0  0  0  0  0  0  0  0  # atno 6907 bound_to 6896
  152.5039  134.4076  159.9447 H   0  0  0  0  0  0  0  0  0  0  0  0  # atno 6908 bound_to 6896
  151.4103  133.3690  159.2778 H   0  0  0  0  0  0  0  0  0  0  0  0  # atno 6909 bound_to 6896
  144.7390  139.8900  143.6402 H   0  0  0  0  0  0  0  0  0  0  0  0  # atno 7974 bound_to 7965
  154.5522  140.0724  156.8687 H   0  0  0  0  0  0  0  0  0  0  0  0  # atno 8008 bound_to 7997
  155.2970  140.3382  155.4231 H   0  0  0  0  0  0  0  0  0  0  0  0  # atno 8009 bound_to 7997
  156.1971  140.1708  156.7961 H   0  0  0  0  0  0  0  0  0  0  0  0  # atno 8010 bound_to 7997
  139.5705  144.6936  151.3790 H   0  0  0  0  0  0  0  0  0  0  0  0  # atno 10167 bound_to 10162
  156.1554  130.6564  150.9974 H   0  0  0  0  0  0  0  0  0  0  0  0  # atno 10718 bound_to 10713
  154.8746  135.3809  154.4351 H   0  0  0  0  0  0  0  0  0  0  0  0  # atno 10763 bound_to 10752
  153.5041  135.7030  153.5821 H   0  0  0  0  0  0  0  0  0  0  0  0  # atno 10764 bound_to 10752
  153.4139  135.3918  155.2035 H   0  0  0  0  0  0  0  0  0  0  0  0  # atno 10765 bound_to 10752
  141.1665  133.7076  156.8016 H   0  0  0  0  0  0  0  0  0  0  0  0  # atno 11005 bound_to 11000
  146.1148  139.4158  143.0265 LP  0  0  0  0  0  0  0  0  0  0  0  0  # atno 17320 bound_to 7965
  145.7390  141.0015  143.1311 LP  0  0  0  0  0  0  0  0  0  0  0  0  # atno 17321 bound_to 7965
  140.6990  143.7679  150.7372 LP  0  0  0  0  0  0  0  0  0  0  0  0  # atno 17342 bound_to 10162
  140.1184  143.4635  152.2328 LP  0  0  0  0  0  0  0  0  0  0  0  0  # atno 17343 bound_to 10162
  157.6691  131.0865  150.7657 LP  0  0  0  0  0  0  0  0  0  0  0  0  # atno 17370 bound_to 10713
  156.7723  130.4832  149.5416 LP  0  0  0  0  0  0  0  0  0  0  0  0  # atno 17371 bound_to 10713
  140.2252  134.8727  157.3419 LP  0  0  0  0  0  0  0  0  0  0  0  0  # atno 17394 bound_to 11000
  140.1947  134.4328  155.7696 LP  0  0  0  0  0  0  0  0  0  0  0  0  # atno 17395 bound_to 11000

$$$$
