AV-unprocessed.smi:1013|AV-procd|sdf|4429|dock6
  -GOLD-   22720 2383D 1   1.00000     0.00000
 Structure written by MMmdl.
 29 30  0  0  0  0  0  0  0  0  2 V2000
  153.0448  139.2898  156.0061 O   0  0  0  0  0  0  0  0  0  0  0  0
  151.8012  139.4183  156.0692 C   0  0  0  0  0  0  0  0  0  0  0  0
  151.0921  139.9890  155.2120 O   0  5  0  0  0  0  0  0  0  0  0  0
  151.0722  138.8245  157.2824 C   0  0  1  0  0  0  0  0  0  0  0  0
  150.3521  139.9608  158.0478 C   0  0  0  0  0  0  0  0  0  0  0  0
  151.2523  140.9736  158.5671 N   0  0  0  0  0  0  0  0  0  0  0  0
  152.4572  140.7978  159.2118 C   0  0  0  0  0  0  0  0  0  0  0  0
  152.9363  142.0384  159.5203 C   0  0  0  0  0  0  0  0  0  0  0  0
  151.9386  142.9282  159.0256 C   0  0  0  0  0  0  0  0  0  0  0  0
  151.9188  144.4329  159.0790 C   0  0  0  0  0  0  0  0  0  0  0  0
  150.7206  144.8865  158.7112 F   0  0  0  0  0  0  0  0  0  0  0  0
  152.1746  144.8549  160.3174 F   0  0  0  0  0  0  0  0  0  0  0  0
  152.8434  144.9306  158.2579 F   0  0  0  0  0  0  0  0  0  0  0  0
  150.9291  142.2801  158.4607 N   0  0  0  0  0  0  0  0  0  0  0  0
  150.1396  137.7662  156.8566 N   0  0  0  0  0  0  0  0  0  0  0  0
  150.8293  136.6947  156.1601 C   0  0  0  0  0  0  0  0  0  0  0  0
  150.9794  136.8171  154.6625 C   0  0  0  0  0  0  0  0  0  0  0  0
  150.0000  135.8254  155.2464 C   0  0  0  0  0  0  0  0  0  0  0  0
  151.8463  138.3871  157.9156 H   0  0  0  0  0  0  0  0  0  0  0  0
  149.6372  140.4662  157.3958 H   0  0  0  0  0  0  0  0  0  0  0  0
  149.7723  139.5520  158.8769 H   0  0  0  0  0  0  0  0  0  0  0  0
  152.8705  139.8160  159.3898 H   0  0  0  0  0  0  0  0  0  0  0  0
  153.8611  142.2756  160.0246 H   0  0  0  0  0  0  0  0  0  0  0  0
  149.4271  138.1508  156.2522 H   0  0  0  0  0  0  0  0  0  0  0  0
  151.6378  136.1730  156.6660 H   0  0  0  0  0  0  0  0  0  0  0  0
  150.5713  137.7039  154.1809 H   0  0  0  0  0  0  0  0  0  0  0  0
  151.8916  136.4242  154.2181 H   0  0  0  0  0  0  0  0  0  0  0  0
  150.2585  134.7702  155.1874 H   0  0  0  0  0  0  0  0  0  0  0  0
  148.9397  136.0513  155.1498 H   0  0  0  0  0  0  0  0  0  0  0  0
  1  2  2  0  0  0  0
  2  3  1  0  0  0  0
  2  4  1  0  0  0  0
  4  5  1  0  0  0  0
  4 15  1  0  0  0  0
  4 19  1  0  0  0  0
  5  6  1  0  0  0  0
  5 20  1  0  0  0  0
  5 21  1  0  0  0  0
  6 14  1  0  0  0  0
  6  7  1  0  0  0  0
  7  8  2  0  0  0  0
  7 22  1  0  0  0  0
  8  9  1  0  0  0  0
  8 23  1  0  0  0  0
  9 10  1  0  0  0  0
  9 14  2  0  0  0  0
 10 11  1  0  0  0  0
 10 12  1  0  0  0  0
 10 13  1  0  0  0  0
 15 16  1  0  0  0  0
 15 24  1  0  0  0  0
 16 18  1  0  0  0  0
 16 17  1  0  0  0  0
 16 25  1  0  0  0  0
 17 18  1  0  0  0  0
 17 26  1  0  0  0  0
 17 27  1  0  0  0  0
 18 28  1  0  0  0  0
 18 29  1  0  0  0  0
M  CHG  1   3  -1
M  END
> <s_m_source_file>
AV-unprocessed.smi

> <i_m_source_file_index>
1013

> <i_lp_mmshare_version>
43012

> <i_f3d_flags>
0

> <s_epik_input>
W0NIMl0xW0NIMl1bQ0hdMVtOSF1bQ0BIXShDKD1PKVtPSF0pW0NIMl1uMltjSF1bY0hdYyhuMilDKEYpKEYpRg==

> <s_epik_cmdline>
J2VwaWtfcHl0aG9uJywgJy1waCcsICc3LjAnLCAnLXRuJywgJzgnLCAnLW1hJywgJzIwMCcsICctbWV0YWxfYmluZGluZycsICctaW1hZScsICc8aW5maWxlLm1hZT4nLCAnLW9tYWUnLCAnPG91dGZpbGUubWFlPic=

> <r_lp_tautomer_probability>
1

> <r_epik_Ionization_Penalty>
0.786284

> <r_epik_Ionization_Penalty_Charging>
0.00153368

> <r_epik_Ionization_Penalty_Neutral>
0.78475

> <r_epik_State_Penalty>
0.814638

> <r_epik_Charging_Adjusted_Penalty>
0.816172

> <i_epik_Tot_Q>
-1

> <i_epik_Tot_abs_Q>
1

> <r_epik_Metal_State_Penalty>
0.814638

> <b_epik_Metal_Only>
0

> <s_lp_Force_Field>
OPLS_2005

> <r_lp_Energy>
17.111

> <b_lp_Chiralities_Consistent>
1

> <s_lp_Variant>
AV-unprocessed.smi:1013-4

> <Gold.Version>
5.8.1

> <Gold.Id.Protein>
6NUR|6NUR_protein|mol2

> <Gold.PLP.Fitness>
44.5986

> <Gold.PLP.PLP>
-36.5529

> <Gold.PLP.part.hbond>
-1.9529

> <Gold.PLP.part.metal>
0.0000

> <Gold.PLP.part.buried>
-5.9254

> <Gold.PLP.part.nonpolar>
-28.9165

> <Gold.PLP.part.repulsive>
0.0776

> <Gold.PLP.ligand.clash>
0.0000

> <Gold.PLP.ligand.torsion>
0.8110

> <Gold.PLP.Chemscore.Hbond>
3.0000

> <Gold.PLP.Chemscore.CHOScore>
0.0000

> <Gold.PLP.Chemscore.Metal>
0.0000

> <Gold.Chemscore.Hbonds>
donor molecule, donor type, donor heavy atom, donor atom, acceptor molecule, acceptor atom, score
      P1  H  7989  7998       L1     3  1.00
      P1  H  7997  8010       L1     1  2.00

> <Gold.PLP.Chemscore.Internal.Correction>
0.6677

> <Gold.Rescore>
     Score         DG    S(hbond)    S(metal)    S(lipo)     H(rot)  DE(clash)    DE(int)     intcor
     12.67     -13.23       1.99        0.00      64.39       2.52       0.01       0.56       ----

> <Gold.Chemscore.Fitness>
12.6656

> <Gold.Chemscore.DG>
-13.2313

> <Gold.Chemscore.ZeroCoef>
-5.4800

> <Gold.Chemscore.Hbond>
1.9934

> <Gold.Chemscore.Metal>
0.0000

> <Gold.Chemscore.Lipo>
64.3903

> <Gold.Chemscore.Internal_Hbond>
0.0000

> <Gold.Chemscore.DEClash>
0.0078

> <Gold.Chemscore.DEInternal>
0.5579

> <Gold.Chemscore.Rot>
2.5157

> <Gold.Chemscore.Internal.Correction>
   9.000000E+99

> <Gold.Chemscore.Hbonds>
donor molecule, donor type, donor heavy atom, donor atom, acceptor molecule, acceptor atom, score
      P1  H  7989  7998       L1     3  0.96
      P1  H  7997  8010       L1     1  0.97

> <Gold.Chemscore.Hbond.Weighted>
-6.6579

> <Gold.Chemscore.Metal.Weighted>
-0.0000

> <Gold.Chemscore.Lipo.Weighted>
-7.5337

> <Gold.Chemscore.Internal_Hbond.Weighted>
0.0000

> <Gold.Chemscore.DEClash.Weighted>
0.0078

> <Gold.Chemscore.DEInternal.Weighted>
0.5579

> <Gold.Chemscore.Rot.Weighted>
6.4402

> <Gold.Chemscore.Internal.Correction.Weighted>
   9.000000E+99

> <Gold.Protein.RotatedTorsions>
[ 6907 6896 6895 6894 ] final -173.67 input  -60.11 | X-H torsion
[ 7974 7965 7964 7962 ] final   55.60 input  175.53 | X-H torsion
[ 8008 7997 7996 7995 ] final   65.56 input   59.86 | X-H torsion
[ 10167 10162 10161 10158 ] final   14.68 input  -65.29 | X-H torsion
[ 10718 10713 10712 10709 ] final  150.58 input   66.30 | X-H torsion
[ 10763 10752 10751 10750 ] final  123.74 input  -60.55 | X-H torsion
[ 11005 11000 10999 10996 ] final   52.78 input  -57.11 | X-H torsion

> <Gold.Protein.ActiveResidues>
 VAL166  LYS551  ARG553  GLY616  TRP617  ASP618  TYR619  PRO620  LYS621  CYS622 
 ASP623  PHE694  ASN695  SER759  ASP760  ASP761  ALA762  ILE779  LEU786  VAL792 
 PHE793  MET794  SER795  GLU796  ALA797  LYS798  CYS799  TRP800  GLU811  SER814 

> <Gold.Protein.RotatedAtoms>
  151.5599  133.3405  159.2968 H   0  0  0  0  0  0  0  0  0  0  0  0  # atno 6907 bound_to 6896
  150.8429  134.7730  159.6958 H   0  0  0  0  0  0  0  0  0  0  0  0  # atno 6908 bound_to 6896
  152.4493  134.5436  159.9898 H   0  0  0  0  0  0  0  0  0  0  0  0  # atno 6909 bound_to 6896
  145.9486  139.3952  143.0319 H   0  0  0  0  0  0  0  0  0  0  0  0  # atno 7974 bound_to 7965
  155.6636  140.3497  155.4792 H   0  0  0  0  0  0  0  0  0  0  0  0  # atno 8008 bound_to 7997
  155.9748  140.1163  157.0803 H   0  0  0  0  0  0  0  0  0  0  0  0  # atno 8009 bound_to 7997
  154.4175  140.1150  156.5341 H   0  0  0  0  0  0  0  0  0  0  0  0  # atno 8010 bound_to 7997
  140.5919  143.8778  150.6881 H   0  0  0  0  0  0  0  0  0  0  0  0  # atno 10167 bound_to 10162
  157.2817  131.0836  151.1527 H   0  0  0  0  0  0  0  0  0  0  0  0  # atno 10718 bound_to 10713
  153.6503  135.3364  155.3098 H   0  0  0  0  0  0  0  0  0  0  0  0  # atno 10763 bound_to 10752
  154.8539  135.4339  154.1911 H   0  0  0  0  0  0  0  0  0  0  0  0  # atno 10764 bound_to 10752
  153.2852  135.7012  153.7421 H   0  0  0  0  0  0  0  0  0  0  0  0  # atno 10765 bound_to 10752
  140.0821  134.5325  155.8936 H   0  0  0  0  0  0  0  0  0  0  0  0  # atno 11005 bound_to 11000
  145.8201  140.9683  143.0903 LP  0  0  0  0  0  0  0  0  0  0  0  0  # atno 17320 bound_to 7965
  144.6792  140.0031  143.7484 LP  0  0  0  0  0  0  0  0  0  0  0  0  # atno 17321 bound_to 7965
  140.2303  143.3741  152.1571 LP  0  0  0  0  0  0  0  0  0  0  0  0  # atno 17342 bound_to 10162
  139.5233  144.7070  151.5325 LP  0  0  0  0  0  0  0  0  0  0  0  0  # atno 17343 bound_to 10162
  157.2958  130.6818  149.6138 LP  0  0  0  0  0  0  0  0  0  0  0  0  # atno 17370 bound_to 10713
  155.9664  130.4407  150.5309 LP  0  0  0  0  0  0  0  0  0  0  0  0  # atno 17371 bound_to 10713
  141.2050  133.6643  156.6155 LP  0  0  0  0  0  0  0  0  0  0  0  0  # atno 17394 bound_to 11000
  140.3473  134.7798  157.4441 LP  0  0  0  0  0  0  0  0  0  0  0  0  # atno 17395 bound_to 11000

$$$$
