AV-unprocessed.smi:1891|AV-procd|sdf|7665|dock8
  -GOLD-   22720 9403D 1   1.00000     0.00000
 Structure written by MMmdl.
 36 38  0  0  0  0  0  0  0  0  1 V2000
  153.1538  139.0672  154.9821 O   0  0  0  0  0  0  0  0  0  0  0  0
  151.9569  139.0840  155.7289 C   0  0  0  0  0  0  0  0  0  0  0  0
  151.9315  140.1570  156.7755 C   0  0  0  0  0  0  0  0  0  0  0  0
  152.7955  140.1613  157.7916 N   0  0  0  0  0  0  0  0  0  0  0  0
  152.4497  141.3060  158.4821 C   0  0  0  0  0  0  0  0  0  0  0  0
  152.9980  141.8717  159.6554 C   0  0  0  0  0  0  0  0  0  0  0  0
  152.4771  143.0730  160.1794 C   0  0  0  0  0  0  0  0  0  0  0  0
  151.4038  143.7251  159.5385 C   0  0  0  0  0  0  0  0  0  0  0  0
  150.8419  143.1774  158.3693 C   0  0  0  0  0  0  0  0  0  0  0  0
  151.3634  141.9760  157.8520 C   0  0  0  0  0  0  0  0  0  0  0  0
  151.0464  141.1873  156.7501 N   0  0  0  0  0  0  0  0  0  0  0  0
  149.9883  141.4599  155.7844 C   0  0  0  0  0  0  0  0  0  0  0  0
  148.6210  140.8912  156.2164 C   0  0  2  0  0  0  0  0  0  0  0  0
  148.4703  139.5692  155.7364 O   0  0  0  0  0  0  0  0  0  0  0  0
  147.4850  141.8038  155.7744 C   0  0  0  0  0  0  0  0  0  0  0  0
  146.7253  142.5136  156.7314 C   0  0  0  0  0  0  0  0  0  0  0  0
  145.6671  143.3486  156.3235 C   0  0  0  0  0  0  0  0  0  0  0  0
  145.3580  143.4766  154.9562 C   0  0  0  0  0  0  0  0  0  0  0  0
  144.3390  144.2774  154.5641 F   0  0  0  0  0  0  0  0  0  0  0  0
  146.1071  142.7684  153.9974 C   0  0  0  0  0  0  0  0  0  0  0  0
  147.1656  141.9320  154.4031 C   0  0  0  0  0  0  0  0  0  0  0  0
  147.8696  141.2502  153.4676 F   0  0  0  0  0  0  0  0  0  0  0  0
  153.8633  138.8272  155.5579 H   0  0  0  0  0  0  0  0  0  0  0  0
  151.1250  139.2341  155.0398 H   0  0  0  0  0  0  0  0  0  0  0  0
  151.7996  138.1112  156.1944 H   0  0  0  0  0  0  0  0  0  0  0  0
  153.8222  141.3815  160.1520 H   0  0  0  0  0  0  0  0  0  0  0  0
  152.9042  143.4972  161.0762 H   0  0  0  0  0  0  0  0  0  0  0  0
  151.0120  144.6458  159.9451 H   0  0  0  0  0  0  0  0  0  0  0  0
  150.0201  143.6756  157.8768 H   0  0  0  0  0  0  0  0  0  0  0  0
  149.9179  142.5421  155.6680 H   0  0  0  0  0  0  0  0  0  0  0  0
  150.2660  141.0685  154.8066 H   0  0  0  0  0  0  0  0  0  0  0  0
  148.5944  140.8152  157.3032 H   0  0  0  0  0  0  0  0  0  0  0  0
  147.8369  139.5748  155.0352 H   0  0  0  0  0  0  0  0  0  0  0  0
  146.9490  142.4177  157.7839 H   0  0  0  0  0  0  0  0  0  0  0  0
  145.0913  143.8891  157.0604 H   0  0  0  0  0  0  0  0  0  0  0  0
  145.8682  142.8646  152.9485 H   0  0  0  0  0  0  0  0  0  0  0  0
  1  2  1  0  0  0  0
  1 23  1  0  0  0  0
  2  3  1  0  0  0  0
  2 24  1  0  0  0  0
  2 25  1  0  0  0  0
  3 11  1  0  0  0  0
  3  4  2  0  0  0  0
  4  5  1  0  0  0  0
  5 10  2  0  0  0  0
  5  6  1  0  0  0  0
  6  7  2  0  0  0  0
  6 26  1  0  0  0  0
  7  8  1  0  0  0  0
  7 27  1  0  0  0  0
  8  9  2  0  0  0  0
  8 28  1  0  0  0  0
  9 10  1  0  0  0  0
  9 29  1  0  0  0  0
 10 11  1  0  0  0  0
 11 12  1  0  0  0  0
 12 13  1  0  0  0  0
 12 30  1  0  0  0  0
 12 31  1  0  0  0  0
 13 14  1  0  0  0  0
 13 15  1  0  0  0  0
 13 32  1  0  0  0  0
 14 33  1  0  0  0  0
 15 21  1  0  0  0  0
 15 16  2  0  0  0  0
 16 17  1  0  0  0  0
 16 34  1  0  0  0  0
 17 18  2  0  0  0  0
 17 35  1  0  0  0  0
 18 19  1  0  0  0  0
 18 20  1  0  0  0  0
 20 21  2  0  0  0  0
 20 36  1  0  0  0  0
 21 22  1  0  0  0  0
M  END
> <s_m_source_file>
AV-unprocessed.smi

> <i_m_source_file_index>
1891

> <i_lp_mmshare_version>
43012

> <i_f3d_flags>
0

> <s_epik_input>
W2NIXTFbY0hdW2NIXVtjSF1jKGMxMiluKGMobjIpW0NIMl1bT0hdKVtDSDJdW0NASF0oW09IXSljM1tjSF1bY0hdYyhGKVtjSF1jM0Y=

> <s_epik_cmdline>
J2VwaWtfcHl0aG9uJywgJy1waCcsICc3LjAnLCAnLXRuJywgJzgnLCAnLW1hJywgJzIwMCcsICctbWV0YWxfYmluZGluZycsICctaW1hZScsICc8aW5maWxlLm1hZT4nLCAnLW9tYWUnLCAnPG91dGZpbGUubWFlPic=

> <r_epik_Ionization_Penalty>
0.0634724

> <r_epik_Ionization_Penalty_Charging>
0

> <r_epik_Ionization_Penalty_Neutral>
0.0634724

> <r_epik_State_Penalty>
0.0551572

> <r_epik_Charging_Adjusted_Penalty>
0.0551572

> <i_epik_Tot_Q>
0

> <i_epik_Tot_abs_Q>
0

> <r_epik_Metal_State_Penalty>
5.78034e-05

> <b_epik_Metal_Only>
0

> <s_lp_Force_Field>
OPLS_2005

> <r_lp_Energy>
12.6206

> <b_lp_Chiralities_Consistent>
1

> <s_lp_Variant>
AV-unprocessed.smi:1891-1

> <Gold.Version>
5.8.1

> <Gold.Id.Protein>
6NUR|6NUR_protein|mol2

> <Gold.PLP.Fitness>
46.6102

> <Gold.PLP.PLP>
-45.3523

> <Gold.PLP.part.hbond>
-2.3285

> <Gold.PLP.part.metal>
0.0000

> <Gold.PLP.part.buried>
-5.2217

> <Gold.PLP.part.nonpolar>
-37.4059

> <Gold.PLP.part.repulsive>
0.0000

> <Gold.PLP.ligand.clash>
0.0000

> <Gold.PLP.ligand.torsion>
0.8892

> <Gold.PLP.Chemscore.Hbond>
1.0000

> <Gold.PLP.Chemscore.CHOScore>
0.0000

> <Gold.PLP.Chemscore.Metal>
0.0000

> <Gold.Chemscore.Hbonds>
donor molecule, donor type, donor heavy atom, donor atom, acceptor molecule, acceptor atom, score
      P1  H  7997  8008       L1     4  0.95

> <Gold.PLP.Chemscore.Internal.Correction>
0.0364

> <Gold.Rescore>
     Score         DG    S(hbond)    S(metal)    S(lipo)     H(rot)  DE(clash)    DE(int)     intcor
     10.32     -12.49       0.74        0.00     101.66       2.88       0.04       2.13       ----

> <Gold.Chemscore.Fitness>
10.3224

> <Gold.Chemscore.DG>
-12.4946

> <Gold.Chemscore.ZeroCoef>
-5.4800

> <Gold.Chemscore.Hbond>
0.7441

> <Gold.Chemscore.Metal>
0.0000

> <Gold.Chemscore.Lipo>
101.6552

> <Gold.Chemscore.Internal_Hbond>
0.0000

> <Gold.Chemscore.DEClash>
0.0443

> <Gold.Chemscore.DEInternal>
2.1280

> <Gold.Chemscore.Rot>
2.8767

> <Gold.Chemscore.Internal.Correction>
   9.000000E+99

> <Gold.Chemscore.Hbonds>
donor molecule, donor type, donor heavy atom, donor atom, acceptor molecule, acceptor atom, score
      P1  H  7997  8008       L1     4  0.20

> <Gold.Chemscore.Hbond.Weighted>
-2.4854

> <Gold.Chemscore.Metal.Weighted>
-0.0000

> <Gold.Chemscore.Lipo.Weighted>
-11.8937

> <Gold.Chemscore.Internal_Hbond.Weighted>
0.0000

> <Gold.Chemscore.DEClash.Weighted>
0.0443

> <Gold.Chemscore.DEInternal.Weighted>
2.1280

> <Gold.Chemscore.Rot.Weighted>
7.3644

> <Gold.Chemscore.Internal.Correction.Weighted>
   9.000000E+99

> <Gold.Protein.RotatedTorsions>
[ 6907 6896 6895 6894 ] final -159.66 input  -60.11 | X-H torsion
[ 7974 7965 7964 7962 ] final  -16.35 input  175.53 | X-H torsion
[ 8008 7997 7996 7995 ] final  -69.11 input   59.86 | X-H torsion
[ 10167 10162 10161 10158 ] final -134.10 input  -65.29 | X-H torsion
[ 10718 10713 10712 10709 ] final  130.60 input   66.30 | X-H torsion
[ 10763 10752 10751 10750 ] final  106.88 input  -60.55 | X-H torsion
[ 11005 11000 10999 10996 ] final -102.40 input  -57.11 | X-H torsion

> <Gold.Protein.ActiveResidues>
 VAL166  LYS551  ARG553  GLY616  TRP617  ASP618  TYR619  PRO620  LYS621  CYS622 
 ASP623  PHE694  ASN695  SER759  ASP760  ASP761  ALA762  ILE779  LEU786  VAL792 
 PHE793  MET794  SER795  GLU796  ALA797  LYS798  CYS799  TRP800  GLU811  SER814 

> <Gold.Protein.RotatedAtoms>
  151.3370  133.3977  159.2667 H   0  0  0  0  0  0  0  0  0  0  0  0  # atno 6907 bound_to 6896
  150.9909  134.9245  159.7909 H   0  0  0  0  0  0  0  0  0  0  0  0  # atno 6908 bound_to 6896
  152.5247  134.3335  159.9243 H   0  0  0  0  0  0  0  0  0  0  0  0  # atno 6909 bound_to 6896
  146.1992  140.3623  142.8429 H   0  0  0  0  0  0  0  0  0  0  0  0  # atno 7974 bound_to 7965
  154.4915  140.0860  156.7604 H   0  0  0  0  0  0  0  0  0  0  0  0  # atno 8008 bound_to 7997
  155.4219  140.3446  155.4254 H   0  0  0  0  0  0  0  0  0  0  0  0  # atno 8009 bound_to 7997
  156.1336  140.1508  156.9016 H   0  0  0  0  0  0  0  0  0  0  0  0  # atno 8010 bound_to 7997
  139.8915  143.6717  152.2611 H   0  0  0  0  0  0  0  0  0  0  0  0  # atno 10167 bound_to 10162
  157.5047  131.1095  150.9378 H   0  0  0  0  0  0  0  0  0  0  0  0  # atno 10718 bound_to 10713
  153.3991  135.3862  155.1975 H   0  0  0  0  0  0  0  0  0  0  0  0  # atno 10763 bound_to 10752
  154.8727  135.3767  154.4642 H   0  0  0  0  0  0  0  0  0  0  0  0  # atno 10764 bound_to 10752
  153.5137  135.7087  153.5829 H   0  0  0  0  0  0  0  0  0  0  0  0  # atno 10765 bound_to 10752
  141.1191  133.8555  157.1354 H   0  0  0  0  0  0  0  0  0  0  0  0  # atno 11005 bound_to 11000
  144.8645  140.7186  143.6086 LP  0  0  0  0  0  0  0  0  0  0  0  0  # atno 17320 bound_to 7965
  145.3543  139.1698  143.4418 LP  0  0  0  0  0  0  0  0  0  0  0  0  # atno 17321 bound_to 7965
  139.7106  144.7621  151.1119 LP  0  0  0  0  0  0  0  0  0  0  0  0  # atno 17342 bound_to 10162
  140.7725  143.5336  150.9394 LP  0  0  0  0  0  0  0  0  0  0  0  0  # atno 17343 bound_to 10162
  157.0038  130.5610  149.5314 LP  0  0  0  0  0  0  0  0  0  0  0  0  # atno 17370 bound_to 10713
  156.0251  130.5345  150.8383 LP  0  0  0  0  0  0  0  0  0  0  0  0  # atno 17371 bound_to 10713
  140.0134  134.9978  157.0443 LP  0  0  0  0  0  0  0  0  0  0  0  0  # atno 17394 bound_to 11000
  140.4560  134.1533  155.7186 LP  0  0  0  0  0  0  0  0  0  0  0  0  # atno 17395 bound_to 11000

$$$$
