AV-unprocessed.smi:1628|AV-procd|sdf|6520|dock3
  -GOLD-   22720 7193D 1   1.00000     0.00000
 Structure written by MMmdl.
 55 57  0  0  0  0  0  0  0  0  2 V2000
  146.7943  139.4106  154.4529 O   0  0  0  0  0  0  0  0  0  0  0  0
  147.6532  139.3270  153.5753 C   0  0  0  0  0  0  0  0  0  0  0  0
  147.4439  138.7241  152.3974 N   0  0  0  0  0  0  0  0  0  0  0  0
  146.1925  138.0828  152.0166 C   0  0  0  0  0  0  0  0  0  0  0  0
  145.7844  137.0280  153.0639 C   0  0  0  0  0  0  0  0  0  0  0  0
  146.1931  135.6422  152.7115 N   0  3  0  0  0  0  0  0  0  0  0  0
  145.4101  135.0736  151.5823 C   0  0  0  0  0  0  0  0  0  0  0  0
  146.1725  133.9856  150.8099 C   0  0  0  0  0  0  0  0  0  0  0  0
  146.6102  132.7756  151.6533 C   0  0  0  0  0  0  0  0  0  0  0  0
  147.8124  133.0920  152.5580 C   0  0  0  0  0  0  0  0  0  0  0  0
  147.4871  133.8151  153.8787 C   0  0  0  0  0  0  0  0  0  0  0  0
  146.2513  134.7319  153.8852 C   0  0  0  0  0  0  0  0  0  0  0  0
  148.8960  139.8332  153.6518 N   0  0  0  0  0  0  0  0  0  0  0  0
  149.5149  140.4877  154.7511 C   0  0  0  0  0  0  0  0  0  0  0  0
  150.8592  140.1806  155.0367 C   0  0  0  0  0  0  0  0  0  0  0  0
  151.4884  140.7963  156.1352 C   0  0  0  0  0  0  0  0  0  0  0  0
  150.7528  141.7047  156.9321 C   0  0  0  0  0  0  0  0  0  0  0  0
  151.3613  142.3341  158.0400 N   0  0  0  0  0  0  0  0  0  0  0  0
  152.3454  141.5330  158.7637 C   0  0  0  0  0  0  0  0  0  0  0  0
  152.6971  142.1995  160.1051 C   0  0  0  0  0  0  0  0  0  0  0  0
  153.1294  143.5374  159.8818 O   0  0  0  0  0  0  0  0  0  0  0  0
  152.1116  144.3281  159.2778 C   0  0  0  0  0  0  0  0  0  0  0  0
  151.7435  143.7388  157.9059 C   0  0  0  0  0  0  0  0  0  0  0  0
  149.4530  141.9844  156.6682 N   0  0  0  0  0  0  0  0  0  0  0  0
  148.8538  141.3946  155.6125 C   0  0  0  0  0  0  0  0  0  0  0  0
  148.1981  138.7051  151.7264 H   0  0  0  0  0  0  0  0  0  0  0  0
  145.4161  138.8429  151.9166 H   0  0  0  0  0  0  0  0  0  0  0  0
  146.3233  137.6257  151.0352 H   0  0  0  0  0  0  0  0  0  0  0  0
  146.2148  137.2840  154.0331 H   0  0  0  0  0  0  0  0  0  0  0  0
  144.7028  137.0455  153.2058 H   0  0  0  0  0  0  0  0  0  0  0  0
  144.4522  134.6895  151.9360 H   0  0  0  0  0  0  0  0  0  0  0  0
  145.1707  135.8697  150.8759 H   0  0  0  0  0  0  0  0  0  0  0  0
  145.5267  133.6292  150.0067 H   0  0  0  0  0  0  0  0  0  0  0  0
  147.0397  134.4242  150.3143 H   0  0  0  0  0  0  0  0  0  0  0  0
  145.7771  132.3708  152.2291 H   0  0  0  0  0  0  0  0  0  0  0  0
  146.9087  131.9834  150.9659 H   0  0  0  0  0  0  0  0  0  0  0  0
  148.3294  132.1628  152.8003 H   0  0  0  0  0  0  0  0  0  0  0  0
  148.5366  133.6806  151.9935 H   0  0  0  0  0  0  0  0  0  0  0  0
  147.3476  133.0684  154.6610 H   0  0  0  0  0  0  0  0  0  0  0  0
  148.3641  134.3889  154.1807 H   0  0  0  0  0  0  0  0  0  0  0  0
  146.2865  135.3111  154.8092 H   0  0  0  0  0  0  0  0  0  0  0  0
  145.3371  134.1404  153.9523 H   0  0  0  0  0  0  0  0  0  0  0  0
  149.4557  139.7730  152.8139 H   0  0  0  0  0  0  0  0  0  0  0  0
  151.4070  139.4803  154.4231 H   0  0  0  0  0  0  0  0  0  0  0  0
  152.5155  140.5524  156.3616 H   0  0  0  0  0  0  0  0  0  0  0  0
  151.9841  140.5236  158.9549 H   0  0  0  0  0  0  0  0  0  0  0  0
  153.2411  141.4377  158.1484 H   0  0  0  0  0  0  0  0  0  0  0  0
  151.8397  142.1904  160.7802 H   0  0  0  0  0  0  0  0  0  0  0  0
  153.4964  141.6473  160.5996 H   0  0  0  0  0  0  0  0  0  0  0  0
  151.2371  144.3747  159.9288 H   0  0  0  0  0  0  0  0  0  0  0  0
  152.4764  145.3488  159.1619 H   0  0  0  0  0  0  0  0  0  0  0  0
  152.5921  143.8194  157.2251 H   0  0  0  0  0  0  0  0  0  0  0  0
  150.9230  144.3142  157.4754 H   0  0  0  0  0  0  0  0  0  0  0  0
  147.8133  141.6493  155.4855 H   0  0  0  0  0  0  0  0  0  0  0  0
  147.1430  135.7324  152.3798 H   0  0  0  0  0  0  0  0  0  0  0  0
  1  2  2  0  0  0  0
  2  3  1  0  0  0  0
  2 13  1  0  0  0  0
  3  4  1  0  0  0  0
  3 26  1  0  0  0  0
  4  5  1  0  0  0  0
  4 27  1  0  0  0  0
  4 28  1  0  0  0  0
  5  6  1  0  0  0  0
  5 29  1  0  0  0  0
  5 30  1  0  0  0  0
  6 12  1  0  0  0  0
  6  7  1  0  0  0  0
  6 55  1  0  0  0  0
  7  8  1  0  0  0  0
  7 31  1  0  0  0  0
  7 32  1  0  0  0  0
  8  9  1  0  0  0  0
  8 33  1  0  0  0  0
  8 34  1  0  0  0  0
  9 10  1  0  0  0  0
  9 35  1  0  0  0  0
  9 36  1  0  0  0  0
 10 11  1  0  0  0  0
 10 37  1  0  0  0  0
 10 38  1  0  0  0  0
 11 12  1  0  0  0  0
 11 39  1  0  0  0  0
 11 40  1  0  0  0  0
 12 41  1  0  0  0  0
 12 42  1  0  0  0  0
 13 14  1  0  0  0  0
 13 43  1  0  0  0  0
 14 25  1  0  0  0  0
 14 15  2  0  0  0  0
 15 16  1  0  0  0  0
 15 44  1  0  0  0  0
 16 17  2  0  0  0  0
 16 45  1  0  0  0  0
 17 18  1  0  0  0  0
 17 24  1  0  0  0  0
 18 23  1  0  0  0  0
 18 19  1  0  0  0  0
 19 20  1  0  0  0  0
 19 46  1  0  0  0  0
 19 47  1  0  0  0  0
 20 21  1  0  0  0  0
 20 48  1  0  0  0  0
 20 49  1  0  0  0  0
 21 22  1  0  0  0  0
 22 23  1  0  0  0  0
 22 50  1  0  0  0  0
 22 51  1  0  0  0  0
 23 52  1  0  0  0  0
 23 53  1  0  0  0  0
 24 25  2  0  0  0  0
 25 54  1  0  0  0  0
M  CHG  1   6   1
M  END
> <s_m_source_file>
AV-unprocessed.smi

> <i_m_source_file_index>
1628

> <i_lp_mmshare_version>
43012

> <i_f3d_flags>
0

> <s_epik_input>
W0NIMl0xW0NIMl1bQ0gyXVtDSDJdW0NIMl1bQ0gyXU4xW0NIMl1bQ0gyXVtOSF1DKD1PKVtOSF1jMltjSF1bY0hdYyhuW2NIXTIpTjNbQ0gyXVtDSDJdT1tDSDJdW0NIMl0z

> <s_epik_cmdline>
J2VwaWtfcHl0aG9uJywgJy1waCcsICc3LjAnLCAnLXRuJywgJzgnLCAnLW1hJywgJzIwMCcsICctbWV0YWxfYmluZGluZycsICctaW1hZScsICc8aW5maWxlLm1hZT4nLCAnLW9tYWUnLCAnPG91dGZpbGUubWFlPic=

> <r_lp_tautomer_probability>
1

> <r_epik_Ionization_Penalty>
0.00380107

> <r_epik_Ionization_Penalty_Charging>
0.00211816

> <r_epik_Ionization_Penalty_Neutral>
0.00168291

> <r_epik_State_Penalty>
-0

> <r_epik_Charging_Adjusted_Penalty>
0.00211816

> <i_epik_Tot_Q>
1

> <i_epik_Tot_abs_Q>
1

> <r_epik_Metal_State_Penalty>
-0

> <b_epik_Metal_Only>
0

> <s_lp_Force_Field>
OPLS_2005

> <r_lp_Energy>
41.9459

> <b_lp_Chiralities_Consistent>
1

> <s_lp_Variant>
AV-unprocessed.smi:1628-1

> <Gold.Version>
5.8.1

> <Gold.Id.Protein>
6NUR|6NUR_protein|mol2

> <Gold.PLP.Fitness>
56.4275

> <Gold.PLP.PLP>
-47.4048

> <Gold.PLP.part.hbond>
-4.0000

> <Gold.PLP.part.metal>
0.0000

> <Gold.PLP.part.buried>
-4.5645

> <Gold.PLP.part.nonpolar>
-40.9475

> <Gold.PLP.part.repulsive>
1.5200

> <Gold.PLP.ligand.clash>
0.0000

> <Gold.PLP.ligand.torsion>
1.2603

> <Gold.PLP.Chemscore.Hbond>
3.6960

> <Gold.PLP.Chemscore.CHOScore>
0.0000

> <Gold.PLP.Chemscore.Metal>
0.0000

> <Gold.Chemscore.Hbonds>
donor molecule, donor type, donor heavy atom, donor atom, acceptor molecule, acceptor atom, score
      L1  H     3    26       P1  7957  0.70
      L1  H     6    55       P1  7948  2.00
      L1  H    13    43       P1  7957  0.99

> <Gold.PLP.Chemscore.Internal.Correction>
0.4553

> <Gold.Rescore>
     Score         DG    S(hbond)    S(metal)    S(lipo)     H(rot)  DE(clash)    DE(int)     intcor
     20.17     -23.18       2.73        0.00     108.24       1.60       0.08       2.92       ----

> <Gold.Chemscore.Fitness>
20.1677

> <Gold.Chemscore.DG>
-23.1761

> <Gold.Chemscore.ZeroCoef>
-5.4800

> <Gold.Chemscore.Hbond>
2.7311

> <Gold.Chemscore.Metal>
0.0000

> <Gold.Chemscore.Lipo>
108.2416

> <Gold.Chemscore.Internal_Hbond>
0.0000

> <Gold.Chemscore.DEClash>
0.0840

> <Gold.Chemscore.DEInternal>
2.9244

> <Gold.Chemscore.Rot>
1.5976

> <Gold.Chemscore.Internal.Correction>
   9.000000E+99

> <Gold.Chemscore.Hbonds>
donor molecule, donor type, donor heavy atom, donor atom, acceptor molecule, acceptor atom, score
      L1  H     3    26       P1  7957  0.48
      L1  H     6    55       P1  7948  1.00
      L1  H    13    43       P1  7957  0.93

> <Gold.Chemscore.Hbond.Weighted>
-9.1217

> <Gold.Chemscore.Metal.Weighted>
-0.0000

> <Gold.Chemscore.Lipo.Weighted>
-12.6643

> <Gold.Chemscore.Internal_Hbond.Weighted>
0.0000

> <Gold.Chemscore.DEClash.Weighted>
0.0840

> <Gold.Chemscore.DEInternal.Weighted>
2.9244

> <Gold.Chemscore.Rot.Weighted>
4.0899

> <Gold.Chemscore.Internal.Correction.Weighted>
   9.000000E+99

> <Gold.Protein.RotatedTorsions>
[ 6907 6896 6895 6894 ] final -136.78 input  -60.11 | X-H torsion
[ 7974 7965 7964 7962 ] final   89.84 input  175.53 | X-H torsion
[ 8008 7997 7996 7995 ] final -105.83 input   59.86 | X-H torsion
[ 10167 10162 10161 10158 ] final  -91.35 input  -65.29 | X-H torsion
[ 10718 10713 10712 10709 ] final  165.49 input   66.30 | X-H torsion
[ 10763 10752 10751 10750 ] final  -22.47 input  -60.55 | X-H torsion
[ 11005 11000 10999 10996 ] final   59.58 input  -57.11 | X-H torsion

> <Gold.Protein.ActiveResidues>
 VAL166  LYS551  ARG553  GLY616  TRP617  ASP618  TYR619  PRO620  LYS621  CYS622 
 ASP623  PHE694  ASN695  SER759  ASP760  ASP761  ALA762  ILE779  LEU786  VAL792 
 PHE793  MET794  SER795  GLU796  ALA797  LYS798  CYS799  TRP800  GLU811  SER814 

> <Gold.Protein.RotatedAtoms>
  151.0143  133.5935  159.2678 H   0  0  0  0  0  0  0  0  0  0  0  0  # atno 6907 bound_to 6896
  151.3075  135.0784  159.9270 H   0  0  0  0  0  0  0  0  0  0  0  0  # atno 6908 bound_to 6896
  152.5307  133.9814  159.7862 H   0  0  0  0  0  0  0  0  0  0  0  0  # atno 6909 bound_to 6896
  145.5270  139.2281  143.2640 H   0  0  0  0  0  0  0  0  0  0  0  0  # atno 7974 bound_to 7965
  154.9057  140.0411  157.1918 H   0  0  0  0  0  0  0  0  0  0  0  0  # atno 8008 bound_to 7997
  154.8399  140.2912  155.5645 H   0  0  0  0  0  0  0  0  0  0  0  0  # atno 8009 bound_to 7997
  156.2991  140.2485  156.3339 H   0  0  0  0  0  0  0  0  0  0  0  0  # atno 8010 bound_to 7997
  140.3457  143.2918  151.9784 H   0  0  0  0  0  0  0  0  0  0  0  0  # atno 10167 bound_to 10162
  157.0794  131.0388  151.2581 H   0  0  0  0  0  0  0  0  0  0  0  0  # atno 10718 bound_to 10713
  153.6524  135.6980  153.5204 H   0  0  0  0  0  0  0  0  0  0  0  0  # atno 10763 bound_to 10752
  153.2696  135.4219  155.0974 H   0  0  0  0  0  0  0  0  0  0  0  0  # atno 10764 bound_to 10752
  154.8473  135.3575  154.6069 H   0  0  0  0  0  0  0  0  0  0  0  0  # atno 10765 bound_to 10752
  140.0293  134.6035  155.9529 H   0  0  0  0  0  0  0  0  0  0  0  0  # atno 11005 bound_to 11000
  146.2069  140.6085  142.9077 LP  0  0  0  0  0  0  0  0  0  0  0  0  # atno 17320 bound_to 7965
  144.7646  140.5500  143.6712 LP  0  0  0  0  0  0  0  0  0  0  0  0  # atno 17321 bound_to 7965
  139.4833  144.6119  151.7418 LP  0  0  0  0  0  0  0  0  0  0  0  0  # atno 17342 bound_to 10162
  140.5266  144.0795  150.6040 LP  0  0  0  0  0  0  0  0  0  0  0  0  # atno 17343 bound_to 10162
  157.4813  130.7767  149.7417 LP  0  0  0  0  0  0  0  0  0  0  0  0  # atno 17370 bound_to 10713
  155.9928  130.3928  150.2927 LP  0  0  0  0  0  0  0  0  0  0  0  0  # atno 17371 bound_to 10713
  141.1822  133.6548  156.5066 LP  0  0  0  0  0  0  0  0  0  0  0  0  # atno 17394 bound_to 11000
  140.4252  134.7151  157.4912 LP  0  0  0  0  0  0  0  0  0  0  0  0  # atno 17395 bound_to 11000

$$$$
