AV-unprocessed.smi:2245|AV-procd|sdf|9081|dock8
  -GOLD-   2272012283D 1   1.00000     0.00000
 Structure written by MMmdl.
 45 46  0  0  0  0  0  0  0  0  2 V2000
  151.9423  145.8832  160.0050 C   0  0  0  0  0  0  0  0  0  0  0  0
  151.9281  144.4954  159.3992 C   0  0  0  0  0  0  0  0  0  0  0  0
  152.7696  143.4837  159.8992 C   0  0  0  0  0  0  0  0  0  0  0  0
  152.7163  142.2139  159.2916 C   0  0  0  0  0  0  0  0  0  0  0  0
  153.5909  141.0787  159.7807 C   0  0  0  0  0  0  0  0  0  0  0  0
  151.8981  141.9261  158.2570 N   0  0  0  0  0  0  0  0  0  0  0  0
  151.0832  142.8928  157.7669 C   0  0  0  0  0  0  0  0  0  0  0  0
  150.1891  142.6928  156.6815 N   0  0  0  0  0  0  0  0  0  0  0  0
  150.2287  141.7336  155.7400 C   0  0  0  0  0  0  0  0  0  0  0  0
  151.0639  140.8313  155.6752 O   0  0  0  0  0  0  0  0  0  0  0  0
  149.2317  141.8782  154.8549 N   0  0  0  0  0  0  0  0  0  0  0  0
  148.9863  140.9982  153.7164 C   0  0  0  0  0  0  0  0  0  0  0  0
  147.5110  140.5613  153.6159 C   0  0  1  0  0  0  0  0  0  0  0  0
  147.3163  139.0522  153.4824 C   0  0  0  0  0  0  0  0  0  0  0  0
  145.8867  138.8031  153.9823 C   0  0  0  0  0  0  0  0  0  0  0  0
  145.4671  140.0239  154.7130 N   0  3  1  0  0  0  0  0  0  0  0  0
  144.7462  139.7906  155.9878 C   0  0  0  0  0  0  0  0  0  0  0  0
  144.0792  141.0661  156.5325 C   0  0  0  0  0  0  0  0  0  0  0  0
  144.9928  141.7952  157.1712 F   0  0  0  0  0  0  0  0  0  0  0  0
  143.5832  141.7869  155.5270 F   0  0  0  0  0  0  0  0  0  0  0  0
  143.0999  140.7727  157.3872 F   0  0  0  0  0  0  0  0  0  0  0  0
  146.6563  140.8895  154.8401 C   0  0  0  0  0  0  0  0  0  0  0  0
  151.0754  144.1939  158.3178 C   0  0  0  0  0  0  0  0  0  0  0  0
  152.3093  145.8583  161.0315 H   0  0  0  0  0  0  0  0  0  0  0  0
  150.9392  146.3101  160.0145 H   0  0  0  0  0  0  0  0  0  0  0  0
  152.5904  146.5394  159.4237 H   0  0  0  0  0  0  0  0  0  0  0  0
  153.4376  143.6763  160.7261 H   0  0  0  0  0  0  0  0  0  0  0  0
  154.3345  141.4328  160.4954 H   0  0  0  0  0  0  0  0  0  0  0  0
  154.1171  140.6145  158.9460 H   0  0  0  0  0  0  0  0  0  0  0  0
  152.9818  140.3176  160.2690 H   0  0  0  0  0  0  0  0  0  0  0  0
  149.4365  143.3615  156.6128 H   0  0  0  0  0  0  0  0  0  0  0  0
  148.5857  142.6426  154.9873 H   0  0  0  0  0  0  0  0  0  0  0  0
  149.2957  141.4965  152.7962 H   0  0  0  0  0  0  0  0  0  0  0  0
  149.6297  140.1244  153.8237 H   0  0  0  0  0  0  0  0  0  0  0  0
  147.0530  141.0332  152.7448 H   0  0  0  0  0  0  0  0  0  0  0  0
  147.4711  138.6992  152.4623 H   0  0  0  0  0  0  0  0  0  0  0  0
  148.0228  138.5249  154.1253 H   0  0  0  0  0  0  0  0  0  0  0  0
  145.2030  138.6437  153.1482 H   0  0  0  0  0  0  0  0  0  0  0  0
  145.8557  137.9129  154.6116 H   0  0  0  0  0  0  0  0  0  0  0  0
  144.0152  138.9897  155.8663 H   0  0  0  0  0  0  0  0  0  0  0  0
  145.4683  139.4413  156.7274 H   0  0  0  0  0  0  0  0  0  0  0  0
  147.1990  140.6389  155.7535 H   0  0  0  0  0  0  0  0  0  0  0  0
  146.3783  141.9430  154.8884 H   0  0  0  0  0  0  0  0  0  0  0  0
  150.4221  144.9556  157.9169 H   0  0  0  0  0  0  0  0  0  0  0  0
  144.8338  140.5173  154.0996 H   0  0  0  0  0  0  0  0  0  0  0  0
  1  2  1  0  0  0  0
  1 24  1  0  0  0  0
  1 25  1  0  0  0  0
  1 26  1  0  0  0  0
  2 23  1  0  0  0  0
  2  3  2  0  0  0  0
  3  4  1  0  0  0  0
  3 27  1  0  0  0  0
  4  5  1  0  0  0  0
  4  6  2  0  0  0  0
  5 28  1  0  0  0  0
  5 29  1  0  0  0  0
  5 30  1  0  0  0  0
  6  7  1  0  0  0  0
  7  8  1  0  0  0  0
  7 23  2  0  0  0  0
  8  9  1  0  0  0  0
  8 31  1  0  0  0  0
  9 10  2  0  0  0  0
  9 11  1  0  0  0  0
 11 12  1  0  0  0  0
 11 32  1  0  0  0  0
 12 13  1  0  0  0  0
 12 33  1  0  0  0  0
 12 34  1  0  0  0  0
 13 22  1  0  0  0  0
 13 14  1  0  0  0  0
 13 35  1  0  0  0  0
 14 15  1  0  0  0  0
 14 36  1  0  0  0  0
 14 37  1  0  0  0  0
 15 16  1  0  0  0  0
 15 38  1  0  0  0  0
 15 39  1  0  0  0  0
 16 17  1  0  0  0  0
 16 22  1  0  0  0  0
 16 45  1  0  0  0  0
 17 18  1  0  0  0  0
 17 40  1  0  0  0  0
 17 41  1  0  0  0  0
 18 19  1  0  0  0  0
 18 20  1  0  0  0  0
 18 21  1  0  0  0  0
 22 42  1  0  0  0  0
 22 43  1  0  0  0  0
 23 44  1  0  0  0  0
M  CHG  1  16   1
M  END
> <s_m_source_file>
AV-unprocessed.smi

> <i_m_source_file_index>
2245

> <i_lp_mmshare_version>
43012

> <i_f3d_flags>
0

> <s_epik_input>
W0NIM11jMVtjSF1jKFtDSDNdKW5jKFtjSF0xKVtOSF1DKD1PKVtOSF1bQ0gyXVtDQEBIXTJbQ0gyXVtDSDJdTihbQ0gyXTIpW0NIMl1DKEYpKEYpRg==

> <s_epik_cmdline>
J2VwaWtfcHl0aG9uJywgJy1waCcsICc3LjAnLCAnLXRuJywgJzgnLCAnLW1hJywgJzIwMCcsICctbWV0YWxfYmluZGluZycsICctaW1hZScsICc8aW5maWxlLm1hZT4nLCAnLW9tYWUnLCAnPG91dGZpbGUubWFlPic=

> <r_epik_Ionization_Penalty>
0.628315

> <r_epik_Ionization_Penalty_Charging>
0.628113

> <r_epik_Ionization_Penalty_Neutral>
0.000202271

> <r_epik_State_Penalty>
0.644725

> <r_epik_Charging_Adjusted_Penalty>
1.27284

> <i_epik_Tot_Q>
1

> <i_epik_Tot_abs_Q>
1

> <r_epik_Metal_State_Penalty>
0.644752

> <b_epik_Metal_Only>
0

> <s_lp_Force_Field>
OPLS_2005

> <r_lp_Energy>
28.8991

> <b_lp_Chiralities_Consistent>
1

> <s_lp_Variant>
AV-unprocessed.smi:2245-6

> <Gold.Version>
5.8.1

> <Gold.Id.Protein>
6NUR|6NUR_protein|mol2

> <Gold.PLP.Fitness>
47.6867

> <Gold.PLP.PLP>
-39.0856

> <Gold.PLP.part.hbond>
-3.8981

> <Gold.PLP.part.metal>
0.0000

> <Gold.PLP.part.buried>
-0.3316

> <Gold.PLP.part.nonpolar>
-34.9683

> <Gold.PLP.part.repulsive>
0.2964

> <Gold.PLP.ligand.clash>
0.0000

> <Gold.PLP.ligand.torsion>
1.2195

> <Gold.PLP.Chemscore.Hbond>
3.5392

> <Gold.PLP.Chemscore.CHOScore>
0.0000

> <Gold.PLP.Chemscore.Metal>
0.0000

> <Gold.Chemscore.Hbonds>
donor molecule, donor type, donor heavy atom, donor atom, acceptor molecule, acceptor atom, score
      L1  H     8    31       P1  8028  0.85
      L1  H    11    32       P1  8028  0.39
      L1  H    16    45       P1 10175  1.95
      P1  H  7989  7998       L1    10  0.35

> <Gold.PLP.Chemscore.Internal.Correction>
0.4226

> <Gold.Rescore>
     Score         DG    S(hbond)    S(metal)    S(lipo)     H(rot)  DE(clash)    DE(int)     intcor
     16.80     -20.80       2.36        0.00      98.77       1.61       1.41       2.58       ----

> <Gold.Chemscore.Fitness>
16.8041

> <Gold.Chemscore.DG>
-20.7952

> <Gold.Chemscore.ZeroCoef>
-5.4800

> <Gold.Chemscore.Hbond>
2.3627

> <Gold.Chemscore.Metal>
0.0000

> <Gold.Chemscore.Lipo>
98.7720

> <Gold.Chemscore.Internal_Hbond>
0.0000

> <Gold.Chemscore.DEClash>
1.4080

> <Gold.Chemscore.DEInternal>
2.5831

> <Gold.Chemscore.Rot>
1.6143

> <Gold.Chemscore.Internal.Correction>
   9.000000E+99

> <Gold.Chemscore.Hbonds>
donor molecule, donor type, donor heavy atom, donor atom, acceptor molecule, acceptor atom, score
      L1  H     8    31       P1  8028  0.83
      L1  H    11    32       P1  8028  0.40
      L1  H    16    45       P1 10175  0.91
      P1  H  7989  7998       L1    10  0.13

> <Gold.Chemscore.Hbond.Weighted>
-7.8913

> <Gold.Chemscore.Metal.Weighted>
-0.0000

> <Gold.Chemscore.Lipo.Weighted>
-11.5563

> <Gold.Chemscore.Internal_Hbond.Weighted>
0.0000

> <Gold.Chemscore.DEClash.Weighted>
1.4080

> <Gold.Chemscore.DEInternal.Weighted>
2.5831

> <Gold.Chemscore.Rot.Weighted>
4.1325

> <Gold.Chemscore.Internal.Correction.Weighted>
   9.000000E+99

> <Gold.Protein.RotatedTorsions>
[ 6907 6896 6895 6894 ] final -175.97 input  -60.11 | X-H torsion
[ 7974 7965 7964 7962 ] final  106.67 input  175.53 | X-H torsion
[ 8008 7997 7996 7995 ] final   72.72 input   59.86 | X-H torsion
[ 10167 10162 10161 10158 ] final  -53.01 input  -65.29 | X-H torsion
[ 10718 10713 10712 10709 ] final  148.45 input   66.30 | X-H torsion
[ 10763 10752 10751 10750 ] final -146.30 input  -60.55 | X-H torsion
[ 11005 11000 10999 10996 ] final   14.51 input  -57.11 | X-H torsion

> <Gold.Protein.ActiveResidues>
 VAL166  LYS551  ARG553  GLY616  TRP617  ASP618  TYR619  PRO620  LYS621  CYS622 
 ASP623  PHE694  ASN695  SER759  ASP760  ASP761  ALA762  ILE779  LEU786  VAL792 
 PHE793  MET794  SER795  GLU796  ALA797  LYS798  CYS799  TRP800  GLU811  SER814 

> <Gold.Protein.RotatedAtoms>
  151.5972  133.3360  159.3039 H   0  0  0  0  0  0  0  0  0  0  0  0  # atno 6907 bound_to 6896
  150.8227  134.7447  159.6798 H   0  0  0  0  0  0  0  0  0  0  0  0  # atno 6908 bound_to 6896
  152.4319  134.5766  159.9987 H   0  0  0  0  0  0  0  0  0  0  0  0  # atno 6909 bound_to 6896
  145.3037  139.2561  143.3800 H   0  0  0  0  0  0  0  0  0  0  0  0  # atno 7974 bound_to 7965
  155.7730  140.3484  155.5257 H   0  0  0  0  0  0  0  0  0  0  0  0  # atno 8008 bound_to 7997
  155.8803  140.1001  157.1511 H   0  0  0  0  0  0  0  0  0  0  0  0  # atno 8009 bound_to 7997
  154.4024  140.1324  156.4175 H   0  0  0  0  0  0  0  0  0  0  0  0  # atno 8010 bound_to 7997
  140.6507  143.2564  151.4731 H   0  0  0  0  0  0  0  0  0  0  0  0  # atno 10167 bound_to 10162
  157.3084  131.0883  151.1335 H   0  0  0  0  0  0  0  0  0  0  0  0  # atno 10718 bound_to 10713
  154.8342  135.3390  154.6640 H   0  0  0  0  0  0  0  0  0  0  0  0  # atno 10763 bound_to 10752
  153.7256  135.6955  153.5006 H   0  0  0  0  0  0  0  0  0  0  0  0  # atno 10764 bound_to 10752
  153.2349  135.4404  155.0588 H   0  0  0  0  0  0  0  0  0  0  0  0  # atno 10765 bound_to 10752
  140.4687  134.1053  155.7729 H   0  0  0  0  0  0  0  0  0  0  0  0  # atno 11005 bound_to 11000
  146.3143  140.3556  142.8660 LP  0  0  0  0  0  0  0  0  0  0  0  0  # atno 17320 bound_to 7965
  144.9073  140.7715  143.5829 LP  0  0  0  0  0  0  0  0  0  0  0  0  # atno 17321 bound_to 7965
  139.5722  144.1902  152.1852 LP  0  0  0  0  0  0  0  0  0  0  0  0  # atno 17342 bound_to 10162
  140.1202  144.5380  150.6868 LP  0  0  0  0  0  0  0  0  0  0  0  0  # atno 17343 bound_to 10162
  157.2667  130.6684  149.6000 LP  0  0  0  0  0  0  0  0  0  0  0  0  # atno 17370 bound_to 10713
  155.9676  130.4492  150.5648 LP  0  0  0  0  0  0  0  0  0  0  0  0  # atno 17371 bound_to 10713
  141.1587  133.8834  157.1907 LP  0  0  0  0  0  0  0  0  0  0  0  0  # atno 17394 bound_to 11000
  139.9899  135.0068  156.9950 LP  0  0  0  0  0  0  0  0  0  0  0  0  # atno 17395 bound_to 11000

$$$$
