AV-unprocessed.smi:2605|AV-procd|sdf|10195|dock3
  -GOLD-   2272014203D 1   1.00000     0.00000
 Structure written by MMmdl.
 26 27  0  0  0  0  0  0  0  0  2 V2000
  151.8487  140.3602  155.6186 C   0  0  0  0  0  0  0  0  0  0  0  0
  150.4653  140.3075  155.3542 C   0  0  0  0  0  0  0  0  0  0  0  0
  149.9608  139.2233  154.6052 C   0  0  0  0  0  0  0  0  0  0  0  0
  148.4769  139.1333  154.2853 C   0  0  2  0  0  0  0  0  0  0  0  0
  147.7390  138.0720  155.1343 C   0  0  0  0  0  0  0  0  0  0  0  0
  146.3187  138.0605  154.7953 N   0  0  0  0  0  0  0  0  0  0  0  0
  146.1713  137.6932  153.3904 C   0  0  0  0  0  0  0  0  0  0  0  0
  146.8574  138.7470  152.5008 C   0  0  0  0  0  0  0  0  0  0  0  0
  148.2894  138.8492  152.8469 N   0  3  0  0  0  0  0  0  0  0  0  0
  150.8709  138.2447  154.1482 C   0  0  0  0  0  0  0  0  0  0  0  0
  152.2358  138.3915  154.4678 C   0  0  0  0  0  0  0  0  0  0  0  0
  152.7216  139.4253  155.1870 N   0  0  0  0  0  0  0  0  0  0  0  0
  152.2646  141.1763  156.1907 H   0  0  0  0  0  0  0  0  0  0  0  0
  149.8119  141.0847  155.7229 H   0  0  0  0  0  0  0  0  0  0  0  0
  148.0300  140.1083  154.4897 H   0  0  0  0  0  0  0  0  0  0  0  0
  148.1560  137.0759  154.9822 H   0  0  0  0  0  0  0  0  0  0  0  0
  147.8422  138.3039  156.1948 H   0  0  0  0  0  0  0  0  0  0  0  0
  145.8387  137.3844  155.3737 H   0  0  0  0  0  0  0  0  0  0  0  0
  146.5930  136.7021  153.2167 H   0  0  0  0  0  0  0  0  0  0  0  0
  145.1094  137.6355  153.1500 H   0  0  0  0  0  0  0  0  0  0  0  0
  146.7640  138.4755  151.4493 H   0  0  0  0  0  0  0  0  0  0  0  0
  146.3818  139.7213  152.6232 H   0  0  0  0  0  0  0  0  0  0  0  0
  148.7177  139.5835  152.3017 H   0  0  0  0  0  0  0  0  0  0  0  0
  150.5408  137.3993  153.5631 H   0  0  0  0  0  0  0  0  0  0  0  0
  152.9567  137.6603  154.1332 H   0  0  0  0  0  0  0  0  0  0  0  0
  148.7401  137.9713  152.6324 H   0  0  0  0  0  0  0  0  0  0  0  0
  1 12  1  0  0  0  0
  1  2  2  0  0  0  0
  1 13  1  0  0  0  0
  2  3  1  0  0  0  0
  2 14  1  0  0  0  0
  3  4  1  0  0  0  0
  3 10  2  0  0  0  0
  4  9  1  0  0  0  0
  4  5  1  0  0  0  0
  4 15  1  0  0  0  0
  5  6  1  0  0  0  0
  5 16  1  0  0  0  0
  5 17  1  0  0  0  0
  6  7  1  0  0  0  0
  6 18  1  0  0  0  0
  7  8  1  0  0  0  0
  7 19  1  0  0  0  0
  7 20  1  0  0  0  0
  8  9  1  0  0  0  0
  8 21  1  0  0  0  0
  8 22  1  0  0  0  0
  9 23  1  0  0  0  0
  9 26  1  0  0  0  0
 10 11  1  0  0  0  0
 10 24  1  0  0  0  0
 11 12  2  0  0  0  0
 11 25  1  0  0  0  0
M  CHG  1   9   1
M  END
> <s_m_source_file>
AV-unprocessed.smi

> <i_m_source_file_index>
2605

> <i_lp_mmshare_version>
43012

> <i_f3d_flags>
0

> <s_epik_input>
W2NIXTFbY0hdbltjSF1bY0hdYzFbQ0BASF0yW0NIMl1bTkhdW0NIMl1bQ0gyXVtOSF0y

> <s_epik_cmdline>
J2VwaWtfcHl0aG9uJywgJy1waCcsICc3LjAnLCAnLXRuJywgJzgnLCAnLW1hJywgJzIwMCcsICctbWV0YWxfYmluZGluZycsICctaW1hZScsICc8aW5maWxlLm1hZT4nLCAnLW9tYWUnLCAnPG91dGZpbGUubWFlPic=

> <r_epik_Ionization_Penalty>
0.0246915

> <r_epik_Ionization_Penalty_Charging>
0.015072

> <r_epik_Ionization_Penalty_Neutral>
0.00961942

> <r_epik_State_Penalty>
0.518662

> <r_epik_Charging_Adjusted_Penalty>
0.533734

> <i_epik_Tot_Q>
1

> <i_epik_Tot_abs_Q>
1

> <r_epik_Metal_State_Penalty>
0.520249

> <b_epik_Metal_Only>
0

> <s_lp_Force_Field>
OPLS_2005

> <r_lp_Energy>
7.08803

> <b_lp_Chiralities_Consistent>
1

> <s_lp_Variant>
AV-unprocessed.smi:2605-3

> <Gold.Version>
5.8.1

> <Gold.Id.Protein>
6NUR|6NUR_protein|mol2

> <Gold.PLP.Fitness>
34.4063

> <Gold.PLP.PLP>
-23.0641

> <Gold.PLP.part.hbond>
-2.9063

> <Gold.PLP.part.metal>
0.0000

> <Gold.PLP.part.buried>
-2.9664

> <Gold.PLP.part.nonpolar>
-18.0082

> <Gold.PLP.part.repulsive>
0.0778

> <Gold.PLP.ligand.clash>
0.0000

> <Gold.PLP.ligand.torsion>
0.3228

> <Gold.PLP.Chemscore.Hbond>
3.9920

> <Gold.PLP.Chemscore.CHOScore>
0.0000

> <Gold.PLP.Chemscore.Metal>
0.0000

> <Gold.Chemscore.Hbonds>
donor molecule, donor type, donor heavy atom, donor atom, acceptor molecule, acceptor atom, score
      L1  H     9    23       P1  7957  0.94
      L1  H     9    26       P1  7948  2.00
      P1  H  7997  8010       L1    12  0.95

> <Gold.PLP.Chemscore.Internal.Correction>
0.0118

> <Gold.Rescore>
     Score         DG    S(hbond)    S(metal)    S(lipo)     H(rot)  DE(clash)    DE(int)     intcor
     18.25     -18.54       2.74        0.00      55.26       1.00       0.13       0.16       ----

> <Gold.Chemscore.Fitness>
18.2499

> <Gold.Chemscore.DG>
-18.5351

> <Gold.Chemscore.ZeroCoef>
-5.4800

> <Gold.Chemscore.Hbond>
2.7395

> <Gold.Chemscore.Metal>
0.0000

> <Gold.Chemscore.Lipo>
55.2572

> <Gold.Chemscore.Internal_Hbond>
0.0000

> <Gold.Chemscore.DEClash>
0.1256

> <Gold.Chemscore.DEInternal>
0.1595

> <Gold.Chemscore.Rot>
1.0000

> <Gold.Chemscore.Internal.Correction>
   9.000000E+99

> <Gold.Chemscore.Hbonds>
donor molecule, donor type, donor heavy atom, donor atom, acceptor molecule, acceptor atom, score
      L1  H     9    23       P1  7957  0.85
      L1  H     9    26       P1  7948  0.99
      P1  H  7997  8010       L1    12  0.21

> <Gold.Chemscore.Hbond.Weighted>
-9.1500

> <Gold.Chemscore.Metal.Weighted>
-0.0000

> <Gold.Chemscore.Lipo.Weighted>
-6.4651

> <Gold.Chemscore.Internal_Hbond.Weighted>
0.0000

> <Gold.Chemscore.DEClash.Weighted>
0.1256

> <Gold.Chemscore.DEInternal.Weighted>
0.1595

> <Gold.Chemscore.Rot.Weighted>
2.5600

> <Gold.Chemscore.Internal.Correction.Weighted>
   9.000000E+99

> <Gold.Protein.RotatedTorsions>
[ 6907 6896 6895 6894 ] final   99.19 input  -60.11 | X-H torsion
[ 7974 7965 7964 7962 ] final  -67.91 input  175.53 | X-H torsion
[ 8008 7997 7996 7995 ] final   96.22 input   59.86 | X-H torsion
[ 10167 10162 10161 10158 ] final  177.33 input  -65.29 | X-H torsion
[ 10718 10713 10712 10709 ] final  107.40 input   66.30 | X-H torsion
[ 10763 10752 10751 10750 ] final  174.40 input  -60.55 | X-H torsion
[ 11005 11000 10999 10996 ] final  -29.84 input  -57.11 | X-H torsion

> <Gold.Protein.ActiveResidues>
 VAL166  LYS551  ARG553  GLY616  TRP617  ASP618  TYR619  PRO620  LYS621  CYS622 
 ASP623  PHE694  ASN695  SER759  ASP760  ASP761  ALA762  ILE779  LEU786  VAL792 
 PHE793  MET794  SER795  GLU796  ALA797  LYS798  CYS799  TRP800  GLU811  SER814 

> <Gold.Protein.RotatedAtoms>
  152.5396  134.0466  159.8090 H   0  0  0  0  0  0  0  0  0  0  0  0  # atno 6907 bound_to 6896
  151.0613  133.5534  159.2641 H   0  0  0  0  0  0  0  0  0  0  0  0  # atno 6908 bound_to 6896
  151.2431  135.0604  159.9087 H   0  0  0  0  0  0  0  0  0  0  0  0  # atno 6909 bound_to 6896
  145.7232  140.9029  143.0619 H   0  0  0  0  0  0  0  0  0  0  0  0  # atno 7974 bound_to 7965
  156.0773  140.3275  155.7650 H   0  0  0  0  0  0  0  0  0  0  0  0  # atno 8008 bound_to 7997
  155.5209  140.0585  157.2924 H   0  0  0  0  0  0  0  0  0  0  0  0  # atno 8009 bound_to 7997
  154.4562  140.1944  156.0389 H   0  0  0  0  0  0  0  0  0  0  0  0  # atno 8010 bound_to 7997
  139.5249  144.2811  152.0546 H   0  0  0  0  0  0  0  0  0  0  0  0  # atno 10167 bound_to 10162
  157.6630  131.0872  150.6150 H   0  0  0  0  0  0  0  0  0  0  0  0  # atno 10718 bound_to 10713
  154.4534  135.2765  155.1764 H   0  0  0  0  0  0  0  0  0  0  0  0  # atno 10763 bound_to 10752
  154.3582  135.6135  153.5681 H   0  0  0  0  0  0  0  0  0  0  0  0  # atno 10764 bound_to 10752
  152.9849  135.5828  154.4883 H   0  0  0  0  0  0  0  0  0  0  0  0  # atno 10765 bound_to 10752
  140.9331  133.7325  156.0965 H   0  0  0  0  0  0  0  0  0  0  0  0  # atno 11005 bound_to 11000
  144.6911  139.9231  143.7468 LP  0  0  0  0  0  0  0  0  0  0  0  0  # atno 17320 bound_to 7965
  146.0606  139.3600  143.0584 LP  0  0  0  0  0  0  0  0  0  0  0  0  # atno 17321 bound_to 7965
  140.2266  144.4411  150.6318 LP  0  0  0  0  0  0  0  0  0  0  0  0  # atno 17342 bound_to 10162
  140.6383  143.2199  151.6346 LP  0  0  0  0  0  0  0  0  0  0  0  0  # atno 17343 bound_to 10162
  156.6452  130.4469  149.5738 LP  0  0  0  0  0  0  0  0  0  0  0  0  # atno 17370 bound_to 10713
  156.2179  130.6719  151.1338 LP  0  0  0  0  0  0  0  0  0  0  0  0  # atno 17371 bound_to 10713
  140.7835  134.3698  157.5481 LP  0  0  0  0  0  0  0  0  0  0  0  0  # atno 17394 bound_to 11000
  139.8801  134.9097  156.2996 LP  0  0  0  0  0  0  0  0  0  0  0  0  # atno 17395 bound_to 11000

$$$$
