AV-unprocessed.smi:1041|AV-procd|sdf|4529|dock4
  -GOLD-   22720 2553D 1   1.00000     0.00000
 Structure written by MMmdl.
 53 54  0  0  0  0  0  0  0  0  2 V2000
  151.3991  144.4265  159.2136 C   0  0  0  0  0  0  0  0  0  0  0  0
  151.1587  143.7321  158.0020 O   0  0  0  0  0  0  0  0  0  0  0  0
  150.2975  142.6189  158.1743 C   0  0  0  0  0  0  0  0  0  0  0  0
  150.3072  141.7821  156.8856 C   0  0  0  0  0  0  0  0  0  0  0  0
  149.0399  141.9042  156.1216 N   0  3  2  0  0  0  0  0  0  0  0  0
  147.8722  141.3884  156.8819 C   0  0  0  0  0  0  0  0  0  0  0  0
  146.5536  141.6412  156.1265 C   0  0  0  0  0  0  0  0  0  0  0  0
  146.5746  141.0554  154.7022 C   0  0  2  0  0  0  0  0  0  0  0  0
  146.4429  139.5139  154.7066 C   0  0  0  0  0  0  0  0  0  0  0  0
  145.2285  139.0710  154.0306 N   0  0  0  0  0  0  0  0  0  0  0  0
  144.7823  137.8063  153.9777 C   0  0  0  0  0  0  0  0  0  0  0  0
  145.3221  136.8674  154.5617 O   0  0  0  0  0  0  0  0  0  0  0  0
  143.5580  137.5613  153.0973 C   0  0  0  0  0  0  0  0  0  0  0  0
  142.2312  137.5138  153.8523 C   0  0  0  0  0  0  0  0  0  0  0  0
  141.3220  136.5054  153.7051 C   0  0  0  0  0  0  0  0  0  0  0  0
  141.5439  135.3199  152.7819 C   0  0  0  0  0  0  0  0  0  0  0  0
  140.1105  136.5007  154.4101 N   0  0  0  0  0  0  0  0  0  0  0  0
  139.8545  137.4788  155.2148 C   0  0  0  0  0  0  0  0  0  0  0  0
  138.5861  137.5889  156.0342 C   0  0  0  0  0  0  0  0  0  0  0  0
  140.7356  138.5418  155.4048 N   0  0  0  0  0  0  0  0  0  0  0  0
  141.9236  138.6311  154.7662 C   0  0  0  0  0  0  0  0  0  0  0  0
  142.6599  139.5983  154.9545 O   0  0  0  0  0  0  0  0  0  0  0  0
  147.8237  141.5897  153.9699 C   0  0  0  0  0  0  0  0  0  0  0  0
  149.1142  141.3137  154.7590 C   0  0  0  0  0  0  0  0  0  0  0  0
  140.4803  139.2813  156.0429 H   0  0  0  0  0  0  0  0  0  0  0  0
  152.0592  145.2732  159.0258 H   0  0  0  0  0  0  0  0  0  0  0  0
  151.8815  143.7805  159.9485 H   0  0  0  0  0  0  0  0  0  0  0  0
  150.4713  144.8107  159.6396 H   0  0  0  0  0  0  0  0  0  0  0  0
  150.5971  142.0278  159.0399 H   0  0  0  0  0  0  0  0  0  0  0  0
  149.2835  142.9726  158.3670 H   0  0  0  0  0  0  0  0  0  0  0  0
  151.1472  142.0665  156.2503 H   0  0  0  0  0  0  0  0  0  0  0  0
  150.4725  140.7402  157.1638 H   0  0  0  0  0  0  0  0  0  0  0  0
  148.0056  140.3248  157.0823 H   0  0  0  0  0  0  0  0  0  0  0  0
  147.8221  141.8840  157.8523 H   0  0  0  0  0  0  0  0  0  0  0  0
  145.7147  141.2336  156.6916 H   0  0  0  0  0  0  0  0  0  0  0  0
  146.3818  142.7169  156.0676 H   0  0  0  0  0  0  0  0  0  0  0  0
  145.6997  141.4409  154.1764 H   0  0  0  0  0  0  0  0  0  0  0  0
  147.3244  139.0421  154.2716 H   0  0  0  0  0  0  0  0  0  0  0  0
  146.3929  139.1564  155.7354 H   0  0  0  0  0  0  0  0  0  0  0  0
  144.7136  139.7724  153.5171 H   0  0  0  0  0  0  0  0  0  0  0  0
  143.5217  138.3449  152.3407 H   0  0  0  0  0  0  0  0  0  0  0  0
  143.6991  136.6405  152.5288 H   0  0  0  0  0  0  0  0  0  0  0  0
  142.4149  134.7452  153.0979 H   0  0  0  0  0  0  0  0  0  0  0  0
  141.6992  135.6530  151.7562 H   0  0  0  0  0  0  0  0  0  0  0  0
  140.6843  134.6487  152.7860 H   0  0  0  0  0  0  0  0  0  0  0  0
  137.7161  137.6138  155.3776 H   0  0  0  0  0  0  0  0  0  0  0  0
  138.5781  138.4918  156.6466 H   0  0  0  0  0  0  0  0  0  0  0  0
  138.4919  136.7275  156.6960 H   0  0  0  0  0  0  0  0  0  0  0  0
  147.9007  141.1758  152.9646 H   0  0  0  0  0  0  0  0  0  0  0  0
  147.7208  142.6669  153.8329 H   0  0  0  0  0  0  0  0  0  0  0  0
  149.9540  141.7353  154.2086 H   0  0  0  0  0  0  0  0  0  0  0  0
  149.2968  140.2409  154.8313 H   0  0  0  0  0  0  0  0  0  0  0  0
  148.8776  142.8943  156.0037 H   0  0  0  0  0  0  0  0  0  0  0  0
  1  2  1  0  0  0  0
  1 26  1  0  0  0  0
  1 27  1  0  0  0  0
  1 28  1  0  0  0  0
  2  3  1  0  0  0  0
  3  4  1  0  0  0  0
  3 29  1  0  0  0  0
  3 30  1  0  0  0  0
  4  5  1  0  0  0  0
  4 31  1  0  0  0  0
  4 32  1  0  0  0  0
  5 24  1  0  0  0  0
  5  6  1  0  0  0  0
  5 53  1  0  0  0  0
  6  7  1  0  0  0  0
  6 33  1  0  0  0  0
  6 34  1  0  0  0  0
  7  8  1  0  0  0  0
  7 35  1  0  0  0  0
  7 36  1  0  0  0  0
  8  9  1  0  0  0  0
  8 23  1  0  0  0  0
  8 37  1  0  0  0  0
  9 10  1  0  0  0  0
  9 38  1  0  0  0  0
  9 39  1  0  0  0  0
 10 11  1  0  0  0  0
 10 40  1  0  0  0  0
 11 12  2  0  0  0  0
 11 13  1  0  0  0  0
 13 14  1  0  0  0  0
 13 41  1  0  0  0  0
 13 42  1  0  0  0  0
 14 21  1  0  0  0  0
 14 15  2  0  0  0  0
 15 16  1  0  0  0  0
 15 17  1  0  0  0  0
 16 43  1  0  0  0  0
 16 44  1  0  0  0  0
 16 45  1  0  0  0  0
 17 18  2  0  0  0  0
 18 19  1  0  0  0  0
 18 20  1  0  0  0  0
 19 46  1  0  0  0  0
 19 47  1  0  0  0  0
 19 48  1  0  0  0  0
 20 25  1  0  0  0  0
 20 21  1  0  0  0  0
 21 22  2  0  0  0  0
 23 24  1  0  0  0  0
 23 49  1  0  0  0  0
 23 50  1  0  0  0  0
 24 51  1  0  0  0  0
 24 52  1  0  0  0  0
M  CHG  1   5   1
M  END
> <s_m_source_file>
AV-unprocessed.smi

> <i_m_source_file_index>
1041

> <i_lp_mmshare_version>
43012

> <i_f3d_flags>
0

> <s_epik_input>
W0NIM11PW0NIMl1bQ0gyXU4xW0NIMl1bQ0gyXVtDSF0oW0NIMl1bQ0gyXTEpW0NIMl1bTkhdQyg9TylbQ0gyXWMyYyhbQ0gzXSluYyhbQ0gzXSlbbkhdYzI9Tw==

> <s_epik_cmdline>
J2VwaWtfcHl0aG9uJywgJy1waCcsICc3LjAnLCAnLXRuJywgJzgnLCAnLW1hJywgJzIwMCcsICctbWV0YWxfYmluZGluZycsICctaW1hZScsICc8aW5maWxlLm1hZT4nLCAnLW9tYWUnLCAnPG91dGZpbGUubWFlPic=

> <r_lp_tautomer_probability>
0.839158

> <r_epik_Ionization_Penalty>
0.00964357

> <r_epik_Ionization_Penalty_Charging>
0.00961423

> <r_epik_Ionization_Penalty_Neutral>
2.93415e-05

> <r_epik_State_Penalty>
0.0972512

> <r_epik_Charging_Adjusted_Penalty>
0.106865

> <i_epik_Tot_Q>
1

> <i_epik_Tot_abs_Q>
1

> <r_epik_Metal_State_Penalty>
0.270886

> <b_epik_Metal_Only>
0

> <s_lp_Force_Field>
OPLS_2005

> <r_lp_Energy>
21.6557

> <b_lp_Chiralities_Consistent>
1

> <s_lp_Variant>
AV-unprocessed.smi:1041-2

> <Gold.Version>
5.8.1

> <Gold.Id.Protein>
6NUR|6NUR_protein|mol2

> <Gold.PLP.Fitness>
42.6351

> <Gold.PLP.PLP>
-33.7560

> <Gold.PLP.part.hbond>
-3.0000

> <Gold.PLP.part.metal>
0.0000

> <Gold.PLP.part.buried>
-4.3321

> <Gold.PLP.part.nonpolar>
-26.6531

> <Gold.PLP.part.repulsive>
0.9539

> <Gold.PLP.ligand.clash>
0.0000

> <Gold.PLP.ligand.torsion>
1.5683

> <Gold.PLP.Chemscore.Hbond>
3.9600

> <Gold.PLP.Chemscore.CHOScore>
0.0000

> <Gold.PLP.Chemscore.Metal>
0.0000

> <Gold.Chemscore.Hbonds>
donor molecule, donor type, donor heavy atom, donor atom, acceptor molecule, acceptor atom, score
      L1  H     5    53       P1  8028  2.00
      L1  H    10    40       P1 10175  1.00
      P1  H 11000 11005       L1    17  0.06

> <Gold.PLP.Chemscore.Internal.Correction>
0.1356

> <Gold.Rescore>
     Score         DG    S(hbond)    S(metal)    S(lipo)     H(rot)  DE(clash)    DE(int)     intcor
     12.91     -17.24       2.65        0.00      78.06       2.43       0.08       4.24       ----

> <Gold.Chemscore.Fitness>
12.9135

> <Gold.Chemscore.DG>
-17.2417

> <Gold.Chemscore.ZeroCoef>
-5.4800

> <Gold.Chemscore.Hbond>
2.6489

> <Gold.Chemscore.Metal>
0.0000

> <Gold.Chemscore.Lipo>
78.0592

> <Gold.Chemscore.Internal_Hbond>
0.0000

> <Gold.Chemscore.DEClash>
0.0838

> <Gold.Chemscore.DEInternal>
4.2444

> <Gold.Chemscore.Rot>
2.4291

> <Gold.Chemscore.Internal.Correction>
   9.000000E+99

> <Gold.Chemscore.Hbonds>
donor molecule, donor type, donor heavy atom, donor atom, acceptor molecule, acceptor atom, score
      L1  H     5    53       P1  8028  1.00
      L1  H    10    40       P1 10175  0.99
      P1  H 11000 11005       L1    17  0.01

> <Gold.Chemscore.Hbond.Weighted>
-8.8474

> <Gold.Chemscore.Metal.Weighted>
-0.0000

> <Gold.Chemscore.Lipo.Weighted>
-9.1329

> <Gold.Chemscore.Internal_Hbond.Weighted>
0.0000

> <Gold.Chemscore.DEClash.Weighted>
0.0838

> <Gold.Chemscore.DEInternal.Weighted>
4.2444

> <Gold.Chemscore.Rot.Weighted>
6.2186

> <Gold.Chemscore.Internal.Correction.Weighted>
   9.000000E+99

> <Gold.Protein.RotatedTorsions>
[ 6907 6896 6895 6894 ] final -169.13 input  -60.11 | X-H torsion
[ 7974 7965 7964 7962 ] final  104.44 input  175.53 | X-H torsion
[ 8008 7997 7996 7995 ] final   -8.47 input   59.86 | X-H torsion
[ 10167 10162 10161 10158 ] final -133.60 input  -65.29 | X-H torsion
[ 10718 10713 10712 10709 ] final -127.61 input   66.30 | X-H torsion
[ 10763 10752 10751 10750 ] final -178.85 input  -60.55 | X-H torsion
[ 11005 11000 10999 10996 ] final   78.08 input  -57.11 | X-H torsion

> <Gold.Protein.ActiveResidues>
 VAL166  LYS551  ARG553  GLY616  TRP617  ASP618  TYR619  PRO620  LYS621  CYS622 
 ASP623  PHE694  ASN695  SER759  ASP760  ASP761  ALA762  ILE779  LEU786  VAL792 
 PHE793  MET794  SER795  GLU796  ALA797  LYS798  CYS799  TRP800  GLU811  SER814 

> <Gold.Protein.RotatedAtoms>
  151.4868  133.3534  159.2846 H   0  0  0  0  0  0  0  0  0  0  0  0  # atno 6907 bound_to 6896
  150.8861  134.8261  159.7271 H   0  0  0  0  0  0  0  0  0  0  0  0  # atno 6908 bound_to 6896
  152.4794  134.4771  159.9706 H   0  0  0  0  0  0  0  0  0  0  0  0  # atno 6909 bound_to 6896
  145.3328  139.2482  143.3652 H   0  0  0  0  0  0  0  0  0  0  0  0  # atno 7974 bound_to 7965
  154.5739  140.2380  155.8152 H   0  0  0  0  0  0  0  0  0  0  0  0  # atno 8008 bound_to 7997
  156.2128  140.3021  155.9728 H   0  0  0  0  0  0  0  0  0  0  0  0  # atno 8009 bound_to 7997
  155.2663  140.0416  157.2993 H   0  0  0  0  0  0  0  0  0  0  0  0  # atno 8010 bound_to 7997
  139.8966  143.6658  152.2603 H   0  0  0  0  0  0  0  0  0  0  0  0  # atno 10167 bound_to 10162
  156.1873  130.6772  151.0380 H   0  0  0  0  0  0  0  0  0  0  0  0  # atno 10718 bound_to 10713
  154.5425  135.2807  155.1082 H   0  0  0  0  0  0  0  0  0  0  0  0  # atno 10763 bound_to 10752
  154.2560  135.6330  153.5261 H   0  0  0  0  0  0  0  0  0  0  0  0  # atno 10764 bound_to 10752
  152.9982  135.5594  154.5968 H   0  0  0  0  0  0  0  0  0  0  0  0  # atno 10765 bound_to 10752
  139.9227  134.7734  156.1603 H   0  0  0  0  0  0  0  0  0  0  0  0  # atno 11005 bound_to 11000
  146.3039  140.3909  142.8694 LP  0  0  0  0  0  0  0  0  0  0  0  0  # atno 17320 bound_to 7965
  144.8851  140.7451  143.5962 LP  0  0  0  0  0  0  0  0  0  0  0  0  # atno 17321 bound_to 7965
  139.7062  144.7627  151.1189 LP  0  0  0  0  0  0  0  0  0  0  0  0  # atno 17342 bound_to 10162
  140.7715  143.5391  150.9333 LP  0  0  0  0  0  0  0  0  0  0  0  0  # atno 17343 bound_to 10162
  157.6907  131.0811  150.7116 LP  0  0  0  0  0  0  0  0  0  0  0  0  # atno 17370 bound_to 10713
  156.7173  130.4670  149.5532 LP  0  0  0  0  0  0  0  0  0  0  0  0  # atno 17371 bound_to 10713
  141.0762  133.6774  156.2240 LP  0  0  0  0  0  0  0  0  0  0  0  0  # atno 17394 bound_to 11000
  140.6425  134.5151  157.5571 LP  0  0  0  0  0  0  0  0  0  0  0  0  # atno 17395 bound_to 11000

$$$$
