AV-unprocessed.smi:793|AV-procd|sdf|3752|dock6
  -GOLD-   22720 1183D 1   1.00000     0.00000
 Structure written by MMmdl.
 39 40  0  0  0  0  0  0  0  0  1 V2000
  154.6469  139.9273  161.4192 C   0  0  0  0  0  0  0  0  0  0  0  0
  154.9276  140.5500  160.0461 C   0  0  0  0  0  0  0  0  0  0  0  0
  153.6567  141.0949  159.3675 C   0  0  2  0  0  0  0  0  0  0  0  0
  152.9185  141.8258  160.3462 O   0  0  0  0  0  0  0  0  0  0  0  0
  151.9596  142.7577  159.8529 C   0  0  0  0  0  0  0  0  0  0  0  0
  152.4847  143.5980  158.6840 C   0  0  0  0  0  0  0  0  0  0  0  0
  151.7032  144.9179  158.7444 C   0  0  0  0  0  0  0  0  0  0  0  0
  151.0548  144.9763  160.1361 C   0  0  0  0  0  0  0  0  0  0  0  0
  151.6433  143.8021  160.9208 C   0  0  0  0  0  0  0  0  0  0  0  0
  152.7927  139.9559  158.8011 C   0  0  0  0  0  0  0  0  0  0  0  0
  152.1819  139.2182  159.5738 O   0  0  0  0  0  0  0  0  0  0  0  0
  152.7562  139.8736  157.4566 N   0  0  0  0  0  0  0  0  0  0  0  0
  152.0785  138.9557  156.6383 C   0  0  0  0  0  0  0  0  0  0  0  0
  151.2401  137.9781  157.0682 C   0  0  0  0  0  0  0  0  0  0  0  0
  150.5981  137.0841  156.2232 N   0  0  0  0  0  0  0  0  0  0  0  0
  150.8193  137.1747  154.8586 C   0  0  0  0  0  0  0  0  0  0  0  0
  151.6304  138.0957  154.3021 C   0  0  0  0  0  0  0  0  0  0  0  0
  152.3289  139.0674  155.1737 C   0  0  0  0  0  0  0  0  0  0  0  0
  153.0772  139.9217  154.6989 O   0  0  0  0  0  0  0  0  0  0  0  0
  155.5670  139.5576  161.8719 H   0  0  0  0  0  0  0  0  0  0  0  0
  153.9563  139.0874  161.3387 H   0  0  0  0  0  0  0  0  0  0  0  0
  154.2101  140.6572  162.1012 H   0  0  0  0  0  0  0  0  0  0  0  0
  155.6528  141.3554  160.1723 H   0  0  0  0  0  0  0  0  0  0  0  0
  155.4041  139.8067  159.4055 H   0  0  0  0  0  0  0  0  0  0  0  0
  153.9618  141.7568  158.5552 H   0  0  0  0  0  0  0  0  0  0  0  0
  151.0273  142.2679  159.5686 H   0  0  0  0  0  0  0  0  0  0  0  0
  153.5469  143.8016  158.8282 H   0  0  0  0  0  0  0  0  0  0  0  0
  152.3735  143.0943  157.7233 H   0  0  0  0  0  0  0  0  0  0  0  0
  152.3677  145.7665  158.5788 H   0  0  0  0  0  0  0  0  0  0  0  0
  150.9353  144.9497  157.9706 H   0  0  0  0  0  0  0  0  0  0  0  0
  151.2285  145.9296  160.6358 H   0  0  0  0  0  0  0  0  0  0  0  0
  149.9757  144.8483  160.0412 H   0  0  0  0  0  0  0  0  0  0  0  0
  150.9668  143.4266  161.6890 H   0  0  0  0  0  0  0  0  0  0  0  0
  152.5643  144.1181  161.4132 H   0  0  0  0  0  0  0  0  0  0  0  0
  153.2700  140.5827  156.9533 H   0  0  0  0  0  0  0  0  0  0  0  0
  151.0037  137.7973  158.1044 H   0  0  0  0  0  0  0  0  0  0  0  0
  150.2843  136.4407  154.2740 H   0  0  0  0  0  0  0  0  0  0  0  0
  151.7830  138.1415  153.2339 H   0  0  0  0  0  0  0  0  0  0  0  0
  149.9853  136.3738  156.5987 H   0  0  0  0  0  0  0  0  0  0  0  0
  1  2  1  0  0  0  0
  1 20  1  0  0  0  0
  1 21  1  0  0  0  0
  1 22  1  0  0  0  0
  2  3  1  0  0  0  0
  2 23  1  0  0  0  0
  2 24  1  0  0  0  0
  3  4  1  0  0  0  0
  3 10  1  0  0  0  0
  3 25  1  0  0  0  0
  4  5  1  0  0  0  0
  5  9  1  0  0  0  0
  5  6  1  0  0  0  0
  5 26  1  0  0  0  0
  6  7  1  0  0  0  0
  6 27  1  0  0  0  0
  6 28  1  0  0  0  0
  7  8  1  0  0  0  0
  7 29  1  0  0  0  0
  7 30  1  0  0  0  0
  8  9  1  0  0  0  0
  8 31  1  0  0  0  0
  8 32  1  0  0  0  0
  9 33  1  0  0  0  0
  9 34  1  0  0  0  0
 10 11  2  0  0  0  0
 10 12  1  0  0  0  0
 12 35  1  0  0  0  0
 12 13  1  0  0  0  0
 13 18  1  0  0  0  0
 13 14  2  0  0  0  0
 14 36  1  0  0  0  0
 14 15  1  0  0  0  0
 15 39  1  0  0  0  0
 15 16  1  0  0  0  0
 16 37  1  0  0  0  0
 16 17  2  0  0  0  0
 17 18  1  0  0  0  0
 17 38  1  0  0  0  0
 18 19  2  0  0  0  0
M  END
> <s_m_source_file>
AV-unprocessed.smi

> <i_m_source_file_index>
793

> <i_lp_mmshare_version>
43012

> <i_f3d_flags>
0

> <s_epik_input>
W0NIMl0xW0NIMl1bQ0gyXVtDSDJdW0NIXTFPW0NAQEhdKFtDSDJdW0NIM10pQyg9TylbTkhdYzJbY0hdbltjSF1bY0hdYzJbT0hd

> <s_epik_cmdline>
J2VwaWtfcHl0aG9uJywgJy1waCcsICc3LjAnLCAnLXRuJywgJzgnLCAnLW1hJywgJzIwMCcsICctbWV0YWxfYmluZGluZycsICctaW1hZScsICc8aW5maWxlLm1hZT4nLCAnLW9tYWUnLCAnPG91dGZpbGUubWFlPic=

> <r_lp_tautomer_probability>
1

> <r_epik_Ionization_Penalty>
0.000234492

> <r_epik_Ionization_Penalty_Charging>
0.000234447

> <r_epik_Ionization_Penalty_Neutral>
4.48517e-08

> <r_epik_State_Penalty>
-0

> <r_epik_Charging_Adjusted_Penalty>
0.000234447

> <i_epik_Tot_Q>
0

> <i_epik_Tot_abs_Q>
0

> <r_epik_Metal_State_Penalty>
0.110344

> <b_epik_Metal_Only>
0

> <s_lp_Force_Field>
OPLS_2005

> <r_lp_Energy>
24.985

> <b_lp_Chiralities_Consistent>
1

> <s_lp_Variant>
AV-unprocessed.smi:793-1

> <Gold.Version>
5.8.1

> <Gold.Id.Protein>
6NUR|6NUR_protein|mol2

> <Gold.PLP.Fitness>
45.1808

> <Gold.PLP.PLP>
-39.4117

> <Gold.PLP.part.hbond>
-2.0433

> <Gold.PLP.part.metal>
0.0000

> <Gold.PLP.part.buried>
-3.0125

> <Gold.PLP.part.nonpolar>
-34.3712

> <Gold.PLP.part.repulsive>
0.7093

> <Gold.PLP.ligand.clash>
0.0000

> <Gold.PLP.ligand.torsion>
0.6753

> <Gold.PLP.Chemscore.Hbond>
1.3513

> <Gold.PLP.Chemscore.CHOScore>
1.0000

> <Gold.PLP.Chemscore.Metal>
0.0000

> <Gold.Chemscore.Hbonds>
donor molecule, donor type, donor heavy atom, donor atom, acceptor molecule, acceptor atom, score
      P1  H  7989  7998       L1    19  0.23
      P1  H  7997  8009       L1    19  1.00
      L1  C    16    37       P1  7948  0.46

> <Gold.PLP.Chemscore.Internal.Correction>
0.0659

> <Gold.Rescore>
     Score         DG    S(hbond)    S(metal)    S(lipo)     H(rot)  DE(clash)    DE(int)     intcor
     15.57     -17.54       1.08        0.00     107.34       1.61       0.21       1.76       ----

> <Gold.Chemscore.Fitness>
15.5728

> <Gold.Chemscore.DG>
-17.5393

> <Gold.Chemscore.ZeroCoef>
-5.4800

> <Gold.Chemscore.Hbond>
1.0815

> <Gold.Chemscore.Metal>
0.0000

> <Gold.Chemscore.Lipo>
107.3388

> <Gold.Chemscore.Internal_Hbond>
0.0000

> <Gold.Chemscore.DEClash>
0.2112

> <Gold.Chemscore.DEInternal>
1.7554

> <Gold.Chemscore.Rot>
1.6061

> <Gold.Chemscore.Internal.Correction>
   9.000000E+99

> <Gold.Chemscore.Hbonds>
donor molecule, donor type, donor heavy atom, donor atom, acceptor molecule, acceptor atom, score
      P1  H  7989  7998       L1    19  0.04
      P1  H  7997  8009       L1    19  0.82

> <Gold.Chemscore.Hbond.Weighted>
-3.6123

> <Gold.Chemscore.Metal.Weighted>
-0.0000

> <Gold.Chemscore.Lipo.Weighted>
-12.5586

> <Gold.Chemscore.Internal_Hbond.Weighted>
0.0000

> <Gold.Chemscore.DEClash.Weighted>
0.2112

> <Gold.Chemscore.DEInternal.Weighted>
1.7554

> <Gold.Chemscore.Rot.Weighted>
4.1116

> <Gold.Chemscore.Internal.Correction.Weighted>
   9.000000E+99

> <Gold.Protein.RotatedTorsions>
[ 6907 6896 6895 6894 ] final  -77.49 input  -60.11 | X-H torsion
[ 7974 7965 7964 7962 ] final   12.98 input  175.53 | X-H torsion
[ 8008 7997 7996 7995 ] final -126.57 input   59.86 | X-H torsion
[ 10167 10162 10161 10158 ] final  112.44 input  -65.29 | X-H torsion
[ 10718 10713 10712 10709 ] final   39.20 input   66.30 | X-H torsion
[ 10763 10752 10751 10750 ] final  -33.56 input  -60.55 | X-H torsion
[ 11005 11000 10999 10996 ] final  -39.28 input  -57.11 | X-H torsion

> <Gold.Protein.ActiveResidues>
 VAL166  LYS551  ARG553  GLY616  TRP617  ASP618  TYR619  PRO620  LYS621  CYS622 
 ASP623  PHE694  ASN695  SER759  ASP760  ASP761  ALA762  ILE779  LEU786  VAL792 
 PHE793  MET794  SER795  GLU796  ALA797  LYS798  CYS799  TRP800  GLU811  SER814 

> <Gold.Protein.RotatedAtoms>
  150.6997  134.4414  159.5293 H   0  0  0  0  0  0  0  0  0  0  0  0  # atno 6907 bound_to 6896
  152.2123  134.8487  160.0505 H   0  0  0  0  0  0  0  0  0  0  0  0  # atno 6908 bound_to 6896
  151.9368  133.3591  159.3987 H   0  0  0  0  0  0  0  0  0  0  0  0  # atno 6909 bound_to 6896
  146.2339  139.9256  142.8503 H   0  0  0  0  0  0  0  0  0  0  0  0  # atno 7974 bound_to 7965
  155.2319  140.0425  157.2963 H   0  0  0  0  0  0  0  0  0  0  0  0  # atno 8008 bound_to 7997
  154.5883  140.2419  155.7927 H   0  0  0  0  0  0  0  0  0  0  0  0  # atno 8009 bound_to 7997
  156.2241  140.2960  156.0033 H   0  0  0  0  0  0  0  0  0  0  0  0  # atno 8010 bound_to 7997
  139.6536  144.7129  151.2001 H   0  0  0  0  0  0  0  0  0  0  0  0  # atno 10167 bound_to 10162
  157.3678  130.7684  149.7096 H   0  0  0  0  0  0  0  0  0  0  0  0  # atno 10718 bound_to 10713
  153.8322  135.6865  153.4813 H   0  0  0  0  0  0  0  0  0  0  0  0  # atno 10763 bound_to 10752
  153.1504  135.4620  154.9626 H   0  0  0  0  0  0  0  0  0  0  0  0  # atno 10764 bound_to 10752
  154.7882  135.3292  154.7784 H   0  0  0  0  0  0  0  0  0  0  0  0  # atno 10765 bound_to 10752
  141.0090  133.6917  156.2166 H   0  0  0  0  0  0  0  0  0  0  0  0  # atno 11005 bound_to 11000
  145.2094  140.9889  143.4109 LP  0  0  0  0  0  0  0  0  0  0  0  0  # atno 17320 bound_to 7965
  144.9704  139.3886  143.6311 LP  0  0  0  0  0  0  0  0  0  0  0  0  # atno 17321 bound_to 7965
  140.7549  143.6110  150.8606 LP  0  0  0  0  0  0  0  0  0  0  0  0  # atno 17342 bound_to 10162
  139.9760  143.6004  152.2958 LP  0  0  0  0  0  0  0  0  0  0  0  0  # atno 17343 bound_to 10162
  155.9749  130.4096  150.3885 LP  0  0  0  0  0  0  0  0  0  0  0  0  # atno 17370 bound_to 10713
  157.1972  131.0429  151.2669 LP  0  0  0  0  0  0  0  0  0  0  0  0  # atno 17371 bound_to 10713
  140.6765  134.4813  157.5588 LP  0  0  0  0  0  0  0  0  0  0  0  0  # atno 17394 bound_to 11000
  139.9079  134.8408  156.1636 LP  0  0  0  0  0  0  0  0  0  0  0  0  # atno 17395 bound_to 11000

$$$$
