AV-unprocessed.smi:1325|AV-procd|sdf|5472|dock9
  -GOLD-   22720 5 43D 1   1.00000     0.00000
 Structure written by MMmdl.
 35 36  0  0  0  0  0  0  0  0  1 V2000
  151.8517  144.4029  161.1210 C   0  0  0  0  0  0  0  0  0  0  0  0
  152.1868  143.1498  160.3578 C   0  0  0  0  0  0  0  0  0  0  0  0
  151.6487  143.0200  159.1900 N   0  0  0  0  0  0  0  0  0  0  0  0
  151.8868  141.9068  158.4070 N   0  0  0  0  0  0  0  0  0  0  0  0
  151.1781  141.9191  157.1211 C   0  0  0  0  0  0  0  0  0  0  0  0
  150.0533  140.8618  157.0680 C   0  0  2  0  0  0  0  0  0  0  0  0
  150.6128  139.6083  156.7289 O   0  0  0  0  0  0  0  0  0  0  0  0
  148.9726  141.2650  156.0761 C   0  0  0  0  0  0  0  0  0  0  0  0
  149.2503  141.2651  154.6922 C   0  0  0  0  0  0  0  0  0  0  0  0
  148.2525  141.6304  153.7673 C   0  0  0  0  0  0  0  0  0  0  0  0
  146.9705  141.9955  154.2208 C   0  0  0  0  0  0  0  0  0  0  0  0
  146.6860  141.9939  155.5997 C   0  0  0  0  0  0  0  0  0  0  0  0
  147.6834  141.6289  156.5248 C   0  0  0  0  0  0  0  0  0  0  0  0
  152.6868  140.8625  158.7657 C   0  0  0  0  0  0  0  0  0  0  0  0
  152.8722  139.8860  158.0380 O   0  0  0  0  0  0  0  0  0  0  0  0
  153.2943  141.0167  160.0895 C   0  0  0  0  0  0  0  0  0  0  0  0
  154.1390  139.9439  160.5054 C   0  0  0  0  0  0  0  0  0  0  0  0
  154.8274  139.0839  160.8613 N   0  0  0  0  0  0  0  0  0  0  0  0
  153.0680  142.1045  160.8678 C   0  0  0  0  0  0  0  0  0  0  0  0
  153.6734  142.3118  162.2493 C   0  0  0  0  0  0  0  0  0  0  0  0
  152.7528  144.9765  161.3394 H   0  0  0  0  0  0  0  0  0  0  0  0
  151.3654  144.1615  162.0663 H   0  0  0  0  0  0  0  0  0  0  0  0
  151.1761  145.0516  160.5612 H   0  0  0  0  0  0  0  0  0  0  0  0
  150.7348  142.9105  157.0078 H   0  0  0  0  0  0  0  0  0  0  0  0
  151.8533  141.8192  156.2690 H   0  0  0  0  0  0  0  0  0  0  0  0
  149.5936  140.7618  158.0523 H   0  0  0  0  0  0  0  0  0  0  0  0
  150.0673  139.2048  156.0712 H   0  0  0  0  0  0  0  0  0  0  0  0
  150.2296  140.9839  154.3333 H   0  0  0  0  0  0  0  0  0  0  0  0
  148.4710  141.6298  152.7096 H   0  0  0  0  0  0  0  0  0  0  0  0
  146.2055  142.2750  153.5115 H   0  0  0  0  0  0  0  0  0  0  0  0
  145.7023  142.2716  155.9484 H   0  0  0  0  0  0  0  0  0  0  0  0
  147.4552  141.6273  157.5806 H   0  0  0  0  0  0  0  0  0  0  0  0
  154.3191  141.4857  162.5456 H   0  0  0  0  0  0  0  0  0  0  0  0
  152.8886  142.3998  163.0015 H   0  0  0  0  0  0  0  0  0  0  0  0
  154.2750  143.2210  162.2716 H   0  0  0  0  0  0  0  0  0  0  0  0
  1  2  1  0  0  0  0
  1 21  1  0  0  0  0
  1 22  1  0  0  0  0
  1 23  1  0  0  0  0
  2 19  1  0  0  0  0
  2  3  2  0  0  0  0
  3  4  1  0  0  0  0
  4  5  1  0  0  0  0
  4 14  1  0  0  0  0
  5  6  1  0  0  0  0
  5 24  1  0  0  0  0
  5 25  1  0  0  0  0
  6  7  1  0  0  0  0
  6  8  1  0  0  0  0
  6 26  1  0  0  0  0
  7 27  1  0  0  0  0
  8 13  1  0  0  0  0
  8  9  2  0  0  0  0
  9 10  1  0  0  0  0
  9 28  1  0  0  0  0
 10 11  2  0  0  0  0
 10 29  1  0  0  0  0
 11 12  1  0  0  0  0
 11 30  1  0  0  0  0
 12 13  2  0  0  0  0
 12 31  1  0  0  0  0
 13 32  1  0  0  0  0
 14 15  2  0  0  0  0
 14 16  1  0  0  0  0
 16 17  1  0  0  0  0
 16 19  2  0  0  0  0
 17 18  3  0  0  0  0
 19 20  1  0  0  0  0
 20 33  1  0  0  0  0
 20 34  1  0  0  0  0
 20 35  1  0  0  0  0
M  END
> <s_m_source_file>
AV-unprocessed.smi

> <i_m_source_file_index>
1325

> <i_lp_mmshare_version>
43012

> <i_f3d_flags>
0

> <s_epik_input>
TiNDYyhjMVtDSDNdKWMoPU8pbihuYzFbQ0gzXSlbQ0gyXVtDQEhdKFtPSF0pYzJbY0hdW2NIXVtjSF1bY0hdW2NIXTI=

> <s_epik_cmdline>
J2VwaWtfcHl0aG9uJywgJy1waCcsICc3LjAnLCAnLXRuJywgJzgnLCAnLW1hJywgJzIwMCcsICctbWV0YWxfYmluZGluZycsICctaW1hZScsICc8aW5maWxlLm1hZT4nLCAnLW9tYWUnLCAnPG91dGZpbGUubWFlPic=

> <r_lp_tautomer_probability>
1

> <r_epik_Ionization_Penalty>
7.1854e-08

> <r_epik_Ionization_Penalty_Charging>
1.40848e-10

> <r_epik_Ionization_Penalty_Neutral>
7.17131e-08

> <r_epik_State_Penalty>
-0

> <r_epik_Charging_Adjusted_Penalty>
1.40848e-10

> <i_epik_Tot_Q>
0

> <i_epik_Tot_abs_Q>
0

> <r_epik_Metal_State_Penalty>
-0

> <b_epik_Metal_Only>
0

> <s_lp_Force_Field>
OPLS_2005

> <r_lp_Energy>
27.9871

> <b_lp_Chiralities_Consistent>
1

> <s_lp_Variant>
AV-unprocessed.smi:1325-1

> <Gold.Version>
5.8.1

> <Gold.Id.Protein>
6NUR|6NUR_protein|mol2

> <Gold.PLP.Fitness>
43.8128

> <Gold.PLP.PLP>
-41.7415

> <Gold.PLP.part.hbond>
-1.0000

> <Gold.PLP.part.metal>
0.0000

> <Gold.PLP.part.buried>
-3.8425

> <Gold.PLP.part.nonpolar>
-35.4130

> <Gold.PLP.part.repulsive>
0.0079

> <Gold.PLP.ligand.clash>
0.0000

> <Gold.PLP.ligand.torsion>
0.4673

> <Gold.PLP.Chemscore.Hbond>
1.0000

> <Gold.PLP.Chemscore.CHOScore>
0.0000

> <Gold.PLP.Chemscore.Metal>
0.0000

> <Gold.Chemscore.Hbonds>
donor molecule, donor type, donor heavy atom, donor atom, acceptor molecule, acceptor atom, score
      P1  H  7997  8010       L1    15  1.00

> <Gold.PLP.Chemscore.Internal.Correction>
0.0060

> <Gold.Rescore>
     Score         DG    S(hbond)    S(metal)    S(lipo)     H(rot)  DE(clash)    DE(int)     intcor
     13.32     -15.42       0.95        0.00      99.45       1.90       0.03       2.08       ----

> <Gold.Chemscore.Fitness>
13.3153

> <Gold.Chemscore.DG>
-15.4230

> <Gold.Chemscore.ZeroCoef>
-5.4800

> <Gold.Chemscore.Hbond>
0.9532

> <Gold.Chemscore.Metal>
0.0000

> <Gold.Chemscore.Lipo>
99.4479

> <Gold.Chemscore.Internal_Hbond>
0.0000

> <Gold.Chemscore.DEClash>
0.0310

> <Gold.Chemscore.DEInternal>
2.0767

> <Gold.Chemscore.Rot>
1.9047

> <Gold.Chemscore.Internal.Correction>
   9.000000E+99

> <Gold.Chemscore.Hbonds>
donor molecule, donor type, donor heavy atom, donor atom, acceptor molecule, acceptor atom, score
      P1  H  7997  8010       L1    15  0.79

> <Gold.Chemscore.Hbond.Weighted>
-3.1837

> <Gold.Chemscore.Metal.Weighted>
-0.0000

> <Gold.Chemscore.Lipo.Weighted>
-11.6354

> <Gold.Chemscore.Internal_Hbond.Weighted>
0.0000

> <Gold.Chemscore.DEClash.Weighted>
0.0310

> <Gold.Chemscore.DEInternal.Weighted>
2.0767

> <Gold.Chemscore.Rot.Weighted>
4.8760

> <Gold.Chemscore.Internal.Correction.Weighted>
   9.000000E+99

> <Gold.Protein.RotatedTorsions>
[ 6907 6896 6895 6894 ] final  125.81 input  -60.11 | X-H torsion
[ 7974 7965 7964 7962 ] final  147.75 input  175.53 | X-H torsion
[ 8008 7997 7996 7995 ] final   38.67 input   59.86 | X-H torsion
[ 10167 10162 10161 10158 ] final  133.34 input  -65.29 | X-H torsion
[ 10718 10713 10712 10709 ] final -134.26 input   66.30 | X-H torsion
[ 10763 10752 10751 10750 ] final  109.54 input  -60.55 | X-H torsion
[ 11005 11000 10999 10996 ] final  -98.07 input  -57.11 | X-H torsion

> <Gold.Protein.ActiveResidues>
 VAL166  LYS551  ARG553  GLY616  TRP617  ASP618  TYR619  PRO620  LYS621  CYS622 
 ASP623  PHE694  ASN695  SER759  ASP760  ASP761  ALA762  ILE779  LEU786  VAL792 
 PHE793  MET794  SER795  GLU796  ALA797  LYS798  CYS799  TRP800  GLU811  SER814 

> <Gold.Protein.RotatedAtoms>
  152.3959  133.6747  159.6275 H   0  0  0  0  0  0  0  0  0  0  0  0  # atno 6907 bound_to 6896
  150.7859  133.8874  159.3312 H   0  0  0  0  0  0  0  0  0  0  0  0  # atno 6908 bound_to 6896
  151.6650  135.0985  160.0238 H   0  0  0  0  0  0  0  0  0  0  0  0  # atno 6909 bound_to 6896
  144.8567  139.6067  143.5949 H   0  0  0  0  0  0  0  0  0  0  0  0  # atno 7974 bound_to 7965
  155.2240  140.3333  155.4312 H   0  0  0  0  0  0  0  0  0  0  0  0  # atno 8008 bound_to 7997
  156.2322  140.1856  156.7260 H   0  0  0  0  0  0  0  0  0  0  0  0  # atno 8009 bound_to 7997
  154.5997  140.0625  156.9337 H   0  0  0  0  0  0  0  0  0  0  0  0  # atno 8010 bound_to 7997
  139.5301  144.6620  151.4981 H   0  0  0  0  0  0  0  0  0  0  0  0  # atno 10167 bound_to 10162
  156.2536  130.7168  151.1076 H   0  0  0  0  0  0  0  0  0  0  0  0  # atno 10718 bound_to 10713
  153.4361  135.3777  155.2200 H   0  0  0  0  0  0  0  0  0  0  0  0  # atno 10763 bound_to 10752
  154.8752  135.3852  154.4209 H   0  0  0  0  0  0  0  0  0  0  0  0  # atno 10764 bound_to 10752
  153.4748  135.7087  153.6035 H   0  0  0  0  0  0  0  0  0  0  0  0  # atno 10765 bound_to 10752
  141.1357  133.8218  157.0791 H   0  0  0  0  0  0  0  0  0  0  0  0  # atno 11005 bound_to 11000
  146.2829  139.6924  142.9216 LP  0  0  0  0  0  0  0  0  0  0  0  0  # atno 17320 bound_to 7965
  145.4392  141.0421  143.2867 LP  0  0  0  0  0  0  0  0  0  0  0  0  # atno 17321 bound_to 7965
  140.6473  143.8768  150.6750 LP  0  0  0  0  0  0  0  0  0  0  0  0  # atno 17342 bound_to 10162
  140.2121  143.3875  152.1709 LP  0  0  0  0  0  0  0  0  0  0  0  0  # atno 17343 bound_to 10162
  157.7224  131.0673  150.6080 LP  0  0  0  0  0  0  0  0  0  0  0  0  # atno 17370 bound_to 10713
  156.6162  130.4393  149.5840 LP  0  0  0  0  0  0  0  0  0  0  0  0  # atno 17371 bound_to 10713
  140.0463  134.9829  157.1055 LP  0  0  0  0  0  0  0  0  0  0  0  0  # atno 17394 bound_to 11000
  140.4058  134.2034  155.7163 LP  0  0  0  0  0  0  0  0  0  0  0  0  # atno 17395 bound_to 11000

$$$$
