AV-unprocessed.smi:693|AV-procd|sdf|3372|dock9
  -GOLD-   22720 0353D 1   1.00000     0.00000
 Structure written by MMmdl.
 46 47  0  0  0  0  0  0  0  0  1 V2000
  153.6507  142.8961  163.6245 C   0  0  0  0  0  0  0  0  0  0  0  0
  153.2382  142.6124  162.1952 C   0  0  0  0  0  0  0  0  0  0  0  0
  152.3357  143.4617  161.5207 C   0  0  0  0  0  0  0  0  0  0  0  0
  151.9839  143.1477  160.1938 C   0  0  0  0  0  0  0  0  0  0  0  0
  152.5445  142.0010  159.5948 C   0  0  0  0  0  0  0  0  0  0  0  0
  152.1998  141.6201  158.1687 C   0  0  0  0  0  0  0  0  0  0  0  0
  151.5731  140.2195  158.0790 C   0  0  0  0  0  0  0  0  0  0  0  0
  150.2785  140.2555  157.4099 N   0  0  0  0  0  0  0  0  0  0  0  0
  150.0875  140.3968  156.0872 C   0  0  0  0  0  0  0  0  0  0  0  0
  151.0266  140.5397  155.3028 O   0  0  0  0  0  0  0  0  0  0  0  0
  148.7869  140.3938  155.6983 N   0  0  0  0  0  0  0  0  0  0  0  0
  148.2950  140.3622  154.3115 C   0  0  0  0  0  0  0  0  0  0  0  0
  147.8143  141.7734  153.9375 C   0  0  0  0  0  0  0  0  0  0  0  0
  146.7336  142.2655  154.9191 C   0  0  0  0  0  0  0  0  0  0  0  0
  147.1612  142.1035  156.4007 C   0  0  1  0  0  0  0  0  0  0  0  0
  146.0323  142.4351  157.4036 C   0  0  0  0  0  0  0  0  0  0  0  0
  146.5252  142.6935  158.8314 C   0  0  0  0  0  0  0  0  0  0  0  0
  147.3881  143.6978  159.0033 N   0  0  0  0  0  0  0  0  0  0  0  0
  146.1530  141.9843  159.7634 O   0  0  0  0  0  0  0  0  0  0  0  0
  147.6937  140.6720  156.6385 C   0  0  0  0  0  0  0  0  0  0  0  0
  153.4373  141.2179  160.3565 C   0  0  0  0  0  0  0  0  0  0  0  0
  153.7810  141.5118  161.6292 N   0  0  0  0  0  0  0  0  0  0  0  0
  153.3108  143.8812  163.9457 H   0  0  0  0  0  0  0  0  0  0  0  0
  154.7362  142.8634  163.7239 H   0  0  0  0  0  0  0  0  0  0  0  0
  153.2212  142.1515  164.2951 H   0  0  0  0  0  0  0  0  0  0  0  0
  151.9208  144.3330  162.0057 H   0  0  0  0  0  0  0  0  0  0  0  0
  151.2969  143.7774  159.6478 H   0  0  0  0  0  0  0  0  0  0  0  0
  151.5179  142.3680  157.7618 H   0  0  0  0  0  0  0  0  0  0  0  0
  153.1039  141.6654  157.5599 H   0  0  0  0  0  0  0  0  0  0  0  0
  152.2253  139.5576  157.5088 H   0  0  0  0  0  0  0  0  0  0  0  0
  151.4715  139.7775  159.0717 H   0  0  0  0  0  0  0  0  0  0  0  0
  149.4614  140.1550  157.9943 H   0  0  0  0  0  0  0  0  0  0  0  0
  149.0309  140.0161  153.5861 H   0  0  0  0  0  0  0  0  0  0  0  0
  147.4667  139.6560  154.2390 H   0  0  0  0  0  0  0  0  0  0  0  0
  148.6608  142.4616  153.9498 H   0  0  0  0  0  0  0  0  0  0  0  0
  147.4236  141.7803  152.9197 H   0  0  0  0  0  0  0  0  0  0  0  0
  146.5005  143.3058  154.6941 H   0  0  0  0  0  0  0  0  0  0  0  0
  145.8169  141.7002  154.7463 H   0  0  0  0  0  0  0  0  0  0  0  0
  147.9874  142.7924  156.5868 H   0  0  0  0  0  0  0  0  0  0  0  0
  145.4779  143.3106  157.0632 H   0  0  0  0  0  0  0  0  0  0  0  0
  145.3113  141.6164  157.4278 H   0  0  0  0  0  0  0  0  0  0  0  0
  147.7434  143.9067  159.9251 H   0  0  0  0  0  0  0  0  0  0  0  0
  147.6840  144.2448  158.2079 H   0  0  0  0  0  0  0  0  0  0  0  0
  146.8954  139.9434  156.4897 H   0  0  0  0  0  0  0  0  0  0  0  0
  148.0060  140.5519  157.6770 H   0  0  0  0  0  0  0  0  0  0  0  0
  153.8894  140.3327  159.9335 H   0  0  0  0  0  0  0  0  0  0  0  0
  1  2  1  0  0  0  0
  1 23  1  0  0  0  0
  1 24  1  0  0  0  0
  1 25  1  0  0  0  0
  2 22  1  0  0  0  0
  2  3  2  0  0  0  0
  3  4  1  0  0  0  0
  3 26  1  0  0  0  0
  4  5  2  0  0  0  0
  4 27  1  0  0  0  0
  5  6  1  0  0  0  0
  5 21  1  0  0  0  0
  6  7  1  0  0  0  0
  6 28  1  0  0  0  0
  6 29  1  0  0  0  0
  7  8  1  0  0  0  0
  7 30  1  0  0  0  0
  7 31  1  0  0  0  0
  8  9  1  0  0  0  0
  8 32  1  0  0  0  0
  9 10  2  0  0  0  0
  9 11  1  0  0  0  0
 11 20  1  0  0  0  0
 11 12  1  0  0  0  0
 12 13  1  0  0  0  0
 12 33  1  0  0  0  0
 12 34  1  0  0  0  0
 13 14  1  0  0  0  0
 13 35  1  0  0  0  0
 13 36  1  0  0  0  0
 14 15  1  0  0  0  0
 14 37  1  0  0  0  0
 14 38  1  0  0  0  0
 15 16  1  0  0  0  0
 15 20  1  0  0  0  0
 15 39  1  0  0  0  0
 16 17  1  0  0  0  0
 16 40  1  0  0  0  0
 16 41  1  0  0  0  0
 17 18  1  0  0  0  0
 17 19  2  0  0  0  0
 18 42  1  0  0  0  0
 18 43  1  0  0  0  0
 20 44  1  0  0  0  0
 20 45  1  0  0  0  0
 21 22  2  0  0  0  0
 21 46  1  0  0  0  0
M  END
> <s_m_source_file>
AV-unprocessed.smi

> <i_m_source_file_index>
693

> <i_lp_mmshare_version>
43012

> <i_f3d_flags>
0

> <s_epik_input>
W0NIM11jMVtjSF1bY0hdYyhbY0hdbjEpW0NIMl1bQ0gyXVtOSF1DKD1PKU4yW0NIMl1bQ0gyXVtDSDJdW0NASF0oW0NIMl0yKVtDSDJdQyg9TylbTkgyXQ==

> <s_epik_cmdline>
J2VwaWtfcHl0aG9uJywgJy1waCcsICc3LjAnLCAnLXRuJywgJzgnLCAnLW1hJywgJzIwMCcsICctbWV0YWxfYmluZGluZycsICctaW1hZScsICc8aW5maWxlLm1hZT4nLCAnLW9tYWUnLCAnPG91dGZpbGUubWFlPic=

> <r_epik_Ionization_Penalty>
0.056948

> <r_epik_Ionization_Penalty_Charging>
0

> <r_epik_Ionization_Penalty_Neutral>
0.056948

> <r_epik_State_Penalty>
0.0490937

> <r_epik_Charging_Adjusted_Penalty>
0.0490937

> <i_epik_Tot_Q>
0

> <i_epik_Tot_abs_Q>
0

> <r_epik_Metal_State_Penalty>
0.0447689

> <b_epik_Metal_Only>
0

> <s_lp_Force_Field>
OPLS_2005

> <r_lp_Energy>
25.6146

> <b_lp_Chiralities_Consistent>
1

> <s_lp_Variant>
AV-unprocessed.smi:693-1

> <Gold.Version>
5.8.1

> <Gold.Id.Protein>
6NUR|6NUR_protein|mol2

> <Gold.PLP.Fitness>
50.4619

> <Gold.PLP.PLP>
-43.6572

> <Gold.PLP.part.hbond>
-3.0000

> <Gold.PLP.part.metal>
0.0000

> <Gold.PLP.part.buried>
-6.4751

> <Gold.PLP.part.nonpolar>
-32.9533

> <Gold.PLP.part.repulsive>
0.1933

> <Gold.PLP.ligand.clash>
0.7477

> <Gold.PLP.ligand.torsion>
0.6931

> <Gold.PLP.Chemscore.Hbond>
2.9600

> <Gold.PLP.Chemscore.CHOScore>
0.0000

> <Gold.PLP.Chemscore.Metal>
0.0000

> <Gold.Chemscore.Hbonds>
donor molecule, donor type, donor heavy atom, donor atom, acceptor molecule, acceptor atom, score
      L1  H    18    43       P1  8029  1.00
      P1  H  6934  6946       L1    19  1.00
      P1  H  7989  7998       L1    10  0.94

> <Gold.PLP.Chemscore.Internal.Correction>
0.0586

> <Gold.Rescore>
     Score         DG    S(hbond)    S(metal)    S(lipo)     H(rot)  DE(clash)    DE(int)     intcor
     20.21     -21.05       2.81        0.00     102.03       2.25       0.00       0.84       ----

> <Gold.Chemscore.Fitness>
20.2071

> <Gold.Chemscore.DG>
-21.0460

> <Gold.Chemscore.ZeroCoef>
-5.4800

> <Gold.Chemscore.Hbond>
2.8119

> <Gold.Chemscore.Metal>
0.0000

> <Gold.Chemscore.Lipo>
102.0293

> <Gold.Chemscore.Internal_Hbond>
0.0000

> <Gold.Chemscore.DEClash>
0.0038

> <Gold.Chemscore.DEInternal>
0.8351

> <Gold.Chemscore.Rot>
2.2512

> <Gold.Chemscore.Internal.Correction>
   9.000000E+99

> <Gold.Chemscore.Hbonds>
donor molecule, donor type, donor heavy atom, donor atom, acceptor molecule, acceptor atom, score
      L1  H    18    43       P1  8029  0.48
      P1  H  6934  6946       L1    19  1.00
      P1  H  7989  7998       L1    10  0.91

> <Gold.Chemscore.Hbond.Weighted>
-9.3916

> <Gold.Chemscore.Metal.Weighted>
-0.0000

> <Gold.Chemscore.Lipo.Weighted>
-11.9374

> <Gold.Chemscore.Internal_Hbond.Weighted>
0.0000

> <Gold.Chemscore.DEClash.Weighted>
0.0038

> <Gold.Chemscore.DEInternal.Weighted>
0.8351

> <Gold.Chemscore.Rot.Weighted>
5.7631

> <Gold.Chemscore.Internal.Correction.Weighted>
   9.000000E+99

> <Gold.Protein.RotatedTorsions>
[ 6907 6896 6895 6894 ] final  171.63 input  -60.11 | X-H torsion
[ 7974 7965 7964 7962 ] final  131.97 input  175.53 | X-H torsion
[ 8008 7997 7996 7995 ] final -129.52 input   59.86 | X-H torsion
[ 10167 10162 10161 10158 ] final  152.13 input  -65.29 | X-H torsion
[ 10718 10713 10712 10709 ] final  178.19 input   66.30 | X-H torsion
[ 10763 10752 10751 10750 ] final  -12.18 input  -60.55 | X-H torsion
[ 11005 11000 10999 10996 ] final  -61.14 input  -57.11 | X-H torsion

> <Gold.Protein.ActiveResidues>
 VAL166  LYS551  ARG553  GLY616  TRP617  ASP618  TYR619  PRO620  LYS621  CYS622 
 ASP623  PHE694  ASN695  SER759  ASP760  ASP761  ALA762  ILE779  LEU786  VAL792 
 PHE793  MET794  SER795  GLU796  ALA797  LYS798  CYS799  TRP800  GLU811  SER814 

> <Gold.Protein.RotatedAtoms>
  151.7971  133.3365  159.3515 H   0  0  0  0  0  0  0  0  0  0  0  0  # atno 6907 bound_to 6896
  150.7371  134.5788  159.5937 H   0  0  0  0  0  0  0  0  0  0  0  0  # atno 6908 bound_to 6896
  152.3169  134.7430  160.0374 H   0  0  0  0  0  0  0  0  0  0  0  0  # atno 6909 bound_to 6896
  145.0017  139.4305  143.5289 H   0  0  0  0  0  0  0  0  0  0  0  0  # atno 7974 bound_to 7965
  155.2805  140.0444  157.3015 H   0  0  0  0  0  0  0  0  0  0  0  0  # atno 8008 bound_to 7997
  154.5600  140.2343  155.8319 H   0  0  0  0  0  0  0  0  0  0  0  0  # atno 8009 bound_to 7997
  156.2039  140.3018  155.9592 H   0  0  0  0  0  0  0  0  0  0  0  0  # atno 8010 bound_to 7997
  139.4835  144.5383  151.7607 H   0  0  0  0  0  0  0  0  0  0  0  0  # atno 10167 bound_to 10162
  156.8942  130.9857  151.3045 H   0  0  0  0  0  0  0  0  0  0  0  0  # atno 10718 bound_to 10713
  153.4946  135.7017  153.5865 H   0  0  0  0  0  0  0  0  0  0  0  0  # atno 10763 bound_to 10752
  153.4022  135.3869  155.1995 H   0  0  0  0  0  0  0  0  0  0  0  0  # atno 10764 bound_to 10752
  154.8714  135.3884  154.4410 H   0  0  0  0  0  0  0  0  0  0  0  0  # atno 10765 bound_to 10752
  141.1313  133.6627  156.5330 H   0  0  0  0  0  0  0  0  0  0  0  0  # atno 11005 bound_to 11000
  146.3453  139.9410  142.8741 LP  0  0  0  0  0  0  0  0  0  0  0  0  # atno 17320 bound_to 7965
  145.2143  140.9909  143.4082 LP  0  0  0  0  0  0  0  0  0  0  0  0  # atno 17321 bound_to 7965
  140.4919  144.1298  150.5952 LP  0  0  0  0  0  0  0  0  0  0  0  0  # atno 17342 bound_to 10162
  140.4161  143.2633  151.9773 LP  0  0  0  0  0  0  0  0  0  0  0  0  # atno 17343 bound_to 10162
  157.6065  130.8551  149.8884 LP  0  0  0  0  0  0  0  0  0  0  0  0  # atno 17370 bound_to 10713
  156.0614  130.3699  150.0975 LP  0  0  0  0  0  0  0  0  0  0  0  0  # atno 17371 bound_to 10713
  140.4201  134.7195  157.4885 LP  0  0  0  0  0  0  0  0  0  0  0  0  # atno 17394 bound_to 11000
  140.0366  134.6328  155.9035 LP  0  0  0  0  0  0  0  0  0  0  0  0  # atno 17395 bound_to 11000

$$$$
