AV-unprocessed.smi:1857|AV-procd|sdf|7541|dock5
  -GOLD-   22720 9253D 1   1.00000     0.00000
 Structure written by MMmdl.
 45 46  0  0  0  0  0  0  0  0  1 V2000
  149.8934  136.9788  157.3524 C   0  0  0  0  0  0  0  0  0  0  0  0
  149.9971  137.0972  155.8129 C   0  0  0  0  0  0  0  0  0  0  0  0
  149.8298  135.6804  155.2290 C   0  0  0  0  0  0  0  0  0  0  0  0
  148.8260  138.0064  155.3814 C   0  0  0  0  0  0  0  0  0  0  0  0
  151.3480  137.6732  155.4166 C   0  0  0  0  0  0  0  0  0  0  0  0
  152.1827  137.0818  154.5635 N   0  0  0  0  0  0  0  0  0  0  0  0
  153.2367  137.9577  154.4366 N   0  0  0  0  0  0  0  0  0  0  0  0
  153.0410  139.0276  155.1427 N   0  0  0  0  0  0  0  0  0  0  0  0
  151.8448  138.8799  155.7683 N   0  0  0  0  0  0  0  0  0  0  0  0
  151.3622  139.9706  156.6057 C   0  0  0  0  0  0  0  0  0  0  0  0
  152.4025  140.3905  157.6502 C   0  0  0  0  0  0  0  0  0  0  0  0
  153.2652  139.5959  158.0248 O   0  0  0  0  0  0  0  0  0  0  0  0
  152.3095  141.6482  158.1102 N   0  0  0  0  0  0  0  0  0  0  0  0
  153.2004  142.2633  159.0925 C   0  0  0  0  0  0  0  0  0  0  0  0
  153.1662  141.4502  160.4059 C   0  0  0  0  0  0  0  0  0  0  0  0
  153.7537  142.1604  161.6364 C   0  0  0  0  0  0  0  0  0  0  0  0
  152.7121  143.0148  162.3806 C   0  0  0  0  0  0  0  0  0  0  0  0
  152.3077  144.3123  161.6635 C   0  0  0  0  0  0  0  0  0  0  0  0
  151.7663  144.1215  160.2355 C   0  0  0  0  0  0  0  0  0  0  0  0
  152.8703  143.7656  159.2249 C   0  0  0  0  0  0  0  0  0  0  0  0
  148.9271  136.5763  157.6587 H   0  0  0  0  0  0  0  0  0  0  0  0
  150.0082  137.9494  157.8371 H   0  0  0  0  0  0  0  0  0  0  0  0
  150.6565  136.3140  157.7598 H   0  0  0  0  0  0  0  0  0  0  0  0
  150.6222  135.0162  155.5763 H   0  0  0  0  0  0  0  0  0  0  0  0
  149.8575  135.6750  154.1407 H   0  0  0  0  0  0  0  0  0  0  0  0
  148.8787  135.2388  155.5281 H   0  0  0  0  0  0  0  0  0  0  0  0
  147.8769  137.6367  155.7716 H   0  0  0  0  0  0  0  0  0  0  0  0
  148.7028  138.0660  154.3038 H   0  0  0  0  0  0  0  0  0  0  0  0
  148.9570  139.0221  155.7564 H   0  0  0  0  0  0  0  0  0  0  0  0
  151.1205  140.8154  155.9582 H   0  0  0  0  0  0  0  0  0  0  0  0
  150.4317  139.6972  157.0954 H   0  0  0  0  0  0  0  0  0  0  0  0
  151.5695  142.2300  157.7451 H   0  0  0  0  0  0  0  0  0  0  0  0
  154.2170  142.2167  158.6973 H   0  0  0  0  0  0  0  0  0  0  0  0
  152.1460  141.1333  160.6281 H   0  0  0  0  0  0  0  0  0  0  0  0
  153.7215  140.5256  160.2421 H   0  0  0  0  0  0  0  0  0  0  0  0
  154.1076  141.3956  162.3287 H   0  0  0  0  0  0  0  0  0  0  0  0
  154.6317  142.7497  161.3696 H   0  0  0  0  0  0  0  0  0  0  0  0
  151.8227  142.4164  162.5814 H   0  0  0  0  0  0  0  0  0  0  0  0
  153.1135  143.2789  163.3595 H   0  0  0  0  0  0  0  0  0  0  0  0
  151.5415  144.8060  162.2623 H   0  0  0  0  0  0  0  0  0  0  0  0
  153.1538  145.0003  161.6471 H   0  0  0  0  0  0  0  0  0  0  0  0
  150.9583  143.3892  160.2129 H   0  0  0  0  0  0  0  0  0  0  0  0
  151.3198  145.0664  159.9245 H   0  0  0  0  0  0  0  0  0  0  0  0
  153.7782  144.3100  159.4871 H   0  0  0  0  0  0  0  0  0  0  0  0
  152.5921  144.1529  158.2436 H   0  0  0  0  0  0  0  0  0  0  0  0
  1  2  1  0  0  0  0
  1 21  1  0  0  0  0
  1 22  1  0  0  0  0
  1 23  1  0  0  0  0
  2  3  1  0  0  0  0
  2  4  1  0  0  0  0
  2  5  1  0  0  0  0
  3 24  1  0  0  0  0
  3 25  1  0  0  0  0
  3 26  1  0  0  0  0
  4 27  1  0  0  0  0
  4 28  1  0  0  0  0
  4 29  1  0  0  0  0
  5  9  1  0  0  0  0
  5  6  2  0  0  0  0
  6  7  1  0  0  0  0
  7  8  2  0  0  0  0
  8  9  1  0  0  0  0
  9 10  1  0  0  0  0
 10 11  1  0  0  0  0
 10 30  1  0  0  0  0
 10 31  1  0  0  0  0
 11 12  2  0  0  0  0
 11 13  1  0  0  0  0
 13 14  1  0  0  0  0
 13 32  1  0  0  0  0
 14 20  1  0  0  0  0
 14 15  1  0  0  0  0
 14 33  1  0  0  0  0
 15 16  1  0  0  0  0
 15 34  1  0  0  0  0
 15 35  1  0  0  0  0
 16 17  1  0  0  0  0
 16 36  1  0  0  0  0
 16 37  1  0  0  0  0
 17 18  1  0  0  0  0
 17 38  1  0  0  0  0
 17 39  1  0  0  0  0
 18 19  1  0  0  0  0
 18 40  1  0  0  0  0
 18 41  1  0  0  0  0
 19 20  1  0  0  0  0
 19 42  1  0  0  0  0
 19 43  1  0  0  0  0
 20 44  1  0  0  0  0
 20 45  1  0  0  0  0
M  END
> <s_m_source_file>
AV-unprocessed.smi

> <i_m_source_file_index>
1857

> <i_lp_mmshare_version>
43012

> <i_f3d_flags>
0

> <s_epik_input>
W0NIM11DKFtDSDNdKShbQ0gzXSljMW5ubm4xW0NIMl1DKD1PKVtOSF1bQ0hdMltDSDJdW0NIMl1bQ0gyXVtDSDJdW0NIMl1bQ0gyXTI=

> <s_epik_cmdline>
J2VwaWtfcHl0aG9uJywgJy1waCcsICc3LjAnLCAnLXRuJywgJzgnLCAnLW1hJywgJzIwMCcsICctbWV0YWxfYmluZGluZycsICctaW1hZScsICc8aW5maWxlLm1hZT4nLCAnLW9tYWUnLCAnPG91dGZpbGUubWFlPic=

> <r_lp_tautomer_probability>
1

> <r_epik_Ionization_Penalty>
4.53904e-07

> <r_epik_Ionization_Penalty_Charging>
0

> <r_epik_Ionization_Penalty_Neutral>
4.53904e-07

> <r_epik_State_Penalty>
-0

> <r_epik_Charging_Adjusted_Penalty>
0

> <i_epik_Tot_Q>
0

> <i_epik_Tot_abs_Q>
0

> <r_epik_Metal_State_Penalty>
-0

> <b_epik_Metal_Only>
0

> <s_lp_Force_Field>
OPLS_2005

> <r_lp_Energy>
25.0233

> <b_lp_Chiralities_Consistent>
1

> <s_lp_Variant>
AV-unprocessed.smi:1857-1

> <Gold.Version>
5.8.1

> <Gold.Id.Protein>
6NUR|6NUR_protein|mol2

> <Gold.PLP.Fitness>
46.0472

> <Gold.PLP.PLP>
-39.6886

> <Gold.PLP.part.hbond>
-4.0000

> <Gold.PLP.part.metal>
0.0000

> <Gold.PLP.part.buried>
-2.8562

> <Gold.PLP.part.nonpolar>
-33.1276

> <Gold.PLP.part.repulsive>
0.2559

> <Gold.PLP.ligand.clash>
0.0000

> <Gold.PLP.ligand.torsion>
0.4763

> <Gold.PLP.Chemscore.Hbond>
2.4000

> <Gold.PLP.Chemscore.CHOScore>
0.0000

> <Gold.PLP.Chemscore.Metal>
0.0000

> <Gold.Chemscore.Hbonds>
donor molecule, donor type, donor heavy atom, donor atom, acceptor molecule, acceptor atom, score
      P1  H  7997  8008       L1     8  0.76
      P1  H  7997  8010       L1    12  0.64
      P1  H 10752 10765       L1     6  0.88

> <Gold.PLP.Chemscore.Internal.Correction>
0.1113

> <Gold.Rescore>
     Score         DG    S(hbond)    S(metal)    S(lipo)     H(rot)  DE(clash)    DE(int)     intcor
     17.97     -20.15       2.06        0.00     100.58       1.55       0.26       1.92       ----

> <Gold.Chemscore.Fitness>
17.9695

> <Gold.Chemscore.DG>
-20.1540

> <Gold.Chemscore.ZeroCoef>
-5.4800

> <Gold.Chemscore.Hbond>
2.0596

> <Gold.Chemscore.Metal>
0.0000

> <Gold.Chemscore.Lipo>
100.5811

> <Gold.Chemscore.Internal_Hbond>
0.0000

> <Gold.Chemscore.DEClash>
0.2639

> <Gold.Chemscore.DEInternal>
1.9206

> <Gold.Chemscore.Rot>
1.5520

> <Gold.Chemscore.Internal.Correction>
   9.000000E+99

> <Gold.Chemscore.Hbonds>
donor molecule, donor type, donor heavy atom, donor atom, acceptor molecule, acceptor atom, score
      P1  H  7997  8008       L1     8  0.72
      P1  H  7997  8010       L1    12  0.52
      P1  H 10752 10765       L1     6  0.22

> <Gold.Chemscore.Hbond.Weighted>
-6.8791

> <Gold.Chemscore.Metal.Weighted>
-0.0000

> <Gold.Chemscore.Lipo.Weighted>
-11.7680

> <Gold.Chemscore.Internal_Hbond.Weighted>
0.0000

> <Gold.Chemscore.DEClash.Weighted>
0.2639

> <Gold.Chemscore.DEInternal.Weighted>
1.9206

> <Gold.Chemscore.Rot.Weighted>
3.9731

> <Gold.Chemscore.Internal.Correction.Weighted>
   9.000000E+99

> <Gold.Protein.RotatedTorsions>
[ 6907 6896 6895 6894 ] final   48.36 input  -60.11 | X-H torsion
[ 7974 7965 7964 7962 ] final  -45.13 input  175.53 | X-H torsion
[ 8008 7997 7996 7995 ] final    4.30 input   59.86 | X-H torsion
[ 10167 10162 10161 10158 ] final -175.98 input  -65.29 | X-H torsion
[ 10718 10713 10712 10709 ] final   56.40 input   66.30 | X-H torsion
[ 10763 10752 10751 10750 ] final  162.67 input  -60.55 | X-H torsion
[ 11005 11000 10999 10996 ] final  -15.44 input  -57.11 | X-H torsion

> <Gold.Protein.ActiveResidues>
 VAL166  LYS551  ARG553  GLY616  TRP617  ASP618  TYR619  PRO620  LYS621  CYS622 
 ASP623  PHE694  ASN695  SER759  ASP760  ASP761  ALA762  ILE779  LEU786  VAL792 
 PHE793  MET794  SER795  GLU796  ALA797  LYS798  CYS799  TRP800  GLU811  SER814 

> <Gold.Protein.RotatedAtoms>
  152.2786  134.7854  160.0400 H   0  0  0  0  0  0  0  0  0  0  0  0  # atno 6907 bound_to 6896
  151.8441  133.3423  159.3660 H   0  0  0  0  0  0  0  0  0  0  0  0  # atno 6908 bound_to 6896
  150.7180  134.5291  159.5735 H   0  0  0  0  0  0  0  0  0  0  0  0  # atno 6909 bound_to 6896
  145.9851  140.7242  142.9344 H   0  0  0  0  0  0  0  0  0  0  0  0  # atno 7974 bound_to 7965
  154.7143  140.2699  155.6600 H   0  0  0  0  0  0  0  0  0  0  0  0  # atno 8008 bound_to 7997
  156.2805  140.2747  156.1718 H   0  0  0  0  0  0  0  0  0  0  0  0  # atno 8009 bound_to 7997
  155.0593  140.0371  157.2561 H   0  0  0  0  0  0  0  0  0  0  0  0  # atno 8010 bound_to 7997
  139.5553  144.2005  152.1148 H   0  0  0  0  0  0  0  0  0  0  0  0  # atno 10167 bound_to 10162
  157.5428  130.8709  149.8847 H   0  0  0  0  0  0  0  0  0  0  0  0  # atno 10718 bound_to 10713
  154.2820  135.2763  155.2693 H   0  0  0  0  0  0  0  0  0  0  0  0  # atno 10763 bound_to 10752
  154.5210  135.5756  153.6684 H   0  0  0  0  0  0  0  0  0  0  0  0  # atno 10764 bound_to 10752
  152.9927  135.6204  154.2979 H   0  0  0  0  0  0  0  0  0  0  0  0  # atno 10765 bound_to 10752
  140.7967  133.8246  155.9431 H   0  0  0  0  0  0  0  0  0  0  0  0  # atno 11005 bound_to 11000
  144.6872  140.2974  143.7268 LP  0  0  0  0  0  0  0  0  0  0  0  0  # atno 17320 bound_to 7965
  145.7712  139.1858  143.2211 LP  0  0  0  0  0  0  0  0  0  0  0  0  # atno 17321 bound_to 7965
  140.1508  144.5116  150.6688 LP  0  0  0  0  0  0  0  0  0  0  0  0  # atno 17342 bound_to 10162
  140.6824  143.2333  151.5349 LP  0  0  0  0  0  0  0  0  0  0  0  0  # atno 17343 bound_to 10162
  156.0510  130.3717  150.1200 LP  0  0  0  0  0  0  0  0  0  0  0  0  # atno 17370 bound_to 10713
  156.9379  130.9735  151.3521 LP  0  0  0  0  0  0  0  0  0  0  0  0  # atno 17371 bound_to 10713
  140.9336  134.1991  157.4847 LP  0  0  0  0  0  0  0  0  0  0  0  0  # atno 17394 bound_to 11000
  139.8725  134.9843  156.5233 LP  0  0  0  0  0  0  0  0  0  0  0  0  # atno 17395 bound_to 11000

$$$$
