AV-unprocessed.smi:2107|AV-procd|sdf|8603|dock8
  -GOLD-   2272011343D 1   1.00000     0.00000
 Structure written by MMmdl.
 46 47  0  0  0  0  0  0  0  0  3 V2000
  147.5980  132.2829  160.1863 C   0  0  0  0  0  0  0  0  0  0  0  0
  147.4636  133.7065  159.6298 C   0  0  0  0  0  0  0  0  0  0  0  0
  147.7463  134.7081  160.6708 N   0  0  0  0  0  0  0  0  0  0  0  0
  147.3584  134.3583  162.0481 C   0  0  0  0  0  0  0  0  0  0  0  0
  146.0619  135.0685  162.4596 C   0  0  0  0  0  0  0  0  0  0  0  0
  148.0408  136.3708  160.2408 S   0  0  0  0  0  0  0  0  0  0  0  0
  147.6111  137.1963  161.3831 O   0  0  0  0  0  0  0  0  0  0  0  0
  149.4608  136.4282  159.8620 O   0  0  0  0  0  0  0  0  0  0  0  0
  147.0565  136.4577  158.9448 N   0  5  0  0  0  0  0  0  0  0  0  0
  147.3665  137.3120  157.8055 C   0  0  0  0  0  0  0  0  0  0  0  0
  147.3036  136.5377  156.4829 C   0  0  0  0  0  0  0  0  0  0  0  0
  146.5269  135.3523  156.4346 C   0  0  0  0  0  0  0  0  0  0  0  0
  146.4279  134.6184  155.2363 C   0  0  0  0  0  0  0  0  0  0  0  0
  147.1085  135.0780  154.0960 C   0  0  0  0  0  0  0  0  0  0  0  0
  147.8440  136.2061  154.1659 N   0  3  0  0  0  0  0  0  0  0  0  0
  147.9787  136.9544  155.2904 C   0  0  0  0  0  0  0  0  0  0  0  0
  148.8059  138.0934  155.1984 N   0  0  0  0  0  0  0  0  0  0  0  0
  150.1532  137.7920  154.7308 C   0  0  0  0  0  0  0  0  0  0  0  0
  151.0368  139.0487  154.8135 C   0  0  0  0  0  0  0  0  0  0  0  0
  150.4206  140.1174  154.0999 O   0  0  0  0  0  0  0  0  0  0  0  0
  149.1433  140.4519  154.6357 C   0  0  0  0  0  0  0  0  0  0  0  0
  148.2086  139.2364  154.5212 C   0  0  0  0  0  0  0  0  0  0  0  0
  147.3664  131.5450  159.4183 H   0  0  0  0  0  0  0  0  0  0  0  0
  146.9150  132.1198  161.0203 H   0  0  0  0  0  0  0  0  0  0  0  0
  148.6088  132.0825  160.5406 H   0  0  0  0  0  0  0  0  0  0  0  0
  148.1477  133.8545  158.7937 H   0  0  0  0  0  0  0  0  0  0  0  0
  146.4583  133.8501  159.2322 H   0  0  0  0  0  0  0  0  0  0  0  0
  147.2150  133.2798  162.1236 H   0  0  0  0  0  0  0  0  0  0  0  0
  148.1709  134.6083  162.7309 H   0  0  0  0  0  0  0  0  0  0  0  0
  145.7622  134.7713  163.4645 H   0  0  0  0  0  0  0  0  0  0  0  0
  145.2451  134.8169  161.7825 H   0  0  0  0  0  0  0  0  0  0  0  0
  146.1783  136.1521  162.4575 H   0  0  0  0  0  0  0  0  0  0  0  0
  146.6872  138.1636  157.7570 H   0  0  0  0  0  0  0  0  0  0  0  0
  148.3627  137.7496  157.8701 H   0  0  0  0  0  0  0  0  0  0  0  0
  145.9976  134.9872  157.3047 H   0  0  0  0  0  0  0  0  0  0  0  0
  145.8377  133.7148  155.1956 H   0  0  0  0  0  0  0  0  0  0  0  0
  147.0911  134.5803  153.1376 H   0  0  0  0  0  0  0  0  0  0  0  0
  150.5850  136.9930  155.3349 H   0  0  0  0  0  0  0  0  0  0  0  0
  150.1124  137.4332  153.7015 H   0  0  0  0  0  0  0  0  0  0  0  0
  151.2057  139.3409  155.8506 H   0  0  0  0  0  0  0  0  0  0  0  0
  152.0160  138.8477  154.3788 H   0  0  0  0  0  0  0  0  0  0  0  0
  149.2439  140.7700  155.6751 H   0  0  0  0  0  0  0  0  0  0  0  0
  148.7338  141.2960  154.0809 H   0  0  0  0  0  0  0  0  0  0  0  0
  148.0378  138.9998  153.4703 H   0  0  0  0  0  0  0  0  0  0  0  0
  147.2392  139.4632  154.9661 H   0  0  0  0  0  0  0  0  0  0  0  0
  148.3339  136.5121  153.3253 H   0  0  0  0  0  0  0  0  0  0  0  0
  1  2  1  0  0  0  0
  1 23  1  0  0  0  0
  1 24  1  0  0  0  0
  1 25  1  0  0  0  0
  2  3  1  0  0  0  0
  2 26  1  0  0  0  0
  2 27  1  0  0  0  0
  3  4  1  0  0  0  0
  3  6  1  0  0  0  0
  4  5  1  0  0  0  0
  4 28  1  0  0  0  0
  4 29  1  0  0  0  0
  5 30  1  0  0  0  0
  5 31  1  0  0  0  0
  5 32  1  0  0  0  0
  6  7  2  0  0  0  0
  6  8  2  0  0  0  0
  6  9  1  0  0  0  0
  9 10  1  0  0  0  0
 10 11  1  0  0  0  0
 10 33  1  0  0  0  0
 10 34  1  0  0  0  0
 11 16  1  0  0  0  0
 11 12  2  0  0  0  0
 12 13  1  0  0  0  0
 12 35  1  0  0  0  0
 13 14  2  0  0  0  0
 13 36  1  0  0  0  0
 14 15  1  0  0  0  0
 14 37  1  0  0  0  0
 15 16  2  0  0  0  0
 15 46  1  0  0  0  0
 16 17  1  0  0  0  0
 17 22  1  0  0  0  0
 17 18  1  0  0  0  0
 18 19  1  0  0  0  0
 18 38  1  0  0  0  0
 18 39  1  0  0  0  0
 19 20  1  0  0  0  0
 19 40  1  0  0  0  0
 19 41  1  0  0  0  0
 20 21  1  0  0  0  0
 21 22  1  0  0  0  0
 21 42  1  0  0  0  0
 21 43  1  0  0  0  0
 22 44  1  0  0  0  0
 22 45  1  0  0  0  0
M  CHG  1   9  -1
M  CHG  1  15   1
M  END
> <s_m_source_file>
AV-unprocessed.smi

> <i_m_source_file_index>
2107

> <i_lp_mmshare_version>
43012

> <i_f3d_flags>
0

> <s_epik_input>
W0NIM11bQ0gyXU4oW0NIMl1bQ0gzXSlTKD1PKSg9TylbTkhdW0NIMl1jMVtjSF1bY0hdW2NIXW5jMU4yW0NIMl1bQ0gyXU9bQ0gyXVtDSDJdMg==

> <s_epik_cmdline>
J2VwaWtfcHl0aG9uJywgJy1waCcsICc3LjAnLCAnLXRuJywgJzgnLCAnLW1hJywgJzIwMCcsICctbWV0YWxfYmluZGluZycsICctaW1hZScsICc8aW5maWxlLm1hZT4nLCAnLW9tYWUnLCAnPG91dGZpbGUubWFlPic=

> <r_lp_tautomer_probability>
0.999994

> <r_epik_Ionization_Penalty>
2.67026

> <r_epik_Ionization_Penalty_Charging>
2.67026

> <r_epik_Ionization_Penalty_Neutral>
4.07977e-08

> <r_epik_State_Penalty>
4.05768

> <r_epik_Charging_Adjusted_Penalty>
6.72795

> <i_epik_Tot_Q>
0

> <i_epik_Tot_abs_Q>
2

> <r_epik_Metal_State_Penalty>
2.91237

> <b_epik_Metal_Only>
1

> <s_lp_Force_Field>
OPLS_2005

> <r_lp_Energy>
19.7011

> <b_lp_Chiralities_Consistent>
1

> <s_lp_Variant>
AV-unprocessed.smi:2107-4

> <Gold.Version>
5.8.1

> <Gold.Id.Protein>
6NUR|6NUR_protein|mol2

> <Gold.PLP.Fitness>
43.1681

> <Gold.PLP.PLP>
-27.5376

> <Gold.PLP.part.hbond>
-4.8621

> <Gold.PLP.part.metal>
0.0000

> <Gold.PLP.part.buried>
-2.6300

> <Gold.PLP.part.nonpolar>
-20.4471

> <Gold.PLP.part.repulsive>
0.8254

> <Gold.PLP.ligand.clash>
0.0000

> <Gold.PLP.ligand.torsion>
2.6917

> <Gold.PLP.Chemscore.Hbond>
5.7913

> <Gold.PLP.Chemscore.CHOScore>
0.0000

> <Gold.PLP.Chemscore.Metal>
0.0000

> <Gold.Chemscore.Hbonds>
donor molecule, donor type, donor heavy atom, donor atom, acceptor molecule, acceptor atom, score
      L1  H    15    46       P1  7948  2.00
      P1  H  6896  6907       L1     8  0.76
      P1  H  6931  6943       L1     7  0.96
      P1  H  6934  6947       L1     7  0.85
      P1  H  7989  7998       L1    20  1.00

> <Gold.PLP.Chemscore.Internal.Correction>
3.6402

> <Gold.Rescore>
     Score         DG    S(hbond)    S(metal)    S(lipo)     H(rot)  DE(clash)    DE(int)     intcor
     19.17     -21.95       4.44        0.00      51.50       1.72       0.07       2.72       ----

> <Gold.Chemscore.Fitness>
19.1658

> <Gold.Chemscore.DG>
-21.9511

> <Gold.Chemscore.ZeroCoef>
-5.4800

> <Gold.Chemscore.Hbond>
4.4427

> <Gold.Chemscore.Metal>
0.0000

> <Gold.Chemscore.Lipo>
51.4968

> <Gold.Chemscore.Internal_Hbond>
0.0000

> <Gold.Chemscore.DEClash>
0.0688

> <Gold.Chemscore.DEInternal>
2.7166

> <Gold.Chemscore.Rot>
1.7159

> <Gold.Chemscore.Internal.Correction>
   9.000000E+99

> <Gold.Chemscore.Hbonds>
donor molecule, donor type, donor heavy atom, donor atom, acceptor molecule, acceptor atom, score
      L1  H    15    46       P1  7948  0.95
      P1  H  6896  6907       L1     8  0.72
      P1  H  6931  6943       L1     7  0.65
      P1  H  6934  6947       L1     7  0.75
      P1  H  7989  7998       L1    20  0.41

> <Gold.Chemscore.Hbond.Weighted>
-14.8386

> <Gold.Chemscore.Metal.Weighted>
-0.0000

> <Gold.Chemscore.Lipo.Weighted>
-6.0251

> <Gold.Chemscore.Internal_Hbond.Weighted>
0.0000

> <Gold.Chemscore.DEClash.Weighted>
0.0688

> <Gold.Chemscore.DEInternal.Weighted>
2.7166

> <Gold.Chemscore.Rot.Weighted>
4.3926

> <Gold.Chemscore.Internal.Correction.Weighted>
   9.000000E+99

> <Gold.Protein.RotatedTorsions>
[ 6907 6896 6895 6894 ] final  -27.30 input  -60.11 | X-H torsion
[ 7974 7965 7964 7962 ] final   74.10 input  175.53 | X-H torsion
[ 8008 7997 7996 7995 ] final -106.51 input   59.86 | X-H torsion
[ 10167 10162 10161 10158 ] final -168.06 input  -65.29 | X-H torsion
[ 10718 10713 10712 10709 ] final -111.86 input   66.30 | X-H torsion
[ 10763 10752 10751 10750 ] final -146.77 input  -60.55 | X-H torsion
[ 11005 11000 10999 10996 ] final   65.58 input  -57.11 | X-H torsion

> <Gold.Protein.ActiveResidues>
 VAL166  LYS551  ARG553  GLY616  TRP617  ASP618  TYR619  PRO620  LYS621  CYS622 
 ASP623  PHE694  ASN695  SER759  ASP760  ASP761  ALA762  ILE779  LEU786  VAL792 
 PHE793  MET794  SER795  GLU796  ALA797  LYS798  CYS799  TRP800  GLU811  SER814 

> <Gold.Protein.RotatedAtoms>
  151.1488  135.0217  159.8658 H   0  0  0  0  0  0  0  0  0  0  0  0  # atno 6907 bound_to 6896
  152.5453  134.1413  159.8490 H   0  0  0  0  0  0  0  0  0  0  0  0  # atno 6908 bound_to 6896
  151.1496  133.4871  159.2628 H   0  0  0  0  0  0  0  0  0  0  0  0  # atno 6909 bound_to 6896
  145.7325  139.2689  143.1533 H   0  0  0  0  0  0  0  0  0  0  0  0  # atno 7974 bound_to 7965
  154.9156  140.0409  157.1970 H   0  0  0  0  0  0  0  0  0  0  0  0  # atno 8008 bound_to 7997
  154.8305  140.2898  155.5704 H   0  0  0  0  0  0  0  0  0  0  0  0  # atno 8009 bound_to 7997
  156.2986  140.2502  156.3229 H   0  0  0  0  0  0  0  0  0  0  0  0  # atno 8010 bound_to 7997
  139.6009  144.1013  152.1741 H   0  0  0  0  0  0  0  0  0  0  0  0  # atno 10167 bound_to 10162
  156.0671  130.5889  150.8430 H   0  0  0  0  0  0  0  0  0  0  0  0  # atno 10718 bound_to 10713
  154.8319  135.3378  154.6713 H   0  0  0  0  0  0  0  0  0  0  0  0  # atno 10763 bound_to 10752
  153.7332  135.6950  153.4989 H   0  0  0  0  0  0  0  0  0  0  0  0  # atno 10764 bound_to 10752
  153.2297  135.4420  155.0533 H   0  0  0  0  0  0  0  0  0  0  0  0  # atno 10765 bound_to 10752
  139.9886  134.6628  156.0132 H   0  0  0  0  0  0  0  0  0  0  0  0  # atno 11005 bound_to 11000
  146.0524  140.8056  142.9775 LP  0  0  0  0  0  0  0  0  0  0  0  0  # atno 17320 bound_to 7965
  144.6889  140.3073  143.7254 LP  0  0  0  0  0  0  0  0  0  0  0  0  # atno 17321 bound_to 7965
  140.0609  144.5857  150.7264 LP  0  0  0  0  0  0  0  0  0  0  0  0  # atno 17342 bound_to 10162
  140.7249  143.2625  151.4155 LP  0  0  0  0  0  0  0  0  0  0  0  0  # atno 17343 bound_to 10162
  157.5720  131.0946  150.9403 LP  0  0  0  0  0  0  0  0  0  0  0  0  # atno 17370 bound_to 10713
  156.9618  130.5458  149.5286 LP  0  0  0  0  0  0  0  0  0  0  0  0  # atno 17371 bound_to 10713
  141.1546  133.6544  156.4120 LP  0  0  0  0  0  0  0  0  0  0  0  0  # atno 17394 bound_to 11000
  140.4954  134.6536  157.5227 LP  0  0  0  0  0  0  0  0  0  0  0  0  # atno 17395 bound_to 11000

$$$$
