AV-unprocessed.smi:2252|AV-procd|sdf|9111|dock6
  -GOLD-   2272012313D 1   1.00000     0.00000
 Structure written by MMmdl.
 44 46  0  0  0  0  0  0  0  0  3 V2000
  146.4485  133.6016  162.0438 C   0  0  0  0  0  0  0  0  0  0  0  0
  146.6792  135.0328  162.0966 N   0  0  0  0  0  0  0  0  0  0  0  0
  146.3226  135.8720  163.1442 C   0  0  0  0  0  0  0  0  0  0  0  0
  146.7153  137.1386  162.7874 C   0  0  0  0  0  0  0  0  0  0  0  0
  147.3098  137.0986  161.5320 N   0  0  0  0  0  0  0  0  0  0  0  0
  147.2681  135.8167  161.1684 C   0  0  0  0  0  0  0  0  0  0  0  0
  147.8108  135.2951  159.8600 C   0  0  0  0  0  0  0  0  0  0  0  0
  148.4748  136.3515  158.9433 C   0  0  0  0  0  0  0  0  0  0  0  0
  148.3940  135.9448  157.5422 N   0  5  0  0  0  0  0  0  0  0  0  0
  149.4711  135.7933  156.7213 C   0  0  0  0  0  0  0  0  0  0  0  0
  150.6683  135.6543  156.9899 O   0  0  0  0  0  0  0  0  0  0  0  0
  149.0454  135.7595  155.2413 C   0  0  2  0  0  0  0  0  0  0  0  0
  149.5198  134.4478  154.5717 C   0  0  0  0  0  0  0  0  0  0  0  0
  148.6606  133.7299  153.5533 C   0  0  0  0  0  0  0  0  0  0  0  0
  148.8698  133.1256  154.9178 C   0  0  0  0  0  0  0  0  0  0  0  0
  149.5238  136.9704  154.5145 N   0  3  0  0  0  0  0  0  0  0  0  0
  148.8322  138.2369  154.8395 C   0  0  0  0  0  0  0  0  0  0  0  0
  149.8094  139.3709  154.4986 C   0  0  0  0  0  0  0  0  0  0  0  0
  151.1277  138.6840  154.1340 C   0  0  0  0  0  0  0  0  0  0  0  0
  150.9675  137.2554  154.6450 C   0  0  0  0  0  0  0  0  0  0  0  0
  145.9870  133.2606  162.9710 H   0  0  0  0  0  0  0  0  0  0  0  0
  147.3949  133.0773  161.9102 H   0  0  0  0  0  0  0  0  0  0  0  0
  145.7843  133.3650  161.2124 H   0  0  0  0  0  0  0  0  0  0  0  0
  145.8310  135.5078  164.0341 H   0  0  0  0  0  0  0  0  0  0  0  0
  146.6165  138.0668  163.3307 H   0  0  0  0  0  0  0  0  0  0  0  0
  148.5299  134.5030  160.0686 H   0  0  0  0  0  0  0  0  0  0  0  0
  146.9953  134.8079  159.3238 H   0  0  0  0  0  0  0  0  0  0  0  0
  147.9831  137.3118  159.0999 H   0  0  0  0  0  0  0  0  0  0  0  0
  149.5053  136.5008  159.2678 H   0  0  0  0  0  0  0  0  0  0  0  0
  147.9542  135.7717  155.2141 H   0  0  0  0  0  0  0  0  0  0  0  0
  150.5947  134.4043  154.4026 H   0  0  0  0  0  0  0  0  0  0  0  0
  147.6773  134.1417  153.3345 H   0  0  0  0  0  0  0  0  0  0  0  0
  149.1677  133.2626  152.7116 H   0  0  0  0  0  0  0  0  0  0  0  0
  149.5177  132.2546  154.9912 H   0  0  0  0  0  0  0  0  0  0  0  0
  148.0268  133.1391  155.6058 H   0  0  0  0  0  0  0  0  0  0  0  0
  147.8951  138.3222  154.2884 H   0  0  0  0  0  0  0  0  0  0  0  0
  148.6017  138.2703  155.9053 H   0  0  0  0  0  0  0  0  0  0  0  0
  149.4459  139.9783  153.6690 H   0  0  0  0  0  0  0  0  0  0  0  0
  149.9377  140.0300  155.3580 H   0  0  0  0  0  0  0  0  0  0  0  0
  151.2468  138.6730  153.0500 H   0  0  0  0  0  0  0  0  0  0  0  0
  151.9980  139.1853  154.5584 H   0  0  0  0  0  0  0  0  0  0  0  0
  151.2591  137.2024  155.6953 H   0  0  0  0  0  0  0  0  0  0  0  0
  151.5822  136.5480  154.0872 H   0  0  0  0  0  0  0  0  0  0  0  0
  149.3597  136.7947  153.5327 H   0  0  0  0  0  0  0  0  0  0  0  0
  1  2  1  0  0  0  0
  1 21  1  0  0  0  0
  1 22  1  0  0  0  0
  1 23  1  0  0  0  0
  2  6  1  0  0  0  0
  2  3  1  0  0  0  0
  3  4  2  0  0  0  0
  3 24  1  0  0  0  0
  4  5  1  0  0  0  0
  4 25  1  0  0  0  0
  5  6  2  0  0  0  0
  6  7  1  0  0  0  0
  7  8  1  0  0  0  0
  7 26  1  0  0  0  0
  7 27  1  0  0  0  0
  8  9  1  0  0  0  0
  8 28  1  0  0  0  0
  8 29  1  0  0  0  0
  9 10  1  0  0  0  0
 10 11  2  0  0  0  0
 10 12  1  0  0  0  0
 12 13  1  0  0  0  0
 12 16  1  0  0  0  0
 12 30  1  0  0  0  0
 13 15  1  0  0  0  0
 13 14  1  0  0  0  0
 13 31  1  0  0  0  0
 14 15  1  0  0  0  0
 14 32  1  0  0  0  0
 14 33  1  0  0  0  0
 15 34  1  0  0  0  0
 15 35  1  0  0  0  0
 16 20  1  0  0  0  0
 16 17  1  0  0  0  0
 16 44  1  0  0  0  0
 17 18  1  0  0  0  0
 17 36  1  0  0  0  0
 17 37  1  0  0  0  0
 18 19  1  0  0  0  0
 18 38  1  0  0  0  0
 18 39  1  0  0  0  0
 19 20  1  0  0  0  0
 19 40  1  0  0  0  0
 19 41  1  0  0  0  0
 20 42  1  0  0  0  0
 20 43  1  0  0  0  0
M  CHG  1   9  -1
M  CHG  1  16   1
M  END
> <s_m_source_file>
AV-unprocessed.smi

> <i_m_source_file_index>
2252

> <i_lp_mmshare_version>
43012

> <i_f3d_flags>
0

> <s_epik_input>
W0NIM11uMVtjSF1bY0hdbmMxW0NIMl1bQ0gyXVtOSF1DKD1PKVtDQEhdKFtDSF0yW0NIMl1bQ0gyXTIpTjNbQ0gyXVtDSDJdW0NIMl1bQ0gyXTM=

> <s_epik_cmdline>
J2VwaWtfcHl0aG9uJywgJy1waCcsICc3LjAnLCAnLXRuJywgJzgnLCAnLW1hJywgJzIwMCcsICctbWV0YWxfYmluZGluZycsICctaW1hZScsICc8aW5maWxlLm1hZT4nLCAnLW9tYWUnLCAnPG91dGZpbGUubWFlPic=

> <r_lp_tautomer_probability>
1

> <r_epik_Ionization_Penalty>
7.86289

> <r_epik_Ionization_Penalty_Charging>
7.86289

> <r_epik_Ionization_Penalty_Neutral>
4.79398e-13

> <r_epik_State_Penalty>
7.18546

> <r_epik_Charging_Adjusted_Penalty>
15.0484

> <i_epik_Tot_Q>
0

> <i_epik_Tot_abs_Q>
2

> <r_epik_Metal_State_Penalty>
3.4294

> <b_epik_Metal_Only>
1

> <s_lp_Force_Field>
OPLS_2005

> <r_lp_Energy>
29.989

> <b_lp_Chiralities_Consistent>
1

> <s_lp_Variant>
AV-unprocessed.smi:2252-9

> <Gold.Version>
5.8.1

> <Gold.Id.Protein>
6NUR|6NUR_protein|mol2

> <Gold.PLP.Fitness>
50.0847

> <Gold.PLP.PLP>
-39.6699

> <Gold.PLP.part.hbond>
-3.3287

> <Gold.PLP.part.metal>
0.0000

> <Gold.PLP.part.buried>
-3.3284

> <Gold.PLP.part.nonpolar>
-32.2302

> <Gold.PLP.part.repulsive>
0.0349

> <Gold.PLP.ligand.clash>
0.0000

> <Gold.PLP.ligand.torsion>
1.0390

> <Gold.PLP.Chemscore.Hbond>
3.7454

> <Gold.PLP.Chemscore.CHOScore>
0.0000

> <Gold.PLP.Chemscore.Metal>
0.0000

> <Gold.Chemscore.Hbonds>
donor molecule, donor type, donor heavy atom, donor atom, acceptor molecule, acceptor atom, score
      L1  H    16    44       P1  7948  2.00
      P1  H  6931  6943       L1     5  0.77
      P1  H  6934  6947       L1     5  0.94

> <Gold.PLP.Chemscore.Internal.Correction>
1.2565

> <Gold.Rescore>
     Score         DG    S(hbond)    S(metal)    S(lipo)     H(rot)  DE(clash)    DE(int)     intcor
     13.42     -16.24       1.71        0.00      84.41       1.88       0.72       2.10       ----

> <Gold.Chemscore.Fitness>
13.4161

> <Gold.Chemscore.DG>
-16.2432

> <Gold.Chemscore.ZeroCoef>
-5.4800

> <Gold.Chemscore.Hbond>
1.7075

> <Gold.Chemscore.Metal>
0.0000

> <Gold.Chemscore.Lipo>
84.4134

> <Gold.Chemscore.Internal_Hbond>
0.0000

> <Gold.Chemscore.DEClash>
0.7226

> <Gold.Chemscore.DEInternal>
2.1046

> <Gold.Chemscore.Rot>
1.8814

> <Gold.Chemscore.Internal.Correction>
   9.000000E+99

> <Gold.Chemscore.Hbonds>
donor molecule, donor type, donor heavy atom, donor atom, acceptor molecule, acceptor atom, score
      L1  H    16    44       P1  7948  0.93
      P1  H  6931  6943       L1     5  0.18
      P1  H  6934  6947       L1     5  0.30

> <Gold.Chemscore.Hbond.Weighted>
-5.7031

> <Gold.Chemscore.Metal.Weighted>
-0.0000

> <Gold.Chemscore.Lipo.Weighted>
-9.8764

> <Gold.Chemscore.Internal_Hbond.Weighted>
0.0000

> <Gold.Chemscore.DEClash.Weighted>
0.7226

> <Gold.Chemscore.DEInternal.Weighted>
2.1046

> <Gold.Chemscore.Rot.Weighted>
4.8163

> <Gold.Chemscore.Internal.Correction.Weighted>
   9.000000E+99

> <Gold.Protein.RotatedTorsions>
[ 6907 6896 6895 6894 ] final   42.77 input  -60.11 | X-H torsion
[ 7974 7965 7964 7962 ] final -178.66 input  175.53 | X-H torsion
[ 8008 7997 7996 7995 ] final  -35.16 input   59.86 | X-H torsion
[ 10167 10162 10161 10158 ] final  140.21 input  -65.29 | X-H torsion
[ 10718 10713 10712 10709 ] final   17.27 input   66.30 | X-H torsion
[ 10763 10752 10751 10750 ] final  -92.10 input  -60.55 | X-H torsion
[ 11005 11000 10999 10996 ] final   30.87 input  -57.11 | X-H torsion

> <Gold.Protein.ActiveResidues>
 VAL166  LYS551  ARG553  GLY616  TRP617  ASP618  TYR619  PRO620  LYS621  CYS622 
 ASP623  PHE694  ASN695  SER759  ASP760  ASP761  ALA762  ILE779  LEU786  VAL792 
 PHE793  MET794  SER795  GLU796  ALA797  LYS798  CYS799  TRP800  GLU811  SER814 

> <Gold.Protein.RotatedAtoms>
  152.2120  134.8493  160.0496 H   0  0  0  0  0  0  0  0  0  0  0  0  # atno 6907 bound_to 6896
  151.9308  133.3605  159.3938 H   0  0  0  0  0  0  0  0  0  0  0  0  # atno 6908 bound_to 6896
  150.6978  134.4465  159.5360 H   0  0  0  0  0  0  0  0  0  0  0  0  # atno 6909 bound_to 6896
  144.7132  140.0834  143.6424 H   0  0  0  0  0  0  0  0  0  0  0  0  # atno 7974 bound_to 7965
  154.4102  140.1664  156.2166 H   0  0  0  0  0  0  0  0  0  0  0  0  # atno 8008 bound_to 7997
  155.9399  140.3409  155.6295 H   0  0  0  0  0  0  0  0  0  0  0  0  # atno 8009 bound_to 7997
  155.7002  140.0744  157.2404 H   0  0  0  0  0  0  0  0  0  0  0  0  # atno 8010 bound_to 7997
  139.5055  144.6248  151.5963 H   0  0  0  0  0  0  0  0  0  0  0  0  # atno 10167 bound_to 10162
  157.0797  130.6382  149.5824 H   0  0  0  0  0  0  0  0  0  0  0  0  # atno 10718 bound_to 10713
  154.6827  135.5244  153.8284 H   0  0  0  0  0  0  0  0  0  0  0  0  # atno 10763 bound_to 10752
  153.0576  135.6556  154.0550 H   0  0  0  0  0  0  0  0  0  0  0  0  # atno 10764 bound_to 10752
  154.0435  135.2975  155.3331 H   0  0  0  0  0  0  0  0  0  0  0  0  # atno 10765 bound_to 10752
  140.2899  134.2876  155.7778 H   0  0  0  0  0  0  0  0  0  0  0  0  # atno 11005 bound_to 11000
  145.9682  139.2850  143.1114 LP  0  0  0  0  0  0  0  0  0  0  0  0  # atno 17320 bound_to 7965
  145.9145  140.9157  143.0436 LP  0  0  0  0  0  0  0  0  0  0  0  0  # atno 17321 bound_to 7965
  140.5962  143.9692  150.6356 LP  0  0  0  0  0  0  0  0  0  0  0  0  # atno 17342 bound_to 10162
  140.2889  143.3338  152.1081 LP  0  0  0  0  0  0  0  0  0  0  0  0  # atno 17343 bound_to 10162
  155.9927  130.4986  150.7351 LP  0  0  0  0  0  0  0  0  0  0  0  0  # atno 17370 bound_to 10713
  157.4810  131.0902  151.0536 LP  0  0  0  0  0  0  0  0  0  0  0  0  # atno 17371 bound_to 10713
  141.2148  133.7578  156.9608 LP  0  0  0  0  0  0  0  0  0  0  0  0  # atno 17394 bound_to 11000
  140.1205  134.9420  157.2197 LP  0  0  0  0  0  0  0  0  0  0  0  0  # atno 17395 bound_to 11000

$$$$
