AV-unprocessed.smi:183|AV-procd|sdf|1459|dock4
  -GOLD-   2262019263D 1   1.00000     0.00000
 Structure written by MMmdl.
 55 57  0  0  0  0  0  0  0  0  1 V2000
  143.8660  133.2123  150.5760 C   0  0  0  0  0  0  0  0  0  0  0  0
  144.9710  133.7903  151.4532 C   0  0  0  0  0  0  0  0  0  0  0  0
  145.8805  134.4482  150.9485 O   0  0  0  0  0  0  0  0  0  0  0  0
  144.8785  133.5376  152.7672 N   0  0  0  0  0  0  0  0  0  0  0  0
  145.8298  133.9915  153.7726 C   0  0  0  0  0  0  0  0  0  0  0  0
  147.1924  133.2886  153.6109 C   0  0  0  0  0  0  0  0  0  0  0  0
  147.3629  132.1314  154.4944 N   0  0  0  0  0  0  0  0  0  0  0  0
  147.9970  132.4748  155.6425 C   0  0  0  0  0  0  0  0  0  0  0  0
  149.2274  133.0342  155.5252 N   0  0  0  0  0  0  0  0  0  0  0  0
  149.9112  133.3851  156.6184 C   0  0  0  0  0  0  0  0  0  0  0  0
  149.5592  133.2603  157.8994 N   0  0  0  0  0  0  0  0  0  0  0  0
  148.3269  132.6890  158.0218 C   0  0  0  0  0  0  0  0  0  0  0  0
  147.4838  132.2669  156.9555 C   0  0  0  0  0  0  0  0  0  0  0  0
  146.3138  131.7180  157.4680 N   0  0  0  0  0  0  0  0  0  0  0  0
  146.4559  131.8135  158.7612 C   0  0  0  0  0  0  0  0  0  0  0  0
  147.6318  132.3925  159.1811 N   0  0  0  0  0  0  0  0  0  0  0  0
  148.0463  132.6257  160.5555 C   0  0  0  0  0  0  0  0  0  0  0  0
  147.3844  133.8697  161.1943 C   0  0  1  0  0  0  0  0  0  0  0  0
  145.9805  133.7808  161.0102 O   0  0  0  0  0  0  0  0  0  0  0  0
  147.6631  134.0245  162.6826 C   0  0  0  0  0  0  0  0  0  0  0  0
  147.4735  135.5199  162.9002 C   0  0  0  0  0  0  0  0  0  0  0  0
  147.9911  136.1203  161.7209 O   0  0  0  0  0  0  0  0  0  0  0  0
  147.9311  135.2011  160.6306 C   0  0  2  0  0  0  0  0  0  0  0  0
  147.1677  135.8117  159.4444 C   0  0  0  0  0  0  0  0  0  0  0  0
  147.6456  130.8022  153.9253 C   0  0  0  0  0  0  0  0  0  0  0  0
  146.8698  130.5633  152.6160 C   0  0  0  0  0  0  0  0  0  0  0  0
  147.3209  129.6573  154.9097 C   0  0  0  0  0  0  0  0  0  0  0  0
  142.9245  133.7289  150.7644 H   0  0  0  0  0  0  0  0  0  0  0  0
  143.7268  132.1510  150.7836 H   0  0  0  0  0  0  0  0  0  0  0  0
  144.1118  133.3228  149.5194 H   0  0  0  0  0  0  0  0  0  0  0  0
  144.0963  132.9883  153.0928 H   0  0  0  0  0  0  0  0  0  0  0  0
  145.9411  135.0697  153.6612 H   0  0  0  0  0  0  0  0  0  0  0  0
  145.4177  133.8229  154.7681 H   0  0  0  0  0  0  0  0  0  0  0  0
  147.3176  132.9742  152.5734 H   0  0  0  0  0  0  0  0  0  0  0  0
  148.0007  133.9968  153.7908 H   0  0  0  0  0  0  0  0  0  0  0  0
  150.8802  133.8273  156.4410 H   0  0  0  0  0  0  0  0  0  0  0  0
  145.6996  131.4648  159.4491 H   0  0  0  0  0  0  0  0  0  0  0  0
  147.8073  131.7316  161.1329 H   0  0  0  0  0  0  0  0  0  0  0  0
  149.1326  132.7217  160.5797 H   0  0  0  0  0  0  0  0  0  0  0  0
  145.6510  133.0814  161.5534 H   0  0  0  0  0  0  0  0  0  0  0  0
  147.0194  133.4140  163.3175 H   0  0  0  0  0  0  0  0  0  0  0  0
  148.6984  133.7597  162.9014 H   0  0  0  0  0  0  0  0  0  0  0  0
  146.4142  135.7648  162.9885 H   0  0  0  0  0  0  0  0  0  0  0  0
  147.9827  135.8842  163.7925 H   0  0  0  0  0  0  0  0  0  0  0  0
  148.9671  135.0507  160.3236 H   0  0  0  0  0  0  0  0  0  0  0  0
  147.1048  135.1074  158.6147 H   0  0  0  0  0  0  0  0  0  0  0  0
  147.6725  136.7072  159.0816 H   0  0  0  0  0  0  0  0  0  0  0  0
  146.1535  136.0989  159.7226 H   0  0  0  0  0  0  0  0  0  0  0  0
  148.7080  130.7504  153.6876 H   0  0  0  0  0  0  0  0  0  0  0  0
  147.0469  129.5577  152.2339 H   0  0  0  0  0  0  0  0  0  0  0  0
  147.1758  131.2534  151.8299 H   0  0  0  0  0  0  0  0  0  0  0  0
  145.7954  130.6759  152.7647 H   0  0  0  0  0  0  0  0  0  0  0  0
  147.5002  128.6851  154.4499 H   0  0  0  0  0  0  0  0  0  0  0  0
  146.2753  129.6876  155.2180 H   0  0  0  0  0  0  0  0  0  0  0  0
  147.9340  129.6928  155.8096 H   0  0  0  0  0  0  0  0  0  0  0  0
  1  2  1  0  0  0  0
  1 28  1  0  0  0  0
  1 29  1  0  0  0  0
  1 30  1  0  0  0  0
  2  3  2  0  0  0  0
  2  4  1  0  0  0  0
  4  5  1  0  0  0  0
  4 31  1  0  0  0  0
  5  6  1  0  0  0  0
  5 32  1  0  0  0  0
  5 33  1  0  0  0  0
  6  7  1  0  0  0  0
  6 34  1  0  0  0  0
  6 35  1  0  0  0  0
  7  8  1  0  0  0  0
  7 25  1  0  0  0  0
  8 13  1  0  0  0  0
  8  9  2  0  0  0  0
  9 10  1  0  0  0  0
 10 11  2  0  0  0  0
 10 36  1  0  0  0  0
 11 12  1  0  0  0  0
 12 16  1  0  0  0  0
 12 13  2  0  0  0  0
 13 14  1  0  0  0  0
 14 15  2  0  0  0  0
 15 16  1  0  0  0  0
 15 37  1  0  0  0  0
 16 17  1  0  0  0  0
 17 18  1  0  0  0  0
 17 38  1  0  0  0  0
 17 39  1  0  0  0  0
 18 23  1  0  0  0  0
 18 19  1  0  0  0  0
 18 20  1  0  0  0  0
 19 40  1  0  0  0  0
 20 21  1  0  0  0  0
 20 41  1  0  0  0  0
 20 42  1  0  0  0  0
 21 22  1  0  0  0  0
 21 43  1  0  0  0  0
 21 44  1  0  0  0  0
 22 23  1  0  0  0  0
 23 24  1  0  0  0  0
 23 45  1  0  0  0  0
 24 46  1  0  0  0  0
 24 47  1  0  0  0  0
 24 48  1  0  0  0  0
 25 26  1  0  0  0  0
 25 27  1  0  0  0  0
 25 49  1  0  0  0  0
 26 50  1  0  0  0  0
 26 51  1  0  0  0  0
 26 52  1  0  0  0  0
 27 53  1  0  0  0  0
 27 54  1  0  0  0  0
 27 55  1  0  0  0  0
M  END
> <s_m_source_file>
AV-unprocessed.smi

> <i_m_source_file_index>
183

> <i_lp_mmshare_version>
43012

> <i_f3d_flags>
0

> <s_epik_input>
W0NIM11DKD1PKVtOSF1bQ0gyXVtDSDJdTihbQ0hdKFtDSDNdKVtDSDNdKWMobltjSF1uMSljKGMxMiluW2NIXW4yW0NIMl1bQ0BAXTMoW09IXSlbQ0gyXVtDSDJdT1tDQEhdM1tDSDNd

> <s_epik_cmdline>
J2VwaWtfcHl0aG9uJywgJy1waCcsICc3LjAnLCAnLXRuJywgJzgnLCAnLW1hJywgJzIwMCcsICctbWV0YWxfYmluZGluZycsICctaW1hZScsICc8aW5maWxlLm1hZT4nLCAnLW9tYWUnLCAnPG91dGZpbGUubWFlPic=

> <r_lp_tautomer_probability>
1

> <r_epik_Ionization_Penalty>
0.00156158

> <r_epik_Ionization_Penalty_Charging>
0

> <r_epik_Ionization_Penalty_Neutral>
0.00156158

> <r_epik_State_Penalty>
0.000865808

> <r_epik_Charging_Adjusted_Penalty>
0.000865808

> <i_epik_Tot_Q>
0

> <i_epik_Tot_abs_Q>
0

> <r_epik_Metal_State_Penalty>
-0

> <b_epik_Metal_Only>
0

> <s_lp_Force_Field>
OPLS_2005

> <r_lp_Energy>
29.9876

> <b_lp_Chiralities_Consistent>
1

> <s_lp_Variant>
AV-unprocessed.smi:183-3

> <Gold.Version>
5.8.1

> <Gold.Id.Protein>
6NUR|6NUR_protein|mol2

> <Gold.PLP.Fitness>
40.2682

> <Gold.PLP.PLP>
-31.4711

> <Gold.PLP.part.hbond>
-4.0000

> <Gold.PLP.part.metal>
0.0000

> <Gold.PLP.part.buried>
-5.2844

> <Gold.PLP.part.nonpolar>
-22.2392

> <Gold.PLP.part.repulsive>
0.1877

> <Gold.PLP.ligand.clash>
0.0000

> <Gold.PLP.ligand.torsion>
1.7952

> <Gold.PLP.Chemscore.Hbond>
3.7680

> <Gold.PLP.Chemscore.CHOScore>
0.0000

> <Gold.PLP.Chemscore.Metal>
0.0000

> <Gold.Chemscore.Hbonds>
donor molecule, donor type, donor heavy atom, donor atom, acceptor molecule, acceptor atom, score
      P1  H  6896  6909       L1    11  1.00
      P1  H  6931  6943       L1    22  0.15

> <Gold.PLP.Chemscore.Internal.Correction>
1.0835

> <Gold.Rescore>
     Score         DG    S(hbond)    S(metal)    S(lipo)     H(rot)  DE(clash)    DE(int)     intcor
     12.60     -15.33       3.27        0.00      66.28       3.45       0.03       2.70       ----

> <Gold.Chemscore.Fitness>
12.6049

> <Gold.Chemscore.DG>
-15.3337

> <Gold.Chemscore.ZeroCoef>
-5.4800

> <Gold.Chemscore.Hbond>
3.2690

> <Gold.Chemscore.Metal>
0.0000

> <Gold.Chemscore.Lipo>
66.2802

> <Gold.Chemscore.Internal_Hbond>
0.0000

> <Gold.Chemscore.DEClash>
0.0262

> <Gold.Chemscore.DEInternal>
2.7026

> <Gold.Chemscore.Rot>
3.4451

> <Gold.Chemscore.Internal.Correction>
   9.000000E+99

> <Gold.Chemscore.Hbonds>
donor molecule, donor type, donor heavy atom, donor atom, acceptor molecule, acceptor atom, score
      P1  H  6896  6909       L1    11  0.97
      P1  H  6931  6943       L1    22  0.15

> <Gold.Chemscore.Hbond.Weighted>
-10.9184

> <Gold.Chemscore.Metal.Weighted>
-0.0000

> <Gold.Chemscore.Lipo.Weighted>
-7.7548

> <Gold.Chemscore.Internal_Hbond.Weighted>
0.0000

> <Gold.Chemscore.DEClash.Weighted>
0.0262

> <Gold.Chemscore.DEInternal.Weighted>
2.7026

> <Gold.Chemscore.Rot.Weighted>
8.8194

> <Gold.Chemscore.Internal.Correction.Weighted>
   9.000000E+99

> <Gold.Protein.RotatedTorsions>
[ 6907 6896 6895 6894 ] final   -0.69 input  -60.11 | X-H torsion
[ 7974 7965 7964 7962 ] final   96.23 input  175.53 | X-H torsion
[ 8008 7997 7996 7995 ] final   28.37 input   59.86 | X-H torsion
[ 10167 10162 10161 10158 ] final -170.89 input  -65.29 | X-H torsion
[ 10718 10713 10712 10709 ] final -144.37 input   66.30 | X-H torsion
[ 10763 10752 10751 10750 ] final -140.91 input  -60.55 | X-H torsion
[ 11005 11000 10999 10996 ] final -117.29 input  -57.11 | X-H torsion

> <Gold.Protein.ActiveResidues>
 VAL166  LYS551  ARG553  GLY616  TRP617  ASP618  TYR619  PRO620  LYS621  CYS622 
 ASP623  PHE694  ASN695  SER759  ASP760  ASP761  ALA762  ILE779  LEU786  VAL792 
 PHE793  MET794  SER795  GLU796  ALA797  LYS798  CYS799  TRP800  GLU811  SER814 

> <Gold.Protein.RotatedAtoms>
  151.5581  135.1066  159.9965 H   0  0  0  0  0  0  0  0  0  0  0  0  # atno 6907 bound_to 6896
  152.4459  133.7532  159.6716 H   0  0  0  0  0  0  0  0  0  0  0  0  # atno 6908 bound_to 6896
  150.8375  133.7922  159.3097 H   0  0  0  0  0  0  0  0  0  0  0  0  # atno 6909 bound_to 6896
  145.4416  139.2301  143.3089 H   0  0  0  0  0  0  0  0  0  0  0  0  # atno 7974 bound_to 7965
  155.0576  140.3186  155.4671 H   0  0  0  0  0  0  0  0  0  0  0  0  # atno 8008 bound_to 7997
  156.2820  140.2134  156.5647 H   0  0  0  0  0  0  0  0  0  0  0  0  # atno 8009 bound_to 7997
  154.7159  140.0494  157.0581 H   0  0  0  0  0  0  0  0  0  0  0  0  # atno 8010 bound_to 7997
  139.5834  144.1371  152.1545 H   0  0  0  0  0  0  0  0  0  0  0  0  # atno 10167 bound_to 10162
  156.3692  130.7779  151.1957 H   0  0  0  0  0  0  0  0  0  0  0  0  # atno 10718 bound_to 10713
  154.8563  135.3539  154.5784 H   0  0  0  0  0  0  0  0  0  0  0  0  # atno 10763 bound_to 10752
  153.6395  135.6999  153.5251 H   0  0  0  0  0  0  0  0  0  0  0  0  # atno 10764 bound_to 10752
  153.2983  135.4214  155.1188 H   0  0  0  0  0  0  0  0  0  0  0  0  # atno 10765 bound_to 10752
  141.0364  133.9902  157.3063 H   0  0  0  0  0  0  0  0  0  0  0  0  # atno 11005 bound_to 11000
  146.2553  140.5165  142.8876 LP  0  0  0  0  0  0  0  0  0  0  0  0  # atno 17320 bound_to 7965
  144.8118  140.6398  143.6410 LP  0  0  0  0  0  0  0  0  0  0  0  0  # atno 17321 bound_to 7965
  140.0930  144.5605  150.7041 LP  0  0  0  0  0  0  0  0  0  0  0  0  # atno 17342 bound_to 10162
  140.7110  143.2505  151.4582 LP  0  0  0  0  0  0  0  0  0  0  0  0  # atno 17343 bound_to 10162
  157.7482  131.0377  150.4469 LP  0  0  0  0  0  0  0  0  0  0  0  0  # atno 17370 bound_to 10713
  156.4693  130.4049  149.6528 LP  0  0  0  0  0  0  0  0  0  0  0  0  # atno 17371 bound_to 10713
  139.9244  135.0201  156.8181 LP  0  0  0  0  0  0  0  0  0  0  0  0  # atno 17394 bound_to 11000
  140.6313  133.9903  155.7663 LP  0  0  0  0  0  0  0  0  0  0  0  0  # atno 17395 bound_to 11000

$$$$
