AV-unprocessed.smi:3298|AV-procd|sdf|12647|dock1
  -GOLD-   2272018583D 1   1.00000     0.00000
 Structure written by MMmdl.
 36 37  0  0  0  0  0  0  0  0  2 V2000
  147.0085  139.2326  153.1950 C   0  0  0  0  0  0  0  0  0  0  0  0
  148.3073  139.4351  153.9464 C   0  0  0  0  0  0  0  0  0  0  0  0
  148.6391  140.6613  154.5613 C   0  0  0  0  0  0  0  0  0  0  0  0
  149.8714  140.7925  155.2390 C   0  0  0  0  0  0  0  0  0  0  0  0
  150.1533  142.0417  155.8555 N   0  0  0  0  0  0  0  0  0  0  0  0
  150.9014  142.2858  156.9453 C   0  0  0  0  0  0  0  0  0  0  0  0
  151.5108  141.4360  157.5947 O   0  0  0  0  0  0  0  0  0  0  0  0
  150.9205  143.5936  157.2382 N   0  0  0  0  0  0  0  0  0  0  0  0
  151.6356  144.1860  158.3628 C   0  0  1  0  0  0  0  0  0  0  0  0
  150.8721  143.9689  159.6418 C   0  0  0  0  0  0  0  0  0  0  0  0
  151.5766  143.3071  160.5569 C   0  0  0  0  0  0  0  0  0  0  0  0
  152.9535  142.9351  160.0712 C   0  0  1  0  0  0  0  0  0  0  0  0
  153.2427  141.4253  160.1710 C   0  0  0  0  0  0  0  0  0  0  0  0
  154.6072  141.1363  159.9375 O   0  0  0  0  0  0  0  0  0  0  0  0
  153.0031  143.5015  158.6288 C   0  0  0  0  0  0  0  0  0  0  0  0
  150.7335  139.6685  155.3023 C   0  0  0  0  0  0  0  0  0  0  0  0
  150.3496  138.4688  154.6698 C   0  0  0  0  0  0  0  0  0  0  0  0
  149.1678  138.3962  154.0207 N   0  3  0  0  0  0  0  0  0  0  0  0
  151.7594  145.2595  158.2102 H   0  0  0  0  0  0  0  0  0  0  0  0
  153.6735  143.4709  160.6908 H   0  0  0  0  0  0  0  0  0  0  0  0
  146.3423  140.0861  153.3254 H   0  0  0  0  0  0  0  0  0  0  0  0
  146.4929  138.3419  153.5554 H   0  0  0  0  0  0  0  0  0  0  0  0
  147.2031  139.1111  152.1292 H   0  0  0  0  0  0  0  0  0  0  0  0
  147.9559  141.4967  154.5072 H   0  0  0  0  0  0  0  0  0  0  0  0
  149.7873  142.8534  155.3799 H   0  0  0  0  0  0  0  0  0  0  0  0
  150.3934  144.2253  156.6530 H   0  0  0  0  0  0  0  0  0  0  0  0
  149.8648  144.3338  159.7793 H   0  0  0  0  0  0  0  0  0  0  0  0
  151.2268  143.0517  161.5462 H   0  0  0  0  0  0  0  0  0  0  0  0
  152.9672  141.0529  161.1580 H   0  0  0  0  0  0  0  0  0  0  0  0
  152.6414  140.8775  159.4449 H   0  0  0  0  0  0  0  0  0  0  0  0
  155.0655  141.1651  160.7633 H   0  0  0  0  0  0  0  0  0  0  0  0
  153.2094  142.7159  157.9006 H   0  0  0  0  0  0  0  0  0  0  0  0
  153.8122  144.2269  158.5346 H   0  0  0  0  0  0  0  0  0  0  0  0
  151.6732  139.6988  155.8323 H   0  0  0  0  0  0  0  0  0  0  0  0
  150.9469  137.5689  154.6697 H   0  0  0  0  0  0  0  0  0  0  0  0
  148.9115  137.5168  153.5712 H   0  0  0  0  0  0  0  0  0  0  0  0
  1  2  1  0  0  0  0
  1 21  1  0  0  0  0
  1 22  1  0  0  0  0
  1 23  1  0  0  0  0
  2 18  1  0  0  0  0
  2  3  2  0  0  0  0
  3  4  1  0  0  0  0
  3 24  1  0  0  0  0
  4  5  1  0  0  0  0
  4 16  2  0  0  0  0
  5  6  1  0  0  0  0
  5 25  1  0  0  0  0
  6  7  2  0  0  0  0
  6  8  1  0  0  0  0
  8  9  1  0  0  0  0
  8 26  1  0  0  0  0
  9 19  1  0  0  0  0
  9 15  1  0  0  0  0
  9 10  1  0  0  0  0
 10 11  2  0  0  0  0
 10 27  1  0  0  0  0
 11 12  1  0  0  0  0
 11 28  1  0  0  0  0
 12 20  1  0  0  0  0
 12 13  1  0  0  0  0
 12 15  1  0  0  0  0
 13 14  1  0  0  0  0
 13 29  1  0  0  0  0
 13 30  1  0  0  0  0
 14 31  1  0  0  0  0
 15 32  1  0  0  0  0
 15 33  1  0  0  0  0
 16 17  1  0  0  0  0
 16 34  1  0  0  0  0
 17 18  2  0  0  0  0
 17 35  1  0  0  0  0
 18 36  1  0  0  0  0
M  CHG  1  18   1
M  END
> <s_m_source_file>
AV-unprocessed.smi

> <i_m_source_file_index>
3298

> <i_lp_mmshare_version>
43012

> <i_f3d_flags>
0

> <s_epik_input>
W0NIM11jMVtjSF1jKFtjSF1bY0hdbjEpW05IXUMoPU8pW05IXVtDQEBIXTJbQ0hdPVtDSF1bQ0BASF0oW0NIMl0yKVtDSDJdW09IXQ==

> <s_epik_cmdline>
J2VwaWtfcHl0aG9uJywgJy1waCcsICc3LjAnLCAnLXRuJywgJzgnLCAnLW1hJywgJzIwMCcsICctbWV0YWxfYmluZGluZycsICctaW1hZScsICc8aW5maWxlLm1hZT4nLCAnLW9tYWUnLCAnPG91dGZpbGUubWFlPic=

> <r_epik_Ionization_Penalty>
0.443901

> <r_epik_Ionization_Penalty_Charging>
0.443881

> <r_epik_Ionization_Penalty_Neutral>
1.94967e-05

> <r_epik_State_Penalty>
0.446172

> <r_epik_Charging_Adjusted_Penalty>
0.890053

> <i_epik_Tot_Q>
1

> <i_epik_Tot_abs_Q>
1

> <r_epik_Metal_State_Penalty>
0.675842

> <b_epik_Metal_Only>
0

> <s_lp_Force_Field>
OPLS_2005

> <r_lp_Energy>
27.9023

> <b_lp_Chiralities_Consistent>
1

> <s_lp_Variant>
AV-unprocessed.smi:3298-8

> <Gold.Version>
5.8.1

> <Gold.Id.Protein>
6NUR|6NUR_protein|mol2

> <Gold.PLP.Fitness>
50.4955

> <Gold.PLP.PLP>
-39.7765

> <Gold.PLP.part.hbond>
-3.8565

> <Gold.PLP.part.metal>
0.0000

> <Gold.PLP.part.buried>
-0.1956

> <Gold.PLP.part.nonpolar>
-35.9166

> <Gold.PLP.part.repulsive>
0.2157

> <Gold.PLP.ligand.clash>
0.0000

> <Gold.PLP.ligand.torsion>
0.5151

> <Gold.PLP.Chemscore.Hbond>
3.9105

> <Gold.PLP.Chemscore.CHOScore>
0.0000

> <Gold.PLP.Chemscore.Metal>
0.0000

> <Gold.Chemscore.Hbonds>
donor molecule, donor type, donor heavy atom, donor atom, acceptor molecule, acceptor atom, score
      L1  H     5    25       P1  8028  0.77
      L1  H     8    26       P1  8028  1.00
      L1  H    18    36       P1  7948  1.49

> <Gold.PLP.Chemscore.Internal.Correction>
0.0176

> <Gold.Rescore>
     Score         DG    S(hbond)    S(metal)    S(lipo)     H(rot)  DE(clash)    DE(int)     intcor
     19.72     -22.74       2.76        0.00     108.37       1.81       0.26       2.76       ----

> <Gold.Chemscore.Fitness>
19.7193

> <Gold.Chemscore.DG>
-22.7410

> <Gold.Chemscore.ZeroCoef>
-5.4800

> <Gold.Chemscore.Hbond>
2.7563

> <Gold.Chemscore.Metal>
0.0000

> <Gold.Chemscore.Lipo>
108.3653

> <Gold.Chemscore.Internal_Hbond>
0.0000

> <Gold.Chemscore.DEClash>
0.2605

> <Gold.Chemscore.DEInternal>
2.7612

> <Gold.Chemscore.Rot>
1.8061

> <Gold.Chemscore.Internal.Correction>
   9.000000E+99

> <Gold.Chemscore.Hbonds>
donor molecule, donor type, donor heavy atom, donor atom, acceptor molecule, acceptor atom, score
      L1  H     5    25       P1  8028  0.74
      L1  H     8    26       P1  8028  0.98
      L1  H    18    36       P1  7948  0.72

> <Gold.Chemscore.Hbond.Weighted>
-9.2059

> <Gold.Chemscore.Metal.Weighted>
-0.0000

> <Gold.Chemscore.Lipo.Weighted>
-12.6787

> <Gold.Chemscore.Internal_Hbond.Weighted>
0.0000

> <Gold.Chemscore.DEClash.Weighted>
0.2605

> <Gold.Chemscore.DEInternal.Weighted>
2.7612

> <Gold.Chemscore.Rot.Weighted>
4.6237

> <Gold.Chemscore.Internal.Correction.Weighted>
   9.000000E+99

> <Gold.Protein.RotatedTorsions>
[ 6907 6896 6895 6894 ] final  169.79 input  -60.11 | X-H torsion
[ 7974 7965 7964 7962 ] final  -92.65 input  175.53 | X-H torsion
[ 8008 7997 7996 7995 ] final -123.10 input   59.86 | X-H torsion
[ 10167 10162 10161 10158 ] final  134.28 input  -65.29 | X-H torsion
[ 10718 10713 10712 10709 ] final   71.66 input   66.30 | X-H torsion
[ 10763 10752 10751 10750 ] final   31.79 input  -60.55 | X-H torsion
[ 11005 11000 10999 10996 ] final    3.32 input  -57.11 | X-H torsion

> <Gold.Protein.ActiveResidues>
 VAL166  LYS551  ARG553  GLY616  TRP617  ASP618  TYR619  PRO620  LYS621  CYS622 
 ASP623  PHE694  ASN695  SER759  ASP760  ASP761  ALA762  ILE779  LEU786  VAL792 
 PHE793  MET794  SER795  GLU796  ALA797  LYS798  CYS799  TRP800  GLU811  SER814 

> <Gold.Protein.RotatedAtoms>
  151.8263  133.3402  159.3599 H   0  0  0  0  0  0  0  0  0  0  0  0  # atno 6907 bound_to 6896
  150.7278  134.5526  159.5811 H   0  0  0  0  0  0  0  0  0  0  0  0  # atno 6908 bound_to 6896
  152.2969  134.7658  160.0417 H   0  0  0  0  0  0  0  0  0  0  0  0  # atno 6909 bound_to 6896
  145.3969  140.9534  143.2309 H   0  0  0  0  0  0  0  0  0  0  0  0  # atno 7974 bound_to 7965
  155.1750  140.0409  157.2870 H   0  0  0  0  0  0  0  0  0  0  0  0  # atno 8008 bound_to 7997
  154.6243  140.2508  155.7483 H   0  0  0  0  0  0  0  0  0  0  0  0  # atno 8009 bound_to 7997
  156.2451  140.2888  156.0566 H   0  0  0  0  0  0  0  0  0  0  0  0  # atno 8010 bound_to 7997
  139.5263  144.6575  151.5117 H   0  0  0  0  0  0  0  0  0  0  0  0  # atno 10167 bound_to 10162
  157.6462  130.9539  150.0819 H   0  0  0  0  0  0  0  0  0  0  0  0  # atno 10718 bound_to 10713
  153.0296  135.6430  154.1254 H   0  0  0  0  0  0  0  0  0  0  0  0  # atno 10763 bound_to 10752
  154.0978  135.2861  155.3259 H   0  0  0  0  0  0  0  0  0  0  0  0  # atno 10764 bound_to 10752
  154.6420  135.5456  153.7863 H   0  0  0  0  0  0  0  0  0  0  0  0  # atno 10765 bound_to 10752
  140.5944  133.9894  155.8103 H   0  0  0  0  0  0  0  0  0  0  0  0  # atno 11005 bound_to 11000
  144.8401  139.5487  143.6904 LP  0  0  0  0  0  0  0  0  0  0  0  0  # atno 17320 bound_to 7965
  146.2770  139.6779  142.9256 LP  0  0  0  0  0  0  0  0  0  0  0  0  # atno 17321 bound_to 7965
  140.6407  143.8894  150.6689 LP  0  0  0  0  0  0  0  0  0  0  0  0  # atno 17342 bound_to 10162
  140.2227  143.3796  152.1629 LP  0  0  0  0  0  0  0  0  0  0  0  0  # atno 17343 bound_to 10162
  156.1793  130.3649  149.9057 LP  0  0  0  0  0  0  0  0  0  0  0  0  # atno 17370 bound_to 10713
  156.7013  130.8934  151.3599 LP  0  0  0  0  0  0  0  0  0  0  0  0  # atno 17371 bound_to 10713
  141.0914  133.9911  157.3231 LP  0  0  0  0  0  0  0  0  0  0  0  0  # atno 17394 bound_to 11000
  139.9260  135.0201  156.8235 LP  0  0  0  0  0  0  0  0  0  0  0  0  # atno 17395 bound_to 11000

$$$$
