AV-unprocessed.smi:1602|AV-procd|sdf|6442|dock2
  -GOLD-   22720 7 93D 1   1.00000     0.00000
 Structure written by MMmdl.
 35 36  0  0  0  0  0  0  0  0  2 V2000
  150.8504  142.3039  156.5032 C   0  0  0  0  0  0  0  0  0  0  0  0
  151.8269  141.4938  157.3729 C   0  0  1  0  0  0  0  0  0  0  0  0
  151.6328  141.7140  158.8976 C   0  0  0  0  0  0  0  0  0  0  0  0
  151.7547  143.0962  159.3575 N   0  0  0  0  0  0  0  0  0  0  0  0
  152.0400  144.2293  158.6193 C   0  0  0  0  0  0  0  0  0  0  0  0
  152.0800  145.2854  159.4840 C   0  0  0  0  0  0  0  0  0  0  0  0
  151.8197  144.6933  160.7509 C   0  0  0  0  0  0  0  0  0  0  0  0
  151.6370  143.3858  160.6749 N   0  0  0  0  0  0  0  0  0  0  0  0
  151.6994  140.0782  157.0568 N   0  5  0  0  0  0  0  0  0  0  0  0
  151.7873  139.5858  155.5141 S   0  0  0  0  0  0  0  0  0  0  0  0
  150.7142  140.1123  154.6549 O   0  0  0  0  0  0  0  0  0  0  0  0
  153.1620  139.6130  154.9881 O   0  0  0  0  0  0  0  0  0  0  0  0
  151.3971  137.9150  155.7870 N   0  0  0  0  0  0  0  0  0  0  0  0
  152.2266  137.1955  156.7691 C   0  0  0  0  0  0  0  0  0  0  0  0
  151.6436  135.8087  157.0853 C   0  0  0  0  0  0  0  0  0  0  0  0
  151.4571  135.0705  155.8882 O   0  0  0  0  0  0  0  0  0  0  0  0
  150.5239  135.7102  155.0315 C   0  0  0  0  0  0  0  0  0  0  0  0
  151.0506  137.0912  154.6102 C   0  0  0  0  0  0  0  0  0  0  0  0
  150.8899  143.3629  156.7580 H   0  0  0  0  0  0  0  0  0  0  0  0
  149.8205  141.9682  156.6293 H   0  0  0  0  0  0  0  0  0  0  0  0
  151.0960  142.2150  155.4449 H   0  0  0  0  0  0  0  0  0  0  0  0
  152.8330  141.8461  157.1415 H   0  0  0  0  0  0  0  0  0  0  0  0
  150.6662  141.3195  159.2163 H   0  0  0  0  0  0  0  0  0  0  0  0
  152.3800  141.1292  159.4352 H   0  0  0  0  0  0  0  0  0  0  0  0
  152.1834  144.1886  157.5497 H   0  0  0  0  0  0  0  0  0  0  0  0
  152.2698  146.3217  159.2478 H   0  0  0  0  0  0  0  0  0  0  0  0
  151.7642  145.1706  161.7181 H   0  0  0  0  0  0  0  0  0  0  0  0
  153.2367  137.0966  156.3702 H   0  0  0  0  0  0  0  0  0  0  0  0
  152.3000  137.7755  157.6888 H   0  0  0  0  0  0  0  0  0  0  0  0
  152.3233  135.2587  157.7364 H   0  0  0  0  0  0  0  0  0  0  0  0
  150.6977  135.8998  157.6216 H   0  0  0  0  0  0  0  0  0  0  0  0
  150.3695  135.0869  154.1505 H   0  0  0  0  0  0  0  0  0  0  0  0
  149.5562  135.8001  155.5279 H   0  0  0  0  0  0  0  0  0  0  0  0
  150.2993  137.5917  154.0002 H   0  0  0  0  0  0  0  0  0  0  0  0
  151.9388  136.9769  153.9877 H   0  0  0  0  0  0  0  0  0  0  0  0
  1  2  1  0  0  0  0
  1 19  1  0  0  0  0
  1 20  1  0  0  0  0
  1 21  1  0  0  0  0
  2  3  1  0  0  0  0
  2  9  1  0  0  0  0
  2 22  1  0  0  0  0
  3  4  1  0  0  0  0
  3 23  1  0  0  0  0
  3 24  1  0  0  0  0
  4  8  1  0  0  0  0
  4  5  1  0  0  0  0
  5  6  2  0  0  0  0
  5 25  1  0  0  0  0
  6  7  1  0  0  0  0
  6 26  1  0  0  0  0
  7  8  2  0  0  0  0
  7 27  1  0  0  0  0
  9 10  1  0  0  0  0
 10 11  2  0  0  0  0
 10 12  2  0  0  0  0
 10 13  1  0  0  0  0
 13 18  1  0  0  0  0
 13 14  1  0  0  0  0
 14 15  1  0  0  0  0
 14 28  1  0  0  0  0
 14 29  1  0  0  0  0
 15 16  1  0  0  0  0
 15 30  1  0  0  0  0
 15 31  1  0  0  0  0
 16 17  1  0  0  0  0
 17 18  1  0  0  0  0
 17 32  1  0  0  0  0
 17 33  1  0  0  0  0
 18 34  1  0  0  0  0
 18 35  1  0  0  0  0
M  CHG  1   9  -1
M  END
> <s_m_source_file>
AV-unprocessed.smi

> <i_m_source_file_index>
1602

> <i_lp_mmshare_version>
43012

> <i_f3d_flags>
0

> <s_epik_input>
bjFbY0hdW2NIXVtjSF1uMVtDSDJdW0NAQEhdKFtDSDNdKVtOSF1TKD1PKSg9TylOMltDSDJdW0NIMl1PW0NIMl1bQ0gyXTI=

> <s_epik_cmdline>
J2VwaWtfcHl0aG9uJywgJy1waCcsICc3LjAnLCAnLXRuJywgJzgnLCAnLW1hJywgJzIwMCcsICctbWV0YWxfYmluZGluZycsICctaW1hZScsICc8aW5maWxlLm1hZT4nLCAnLW9tYWUnLCAnPG91dGZpbGUubWFlPic=

> <r_lp_tautomer_probability>
1

> <r_epik_Ionization_Penalty>
1.03144

> <r_epik_Ionization_Penalty_Charging>
1.03142

> <r_epik_Ionization_Penalty_Neutral>
2.21579e-05

> <r_epik_State_Penalty>
1.0826

> <r_epik_Charging_Adjusted_Penalty>
2.11402

> <i_epik_Tot_Q>
-1

> <i_epik_Tot_abs_Q>
1

> <r_epik_Metal_State_Penalty>
0.386234

> <b_epik_Metal_Only>
0

> <s_lp_Force_Field>
OPLS_2005

> <r_lp_Energy>
7.84511

> <b_lp_Chiralities_Consistent>
1

> <s_lp_Variant>
AV-unprocessed.smi:1602-4

> <Gold.Version>
5.8.1

> <Gold.Id.Protein>
6NUR|6NUR_protein|mol2

> <Gold.PLP.Fitness>
43.9053

> <Gold.PLP.PLP>
-35.3774

> <Gold.PLP.part.hbond>
-4.0655

> <Gold.PLP.part.metal>
0.0000

> <Gold.PLP.part.buried>
-4.8019

> <Gold.PLP.part.nonpolar>
-26.0935

> <Gold.PLP.part.repulsive>
0.2416

> <Gold.PLP.ligand.clash>
0.0000

> <Gold.PLP.ligand.torsion>
0.9949

> <Gold.PLP.Chemscore.Hbond>
3.0000

> <Gold.PLP.Chemscore.CHOScore>
0.0000

> <Gold.PLP.Chemscore.Metal>
0.0000

> <Gold.Chemscore.Hbonds>
donor molecule, donor type, donor heavy atom, donor atom, acceptor molecule, acceptor atom, score
      P1  H  7989  7998       L1    11  1.00
      P1  H  7997  8010       L1    12  1.00
      P1  H 10752 10764       L1    16  0.88

> <Gold.PLP.Chemscore.Internal.Correction>
1.5178

> <Gold.Rescore>
     Score         DG    S(hbond)    S(metal)    S(lipo)     H(rot)  DE(clash)    DE(int)     intcor
     14.24     -16.85       1.81        0.00      82.09       1.67       0.21       2.40       ----

> <Gold.Chemscore.Fitness>
14.2357

> <Gold.Chemscore.DG>
-16.8496

> <Gold.Chemscore.ZeroCoef>
-5.4800

> <Gold.Chemscore.Hbond>
1.8075

> <Gold.Chemscore.Metal>
0.0000

> <Gold.Chemscore.Lipo>
82.0940

> <Gold.Chemscore.Internal_Hbond>
0.0000

> <Gold.Chemscore.DEClash>
0.2094

> <Gold.Chemscore.DEInternal>
2.4045

> <Gold.Chemscore.Rot>
1.6688

> <Gold.Chemscore.Internal.Correction>
   9.000000E+99

> <Gold.Chemscore.Hbonds>
donor molecule, donor type, donor heavy atom, donor atom, acceptor molecule, acceptor atom, score
      P1  H  7989  7998       L1    11  0.26
      P1  H  7997  8010       L1    12  0.89
      P1  H 10752 10764       L1    16  0.07

> <Gold.Chemscore.Hbond.Weighted>
-6.0369

> <Gold.Chemscore.Metal.Weighted>
-0.0000

> <Gold.Chemscore.Lipo.Weighted>
-9.6050

> <Gold.Chemscore.Internal_Hbond.Weighted>
0.0000

> <Gold.Chemscore.DEClash.Weighted>
0.2094

> <Gold.Chemscore.DEInternal.Weighted>
2.4045

> <Gold.Chemscore.Rot.Weighted>
4.2722

> <Gold.Chemscore.Internal.Correction.Weighted>
   9.000000E+99

> <Gold.Protein.RotatedTorsions>
[ 6907 6896 6895 6894 ] final   98.82 input  -60.11 | X-H torsion
[ 7974 7965 7964 7962 ] final  107.29 input  175.53 | X-H torsion
[ 8008 7997 7996 7995 ] final   89.04 input   59.86 | X-H torsion
[ 10167 10162 10161 10158 ] final  -88.54 input  -65.29 | X-H torsion
[ 10718 10713 10712 10709 ] final -121.25 input   66.30 | X-H torsion
[ 10763 10752 10751 10750 ] final  -40.47 input  -60.55 | X-H torsion
[ 11005 11000 10999 10996 ] final  162.48 input  -57.11 | X-H torsion

> <Gold.Protein.ActiveResidues>
 VAL166  LYS551  ARG553  GLY616  TRP617  ASP618  TYR619  PRO620  LYS621  CYS622 
 ASP623  PHE694  ASN695  SER759  ASP760  ASP761  ALA762  ILE779  LEU786  VAL792 
 PHE793  MET794  SER795  GLU796  ALA797  LYS798  CYS799  TRP800  GLU811  SER814 

> <Gold.Protein.RotatedAtoms>
  152.5403  134.0522  159.8114 H   0  0  0  0  0  0  0  0  0  0  0  0  # atno 6907 bound_to 6896
  151.0662  133.5496  159.2638 H   0  0  0  0  0  0  0  0  0  0  0  0  # atno 6908 bound_to 6896
  151.2376  135.0585  159.9066 H   0  0  0  0  0  0  0  0  0  0  0  0  # atno 6909 bound_to 6896
  145.2955  139.2586  143.3842 H   0  0  0  0  0  0  0  0  0  0  0  0  # atno 7974 bound_to 7965
  155.9951  140.3365  155.6791 H   0  0  0  0  0  0  0  0  0  0  0  0  # atno 8008 bound_to 7997
  155.6367  140.0691  157.2649 H   0  0  0  0  0  0  0  0  0  0  0  0  # atno 8009 bound_to 7997
  154.4231  140.1750  156.1517 H   0  0  0  0  0  0  0  0  0  0  0  0  # atno 8010 bound_to 7997
  140.3737  143.2782  151.9469 H   0  0  0  0  0  0  0  0  0  0  0  0  # atno 10167 bound_to 10162
  156.1322  130.6404  150.9640 H   0  0  0  0  0  0  0  0  0  0  0  0  # atno 10718 bound_to 10713
  153.9464  135.6755  153.4744 H   0  0  0  0  0  0  0  0  0  0  0  0  # atno 10763 bound_to 10752
  153.0906  135.4877  154.8679 H   0  0  0  0  0  0  0  0  0  0  0  0  # atno 10764 bound_to 10752
  154.7349  135.3147  154.8787 H   0  0  0  0  0  0  0  0  0  0  0  0  # atno 10765 bound_to 10752
  140.2262  134.8159  157.3270 H   0  0  0  0  0  0  0  0  0  0  0  0  # atno 11005 bound_to 11000
  146.3170  140.3457  142.8652 LP  0  0  0  0  0  0  0  0  0  0  0  0  # atno 17320 bound_to 7965
  144.9137  140.7787  143.5792 LP  0  0  0  0  0  0  0  0  0  0  0  0  # atno 17321 bound_to 7965
  139.4801  144.5883  151.7815 LP  0  0  0  0  0  0  0  0  0  0  0  0  # atno 17342 bound_to 10162
  140.5008  144.1172  150.5970 LP  0  0  0  0  0  0  0  0  0  0  0  0  # atno 17343 bound_to 10162
  157.6499  131.0898  150.8073 LP  0  0  0  0  0  0  0  0  0  0  0  0  # atno 17370 bound_to 10713
  156.8157  130.4967  149.5350 LP  0  0  0  0  0  0  0  0  0  0  0  0  # atno 17371 bound_to 10713
  140.1798  134.4504  155.7779 LP  0  0  0  0  0  0  0  0  0  0  0  0  # atno 17394 bound_to 11000
  141.2220  133.6978  156.7849 LP  0  0  0  0  0  0  0  0  0  0  0  0  # atno 17395 bound_to 11000

$$$$
