AV-unprocessed.smi:532|AV-procd|sdf|2851|dock2
  -GOLD-   2262023343D 1   1.00000     0.00000
 Structure written by MMmdl.
 48 50  0  0  0  0  0  0  0  0  2 V2000
  145.0332  135.8099  154.4244 C   0  0  0  0  0  0  0  0  0  0  0  0
  145.8808  135.8719  155.5565 O   0  0  0  0  0  0  0  0  0  0  0  0
  146.6732  134.7071  155.7122 C   0  0  0  0  0  0  0  0  0  0  0  0
  147.5346  134.4863  154.4591 C   0  0  0  0  0  0  0  0  0  0  0  0
  148.5324  133.4342  154.6396 N   0  0  0  0  0  0  0  0  0  0  0  0
  148.6536  132.2716  153.9488 C   0  0  0  0  0  0  0  0  0  0  0  0
  147.7703  131.9457  152.9251 N   0  0  0  0  0  0  0  0  0  0  0  0
  147.4450  130.5800  152.5266 C   0  0  0  0  0  0  0  0  0  0  0  0
  145.9245  130.3751  152.3856 C   0  0  2  0  0  0  0  0  0  0  0  0
  145.5871  128.9267  152.0089 C   0  0  0  0  0  0  0  0  0  0  0  0
  145.3570  131.3777  151.3661 C   0  0  0  0  0  0  0  0  0  0  0  0
  145.7670  132.8141  151.7369 C   0  0  2  0  0  0  0  0  0  0  0  0
  145.2746  133.8284  150.6961 C   0  0  0  0  0  0  0  0  0  0  0  0
  147.2950  132.8963  151.9247 C   0  0  0  0  0  0  0  0  0  0  0  0
  149.6751  131.4986  154.3192 N   0  0  0  0  0  0  0  0  0  0  0  0
  150.2574  132.2345  155.3418 C   0  0  0  0  0  0  0  0  0  0  0  0
  149.5934  133.4040  155.5484 C   0  0  0  0  0  0  0  0  0  0  0  0
  149.9867  134.4080  156.5602 C   0  0  0  0  0  0  0  0  0  0  0  0
  149.3518  135.4518  156.6980 O   0  0  0  0  0  0  0  0  0  0  0  0
  151.0952  134.0209  157.2676 N   0  5  0  0  0  0  0  0  0  0  0  0
  151.7984  132.8478  157.0938 C   0  0  0  0  0  0  0  0  0  0  0  0
  152.7912  132.5788  157.7713 O   0  0  0  0  0  0  0  0  0  0  0  0
  151.3951  131.9459  156.1440 N   0  0  0  0  0  0  0  0  0  0  0  0
  152.1225  130.6903  155.9383 C   0  0  0  0  0  0  0  0  0  0  0  0
  144.4561  136.7317  154.3511 H   0  0  0  0  0  0  0  0  0  0  0  0
  144.3319  134.9784  154.5031 H   0  0  0  0  0  0  0  0  0  0  0  0
  145.6094  135.6979  153.5051 H   0  0  0  0  0  0  0  0  0  0  0  0
  147.3200  134.8107  156.5843 H   0  0  0  0  0  0  0  0  0  0  0  0
  146.0277  133.8459  155.8885 H   0  0  0  0  0  0  0  0  0  0  0  0
  146.8949  134.2412  153.6125 H   0  0  0  0  0  0  0  0  0  0  0  0
  148.0435  135.4085  154.1798 H   0  0  0  0  0  0  0  0  0  0  0  0
  147.9468  130.3568  151.5840 H   0  0  0  0  0  0  0  0  0  0  0  0
  147.8517  129.8854  153.2619 H   0  0  0  0  0  0  0  0  0  0  0  0
  145.4615  130.5787  153.3520 H   0  0  0  0  0  0  0  0  0  0  0  0
  146.0295  128.6522  151.0508 H   0  0  0  0  0  0  0  0  0  0  0  0
  144.5091  128.7815  151.9331 H   0  0  0  0  0  0  0  0  0  0  0  0
  145.9612  128.2311  152.7604 H   0  0  0  0  0  0  0  0  0  0  0  0
  145.7269  131.1359  150.3685 H   0  0  0  0  0  0  0  0  0  0  0  0
  144.2702  131.2962  151.3247 H   0  0  0  0  0  0  0  0  0  0  0  0
  145.2957  133.0658  152.6881 H   0  0  0  0  0  0  0  0  0  0  0  0
  145.7145  133.6369  149.7170 H   0  0  0  0  0  0  0  0  0  0  0  0
  145.5377  134.8461  150.9860 H   0  0  0  0  0  0  0  0  0  0  0  0
  144.1904  133.7858  150.5896 H   0  0  0  0  0  0  0  0  0  0  0  0
  147.5762  133.9043  152.2325 H   0  0  0  0  0  0  0  0  0  0  0  0
  147.8065  132.7049  150.9804 H   0  0  0  0  0  0  0  0  0  0  0  0
  152.1676  130.1157  156.8647 H   0  0  0  0  0  0  0  0  0  0  0  0
  153.1435  130.8920  155.6115 H   0  0  0  0  0  0  0  0  0  0  0  0
  151.6578  130.0538  155.1857 H   0  0  0  0  0  0  0  0  0  0  0  0
  1  2  1  0  0  0  0
  1 25  1  0  0  0  0
  1 26  1  0  0  0  0
  1 27  1  0  0  0  0
  2  3  1  0  0  0  0
  3  4  1  0  0  0  0
  3 28  1  0  0  0  0
  3 29  1  0  0  0  0
  4  5  1  0  0  0  0
  4 30  1  0  0  0  0
  4 31  1  0  0  0  0
  5 17  1  0  0  0  0
  5  6  1  0  0  0  0
  6  7  1  0  0  0  0
  6 15  2  0  0  0  0
  7 14  1  0  0  0  0
  7  8  1  0  0  0  0
  8  9  1  0  0  0  0
  8 32  1  0  0  0  0
  8 33  1  0  0  0  0
  9 10  1  0  0  0  0
  9 11  1  0  0  0  0
  9 34  1  0  0  0  0
 10 35  1  0  0  0  0
 10 36  1  0  0  0  0
 10 37  1  0  0  0  0
 11 12  1  0  0  0  0
 11 38  1  0  0  0  0
 11 39  1  0  0  0  0
 12 13  1  0  0  0  0
 12 14  1  0  0  0  0
 12 40  1  0  0  0  0
 13 41  1  0  0  0  0
 13 42  1  0  0  0  0
 13 43  1  0  0  0  0
 14 44  1  0  0  0  0
 14 45  1  0  0  0  0
 15 16  1  0  0  0  0
 16 23  1  0  0  0  0
 16 17  2  0  0  0  0
 17 18  1  0  0  0  0
 18 19  2  0  0  0  0
 18 20  1  0  0  0  0
 20 21  1  0  0  0  0
 21 22  2  0  0  0  0
 21 23  1  0  0  0  0
 23 24  1  0  0  0  0
 24 46  1  0  0  0  0
 24 47  1  0  0  0  0
 24 48  1  0  0  0  0
M  CHG  1  20  -1
M  END
> <s_m_source_file>
AV-unprocessed.smi

> <i_m_source_file_index>
532

> <i_lp_mmshare_version>
43012

> <i_f3d_flags>
0

> <s_epik_input>
W0NIM11uMWMoPU8pW25IXWMoPU8pYyhjMTIpbihbQ0gyXVtDSDJdT1tDSDNdKWMobjIpTjNbQ0gyXVtDQEBIXShbQ0gzXSlbQ0gyXVtDQEBIXShbQ0gzXSlbQ0gyXTM=

> <s_epik_cmdline>
J2VwaWtfcHl0aG9uJywgJy1waCcsICc3LjAnLCAnLXRuJywgJzgnLCAnLW1hJywgJzIwMCcsICctbWV0YWxfYmluZGluZycsICctaW1hZScsICc8aW5maWxlLm1hZT4nLCAnLW9tYWUnLCAnPG91dGZpbGUubWFlPic=

> <r_lp_tautomer_probability>
1

> <r_epik_Ionization_Penalty>
5.12128

> <r_epik_Ionization_Penalty_Charging>
0.0789629

> <r_epik_Ionization_Penalty_Neutral>
5.04232

> <r_epik_State_Penalty>
5.03111

> <r_epik_Charging_Adjusted_Penalty>
5.11007

> <i_epik_Tot_Q>
-1

> <i_epik_Tot_abs_Q>
1

> <r_epik_Metal_State_Penalty>
1.14201

> <b_epik_Metal_Only>
1

> <s_lp_Force_Field>
OPLS_2005

> <r_lp_Energy>
42.9177

> <b_lp_Chiralities_Consistent>
1

> <s_lp_Variant>
AV-unprocessed.smi:532-4

> <Gold.Version>
5.8.1

> <Gold.Id.Protein>
6NUR|6NUR_protein|mol2

> <Gold.PLP.Fitness>
34.7348

> <Gold.PLP.PLP>
-30.6120

> <Gold.PLP.part.hbond>
-2.0000

> <Gold.PLP.part.metal>
0.0000

> <Gold.PLP.part.buried>
1.8908

> <Gold.PLP.part.nonpolar>
-31.2619

> <Gold.PLP.part.repulsive>
0.0540

> <Gold.PLP.ligand.clash>
0.0000

> <Gold.PLP.ligand.torsion>
0.5266

> <Gold.PLP.Chemscore.Hbond>
1.4040

> <Gold.PLP.Chemscore.CHOScore>
0.0000

> <Gold.PLP.Chemscore.Metal>
0.0000

> <Gold.Chemscore.Hbonds>
donor molecule, donor type, donor heavy atom, donor atom, acceptor molecule, acceptor atom, score
      P1  H  6896  6907       L1    20  0.54
      P1  H  6896  6909       L1    22  0.83

> <Gold.PLP.Chemscore.Internal.Correction>
0.9639

> <Gold.Rescore>
     Score         DG    S(hbond)    S(metal)    S(lipo)     H(rot)  DE(clash)    DE(int)     intcor
      8.24     -10.03       0.19        0.00      64.35       1.41       0.08       1.71       ----

> <Gold.Chemscore.Fitness>
8.2422

> <Gold.Chemscore.DG>
-10.0332

> <Gold.Chemscore.ZeroCoef>
-5.4800

> <Gold.Chemscore.Hbond>
0.1935

> <Gold.Chemscore.Metal>
0.0000

> <Gold.Chemscore.Lipo>
64.3450

> <Gold.Chemscore.Internal_Hbond>
0.0000

> <Gold.Chemscore.DEClash>
0.0781

> <Gold.Chemscore.DEInternal>
1.7129

> <Gold.Chemscore.Rot>
1.4147

> <Gold.Chemscore.Internal.Correction>
   9.000000E+99

> <Gold.Chemscore.Hbonds>
donor molecule, donor type, donor heavy atom, donor atom, acceptor molecule, acceptor atom, score
      P1  H  6896  6907       L1    20  0.08
      P1  H  6896  6909       L1    22  0.20

> <Gold.Chemscore.Hbond.Weighted>
-0.6464

> <Gold.Chemscore.Metal.Weighted>
-0.0000

> <Gold.Chemscore.Lipo.Weighted>
-7.5284

> <Gold.Chemscore.Internal_Hbond.Weighted>
0.0000

> <Gold.Chemscore.DEClash.Weighted>
0.0781

> <Gold.Chemscore.DEInternal.Weighted>
1.7129

> <Gold.Chemscore.Rot.Weighted>
3.6216

> <Gold.Chemscore.Internal.Correction.Weighted>
   9.000000E+99

> <Gold.Protein.RotatedTorsions>
[ 6907 6896 6895 6894 ] final -102.83 input  -60.11 | X-H torsion
[ 7974 7965 7964 7962 ] final   34.25 input  175.53 | X-H torsion
[ 8008 7997 7996 7995 ] final -142.24 input   59.86 | X-H torsion
[ 10167 10162 10161 10158 ] final    9.11 input  -65.29 | X-H torsion
[ 10718 10713 10712 10709 ] final -110.23 input   66.30 | X-H torsion
[ 10763 10752 10751 10750 ] final   55.55 input  -60.55 | X-H torsion
[ 11005 11000 10999 10996 ] final  -47.10 input  -57.11 | X-H torsion

> <Gold.Protein.ActiveResidues>
 VAL166  LYS551  ARG553  GLY616  TRP617  ASP618  TYR619  PRO620  LYS621  CYS622 
 ASP623  PHE694  ASN695  SER759  ASP760  ASP761  ALA762  ILE779  LEU786  VAL792 
 PHE793  MET794  SER795  GLU796  ALA797  LYS798  CYS799  TRP800  GLU811  SER814 

> <Gold.Protein.RotatedAtoms>
  150.7213  134.0521  159.3801 H   0  0  0  0  0  0  0  0  0  0  0  0  # atno 6907 bound_to 6896
  151.8498  135.0559  160.0467 H   0  0  0  0  0  0  0  0  0  0  0  0  # atno 6908 bound_to 6896
  152.2799  133.5424  159.5527 H   0  0  0  0  0  0  0  0  0  0  0  0  # atno 6909 bound_to 6896
  146.1365  139.6292  142.9191 H   0  0  0  0  0  0  0  0  0  0  0  0  # atno 7974 bound_to 7965
  155.4910  140.0568  157.2953 H   0  0  0  0  0  0  0  0  0  0  0  0  # atno 8008 bound_to 7997
  154.4623  140.2002  156.0162 H   0  0  0  0  0  0  0  0  0  0  0  0  # atno 8009 bound_to 7997
  156.0913  140.3233  155.7823 H   0  0  0  0  0  0  0  0  0  0  0  0  # atno 8010 bound_to 7997
  140.6275  143.8069  150.7251 H   0  0  0  0  0  0  0  0  0  0  0  0  # atno 10167 bound_to 10162
  156.0579  130.5804  150.8208 H   0  0  0  0  0  0  0  0  0  0  0  0  # atno 10718 bound_to 10713
  152.9818  135.5707  154.5084 H   0  0  0  0  0  0  0  0  0  0  0  0  # atno 10763 bound_to 10752
  154.4592  135.2781  155.1727 H   0  0  0  0  0  0  0  0  0  0  0  0  # atno 10764 bound_to 10752
  154.3322  135.6247  153.5610 H   0  0  0  0  0  0  0  0  0  0  0  0  # atno 10765 bound_to 10752
  141.0620  133.6706  156.3250 H   0  0  0  0  0  0  0  0  0  0  0  0  # atno 11005 bound_to 11000
  145.5143  141.0434  143.2470 LP  0  0  0  0  0  0  0  0  0  0  0  0  # atno 17320 bound_to 7965
  144.7746  139.6659  143.7180 LP  0  0  0  0  0  0  0  0  0  0  0  0  # atno 17321 bound_to 7965
  140.1673  143.4224  152.2025 LP  0  0  0  0  0  0  0  0  0  0  0  0  # atno 17342 bound_to 10162
  139.5493  144.7324  151.4485 LP  0  0  0  0  0  0  0  0  0  0  0  0  # atno 17343 bound_to 10162
  157.5565  131.0945  150.9621 LP  0  0  0  0  0  0  0  0  0  0  0  0  # atno 17370 bound_to 10713
  156.9869  130.5548  149.5300 LP  0  0  0  0  0  0  0  0  0  0  0  0  # atno 17371 bound_to 10713
  140.5849  134.5708  157.5487 LP  0  0  0  0  0  0  0  0  0  0  0  0  # atno 17394 bound_to 11000
  139.9441  134.7733  156.0605 LP  0  0  0  0  0  0  0  0  0  0  0  0  # atno 17395 bound_to 11000

$$$$
