AV-unprocessed.smi:1562|AV-procd|sdf|6287|dock9
  -GOLD-   22720 6483D 1   1.00000     0.00000
 Structure written by MMmdl.
 40 41  0  0  0  0  0  0  0  0  1 V2000
  146.7588  137.3595  153.3233 N   0  0  0  0  0  0  0  0  0  0  0  0
  146.7609  138.5494  153.9297 C   0  0  0  0  0  0  0  0  0  0  0  0
  145.7769  138.9774  154.5302 O   0  0  0  0  0  0  0  0  0  0  0  0
  148.0528  139.3739  153.8492 C   0  0  0  0  0  0  0  0  0  0  0  0
  149.2205  138.6517  154.5634 C   0  0  0  0  0  0  0  0  0  0  0  0
  150.4789  139.5375  154.6050 C   0  0  0  0  0  0  0  0  0  0  0  0
  150.1408  140.8064  155.2718 N   0  0  0  0  0  0  0  0  0  0  0  0
  150.4796  141.1636  156.5369 C   0  0  0  0  0  0  0  0  0  0  0  0
  151.1058  140.4279  157.3013 O   0  0  0  0  0  0  0  0  0  0  0  0
  150.0500  142.3791  156.9131 N   0  0  0  0  0  0  0  0  0  0  0  0
  150.2801  142.9679  158.2252 C   0  0  0  0  0  0  0  0  0  0  0  0
  151.7137  143.5054  158.3359 C   0  0  0  0  0  0  0  0  0  0  0  0
  152.3609  143.1452  159.6605 C   0  0  0  0  0  0  0  0  0  0  0  0
  153.2988  142.0937  159.7432 C   0  0  0  0  0  0  0  0  0  0  0  0
  153.8625  141.7947  160.9990 C   0  0  0  0  0  0  0  0  0  0  0  0
  153.4684  142.5540  162.1179 C   0  0  0  0  0  0  0  0  0  0  0  0
  152.5242  143.5831  161.9301 C   0  0  0  0  0  0  0  0  0  0  0  0
  151.9784  143.8784  160.7305 N   0  0  0  0  0  0  0  0  0  0  0  0
  149.1680  141.5735  154.4839 C   0  0  0  0  0  0  0  0  0  0  0  0
  147.8425  140.7915  154.4319 C   0  0  0  0  0  0  0  0  0  0  0  0
  145.9279  136.7864  153.3500 H   0  0  0  0  0  0  0  0  0  0  0  0
  147.5840  137.0377  152.8389 H   0  0  0  0  0  0  0  0  0  0  0  0
  148.3268  139.4855  152.7984 H   0  0  0  0  0  0  0  0  0  0  0  0
  148.9380  138.3866  155.5838 H   0  0  0  0  0  0  0  0  0  0  0  0
  149.4488  137.7151  154.0532 H   0  0  0  0  0  0  0  0  0  0  0  0
  151.2978  138.9939  155.0760 H   0  0  0  0  0  0  0  0  0  0  0  0
  150.8197  139.7462  153.5899 H   0  0  0  0  0  0  0  0  0  0  0  0
  149.5326  142.9303  156.2439 H   0  0  0  0  0  0  0  0  0  0  0  0
  149.5651  143.7753  158.3929 H   0  0  0  0  0  0  0  0  0  0  0  0
  150.1014  142.2129  158.9922 H   0  0  0  0  0  0  0  0  0  0  0  0
  152.3231  143.1142  157.5201 H   0  0  0  0  0  0  0  0  0  0  0  0
  151.7153  144.5911  158.2261 H   0  0  0  0  0  0  0  0  0  0  0  0
  153.5791  141.5271  158.8674 H   0  0  0  0  0  0  0  0  0  0  0  0
  154.5832  140.9968  161.1022 H   0  0  0  0  0  0  0  0  0  0  0  0
  153.8787  142.3525  163.0965 H   0  0  0  0  0  0  0  0  0  0  0  0
  152.1982  144.1845  162.7657 H   0  0  0  0  0  0  0  0  0  0  0  0
  148.9964  142.5733  154.8853 H   0  0  0  0  0  0  0  0  0  0  0  0
  149.5556  141.7246  153.4755 H   0  0  0  0  0  0  0  0  0  0  0  0
  147.1173  141.3399  153.8293 H   0  0  0  0  0  0  0  0  0  0  0  0
  147.4242  140.7315  155.4383 H   0  0  0  0  0  0  0  0  0  0  0  0
  1  2  1  0  0  0  0
  1 21  1  0  0  0  0
  1 22  1  0  0  0  0
  2  3  2  0  0  0  0
  2  4  1  0  0  0  0
  4 20  1  0  0  0  0
  4  5  1  0  0  0  0
  4 23  1  0  0  0  0
  5  6  1  0  0  0  0
  5 24  1  0  0  0  0
  5 25  1  0  0  0  0
  6  7  1  0  0  0  0
  6 26  1  0  0  0  0
  6 27  1  0  0  0  0
  7  8  1  0  0  0  0
  7 19  1  0  0  0  0
  8  9  2  0  0  0  0
  8 10  1  0  0  0  0
 10 11  1  0  0  0  0
 10 28  1  0  0  0  0
 11 12  1  0  0  0  0
 11 29  1  0  0  0  0
 11 30  1  0  0  0  0
 12 13  1  0  0  0  0
 12 31  1  0  0  0  0
 12 32  1  0  0  0  0
 13 18  1  0  0  0  0
 13 14  2  0  0  0  0
 14 15  1  0  0  0  0
 14 33  1  0  0  0  0
 15 16  2  0  0  0  0
 15 34  1  0  0  0  0
 16 17  1  0  0  0  0
 16 35  1  0  0  0  0
 17 18  2  0  0  0  0
 17 36  1  0  0  0  0
 19 20  1  0  0  0  0
 19 37  1  0  0  0  0
 19 38  1  0  0  0  0
 20 39  1  0  0  0  0
 20 40  1  0  0  0  0
M  END
> <s_m_source_file>
AV-unprocessed.smi

> <i_m_source_file_index>
1562

> <i_lp_mmshare_version>
43012

> <i_f3d_flags>
0

> <s_epik_input>
W05IMl1DKD1PKVtDSF0xW0NIMl1bQ0gyXU4oW0NIMl1bQ0gyXTEpQyg9TylbTkhdW0NIMl1bQ0gyXWMyW2NIXVtjSF1bY0hdW2NIXW4y

> <s_epik_cmdline>
J2VwaWtfcHl0aG9uJywgJy1waCcsICc3LjAnLCAnLXRuJywgJzgnLCAnLW1hJywgJzIwMCcsICctbWV0YWxfYmluZGluZycsICctaW1hZScsICc8aW5maWxlLm1hZT4nLCAnLW9tYWUnLCAnPG91dGZpbGUubWFlPic=

> <r_epik_Ionization_Penalty>
0.0445602

> <r_epik_Ionization_Penalty_Charging>
0

> <r_epik_Ionization_Penalty_Neutral>
0.0445602

> <r_epik_State_Penalty>
0.0377204

> <r_epik_Charging_Adjusted_Penalty>
0.0377204

> <i_epik_Tot_Q>
0

> <i_epik_Tot_abs_Q>
0

> <r_epik_Metal_State_Penalty>
0.0350723

> <b_epik_Metal_Only>
0

> <s_lp_Force_Field>
OPLS_2005

> <r_lp_Energy>
26.805

> <b_lp_Chiralities_Consistent>
1

> <s_lp_Variant>
AV-unprocessed.smi:1562-1

> <Gold.Version>
5.8.1

> <Gold.Id.Protein>
6NUR|6NUR_protein|mol2

> <Gold.PLP.Fitness>
46.4778

> <Gold.PLP.PLP>
-43.5244

> <Gold.PLP.part.hbond>
-2.0000

> <Gold.PLP.part.metal>
0.0000

> <Gold.PLP.part.buried>
-1.8356

> <Gold.PLP.part.nonpolar>
-39.0021

> <Gold.PLP.part.repulsive>
0.2346

> <Gold.PLP.ligand.clash>
1.5519

> <Gold.PLP.ligand.torsion>
0.7663

> <Gold.PLP.Chemscore.Hbond>
1.9920

> <Gold.PLP.Chemscore.CHOScore>
0.0000

> <Gold.PLP.Chemscore.Metal>
0.0000

> <Gold.Chemscore.Hbonds>
donor molecule, donor type, donor heavy atom, donor atom, acceptor molecule, acceptor atom, score
      L1  H     1    22       P1  7948  1.00
      L1  H    10    28       P1  8028  0.96

> <Gold.PLP.Chemscore.Internal.Correction>
0.0619

> <Gold.Rescore>
     Score         DG    S(hbond)    S(metal)    S(lipo)     H(rot)  DE(clash)    DE(int)     intcor
     18.71     -19.35       1.90        0.00     107.11       1.95       0.05       0.59       ----

> <Gold.Chemscore.Fitness>
18.7074

> <Gold.Chemscore.DG>
-19.3524

> <Gold.Chemscore.ZeroCoef>
-5.4800

> <Gold.Chemscore.Hbond>
1.8955

> <Gold.Chemscore.Metal>
0.0000

> <Gold.Chemscore.Lipo>
107.1064

> <Gold.Chemscore.Internal_Hbond>
0.0000

> <Gold.Chemscore.DEClash>
0.0536

> <Gold.Chemscore.DEInternal>
0.5914

> <Gold.Chemscore.Rot>
1.9492

> <Gold.Chemscore.Internal.Correction>
   9.000000E+99

> <Gold.Chemscore.Hbonds>
donor molecule, donor type, donor heavy atom, donor atom, acceptor molecule, acceptor atom, score
      L1  H     1    22       P1  7948  1.00
      L1  H    10    28       P1  8028  0.89

> <Gold.Chemscore.Hbond.Weighted>
-6.3309

> <Gold.Chemscore.Metal.Weighted>
-0.0000

> <Gold.Chemscore.Lipo.Weighted>
-12.5314

> <Gold.Chemscore.Internal_Hbond.Weighted>
0.0000

> <Gold.Chemscore.DEClash.Weighted>
0.0536

> <Gold.Chemscore.DEInternal.Weighted>
0.5914

> <Gold.Chemscore.Rot.Weighted>
4.9900

> <Gold.Chemscore.Internal.Correction.Weighted>
   9.000000E+99

> <Gold.Protein.RotatedTorsions>
[ 6907 6896 6895 6894 ] final  -30.40 input  -60.11 | X-H torsion
[ 7974 7965 7964 7962 ] final  -18.72 input  175.53 | X-H torsion
[ 8008 7997 7996 7995 ] final  151.21 input   59.86 | X-H torsion
[ 10167 10162 10161 10158 ] final  -25.78 input  -65.29 | X-H torsion
[ 10718 10713 10712 10709 ] final   16.66 input   66.30 | X-H torsion
[ 10763 10752 10751 10750 ] final   26.61 input  -60.55 | X-H torsion
[ 11005 11000 10999 10996 ] final   41.74 input  -57.11 | X-H torsion

> <Gold.Protein.ActiveResidues>
 VAL166  LYS551  ARG553  GLY616  TRP617  ASP618  TYR619  PRO620  LYS621  CYS622 
 ASP623  PHE694  ASN695  SER759  ASP760  ASP761  ALA762  ILE779  LEU786  VAL792 
 PHE793  MET794  SER795  GLU796  ALA797  LYS798  CYS799  TRP800  GLU811  SER814 

> <Gold.Protein.RotatedAtoms>
  151.1060  135.0000  159.8471 H   0  0  0  0  0  0  0  0  0  0  0  0  # atno 6907 bound_to 6896
  152.5440  134.1892  159.8677 H   0  0  0  0  0  0  0  0  0  0  0  0  # atno 6908 bound_to 6896
  151.1939  133.4606  159.2628 H   0  0  0  0  0  0  0  0  0  0  0  0  # atno 6909 bound_to 6896
  146.1878  140.3960  142.8469 H   0  0  0  0  0  0  0  0  0  0  0  0  # atno 7974 bound_to 7965
  156.2683  140.2054  156.6140 H   0  0  0  0  0  0  0  0  0  0  0  0  # atno 8008 bound_to 7997
  154.6809  140.0540  157.0288 H   0  0  0  0  0  0  0  0  0  0  0  0  # atno 8009 bound_to 7997
  155.1002  140.3205  155.4552 H   0  0  0  0  0  0  0  0  0  0  0  0  # atno 8010 bound_to 7997
  140.7285  143.4235  151.0914 H   0  0  0  0  0  0  0  0  0  0  0  0  # atno 10167 bound_to 10162
  157.0710  130.6348  149.5806 H   0  0  0  0  0  0  0  0  0  0  0  0  # atno 10718 bound_to 10713
  153.0611  135.6556  154.0462 H   0  0  0  0  0  0  0  0  0  0  0  0  # atno 10763 bound_to 10752
  154.0129  135.2927  155.3391 H   0  0  0  0  0  0  0  0  0  0  0  0  # atno 10764 bound_to 10752
  154.6949  135.5268  153.8512 H   0  0  0  0  0  0  0  0  0  0  0  0  # atno 10765 bound_to 10752
  140.1805  134.4109  155.8203 H   0  0  0  0  0  0  0  0  0  0  0  0  # atno 11005 bound_to 11000
  144.8429  140.6885  143.6217 LP  0  0  0  0  0  0  0  0  0  0  0  0  # atno 17320 bound_to 7965
  145.3885  139.1621  143.4242 LP  0  0  0  0  0  0  0  0  0  0  0  0  # atno 17321 bound_to 7965
  139.7883  143.8255  152.3148 LP  0  0  0  0  0  0  0  0  0  0  0  0  # atno 17342 bound_to 10162
  139.8230  144.7287  150.9548 LP  0  0  0  0  0  0  0  0  0  0  0  0  # atno 17343 bound_to 10162
  155.9950  130.5016  150.7443 LP  0  0  0  0  0  0  0  0  0  0  0  0  # atno 17370 bound_to 10713
  157.4877  131.0908  151.0463 LP  0  0  0  0  0  0  0  0  0  0  0  0  # atno 17371 bound_to 10713
  141.2223  133.6998  156.7923 LP  0  0  0  0  0  0  0  0  0  0  0  0  # atno 17394 bound_to 11000
  140.2273  134.8712  157.3439 LP  0  0  0  0  0  0  0  0  0  0  0  0  # atno 17395 bound_to 11000

$$$$
