AV-unprocessed.smi:767|AV-procd|sdf|3672|dock1
  -GOLD-   22720 1 83D 1   1.00000     0.00000
 Structure written by MMmdl.
 48 50  0  0  0  0  0  0  0  0  2 V2000
  145.0863  135.6677  151.2057 C   0  0  0  0  0  0  0  0  0  0  0  0
  145.5931  136.8499  152.0034 C   0  0  0  0  0  0  0  0  0  0  0  0
  146.3750  137.8691  151.4204 C   0  0  0  0  0  0  0  0  0  0  0  0
  146.7935  138.9556  152.2154 C   0  0  0  0  0  0  0  0  0  0  0  0
  146.4274  138.9988  153.5790 C   0  0  0  0  0  0  0  0  0  0  0  0
  146.8216  140.1791  154.4515 C   0  0  0  0  0  0  0  0  0  0  0  0
  147.7315  141.2037  153.7432 C   0  0  0  0  0  0  0  0  0  0  0  0
  148.4983  142.0193  154.6837 N   0  0  0  0  0  0  0  0  0  0  0  0
  149.6780  141.6772  155.2225 C   0  0  0  0  0  0  0  0  0  0  0  0
  150.2725  140.6277  154.9742 O   0  0  0  0  0  0  0  0  0  0  0  0
  150.1216  142.5985  156.0866 N   0  0  0  0  0  0  0  0  0  0  0  0
  151.3344  142.4471  156.8816 C   0  0  1  0  0  0  0  0  0  0  0  0
  151.2896  143.2370  158.1885 C   0  0  2  0  0  0  0  0  0  0  0  0
  152.0383  144.4012  158.7322 C   0  0  0  0  0  0  0  0  0  0  0  0
  152.3337  143.8241  160.1426 C   0  0  0  0  0  0  0  0  0  0  0  0
  151.9748  142.4220  160.0817 O   0  0  0  0  0  0  0  0  0  0  0  0
  152.1351  142.0929  158.7175 C   0  0  1  0  0  0  0  0  0  0  0  0
  151.3327  141.1591  157.7899 C   0  0  0  0  0  0  0  0  0  0  0  0
  149.9989  140.5988  158.3239 C   0  0  0  0  0  0  0  0  0  0  0  0
  152.1014  139.9659  157.2209 C   0  0  0  0  0  0  0  0  0  0  0  0
  145.6630  137.9387  154.1124 C   0  0  0  0  0  0  0  0  0  0  0  0
  145.2739  136.9202  153.3150 N   0  3  0  0  0  0  0  0  0  0  0  0
  145.0869  135.8904  150.1381 H   0  0  0  0  0  0  0  0  0  0  0  0
  144.0661  135.4156  151.4968 H   0  0  0  0  0  0  0  0  0  0  0  0
  145.7203  134.7974  151.3756 H   0  0  0  0  0  0  0  0  0  0  0  0
  146.6399  137.8287  150.3740 H   0  0  0  0  0  0  0  0  0  0  0  0
  147.3762  139.7521  151.7761 H   0  0  0  0  0  0  0  0  0  0  0  0
  145.9130  140.6741  154.7955 H   0  0  0  0  0  0  0  0  0  0  0  0
  147.3216  139.8099  155.3480 H   0  0  0  0  0  0  0  0  0  0  0  0
  148.4015  140.6935  153.0490 H   0  0  0  0  0  0  0  0  0  0  0  0
  147.1215  141.8708  153.1342 H   0  0  0  0  0  0  0  0  0  0  0  0
  148.0936  142.9044  154.9521 H   0  0  0  0  0  0  0  0  0  0  0  0
  149.5759  143.4360  156.2287 H   0  0  0  0  0  0  0  0  0  0  0  0
  152.2609  142.6019  156.3206 H   0  0  0  0  0  0  0  0  0  0  0  0
  150.2736  143.2457  158.5900 H   0  0  0  0  0  0  0  0  0  0  0  0
  152.9531  144.5970  158.1708 H   0  0  0  0  0  0  0  0  0  0  0  0
  151.4398  145.3119  158.7688 H   0  0  0  0  0  0  0  0  0  0  0  0
  153.3886  143.9371  160.3954 H   0  0  0  0  0  0  0  0  0  0  0  0
  151.7450  144.3174  160.9165 H   0  0  0  0  0  0  0  0  0  0  0  0
  153.1908  142.1504  158.4278 H   0  0  0  0  0  0  0  0  0  0  0  0
  150.1673  139.7711  159.0135 H   0  0  0  0  0  0  0  0  0  0  0  0
  149.3767  140.2212  157.5140 H   0  0  0  0  0  0  0  0  0  0  0  0
  149.4023  141.3294  158.8669 H   0  0  0  0  0  0  0  0  0  0  0  0
  152.3199  139.2247  157.9901 H   0  0  0  0  0  0  0  0  0  0  0  0
  153.0545  140.2728  156.7894 H   0  0  0  0  0  0  0  0  0  0  0  0
  151.5382  139.4682  156.4312 H   0  0  0  0  0  0  0  0  0  0  0  0
  145.3303  137.8888  155.1390 H   0  0  0  0  0  0  0  0  0  0  0  0
  144.7071  136.1746  153.7195 H   0  0  0  0  0  0  0  0  0  0  0  0
  1  2  1  0  0  0  0
  1 23  1  0  0  0  0
  1 24  1  0  0  0  0
  1 25  1  0  0  0  0
  2 22  1  0  0  0  0
  2  3  2  0  0  0  0
  3  4  1  0  0  0  0
  3 26  1  0  0  0  0
  4  5  2  0  0  0  0
  4 27  1  0  0  0  0
  5  6  1  0  0  0  0
  5 21  1  0  0  0  0
  6  7  1  0  0  0  0
  6 28  1  0  0  0  0
  6 29  1  0  0  0  0
  7  8  1  0  0  0  0
  7 30  1  0  0  0  0
  7 31  1  0  0  0  0
  8  9  1  0  0  0  0
  8 32  1  0  0  0  0
  9 10  2  0  0  0  0
  9 11  1  0  0  0  0
 11 12  1  0  0  0  0
 11 33  1  0  0  0  0
 12 18  1  0  0  0  0
 12 13  1  0  0  0  0
 12 34  1  0  0  0  0
 13 17  1  0  0  0  0
 13 14  1  0  0  0  0
 13 35  1  0  0  0  0
 14 15  1  0  0  0  0
 14 36  1  0  0  0  0
 14 37  1  0  0  0  0
 15 16  1  0  0  0  0
 15 38  1  0  0  0  0
 15 39  1  0  0  0  0
 16 17  1  0  0  0  0
 17 18  1  0  0  0  0
 17 40  1  0  0  0  0
 18 19  1  0  0  0  0
 18 20  1  0  0  0  0
 19 41  1  0  0  0  0
 19 42  1  0  0  0  0
 19 43  1  0  0  0  0
 20 44  1  0  0  0  0
 20 45  1  0  0  0  0
 20 46  1  0  0  0  0
 21 22  2  0  0  0  0
 21 47  1  0  0  0  0
 22 48  1  0  0  0  0
M  CHG  1  22   1
M  END
> <s_m_source_file>
AV-unprocessed.smi

> <i_m_source_file_index>
767

> <i_lp_mmshare_version>
43012

> <i_f3d_flags>
0

> <s_epik_input>
W0NIM11jMVtjSF1bY0hdYyhbY0hdbjEpW0NIMl1bQ0gyXVtOSF1DKD1PKVtOSF1bQ0BIXTJDKFtDSDNdKShbQ0gzXSlbQ0BIXShbQ0BASF0yMylPW0NIMl1bQ0gyXTM=

> <s_epik_cmdline>
J2VwaWtfcHl0aG9uJywgJy1waCcsICc3LjAnLCAnLXRuJywgJzgnLCAnLW1hJywgJzIwMCcsICctbWV0YWxfYmluZGluZycsICctaW1hZScsICc8aW5maWxlLm1hZT4nLCAnLW9tYWUnLCAnPG91dGZpbGUubWFlPic=

> <r_epik_Ionization_Penalty>
1.41853

> <r_epik_Ionization_Penalty_Charging>
1.41848

> <r_epik_Ionization_Penalty_Neutral>
5.17407e-05

> <r_epik_State_Penalty>
1.50205

> <r_epik_Charging_Adjusted_Penalty>
2.92053

> <i_epik_Tot_Q>
1

> <i_epik_Tot_abs_Q>
1

> <r_epik_Metal_State_Penalty>
1.5544

> <b_epik_Metal_Only>
0

> <s_lp_Force_Field>
OPLS_2005

> <r_lp_Energy>
61.237

> <b_lp_Chiralities_Consistent>
1

> <s_lp_Variant>
AV-unprocessed.smi:767-16

> <Gold.Version>
5.8.1

> <Gold.Id.Protein>
6NUR|6NUR_protein|mol2

> <Gold.PLP.Fitness>
49.1036

> <Gold.PLP.PLP>
-42.1705

> <Gold.PLP.part.hbond>
-2.8231

> <Gold.PLP.part.metal>
0.0000

> <Gold.PLP.part.buried>
-2.2420

> <Gold.PLP.part.nonpolar>
-37.6043

> <Gold.PLP.part.repulsive>
0.4298

> <Gold.PLP.ligand.clash>
0.0000

> <Gold.PLP.ligand.torsion>
0.4967

> <Gold.PLP.Chemscore.Hbond>
2.5481

> <Gold.PLP.Chemscore.CHOScore>
0.0000

> <Gold.PLP.Chemscore.Metal>
0.0000

> <Gold.Chemscore.Hbonds>
donor molecule, donor type, donor heavy atom, donor atom, acceptor molecule, acceptor atom, score
      L1  H     8    32       P1  8028  0.63
      L1  H    11    33       P1  8028  1.00
      P1  H  7989  7998       L1    10  0.91

> <Gold.PLP.Chemscore.Internal.Correction>
0.2823

> <Gold.Rescore>
     Score         DG    S(hbond)    S(metal)    S(lipo)     H(rot)  DE(clash)    DE(int)     intcor
     21.72     -23.91       2.37        0.00     123.02       1.52       1.74       0.44       ----

> <Gold.Chemscore.Fitness>
21.7202

> <Gold.Chemscore.DG>
-23.9052

> <Gold.Chemscore.ZeroCoef>
-5.4800

> <Gold.Chemscore.Hbond>
2.3746

> <Gold.Chemscore.Metal>
0.0000

> <Gold.Chemscore.Lipo>
123.0226

> <Gold.Chemscore.Internal_Hbond>
0.0000

> <Gold.Chemscore.DEClash>
1.7447

> <Gold.Chemscore.DEInternal>
0.4403

> <Gold.Chemscore.Rot>
1.5233

> <Gold.Chemscore.Internal.Correction>
   9.000000E+99

> <Gold.Chemscore.Hbonds>
donor molecule, donor type, donor heavy atom, donor atom, acceptor molecule, acceptor atom, score
      L1  H     8    32       P1  8028  0.58
      L1  H    11    33       P1  8028  0.91
      P1  H  7989  7998       L1    10  0.65

> <Gold.Chemscore.Hbond.Weighted>
-7.9311

> <Gold.Chemscore.Metal.Weighted>
-0.0000

> <Gold.Chemscore.Lipo.Weighted>
-14.3936

> <Gold.Chemscore.Internal_Hbond.Weighted>
0.0000

> <Gold.Chemscore.DEClash.Weighted>
1.7447

> <Gold.Chemscore.DEInternal.Weighted>
0.4403

> <Gold.Chemscore.Rot.Weighted>
3.8995

> <Gold.Chemscore.Internal.Correction.Weighted>
   9.000000E+99

> <Gold.Protein.RotatedTorsions>
[ 6907 6896 6895 6894 ] final  170.46 input  -60.11 | X-H torsion
[ 7974 7965 7964 7962 ] final -112.50 input  175.53 | X-H torsion
[ 8008 7997 7996 7995 ] final  115.55 input   59.86 | X-H torsion
[ 10167 10162 10161 10158 ] final   22.05 input  -65.29 | X-H torsion
[ 10718 10713 10712 10709 ] final  -23.06 input   66.30 | X-H torsion
[ 10763 10752 10751 10750 ] final   16.02 input  -60.55 | X-H torsion
[ 11005 11000 10999 10996 ] final  144.81 input  -57.11 | X-H torsion

> <Gold.Protein.ActiveResidues>
 VAL166  LYS551  ARG553  GLY616  TRP617  ASP618  TYR619  PRO620  LYS621  CYS622 
 ASP623  PHE694  ASN695  SER759  ASP760  ASP761  ALA762  ILE779  LEU786  VAL792 
 PHE793  MET794  SER795  GLU796  ALA797  LYS798  CYS799  TRP800  GLU811  SER814 

> <Gold.Protein.RotatedAtoms>
  151.8157  133.3387  159.3568 H   0  0  0  0  0  0  0  0  0  0  0  0  # atno 6907 bound_to 6896
  150.7311  134.5622  159.5857 H   0  0  0  0  0  0  0  0  0  0  0  0  # atno 6908 bound_to 6896
  152.3043  134.7575  160.0402 H   0  0  0  0  0  0  0  0  0  0  0  0  # atno 6909 bound_to 6896
  145.1433  140.8789  143.3689 H   0  0  0  0  0  0  0  0  0  0  0  0  # atno 7974 bound_to 7965
  156.2388  140.2936  156.0386 H   0  0  0  0  0  0  0  0  0  0  0  0  # atno 8008 bound_to 7997
  155.2013  140.0409  157.2935 H   0  0  0  0  0  0  0  0  0  0  0  0  # atno 8009 bound_to 7997
  154.6128  140.2456  155.7654 H   0  0  0  0  0  0  0  0  0  0  0  0  # atno 8010 bound_to 7997
  140.5379  143.9729  150.6502 H   0  0  0  0  0  0  0  0  0  0  0  0  # atno 10167 bound_to 10162
  156.4962  130.4577  149.6727 H   0  0  0  0  0  0  0  0  0  0  0  0  # atno 10718 bound_to 10713
  153.1470  135.6771  153.8940 H   0  0  0  0  0  0  0  0  0  0  0  0  # atno 10763 bound_to 10752
  153.8378  135.3109  155.3425 H   0  0  0  0  0  0  0  0  0  0  0  0  # atno 10764 bound_to 10752
  154.7833  135.4876  153.9976 H   0  0  0  0  0  0  0  0  0  0  0  0  # atno 10765 bound_to 10752
  140.0662  134.9177  157.1268 H   0  0  0  0  0  0  0  0  0  0  0  0  # atno 11005 bound_to 11000
  145.0509  139.3182  143.5929 LP  0  0  0  0  0  0  0  0  0  0  0  0  # atno 17320 bound_to 7965
  146.3503  139.9917  142.8685 LP  0  0  0  0  0  0  0  0  0  0  0  0  # atno 17321 bound_to 7965
  140.3121  143.3191  152.0868 LP  0  0  0  0  0  0  0  0  0  0  0  0  # atno 17342 bound_to 10162
  139.4977  144.6629  151.6423 LP  0  0  0  0  0  0  0  0  0  0  0  0  # atno 17343 bound_to 10162
  156.3378  130.7366  151.2306 LP  0  0  0  0  0  0  0  0  0  0  0  0  # atno 17370 bound_to 10713
  157.7468  131.0412  150.4635 LP  0  0  0  0  0  0  0  0  0  0  0  0  # atno 17371 bound_to 10713
  140.3695  134.2405  155.7179 LP  0  0  0  0  0  0  0  0  0  0  0  0  # atno 17394 bound_to 11000
  141.1993  133.8013  157.0540 LP  0  0  0  0  0  0  0  0  0  0  0  0  # atno 17395 bound_to 11000

$$$$
