AV-unprocessed.smi:781|AV-procd|sdf|3713|dock7
  -GOLD-   22720 1133D 1   1.00000     0.00000
 Structure written by MMmdl.
 38 40  0  0  0  0  0  0  0  0  1 V2000
  146.6440  133.9054  162.5646 C   0  0  0  0  0  0  0  0  0  0  0  0
  147.2399  135.0565  161.8290 C   0  0  0  0  0  0  0  0  0  0  0  0
  147.5875  135.2441  160.5207 C   0  0  0  0  0  0  0  0  0  0  0  0
  148.0978  136.5694  160.5121 C   0  0  0  0  0  0  0  0  0  0  0  0
  148.5773  137.1568  159.3138 N   0  0  0  0  0  0  0  0  0  0  0  0
  149.8509  137.4410  158.9931 C   0  0  0  0  0  0  0  0  0  0  0  0
  150.8276  137.2384  159.7148 O   0  0  0  0  0  0  0  0  0  0  0  0
  149.9340  137.9883  157.7726 N   0  0  0  0  0  0  0  0  0  0  0  0
  151.1755  138.4276  157.1346 C   0  0  2  0  0  0  0  0  0  0  0  0
  151.1352  139.9045  156.6621 C   0  0  2  0  0  0  0  0  0  0  0  0
  149.8647  140.1941  155.8346 C   0  0  0  0  0  0  0  0  0  0  0  0
  150.1268  139.4125  154.5348 C   0  0  0  0  0  0  0  0  0  0  0  0
  151.5269  138.8073  154.7705 C   0  0  1  0  0  0  0  0  0  0  0  0
  152.1987  139.9184  155.5689 C   0  0  0  0  0  0  0  0  0  0  0  0
  151.5023  137.6673  155.8183 C   0  0  2  0  0  0  0  0  0  0  0  0
  150.6243  136.4435  155.4719 C   0  0  0  0  0  0  0  0  0  0  0  0
  150.9690  135.9375  154.1996 O   0  0  0  0  0  0  0  0  0  0  0  0
  148.0656  137.1393  161.7070 N   0  0  0  0  0  0  0  0  0  0  0  0
  147.5169  136.1720  162.5574 O   0  0  0  0  0  0  0  0  0  0  0  0
  146.1005  133.2492  161.8849 H   0  0  0  0  0  0  0  0  0  0  0  0
  145.9471  134.2504  163.3287 H   0  0  0  0  0  0  0  0  0  0  0  0
  147.4202  133.3175  163.0543 H   0  0  0  0  0  0  0  0  0  0  0  0
  147.4903  134.5442  159.7041 H   0  0  0  0  0  0  0  0  0  0  0  0
  147.8743  137.3859  158.6271 H   0  0  0  0  0  0  0  0  0  0  0  0
  149.0816  138.1200  157.2485 H   0  0  0  0  0  0  0  0  0  0  0  0
  152.0019  138.2867  157.8341 H   0  0  0  0  0  0  0  0  0  0  0  0
  151.2996  140.6223  157.4665 H   0  0  0  0  0  0  0  0  0  0  0  0
  148.9403  139.8945  156.3275 H   0  0  0  0  0  0  0  0  0  0  0  0
  149.7845  141.2612  155.6231 H   0  0  0  0  0  0  0  0  0  0  0  0
  149.3614  138.6654  154.3309 H   0  0  0  0  0  0  0  0  0  0  0  0
  150.1451  140.0948  153.6841 H   0  0  0  0  0  0  0  0  0  0  0  0
  152.0445  138.5384  153.8494 H   0  0  0  0  0  0  0  0  0  0  0  0
  152.2564  140.8664  155.0305 H   0  0  0  0  0  0  0  0  0  0  0  0
  153.1945  139.6551  155.9304 H   0  0  0  0  0  0  0  0  0  0  0  0
  152.5248  137.2957  155.9120 H   0  0  0  0  0  0  0  0  0  0  0  0
  150.7829  135.6516  156.2044 H   0  0  0  0  0  0  0  0  0  0  0  0
  149.5609  136.6791  155.4877 H   0  0  0  0  0  0  0  0  0  0  0  0
  150.2391  136.0712  153.6145 H   0  0  0  0  0  0  0  0  0  0  0  0
  1  2  1  0  0  0  0
  1 20  1  0  0  0  0
  1 21  1  0  0  0  0
  1 22  1  0  0  0  0
  2 19  1  0  0  0  0
  2  3  2  0  0  0  0
  3  4  1  0  0  0  0
  3 23  1  0  0  0  0
  4  5  1  0  0  0  0
  4 18  2  0  0  0  0
  5  6  1  0  0  0  0
  5 24  1  0  0  0  0
  6  7  2  0  0  0  0
  6  8  1  0  0  0  0
  8  9  1  0  0  0  0
  8 25  1  0  0  0  0
  9 15  1  0  0  0  0
  9 10  1  0  0  0  0
  9 26  1  0  0  0  0
 10 14  1  0  0  0  0
 10 11  1  0  0  0  0
 10 27  1  0  0  0  0
 11 12  1  0  0  0  0
 11 28  1  0  0  0  0
 11 29  1  0  0  0  0
 12 13  1  0  0  0  0
 12 30  1  0  0  0  0
 12 31  1  0  0  0  0
 13 14  1  0  0  0  0
 13 15  1  0  0  0  0
 13 32  1  0  0  0  0
 14 33  1  0  0  0  0
 14 34  1  0  0  0  0
 15 16  1  0  0  0  0
 15 35  1  0  0  0  0
 16 17  1  0  0  0  0
 16 36  1  0  0  0  0
 16 37  1  0  0  0  0
 17 38  1  0  0  0  0
 18 19  1  0  0  0  0
M  END
> <s_m_source_file>
AV-unprocessed.smi

> <i_m_source_file_index>
781

> <i_lp_mmshare_version>
43012

> <i_f3d_flags>
0

> <s_epik_input>
W0NIM11jMVtjSF1jKG5vMSlbTkhdQyg9TylbTkhdW0NASF0oW0NAQEhdMjMpW0NASF0oW0NIMl1bT0hdKVtDQEBIXShbQ0gyXTMpW0NIMl1bQ0gyXTI=

> <s_epik_cmdline>
J2VwaWtfcHl0aG9uJywgJy1waCcsICc3LjAnLCAnLXRuJywgJzgnLCAnLW1hJywgJzIwMCcsICctbWV0YWxfYmluZGluZycsICctaW1hZScsICc8aW5maWxlLm1hZT4nLCAnLW9tYWUnLCAnPG91dGZpbGUubWFlPic=

> <r_lp_tautomer_probability>
1

> <r_epik_Ionization_Penalty>
2.32222e-05

> <r_epik_Ionization_Penalty_Charging>
0

> <r_epik_Ionization_Penalty_Neutral>
2.32222e-05

> <r_epik_State_Penalty>
-0

> <r_epik_Charging_Adjusted_Penalty>
0

> <i_epik_Tot_Q>
0

> <i_epik_Tot_abs_Q>
0

> <r_epik_Metal_State_Penalty>
-0

> <b_epik_Metal_Only>
0

> <s_lp_Force_Field>
OPLS_2005

> <r_lp_Energy>
48.8518

> <b_lp_Chiralities_Consistent>
1

> <s_lp_Variant>
AV-unprocessed.smi:781-7

> <Gold.Version>
5.8.1

> <Gold.Id.Protein>
6NUR|6NUR_protein|mol2

> <Gold.PLP.Fitness>
41.5150

> <Gold.PLP.PLP>
-32.5350

> <Gold.PLP.part.hbond>
-5.7392

> <Gold.PLP.part.metal>
0.0000

> <Gold.PLP.part.buried>
-2.1743

> <Gold.PLP.part.nonpolar>
-24.6065

> <Gold.PLP.part.repulsive>
0.2643

> <Gold.PLP.ligand.clash>
0.0000

> <Gold.PLP.ligand.torsion>
0.7010

> <Gold.PLP.Chemscore.Hbond>
3.4579

> <Gold.PLP.Chemscore.CHOScore>
0.0000

> <Gold.PLP.Chemscore.Metal>
0.0000

> <Gold.Chemscore.Hbonds>
donor molecule, donor type, donor heavy atom, donor atom, acceptor molecule, acceptor atom, score
      L1  H    17    38       P1  7948  0.31
      P1  H  6896  6907       L1     7  0.70
      P1  H  6931  6943       L1    18  0.88
      P1  H  6934  6947       L1    18  0.22
      P1  H 10752 10765       L1    17  1.00

> <Gold.PLP.Chemscore.Internal.Correction>
0.0083

> <Gold.Rescore>
     Score         DG    S(hbond)    S(metal)    S(lipo)     H(rot)  DE(clash)    DE(int)     intcor
     17.38     -18.17       2.85        0.00      67.87       1.86       0.08       0.70       ----

> <Gold.Chemscore.Fitness>
17.3832

> <Gold.Chemscore.DG>
-18.1652

> <Gold.Chemscore.ZeroCoef>
-5.4800

> <Gold.Chemscore.Hbond>
2.8452

> <Gold.Chemscore.Metal>
0.0000

> <Gold.Chemscore.Lipo>
67.8668

> <Gold.Chemscore.Internal_Hbond>
0.0000

> <Gold.Chemscore.DEClash>
0.0807

> <Gold.Chemscore.DEInternal>
0.7012

> <Gold.Chemscore.Rot>
1.8587

> <Gold.Chemscore.Internal.Correction>
   9.000000E+99

> <Gold.Chemscore.Hbonds>
donor molecule, donor type, donor heavy atom, donor atom, acceptor molecule, acceptor atom, score
      L1  H    17    38       P1  7948  0.01
      P1  H  6896  6907       L1     7  0.59
      P1  H  6931  6943       L1    18  0.79
      P1  H  6934  6947       L1    18  0.02
      P1  H 10752 10765       L1    17  0.49

> <Gold.Chemscore.Hbond.Weighted>
-9.5031

> <Gold.Chemscore.Metal.Weighted>
-0.0000

> <Gold.Chemscore.Lipo.Weighted>
-7.9404

> <Gold.Chemscore.Internal_Hbond.Weighted>
0.0000

> <Gold.Chemscore.DEClash.Weighted>
0.0807

> <Gold.Chemscore.DEInternal.Weighted>
0.7012

> <Gold.Chemscore.Rot.Weighted>
4.7583

> <Gold.Chemscore.Internal.Correction.Weighted>
   9.000000E+99

> <Gold.Protein.RotatedTorsions>
[ 6907 6896 6895 6894 ] final  -16.91 input  -60.11 | X-H torsion
[ 7974 7965 7964 7962 ] final -171.70 input  175.53 | X-H torsion
[ 8008 7997 7996 7995 ] final  -24.07 input   59.86 | X-H torsion
[ 10167 10162 10161 10158 ] final    1.42 input  -65.29 | X-H torsion
[ 10718 10713 10712 10709 ] final   73.30 input   66.30 | X-H torsion
[ 10763 10752 10751 10750 ] final  161.75 input  -60.55 | X-H torsion
[ 11005 11000 10999 10996 ] final -154.63 input  -57.11 | X-H torsion

> <Gold.Protein.ActiveResidues>
 VAL166  LYS551  ARG553  GLY616  TRP617  ASP618  TYR619  PRO620  LYS621  CYS622 
 ASP623  PHE694  ASN695  SER759  ASP760  ASP761  ALA762  ILE779  LEU786  VAL792 
 PHE793  MET794  SER795  GLU796  ALA797  LYS798  CYS799  TRP800  GLU811  SER814 

> <Gold.Protein.RotatedAtoms>
  151.3014  135.0769  159.9239 H   0  0  0  0  0  0  0  0  0  0  0  0  # atno 6907 bound_to 6896
  152.5297  133.9829  159.7825 H   0  0  0  0  0  0  0  0  0  0  0  0  # atno 6908 bound_to 6896
  151.0117  133.5908  159.2712 H   0  0  0  0  0  0  0  0  0  0  0  0  # atno 6909 bound_to 6896
  144.7154  140.1883  143.6351 H   0  0  0  0  0  0  0  0  0  0  0  0  # atno 7974 bound_to 7965
  154.4549  140.1963  156.0408 H   0  0  0  0  0  0  0  0  0  0  0  0  # atno 8008 bound_to 7997
  156.0726  140.3282  155.7566 H   0  0  0  0  0  0  0  0  0  0  0  0  # atno 8009 bound_to 7997
  155.5239  140.0572  157.2892 H   0  0  0  0  0  0  0  0  0  0  0  0  # atno 8010 bound_to 7997
  140.6683  143.7118  150.7871 H   0  0  0  0  0  0  0  0  0  0  0  0  # atno 10167 bound_to 10162
  157.6541  130.9622  150.1050 H   0  0  0  0  0  0  0  0  0  0  0  0  # atno 10718 bound_to 10713
  154.2678  135.2766  155.2751 H   0  0  0  0  0  0  0  0  0  0  0  0  # atno 10763 bound_to 10752
  154.5328  135.5725  153.6776 H   0  0  0  0  0  0  0  0  0  0  0  0  # atno 10764 bound_to 10752
  152.9950  135.6232  154.2832 H   0  0  0  0  0  0  0  0  0  0  0  0  # atno 10765 bound_to 10752
  140.6952  134.3997  157.5215 H   0  0  0  0  0  0  0  0  0  0  0  0  # atno 11005 bound_to 11000
  145.8792  139.2314  143.1615 LP  0  0  0  0  0  0  0  0  0  0  0  0  # atno 17320 bound_to 7965
  146.0011  140.8519  143.0018 LP  0  0  0  0  0  0  0  0  0  0  0  0  # atno 17321 bound_to 7965
  140.0799  143.4979  152.2535 LP  0  0  0  0  0  0  0  0  0  0  0  0  # atno 17342 bound_to 10162
  139.5941  144.7561  151.3329 LP  0  0  0  0  0  0  0  0  0  0  0  0  # atno 17343 bound_to 10162
  156.1962  130.3657  149.8846 LP  0  0  0  0  0  0  0  0  0  0  0  0  # atno 17370 bound_to 10713
  156.6762  130.8840  151.3569 LP  0  0  0  0  0  0  0  0  0  0  0  0  # atno 17371 bound_to 10713
  139.8912  134.8785  156.2331 LP  0  0  0  0  0  0  0  0  0  0  0  0  # atno 17394 bound_to 11000
  141.0209  133.7042  156.1266 LP  0  0  0  0  0  0  0  0  0  0  0  0  # atno 17395 bound_to 11000

$$$$
