AV-unprocessed.smi:2655|AV-procd|sdf|10299|dock10
  -GOLD-   2272014313D 1   1.00000     0.00000
 Structure written by MMmdl.
 34 35  0  0  0  0  0  0  0  0  1 V2000
  146.3800  142.3283  154.4047 C   0  0  0  0  0  0  0  0  0  0  0  0
  147.7194  141.6491  154.5932 C   0  0  0  0  0  0  0  0  0  0  0  0
  148.6692  142.1591  155.4297 N   0  0  0  0  0  0  0  0  0  0  0  0
  149.7793  141.3550  155.3725 N   0  0  0  0  0  0  0  0  0  0  0  0
  149.5580  140.3340  154.5280 C   0  0  0  0  0  0  0  0  0  0  0  0
  150.3512  139.4340  154.2598 O   0  0  0  0  0  0  0  0  0  0  0  0
  148.2072  140.5421  154.0184 C   0  0  0  0  0  0  0  0  0  0  0  0
  147.5229  139.6247  153.0234 C   0  0  0  0  0  0  0  0  0  0  0  0
  146.6411  138.5758  153.7197 C   0  0  0  0  0  0  0  0  0  0  0  0
  145.2251  138.8992  153.5951 N   0  0  0  0  0  0  0  0  0  0  0  0
  144.2178  138.0751  153.9184 C   0  0  0  0  0  0  0  0  0  0  0  0
  144.3877  136.9385  154.3600 O   0  0  0  0  0  0  0  0  0  0  0  0
  143.0258  138.6543  153.6962 N   0  0  0  0  0  0  0  0  0  0  0  0
  141.7303  138.1224  153.9245 C   0  0  0  0  0  0  0  0  0  0  0  0
  140.4908  138.7614  153.6297 C   0  0  0  0  0  0  0  0  0  0  0  0
  139.5671  137.8395  154.0341 C   0  0  0  0  0  0  0  0  0  0  0  0
  138.0769  137.8280  154.0286 C   0  0  0  0  0  0  0  0  0  0  0  0
  140.1857  136.7361  154.5336 O   0  0  0  0  0  0  0  0  0  0  0  0
  141.5706  136.9263  154.4605 N   0  0  0  0  0  0  0  0  0  0  0  0
  146.2295  142.5764  153.3537 H   0  0  0  0  0  0  0  0  0  0  0  0
  146.3195  143.2481  154.9872 H   0  0  0  0  0  0  0  0  0  0  0  0
  145.5733  141.6664  154.7206 H   0  0  0  0  0  0  0  0  0  0  0  0
  150.5917  141.5751  155.9303 H   0  0  0  0  0  0  0  0  0  0  0  0
  148.2872  139.1310  152.4223 H   0  0  0  0  0  0  0  0  0  0  0  0
  146.9287  140.2254  152.3335 H   0  0  0  0  0  0  0  0  0  0  0  0
  146.8357  137.5823  153.3114 H   0  0  0  0  0  0  0  0  0  0  0  0
  146.8851  138.5274  154.7813 H   0  0  0  0  0  0  0  0  0  0  0  0
  144.9975  139.8161  153.2390 H   0  0  0  0  0  0  0  0  0  0  0  0
  143.0465  139.5941  153.3290 H   0  0  0  0  0  0  0  0  0  0  0  0
  140.2933  139.7298  153.1957 H   0  0  0  0  0  0  0  0  0  0  0  0
  137.6835  138.6341  153.4093 H   0  0  0  0  0  0  0  0  0  0  0  0
  137.6868  137.9554  155.0383 H   0  0  0  0  0  0  0  0  0  0  0  0
  137.6978  136.8845  153.6355 H   0  0  0  0  0  0  0  0  0  0  0  0
  148.6474  143.0296  155.9416 H   0  0  0  0  0  0  0  0  0  0  0  0
  1 20  1  0  0  0  0
  1 21  1  0  0  0  0
  1 22  1  0  0  0  0
  1  2  1  0  0  0  0
  2  7  2  0  0  0  0
  2  3  1  0  0  0  0
  3  4  1  0  0  0  0
  3 34  1  0  0  0  0
  4 23  1  0  0  0  0
  4  5  1  0  0  0  0
  5  7  1  0  0  0  0
  5  6  2  0  0  0  0
  7  8  1  0  0  0  0
  8  9  1  0  0  0  0
  8 24  1  0  0  0  0
  8 25  1  0  0  0  0
  9 10  1  0  0  0  0
  9 26  1  0  0  0  0
  9 27  1  0  0  0  0
 10 11  1  0  0  0  0
 10 28  1  0  0  0  0
 11 12  2  0  0  0  0
 11 13  1  0  0  0  0
 13 14  1  0  0  0  0
 13 29  1  0  0  0  0
 14 19  2  0  0  0  0
 14 15  1  0  0  0  0
 15 16  2  0  0  0  0
 15 30  1  0  0  0  0
 16 17  1  0  0  0  0
 16 18  1  0  0  0  0
 17 31  1  0  0  0  0
 17 32  1  0  0  0  0
 17 33  1  0  0  0  0
 18 19  1  0  0  0  0
M  END
> <s_m_source_file>
AV-unprocessed.smi

> <i_m_source_file_index>
2655

> <i_lp_mmshare_version>
43012

> <i_f3d_flags>
0

> <s_epik_input>
W0NIM11DMT1OW05IXUMoPU8pW0NASF0xW0NIMl1bQ0gyXVtOSF1DKD1PKVtOSF1jMltjSF1jKFtDSDNdKW9uMg==

> <s_epik_cmdline>
J2VwaWtfcHl0aG9uJywgJy1waCcsICc3LjAnLCAnLXRuJywgJzgnLCAnLW1hJywgJzIwMCcsICctbWV0YWxfYmluZGluZycsICctaW1hZScsICc8aW5maWxlLm1hZT4nLCAnLW9tYWUnLCAnPG91dGZpbGUubWFlPic=

> <r_lp_tautomer_probability>
0.00220696

> <r_epik_Ionization_Penalty>
0.0273702

> <r_epik_Ionization_Penalty_Charging>
8.84748e-06

> <r_epik_Ionization_Penalty_Neutral>
0.0273613

> <r_epik_State_Penalty>
0.626781

> <r_epik_Charging_Adjusted_Penalty>
0.626789

> <i_epik_Tot_Q>
0

> <i_epik_Tot_abs_Q>
0

> <r_epik_Metal_State_Penalty>
2.03048

> <b_epik_Metal_Only>
0

> <s_lp_Force_Field>
OPLS_2005

> <r_lp_Energy>
17.132

> <b_lp_Chiralities_Consistent>
1

> <s_lp_Variant>
AV-unprocessed.smi:2655-2

> <Gold.Version>
5.8.1

> <Gold.Id.Protein>
6NUR|6NUR_protein|mol2

> <Gold.PLP.Fitness>
42.6679

> <Gold.PLP.PLP>
-29.9456

> <Gold.PLP.part.hbond>
-5.2952

> <Gold.PLP.part.metal>
0.0000

> <Gold.PLP.part.buried>
-1.6563

> <Gold.PLP.part.nonpolar>
-24.2951

> <Gold.PLP.part.repulsive>
0.6208

> <Gold.PLP.ligand.clash>
0.0000

> <Gold.PLP.ligand.torsion>
0.7206

> <Gold.PLP.Chemscore.Hbond>
4.7180

> <Gold.PLP.Chemscore.CHOScore>
0.0000

> <Gold.PLP.Chemscore.Metal>
0.0000

> <Gold.Chemscore.Hbonds>
donor molecule, donor type, donor heavy atom, donor atom, acceptor molecule, acceptor atom, score
      L1  H     3    34       P1  8028  0.78
      L1  H    10    28       P1 10175  0.69
      L1  H    13    29       P1 10175  0.47
      P1  H  7989  7998       L1     6  0.42

> <Gold.PLP.Chemscore.Internal.Correction>
0.0094

> <Gold.Rescore>
     Score         DG    S(hbond)    S(metal)    S(lipo)     H(rot)  DE(clash)    DE(int)     intcor
     16.29     -19.59       3.79        0.00      53.84       1.89       1.21       2.08       ----

> <Gold.Chemscore.Fitness>
16.2930

> <Gold.Chemscore.DG>
-19.5913

> <Gold.Chemscore.ZeroCoef>
-5.4800

> <Gold.Chemscore.Hbond>
3.7896

> <Gold.Chemscore.Metal>
0.0000

> <Gold.Chemscore.Lipo>
53.8437

> <Gold.Chemscore.Internal_Hbond>
0.0000

> <Gold.Chemscore.DEClash>
1.2138

> <Gold.Chemscore.DEInternal>
2.0845

> <Gold.Chemscore.Rot>
1.8929

> <Gold.Chemscore.Internal.Correction>
   9.000000E+99

> <Gold.Chemscore.Hbonds>
donor molecule, donor type, donor heavy atom, donor atom, acceptor molecule, acceptor atom, score
      L1  H     3    34       P1  8028  0.77
      L1  H    10    28       P1 10175  0.70
      L1  H    13    29       P1 10175  0.44
      P1  H  7989  7998       L1     6  0.01

> <Gold.Chemscore.Hbond.Weighted>
-12.6573

> <Gold.Chemscore.Metal.Weighted>
-0.0000

> <Gold.Chemscore.Lipo.Weighted>
-6.2997

> <Gold.Chemscore.Internal_Hbond.Weighted>
0.0000

> <Gold.Chemscore.DEClash.Weighted>
1.2138

> <Gold.Chemscore.DEInternal.Weighted>
2.0845

> <Gold.Chemscore.Rot.Weighted>
4.8457

> <Gold.Chemscore.Internal.Correction.Weighted>
   9.000000E+99

> <Gold.Protein.RotatedTorsions>
[ 6907 6896 6895 6894 ] final -134.98 input  -60.11 | X-H torsion
[ 7974 7965 7964 7962 ] final -163.69 input  175.53 | X-H torsion
[ 8008 7997 7996 7995 ] final  143.74 input   59.86 | X-H torsion
[ 10167 10162 10161 10158 ] final  146.98 input  -65.29 | X-H torsion
[ 10718 10713 10712 10709 ] final   70.75 input   66.30 | X-H torsion
[ 10763 10752 10751 10750 ] final  160.66 input  -60.55 | X-H torsion
[ 11005 11000 10999 10996 ] final   56.52 input  -57.11 | X-H torsion

> <Gold.Protein.ActiveResidues>
 VAL166  LYS551  ARG553  GLY616  TRP617  ASP618  TYR619  PRO620  LYS621  CYS622 
 ASP623  PHE694  ASN695  SER759  ASP760  ASP761  ALA762  ILE779  LEU786  VAL792 
 PHE793  MET794  SER795  GLU796  ALA797  LYS798  CYS799  TRP800  GLU811  SER814 

> <Gold.Protein.RotatedAtoms>
  150.9924  133.6136  159.2706 H   0  0  0  0  0  0  0  0  0  0  0  0  # atno 6907 bound_to 6896
  151.3352  135.0850  159.9362 H   0  0  0  0  0  0  0  0  0  0  0  0  # atno 6908 bound_to 6896
  152.5250  133.9546  159.7742 H   0  0  0  0  0  0  0  0  0  0  0  0  # atno 6909 bound_to 6896
  144.7318  140.3071  143.6194 H   0  0  0  0  0  0  0  0  0  0  0  0  # atno 7974 bound_to 7965
  156.2924  140.2254  156.4939 H   0  0  0  0  0  0  0  0  0  0  0  0  # atno 8008 bound_to 7997
  154.7747  140.0464  157.1101 H   0  0  0  0  0  0  0  0  0  0  0  0  # atno 8009 bound_to 7997
  154.9831  140.3081  155.4941 H   0  0  0  0  0  0  0  0  0  0  0  0  # atno 8010 bound_to 7997
  139.4898  144.5790  151.6910 H   0  0  0  0  0  0  0  0  0  0  0  0  # atno 10167 bound_to 10162
  157.6416  130.9493  150.0694 H   0  0  0  0  0  0  0  0  0  0  0  0  # atno 10718 bound_to 10713
  154.2508  135.2771  155.2817 H   0  0  0  0  0  0  0  0  0  0  0  0  # atno 10763 bound_to 10752
  154.5467  135.5687  153.6889 H   0  0  0  0  0  0  0  0  0  0  0  0  # atno 10764 bound_to 10752
  152.9981  135.6264  154.2655 H   0  0  0  0  0  0  0  0  0  0  0  0  # atno 10765 bound_to 10752
  140.0523  134.5719  155.9249 H   0  0  0  0  0  0  0  0  0  0  0  0  # atno 11005 bound_to 11000
  145.7702  139.1855  143.2216 LP  0  0  0  0  0  0  0  0  0  0  0  0  # atno 17320 bound_to 7965
  146.0916  140.7648  142.9592 LP  0  0  0  0  0  0  0  0  0  0  0  0  # atno 17321 bound_to 7965
  140.5392  144.0607  150.6082 LP  0  0  0  0  0  0  0  0  0  0  0  0  # atno 17342 bound_to 10162
  140.3623  143.2901  152.0370 LP  0  0  0  0  0  0  0  0  0  0  0  0  # atno 17343 bound_to 10162
  156.1703  130.3646  149.9174 LP  0  0  0  0  0  0  0  0  0  0  0  0  # atno 17370 bound_to 10713
  156.7152  130.8985  151.3613 LP  0  0  0  0  0  0  0  0  0  0  0  0  # atno 17371 bound_to 10713
  141.1936  133.6579  156.5555 LP  0  0  0  0  0  0  0  0  0  0  0  0  # atno 17394 bound_to 11000
  140.3898  134.7450  157.4714 LP  0  0  0  0  0  0  0  0  0  0  0  0  # atno 17395 bound_to 11000

$$$$
