AV-unprocessed.smi:2653|AV-procd|sdf|10296|dock8
  -GOLD-   2272014313D 1   1.00000     0.00000
 Structure written by MMmdl.
 31 32  0  0  0  0  0  0  0  0  1 V2000
  153.4907  142.4768  161.0851 C   0  0  0  0  0  0  0  0  0  0  0  0
  153.9965  142.1172  159.6834 C   0  0  0  0  0  0  0  0  0  0  0  0
  152.8677  141.7912  158.7443 C   0  0  0  0  0  0  0  0  0  0  0  0
  152.6648  140.5240  158.3934 N   0  0  0  0  0  0  0  0  0  0  0  0
  151.6056  140.5701  157.5653 N   0  0  0  0  0  0  0  0  0  0  0  0
  151.1383  141.8558  157.4161 C   0  0  0  0  0  0  0  0  0  0  0  0
  150.1026  142.2673  156.6334 N   0  0  0  0  0  0  0  0  0  0  0  0
  149.2705  141.5688  155.8318 C   0  0  0  0  0  0  0  0  0  0  0  0
  149.3894  140.3518  155.7002 O   0  0  0  0  0  0  0  0  0  0  0  0
  148.3368  142.2860  155.1843 N   0  0  0  0  0  0  0  0  0  0  0  0
  147.3624  141.7652  154.2819 C   0  0  0  0  0  0  0  0  0  0  0  0
  146.2656  142.7007  153.8209 C   0  0  0  0  0  0  0  0  0  0  0  0
  145.9482  141.5998  154.7948 C   0  0  0  0  0  0  0  0  0  0  0  0
  151.9309  142.6929  158.1484 C   0  0  0  0  0  0  0  0  0  0  0  0
  151.8564  144.1872  158.3098 C   0  0  0  0  0  0  0  0  0  0  0  0
  151.2336  139.7424  157.1220 H   0  0  0  0  0  0  0  0  0  0  0  0
  154.3220  142.7131  161.7494 H   0  0  0  0  0  0  0  0  0  0  0  0
  152.9350  141.6498  161.5282 H   0  0  0  0  0  0  0  0  0  0  0  0
  152.8318  143.3451  161.0535 H   0  0  0  0  0  0  0  0  0  0  0  0
  154.5838  142.9464  159.2880 H   0  0  0  0  0  0  0  0  0  0  0  0
  154.6822  141.2717  159.7521 H   0  0  0  0  0  0  0  0  0  0  0  0
  149.9701  143.2680  156.6088 H   0  0  0  0  0  0  0  0  0  0  0  0
  148.3273  143.2846  155.3307 H   0  0  0  0  0  0  0  0  0  0  0  0
  147.6971  141.0275  153.5540 H   0  0  0  0  0  0  0  0  0  0  0  0
  146.2719  143.7205  154.2014 H   0  0  0  0  0  0  0  0  0  0  0  0
  145.9066  142.5877  152.8000 H   0  0  0  0  0  0  0  0  0  0  0  0
  145.3769  140.7508  154.4248 H   0  0  0  0  0  0  0  0  0  0  0  0
  145.7432  141.8846  155.8253 H   0  0  0  0  0  0  0  0  0  0  0  0
  150.8911  144.5882  158.0003 H   0  0  0  0  0  0  0  0  0  0  0  0
  152.6190  144.6916  157.7168 H   0  0  0  0  0  0  0  0  0  0  0  0
  152.0055  144.4868  159.3472 H   0  0  0  0  0  0  0  0  0  0  0  0
  1  2  1  0  0  0  0
  1 17  1  0  0  0  0
  1 18  1  0  0  0  0
  1 19  1  0  0  0  0
  2 20  1  0  0  0  0
  2 21  1  0  0  0  0
  2  3  1  0  0  0  0
  3  4  2  0  0  0  0
  3 14  1  0  0  0  0
  4  5  1  0  0  0  0
  5 16  1  0  0  0  0
  5  6  1  0  0  0  0
  6  7  1  0  0  0  0
  6 14  2  0  0  0  0
  7  8  1  0  0  0  0
  7 22  1  0  0  0  0
  8  9  2  0  0  0  0
  8 10  1  0  0  0  0
 10 11  1  0  0  0  0
 10 23  1  0  0  0  0
 11 13  1  0  0  0  0
 11 12  1  0  0  0  0
 11 24  1  0  0  0  0
 12 13  1  0  0  0  0
 12 25  1  0  0  0  0
 12 26  1  0  0  0  0
 13 27  1  0  0  0  0
 13 28  1  0  0  0  0
 14 15  1  0  0  0  0
 15 29  1  0  0  0  0
 15 30  1  0  0  0  0
 15 31  1  0  0  0  0
M  END
> <s_m_source_file>
AV-unprocessed.smi

> <i_m_source_file_index>
2653

> <i_lp_mmshare_version>
43012

> <i_f3d_flags>
0

> <s_epik_input>
W0NIM11bQ0gyXWMxW25IXW5jKGMxW0NIM10pW05IXUMoPU8pW05IXVtDSF0yW0NIMl1bQ0gyXTI=

> <s_epik_cmdline>
J2VwaWtfcHl0aG9uJywgJy1waCcsICc3LjAnLCAnLXRuJywgJzgnLCAnLW1hJywgJzIwMCcsICctbWV0YWxfYmluZGluZycsICctaW1hZScsICc8aW5maWxlLm1hZT4nLCAnLW9tYWUnLCAnPG91dGZpbGUubWFlPic=

> <r_lp_tautomer_probability>
0.5

> <r_epik_Ionization_Penalty>
6.45879e-05

> <r_epik_Ionization_Penalty_Charging>
0

> <r_epik_Ionization_Penalty_Neutral>
6.45879e-05

> <r_epik_State_Penalty>
0.41068

> <r_epik_Charging_Adjusted_Penalty>
0.41068

> <i_epik_Tot_Q>
0

> <i_epik_Tot_abs_Q>
0

> <r_epik_Metal_State_Penalty>
0.410665

> <b_epik_Metal_Only>
0

> <s_lp_Force_Field>
OPLS_2005

> <r_lp_Energy>
17.9348

> <b_lp_Chiralities_Consistent>
1

> <s_lp_Variant>
AV-unprocessed.smi:2653-2

> <Gold.Version>
5.8.1

> <Gold.Id.Protein>
6NUR|6NUR_protein|mol2

> <Gold.PLP.Fitness>
36.1978

> <Gold.PLP.PLP>
-31.2657

> <Gold.PLP.part.hbond>
-1.9317

> <Gold.PLP.part.metal>
0.0000

> <Gold.PLP.part.buried>
-4.9509

> <Gold.PLP.part.nonpolar>
-24.5037

> <Gold.PLP.part.repulsive>
0.2962

> <Gold.PLP.ligand.clash>
0.0000

> <Gold.PLP.ligand.torsion>
0.3127

> <Gold.PLP.Chemscore.Hbond>
1.8406

> <Gold.PLP.Chemscore.CHOScore>
0.0000

> <Gold.PLP.Chemscore.Metal>
0.0000

> <Gold.Chemscore.Hbonds>
donor molecule, donor type, donor heavy atom, donor atom, acceptor molecule, acceptor atom, score
      L1  H     7    22       P1  8028  0.83
      L1  H    10    23       P1  8028  1.00

> <Gold.PLP.Chemscore.Internal.Correction>
0.0359

> <Gold.Rescore>
     Score         DG    S(hbond)    S(metal)    S(lipo)     H(rot)  DE(clash)    DE(int)     intcor
     16.07     -17.43       1.91        0.00      74.24       1.21       0.03       1.32       ----

> <Gold.Chemscore.Fitness>
16.0701

> <Gold.Chemscore.DG>
-17.4272

> <Gold.Chemscore.ZeroCoef>
-5.4800

> <Gold.Chemscore.Hbond>
1.9060

> <Gold.Chemscore.Metal>
0.0000

> <Gold.Chemscore.Lipo>
74.2395

> <Gold.Chemscore.Internal_Hbond>
0.0000

> <Gold.Chemscore.DEClash>
0.0336

> <Gold.Chemscore.DEInternal>
1.3235

> <Gold.Chemscore.Rot>
1.2129

> <Gold.Chemscore.Internal.Correction>
   9.000000E+99

> <Gold.Chemscore.Hbonds>
donor molecule, donor type, donor heavy atom, donor atom, acceptor molecule, acceptor atom, score
      L1  H     7    22       P1  8028  0.76
      L1  H    10    23       P1  8028  0.93

> <Gold.Chemscore.Hbond.Weighted>
-6.3661

> <Gold.Chemscore.Metal.Weighted>
-0.0000

> <Gold.Chemscore.Lipo.Weighted>
-8.6860

> <Gold.Chemscore.Internal_Hbond.Weighted>
0.0000

> <Gold.Chemscore.DEClash.Weighted>
0.0336

> <Gold.Chemscore.DEInternal.Weighted>
1.3235

> <Gold.Chemscore.Rot.Weighted>
3.1049

> <Gold.Chemscore.Internal.Correction.Weighted>
   9.000000E+99

> <Gold.Protein.RotatedTorsions>
[ 6907 6896 6895 6894 ] final   50.77 input  -60.11 | X-H torsion
[ 7974 7965 7964 7962 ] final  121.72 input  175.53 | X-H torsion
[ 8008 7997 7996 7995 ] final  -56.04 input   59.86 | X-H torsion
[ 10167 10162 10161 10158 ] final   50.03 input  -65.29 | X-H torsion
[ 10718 10713 10712 10709 ] final  153.89 input   66.30 | X-H torsion
[ 10763 10752 10751 10750 ] final  -37.07 input  -60.55 | X-H torsion
[ 11005 11000 10999 10996 ] final -150.14 input  -57.11 | X-H torsion

> <Gold.Protein.ActiveResidues>
 VAL166  LYS551  ARG553  GLY616  TRP617  ASP618  TYR619  PRO620  LYS621  CYS622 
 ASP623  PHE694  ASN695  SER759  ASP760  ASP761  ALA762  ILE779  LEU786  VAL792 
 PHE793  MET794  SER795  GLU796  ALA797  LYS798  CYS799  TRP800  GLU811  SER814 

> <Gold.Protein.RotatedAtoms>
  152.3054  134.7561  160.0348 H   0  0  0  0  0  0  0  0  0  0  0  0  # atno 6907 bound_to 6896
  151.8060  133.3370  159.3549 H   0  0  0  0  0  0  0  0  0  0  0  0  # atno 6908 bound_to 6896
  150.7294  134.5639  159.5900 H   0  0  0  0  0  0  0  0  0  0  0  0  # atno 6909 bound_to 6896
  145.1159  139.3421  143.4739 H   0  0  0  0  0  0  0  0  0  0  0  0  # atno 7974 bound_to 7965
  154.4216  140.1139  156.5573 H   0  0  0  0  0  0  0  0  0  0  0  0  # atno 8008 bound_to 7997
  155.6348  140.3496  155.4676 H   0  0  0  0  0  0  0  0  0  0  0  0  # atno 8009 bound_to 7997
  155.9919  140.1181  157.0620 H   0  0  0  0  0  0  0  0  0  0  0  0  # atno 8010 bound_to 7997
  140.2766  144.3204  150.6275 H   0  0  0  0  0  0  0  0  0  0  0  0  # atno 10167 bound_to 10162
  157.2388  131.0755  151.1806 H   0  0  0  0  0  0  0  0  0  0  0  0  # atno 10718 bound_to 10713
  153.8903  135.6813  153.4761 H   0  0  0  0  0  0  0  0  0  0  0  0  # atno 10763 bound_to 10752
  153.1185  135.4750  154.9153 H   0  0  0  0  0  0  0  0  0  0  0  0  # atno 10764 bound_to 10752
  154.7626  135.3215  154.8302 H   0  0  0  0  0  0  0  0  0  0  0  0  # atno 10765 bound_to 10752
  140.7433  134.3489  157.5142 H   0  0  0  0  0  0  0  0  0  0  0  0  # atno 11005 bound_to 11000
  146.3524  140.1098  142.8604 LP  0  0  0  0  0  0  0  0  0  0  0  0  # atno 17320 bound_to 7965
  145.0794  140.9210  143.4834 LP  0  0  0  0  0  0  0  0  0  0  0  0  # atno 17321 bound_to 7965
  140.5846  143.2171  151.7366 LP  0  0  0  0  0  0  0  0  0  0  0  0  # atno 17342 bound_to 10162
  139.4974  144.4030  152.0161 LP  0  0  0  0  0  0  0  0  0  0  0  0  # atno 17343 bound_to 10162
  157.3400  130.7028  149.6376 LP  0  0  0  0  0  0  0  0  0  0  0  0  # atno 17370 bound_to 10713
  155.9671  130.4282  150.4780 LP  0  0  0  0  0  0  0  0  0  0  0  0  # atno 17371 bound_to 10713
  139.8801  134.9095  156.2992 LP  0  0  0  0  0  0  0  0  0  0  0  0  # atno 17394 bound_to 11000
  140.9817  133.7263  156.0681 LP  0  0  0  0  0  0  0  0  0  0  0  0  # atno 17395 bound_to 11000

$$$$
