AV-unprocessed.smi:281|AV-procd|sdf|2115|dock10
  -GOLD-   2262021413D 1   1.00000     0.00000
 Structure written by MMmdl.
 55 59  0  0  0  0  0  0  0  0  1 V2000
  154.5837  140.2740  160.3285 C   0  0  0  0  0  0  0  0  0  0  0  0
  153.2460  140.9635  160.0437 C   0  0  2  0  0  0  0  0  0  0  0  0
  152.4020  140.1909  159.0192 C   0  0  0  0  0  0  0  0  0  0  0  0
  151.1841  140.9356  158.7303 N   0  0  0  0  0  0  0  0  0  0  0  0
  150.2066  140.2257  158.1116 C   0  0  0  0  0  0  0  0  0  0  0  0
  149.0617  140.8456  157.7176 N   0  0  0  0  0  0  0  0  0  0  0  0
  148.0964  140.1555  157.1034 C   0  0  0  0  0  0  0  0  0  0  0  0
  148.0677  138.8589  156.7907 N   0  0  0  0  0  0  0  0  0  0  0  0
  149.2103  138.2289  157.1877 C   0  0  0  0  0  0  0  0  0  0  0  0
  150.3171  138.8302  157.8513 C   0  0  0  0  0  0  0  0  0  0  0  0
  151.2862  137.8696  158.1164 N   0  0  0  0  0  0  0  0  0  0  0  0
  150.7853  136.7674  157.6295 C   0  0  0  0  0  0  0  0  0  0  0  0
  149.5462  136.8938  157.0428 N   0  0  0  0  0  0  0  0  0  0  0  0
  148.7584  135.8376  156.4244 C   0  0  0  0  0  0  0  0  0  0  0  0
  149.5077  135.0765  155.3047 C   0  0  2  0  0  0  0  0  0  0  0  0
  150.1354  136.0117  154.4445 O   0  0  0  0  0  0  0  0  0  0  0  0
  148.5831  134.2021  154.4661 C   0  0  0  0  0  0  0  0  0  0  0  0
  149.5019  133.0751  154.0143 C   0  0  0  0  0  0  0  0  0  0  0  0
  150.2914  132.8327  155.1660 O   0  0  0  0  0  0  0  0  0  0  0  0
  150.5733  134.0765  155.8011 C   0  0  0  0  0  0  0  0  0  0  0  0
  151.4491  142.2936  158.2658 C   0  0  0  0  0  0  0  0  0  0  0  0
  152.3578  143.0594  159.2600 C   0  0  1  0  0  0  0  0  0  0  0  0
  152.8045  144.3819  158.6574 C   0  0  0  0  0  0  0  0  0  0  0  0
  151.6227  145.3020  158.9450 C   0  0  0  0  0  0  0  0  0  0  0  0
  151.0312  144.8096  160.1432 O   0  0  0  0  0  0  0  0  0  0  0  0
  151.6030  143.5561  160.5149 C   0  0  2  0  0  0  0  0  0  0  0  0
  152.4933  143.8462  161.7390 C   0  0  0  0  0  0  0  0  0  0  0  0
  153.5200  142.2748  159.5470 O   0  0  0  0  0  0  0  0  0  0  0  0
  154.4311  139.2702  160.7261 H   0  0  0  0  0  0  0  0  0  0  0  0
  155.1629  140.8367  161.0611 H   0  0  0  0  0  0  0  0  0  0  0  0
  155.1844  140.1887  159.4226 H   0  0  0  0  0  0  0  0  0  0  0  0
  152.6882  141.0282  160.9778 H   0  0  0  0  0  0  0  0  0  0  0  0
  152.9628  140.0554  158.0933 H   0  0  0  0  0  0  0  0  0  0  0  0
  152.1817  139.1958  159.4037 H   0  0  0  0  0  0  0  0  0  0  0  0
  147.2220  140.7235  156.8222 H   0  0  0  0  0  0  0  0  0  0  0  0
  151.3117  135.8259  157.6875 H   0  0  0  0  0  0  0  0  0  0  0  0
  148.4478  135.1444  157.2073 H   0  0  0  0  0  0  0  0  0  0  0  0
  147.8428  136.2805  156.0296 H   0  0  0  0  0  0  0  0  0  0  0  0
  149.6606  136.0341  153.6279 H   0  0  0  0  0  0  0  0  0  0  0  0
  147.7900  133.7850  155.0879 H   0  0  0  0  0  0  0  0  0  0  0  0
  148.1101  134.7301  153.6367 H   0  0  0  0  0  0  0  0  0  0  0  0
  148.9576  132.1830  153.7038 H   0  0  0  0  0  0  0  0  0  0  0  0
  150.1416  133.3956  153.1905 H   0  0  0  0  0  0  0  0  0  0  0  0
  151.5873  134.3990  155.5595 H   0  0  0  0  0  0  0  0  0  0  0  0
  150.5283  133.9211  156.8785 H   0  0  0  0  0  0  0  0  0  0  0  0
  151.9358  142.2353  157.2910 H   0  0  0  0  0  0  0  0  0  0  0  0
  150.5098  142.8299  158.1239 H   0  0  0  0  0  0  0  0  0  0  0  0
  153.6905  144.7523  159.1744 H   0  0  0  0  0  0  0  0  0  0  0  0
  153.0476  144.3205  157.5962 H   0  0  0  0  0  0  0  0  0  0  0  0
  151.9252  146.3441  159.0504 H   0  0  0  0  0  0  0  0  0  0  0  0
  150.8858  145.2444  158.1433 H   0  0  0  0  0  0  0  0  0  0  0  0
  150.8150  142.8604  160.8058 H   0  0  0  0  0  0  0  0  0  0  0  0
  152.9726  142.9467  162.1222 H   0  0  0  0  0  0  0  0  0  0  0  0
  151.8998  144.2643  162.5521 H   0  0  0  0  0  0  0  0  0  0  0  0
  153.2795  144.5647  161.5072 H   0  0  0  0  0  0  0  0  0  0  0  0
  1  2  1  0  0  0  0
  1 29  1  0  0  0  0
  1 30  1  0  0  0  0
  1 31  1  0  0  0  0
  2 28  1  0  0  0  0
  2  3  1  0  0  0  0
  2 32  1  0  0  0  0
  3  4  1  0  0  0  0
  3 33  1  0  0  0  0
  3 34  1  0  0  0  0
  4  5  1  0  0  0  0
  4 21  1  0  0  0  0
  5 10  1  0  0  0  0
  5  6  2  0  0  0  0
  6  7  1  0  0  0  0
  7  8  2  0  0  0  0
  7 35  1  0  0  0  0
  8  9  1  0  0  0  0
  9 13  1  0  0  0  0
  9 10  2  0  0  0  0
 10 11  1  0  0  0  0
 11 12  2  0  0  0  0
 12 13  1  0  0  0  0
 12 36  1  0  0  0  0
 13 14  1  0  0  0  0
 14 15  1  0  0  0  0
 14 37  1  0  0  0  0
 14 38  1  0  0  0  0
 15 20  1  0  0  0  0
 15 16  1  0  0  0  0
 15 17  1  0  0  0  0
 16 39  1  0  0  0  0
 17 18  1  0  0  0  0
 17 40  1  0  0  0  0
 17 41  1  0  0  0  0
 18 19  1  0  0  0  0
 18 42  1  0  0  0  0
 18 43  1  0  0  0  0
 19 20  1  0  0  0  0
 20 44  1  0  0  0  0
 20 45  1  0  0  0  0
 21 22  1  0  0  0  0
 21 46  1  0  0  0  0
 21 47  1  0  0  0  0
 22 26  1  0  0  0  0
 22 23  1  0  0  0  0
 22 28  1  0  0  0  0
 23 24  1  0  0  0  0
 23 48  1  0  0  0  0
 23 49  1  0  0  0  0
 24 25  1  0  0  0  0
 24 50  1  0  0  0  0
 24 51  1  0  0  0  0
 25 26  1  0  0  0  0
 26 27  1  0  0  0  0
 26 52  1  0  0  0  0
 27 53  1  0  0  0  0
 27 54  1  0  0  0  0
 27 55  1  0  0  0  0
M  END
> <s_m_source_file>
AV-unprocessed.smi

> <i_m_source_file_index>
281

> <i_lp_mmshare_version>
43012

> <i_f3d_flags>
0

> <s_epik_input>
W0NIM11bQ0BASF0xT1tDSDJdW0NIMl1bQ0BAXTEyW0NIMl1OKFtDSDJdW0NASF0oTzIpW0NIM10pYyhuW2NIXW4zKWMoYzM0KW5bY0hdbjRbQ0gyXVtDQEBdNShbT0hdKVtDSDJdW0NIMl1PW0NIMl01

> <s_epik_cmdline>
J2VwaWtfcHl0aG9uJywgJy1waCcsICc3LjAnLCAnLXRuJywgJzgnLCAnLW1hJywgJzIwMCcsICctbWV0YWxfYmluZGluZycsICctaW1hZScsICc8aW5maWxlLm1hZT4nLCAnLW9tYWUnLCAnPG91dGZpbGUubWFlPic=

> <r_lp_tautomer_probability>
1

> <r_epik_Ionization_Penalty>
0.00571331

> <r_epik_Ionization_Penalty_Charging>
0

> <r_epik_Ionization_Penalty_Neutral>
0.00571331

> <r_epik_State_Penalty>
0.00399586

> <r_epik_Charging_Adjusted_Penalty>
0.00399586

> <i_epik_Tot_Q>
0

> <i_epik_Tot_abs_Q>
0

> <r_epik_Metal_State_Penalty>
-0

> <b_epik_Metal_Only>
0

> <s_lp_Force_Field>
OPLS_2005

> <r_lp_Energy>
55.4075

> <b_lp_Chiralities_Consistent>
1

> <s_lp_Variant>
AV-unprocessed.smi:281-15

> <Gold.Version>
5.8.1

> <Gold.Id.Protein>
6NUR|6NUR_protein|mol2

> <Gold.PLP.Fitness>
45.6623

> <Gold.PLP.PLP>
-44.1156

> <Gold.PLP.part.hbond>
-1.7149

> <Gold.PLP.part.metal>
0.0000

> <Gold.PLP.part.buried>
-7.4182

> <Gold.PLP.part.nonpolar>
-34.8375

> <Gold.PLP.part.repulsive>
0.1786

> <Gold.PLP.ligand.clash>
0.7530

> <Gold.PLP.ligand.torsion>
0.4978

> <Gold.PLP.Chemscore.Hbond>
1.0000

> <Gold.PLP.Chemscore.CHOScore>
0.0000

> <Gold.PLP.Chemscore.Metal>
0.0000

> <Gold.Chemscore.Hbonds>
donor molecule, donor type, donor heavy atom, donor atom, acceptor molecule, acceptor atom, score
      L1  H    16    39       P1  7948  1.00

> <Gold.PLP.Chemscore.Internal.Correction>
0.2952

> <Gold.Rescore>
     Score         DG    S(hbond)    S(metal)    S(lipo)     H(rot)  DE(clash)    DE(int)     intcor
     15.01     -16.90       0.91        0.00     117.56       2.09       0.04       1.85       ----

> <Gold.Chemscore.Fitness>
15.0104

> <Gold.Chemscore.DG>
-16.9042

> <Gold.Chemscore.ZeroCoef>
-5.4800

> <Gold.Chemscore.Hbond>
0.9064

> <Gold.Chemscore.Metal>
0.0000

> <Gold.Chemscore.Lipo>
117.5579

> <Gold.Chemscore.Internal_Hbond>
0.0000

> <Gold.Chemscore.DEClash>
0.0398

> <Gold.Chemscore.DEInternal>
1.8540

> <Gold.Chemscore.Rot>
2.0927

> <Gold.Chemscore.Internal.Correction>
   9.000000E+99

> <Gold.Chemscore.Hbonds>
donor molecule, donor type, donor heavy atom, donor atom, acceptor molecule, acceptor atom, score
      L1  H    16    39       P1  7948  0.30

> <Gold.Chemscore.Hbond.Weighted>
-3.0272

> <Gold.Chemscore.Metal.Weighted>
-0.0000

> <Gold.Chemscore.Lipo.Weighted>
-13.7543

> <Gold.Chemscore.Internal_Hbond.Weighted>
0.0000

> <Gold.Chemscore.DEClash.Weighted>
0.0398

> <Gold.Chemscore.DEInternal.Weighted>
1.8540

> <Gold.Chemscore.Rot.Weighted>
5.3573

> <Gold.Chemscore.Internal.Correction.Weighted>
   9.000000E+99

> <Gold.Protein.RotatedTorsions>
[ 6907 6896 6895 6894 ] final  -35.77 input  -60.11 | X-H torsion
[ 7974 7965 7964 7962 ] final -121.47 input  175.53 | X-H torsion
[ 8008 7997 7996 7995 ] final  -61.95 input   59.86 | X-H torsion
[ 10167 10162 10161 10158 ] final  172.95 input  -65.29 | X-H torsion
[ 10718 10713 10712 10709 ] final  -89.17 input   66.30 | X-H torsion
[ 10763 10752 10751 10750 ] final  -52.89 input  -60.55 | X-H torsion
[ 11005 11000 10999 10996 ] final  137.04 input  -57.11 | X-H torsion

> <Gold.Protein.ActiveResidues>
 VAL166  LYS551  ARG553  GLY616  TRP617  ASP618  TYR619  PRO620  LYS621  CYS622 
 ASP623  PHE694  ASN695  SER759  ASP760  ASP761  ALA762  ILE779  LEU786  VAL792 
 PHE793  MET794  SER795  GLU796  ALA797  LYS798  CYS799  TRP800  GLU811  SER814 

> <Gold.Protein.RotatedAtoms>
  151.0355  134.9570  159.8133 H   0  0  0  0  0  0  0  0  0  0  0  0  # atno 6907 bound_to 6896
  152.5354  134.2725  159.8987 H   0  0  0  0  0  0  0  0  0  0  0  0  # atno 6908 bound_to 6896
  151.2735  133.4201  159.2656 H   0  0  0  0  0  0  0  0  0  0  0  0  # atno 6909 bound_to 6896
  145.0400  140.8136  143.4272 H   0  0  0  0  0  0  0  0  0  0  0  0  # atno 7974 bound_to 7965
  154.4474  140.1006  156.6511 H   0  0  0  0  0  0  0  0  0  0  0  0  # atno 8008 bound_to 7997
  155.5397  140.3483  155.4425 H   0  0  0  0  0  0  0  0  0  0  0  0  # atno 8009 bound_to 7997
  156.0606  140.1325  156.9934 H   0  0  0  0  0  0  0  0  0  0  0  0  # atno 8010 bound_to 7997
  139.5092  144.3316  152.0106 H   0  0  0  0  0  0  0  0  0  0  0  0  # atno 10167 bound_to 10162
  155.9984  130.4862  150.5131 H   0  0  0  0  0  0  0  0  0  0  0  0  # atno 10718 bound_to 10713
  154.1500  135.6491  153.4961 H   0  0  0  0  0  0  0  0  0  0  0  0  # atno 10763 bound_to 10752
  153.0140  135.5336  154.6818 H   0  0  0  0  0  0  0  0  0  0  0  0  # atno 10764 bound_to 10752
  154.6103  135.2953  155.0411 H   0  0  0  0  0  0  0  0  0  0  0  0  # atno 10765 bound_to 10752
  140.0087  134.9448  157.0230 H   0  0  0  0  0  0  0  0  0  0  0  0  # atno 11005 bound_to 11000
  145.1661  139.2431  143.5366 LP  0  0  0  0  0  0  0  0  0  0  0  0  # atno 17320 bound_to 7965
  146.3508  140.1400  142.8595 LP  0  0  0  0  0  0  0  0  0  0  0  0  # atno 17321 bound_to 7965
  140.2756  144.3916  150.6136 LP  0  0  0  0  0  0  0  0  0  0  0  0  # atno 17342 bound_to 10162
  140.6056  143.2167  151.6986 LP  0  0  0  0  0  0  0  0  0  0  0  0  # atno 17343 bound_to 10162
  157.3102  131.0662  151.2006 LP  0  0  0  0  0  0  0  0  0  0  0  0  # atno 17370 bound_to 10713
  157.2955  130.6817  149.6136 LP  0  0  0  0  0  0  0  0  0  0  0  0  # atno 17371 bound_to 10713
  140.4594  134.1500  155.7189 LP  0  0  0  0  0  0  0  0  0  0  0  0  # atno 17394 bound_to 11000
  141.1695  133.8636  157.1613 LP  0  0  0  0  0  0  0  0  0  0  0  0  # atno 17395 bound_to 11000

$$$$
