AV-unprocessed.smi:2580|AV-procd|sdf|10130|dock4
  -GOLD-   2272014143D 1   1.00000     0.00000
 Structure written by MMmdl.
 29 30  0  0  0  0  0  0  0  0  1 V2000
  149.3278  141.4375  156.0543 C   0  0  0  0  0  0  0  0  0  0  0  0
  150.2961  140.2462  156.1289 C   0  0  1  0  0  0  0  0  0  0  0  0
  150.3233  139.4080  154.8669 C   0  0  0  0  0  0  0  0  0  0  0  0
  151.6356  138.6475  155.0192 C   0  0  0  0  0  0  0  0  0  0  0  0
  152.5071  139.5185  155.7331 O   0  0  0  0  0  0  0  0  0  0  0  0
  151.7796  140.6265  156.2670 C   0  0  2  0  0  0  0  0  0  0  0  0
  152.2494  140.9223  157.7001 C   0  0  0  0  0  0  0  0  0  0  0  0
  153.0261  140.1512  158.2643 O   0  0  0  0  0  0  0  0  0  0  0  0
  151.7462  142.0382  158.2609 N   0  0  0  0  0  0  0  0  0  0  0  0
  151.9889  142.5705  159.5568 C   0  0  0  0  0  0  0  0  0  0  0  0
  152.3972  141.8101  160.6041 N   0  0  0  0  0  0  0  0  0  0  0  0
  152.6059  142.3908  161.8038 C   0  0  0  0  0  0  0  0  0  0  0  0
  152.4204  143.7653  162.0352 C   0  0  0  0  0  0  0  0  0  0  0  0
  151.9967  144.5658  160.9600 C   0  0  0  0  0  0  0  0  0  0  0  0
  151.7772  143.9653  159.7045 C   0  0  0  0  0  0  0  0  0  0  0  0
  151.2559  144.9486  158.3796 Cl  0  0  0  0  0  0  0  0  0  0  0  0
  149.5825  142.1067  155.2321 H   0  0  0  0  0  0  0  0  0  0  0  0
  149.3430  142.0218  156.9740 H   0  0  0  0  0  0  0  0  0  0  0  0
  148.3041  141.0958  155.8997 H   0  0  0  0  0  0  0  0  0  0  0  0
  150.0049  139.6036  156.9622 H   0  0  0  0  0  0  0  0  0  0  0  0
  149.4598  138.7494  154.7701 H   0  0  0  0  0  0  0  0  0  0  0  0
  150.3652  140.0483  153.9844 H   0  0  0  0  0  0  0  0  0  0  0  0
  151.4852  137.7456  155.6137 H   0  0  0  0  0  0  0  0  0  0  0  0
  152.0620  138.3544  154.0597 H   0  0  0  0  0  0  0  0  0  0  0  0
  151.9990  141.4931  155.6415 H   0  0  0  0  0  0  0  0  0  0  0  0
  151.1208  142.5795  157.6813 H   0  0  0  0  0  0  0  0  0  0  0  0
  152.9295  141.7398  162.6023 H   0  0  0  0  0  0  0  0  0  0  0  0
  152.5980  144.1930  163.0108 H   0  0  0  0  0  0  0  0  0  0  0  0
  151.8422  145.6260  161.0968 H   0  0  0  0  0  0  0  0  0  0  0  0
  1  2  1  0  0  0  0
  1 17  1  0  0  0  0
  1 18  1  0  0  0  0
  1 19  1  0  0  0  0
  2  6  1  0  0  0  0
  2  3  1  0  0  0  0
  2 20  1  0  0  0  0
  3  4  1  0  0  0  0
  3 21  1  0  0  0  0
  3 22  1  0  0  0  0
  4  5  1  0  0  0  0
  4 23  1  0  0  0  0
  4 24  1  0  0  0  0
  5  6  1  0  0  0  0
  6  7  1  0  0  0  0
  6 25  1  0  0  0  0
  7  8  2  0  0  0  0
  7  9  1  0  0  0  0
  9 10  1  0  0  0  0
  9 26  1  0  0  0  0
 10 15  1  0  0  0  0
 10 11  2  0  0  0  0
 11 12  1  0  0  0  0
 12 13  2  0  0  0  0
 12 27  1  0  0  0  0
 13 14  1  0  0  0  0
 13 28  1  0  0  0  0
 14 15  2  0  0  0  0
 14 29  1  0  0  0  0
 15 16  1  0  0  0  0
M  END
> <s_m_source_file>
AV-unprocessed.smi

> <i_m_source_file_index>
2580

> <i_lp_mmshare_version>
43012

> <i_f3d_flags>
0

> <s_epik_input>
W0NIM11bQ0BASF0xW0NIMl1bQ0gyXU9bQ0BIXTFDKD1PKVtOSF1jMm5bY0hdW2NIXVtjSF1jMkNs

> <s_epik_cmdline>
J2VwaWtfcHl0aG9uJywgJy1waCcsICc3LjAnLCAnLXRuJywgJzgnLCAnLW1hJywgJzIwMCcsICctbWV0YWxfYmluZGluZycsICctaW1hZScsICc8aW5maWxlLm1hZT4nLCAnLW9tYWUnLCAnPG91dGZpbGUubWFlPic=

> <r_lp_tautomer_probability>
1

> <r_epik_Ionization_Penalty>
4.32497e-05

> <r_epik_Ionization_Penalty_Charging>
0

> <r_epik_Ionization_Penalty_Neutral>
4.32497e-05

> <r_epik_State_Penalty>
-0

> <r_epik_Charging_Adjusted_Penalty>
0

> <i_epik_Tot_Q>
0

> <i_epik_Tot_abs_Q>
0

> <r_epik_Metal_State_Penalty>
-0

> <b_epik_Metal_Only>
0

> <s_lp_Force_Field>
OPLS_2005

> <r_lp_Energy>
21.1194

> <b_lp_Chiralities_Consistent>
1

> <s_lp_Variant>
AV-unprocessed.smi:2580-4

> <Gold.Version>
5.8.1

> <Gold.Id.Protein>
6NUR|6NUR_protein|mol2

> <Gold.PLP.Fitness>
38.0745

> <Gold.PLP.PLP>
-35.5783

> <Gold.PLP.part.hbond>
-2.0000

> <Gold.PLP.part.metal>
0.0000

> <Gold.PLP.part.buried>
-5.3425

> <Gold.PLP.part.nonpolar>
-27.0779

> <Gold.PLP.part.repulsive>
0.0801

> <Gold.PLP.ligand.clash>
0.0000

> <Gold.PLP.ligand.torsion>
0.2528

> <Gold.PLP.Chemscore.Hbond>
1.0000

> <Gold.PLP.Chemscore.CHOScore>
0.0000

> <Gold.PLP.Chemscore.Metal>
0.0000

> <Gold.Chemscore.Hbonds>
donor molecule, donor type, donor heavy atom, donor atom, acceptor molecule, acceptor atom, score
      P1  H  7997  8008       L1     5  1.00

> <Gold.PLP.Chemscore.Internal.Correction>
0.0017

> <Gold.Rescore>
     Score         DG    S(hbond)    S(metal)    S(lipo)     H(rot)  DE(clash)    DE(int)     intcor
     13.48     -14.96       0.40        0.00      91.60       1.00       0.11       1.37       ----

> <Gold.Chemscore.Fitness>
13.4767

> <Gold.Chemscore.DG>
-14.9617

> <Gold.Chemscore.ZeroCoef>
-5.4800

> <Gold.Chemscore.Hbond>
0.3966

> <Gold.Chemscore.Metal>
0.0000

> <Gold.Chemscore.Lipo>
91.5981

> <Gold.Chemscore.Internal_Hbond>
0.0000

> <Gold.Chemscore.DEClash>
0.1108

> <Gold.Chemscore.DEInternal>
1.3741

> <Gold.Chemscore.Rot>
1.0000

> <Gold.Chemscore.Internal.Correction>
   9.000000E+99

> <Gold.Chemscore.Hbonds>
donor molecule, donor type, donor heavy atom, donor atom, acceptor molecule, acceptor atom, score
      P1  H  7997  8008       L1     5  0.24

> <Gold.Chemscore.Hbond.Weighted>
-1.3247

> <Gold.Chemscore.Metal.Weighted>
-0.0000

> <Gold.Chemscore.Lipo.Weighted>
-10.7170

> <Gold.Chemscore.Internal_Hbond.Weighted>
0.0000

> <Gold.Chemscore.DEClash.Weighted>
0.1108

> <Gold.Chemscore.DEInternal.Weighted>
1.3741

> <Gold.Chemscore.Rot.Weighted>
2.5600

> <Gold.Chemscore.Internal.Correction.Weighted>
   9.000000E+99

> <Gold.Protein.RotatedTorsions>
[ 6907 6896 6895 6894 ] final  -49.23 input  -60.11 | X-H torsion
[ 7974 7965 7964 7962 ] final  -76.31 input  175.53 | X-H torsion
[ 8008 7997 7996 7995 ] final  -23.87 input   59.86 | X-H torsion
[ 10167 10162 10161 10158 ] final  165.36 input  -65.29 | X-H torsion
[ 10718 10713 10712 10709 ] final    7.92 input   66.30 | X-H torsion
[ 10763 10752 10751 10750 ] final -125.52 input  -60.55 | X-H torsion
[ 11005 11000 10999 10996 ] final   60.25 input  -57.11 | X-H torsion

> <Gold.Protein.ActiveResidues>
 VAL166  LYS551  ARG553  GLY616  TRP617  ASP618  TYR619  PRO620  LYS621  CYS622 
 ASP623  PHE694  ASN695  SER759  ASP760  ASP761  ALA762  ILE779  LEU786  VAL792 
 PHE793  MET794  SER795  GLU796  ALA797  LYS798  CYS799  TRP800  GLU811  SER814 

> <Gold.Protein.RotatedAtoms>
  150.8826  134.8219  159.7235 H   0  0  0  0  0  0  0  0  0  0  0  0  # atno 6907 bound_to 6896
  152.4787  134.4773  159.9664 H   0  0  0  0  0  0  0  0  0  0  0  0  # atno 6908 bound_to 6896
  151.4846  133.3500  159.2879 H   0  0  0  0  0  0  0  0  0  0  0  0  # atno 6909 bound_to 6896
  145.6145  140.9378  143.1171 H   0  0  0  0  0  0  0  0  0  0  0  0  # atno 7974 bound_to 7965
  154.4561  140.1969  156.0376 H   0  0  0  0  0  0  0  0  0  0  0  0  # atno 8008 bound_to 7997
  156.0748  140.3279  155.7593 H   0  0  0  0  0  0  0  0  0  0  0  0  # atno 8009 bound_to 7997
  155.5205  140.0569  157.2898 H   0  0  0  0  0  0  0  0  0  0  0  0  # atno 8010 bound_to 7997
  139.4904  144.4140  151.9265 H   0  0  0  0  0  0  0  0  0  0  0  0  # atno 10167 bound_to 10162
  156.9440  130.5872  149.5653 H   0  0  0  0  0  0  0  0  0  0  0  0  # atno 10718 bound_to 10713
  154.8736  135.4027  154.3281 H   0  0  0  0  0  0  0  0  0  0  0  0  # atno 10763 bound_to 10752
  153.4099  135.7020  153.6372 H   0  0  0  0  0  0  0  0  0  0  0  0  # atno 10764 bound_to 10752
  153.5079  135.3713  155.2542 H   0  0  0  0  0  0  0  0  0  0  0  0  # atno 10765 bound_to 10752
  140.0245  134.6103  155.9592 H   0  0  0  0  0  0  0  0  0  0  0  0  # atno 11005 bound_to 11000
  144.7256  139.7887  143.7366 LP  0  0  0  0  0  0  0  0  0  0  0  0  # atno 17320 bound_to 7965
  146.1478  139.4553  143.0068 LP  0  0  0  0  0  0  0  0  0  0  0  0  # atno 17321 bound_to 7965
  140.3582  144.3005  150.5937 LP  0  0  0  0  0  0  0  0  0  0  0  0  # atno 17342 bound_to 10162
  140.5426  143.2221  151.8060 LP  0  0  0  0  0  0  0  0  0  0  0  0  # atno 17343 bound_to 10162
  156.0392  130.5476  150.8728 LP  0  0  0  0  0  0  0  0  0  0  0  0  # atno 17370 bound_to 10713
  157.5766  131.0946  150.9336 LP  0  0  0  0  0  0  0  0  0  0  0  0  # atno 17371 bound_to 10713
  141.1794  133.6544  156.4960 LP  0  0  0  0  0  0  0  0  0  0  0  0  # atno 17394 bound_to 11000
  140.4329  134.7085  157.4951 LP  0  0  0  0  0  0  0  0  0  0  0  0  # atno 17395 bound_to 11000

$$$$
