AV-unprocessed.smi:591|AV-procd|sdf|3009|dock9
  -GOLD-   2262023513D 1   1.00000     0.00000
 Structure written by MMmdl.
 42 43  0  0  0  0  0  0  0  0  1 V2000
  150.4103  137.5599  157.4801 O   0  0  0  0  0  0  0  0  0  0  0  0
  151.3467  137.7287  156.6977 C   0  0  0  0  0  0  0  0  0  0  0  0
  152.4224  138.7898  156.9714 C   0  0  0  0  0  0  0  0  0  0  0  0
  151.8993  140.1665  156.9628 N   0  0  0  0  0  0  0  0  0  0  0  0
  152.2629  140.9976  158.0408 C   0  0  0  0  0  0  0  0  0  0  0  0
  151.8459  142.2731  158.1562 C   0  0  0  0  0  0  0  0  0  0  0  0
  152.3052  143.1648  159.2995 C   0  0  0  0  0  0  0  0  0  0  0  0
  153.1227  142.5076  160.1225 F   0  0  0  0  0  0  0  0  0  0  0  0
  152.9622  144.2182  158.8156 F   0  0  0  0  0  0  0  0  0  0  0  0
  151.2679  143.6125  160.0084 F   0  0  0  0  0  0  0  0  0  0  0  0
  151.0125  142.7788  157.0831 C   0  0  0  0  0  0  0  0  0  0  0  0
  150.6663  142.0014  156.0385 C   0  0  0  0  0  0  0  0  0  0  0  0
  151.1129  140.6102  155.9366 C   0  0  0  0  0  0  0  0  0  0  0  0
  150.8008  139.8893  154.9884 O   0  0  0  0  0  0  0  0  0  0  0  0
  151.4870  137.0292  155.5629 N   0  0  0  0  0  0  0  0  0  0  0  0
  150.5730  135.9846  155.1231 C   0  0  0  0  0  0  0  0  0  0  0  0
  150.8997  134.6542  155.8177 C   0  0  0  0  0  0  0  0  0  0  0  0
  150.2707  133.4571  155.1240 C   0  0  0  0  0  0  0  0  0  0  0  0
  150.5825  132.1909  155.4639 C   0  0  0  0  0  0  0  0  0  0  0  0
  149.9753  130.9589  154.8162 C   0  0  0  0  0  0  0  0  0  0  0  0
  148.7289  131.2905  153.9786 C   0  0  0  0  0  0  0  0  0  0  0  0
  148.9488  132.5521  153.1346 C   0  0  0  0  0  0  0  0  0  0  0  0
  149.2660  133.7703  154.0204 C   0  0  0  0  0  0  0  0  0  0  0  0
  152.9057  138.5777  157.9272 H   0  0  0  0  0  0  0  0  0  0  0  0
  153.2092  138.6760  156.2243 H   0  0  0  0  0  0  0  0  0  0  0  0
  152.9147  140.5325  158.7660 H   0  0  0  0  0  0  0  0  0  0  0  0
  150.6572  143.7981  157.1181 H   0  0  0  0  0  0  0  0  0  0  0  0
  150.0431  142.4117  155.2572 H   0  0  0  0  0  0  0  0  0  0  0  0
  152.2790  137.2295  154.9692 H   0  0  0  0  0  0  0  0  0  0  0  0
  149.5481  136.2831  155.3501 H   0  0  0  0  0  0  0  0  0  0  0  0
  150.6478  135.8789  154.0400 H   0  0  0  0  0  0  0  0  0  0  0  0
  151.9795  134.5057  155.8574 H   0  0  0  0  0  0  0  0  0  0  0  0
  150.5564  134.6918  156.8526 H   0  0  0  0  0  0  0  0  0  0  0  0
  151.3141  132.0064  156.2372 H   0  0  0  0  0  0  0  0  0  0  0  0
  150.7387  130.4973  154.1894 H   0  0  0  0  0  0  0  0  0  0  0  0
  149.7195  130.2348  155.5901 H   0  0  0  0  0  0  0  0  0  0  0  0
  148.4725  130.4446  153.3402 H   0  0  0  0  0  0  0  0  0  0  0  0
  147.8760  131.4479  154.6404 H   0  0  0  0  0  0  0  0  0  0  0  0
  149.7744  132.3800  152.4426 H   0  0  0  0  0  0  0  0  0  0  0  0
  148.0704  132.7566  152.5218 H   0  0  0  0  0  0  0  0  0  0  0  0
  148.3494  134.1325  154.4866 H   0  0  0  0  0  0  0  0  0  0  0  0
  149.6463  134.5817  153.3990 H   0  0  0  0  0  0  0  0  0  0  0  0
  1  2  2  0  0  0  0
  2  3  1  0  0  0  0
  2 15  1  0  0  0  0
  3  4  1  0  0  0  0
  3 24  1  0  0  0  0
  3 25  1  0  0  0  0
  4 13  1  0  0  0  0
  4  5  1  0  0  0  0
  5  6  2  0  0  0  0
  5 26  1  0  0  0  0
  6  7  1  0  0  0  0
  6 11  1  0  0  0  0
  7  8  1  0  0  0  0
  7  9  1  0  0  0  0
  7 10  1  0  0  0  0
 11 12  2  0  0  0  0
 11 27  1  0  0  0  0
 12 13  1  0  0  0  0
 12 28  1  0  0  0  0
 13 14  2  0  0  0  0
 15 16  1  0  0  0  0
 15 29  1  0  0  0  0
 16 17  1  0  0  0  0
 16 30  1  0  0  0  0
 16 31  1  0  0  0  0
 17 18  1  0  0  0  0
 17 32  1  0  0  0  0
 17 33  1  0  0  0  0
 18 23  1  0  0  0  0
 18 19  2  0  0  0  0
 19 20  1  0  0  0  0
 19 34  1  0  0  0  0
 20 21  1  0  0  0  0
 20 35  1  0  0  0  0
 20 36  1  0  0  0  0
 21 22  1  0  0  0  0
 21 37  1  0  0  0  0
 21 38  1  0  0  0  0
 22 23  1  0  0  0  0
 22 39  1  0  0  0  0
 22 40  1  0  0  0  0
 23 41  1  0  0  0  0
 23 42  1  0  0  0  0
M  END
> <s_m_source_file>
AV-unprocessed.smi

> <i_m_source_file_index>
591

> <i_lp_mmshare_version>
43012

> <i_f3d_flags>
0

> <s_epik_input>
Tz1jMVtjSF1bY0hdYyhDKEYpKEYpRilbY0hdbjFbQ0gyXUMoPU8pW05IXVtDSDJdW0NIMl1DMj1bQ0hdW0NIMl1bQ0gyXVtDSDJdW0NIMl0y

> <s_epik_cmdline>
J2VwaWtfcHl0aG9uJywgJy1waCcsICc3LjAnLCAnLXRuJywgJzgnLCAnLW1hJywgJzIwMCcsICctbWV0YWxfYmluZGluZycsICctaW1hZScsICc8aW5maWxlLm1hZT4nLCAnLW9tYWUnLCAnPG91dGZpbGUubWFlPic=

> <r_lp_tautomer_probability>
1

> <r_epik_Ionization_Penalty>
3.65086e-08

> <r_epik_Ionization_Penalty_Charging>
1.84051e-08

> <r_epik_Ionization_Penalty_Neutral>
1.81035e-08

> <r_epik_State_Penalty>
-0

> <r_epik_Charging_Adjusted_Penalty>
1.84051e-08

> <i_epik_Tot_Q>
0

> <i_epik_Tot_abs_Q>
0

> <r_epik_Metal_State_Penalty>
-0

> <b_epik_Metal_Only>
0

> <s_lp_Force_Field>
OPLS_2005

> <r_lp_Energy>
19.2896

> <b_lp_Chiralities_Consistent>
1

> <s_lp_Variant>
AV-unprocessed.smi:591-1

> <Gold.Version>
5.8.1

> <Gold.Id.Protein>
6NUR|6NUR_protein|mol2

> <Gold.PLP.Fitness>
46.5974

> <Gold.PLP.PLP>
-45.8114

> <Gold.PLP.part.hbond>
-1.0000

> <Gold.PLP.part.metal>
0.0000

> <Gold.PLP.part.buried>
-4.8115

> <Gold.PLP.part.nonpolar>
-39.8518

> <Gold.PLP.part.repulsive>
0.1451

> <Gold.PLP.ligand.clash>
1.3862

> <Gold.PLP.ligand.torsion>
0.4629

> <Gold.PLP.Chemscore.Hbond>
1.0000

> <Gold.PLP.Chemscore.CHOScore>
0.0000

> <Gold.PLP.Chemscore.Metal>
0.0000

> <Gold.Chemscore.Hbonds>
donor molecule, donor type, donor heavy atom, donor atom, acceptor molecule, acceptor atom, score
      P1  H  7989  7998       L1    14  1.00

> <Gold.PLP.Chemscore.Internal.Correction>
0.0981

> <Gold.Rescore>
     Score         DG    S(hbond)    S(metal)    S(lipo)     H(rot)  DE(clash)    DE(int)     intcor
     12.57     -14.53       0.80        0.00      96.88       1.94       0.11       1.85       ----

> <Gold.Chemscore.Fitness>
12.5694

> <Gold.Chemscore.DG>
-14.5344

> <Gold.Chemscore.ZeroCoef>
-5.4800

> <Gold.Chemscore.Hbond>
0.8033

> <Gold.Chemscore.Metal>
0.0000

> <Gold.Chemscore.Lipo>
96.8828

> <Gold.Chemscore.Internal_Hbond>
0.0000

> <Gold.Chemscore.DEClash>
0.1104

> <Gold.Chemscore.DEInternal>
1.8546

> <Gold.Chemscore.Rot>
1.9390

> <Gold.Chemscore.Internal.Correction>
   9.000000E+99

> <Gold.Chemscore.Hbonds>
donor molecule, donor type, donor heavy atom, donor atom, acceptor molecule, acceptor atom, score
      P1  H  7989  7998       L1    14  0.29

> <Gold.Chemscore.Hbond.Weighted>
-2.6831

> <Gold.Chemscore.Metal.Weighted>
-0.0000

> <Gold.Chemscore.Lipo.Weighted>
-11.3353

> <Gold.Chemscore.Internal_Hbond.Weighted>
0.0000

> <Gold.Chemscore.DEClash.Weighted>
0.1104

> <Gold.Chemscore.DEInternal.Weighted>
1.8546

> <Gold.Chemscore.Rot.Weighted>
4.9639

> <Gold.Chemscore.Internal.Correction.Weighted>
   9.000000E+99

> <Gold.Protein.RotatedTorsions>
[ 6907 6896 6895 6894 ] final -118.04 input  -60.11 | X-H torsion
[ 7974 7965 7964 7962 ] final  -93.36 input  175.53 | X-H torsion
[ 8008 7997 7996 7995 ] final  150.93 input   59.86 | X-H torsion
[ 10167 10162 10161 10158 ] final  -93.73 input  -65.29 | X-H torsion
[ 10718 10713 10712 10709 ] final   31.04 input   66.30 | X-H torsion
[ 10763 10752 10751 10750 ] final  -63.82 input  -60.55 | X-H torsion
[ 11005 11000 10999 10996 ] final   47.73 input  -57.11 | X-H torsion

> <Gold.Protein.ActiveResidues>
 VAL166  LYS551  ARG553  GLY616  TRP617  ASP618  TYR619  PRO620  LYS621  CYS622 
 ASP623  PHE694  ASN695  SER759  ASP760  ASP761  ALA762  ILE779  LEU786  VAL792 
 PHE793  MET794  SER795  GLU796  ALA797  LYS798  CYS799  TRP800  GLU811  SER814 

> <Gold.Protein.RotatedAtoms>
  150.8187  133.8291  159.3148 H   0  0  0  0  0  0  0  0  0  0  0  0  # atno 6907 bound_to 6896
  151.6056  135.1042  160.0079 H   0  0  0  0  0  0  0  0  0  0  0  0  # atno 6908 bound_to 6896
  152.4277  133.7183  159.6575 H   0  0  0  0  0  0  0  0  0  0  0  0  # atno 6909 bound_to 6896
  145.3876  140.9524  143.2358 H   0  0  0  0  0  0  0  0  0  0  0  0  # atno 7974 bound_to 7965
  156.2695  140.2061  156.6096 H   0  0  0  0  0  0  0  0  0  0  0  0  # atno 8008 bound_to 7997
  154.6842  140.0537  157.0321 H   0  0  0  0  0  0  0  0  0  0  0  0  # atno 8009 bound_to 7997
  155.0957  140.3201  155.4564 H   0  0  0  0  0  0  0  0  0  0  0  0  # atno 8010 bound_to 7997
  140.3217  143.3045  152.0039 H   0  0  0  0  0  0  0  0  0  0  0  0  # atno 10167 bound_to 10162
  157.2674  130.7191  149.6486 H   0  0  0  0  0  0  0  0  0  0  0  0  # atno 10718 bound_to 10713
  154.3208  135.6196  153.5507 H   0  0  0  0  0  0  0  0  0  0  0  0  # atno 10763 bound_to 10752
  152.9820  135.5723  154.5072 H   0  0  0  0  0  0  0  0  0  0  0  0  # atno 10764 bound_to 10752
  154.4740  135.2860  155.1598 H   0  0  0  0  0  0  0  0  0  0  0  0  # atno 10765 bound_to 10752
  140.1253  134.4776  155.8564 H   0  0  0  0  0  0  0  0  0  0  0  0  # atno 11005 bound_to 11000
  144.8463  139.5392  143.6877 LP  0  0  0  0  0  0  0  0  0  0  0  0  # atno 17320 bound_to 7965
  146.2813  139.6884  142.9227 LP  0  0  0  0  0  0  0  0  0  0  0  0  # atno 17321 bound_to 7965
  139.4873  144.6306  151.7078 LP  0  0  0  0  0  0  0  0  0  0  0  0  # atno 17342 bound_to 10162
  140.5478  144.0475  150.6114 LP  0  0  0  0  0  0  0  0  0  0  0  0  # atno 17343 bound_to 10162
  155.9663  130.4378  150.5192 LP  0  0  0  0  0  0  0  0  0  0  0  0  # atno 17370 bound_to 10713
  157.3109  131.0663  151.2001 LP  0  0  0  0  0  0  0  0  0  0  0  0  # atno 17371 bound_to 10713
  141.2160  133.6775  156.6966 LP  0  0  0  0  0  0  0  0  0  0  0  0  # atno 17394 bound_to 11000
  140.2912  134.8239  157.4018 LP  0  0  0  0  0  0  0  0  0  0  0  0  # atno 17395 bound_to 11000

$$$$
