AV-unprocessed.smi:3314|AV-procd|sdf|12733|dock8
  -GOLD-   2272019 73D 1   1.00000     0.00000
 Structure written by MMmdl.
 38 39  0  0  0  0  0  0  0  0  2 V2000
  151.6957  145.5783  159.9199 C   0  0  0  0  0  0  0  0  0  0  0  0
  151.9946  144.1049  159.7380 C   0  0  0  0  0  0  0  0  0  0  0  0
  152.8486  143.4245  160.6269 C   0  0  0  0  0  0  0  0  0  0  0  0
  153.0841  142.0536  160.4046 C   0  0  0  0  0  0  0  0  0  0  0  0
  153.9925  141.2606  161.3203 C   0  0  0  0  0  0  0  0  0  0  0  0
  152.5293  141.3669  159.3825 N   0  0  0  0  0  0  0  0  0  0  0  0
  151.7035  142.0119  158.5219 C   0  0  0  0  0  0  0  0  0  0  0  0
  151.0710  141.3819  157.4179 N   0  0  0  0  0  0  0  0  0  0  0  0
  151.4906  140.3135  156.7147 C   0  0  0  0  0  0  0  0  0  0  0  0
  152.5266  139.6882  156.9456 O   0  0  0  0  0  0  0  0  0  0  0  0
  150.5687  139.8880  155.5555 C   0  0  2  0  0  0  0  0  0  0  0  0
  149.6730  138.6618  155.8547 C   0  0  0  0  0  0  0  0  0  0  0  0
  150.4660  137.4098  155.8975 N   0  3  1  0  0  0  0  0  0  0  0  0
  149.6455  136.2250  156.2257 C   0  0  0  0  0  0  0  0  0  0  0  0
  151.2475  137.2384  154.6525 C   0  0  0  0  0  0  0  0  0  0  0  0
  152.1363  138.4680  154.4064 C   0  0  0  0  0  0  0  0  0  0  0  0
  151.3299  139.6455  154.3686 O   0  0  0  0  0  0  0  0  0  0  0  0
  151.4174  143.3873  158.6711 C   0  0  0  0  0  0  0  0  0  0  0  0
  152.2351  145.9905  160.7732 H   0  0  0  0  0  0  0  0  0  0  0  0
  150.6288  145.7289  160.0856 H   0  0  0  0  0  0  0  0  0  0  0  0
  151.9878  146.1365  159.0302 H   0  0  0  0  0  0  0  0  0  0  0  0
  153.3106  143.9391  161.4570 H   0  0  0  0  0  0  0  0  0  0  0  0
  154.3418  141.8689  162.1551 H   0  0  0  0  0  0  0  0  0  0  0  0
  154.8638  140.9023  160.7714 H   0  0  0  0  0  0  0  0  0  0  0  0
  153.4634  140.3983  161.7271 H   0  0  0  0  0  0  0  0  0  0  0  0
  150.1922  141.7886  157.1321 H   0  0  0  0  0  0  0  0  0  0  0  0
  149.9156  140.7369  155.3491 H   0  0  0  0  0  0  0  0  0  0  0  0
  149.1463  138.7980  156.8006 H   0  0  0  0  0  0  0  0  0  0  0  0
  148.9064  138.5740  155.0832 H   0  0  0  0  0  0  0  0  0  0  0  0
  148.9019  136.0357  155.4503 H   0  0  0  0  0  0  0  0  0  0  0  0
  149.1243  136.3692  157.1727 H   0  0  0  0  0  0  0  0  0  0  0  0
  150.2732  135.3387  156.3224 H   0  0  0  0  0  0  0  0  0  0  0  0
  151.8657  136.3428  154.7240 H   0  0  0  0  0  0  0  0  0  0  0  0
  150.5686  137.0929  153.8106 H   0  0  0  0  0  0  0  0  0  0  0  0
  152.9118  138.5466  155.1695 H   0  0  0  0  0  0  0  0  0  0  0  0
  152.6522  138.3687  153.4513 H   0  0  0  0  0  0  0  0  0  0  0  0
  150.7588  143.8903  157.9776 H   0  0  0  0  0  0  0  0  0  0  0  0
  151.1337  137.5177  156.6487 H   0  0  0  0  0  0  0  0  0  0  0  0
  1  2  1  0  0  0  0
  1 19  1  0  0  0  0
  1 20  1  0  0  0  0
  1 21  1  0  0  0  0
  2 18  1  0  0  0  0
  2  3  2  0  0  0  0
  3  4  1  0  0  0  0
  3 22  1  0  0  0  0
  4  5  1  0  0  0  0
  4  6  2  0  0  0  0
  5 23  1  0  0  0  0
  5 24  1  0  0  0  0
  5 25  1  0  0  0  0
  6  7  1  0  0  0  0
  7  8  1  0  0  0  0
  7 18  2  0  0  0  0
  8  9  1  0  0  0  0
  8 26  1  0  0  0  0
  9 10  2  0  0  0  0
  9 11  1  0  0  0  0
 11 17  1  0  0  0  0
 11 12  1  0  0  0  0
 11 27  1  0  0  0  0
 12 13  1  0  0  0  0
 12 28  1  0  0  0  0
 12 29  1  0  0  0  0
 13 14  1  0  0  0  0
 13 15  1  0  0  0  0
 13 38  1  0  0  0  0
 14 30  1  0  0  0  0
 14 31  1  0  0  0  0
 14 32  1  0  0  0  0
 15 16  1  0  0  0  0
 15 33  1  0  0  0  0
 15 34  1  0  0  0  0
 16 17  1  0  0  0  0
 16 35  1  0  0  0  0
 16 36  1  0  0  0  0
 18 37  1  0  0  0  0
M  CHG  1  13   1
M  END
> <s_m_source_file>
AV-unprocessed.smi

> <i_m_source_file_index>
3314

> <i_lp_mmshare_version>
43012

> <i_f3d_flags>
0

> <s_epik_input>
W0NIM11jMVtjSF1jKFtDSDNdKW5jKFtjSF0xKVtOSF1DKD1PKVtDQEBIXTJbQ0gyXU4oW0NIM10pW0NIMl1bQ0gyXU8y

> <s_epik_cmdline>
J2VwaWtfcHl0aG9uJywgJy1waCcsICc3LjAnLCAnLXRuJywgJzgnLCAnLW1hJywgJzIwMCcsICctbWV0YWxfYmluZGluZycsICctaW1hZScsICc8aW5maWxlLm1hZT4nLCAnLW9tYWUnLCAnPG91dGZpbGUubWFlPic=

> <r_epik_Ionization_Penalty>
0.32442

> <r_epik_Ionization_Penalty_Charging>
0.314023

> <r_epik_Ionization_Penalty_Neutral>
0.0103972

> <r_epik_State_Penalty>
0.29453

> <r_epik_Charging_Adjusted_Penalty>
0.608553

> <i_epik_Tot_Q>
1

> <i_epik_Tot_abs_Q>
1

> <r_epik_Metal_State_Penalty>
0.286909

> <b_epik_Metal_Only>
0

> <s_lp_Force_Field>
OPLS_2005

> <r_lp_Energy>
14.9445

> <b_lp_Chiralities_Consistent>
1

> <s_lp_Variant>
AV-unprocessed.smi:3314-3

> <Gold.Version>
5.8.1

> <Gold.Id.Protein>
6NUR|6NUR_protein|mol2

> <Gold.PLP.Fitness>
41.7248

> <Gold.PLP.PLP>
-36.8339

> <Gold.PLP.part.hbond>
-2.0000

> <Gold.PLP.part.metal>
0.0000

> <Gold.PLP.part.buried>
-4.6155

> <Gold.PLP.part.nonpolar>
-30.6992

> <Gold.PLP.part.repulsive>
0.2081

> <Gold.PLP.ligand.clash>
0.0000

> <Gold.PLP.ligand.torsion>
0.5653

> <Gold.PLP.Chemscore.Hbond>
2.0000

> <Gold.PLP.Chemscore.CHOScore>
0.0000

> <Gold.PLP.Chemscore.Metal>
0.0000

> <Gold.Chemscore.Hbonds>
donor molecule, donor type, donor heavy atom, donor atom, acceptor molecule, acceptor atom, score
      P1  H  7989  7998       L1    17  0.99
      P1  H  7997  8009       L1    10  1.00

> <Gold.PLP.Chemscore.Internal.Correction>
0.0214

> <Gold.Rescore>
     Score         DG    S(hbond)    S(metal)    S(lipo)     H(rot)  DE(clash)    DE(int)     intcor
     17.59     -20.63       1.91        0.00      96.73       1.00       0.17       2.87       ----

> <Gold.Chemscore.Fitness>
17.5908

> <Gold.Chemscore.DG>
-20.6312

> <Gold.Chemscore.ZeroCoef>
-5.4800

> <Gold.Chemscore.Hbond>
1.9143

> <Gold.Chemscore.Metal>
0.0000

> <Gold.Chemscore.Lipo>
96.7301

> <Gold.Chemscore.Internal_Hbond>
0.0000

> <Gold.Chemscore.DEClash>
0.1710

> <Gold.Chemscore.DEInternal>
2.8694

> <Gold.Chemscore.Rot>
1.0000

> <Gold.Chemscore.Internal.Correction>
   9.000000E+99

> <Gold.Chemscore.Hbonds>
donor molecule, donor type, donor heavy atom, donor atom, acceptor molecule, acceptor atom, score
      P1  H  7989  7998       L1    17  0.87
      P1  H  7997  8009       L1    10  1.00

> <Gold.Chemscore.Hbond.Weighted>
-6.3938

> <Gold.Chemscore.Metal.Weighted>
-0.0000

> <Gold.Chemscore.Lipo.Weighted>
-11.3174

> <Gold.Chemscore.Internal_Hbond.Weighted>
0.0000

> <Gold.Chemscore.DEClash.Weighted>
0.1710

> <Gold.Chemscore.DEInternal.Weighted>
2.8694

> <Gold.Chemscore.Rot.Weighted>
2.5600

> <Gold.Chemscore.Internal.Correction.Weighted>
   9.000000E+99

> <Gold.Protein.RotatedTorsions>
[ 6907 6896 6895 6894 ] final -178.28 input  -60.11 | X-H torsion
[ 7974 7965 7964 7962 ] final   80.29 input  175.53 | X-H torsion
[ 8008 7997 7996 7995 ] final  177.53 input   59.86 | X-H torsion
[ 10167 10162 10161 10158 ] final  114.83 input  -65.29 | X-H torsion
[ 10718 10713 10712 10709 ] final  -40.65 input   66.30 | X-H torsion
[ 10763 10752 10751 10750 ] final   -2.91 input  -60.55 | X-H torsion
[ 11005 11000 10999 10996 ] final  -75.65 input  -57.11 | X-H torsion

> <Gold.Protein.ActiveResidues>
 VAL166  LYS551  ARG553  GLY616  TRP617  ASP618  TYR619  PRO620  LYS621  CYS622 
 ASP623  PHE694  ASN695  SER759  ASP760  ASP761  ALA762  ILE779  LEU786  VAL792 
 PHE793  MET794  SER795  GLU796  ALA797  LYS798  CYS799  TRP800  GLU811  SER814 

> <Gold.Protein.RotatedAtoms>
  151.6347  133.3329  159.3116 H   0  0  0  0  0  0  0  0  0  0  0  0  # atno 6907 bound_to 6896
  150.8038  134.7154  159.6637 H   0  0  0  0  0  0  0  0  0  0  0  0  # atno 6908 bound_to 6896
  152.4132  134.6092  160.0072 H   0  0  0  0  0  0  0  0  0  0  0  0  # atno 6909 bound_to 6896
  145.6532  139.2453  143.1965 H   0  0  0  0  0  0  0  0  0  0  0  0  # atno 7974 bound_to 7965
  156.0646  140.1356  156.9901 H   0  0  0  0  0  0  0  0  0  0  0  0  # atno 8008 bound_to 7997
  154.4499  140.0984  156.6639 H   0  0  0  0  0  0  0  0  0  0  0  0  # atno 8009 bound_to 7997
  155.5324  140.3459  155.4431 H   0  0  0  0  0  0  0  0  0  0  0  0  # atno 8010 bound_to 7997
  139.6360  144.7120  151.2334 H   0  0  0  0  0  0  0  0  0  0  0  0  # atno 10167 bound_to 10162
  156.2790  130.4215  149.8356 H   0  0  0  0  0  0  0  0  0  0  0  0  # atno 10718 bound_to 10713
  153.3643  135.6992  153.6687 H   0  0  0  0  0  0  0  0  0  0  0  0  # atno 10763 bound_to 10752
  153.5363  135.3582  155.2699 H   0  0  0  0  0  0  0  0  0  0  0  0  # atno 10764 bound_to 10752
  154.8672  135.4193  154.2907 H   0  0  0  0  0  0  0  0  0  0  0  0  # atno 10765 bound_to 10752
  141.1647  133.6954  156.7549 H   0  0  0  0  0  0  0  0  0  0  0  0  # atno 11005 bound_to 11000
  146.1186  140.7337  142.9468 LP  0  0  0  0  0  0  0  0  0  0  0  0  # atno 17320 bound_to 7965
  144.7115  140.4056  143.7077 LP  0  0  0  0  0  0  0  0  0  0  0  0  # atno 17321 bound_to 7965
  140.7465  143.6395  150.8348 LP  0  0  0  0  0  0  0  0  0  0  0  0  # atno 17342 bound_to 10162
  140.0026  143.5727  152.2869 LP  0  0  0  0  0  0  0  0  0  0  0  0  # atno 17343 bound_to 10162
  156.5811  130.8466  151.3383 LP  0  0  0  0  0  0  0  0  0  0  0  0  # atno 17370 bound_to 10713
  157.7308  130.9691  150.1852 LP  0  0  0  0  0  0  0  0  0  0  0  0  # atno 17371 bound_to 10713
  140.2577  134.8491  157.3728 LP  0  0  0  0  0  0  0  0  0  0  0  0  # atno 17394 bound_to 11000
  140.1641  134.4691  155.7874 LP  0  0  0  0  0  0  0  0  0  0  0  0  # atno 17395 bound_to 11000

$$$$
