AV-unprocessed.smi:1196|AV-procd|sdf|5006|dock5
  -GOLD-   22720 4 23D 1   1.00000     0.00000
 Structure written by MMmdl.
 36 37  0  0  0  0  0  0  0  0  2 V2000
  146.2252  128.3958  152.7934 C   0  0  0  0  0  0  0  0  0  0  0  0
  146.0787  129.8830  152.4452 C   0  0  2  0  0  0  0  0  0  0  0  0
  145.6416  130.0757  150.9772 C   0  0  0  0  0  0  0  0  0  0  0  0
  145.0871  131.3949  150.7259 N   0  0  0  0  0  0  0  0  0  0  0  0
  145.6660  132.6255  150.9543 C   0  0  0  0  0  0  0  0  0  0  0  0
  144.7758  133.5756  150.5430 C   0  0  0  0  0  0  0  0  0  0  0  0
  143.6664  132.8186  150.0728 C   0  0  0  0  0  0  0  0  0  0  0  0
  143.8529  131.5140  150.1901 N   0  0  0  0  0  0  0  0  0  0  0  0
  147.3497  130.5584  152.7049 N   0  0  0  0  0  0  0  0  0  0  0  0
  147.9394  130.6844  153.9046 C   0  0  0  0  0  0  0  0  0  0  0  0
  147.4812  130.2033  154.9412 O   0  0  0  0  0  0  0  0  0  0  0  0
  149.2433  131.4821  153.9413 C   0  0  0  0  0  0  0  0  0  0  0  0
  150.2936  130.8273  154.8570 C   0  0  0  0  0  0  0  0  0  0  0  0
  150.1479  131.2467  156.3330 C   0  0  1  0  0  0  0  0  0  0  0  0
  150.8480  130.3332  157.2104 N   0  0  0  0  0  0  0  0  0  0  0  0
  151.7530  130.9693  157.9514 C   0  0  0  0  0  0  0  0  0  0  0  0
  152.4388  130.3782  158.7825 O   0  0  0  0  0  0  0  0  0  0  0  0
  151.7731  132.2790  157.6365 N   0  5  0  0  0  0  0  0  0  0  0  0
  150.8652  132.5525  156.6747 C   0  0  0  0  0  0  0  0  0  0  0  0
  150.5868  133.6159  156.1227 O   0  0  0  0  0  0  0  0  0  0  0  0
  145.2852  127.8639  152.6449 H   0  0  0  0  0  0  0  0  0  0  0  0
  146.5164  128.2625  153.8358 H   0  0  0  0  0  0  0  0  0  0  0  0
  146.9813  127.9145  152.1719 H   0  0  0  0  0  0  0  0  0  0  0  0
  145.3024  130.2904  153.0955 H   0  0  0  0  0  0  0  0  0  0  0  0
  146.4809  129.9044  150.3008 H   0  0  0  0  0  0  0  0  0  0  0  0
  144.8790  129.3408  150.7163 H   0  0  0  0  0  0  0  0  0  0  0  0
  146.6546  132.7207  151.3788 H   0  0  0  0  0  0  0  0  0  0  0  0
  144.8994  134.6479  150.5698 H   0  0  0  0  0  0  0  0  0  0  0  0
  142.7367  133.1753  149.6547 H   0  0  0  0  0  0  0  0  0  0  0  0
  147.8011  130.9934  151.9134 H   0  0  0  0  0  0  0  0  0  0  0  0
  149.6301  131.5535  152.9242 H   0  0  0  0  0  0  0  0  0  0  0  0
  149.0416  132.5025  154.2702 H   0  0  0  0  0  0  0  0  0  0  0  0
  150.2350  129.7404  154.7706 H   0  0  0  0  0  0  0  0  0  0  0  0
  151.2909  131.1038  154.5111 H   0  0  0  0  0  0  0  0  0  0  0  0
  149.0989  131.3176  156.6241 H   0  0  0  0  0  0  0  0  0  0  0  0
  150.6464  129.3458  157.2646 H   0  0  0  0  0  0  0  0  0  0  0  0
  1  2  1  0  0  0  0
  1 21  1  0  0  0  0
  1 22  1  0  0  0  0
  1 23  1  0  0  0  0
  2  3  1  0  0  0  0
  2  9  1  0  0  0  0
  2 24  1  0  0  0  0
  3  4  1  0  0  0  0
  3 25  1  0  0  0  0
  3 26  1  0  0  0  0
  4  8  1  0  0  0  0
  4  5  1  0  0  0  0
  5  6  2  0  0  0  0
  5 27  1  0  0  0  0
  6  7  1  0  0  0  0
  6 28  1  0  0  0  0
  7  8  2  0  0  0  0
  7 29  1  0  0  0  0
  9 10  1  0  0  0  0
  9 30  1  0  0  0  0
 10 11  2  0  0  0  0
 10 12  1  0  0  0  0
 12 13  1  0  0  0  0
 12 31  1  0  0  0  0
 12 32  1  0  0  0  0
 13 14  1  0  0  0  0
 13 33  1  0  0  0  0
 13 34  1  0  0  0  0
 14 19  1  0  0  0  0
 14 15  1  0  0  0  0
 14 35  1  0  0  0  0
 15 16  1  0  0  0  0
 15 36  1  0  0  0  0
 16 17  2  0  0  0  0
 16 18  1  0  0  0  0
 18 19  1  0  0  0  0
 19 20  2  0  0  0  0
M  CHG  1  18  -1
M  END
> <s_m_source_file>
AV-unprocessed.smi

> <i_m_source_file_index>
1196

> <i_lp_mmshare_version>
43012

> <i_f3d_flags>
0

> <s_epik_input>
bjFbY0hdW2NIXVtjSF1uMVtDSDJdW0NAQEhdKFtDSDNdKVtOSF1DKD1PKVtDSDJdW0NIMl1bQ0BASF0yW05IXUMoPU8pW05IXUMyPU8=

> <s_epik_cmdline>
J2VwaWtfcHl0aG9uJywgJy1waCcsICc3LjAnLCAnLXRuJywgJzgnLCAnLW1hJywgJzIwMCcsICctbWV0YWxfYmluZGluZycsICctaW1hZScsICc8aW5maWxlLm1hZT4nLCAnLW9tYWUnLCAnPG91dGZpbGUubWFlPic=

> <r_lp_tautomer_probability>
1

> <r_epik_Ionization_Penalty>
2.57056

> <r_epik_Ionization_Penalty_Charging>
2.57023

> <r_epik_Ionization_Penalty_Neutral>
0.000331301

> <r_epik_State_Penalty>
2.56828

> <r_epik_Charging_Adjusted_Penalty>
5.13851

> <i_epik_Tot_Q>
-1

> <i_epik_Tot_abs_Q>
1

> <r_epik_Metal_State_Penalty>
0.444883

> <b_epik_Metal_Only>
1

> <s_lp_Force_Field>
OPLS_2005

> <r_lp_Energy>
7.37265

> <b_lp_Chiralities_Consistent>
1

> <s_lp_Variant>
AV-unprocessed.smi:1196-11

> <Gold.Version>
5.8.1

> <Gold.Id.Protein>
6NUR|6NUR_protein|mol2

> <Gold.PLP.Fitness>
42.7778

> <Gold.PLP.PLP>
-30.3777

> <Gold.PLP.part.hbond>
-3.0000

> <Gold.PLP.part.metal>
0.0000

> <Gold.PLP.part.buried>
-5.3297

> <Gold.PLP.part.nonpolar>
-22.5575

> <Gold.PLP.part.repulsive>
0.2141

> <Gold.PLP.ligand.clash>
0.0000

> <Gold.PLP.ligand.torsion>
0.8197

> <Gold.PLP.Chemscore.Hbond>
3.6410

> <Gold.PLP.Chemscore.CHOScore>
1.0000

> <Gold.PLP.Chemscore.Metal>
0.0000

> <Gold.Chemscore.Hbonds>
donor molecule, donor type, donor heavy atom, donor atom, acceptor molecule, acceptor atom, score
      L1  H     9    30       P1 10747  0.99
      P1  H  6896  6907       L1    18  2.00
      P1  H 10785 10796       L1     8  0.65
      L1  C     7    29       P1 10186  1.00

> <Gold.PLP.Chemscore.Internal.Correction>
0.1165

> <Gold.Rescore>
     Score         DG    S(hbond)    S(metal)    S(lipo)     H(rot)  DE(clash)    DE(int)     intcor
     12.63     -14.52       2.51        0.00      68.81       2.89       0.93       0.96       ----

> <Gold.Chemscore.Fitness>
12.6293

> <Gold.Chemscore.DG>
-14.5195

> <Gold.Chemscore.ZeroCoef>
-5.4800

> <Gold.Chemscore.Hbond>
2.5148

> <Gold.Chemscore.Metal>
0.0000

> <Gold.Chemscore.Lipo>
68.8064

> <Gold.Chemscore.Internal_Hbond>
0.0000

> <Gold.Chemscore.DEClash>
0.9333

> <Gold.Chemscore.DEInternal>
0.9569

> <Gold.Chemscore.Rot>
2.8946

> <Gold.Chemscore.Internal.Correction>
   9.000000E+99

> <Gold.Chemscore.Hbonds>
donor molecule, donor type, donor heavy atom, donor atom, acceptor molecule, acceptor atom, score
      L1  H     9    30       P1 10747  0.89
      P1  H  6896  6907       L1    18  0.63
      P1  H 10785 10796       L1     8  0.60

> <Gold.Chemscore.Hbond.Weighted>
-8.3993

> <Gold.Chemscore.Metal.Weighted>
-0.0000

> <Gold.Chemscore.Lipo.Weighted>
-8.0504

> <Gold.Chemscore.Internal_Hbond.Weighted>
0.0000

> <Gold.Chemscore.DEClash.Weighted>
0.9333

> <Gold.Chemscore.DEInternal.Weighted>
0.9569

> <Gold.Chemscore.Rot.Weighted>
7.4101

> <Gold.Chemscore.Internal.Correction.Weighted>
   9.000000E+99

> <Gold.Protein.RotatedTorsions>
[ 6907 6896 6895 6894 ] final  175.99 input  -60.11 | X-H torsion
[ 7974 7965 7964 7962 ] final -112.91 input  175.53 | X-H torsion
[ 8008 7997 7996 7995 ] final   70.50 input   59.86 | X-H torsion
[ 10167 10162 10161 10158 ] final  173.34 input  -65.29 | X-H torsion
[ 10718 10713 10712 10709 ] final  109.84 input   66.30 | X-H torsion
[ 10763 10752 10751 10750 ] final   25.92 input  -60.55 | X-H torsion
[ 11005 11000 10999 10996 ] final   91.67 input  -57.11 | X-H torsion

> <Gold.Protein.ActiveResidues>
 VAL166  LYS551  ARG553  GLY616  TRP617  ASP618  TYR619  PRO620  LYS621  CYS622 
 ASP623  PHE694  ASN695  SER759  ASP760  ASP761  ALA762  ILE779  LEU786  VAL792 
 PHE793  MET794  SER795  GLU796  ALA797  LYS798  CYS799  TRP800  GLU811  SER814 

> <Gold.Protein.RotatedAtoms>
  151.7273  133.3316  159.3330 H   0  0  0  0  0  0  0  0  0  0  0  0  # atno 6907 bound_to 6896
  150.7627  134.6395  159.6239 H   0  0  0  0  0  0  0  0  0  0  0  0  # atno 6908 bound_to 6896
  152.3614  134.6869  160.0257 H   0  0  0  0  0  0  0  0  0  0  0  0  # atno 6909 bound_to 6896
  145.1383  140.8763  143.3717 H   0  0  0  0  0  0  0  0  0  0  0  0  # atno 7974 bound_to 7965
  155.7398  140.3490  155.5099 H   0  0  0  0  0  0  0  0  0  0  0  0  # atno 8008 bound_to 7997
  155.9105  140.1049  157.1304 H   0  0  0  0  0  0  0  0  0  0  0  0  # atno 8009 bound_to 7997
  154.4055  140.1269  156.4538 H   0  0  0  0  0  0  0  0  0  0  0  0  # atno 8010 bound_to 7997
  139.5105  144.3271  152.0147 H   0  0  0  0  0  0  0  0  0  0  0  0  # atno 10167 bound_to 10162
  157.6522  131.0921  150.6514 H   0  0  0  0  0  0  0  0  0  0  0  0  # atno 10718 bound_to 10713
  153.0658  135.6572  154.0358 H   0  0  0  0  0  0  0  0  0  0  0  0  # atno 10763 bound_to 10752
  154.0015  135.2936  155.3403 H   0  0  0  0  0  0  0  0  0  0  0  0  # atno 10764 bound_to 10752
  154.7015  135.5242  153.8602 H   0  0  0  0  0  0  0  0  0  0  0  0  # atno 10765 bound_to 10752
  139.8835  134.8688  156.3462 H   0  0  0  0  0  0  0  0  0  0  0  0  # atno 11005 bound_to 11000
  145.0560  139.3143  143.5904 LP  0  0  0  0  0  0  0  0  0  0  0  0  # atno 17320 bound_to 7965
  146.3507  139.9985  142.8678 LP  0  0  0  0  0  0  0  0  0  0  0  0  # atno 17321 bound_to 7965
  140.2712  144.3962  150.6151 LP  0  0  0  0  0  0  0  0  0  0  0  0  # atno 17342 bound_to 10162
  140.6087  143.2168  151.6929 LP  0  0  0  0  0  0  0  0  0  0  0  0  # atno 17343 bound_to 10162
  156.6824  130.4571  149.5624 LP  0  0  0  0  0  0  0  0  0  0  0  0  # atno 17370 bound_to 10713
  156.1920  130.6566  151.1072 LP  0  0  0  0  0  0  0  0  0  0  0  0  # atno 17371 bound_to 10713
  140.9625  133.7379  156.0421 LP  0  0  0  0  0  0  0  0  0  0  0  0  # atno 17394 bound_to 11000
  140.7971  134.3551  157.5449 LP  0  0  0  0  0  0  0  0  0  0  0  0  # atno 17395 bound_to 11000

$$$$
