AV-unprocessed.smi:1758|AV-procd|sdf|7083|dock2
  -GOLD-   22720 8303D 1   1.00000     0.00000
 Structure written by MMmdl.
 44 46  0  0  0  0  0  0  0  0  2 V2000
  150.8809  141.2005  157.5738 C   0  0  0  0  0  0  0  0  0  0  0  0
  151.7014  139.9632  157.1914 C   0  0  0  0  0  0  0  0  0  0  0  0
  151.0793  139.2141  156.1168 N   0  0  0  0  0  0  0  0  0  0  0  0
  150.7152  137.8823  156.1041 C   0  0  0  0  0  0  0  0  0  0  0  0
  150.1787  137.6574  154.8675 C   0  0  0  0  0  0  0  0  0  0  0  0
  149.6562  136.4594  154.3171 N   0  0  0  0  0  0  0  0  0  0  0  0
  149.2587  135.3629  154.9835 C   0  0  0  0  0  0  0  0  0  0  0  0
  149.2513  135.2457  156.2087 O   0  0  0  0  0  0  0  0  0  0  0  0
  148.8587  134.3995  154.1408 N   0  0  0  0  0  0  0  0  0  0  0  0
  148.3579  133.0800  154.5270 C   0  0  2  0  0  0  0  0  0  0  0  0
  149.4227  131.9719  154.4114 C   0  0  0  0  0  0  0  0  0  0  0  0
  148.6791  130.7815  153.7961 C   0  0  0  0  0  0  0  0  0  0  0  0
  147.6918  131.4272  152.9231 N   0  3  1  0  0  0  0  0  0  0  0  0
  146.6154  130.6007  152.3401 C   0  0  0  0  0  0  0  0  0  0  0  0
  145.8254  131.4667  151.3346 C   0  0  0  0  0  0  0  0  0  0  0  0
  145.3447  132.7984  151.9564 C   0  0  0  0  0  0  0  0  0  0  0  0
  146.4951  133.5517  152.6592 C   0  0  0  0  0  0  0  0  0  0  0  0
  147.1778  132.5977  153.6546 C   0  0  2  0  0  0  0  0  0  0  0  0
  150.2493  138.8991  154.1839 C   0  0  0  0  0  0  0  0  0  0  0  0
  150.7930  139.8356  154.9460 N   0  0  0  0  0  0  0  0  0  0  0  0
  151.3588  141.7440  158.3891 H   0  0  0  0  0  0  0  0  0  0  0  0
  149.8785  140.9230  157.9008 H   0  0  0  0  0  0  0  0  0  0  0  0
  150.7817  141.8856  156.7312 H   0  0  0  0  0  0  0  0  0  0  0  0
  152.7056  140.2552  156.8809 H   0  0  0  0  0  0  0  0  0  0  0  0
  151.8159  139.3056  158.0540 H   0  0  0  0  0  0  0  0  0  0  0  0
  150.8726  137.2368  156.9557 H   0  0  0  0  0  0  0  0  0  0  0  0
  149.5900  136.4324  153.3102 H   0  0  0  0  0  0  0  0  0  0  0  0
  148.9050  134.5944  153.1513 H   0  0  0  0  0  0  0  0  0  0  0  0
  148.0113  133.1016  155.5620 H   0  0  0  0  0  0  0  0  0  0  0  0
  150.2230  132.2830  153.7380 H   0  0  0  0  0  0  0  0  0  0  0  0
  149.8783  131.7261  155.3714 H   0  0  0  0  0  0  0  0  0  0  0  0
  149.3389  130.1118  153.2437 H   0  0  0  0  0  0  0  0  0  0  0  0
  148.1678  130.2062  154.5698 H   0  0  0  0  0  0  0  0  0  0  0  0
  147.0471  129.7363  151.8345 H   0  0  0  0  0  0  0  0  0  0  0  0
  145.9616  130.2231  153.1277 H   0  0  0  0  0  0  0  0  0  0  0  0
  146.4619  131.6863  150.4762 H   0  0  0  0  0  0  0  0  0  0  0  0
  144.9739  130.9065  150.9474 H   0  0  0  0  0  0  0  0  0  0  0  0
  144.8963  133.4299  151.1890 H   0  0  0  0  0  0  0  0  0  0  0  0
  144.5561  132.5903  152.6806 H   0  0  0  0  0  0  0  0  0  0  0  0
  147.2123  133.9101  151.9196 H   0  0  0  0  0  0  0  0  0  0  0  0
  146.1053  134.4289  153.1772 H   0  0  0  0  0  0  0  0  0  0  0  0
  146.4135  132.2384  154.3478 H   0  0  0  0  0  0  0  0  0  0  0  0
  149.9327  139.1473  153.1817 H   0  0  0  0  0  0  0  0  0  0  0  0
  148.2219  131.7952  152.1461 H   0  0  0  0  0  0  0  0  0  0  0  0
  1  2  1  0  0  0  0
  1 21  1  0  0  0  0
  1 22  1  0  0  0  0
  1 23  1  0  0  0  0
  2  3  1  0  0  0  0
  2 24  1  0  0  0  0
  2 25  1  0  0  0  0
  3 20  1  0  0  0  0
  3  4  1  0  0  0  0
  4  5  2  0  0  0  0
  4 26  1  0  0  0  0
  5  6  1  0  0  0  0
  5 19  1  0  0  0  0
  6  7  1  0  0  0  0
  6 27  1  0  0  0  0
  7  8  2  0  0  0  0
  7  9  1  0  0  0  0
  9 10  1  0  0  0  0
  9 28  1  0  0  0  0
 10 18  1  0  0  0  0
 10 11  1  0  0  0  0
 10 29  1  0  0  0  0
 11 12  1  0  0  0  0
 11 30  1  0  0  0  0
 11 31  1  0  0  0  0
 12 13  1  0  0  0  0
 12 32  1  0  0  0  0
 12 33  1  0  0  0  0
 13 18  1  0  0  0  0
 13 14  1  0  0  0  0
 13 44  1  0  0  0  0
 14 15  1  0  0  0  0
 14 34  1  0  0  0  0
 14 35  1  0  0  0  0
 15 16  1  0  0  0  0
 15 36  1  0  0  0  0
 15 37  1  0  0  0  0
 16 17  1  0  0  0  0
 16 38  1  0  0  0  0
 16 39  1  0  0  0  0
 17 18  1  0  0  0  0
 17 40  1  0  0  0  0
 17 41  1  0  0  0  0
 18 42  1  0  0  0  0
 19 20  2  0  0  0  0
 19 43  1  0  0  0  0
M  CHG  1  13   1
M  END
> <s_m_source_file>
AV-unprocessed.smi

> <i_m_source_file_index>
1758

> <i_lp_mmshare_version>
43012

> <i_f3d_flags>
0

> <s_epik_input>
W0NIM11bQ0gyXW4xW2NIXWMoW2NIXW4xKVtOSF1DKD1PKVtOSF1bQ0BIXShbQ0gyXVtDSDJdMilbQ0BASF0oTjIzKVtDSDJdW0NIMl1bQ0gyXVtDSDJdMw==

> <s_epik_cmdline>
J2VwaWtfcHl0aG9uJywgJy1waCcsICc3LjAnLCAnLXRuJywgJzgnLCAnLW1hJywgJzIwMCcsICctbWV0YWxfYmluZGluZycsICctaW1hZScsICc8aW5maWxlLm1hZT4nLCAnLW9tYWUnLCAnPG91dGZpbGUubWFlPic=

> <r_lp_tautomer_probability>
1

> <r_epik_Ionization_Penalty>
0.00111541

> <r_epik_Ionization_Penalty_Charging>
0.000974069

> <r_epik_Ionization_Penalty_Neutral>
0.000141346

> <r_epik_State_Penalty>
0.000633842

> <r_epik_Charging_Adjusted_Penalty>
0.00160791

> <i_epik_Tot_Q>
1

> <i_epik_Tot_abs_Q>
1

> <r_epik_Metal_State_Penalty>
-0

> <b_epik_Metal_Only>
0

> <s_lp_Force_Field>
OPLS_2005

> <r_lp_Energy>
45.8918

> <b_lp_Chiralities_Consistent>
1

> <s_lp_Variant>
AV-unprocessed.smi:1758-5

> <Gold.Version>
5.8.1

> <Gold.Id.Protein>
6NUR|6NUR_protein|mol2

> <Gold.PLP.Fitness>
41.6034

> <Gold.PLP.PLP>
-30.7151

> <Gold.PLP.part.hbond>
-4.6942

> <Gold.PLP.part.metal>
0.0000

> <Gold.PLP.part.buried>
-2.4440

> <Gold.PLP.part.nonpolar>
-24.5253

> <Gold.PLP.part.repulsive>
0.1255

> <Gold.PLP.ligand.clash>
0.0000

> <Gold.PLP.ligand.torsion>
0.3770

> <Gold.PLP.Chemscore.Hbond>
2.8797

> <Gold.PLP.Chemscore.CHOScore>
1.0000

> <Gold.PLP.Chemscore.Metal>
0.0000

> <Gold.Chemscore.Hbonds>
donor molecule, donor type, donor heavy atom, donor atom, acceptor molecule, acceptor atom, score
      L1  H     6    27       P1  7948  1.00
      L1  H     9    28       P1  7948  0.60
      L1  H    13    44       P1 10747  0.34
      P1  H  7989  7998       L1    20  0.85
      L1  C    19    43       P1  7957  1.00

> <Gold.PLP.Chemscore.Internal.Correction>
0.0032

> <Gold.Rescore>
     Score         DG    S(hbond)    S(metal)    S(lipo)     H(rot)  DE(clash)    DE(int)     intcor
     15.90     -16.77       1.86        0.00      69.33       1.19       0.34       0.53       ----

> <Gold.Chemscore.Fitness>
15.8982

> <Gold.Chemscore.DG>
-16.7713

> <Gold.Chemscore.ZeroCoef>
-5.4800

> <Gold.Chemscore.Hbond>
1.8628

> <Gold.Chemscore.Metal>
0.0000

> <Gold.Chemscore.Lipo>
69.3314

> <Gold.Chemscore.Internal_Hbond>
0.0000

> <Gold.Chemscore.DEClash>
0.3403

> <Gold.Chemscore.DEInternal>
0.5329

> <Gold.Chemscore.Rot>
1.1884

> <Gold.Chemscore.Internal.Correction>
   9.000000E+99

> <Gold.Chemscore.Hbonds>
donor molecule, donor type, donor heavy atom, donor atom, acceptor molecule, acceptor atom, score
      L1  H     6    27       P1  7948  0.43
      L1  H     9    28       P1  7948  0.07
      L1  H    13    44       P1 10747  0.35
      P1  H  7989  7998       L1    20  0.14

> <Gold.Chemscore.Hbond.Weighted>
-6.2219

> <Gold.Chemscore.Metal.Weighted>
-0.0000

> <Gold.Chemscore.Lipo.Weighted>
-8.1118

> <Gold.Chemscore.Internal_Hbond.Weighted>
0.0000

> <Gold.Chemscore.DEClash.Weighted>
0.3403

> <Gold.Chemscore.DEInternal.Weighted>
0.5329

> <Gold.Chemscore.Rot.Weighted>
3.0423

> <Gold.Chemscore.Internal.Correction.Weighted>
   9.000000E+99

> <Gold.Protein.RotatedTorsions>
[ 6907 6896 6895 6894 ] final  -32.01 input  -60.11 | X-H torsion
[ 7974 7965 7964 7962 ] final  -78.06 input  175.53 | X-H torsion
[ 8008 7997 7996 7995 ] final  172.30 input   59.86 | X-H torsion
[ 10167 10162 10161 10158 ] final   89.90 input  -65.29 | X-H torsion
[ 10718 10713 10712 10709 ] final  -37.63 input   66.30 | X-H torsion
[ 10763 10752 10751 10750 ] final  -42.88 input  -60.55 | X-H torsion
[ 11005 11000 10999 10996 ] final  134.26 input  -57.11 | X-H torsion

> <Gold.Protein.ActiveResidues>
 VAL166  LYS551  ARG553  GLY616  TRP617  ASP618  TYR619  PRO620  LYS621  CYS622 
 ASP623  PHE694  ASN695  SER759  ASP760  ASP761  ALA762  ILE779  LEU786  VAL792 
 PHE793  MET794  SER795  GLU796  ALA797  LYS798  CYS799  TRP800  GLU811  SER814 

> <Gold.Protein.RotatedAtoms>
  151.0844  134.9878  159.8371 H   0  0  0  0  0  0  0  0  0  0  0  0  # atno 6907 bound_to 6896
  152.5423  134.2142  159.8772 H   0  0  0  0  0  0  0  0  0  0  0  0  # atno 6908 bound_to 6896
  151.2174  133.4478  159.2633 H   0  0  0  0  0  0  0  0  0  0  0  0  # atno 6909 bound_to 6896
  145.5914  140.9428  143.1290 H   0  0  0  0  0  0  0  0  0  0  0  0  # atno 7974 bound_to 7965
  156.1188  140.1489  156.9235 H   0  0  0  0  0  0  0  0  0  0  0  0  # atno 8008 bound_to 7997
  154.4820  140.0876  156.7441 H   0  0  0  0  0  0  0  0  0  0  0  0  # atno 8009 bound_to 7997
  155.4466  140.3433  155.4298 H   0  0  0  0  0  0  0  0  0  0  0  0  # atno 8010 bound_to 7997
  139.8526  144.6585  150.9151 H   0  0  0  0  0  0  0  0  0  0  0  0  # atno 10167 bound_to 10162
  156.3130  130.4255  149.8032 H   0  0  0  0  0  0  0  0  0  0  0  0  # atno 10718 bound_to 10713
  153.9864  135.6711  153.4752 H   0  0  0  0  0  0  0  0  0  0  0  0  # atno 10763 bound_to 10752
  153.0725  135.4966  154.8331 H   0  0  0  0  0  0  0  0  0  0  0  0  # atno 10764 bound_to 10752
  154.7135  135.3102  154.9122 H   0  0  0  0  0  0  0  0  0  0  0  0  # atno 10765 bound_to 10752
  139.9903  134.9517  156.9841 H   0  0  0  0  0  0  0  0  0  0  0  0  # atno 11005 bound_to 11000
  144.7349  139.7614  143.7333 LP  0  0  0  0  0  0  0  0  0  0  0  0  # atno 17320 bound_to 7965
  146.1644  139.4770  142.9968 LP  0  0  0  0  0  0  0  0  0  0  0  0  # atno 17321 bound_to 7965
  140.7785  143.3814  151.1471 LP  0  0  0  0  0  0  0  0  0  0  0  0  # atno 17342 bound_to 10162
  139.7450  143.8865  152.3061 LP  0  0  0  0  0  0  0  0  0  0  0  0  # atno 17343 bound_to 10162
  156.5368  130.8282  151.3255 LP  0  0  0  0  0  0  0  0  0  0  0  0  # atno 17370 bound_to 10713
  157.7395  130.9833  150.2319 LP  0  0  0  0  0  0  0  0  0  0  0  0  # atno 17371 bound_to 10713
  140.4921  134.1183  155.7234 LP  0  0  0  0  0  0  0  0  0  0  0  0  # atno 17394 bound_to 11000
  141.1560  133.8881  157.1975 LP  0  0  0  0  0  0  0  0  0  0  0  0  # atno 17395 bound_to 11000

$$$$
