AV-unprocessed.smi:3188|AV-procd|sdf|12184|dock6
  -GOLD-   2272018 23D 1   1.00000     0.00000
 Structure written by MMmdl.
 40 41  0  0  0  0  0  0  0  0  2 V2000
  151.6630  145.1773  159.0943 C   0  0  0  0  0  0  0  0  0  0  0  0
  152.1063  143.9795  159.9181 C   0  0  0  0  0  0  0  0  0  0  0  0
  152.2950  144.1149  161.2448 C   0  0  0  0  0  0  0  0  0  0  0  0
  152.8026  143.0170  162.1508 C   0  0  0  0  0  0  0  0  0  0  0  0
  153.5300  141.9351  161.3495 C   0  0  0  0  0  0  0  0  0  0  0  0
  152.6956  141.4715  160.1442 C   0  0  2  0  0  0  0  0  0  0  0  0
  153.4275  140.3179  159.4306 C   0  0  0  0  0  0  0  0  0  0  0  0
  152.3460  142.6465  159.1791 C   0  0  1  0  0  0  0  0  0  0  0  0
  151.1605  142.2489  158.2598 C   0  0  0  0  0  0  0  0  0  0  0  0
  151.5215  141.2110  157.2719 N   0  3  0  0  0  0  0  0  0  0  0  0
  150.3821  140.7100  156.4799 C   0  0  0  0  0  0  0  0  0  0  0  0
  149.9788  141.7202  155.3959 C   0  0  0  0  0  0  0  0  0  0  0  0
  148.7810  141.3049  154.6920 N   0  0  0  0  0  0  0  0  0  0  0  0
  147.6406  142.0352  154.4277 C   0  0  0  0  0  0  0  0  0  0  0  0
  146.8520  141.1545  153.7437 C   0  0  0  0  0  0  0  0  0  0  0  0
  147.5349  139.9456  153.6207 N   0  0  0  0  0  0  0  0  0  0  0  0
  148.6938  140.0495  154.1907 N   0  0  0  0  0  0  0  0  0  0  0  0
  152.3223  145.3176  158.2374 H   0  0  0  0  0  0  0  0  0  0  0  0
  151.6899  146.0946  159.6836 H   0  0  0  0  0  0  0  0  0  0  0  0
  150.6400  145.0507  158.7401 H   0  0  0  0  0  0  0  0  0  0  0  0
  152.0929  145.0617  161.7245 H   0  0  0  0  0  0  0  0  0  0  0  0
  153.4801  143.4469  162.8893 H   0  0  0  0  0  0  0  0  0  0  0  0
  151.9582  142.5958  162.6968 H   0  0  0  0  0  0  0  0  0  0  0  0
  154.4891  142.3226  161.0024 H   0  0  0  0  0  0  0  0  0  0  0  0
  153.7575  141.0930  162.0045 H   0  0  0  0  0  0  0  0  0  0  0  0
  151.7610  141.0733  160.5435 H   0  0  0  0  0  0  0  0  0  0  0  0
  154.3678  140.6568  158.9947 H   0  0  0  0  0  0  0  0  0  0  0  0
  152.8335  139.8754  158.6326 H   0  0  0  0  0  0  0  0  0  0  0  0
  153.6622  139.5146  160.1297 H   0  0  0  0  0  0  0  0  0  0  0  0
  153.2222  142.8172  158.5513 H   0  0  0  0  0  0  0  0  0  0  0  0
  150.3269  141.8560  158.8397 H   0  0  0  0  0  0  0  0  0  0  0  0
  150.7832  143.1330  157.7436 H   0  0  0  0  0  0  0  0  0  0  0  0
  152.2042  141.6010  156.6377 H   0  0  0  0  0  0  0  0  0  0  0  0
  150.6547  139.7561  156.0259 H   0  0  0  0  0  0  0  0  0  0  0  0
  149.5388  140.5223  157.1458 H   0  0  0  0  0  0  0  0  0  0  0  0
  149.7964  142.6998  155.8398 H   0  0  0  0  0  0  0  0  0  0  0  0
  150.7826  141.8458  154.6691 H   0  0  0  0  0  0  0  0  0  0  0  0
  147.4962  143.0616  154.7319 H   0  0  0  0  0  0  0  0  0  0  0  0
  145.8613  141.2881  153.3339 H   0  0  0  0  0  0  0  0  0  0  0  0
  151.9425  140.4343  157.7615 H   0  0  0  0  0  0  0  0  0  0  0  0
  1  2  1  0  0  0  0
  1 18  1  0  0  0  0
  1 19  1  0  0  0  0
  1 20  1  0  0  0  0
  2  8  1  0  0  0  0
  2  3  2  0  0  0  0
  3  4  1  0  0  0  0
  3 21  1  0  0  0  0
  4  5  1  0  0  0  0
  4 22  1  0  0  0  0
  4 23  1  0  0  0  0
  5  6  1  0  0  0  0
  5 24  1  0  0  0  0
  5 25  1  0  0  0  0
  6  7  1  0  0  0  0
  6  8  1  0  0  0  0
  6 26  1  0  0  0  0
  7 27  1  0  0  0  0
  7 28  1  0  0  0  0
  7 29  1  0  0  0  0
  8  9  1  0  0  0  0
  8 30  1  0  0  0  0
  9 10  1  0  0  0  0
  9 31  1  0  0  0  0
  9 32  1  0  0  0  0
 10 11  1  0  0  0  0
 10 33  1  0  0  0  0
 10 40  1  0  0  0  0
 11 12  1  0  0  0  0
 11 34  1  0  0  0  0
 11 35  1  0  0  0  0
 12 13  1  0  0  0  0
 12 36  1  0  0  0  0
 12 37  1  0  0  0  0
 13 17  1  0  0  0  0
 13 14  1  0  0  0  0
 14 15  2  0  0  0  0
 14 38  1  0  0  0  0
 15 16  1  0  0  0  0
 15 39  1  0  0  0  0
 16 17  2  0  0  0  0
M  CHG  1  10   1
M  END
> <s_m_source_file>
AV-unprocessed.smi

> <i_m_source_file_index>
3188

> <i_lp_mmshare_version>
43012

> <i_f3d_flags>
0

> <s_epik_input>
W0NIM11DMT1bQ0hdW0NIMl1bQ0gyXVtDQEBIXShbQ0gzXSlbQ0BIXTFbQ0gyXVtOSF1bQ0gyXVtDSDJdbjJbY0hdW2NIXW5uMg==

> <s_epik_cmdline>
J2VwaWtfcHl0aG9uJywgJy1waCcsICc3LjAnLCAnLXRuJywgJzgnLCAnLW1hJywgJzIwMCcsICctbWV0YWxfYmluZGluZycsICctaW1hZScsICc8aW5maWxlLm1hZT4nLCAnLW9tYWUnLCAnPG91dGZpbGUubWFlPic=

> <r_lp_tautomer_probability>
1

> <r_epik_Ionization_Penalty>
0.007268

> <r_epik_Ionization_Penalty_Charging>
0.00726786

> <r_epik_Ionization_Penalty_Neutral>
1.34882e-07

> <r_epik_State_Penalty>
0.00542069

> <r_epik_Charging_Adjusted_Penalty>
0.0126886

> <i_epik_Tot_Q>
1

> <i_epik_Tot_abs_Q>
1

> <r_epik_Metal_State_Penalty>
-0

> <b_epik_Metal_Only>
0

> <s_lp_Force_Field>
OPLS_2005

> <r_lp_Energy>
15.008

> <b_lp_Chiralities_Consistent>
1

> <s_lp_Variant>
AV-unprocessed.smi:3188-2

> <Gold.Version>
5.8.1

> <Gold.Id.Protein>
6NUR|6NUR_protein|mol2

> <Gold.PLP.Fitness>
49.8362

> <Gold.PLP.PLP>
-44.3080

> <Gold.PLP.part.hbond>
0.0000

> <Gold.PLP.part.metal>
0.0000

> <Gold.PLP.part.buried>
-5.1416

> <Gold.PLP.part.nonpolar>
-39.6489

> <Gold.PLP.part.repulsive>
1.7343

> <Gold.PLP.ligand.clash>
0.0000

> <Gold.PLP.ligand.torsion>
0.2649

> <Gold.PLP.Chemscore.Hbond>
0.0000

> <Gold.PLP.Chemscore.CHOScore>
1.9991

> <Gold.PLP.Chemscore.Metal>
0.0000

> <Gold.Chemscore.Hbonds>
donor molecule, donor type, donor heavy atom, donor atom, acceptor molecule, acceptor atom, score
      L1  C    14    38       P1  8028  1.00
      L1  C    15    39       P1 10175  1.00

> <Gold.PLP.Chemscore.Internal.Correction>
0.0605

> <Gold.Rescore>
     Score         DG    S(hbond)    S(metal)    S(lipo)     H(rot)  DE(clash)    DE(int)     intcor
     14.15     -15.45       0.00        0.00     124.20       1.78       0.00       1.30       ----

> <Gold.Chemscore.Fitness>
14.1467

> <Gold.Chemscore.DG>
-15.4521

> <Gold.Chemscore.ZeroCoef>
-5.4800

> <Gold.Chemscore.Hbond>
0.0000

> <Gold.Chemscore.Metal>
0.0000

> <Gold.Chemscore.Lipo>
124.1977

> <Gold.Chemscore.Internal_Hbond>
0.0000

> <Gold.Chemscore.DEClash>
0.0009

> <Gold.Chemscore.DEInternal>
1.3045

> <Gold.Chemscore.Rot>
1.7809

> <Gold.Chemscore.Internal.Correction>
   9.000000E+99

> <Gold.Chemscore.Hbond.Weighted>
-0.0000

> <Gold.Chemscore.Metal.Weighted>
-0.0000

> <Gold.Chemscore.Lipo.Weighted>
-14.5311

> <Gold.Chemscore.Internal_Hbond.Weighted>
0.0000

> <Gold.Chemscore.DEClash.Weighted>
0.0009

> <Gold.Chemscore.DEInternal.Weighted>
1.3045

> <Gold.Chemscore.Rot.Weighted>
4.5590

> <Gold.Chemscore.Internal.Correction.Weighted>
   9.000000E+99

> <Gold.Protein.RotatedTorsions>
[ 6907 6896 6895 6894 ] final   94.72 input  -60.11 | X-H torsion
[ 7974 7965 7964 7962 ] final  126.27 input  175.53 | X-H torsion
[ 8008 7997 7996 7995 ] final  -10.24 input   59.86 | X-H torsion
[ 10167 10162 10161 10158 ] final   53.32 input  -65.29 | X-H torsion
[ 10718 10713 10712 10709 ] final  179.31 input   66.30 | X-H torsion
[ 10763 10752 10751 10750 ] final   58.27 input  -60.55 | X-H torsion
[ 11005 11000 10999 10996 ] final  133.62 input  -57.11 | X-H torsion

> <Gold.Protein.ActiveResidues>
 VAL166  LYS551  ARG553  GLY616  TRP617  ASP618  TYR619  PRO620  LYS621  CYS622 
 ASP623  PHE694  ASN695  SER759  ASP760  ASP761  ALA762  ILE779  LEU786  VAL792 
 PHE793  MET794  SER795  GLU796  ALA797  LYS798  CYS799  TRP800  GLU811  SER814 

> <Gold.Protein.RotatedAtoms>
  152.5448  134.1150  159.8374 H   0  0  0  0  0  0  0  0  0  0  0  0  # atno 6907 bound_to 6896
  151.1212  133.5095  159.2609 H   0  0  0  0  0  0  0  0  0  0  0  0  # atno 6908 bound_to 6896
  151.1776  135.0356  159.8833 H   0  0  0  0  0  0  0  0  0  0  0  0  # atno 6909 bound_to 6896
  145.0636  139.3785  143.4993 H   0  0  0  0  0  0  0  0  0  0  0  0  # atno 7974 bound_to 7965
  154.5573  140.2334  155.8391 H   0  0  0  0  0  0  0  0  0  0  0  0  # atno 8008 bound_to 7997
  156.1999  140.3055  155.9464 H   0  0  0  0  0  0  0  0  0  0  0  0  # atno 8009 bound_to 7997
  155.2956  140.0429  157.3016 H   0  0  0  0  0  0  0  0  0  0  0  0  # atno 8010 bound_to 7997
  140.2420  144.3574  150.6377 H   0  0  0  0  0  0  0  0  0  0  0  0  # atno 10167 bound_to 10162
  156.8777  130.9805  151.3066 H   0  0  0  0  0  0  0  0  0  0  0  0  # atno 10718 bound_to 10713
  152.9867  135.5612  154.5526 H   0  0  0  0  0  0  0  0  0  0  0  0  # atno 10763 bound_to 10752
  154.4960  135.2795  155.1461 H   0  0  0  0  0  0  0  0  0  0  0  0  # atno 10764 bound_to 10752
  154.2911  135.6326  153.5438 H   0  0  0  0  0  0  0  0  0  0  0  0  # atno 10765 bound_to 10752
  139.9863  134.9531  156.9751 H   0  0  0  0  0  0  0  0  0  0  0  0  # atno 11005 bound_to 11000
  146.3525  140.0347  142.8647 LP  0  0  0  0  0  0  0  0  0  0  0  0  # atno 17320 bound_to 7965
  145.1378  140.9554  143.4506 LP  0  0  0  0  0  0  0  0  0  0  0  0  # atno 17321 bound_to 7965
  140.6106  143.2169  151.6893 LP  0  0  0  0  0  0  0  0  0  0  0  0  # atno 17342 bound_to 10162
  139.5074  144.3647  152.0529 LP  0  0  0  0  0  0  0  0  0  0  0  0  # atno 17343 bound_to 10162
  157.6159  130.8618  149.9027 LP  0  0  0  0  0  0  0  0  0  0  0  0  # atno 17370 bound_to 10713
  156.0693  130.3687  150.0809 LP  0  0  0  0  0  0  0  0  0  0  0  0  # atno 17371 bound_to 10713
  140.4995  134.1111  155.7248 LP  0  0  0  0  0  0  0  0  0  0  0  0  # atno 17394 bound_to 11000
  141.1528  133.8938  157.2055 LP  0  0  0  0  0  0  0  0  0  0  0  0  # atno 17395 bound_to 11000

$$$$
