AV-unprocessed.smi:285|AV-procd|sdf|2172|dock3
  -GOLD-   2262021533D 1   1.00000     0.00000
 Structure written by MMmdl.
 31 33  0  0  0  0  0  0  0  0  1 V2000
  142.6107  146.2626  155.0351 N   0  0  0  0  0  0  0  0  0  0  0  0
  143.5750  145.6935  154.2980 C   0  0  0  0  0  0  0  0  0  0  0  0
  143.8306  146.2028  153.0702 N   0  0  0  0  0  0  0  0  0  0  0  0
  144.7856  145.6523  152.3136 C   0  0  0  0  0  0  0  0  0  0  0  0
  145.5776  144.6134  152.5918 N   0  0  0  0  0  0  0  0  0  0  0  0
  145.3218  144.1010  153.8317 C   0  0  0  0  0  0  0  0  0  0  0  0
  144.3372  144.5839  154.7433 C   0  0  0  0  0  0  0  0  0  0  0  0
  144.3471  143.8248  155.9070 N   0  0  0  0  0  0  0  0  0  0  0  0
  145.2877  142.9527  155.6728 C   0  0  0  0  0  0  0  0  0  0  0  0
  145.7132  141.6251  156.9710 Br  0  0  0  0  0  0  0  0  0  0  0  0
  145.9334  143.0334  154.4594 N   0  0  0  0  0  0  0  0  0  0  0  0
  147.0387  142.1810  153.9216 C   0  0  1  0  0  0  0  0  0  0  0  0
  148.2504  142.2033  154.8519 C   0  0  0  0  0  0  0  0  0  0  0  0
  148.8044  140.8093  154.6493 C   0  0  2  0  0  0  0  0  0  0  0  0
  149.6365  140.7627  153.5035 O   0  0  0  0  0  0  0  0  0  0  0  0
  147.5205  139.9798  154.4798 C   0  0  2  0  0  0  0  0  0  0  0  0
  147.6792  138.6701  153.6866 C   0  0  0  0  0  0  0  0  0  0  0  0
  147.6982  138.9363  152.3004 O   0  0  0  0  0  0  0  0  0  0  0  0
  146.5947  140.8601  153.8407 O   0  0  0  0  0  0  0  0  0  0  0  0
  142.3999  145.9003  155.9540 H   0  0  0  0  0  0  0  0  0  0  0  0
  142.0975  147.0521  154.6707 H   0  0  0  0  0  0  0  0  0  0  0  0
  144.9367  146.1082  151.3462 H   0  0  0  0  0  0  0  0  0  0  0  0
  147.2547  142.5546  152.9211 H   0  0  0  0  0  0  0  0  0  0  0  0
  148.9388  143.0091  154.5942 H   0  0  0  0  0  0  0  0  0  0  0  0
  147.9258  142.3300  155.8855 H   0  0  0  0  0  0  0  0  0  0  0  0
  149.3876  140.4776  155.5088 H   0  0  0  0  0  0  0  0  0  0  0  0
  149.3210  140.0816  152.9294 H   0  0  0  0  0  0  0  0  0  0  0  0
  147.1353  139.7642  155.4781 H   0  0  0  0  0  0  0  0  0  0  0  0
  148.5814  138.1336  153.9822 H   0  0  0  0  0  0  0  0  0  0  0  0
  146.8314  138.0110  153.8759 H   0  0  0  0  0  0  0  0  0  0  0  0
  148.4103  139.5301  152.1174 H   0  0  0  0  0  0  0  0  0  0  0  0
  1  2  1  0  0  0  0
  1 20  1  0  0  0  0
  1 21  1  0  0  0  0
  2  7  1  0  0  0  0
  2  3  2  0  0  0  0
  3  4  1  0  0  0  0
  4  5  2  0  0  0  0
  4 22  1  0  0  0  0
  5  6  1  0  0  0  0
  6 11  1  0  0  0  0
  6  7  2  0  0  0  0
  7  8  1  0  0  0  0
  8  9  2  0  0  0  0
  9 10  1  0  0  0  0
  9 11  1  0  0  0  0
 11 12  1  0  0  0  0
 12 19  1  0  0  0  0
 12 13  1  0  0  0  0
 12 23  1  0  0  0  0
 13 14  1  0  0  0  0
 13 24  1  0  0  0  0
 13 25  1  0  0  0  0
 14 15  1  0  0  0  0
 14 16  1  0  0  0  0
 14 26  1  0  0  0  0
 15 27  1  0  0  0  0
 16 17  1  0  0  0  0
 16 19  1  0  0  0  0
 16 28  1  0  0  0  0
 17 18  1  0  0  0  0
 17 29  1  0  0  0  0
 17 30  1  0  0  0  0
 18 31  1  0  0  0  0
M  END
> <s_m_source_file>
AV-unprocessed.smi

> <i_m_source_file_index>
285

> <i_lp_mmshare_version>
43012

> <i_f3d_flags>
0

> <s_epik_input>
bjFbY0hdbmMoW05IMl0pYyhjMTIpbmMoQnIpbjJbQ0BASF0zW0NIMl1bQ0BASF0oW09IXSlbQ0BIXShPMylbQ0gyXVtPSF0=

> <s_epik_cmdline>
J2VwaWtfcHl0aG9uJywgJy1waCcsICc3LjAnLCAnLXRuJywgJzgnLCAnLW1hJywgJzIwMCcsICctbWV0YWxfYmluZGluZycsICctaW1hZScsICc8aW5maWxlLm1hZT4nLCAnLW9tYWUnLCAnPG91dGZpbGUubWFlPic=

> <r_lp_tautomer_probability>
1

> <r_epik_Ionization_Penalty>
0.000103242

> <r_epik_Ionization_Penalty_Charging>
0

> <r_epik_Ionization_Penalty_Neutral>
0.000103242

> <r_epik_State_Penalty>
-0

> <r_epik_Charging_Adjusted_Penalty>
0

> <i_epik_Tot_Q>
0

> <i_epik_Tot_abs_Q>
0

> <r_epik_Metal_State_Penalty>
-0

> <b_epik_Metal_Only>
0

> <s_epik_Chemistry_Notes>
This compound contains an acetal/aminal-like group ( X-CH(R)-Y where X, Y are N, S, or O) that may be acid/base labile, releasing an aldehyde.

> <s_lp_Force_Field>
OPLS_2005

> <r_lp_Energy>
37.1806

> <b_lp_Chiralities_Consistent>
1

> <s_lp_Variant>
AV-unprocessed.smi:285-8

> <Gold.Version>
5.8.1

> <Gold.Id.Protein>
6NUR|6NUR_protein|mol2

> <Gold.PLP.Fitness>
41.3275

> <Gold.PLP.PLP>
-33.1899

> <Gold.PLP.part.hbond>
-7.4805

> <Gold.PLP.part.metal>
0.0000

> <Gold.PLP.part.buried>
-0.9308

> <Gold.PLP.part.nonpolar>
-25.2774

> <Gold.PLP.part.repulsive>
0.6170

> <Gold.PLP.ligand.clash>
0.0000

> <Gold.PLP.ligand.torsion>
0.1928

> <Gold.PLP.Chemscore.Hbond>
2.8400

> <Gold.PLP.Chemscore.CHOScore>
0.0000

> <Gold.PLP.Chemscore.Metal>
0.0000

> <Gold.Chemscore.Hbonds>
donor molecule, donor type, donor heavy atom, donor atom, acceptor molecule, acceptor atom, score
      L1  H    15    27       P1  7957  0.48
      L1  H    18    31       P1  7957  0.99
      P1  H  7989  7998       L1    15  0.37
      P1  H  8011  8017       L1    15  1.00

> <Gold.PLP.Chemscore.Internal.Correction>
0.0032

> <Gold.Rescore>
     Score         DG    S(hbond)    S(metal)    S(lipo)     H(rot)  DE(clash)    DE(int)     intcor
      4.06      -9.10       2.30        0.00      32.16       3.06       4.77       0.27       ----

> <Gold.Chemscore.Fitness>
4.0610

> <Gold.Chemscore.DG>
-9.0987

> <Gold.Chemscore.ZeroCoef>
-5.4800

> <Gold.Chemscore.Hbond>
2.3028

> <Gold.Chemscore.Metal>
0.0000

> <Gold.Chemscore.Lipo>
32.1600

> <Gold.Chemscore.Internal_Hbond>
0.0000

> <Gold.Chemscore.DEClash>
4.7664

> <Gold.Chemscore.DEInternal>
0.2713

> <Gold.Chemscore.Rot>
3.0607

> <Gold.Chemscore.Internal.Correction>
   9.000000E+99

> <Gold.Chemscore.Hbonds>
donor molecule, donor type, donor heavy atom, donor atom, acceptor molecule, acceptor atom, score
      L1  H    15    27       P1  7957  0.48
      L1  H    18    31       P1  7957  0.92
      P1  H  7989  7998       L1    15  0.28
      P1  H  8011  8017       L1    15  0.45

> <Gold.Chemscore.Hbond.Weighted>
-7.6913

> <Gold.Chemscore.Metal.Weighted>
-0.0000

> <Gold.Chemscore.Lipo.Weighted>
-3.7627

> <Gold.Chemscore.Internal_Hbond.Weighted>
0.0000

> <Gold.Chemscore.DEClash.Weighted>
4.7664

> <Gold.Chemscore.DEInternal.Weighted>
0.2713

> <Gold.Chemscore.Rot.Weighted>
7.8354

> <Gold.Chemscore.Internal.Correction.Weighted>
   9.000000E+99

> <Gold.Protein.RotatedTorsions>
[ 6907 6896 6895 6894 ] final  -34.57 input  -60.11 | X-H torsion
[ 7974 7965 7964 7962 ] final   19.71 input  175.53 | X-H torsion
[ 8008 7997 7996 7995 ] final  -35.52 input   59.86 | X-H torsion
[ 10167 10162 10161 10158 ] final  -97.26 input  -65.29 | X-H torsion
[ 10718 10713 10712 10709 ] final -124.64 input   66.30 | X-H torsion
[ 10763 10752 10751 10750 ] final -111.51 input  -60.55 | X-H torsion
[ 11005 11000 10999 10996 ] final   85.07 input  -57.11 | X-H torsion

> <Gold.Protein.ActiveResidues>
 VAL166  LYS551  ARG553  GLY616  TRP617  ASP618  TYR619  PRO620  LYS621  CYS622 
 ASP623  PHE694  ASN695  SER759  ASP760  ASP761  ALA762  ILE779  LEU786  VAL792 
 PHE793  MET794  SER795  GLU796  ALA797  LYS798  CYS799  TRP800  GLU811  SER814 

> <Gold.Protein.RotatedAtoms>
  151.0509  134.9672  159.8210 H   0  0  0  0  0  0  0  0  0  0  0  0  # atno 6907 bound_to 6896
  152.5380  134.2539  159.8919 H   0  0  0  0  0  0  0  0  0  0  0  0  # atno 6908 bound_to 6896
  151.2554  133.4286  159.2647 H   0  0  0  0  0  0  0  0  0  0  0  0  # atno 6909 bound_to 6896
  146.2139  139.8274  142.8667 H   0  0  0  0  0  0  0  0  0  0  0  0  # atno 7974 bound_to 7965
  154.4094  140.1655  156.2224 H   0  0  0  0  0  0  0  0  0  0  0  0  # atno 8008 bound_to 7997
  155.9352  140.3412  155.6258 H   0  0  0  0  0  0  0  0  0  0  0  0  # atno 8009 bound_to 7997
  155.7057  140.0750  157.2382 H   0  0  0  0  0  0  0  0  0  0  0  0  # atno 8010 bound_to 7997
  140.2852  143.3256  152.0401 H   0  0  0  0  0  0  0  0  0  0  0  0  # atno 10167 bound_to 10162
  156.1605  130.6599  151.0043 H   0  0  0  0  0  0  0  0  0  0  0  0  # atno 10718 bound_to 10713
  154.8304  135.4524  154.1051 H   0  0  0  0  0  0  0  0  0  0  0  0  # atno 10763 bound_to 10752
  153.2329  135.6907  153.7876 H   0  0  0  0  0  0  0  0  0  0  0  0  # atno 10764 bound_to 10752
  153.7252  135.3335  155.3251 H   0  0  0  0  0  0  0  0  0  0  0  0  # atno 10765 bound_to 10752
  139.8982  134.8261  156.2532 H   0  0  0  0  0  0  0  0  0  0  0  0  # atno 11005 bound_to 11000
  145.3032  141.0200  143.3596 LP  0  0  0  0  0  0  0  0  0  0  0  0  # atno 17320 bound_to 7965
  144.8990  139.4674  143.6641 LP  0  0  0  0  0  0  0  0  0  0  0  0  # atno 17321 bound_to 7965
  139.4952  144.6563  151.6564 LP  0  0  0  0  0  0  0  0  0  0  0  0  # atno 17342 bound_to 10162
  140.5778  143.9998  150.6251 LP  0  0  0  0  0  0  0  0  0  0  0  0  # atno 17343 bound_to 10162
  157.6729  131.0857  150.7568 LP  0  0  0  0  0  0  0  0  0  0  0  0  # atno 17370 bound_to 10713
  156.7630  130.4805  149.5433 LP  0  0  0  0  0  0  0  0  0  0  0  0  # atno 17371 bound_to 10713
  141.0210  133.7041  156.1269 LP  0  0  0  0  0  0  0  0  0  0  0  0  # atno 17394 bound_to 11000
  140.7233  134.4334  157.5573 LP  0  0  0  0  0  0  0  0  0  0  0  0  # atno 17395 bound_to 11000

$$$$
