AV-unprocessed.smi:1586|AV-procd|sdf|6377|dock6
  -GOLD-   22720 7 03D 1   1.00000     0.00000
 Structure written by MMmdl.
 46 47  0  0  0  0  0  0  0  0  1 V2000
  152.3141  143.9466  158.6221 C   0  0  0  0  0  0  0  0  0  0  0  0
  150.9170  143.3246  158.7622 C   0  0  0  0  0  0  0  0  0  0  0  0
  150.7150  142.0893  158.0079 N   0  0  0  0  0  0  0  0  0  0  0  0
  151.0058  142.2470  156.5840 C   0  0  0  0  0  0  0  0  0  0  0  0
  150.7852  140.9341  155.8097 C   0  0  0  0  0  0  0  0  0  0  0  0
  151.6192  139.8314  156.3140 N   0  0  0  0  0  0  0  0  0  0  0  0
  151.3932  138.5642  155.5808 C   0  0  2  0  0  0  0  0  0  0  0  0
  152.1778  138.4966  154.2458 C   0  0  0  0  0  0  0  0  0  0  0  0
  149.8904  138.2781  155.2922 C   0  0  0  0  0  0  0  0  0  0  0  0
  149.6567  136.9819  154.6603 N   0  0  0  0  0  0  0  0  0  0  0  0
  149.9344  135.7938  155.2167 C   0  0  0  0  0  0  0  0  0  0  0  0
  150.4173  135.6700  156.3422 O   0  0  0  0  0  0  0  0  0  0  0  0
  149.6195  134.7836  154.3885 N   0  0  0  0  0  0  0  0  0  0  0  0
  149.7640  133.3887  154.6041 C   0  0  0  0  0  0  0  0  0  0  0  0
  149.2475  132.3482  153.7780 C   0  0  0  0  0  0  0  0  0  0  0  0
  149.6607  131.2148  154.4191 C   0  0  0  0  0  0  0  0  0  0  0  0
  149.4869  129.7638  154.1271 C   0  0  0  0  0  0  0  0  0  0  0  0
  150.3653  131.5331  155.5379 O   0  0  0  0  0  0  0  0  0  0  0  0
  150.4268  132.9270  155.6486 N   0  0  0  0  0  0  0  0  0  0  0  0
  151.3450  139.7021  157.7539 C   0  0  0  0  0  0  0  0  0  0  0  0
  151.5670  141.0199  158.5182 C   0  0  0  0  0  0  0  0  0  0  0  0
  152.3536  144.9145  159.1220 H   0  0  0  0  0  0  0  0  0  0  0  0
  152.5704  144.1046  157.5743 H   0  0  0  0  0  0  0  0  0  0  0  0
  153.0861  143.3209  159.0692 H   0  0  0  0  0  0  0  0  0  0  0  0
  150.6959  143.1573  159.8175 H   0  0  0  0  0  0  0  0  0  0  0  0
  150.1945  144.0664  158.4192 H   0  0  0  0  0  0  0  0  0  0  0  0
  150.3632  143.0130  156.1516 H   0  0  0  0  0  0  0  0  0  0  0  0
  152.0338  142.5864  156.4459 H   0  0  0  0  0  0  0  0  0  0  0  0
  149.7309  140.6554  155.8495 H   0  0  0  0  0  0  0  0  0  0  0  0
  151.0170  141.1470  154.7686 H   0  0  0  0  0  0  0  0  0  0  0  0
  151.7621  137.7499  156.2062 H   0  0  0  0  0  0  0  0  0  0  0  0
  151.9659  137.5884  153.6832 H   0  0  0  0  0  0  0  0  0  0  0  0
  153.2558  138.4873  154.4004 H   0  0  0  0  0  0  0  0  0  0  0  0
  151.9357  139.3435  153.6030 H   0  0  0  0  0  0  0  0  0  0  0  0
  149.2867  138.2950  156.1983 H   0  0  0  0  0  0  0  0  0  0  0  0
  149.4852  139.0516  154.6393 H   0  0  0  0  0  0  0  0  0  0  0  0
  149.2608  136.9943  153.7318 H   0  0  0  0  0  0  0  0  0  0  0  0
  149.2291  135.0424  153.4945 H   0  0  0  0  0  0  0  0  0  0  0  0
  148.6712  132.4041  152.8670 H   0  0  0  0  0  0  0  0  0  0  0  0
  149.1138  129.6126  153.1140 H   0  0  0  0  0  0  0  0  0  0  0  0
  148.7768  129.3127  154.8201 H   0  0  0  0  0  0  0  0  0  0  0  0
  150.4348  129.2337  154.2196 H   0  0  0  0  0  0  0  0  0  0  0  0
  150.3230  139.3532  157.9109 H   0  0  0  0  0  0  0  0  0  0  0  0
  152.0043  138.9622  158.2038 H   0  0  0  0  0  0  0  0  0  0  0  0
  152.6167  141.3110  158.4502 H   0  0  0  0  0  0  0  0  0  0  0  0
  151.3581  140.8566  159.5760 H   0  0  0  0  0  0  0  0  0  0  0  0
  1  2  1  0  0  0  0
  1 22  1  0  0  0  0
  1 23  1  0  0  0  0
  1 24  1  0  0  0  0
  2  3  1  0  0  0  0
  2 25  1  0  0  0  0
  2 26  1  0  0  0  0
  3 21  1  0  0  0  0
  3  4  1  0  0  0  0
  4  5  1  0  0  0  0
  4 27  1  0  0  0  0
  4 28  1  0  0  0  0
  5  6  1  0  0  0  0
  5 29  1  0  0  0  0
  5 30  1  0  0  0  0
  6  7  1  0  0  0  0
  6 20  1  0  0  0  0
  7  8  1  0  0  0  0
  7  9  1  0  0  0  0
  7 31  1  0  0  0  0
  8 32  1  0  0  0  0
  8 33  1  0  0  0  0
  8 34  1  0  0  0  0
  9 10  1  0  0  0  0
  9 35  1  0  0  0  0
  9 36  1  0  0  0  0
 10 11  1  0  0  0  0
 10 37  1  0  0  0  0
 11 12  2  0  0  0  0
 11 13  1  0  0  0  0
 13 14  1  0  0  0  0
 13 38  1  0  0  0  0
 14 19  2  0  0  0  0
 14 15  1  0  0  0  0
 15 16  2  0  0  0  0
 15 39  1  0  0  0  0
 16 17  1  0  0  0  0
 16 18  1  0  0  0  0
 17 40  1  0  0  0  0
 17 41  1  0  0  0  0
 17 42  1  0  0  0  0
 18 19  1  0  0  0  0
 20 21  1  0  0  0  0
 20 43  1  0  0  0  0
 20 44  1  0  0  0  0
 21 45  1  0  0  0  0
 21 46  1  0  0  0  0
M  END
> <s_m_source_file>
AV-unprocessed.smi

> <i_m_source_file_index>
1586

> <i_lp_mmshare_version>
43012

> <i_f3d_flags>
0

> <s_epik_input>
W0NIM11bQ0gyXU4xW0NIMl1bQ0gyXU4oW0NIMl1bQ0gyXTEpW0NASF0oW0NIM10pW0NIMl1bTkhdQyg9TylbTkhdYzJbY0hdYyhbQ0gzXSlvbjI=

> <s_epik_cmdline>
J2VwaWtfcHl0aG9uJywgJy1waCcsICc3LjAnLCAnLXRuJywgJzgnLCAnLW1hJywgJzIwMCcsICctbWV0YWxfYmluZGluZycsICctaW1hZScsICc8aW5maWxlLm1hZT4nLCAnLW9tYWUnLCAnPG91dGZpbGUubWFlPic=

> <r_epik_Ionization_Penalty>
2.42597

> <r_epik_Ionization_Penalty_Charging>
0

> <r_epik_Ionization_Penalty_Neutral>
2.42597

> <r_epik_State_Penalty>
1.76326

> <r_epik_Charging_Adjusted_Penalty>
1.76326

> <i_epik_Tot_Q>
0

> <i_epik_Tot_abs_Q>
0

> <r_epik_Metal_State_Penalty>
1.7742

> <b_epik_Metal_Only>
0

> <s_lp_Force_Field>
OPLS_2005

> <r_lp_Energy>
40.1671

> <b_lp_Chiralities_Consistent>
1

> <s_lp_Variant>
AV-unprocessed.smi:1586-5

> <Gold.Version>
5.8.1

> <Gold.Id.Protein>
6NUR|6NUR_protein|mol2

> <Gold.PLP.Fitness>
41.4870

> <Gold.PLP.PLP>
-36.3054

> <Gold.PLP.part.hbond>
-2.0000

> <Gold.PLP.part.metal>
0.0000

> <Gold.PLP.part.buried>
-7.0168

> <Gold.PLP.part.nonpolar>
-27.8105

> <Gold.PLP.part.repulsive>
0.1286

> <Gold.PLP.ligand.clash>
0.0000

> <Gold.PLP.ligand.torsion>
0.4283

> <Gold.PLP.Chemscore.Hbond>
2.0000

> <Gold.PLP.Chemscore.CHOScore>
0.0000

> <Gold.PLP.Chemscore.Metal>
0.0000

> <Gold.Chemscore.Hbonds>
donor molecule, donor type, donor heavy atom, donor atom, acceptor molecule, acceptor atom, score
      L1  H    10    37       P1  7948  1.00
      L1  H    13    38       P1  7948  0.85

> <Gold.PLP.Chemscore.Internal.Correction>
0.0382

> <Gold.Rescore>
     Score         DG    S(hbond)    S(metal)    S(lipo)     H(rot)  DE(clash)    DE(int)     intcor
     14.29     -16.08       1.71        0.00      79.38       1.72       0.10       1.69       ----

> <Gold.Chemscore.Fitness>
14.2943

> <Gold.Chemscore.DG>
-16.0832

> <Gold.Chemscore.ZeroCoef>
-5.4800

> <Gold.Chemscore.Hbond>
1.7106

> <Gold.Chemscore.Metal>
0.0000

> <Gold.Chemscore.Lipo>
79.3794

> <Gold.Chemscore.Internal_Hbond>
0.0000

> <Gold.Chemscore.DEClash>
0.1008

> <Gold.Chemscore.DEInternal>
1.6881

> <Gold.Chemscore.Rot>
1.7178

> <Gold.Chemscore.Internal.Correction>
   9.000000E+99

> <Gold.Chemscore.Hbonds>
donor molecule, donor type, donor heavy atom, donor atom, acceptor molecule, acceptor atom, score
      L1  H    10    37       P1  7948  0.90
      L1  H    13    38       P1  7948  0.14

> <Gold.Chemscore.Hbond.Weighted>
-5.7134

> <Gold.Chemscore.Metal.Weighted>
-0.0000

> <Gold.Chemscore.Lipo.Weighted>
-9.2874

> <Gold.Chemscore.Internal_Hbond.Weighted>
0.0000

> <Gold.Chemscore.DEClash.Weighted>
0.1008

> <Gold.Chemscore.DEInternal.Weighted>
1.6881

> <Gold.Chemscore.Rot.Weighted>
4.3976

> <Gold.Chemscore.Internal.Correction.Weighted>
   9.000000E+99

> <Gold.Protein.RotatedTorsions>
[ 6907 6896 6895 6894 ] final  -35.19 input  -60.11 | X-H torsion
[ 7974 7965 7964 7962 ] final   -8.35 input  175.53 | X-H torsion
[ 8008 7997 7996 7995 ] final -136.61 input   59.86 | X-H torsion
[ 10167 10162 10161 10158 ] final  104.72 input  -65.29 | X-H torsion
[ 10718 10713 10712 10709 ] final -157.73 input   66.30 | X-H torsion
[ 10763 10752 10751 10750 ] final  -83.70 input  -60.55 | X-H torsion
[ 11005 11000 10999 10996 ] final  -51.39 input  -57.11 | X-H torsion

> <Gold.Protein.ActiveResidues>
 VAL166  LYS551  ARG553  GLY616  TRP617  ASP618  TYR619  PRO620  LYS621  CYS622 
 ASP623  PHE694  ASN695  SER759  ASP760  ASP761  ALA762  ILE779  LEU786  VAL792 
 PHE793  MET794  SER795  GLU796  ALA797  LYS798  CYS799  TRP800  GLU811  SER814 

> <Gold.Protein.RotatedAtoms>
  151.0430  134.9620  159.8171 H   0  0  0  0  0  0  0  0  0  0  0  0  # atno 6907 bound_to 6896
  152.5367  134.2634  159.8954 H   0  0  0  0  0  0  0  0  0  0  0  0  # atno 6908 bound_to 6896
  151.2647  133.4242  159.2652 H   0  0  0  0  0  0  0  0  0  0  0  0  # atno 6909 bound_to 6896
  146.2282  140.2455  142.8345 H   0  0  0  0  0  0  0  0  0  0  0  0  # atno 7974 bound_to 7965
  155.3980  140.0504  157.3038 H   0  0  0  0  0  0  0  0  0  0  0  0  # atno 8008 bound_to 7997
  154.5004  140.2154  155.9319 H   0  0  0  0  0  0  0  0  0  0  0  0  # atno 8009 bound_to 7997
  156.1460  140.3145  155.8576 H   0  0  0  0  0  0  0  0  0  0  0  0  # atno 8010 bound_to 7997
  139.7153  144.7069  151.0960 H   0  0  0  0  0  0  0  0  0  0  0  0  # atno 10167 bound_to 10162
  156.5443  130.8577  151.2759 H   0  0  0  0  0  0  0  0  0  0  0  0  # atno 10718 bound_to 10713
  154.5908  135.5547  153.7277 H   0  0  0  0  0  0  0  0  0  0  0  0  # atno 10763 bound_to 10752
  153.0116  135.6343  154.1851 H   0  0  0  0  0  0  0  0  0  0  0  0  # atno 10764 bound_to 10752
  154.1792  135.2888  155.3037 H   0  0  0  0  0  0  0  0  0  0  0  0  # atno 10765 bound_to 10752
  141.0868  133.6641  156.3870 H   0  0  0  0  0  0  0  0  0  0  0  0  # atno 11005 bound_to 11000
  144.9451  140.8120  143.5606 LP  0  0  0  0  0  0  0  0  0  0  0  0  # atno 17320 bound_to 7965
  145.2411  139.2072  143.4992 LP  0  0  0  0  0  0  0  0  0  0  0  0  # atno 17321 bound_to 7965
  140.7742  143.5238  150.9505 LP  0  0  0  0  0  0  0  0  0  0  0  0  # atno 17342 bound_to 10162
  139.8924  143.6937  152.3143 LP  0  0  0  0  0  0  0  0  0  0  0  0  # atno 17343 bound_to 10162
  157.7399  130.9841  150.2346 LP  0  0  0  0  0  0  0  0  0  0  0  0  # atno 17370 bound_to 10713
  156.2943  130.3750  149.7811 LP  0  0  0  0  0  0  0  0  0  0  0  0  # atno 17371 bound_to 10713
  140.5344  134.6181  157.5360 LP  0  0  0  0  0  0  0  0  0  0  0  0  # atno 17394 bound_to 11000
  139.9688  134.7328  156.0084 LP  0  0  0  0  0  0  0  0  0  0  0  0  # atno 17395 bound_to 11000

$$$$
