AV-unprocessed.smi:2356|AV-procd|sdf|9394|dock7
  -GOLD-   2272013 23D 1   1.00000     0.00000
 Structure written by MMmdl.
 53 56  0  0  0  0  0  0  0  0  1 V2000
  155.1537  140.7235  162.4958 C   0  0  0  0  0  0  0  0  0  0  0  0
  154.2732  140.6377  161.2606 C   0  0  0  0  0  0  0  0  0  0  0  0
  153.6761  141.7926  160.8955 N   0  0  0  0  0  0  0  0  0  0  0  0
  152.8689  141.8066  159.8092 C   0  0  0  0  0  0  0  0  0  0  0  0
  152.2680  143.0353  159.4693 N   0  0  0  0  0  0  0  0  0  0  0  0
  152.5734  144.2666  160.1795 C   0  0  0  0  0  0  0  0  0  0  0  0
  151.8468  145.3595  159.3964 C   0  0  0  0  0  0  0  0  0  0  0  0
  151.8757  144.8364  157.9607 C   0  0  0  0  0  0  0  0  0  0  0  0
  151.7967  143.3140  158.1182 C   0  0  0  0  0  0  0  0  0  0  0  0
  152.6397  140.6408  159.0415 C   0  0  0  0  0  0  0  0  0  0  0  0
  153.2623  139.4365  159.4197 C   0  0  0  0  0  0  0  0  0  0  0  0
  154.1098  139.4245  160.5515 C   0  0  0  0  0  0  0  0  0  0  0  0
  154.7631  138.2562  161.0302 N   0  0  0  0  0  0  0  0  0  0  0  0
  154.4009  136.9652  160.8992 C   0  0  0  0  0  0  0  0  0  0  0  0
  153.3800  136.5768  160.3358 O   0  0  0  0  0  0  0  0  0  0  0  0
  155.2812  136.0942  161.4270 N   0  0  0  0  0  0  0  0  0  0  0  0
  155.1972  134.6316  161.4574 C   0  0  1  0  0  0  0  0  0  0  0  0
  156.5223  134.0141  160.9881 C   0  0  0  0  0  0  0  0  0  0  0  0
  156.4818  132.4826  161.1273 C   0  0  0  0  0  0  0  0  0  0  0  0
  156.1774  132.1178  162.4705 O   0  0  0  0  0  0  0  0  0  0  0  0
  154.9006  132.5802  162.9019 C   0  0  1  0  0  0  0  0  0  0  0  0
  154.6357  132.0423  164.2938 C   0  0  0  0  0  0  0  0  0  0  0  0
  153.8227  132.8339  165.2920 C   0  0  0  0  0  0  0  0  0  0  0  0
  155.3090  132.6668  165.4945 C   0  0  0  0  0  0  0  0  0  0  0  0
  154.8859  134.1181  162.8738 C   0  0  0  0  0  0  0  0  0  0  0  0
  156.1933  140.5285  162.2322 H   0  0  0  0  0  0  0  0  0  0  0  0
  154.8425  139.9902  163.2404 H   0  0  0  0  0  0  0  0  0  0  0  0
  155.1036  141.7109  162.9564 H   0  0  0  0  0  0  0  0  0  0  0  0
  152.2392  144.2290  161.2167 H   0  0  0  0  0  0  0  0  0  0  0  0
  153.6509  144.4355  160.1665 H   0  0  0  0  0  0  0  0  0  0  0  0
  150.8139  145.4361  159.7390 H   0  0  0  0  0  0  0  0  0  0  0  0
  152.3122  146.3393  159.5050 H   0  0  0  0  0  0  0  0  0  0  0  0
  151.0731  145.2401  157.3431 H   0  0  0  0  0  0  0  0  0  0  0  0
  152.8246  145.1061  157.4951 H   0  0  0  0  0  0  0  0  0  0  0  0
  152.3934  142.8128  157.3554 H   0  0  0  0  0  0  0  0  0  0  0  0
  150.7665  142.9684  158.0279 H   0  0  0  0  0  0  0  0  0  0  0  0
  151.9949  140.6482  158.1757 H   0  0  0  0  0  0  0  0  0  0  0  0
  153.0640  138.5460  158.8441 H   0  0  0  0  0  0  0  0  0  0  0  0
  155.6665  138.4131  161.4523 H   0  0  0  0  0  0  0  0  0  0  0  0
  156.1121  136.4930  161.8398 H   0  0  0  0  0  0  0  0  0  0  0  0
  154.4139  134.2999  160.7730 H   0  0  0  0  0  0  0  0  0  0  0  0
  156.7251  134.2902  159.9527 H   0  0  0  0  0  0  0  0  0  0  0  0
  157.3477  134.4059  161.5843 H   0  0  0  0  0  0  0  0  0  0  0  0
  155.7451  132.0508  160.4480 H   0  0  0  0  0  0  0  0  0  0  0  0
  157.4485  132.0569  160.8578 H   0  0  0  0  0  0  0  0  0  0  0  0
  154.1318  132.1936  162.2302 H   0  0  0  0  0  0  0  0  0  0  0  0
  154.5187  130.9607  164.3315 H   0  0  0  0  0  0  0  0  0  0  0  0
  153.4650  133.8166  164.9913 H   0  0  0  0  0  0  0  0  0  0  0  0
  153.1591  132.2785  165.9516 H   0  0  0  0  0  0  0  0  0  0  0  0
  155.6385  131.9989  166.2878 H   0  0  0  0  0  0  0  0  0  0  0  0
  155.9403  133.5373  165.3260 H   0  0  0  0  0  0  0  0  0  0  0  0
  155.6235  134.5051  163.5786 H   0  0  0  0  0  0  0  0  0  0  0  0
  153.9157  134.4823  163.2108 H   0  0  0  0  0  0  0  0  0  0  0  0
  1  2  1  0  0  0  0
  1 26  1  0  0  0  0
  1 27  1  0  0  0  0
  1 28  1  0  0  0  0
  2 12  1  0  0  0  0
  2  3  2  0  0  0  0
  3  4  1  0  0  0  0
  4  5  1  0  0  0  0
  4 10  2  0  0  0  0
  5  9  1  0  0  0  0
  5  6  1  0  0  0  0
  6  7  1  0  0  0  0
  6 29  1  0  0  0  0
  6 30  1  0  0  0  0
  7  8  1  0  0  0  0
  7 31  1  0  0  0  0
  7 32  1  0  0  0  0
  8  9  1  0  0  0  0
  8 33  1  0  0  0  0
  8 34  1  0  0  0  0
  9 35  1  0  0  0  0
  9 36  1  0  0  0  0
 10 11  1  0  0  0  0
 10 37  1  0  0  0  0
 11 12  2  0  0  0  0
 11 38  1  0  0  0  0
 12 13  1  0  0  0  0
 13 14  1  0  0  0  0
 13 39  1  0  0  0  0
 14 15  2  0  0  0  0
 14 16  1  0  0  0  0
 16 17  1  0  0  0  0
 16 40  1  0  0  0  0
 17 25  1  0  0  0  0
 17 18  1  0  0  0  0
 17 41  1  0  0  0  0
 18 19  1  0  0  0  0
 18 42  1  0  0  0  0
 18 43  1  0  0  0  0
 19 20  1  0  0  0  0
 19 44  1  0  0  0  0
 19 45  1  0  0  0  0
 20 21  1  0  0  0  0
 21 22  1  0  0  0  0
 21 25  1  0  0  0  0
 21 46  1  0  0  0  0
 22 24  1  0  0  0  0
 22 23  1  0  0  0  0
 22 47  1  0  0  0  0
 23 24  1  0  0  0  0
 23 48  1  0  0  0  0
 23 49  1  0  0  0  0
 24 50  1  0  0  0  0
 24 51  1  0  0  0  0
 25 52  1  0  0  0  0
 25 53  1  0  0  0  0
M  END
> <s_m_source_file>
AV-unprocessed.smi

> <i_m_source_file_index>
2356

> <i_lp_mmshare_version>
43012

> <i_f3d_flags>
0

> <s_epik_input>
W0NIMl0xW0NIMl1bQ0gyXVtDSDJdTjFjKG5jMltDSDNdKVtjSF1bY0hdYzJbTkhdQyg9TylbTkhdW0NAQEhdM1tDSDJdW0NIMl1PW0NASF0oW0NIMl0zKVtDSF00W0NIMl1bQ0gyXTQ=

> <s_epik_cmdline>
J2VwaWtfcHl0aG9uJywgJy1waCcsICc3LjAnLCAnLXRuJywgJzgnLCAnLW1hJywgJzIwMCcsICctbWV0YWxfYmluZGluZycsICctaW1hZScsICc8aW5maWxlLm1hZT4nLCAnLW9tYWUnLCAnPG91dGZpbGUubWFlPic=

> <r_lp_tautomer_probability>
1

> <r_epik_Ionization_Penalty>
0.308781

> <r_epik_Ionization_Penalty_Charging>
0

> <r_epik_Ionization_Penalty_Neutral>
0.308781

> <r_epik_State_Penalty>
0.302092

> <r_epik_Charging_Adjusted_Penalty>
0.302092

> <i_epik_Tot_Q>
0

> <i_epik_Tot_abs_Q>
0

> <r_epik_Metal_State_Penalty>
0.197467

> <b_epik_Metal_Only>
0

> <s_lp_Force_Field>
OPLS_2005

> <r_lp_Energy>
52.5469

> <b_lp_Chiralities_Consistent>
1

> <s_lp_Variant>
AV-unprocessed.smi:2356-2

> <Gold.Version>
5.8.1

> <Gold.Id.Protein>
6NUR|6NUR_protein|mol2

> <Gold.PLP.Fitness>
49.1969

> <Gold.PLP.PLP>
-46.8592

> <Gold.PLP.part.hbond>
-1.0000

> <Gold.PLP.part.metal>
0.0000

> <Gold.PLP.part.buried>
-4.8031

> <Gold.PLP.part.nonpolar>
-40.3983

> <Gold.PLP.part.repulsive>
0.0361

> <Gold.PLP.ligand.clash>
0.0000

> <Gold.PLP.ligand.torsion>
0.9605

> <Gold.PLP.Chemscore.Hbond>
1.0000

> <Gold.PLP.Chemscore.CHOScore>
0.0000

> <Gold.PLP.Chemscore.Metal>
0.0000

> <Gold.Chemscore.Hbonds>
donor molecule, donor type, donor heavy atom, donor atom, acceptor molecule, acceptor atom, score
      P1  H  6896  6907       L1    15  0.98

> <Gold.PLP.Chemscore.Internal.Correction>
1.2588

> <Gold.Rescore>
     Score         DG    S(hbond)    S(metal)    S(lipo)     H(rot)  DE(clash)    DE(int)     intcor
     19.77     -21.80       0.99        0.00     136.26       1.14       0.16       1.87       ----

> <Gold.Chemscore.Fitness>
19.7663

> <Gold.Chemscore.DG>
-21.7995

> <Gold.Chemscore.ZeroCoef>
-5.4800

> <Gold.Chemscore.Hbond>
0.9863

> <Gold.Chemscore.Metal>
0.0000

> <Gold.Chemscore.Lipo>
136.2587

> <Gold.Chemscore.Internal_Hbond>
0.0000

> <Gold.Chemscore.DEClash>
0.1640

> <Gold.Chemscore.DEInternal>
1.8692

> <Gold.Chemscore.Rot>
1.1395

> <Gold.Chemscore.Internal.Correction>
   9.000000E+99

> <Gold.Chemscore.Hbonds>
donor molecule, donor type, donor heavy atom, donor atom, acceptor molecule, acceptor atom, score
      P1  H  6896  6907       L1    15  0.91

> <Gold.Chemscore.Hbond.Weighted>
-3.2944

> <Gold.Chemscore.Metal.Weighted>
-0.0000

> <Gold.Chemscore.Lipo.Weighted>
-15.9423

> <Gold.Chemscore.Internal_Hbond.Weighted>
0.0000

> <Gold.Chemscore.DEClash.Weighted>
0.1640

> <Gold.Chemscore.DEInternal.Weighted>
1.8692

> <Gold.Chemscore.Rot.Weighted>
2.9171

> <Gold.Chemscore.Internal.Correction.Weighted>
   9.000000E+99

> <Gold.Protein.RotatedTorsions>
[ 6907 6896 6895 6894 ] final   29.05 input  -60.11 | X-H torsion
[ 7974 7965 7964 7962 ] final -138.91 input  175.53 | X-H torsion
[ 8008 7997 7996 7995 ] final    4.84 input   59.86 | X-H torsion
[ 10167 10162 10161 10158 ] final -118.15 input  -65.29 | X-H torsion
[ 10718 10713 10712 10709 ] final -105.17 input   66.30 | X-H torsion
[ 10763 10752 10751 10750 ] final  -90.48 input  -60.55 | X-H torsion
[ 11005 11000 10999 10996 ] final -153.38 input  -57.11 | X-H torsion

> <Gold.Protein.ActiveResidues>
 VAL166  LYS551  ARG553  GLY616  TRP617  ASP618  TYR619  PRO620  LYS621  CYS622 
 ASP623  PHE694  ASN695  SER759  ASP760  ASP761  ALA762  ILE779  LEU786  VAL792 
 PHE793  MET794  SER795  GLU796  ALA797  LYS798  CYS799  TRP800  GLU811  SER814 

> <Gold.Protein.RotatedAtoms>
  152.0259  134.9796  160.0571 H   0  0  0  0  0  0  0  0  0  0  0  0  # atno 6907 bound_to 6896
  152.1291  133.4393  159.4720 H   0  0  0  0  0  0  0  0  0  0  0  0  # atno 6908 bound_to 6896
  150.6855  134.2360  159.4497 H   0  0  0  0  0  0  0  0  0  0  0  0  # atno 6909 bound_to 6896
  144.8720  140.6380  143.5261 H   0  0  0  0  0  0  0  0  0  0  0  0  # atno 7974 bound_to 7965
  154.7209  140.2711  155.6542 H   0  0  0  0  0  0  0  0  0  0  0  0  # atno 8008 bound_to 7997
  156.2823  140.2734  156.1805 H   0  0  0  0  0  0  0  0  0  0  0  0  # atno 8009 bound_to 7997
  155.0508  140.0371  157.2533 H   0  0  0  0  0  0  0  0  0  0  0  0  # atno 8010 bound_to 7997
  140.0606  143.4971  152.2033 H   0  0  0  0  0  0  0  0  0  0  0  0  # atno 10167 bound_to 10162
  156.0335  130.5550  150.7501 H   0  0  0  0  0  0  0  0  0  0  0  0  # atno 10718 bound_to 10713
  154.6661  135.5303  153.8079 H   0  0  0  0  0  0  0  0  0  0  0  0  # atno 10763 bound_to 10752
  153.0472  135.6517  154.0796 H   0  0  0  0  0  0  0  0  0  0  0  0  # atno 10764 bound_to 10752
  154.0700  135.2955  155.3289 H   0  0  0  0  0  0  0  0  0  0  0  0  # atno 10765 bound_to 10752
  140.7088  134.3856  157.5200 H   0  0  0  0  0  0  0  0  0  0  0  0  # atno 11005 bound_to 11000
  145.4113  139.1579  143.4124 LP  0  0  0  0  0  0  0  0  0  0  0  0  # atno 17320 bound_to 7965
  146.2937  140.4217  142.8730 LP  0  0  0  0  0  0  0  0  0  0  0  0  # atno 17321 bound_to 7965
  139.5896  144.7545  151.3434 LP  0  0  0  0  0  0  0  0  0  0  0  0  # atno 17342 bound_to 10162
  140.7173  143.7230  150.7681 LP  0  0  0  0  0  0  0  0  0  0  0  0  # atno 17343 bound_to 10162
  157.5047  131.0921  151.0271 LP  0  0  0  0  0  0  0  0  0  0  0  0  # atno 17370 bound_to 10713
  157.0643  130.5838  149.5391 LP  0  0  0  0  0  0  0  0  0  0  0  0  # atno 17371 bound_to 10713
  139.8877  134.8875  156.2514 LP  0  0  0  0  0  0  0  0  0  0  0  0  # atno 17394 bound_to 11000
  141.0102  133.7100  156.1099 LP  0  0  0  0  0  0  0  0  0  0  0  0  # atno 17395 bound_to 11000

$$$$
