AV-unprocessed.smi:1669|AV-procd|sdf|6690|dock1
  -GOLD-   22720 7413D 1   1.00000     0.00000
 Structure written by MMmdl.
 49 51  0  0  0  0  0  0  0  0  3 V2000
  145.9914  137.9506  150.5471 C   0  0  0  0  0  0  0  0  0  0  0  0
  146.1701  137.5763  151.9722 N   0  3  2  0  0  0  0  0  0  0  0  0
  145.0968  136.6762  152.4662 C   0  0  0  0  0  0  0  0  0  0  0  0
  145.0993  135.3338  151.7561 C   0  0  0  0  0  0  0  0  0  0  0  0
  146.1324  134.4017  151.9928 C   0  0  0  0  0  0  0  0  0  0  0  0
  146.1277  133.1580  151.3318 C   0  0  0  0  0  0  0  0  0  0  0  0
  145.0922  132.8423  150.4312 C   0  0  0  0  0  0  0  0  0  0  0  0
  144.0609  133.7705  150.1907 C   0  0  0  0  0  0  0  0  0  0  0  0
  144.0647  135.0145  150.8512 C   0  0  0  0  0  0  0  0  0  0  0  0
  146.3694  138.7540  152.8578 C   0  0  0  0  0  0  0  0  0  0  0  0
  147.4133  138.4946  153.9627 C   0  0  2  0  0  0  0  0  0  0  0  0
  146.9170  139.0070  155.1842 O   0  0  0  0  0  0  0  0  0  0  0  0
  148.7704  139.1519  153.6382 C   0  0  0  0  0  0  0  0  0  0  0  0
  149.0699  140.3025  154.5068 N   0  0  0  0  0  0  0  0  0  0  0  0
  148.4587  141.5204  154.5885 C   0  0  0  0  0  0  0  0  0  0  0  0
  147.2850  141.9902  153.7892 C   0  0  0  0  0  0  0  0  0  0  0  0
  146.8993  143.3118  154.1011 O   0  0  0  0  0  0  0  0  0  0  0  0
  149.1118  142.2351  155.5483 N   0  3  0  0  0  0  0  0  0  0  0  0
  150.1491  141.4728  156.0846 C   0  0  0  0  0  0  0  0  0  0  0  0
  151.0806  141.7723  157.0738 C   0  0  0  0  0  0  0  0  0  0  0  0
  152.0143  140.7639  157.3897 C   0  0  0  0  0  0  0  0  0  0  0  0
  151.9973  139.5167  156.7327 C   0  0  0  0  0  0  0  0  0  0  0  0
  151.0469  139.2244  155.7324 C   0  0  0  0  0  0  0  0  0  0  0  0
  150.1274  140.2274  155.4233 C   0  0  0  0  0  0  0  0  0  0  0  0
  145.0658  138.5095  150.4040 H   0  0  0  0  0  0  0  0  0  0  0  0
  145.9557  137.0682  149.9087 H   0  0  0  0  0  0  0  0  0  0  0  0
  146.8153  138.5641  150.1859 H   0  0  0  0  0  0  0  0  0  0  0  0
  145.2334  136.4762  153.5299 H   0  0  0  0  0  0  0  0  0  0  0  0
  144.1249  137.1620  152.3642 H   0  0  0  0  0  0  0  0  0  0  0  0
  146.9302  134.6360  152.6825 H   0  0  0  0  0  0  0  0  0  0  0  0
  146.9191  132.4461  151.5150 H   0  0  0  0  0  0  0  0  0  0  0  0
  145.0896  131.8888  149.9238 H   0  0  0  0  0  0  0  0  0  0  0  0
  143.2674  133.5283  149.4991 H   0  0  0  0  0  0  0  0  0  0  0  0
  143.2706  135.7222  150.6621 H   0  0  0  0  0  0  0  0  0  0  0  0
  146.6568  139.6141  152.2507 H   0  0  0  0  0  0  0  0  0  0  0  0
  145.4290  139.0268  153.3393 H   0  0  0  0  0  0  0  0  0  0  0  0
  147.5721  137.4244  154.0890 H   0  0  0  0  0  0  0  0  0  0  0  0
  147.6034  139.4983  155.6093 H   0  0  0  0  0  0  0  0  0  0  0  0
  149.5749  138.4287  153.7772 H   0  0  0  0  0  0  0  0  0  0  0  0
  148.8241  139.4623  152.5945 H   0  0  0  0  0  0  0  0  0  0  0  0
  147.5194  141.9384  152.7261 H   0  0  0  0  0  0  0  0  0  0  0  0
  146.4426  141.3218  153.9688 H   0  0  0  0  0  0  0  0  0  0  0  0
  147.6191  143.7413  154.5383 H   0  0  0  0  0  0  0  0  0  0  0  0
  151.0951  142.7273  157.5783 H   0  0  0  0  0  0  0  0  0  0  0  0
  152.7578  140.9509  158.1511 H   0  0  0  0  0  0  0  0  0  0  0  0
  152.7291  138.7686  157.0014 H   0  0  0  0  0  0  0  0  0  0  0  0
  151.0485  138.2654  155.2370 H   0  0  0  0  0  0  0  0  0  0  0  0
  147.0246  137.0403  152.0312 H   0  0  0  0  0  0  0  0  0  0  0  0
  148.8623  143.1802  155.8109 H   0  0  0  0  0  0  0  0  0  0  0  0
  1  2  1  0  0  0  0
  1 25  1  0  0  0  0
  1 26  1  0  0  0  0
  1 27  1  0  0  0  0
  2  3  1  0  0  0  0
  2 10  1  0  0  0  0
  2 48  1  0  0  0  0
  3  4  1  0  0  0  0
  3 28  1  0  0  0  0
  3 29  1  0  0  0  0
  4  9  1  0  0  0  0
  4  5  2  0  0  0  0
  5  6  1  0  0  0  0
  5 30  1  0  0  0  0
  6  7  2  0  0  0  0
  6 31  1  0  0  0  0
  7  8  1  0  0  0  0
  7 32  1  0  0  0  0
  8  9  2  0  0  0  0
  8 33  1  0  0  0  0
  9 34  1  0  0  0  0
 10 11  1  0  0  0  0
 10 35  1  0  0  0  0
 10 36  1  0  0  0  0
 11 12  1  0  0  0  0
 11 13  1  0  0  0  0
 11 37  1  0  0  0  0
 12 38  1  0  0  0  0
 13 14  1  0  0  0  0
 13 39  1  0  0  0  0
 13 40  1  0  0  0  0
 14 24  1  0  0  0  0
 14 15  1  0  0  0  0
 15 16  1  0  0  0  0
 15 18  2  0  0  0  0
 16 17  1  0  0  0  0
 16 41  1  0  0  0  0
 16 42  1  0  0  0  0
 17 43  1  0  0  0  0
 18 19  1  0  0  0  0
 18 49  1  0  0  0  0
 19 24  2  0  0  0  0
 19 20  1  0  0  0  0
 20 21  2  0  0  0  0
 20 44  1  0  0  0  0
 21 22  1  0  0  0  0
 21 45  1  0  0  0  0
 22 23  2  0  0  0  0
 22 46  1  0  0  0  0
 23 24  1  0  0  0  0
 23 47  1  0  0  0  0
M  CHG  1   2   1
M  CHG  1  18   1
M  END
> <s_m_source_file>
AV-unprocessed.smi

> <i_m_source_file_index>
1669

> <i_lp_mmshare_version>
43012

> <i_f3d_flags>
0

> <s_epik_input>
W2NIXTFbY0hdW2NIXVtjSF1bY0hdYzFbQ0gyXU4oW0NIM10pW0NIMl1bQ0BIXShbT0hdKVtDSDJdbihjKG4yKVtDSDJdW09IXSljKGMyMylbY0hdW2NIXVtjSF1bY0hdMw==

> <s_epik_cmdline>
J2VwaWtfcHl0aG9uJywgJy1waCcsICc3LjAnLCAnLXRuJywgJzgnLCAnLW1hJywgJzIwMCcsICctbWV0YWxfYmluZGluZycsICctaW1hZScsICc8aW5maWxlLm1hZT4nLCAnLW9tYWUnLCAnPG91dGZpbGUubWFlPic=

> <r_epik_Ionization_Penalty>
1.57484

> <r_epik_Ionization_Penalty_Charging>
1.57398

> <r_epik_Ionization_Penalty_Neutral>
0.000858917

> <r_epik_State_Penalty>
1.64997

> <r_epik_Charging_Adjusted_Penalty>
3.22395

> <i_epik_Tot_Q>
2

> <i_epik_Tot_abs_Q>
2

> <r_epik_Metal_State_Penalty>
5.70481

> <b_epik_Metal_Only>
0

> <s_lp_Force_Field>
OPLS_2005

> <r_lp_Energy>
22.9184

> <b_lp_Chiralities_Consistent>
1

> <s_lp_Variant>
AV-unprocessed.smi:1669-8

> <Gold.Version>
5.8.1

> <Gold.Id.Protein>
6NUR|6NUR_protein|mol2

> <Gold.PLP.Fitness>
54.6051

> <Gold.PLP.PLP>
-42.7457

> <Gold.PLP.part.hbond>
-4.0000

> <Gold.PLP.part.metal>
0.0000

> <Gold.PLP.part.buried>
3.9994

> <Gold.PLP.part.nonpolar>
-42.5281

> <Gold.PLP.part.repulsive>
0.2201

> <Gold.PLP.ligand.clash>
0.0000

> <Gold.PLP.ligand.torsion>
1.9667

> <Gold.PLP.Chemscore.Hbond>
5.0000

> <Gold.PLP.Chemscore.CHOScore>
0.0000

> <Gold.PLP.Chemscore.Metal>
0.0000

> <Gold.Chemscore.Hbonds>
donor molecule, donor type, donor heavy atom, donor atom, acceptor molecule, acceptor atom, score
      L1  H     2    48       P1  7948  1.76
      L1  H    17    43       P1  8028  0.90
      L1  H    18    49       P1  8028  2.00

> <Gold.PLP.Chemscore.Internal.Correction>
0.7927

> <Gold.Rescore>
     Score         DG    S(hbond)    S(metal)    S(lipo)     H(rot)  DE(clash)    DE(int)     intcor
     13.07     -19.40       2.53        0.00     118.38       3.27       3.32       3.01       ----

> <Gold.Chemscore.Fitness>
13.0691

> <Gold.Chemscore.DG>
-19.3973

> <Gold.Chemscore.ZeroCoef>
-5.4800

> <Gold.Chemscore.Hbond>
2.5276

> <Gold.Chemscore.Metal>
0.0000

> <Gold.Chemscore.Lipo>
118.3839

> <Gold.Chemscore.Internal_Hbond>
0.0000

> <Gold.Chemscore.DEClash>
3.3194

> <Gold.Chemscore.DEInternal>
3.0089

> <Gold.Chemscore.Rot>
3.2718

> <Gold.Chemscore.Internal.Correction>
   9.000000E+99

> <Gold.Chemscore.Hbonds>
donor molecule, donor type, donor heavy atom, donor atom, acceptor molecule, acceptor atom, score
      L1  H     2    48       P1  7948  0.86
      L1  H    17    43       P1  8028  0.18
      L1  H    18    49       P1  8028  0.92

> <Gold.Chemscore.Hbond.Weighted>
-8.4423

> <Gold.Chemscore.Metal.Weighted>
-0.0000

> <Gold.Chemscore.Lipo.Weighted>
-13.8509

> <Gold.Chemscore.Internal_Hbond.Weighted>
0.0000

> <Gold.Chemscore.DEClash.Weighted>
3.3194

> <Gold.Chemscore.DEInternal.Weighted>
3.0089

> <Gold.Chemscore.Rot.Weighted>
8.3759

> <Gold.Chemscore.Internal.Correction.Weighted>
   9.000000E+99

> <Gold.Protein.RotatedTorsions>
[ 6907 6896 6895 6894 ] final  164.03 input  -60.11 | X-H torsion
[ 7974 7965 7964 7962 ] final  -13.39 input  175.53 | X-H torsion
[ 8008 7997 7996 7995 ] final -107.81 input   59.86 | X-H torsion
[ 10167 10162 10161 10158 ] final    7.46 input  -65.29 | X-H torsion
[ 10718 10713 10712 10709 ] final  -38.83 input   66.30 | X-H torsion
[ 10763 10752 10751 10750 ] final  -67.75 input  -60.55 | X-H torsion
[ 11005 11000 10999 10996 ] final  -12.29 input  -57.11 | X-H torsion

> <Gold.Protein.ActiveResidues>
 VAL166  LYS551  ARG553  GLY616  TRP617  ASP618  TYR619  PRO620  LYS621  CYS622 
 ASP623  PHE694  ASN695  SER759  ASP760  ASP761  ALA762  ILE779  LEU786  VAL792 
 PHE793  MET794  SER795  GLU796  ALA797  LYS798  CYS799  TRP800  GLU811  SER814 

> <Gold.Protein.RotatedAtoms>
  151.9161  133.3573  159.3880 H   0  0  0  0  0  0  0  0  0  0  0  0  # atno 6907 bound_to 6896
  150.7047  134.4682  159.5422 H   0  0  0  0  0  0  0  0  0  0  0  0  # atno 6908 bound_to 6896
  152.2297  134.8333  160.0526 H   0  0  0  0  0  0  0  0  0  0  0  0  # atno 6909 bound_to 6896
  146.2116  140.3196  142.8389 H   0  0  0  0  0  0  0  0  0  0  0  0  # atno 7974 bound_to 7965
  154.9349  140.0404  157.2067 H   0  0  0  0  0  0  0  0  0  0  0  0  # atno 8008 bound_to 7997
  154.8125  140.2870  155.5821 H   0  0  0  0  0  0  0  0  0  0  0  0  # atno 8009 bound_to 7997
  156.2973  140.2534  156.3016 H   0  0  0  0  0  0  0  0  0  0  0  0  # atno 8010 bound_to 7997
  140.6371  143.7862  150.7374 H   0  0  0  0  0  0  0  0  0  0  0  0  # atno 10167 bound_to 10162
  156.2994  130.4238  149.8159 H   0  0  0  0  0  0  0  0  0  0  0  0  # atno 10718 bound_to 10713
  154.3790  135.6078  153.5780 H   0  0  0  0  0  0  0  0  0  0  0  0  # atno 10763 bound_to 10752
  152.9788  135.5856  154.4433 H   0  0  0  0  0  0  0  0  0  0  0  0  # atno 10764 bound_to 10752
  154.4199  135.2845  155.1960 H   0  0  0  0  0  0  0  0  0  0  0  0  # atno 10765 bound_to 10752
  140.7642  133.8491  155.9150 H   0  0  0  0  0  0  0  0  0  0  0  0  # atno 11005 bound_to 11000
  144.8929  140.7546  143.5915 LP  0  0  0  0  0  0  0  0  0  0  0  0  # atno 17320 bound_to 7965
  145.3120  139.1816  143.4634 LP  0  0  0  0  0  0  0  0  0  0  0  0  # atno 17321 bound_to 7965
  140.1485  143.4378  152.2147 LP  0  0  0  0  0  0  0  0  0  0  0  0  # atno 17342 bound_to 10162
  139.5581  144.7386  151.4236 LP  0  0  0  0  0  0  0  0  0  0  0  0  # atno 17343 bound_to 10162
  156.5542  130.8355  151.3309 LP  0  0  0  0  0  0  0  0  0  0  0  0  # atno 17370 bound_to 10713
  157.7364  130.9778  150.2133 LP  0  0  0  0  0  0  0  0  0  0  0  0  # atno 17371 bound_to 10713
  140.9635  134.1625  157.4635 LP  0  0  0  0  0  0  0  0  0  0  0  0  # atno 17394 bound_to 11000
  139.8766  134.9953  156.5738 LP  0  0  0  0  0  0  0  0  0  0  0  0  # atno 17395 bound_to 11000

$$$$
