AV-unprocessed.smi:36|AV-procd|sdf|282|dock1
  -GOLD-   2262016 53D 1   1.00000     0.00000
 Structure written by MMmdl.
 64 67  0  0  0  0  0  0  0  0  1 V2000
  155.1140  128.5141  166.5506 C   0  0  0  0  0  0  0  0  0  0  0  0
  155.2548  129.6830  165.5607 C   0  0  0  0  0  0  0  0  0  0  0  0
  155.5111  130.9828  166.3423 C   0  0  0  0  0  0  0  0  0  0  0  0
  156.4291  129.4165  164.6041 C   0  0  0  0  0  0  0  0  0  0  0  0
  153.6409  129.8328  164.5386 Si  0  0  0  0  0  0  0  0  0  0  0  0
  153.4650  128.3457  163.3696 C   0  0  0  0  0  0  0  0  0  0  0  0
  152.1170  129.9449  165.6694 C   0  0  0  0  0  0  0  0  0  0  0  0
  153.7125  131.2239  163.5750 O   0  0  0  0  0  0  0  0  0  0  0  0
  153.9190  132.5279  164.0790 C   0  0  0  0  0  0  0  0  0  0  0  0
  154.2543  133.4759  162.9180 C   0  0  1  0  0  0  0  0  0  0  0  0
  154.8730  134.6680  163.3898 O   0  0  0  0  0  0  0  0  0  0  0  0
  155.7119  135.1987  162.4061 C   0  0  2  0  0  0  0  0  0  0  0  0
  155.1607  136.5182  161.9791 N   0  0  0  0  0  0  0  0  0  0  0  0
  154.1723  137.2776  162.5676 C   0  0  0  0  0  0  0  0  0  0  0  0
  153.8964  138.4011  161.9604 N   0  0  0  0  0  0  0  0  0  0  0  0
  154.7573  138.4149  160.8699 C   0  0  0  0  0  0  0  0  0  0  0  0
  154.9896  139.3295  159.8093 C   0  0  0  0  0  0  0  0  0  0  0  0
  154.2759  140.4771  159.7302 N   0  0  0  0  0  0  0  0  0  0  0  0
  153.9869  141.4272  160.7902 C   0  0  0  0  0  0  0  0  0  0  0  0
  154.4398  141.2968  161.9278 O   0  0  0  0  0  0  0  0  0  0  0  0
  153.1615  142.6201  160.4027 C   0  0  0  0  0  0  0  0  0  0  0  0
  152.4725  143.3540  161.3946 C   0  0  0  0  0  0  0  0  0  0  0  0
  151.6803  144.4634  161.0405 C   0  0  0  0  0  0  0  0  0  0  0  0
  151.5646  144.8447  159.6905 C   0  0  0  0  0  0  0  0  0  0  0  0
  152.2384  144.1134  158.6945 C   0  0  0  0  0  0  0  0  0  0  0  0
  153.0307  143.0033  159.0473 C   0  0  0  0  0  0  0  0  0  0  0  0
  155.9355  138.9951  158.8921 N   0  0  0  0  0  0  0  0  0  0  0  0
  156.6104  137.8475  159.0075 C   0  0  0  0  0  0  0  0  0  0  0  0
  156.4997  136.9053  159.9466 N   0  0  0  0  0  0  0  0  0  0  0  0
  155.5514  137.2348  160.8701 C   0  0  0  0  0  0  0  0  0  0  0  0
  155.7198  134.2256  161.2216 C   0  0  0  0  0  0  0  0  0  0  0  0
  155.2190  132.9420  161.8522 C   0  0  1  0  0  0  0  0  0  0  0  0
  156.2885  132.2051  162.4137 O   0  0  0  0  0  0  0  0  0  0  0  0
  156.0153  128.3936  167.1526 H   0  0  0  0  0  0  0  0  0  0  0  0
  154.9401  127.5708  166.0323 H   0  0  0  0  0  0  0  0  0  0  0  0
  154.2804  128.6724  167.2354 H   0  0  0  0  0  0  0  0  0  0  0  0
  154.6722  131.2300  166.9930 H   0  0  0  0  0  0  0  0  0  0  0  0
  155.6752  131.8274  165.6755 H   0  0  0  0  0  0  0  0  0  0  0  0
  156.3973  130.8954  166.9721 H   0  0  0  0  0  0  0  0  0  0  0  0
  157.3714  129.3320  165.1467 H   0  0  0  0  0  0  0  0  0  0  0  0
  156.5386  130.2222  163.8776 H   0  0  0  0  0  0  0  0  0  0  0  0
  156.2870  128.4899  164.0476 H   0  0  0  0  0  0  0  0  0  0  0  0
  153.3845  127.4086  163.9199 H   0  0  0  0  0  0  0  0  0  0  0  0
  154.3203  128.2579  162.6998 H   0  0  0  0  0  0  0  0  0  0  0  0
  152.5746  128.4324  162.7474 H   0  0  0  0  0  0  0  0  0  0  0  0
  152.0220  129.0623  166.3013 H   0  0  0  0  0  0  0  0  0  0  0  0
  151.1973  130.0300  165.0908 H   0  0  0  0  0  0  0  0  0  0  0  0
  152.1657  130.8119  166.3279 H   0  0  0  0  0  0  0  0  0  0  0  0
  153.0071  132.8603  164.5754 H   0  0  0  0  0  0  0  0  0  0  0  0
  154.7057  132.5329  164.8323 H   0  0  0  0  0  0  0  0  0  0  0  0
  153.3271  133.7719  162.4245 H   0  0  0  0  0  0  0  0  0  0  0  0
  156.6995  135.4072  162.8192 H   0  0  0  0  0  0  0  0  0  0  0  0
  153.6598  136.9727  163.4681 H   0  0  0  0  0  0  0  0  0  0  0  0
  153.8690  140.6836  158.8297 H   0  0  0  0  0  0  0  0  0  0  0  0
  152.5490  143.0732  162.4352 H   0  0  0  0  0  0  0  0  0  0  0  0
  151.1603  145.0208  161.8055 H   0  0  0  0  0  0  0  0  0  0  0  0
  150.9564  145.6949  159.4192 H   0  0  0  0  0  0  0  0  0  0  0  0
  152.1453  144.4023  157.6580 H   0  0  0  0  0  0  0  0  0  0  0  0
  153.5309  142.4514  158.2648 H   0  0  0  0  0  0  0  0  0  0  0  0
  157.3438  137.6580  158.2377 H   0  0  0  0  0  0  0  0  0  0  0  0
  155.0152  134.5643  160.4600 H   0  0  0  0  0  0  0  0  0  0  0  0
  156.7111  134.1521  160.7732 H   0  0  0  0  0  0  0  0  0  0  0  0
  154.7080  132.3071  161.1278 H   0  0  0  0  0  0  0  0  0  0  0  0
  157.0263  132.2530  161.8248 H   0  0  0  0  0  0  0  0  0  0  0  0
  1  2  1  0  0  0  0
  1 34  1  0  0  0  0
  1 35  1  0  0  0  0
  1 36  1  0  0  0  0
  2  3  1  0  0  0  0
  2  4  1  0  0  0  0
  2  5  1  0  0  0  0
  3 37  1  0  0  0  0
  3 38  1  0  0  0  0
  3 39  1  0  0  0  0
  4 40  1  0  0  0  0
  4 41  1  0  0  0  0
  4 42  1  0  0  0  0
  5  6  1  0  0  0  0
  5  7  1  0  0  0  0
  5  8  1  0  0  0  0
  6 43  1  0  0  0  0
  6 44  1  0  0  0  0
  6 45  1  0  0  0  0
  7 46  1  0  0  0  0
  7 47  1  0  0  0  0
  7 48  1  0  0  0  0
  8  9  1  0  0  0  0
  9 10  1  0  0  0  0
  9 49  1  0  0  0  0
  9 50  1  0  0  0  0
 10 32  1  0  0  0  0
 10 11  1  0  0  0  0
 10 51  1  0  0  0  0
 11 12  1  0  0  0  0
 12 13  1  0  0  0  0
 12 31  1  0  0  0  0
 12 52  1  0  0  0  0
 13 30  1  0  0  0  0
 13 14  1  0  0  0  0
 14 15  2  0  0  0  0
 14 53  1  0  0  0  0
 15 16  1  0  0  0  0
 16 30  2  0  0  0  0
 16 17  1  0  0  0  0
 17 18  1  0  0  0  0
 17 27  2  0  0  0  0
 18 19  1  0  0  0  0
 18 54  1  0  0  0  0
 19 20  2  0  0  0  0
 19 21  1  0  0  0  0
 21 26  1  0  0  0  0
 21 22  2  0  0  0  0
 22 23  1  0  0  0  0
 22 55  1  0  0  0  0
 23 24  2  0  0  0  0
 23 56  1  0  0  0  0
 24 25  1  0  0  0  0
 24 57  1  0  0  0  0
 25 26  2  0  0  0  0
 25 58  1  0  0  0  0
 26 59  1  0  0  0  0
 27 28  1  0  0  0  0
 28 29  2  0  0  0  0
 28 60  1  0  0  0  0
 29 30  1  0  0  0  0
 31 32  1  0  0  0  0
 31 61  1  0  0  0  0
 31 62  1  0  0  0  0
 32 33  1  0  0  0  0
 32 63  1  0  0  0  0
 33 64  1  0  0  0  0
M  END
> <s_m_source_file>
AV-unprocessed.smi

> <i_m_source_file_index>
36

> <i_lp_mmshare_version>
43012

> <i_f3d_flags>
0

> <s_epik_input>
W0NIM11DKFtDSDNdKShbQ0gzXSlbU2ldKFtDSDNdKShbQ0gzXSlPW0NIMl1bQ0BASF0xT1tDQEhdKFtDSDJdW0NASF0xW09IXSluKFtjSF1uMiljKGMyMyluW2NIXW5jM1tOSF1DKD1PKWM0W2NIXVtjSF1bY0hdW2NIXVtjSF00

> <s_epik_cmdline>
J2VwaWtfcHl0aG9uJywgJy1waCcsICc3LjAnLCAnLXRuJywgJzgnLCAnLW1hJywgJzIwMCcsICctbWV0YWxfYmluZGluZycsICctaW1hZScsICc8aW5maWxlLm1hZT4nLCAnLW9tYWUnLCAnPG91dGZpbGUubWFlPic=

> <r_lp_tautomer_probability>
1

> <r_epik_Ionization_Penalty>
0.00150433

> <r_epik_Ionization_Penalty_Charging>
0

> <r_epik_Ionization_Penalty_Neutral>
0.00150433

> <r_epik_State_Penalty>
0.00724046

> <r_epik_Charging_Adjusted_Penalty>
0.00724046

> <i_epik_Tot_Q>
0

> <i_epik_Tot_abs_Q>
0

> <r_epik_Metal_State_Penalty>
0.323355

> <b_epik_Metal_Only>
0

> <s_epik_Chemistry_Notes>
This compound contains an acetal/aminal-like group ( X-CH(R)-Y where X, Y are N, S, or O) that may be acid/base labile, releasing an aldehyde.

> <s_lp_Force_Field>
OPLS_2005

> <r_lp_Energy>
37.9666

> <b_lp_Chiralities_Consistent>
1

> <s_lp_Variant>
AV-unprocessed.smi:36-4

> <Gold.Version>
5.8.1

> <Gold.Id.Protein>
6NUR|6NUR_protein|mol2

> <Gold.PLP.Fitness>
51.2764

> <Gold.PLP.PLP>
-50.2848

> <Gold.PLP.part.hbond>
-2.0000

> <Gold.PLP.part.metal>
0.0000

> <Gold.PLP.part.buried>
-5.6152

> <Gold.PLP.part.nonpolar>
-43.3474

> <Gold.PLP.part.repulsive>
0.1490

> <Gold.PLP.ligand.clash>
0.0000

> <Gold.PLP.ligand.torsion>
1.1643

> <Gold.PLP.Chemscore.Hbond>
1.0000

> <Gold.PLP.Chemscore.CHOScore>
0.0000

> <Gold.PLP.Chemscore.Metal>
0.0000

> <Gold.Chemscore.Hbonds>
donor molecule, donor type, donor heavy atom, donor atom, acceptor molecule, acceptor atom, score
      P1  H  7997  8008       L1    27  1.00

> <Gold.PLP.Chemscore.Internal.Correction>
0.3201

> <Gold.Rescore>
     Score         DG    S(hbond)    S(metal)    S(lipo)     H(rot)  DE(clash)    DE(int)     intcor
     13.40     -14.97       0.89        0.00     114.73       2.70       0.30       1.27       ----

> <Gold.Chemscore.Fitness>
13.4004

> <Gold.Chemscore.DG>
-14.9667

> <Gold.Chemscore.ZeroCoef>
-5.4800

> <Gold.Chemscore.Hbond>
0.8939

> <Gold.Chemscore.Metal>
0.0000

> <Gold.Chemscore.Lipo>
114.7317

> <Gold.Chemscore.Internal_Hbond>
0.0000

> <Gold.Chemscore.DEClash>
0.2989

> <Gold.Chemscore.DEInternal>
1.2675

> <Gold.Chemscore.Rot>
2.7041

> <Gold.Chemscore.Internal.Correction>
   9.000000E+99

> <Gold.Chemscore.Hbonds>
donor molecule, donor type, donor heavy atom, donor atom, acceptor molecule, acceptor atom, score
      P1  H  7997  8008       L1    27  0.60

> <Gold.Chemscore.Hbond.Weighted>
-2.9856

> <Gold.Chemscore.Metal.Weighted>
-0.0000

> <Gold.Chemscore.Lipo.Weighted>
-13.4236

> <Gold.Chemscore.Internal_Hbond.Weighted>
0.0000

> <Gold.Chemscore.DEClash.Weighted>
0.2989

> <Gold.Chemscore.DEInternal.Weighted>
1.2675

> <Gold.Chemscore.Rot.Weighted>
6.9225

> <Gold.Chemscore.Internal.Correction.Weighted>
   9.000000E+99

> <Gold.Protein.RotatedTorsions>
[ 6907 6896 6895 6894 ] final -161.38 input  -60.11 | X-H torsion
[ 7974 7965 7964 7962 ] final   88.78 input  175.53 | X-H torsion
[ 8008 7997 7996 7995 ] final -148.15 input   59.86 | X-H torsion
[ 10167 10162 10161 10158 ] final  155.60 input  -65.29 | X-H torsion
[ 10718 10713 10712 10709 ] final   38.12 input   66.30 | X-H torsion
[ 10763 10752 10751 10750 ] final   67.25 input  -60.55 | X-H torsion
[ 11005 11000 10999 10996 ] final   -8.10 input  -57.11 | X-H torsion

> <Gold.Protein.ActiveResidues>
 VAL166  LYS551  ARG553  GLY616  TRP617  ASP618  TYR619  PRO620  LYS621  CYS622 
 ASP623  PHE694  ASN695  SER759  ASP760  ASP761  ALA762  ILE779  LEU786  VAL792 
 PHE793  MET794  SER795  GLU796  ALA797  LYS798  CYS799  TRP800  GLU811  SER814 

> <Gold.Protein.RotatedAtoms>
  151.3638  133.3879  159.2692 H   0  0  0  0  0  0  0  0  0  0  0  0  # atno 6907 bound_to 6896
  150.9704  134.9079  159.7795 H   0  0  0  0  0  0  0  0  0  0  0  0  # atno 6908 bound_to 6896
  152.5182  134.3600  159.9333 H   0  0  0  0  0  0  0  0  0  0  0  0  # atno 6909 bound_to 6896
  145.5411  139.2289  143.2565 H   0  0  0  0  0  0  0  0  0  0  0  0  # atno 7974 bound_to 7965
  155.5869  140.0649  157.2769 H   0  0  0  0  0  0  0  0  0  0  0  0  # atno 8008 bound_to 7997
  154.4316  140.1842  156.1081 H   0  0  0  0  0  0  0  0  0  0  0  0  # atno 8009 bound_to 7997
  156.0262  140.3311  155.7095 H   0  0  0  0  0  0  0  0  0  0  0  0  # atno 8010 bound_to 7997
  139.4821  144.5084  151.8063 H   0  0  0  0  0  0  0  0  0  0  0  0  # atno 10167 bound_to 10162
  157.3551  130.7619  149.7006 H   0  0  0  0  0  0  0  0  0  0  0  0  # atno 10718 bound_to 10713
  153.0177  135.5291  154.6950 H   0  0  0  0  0  0  0  0  0  0  0  0  # atno 10763 bound_to 10752
  154.6074  135.2874  155.0471 H   0  0  0  0  0  0  0  0  0  0  0  0  # atno 10764 bound_to 10752
  154.1506  135.6563  153.5015 H   0  0  0  0  0  0  0  0  0  0  0  0  # atno 10765 bound_to 10752
  140.7198  133.8838  155.8812 H   0  0  0  0  0  0  0  0  0  0  0  0  # atno 11005 bound_to 11000
  146.1980  140.6231  142.9115 LP  0  0  0  0  0  0  0  0  0  0  0  0  # atno 17320 bound_to 7965
  144.7576  140.5346  143.6758 LP  0  0  0  0  0  0  0  0  0  0  0  0  # atno 17321 bound_to 7965
  140.4584  144.1757  150.5904 LP  0  0  0  0  0  0  0  0  0  0  0  0  # atno 17342 bound_to 10162
  140.4511  143.2486  151.9347 LP  0  0  0  0  0  0  0  0  0  0  0  0  # atno 17343 bound_to 10162
  155.9728  130.4129  150.4058 LP  0  0  0  0  0  0  0  0  0  0  0  0  # atno 17370 bound_to 10713
  157.2127  131.0464  151.2590 LP  0  0  0  0  0  0  0  0  0  0  0  0  # atno 17371 bound_to 10713
  141.0013  134.1147  157.4314 LP  0  0  0  0  0  0  0  0  0  0  0  0  # atno 17394 bound_to 11000
  139.8851  135.0069  156.6411 LP  0  0  0  0  0  0  0  0  0  0  0  0  # atno 17395 bound_to 11000

$$$$
