AV-unprocessed.smi:21|AV-procd|sdf|126|dock7
  -GOLD-   2262015303D 1   1.00000     0.00000
 Structure written by MMmdl.
 62 65  0  0  0  0  0  0  0  0  2 V2000
  154.0707  142.2642  164.0460 C   0  0  0  0  0  0  0  0  0  0  0  0
  154.9294  141.4989  163.2160 O   0  0  0  0  0  0  0  0  0  0  0  0
  154.2762  140.9431  162.0845 C   0  0  2  0  0  0  0  0  0  0  0  0
  155.2688  140.7271  160.9472 C   0  0  0  0  0  0  0  0  0  0  0  0
  154.4193  140.7753  159.6636 C   0  0  1  0  0  0  0  0  0  0  0  0
  154.1281  139.3812  159.0596 C   0  0  0  0  0  0  0  0  0  0  0  0
  152.7090  139.1344  158.7947 N   0  0  0  0  0  0  0  0  0  0  0  0
  151.9683  138.2545  159.6957 C   0  0  0  0  0  0  0  0  0  0  0  0
  152.2191  139.3502  157.5410 C   0  0  0  0  0  0  0  0  0  0  0  0
  152.9437  138.9205  156.4730 N   0  0  0  0  0  0  0  0  0  0  0  0
  152.5366  139.1704  155.2258 C   0  0  0  0  0  0  0  0  0  0  0  0
  151.4547  139.8353  154.8210 N   0  0  0  0  0  0  0  0  0  0  0  0
  150.7084  140.2534  155.8815 C   0  0  0  0  0  0  0  0  0  0  0  0
  151.0011  140.0404  157.2594 C   0  0  0  0  0  0  0  0  0  0  0  0
  149.9882  140.5915  158.0381 N   0  0  0  0  0  0  0  0  0  0  0  0
  149.1647  141.1215  157.1769 C   0  0  0  0  0  0  0  0  0  0  0  0
  149.5447  141.0018  155.8608 N   0  0  0  0  0  0  0  0  0  0  0  0
  148.8482  141.5352  154.7052 C   0  0  0  0  0  0  0  0  0  0  0  0
  147.4355  140.9293  154.4666 C   0  0  1  0  0  0  0  0  0  0  0  0
  146.4962  142.0358  153.9279 C   0  0  0  0  0  0  0  0  0  0  0  0
  146.5149  143.1773  154.7601 O   0  0  0  0  0  0  0  0  0  0  0  0
  147.4440  139.6796  153.5318 C   0  0  2  0  0  0  0  0  0  0  0  0
  147.2734  139.9814  152.0496 C   0  0  0  0  0  0  0  0  0  0  0  0
  146.8603  138.6307  151.4840 C   0  0  0  0  0  0  0  0  0  0  0  0
  146.0117  138.0759  152.4760 O   0  0  0  0  0  0  0  0  0  0  0  0
  146.2922  138.6774  153.7356 C   0  0  0  0  0  0  0  0  0  0  0  0
  153.1452  141.4346  160.0444 N   0  3  2  0  0  0  0  0  0  0  0  0
  152.6946  142.4877  159.1089 C   0  0  0  0  0  0  0  0  0  0  0  0
  153.2595  141.8869  161.4455 C   0  0  0  0  0  0  0  0  0  0  0  0
  153.8059  139.9894  162.3326 H   0  0  0  0  0  0  0  0  0  0  0  0
  154.9367  141.3997  158.9338 H   0  0  0  0  0  0  0  0  0  0  0  0
  154.6305  142.6362  164.9040 H   0  0  0  0  0  0  0  0  0  0  0  0
  153.2442  141.6600  164.4221 H   0  0  0  0  0  0  0  0  0  0  0  0
  153.6627  143.1252  163.5161 H   0  0  0  0  0  0  0  0  0  0  0  0
  155.9850  141.5501  160.9294 H   0  0  0  0  0  0  0  0  0  0  0  0
  155.8399  139.8078  161.0679 H   0  0  0  0  0  0  0  0  0  0  0  0
  154.6890  139.2717  158.1308 H   0  0  0  0  0  0  0  0  0  0  0  0
  154.5124  138.5949  159.7070 H   0  0  0  0  0  0  0  0  0  0  0  0
  150.9340  138.5871  159.7906 H   0  0  0  0  0  0  0  0  0  0  0  0
  152.4065  138.2545  160.6938 H   0  0  0  0  0  0  0  0  0  0  0  0
  151.9663  137.2278  159.3282 H   0  0  0  0  0  0  0  0  0  0  0  0
  153.1767  138.7958  154.4403 H   0  0  0  0  0  0  0  0  0  0  0  0
  148.2703  141.6451  157.4821 H   0  0  0  0  0  0  0  0  0  0  0  0
  148.7849  142.6147  154.8442 H   0  0  0  0  0  0  0  0  0  0  0  0
  149.4714  141.3778  153.8241 H   0  0  0  0  0  0  0  0  0  0  0  0
  147.0307  140.6129  155.4288 H   0  0  0  0  0  0  0  0  0  0  0  0
  146.7757  142.3228  152.9138 H   0  0  0  0  0  0  0  0  0  0  0  0
  145.4608  141.7000  153.8925 H   0  0  0  0  0  0  0  0  0  0  0  0
  147.4139  143.4332  154.9007 H   0  0  0  0  0  0  0  0  0  0  0  0
  148.3907  139.1506  153.6546 H   0  0  0  0  0  0  0  0  0  0  0  0
  146.4755  140.7098  151.8955 H   0  0  0  0  0  0  0  0  0  0  0  0
  148.1812  140.3595  151.5787 H   0  0  0  0  0  0  0  0  0  0  0  0
  146.3543  138.7116  150.5217 H   0  0  0  0  0  0  0  0  0  0  0  0
  147.7309  137.9850  151.3605 H   0  0  0  0  0  0  0  0  0  0  0  0
  146.5423  137.9017  154.4571 H   0  0  0  0  0  0  0  0  0  0  0  0
  145.3853  139.1781  154.0759 H   0  0  0  0  0  0  0  0  0  0  0  0
  153.4142  143.3064  159.0594 H   0  0  0  0  0  0  0  0  0  0  0  0
  151.7342  142.8936  159.4274 H   0  0  0  0  0  0  0  0  0  0  0  0
  152.5706  142.0803  158.1054 H   0  0  0  0  0  0  0  0  0  0  0  0
  152.2930  141.8749  161.9499 H   0  0  0  0  0  0  0  0  0  0  0  0
  153.6425  142.9088  161.4709 H   0  0  0  0  0  0  0  0  0  0  0  0
  152.4442  140.7074  160.0396 H   0  0  0  0  0  0  0  0  0  0  0  0
  1  2  1  0  0  0  0
  1 32  1  0  0  0  0
  1 33  1  0  0  0  0
  1 34  1  0  0  0  0
  2  3  1  0  0  0  0
  3 30  1  0  0  0  0
  3 29  1  0  0  0  0
  3  4  1  0  0  0  0
  4  5  1  0  0  0  0
  4 35  1  0  0  0  0
  4 36  1  0  0  0  0
  5 31  1  0  0  0  0
  5  6  1  0  0  0  0
  5 27  1  0  0  0  0
  6  7  1  0  0  0  0
  6 37  1  0  0  0  0
  6 38  1  0  0  0  0
  7  8  1  0  0  0  0
  7  9  1  0  0  0  0
  8 39  1  0  0  0  0
  8 40  1  0  0  0  0
  8 41  1  0  0  0  0
  9 14  1  0  0  0  0
  9 10  2  0  0  0  0
 10 11  1  0  0  0  0
 11 12  2  0  0  0  0
 11 42  1  0  0  0  0
 12 13  1  0  0  0  0
 13 17  1  0  0  0  0
 13 14  2  0  0  0  0
 14 15  1  0  0  0  0
 15 16  2  0  0  0  0
 16 17  1  0  0  0  0
 16 43  1  0  0  0  0
 17 18  1  0  0  0  0
 18 19  1  0  0  0  0
 18 44  1  0  0  0  0
 18 45  1  0  0  0  0
 19 20  1  0  0  0  0
 19 22  1  0  0  0  0
 19 46  1  0  0  0  0
 20 21  1  0  0  0  0
 20 47  1  0  0  0  0
 20 48  1  0  0  0  0
 21 49  1  0  0  0  0
 22 26  1  0  0  0  0
 22 23  1  0  0  0  0
 22 50  1  0  0  0  0
 23 24  1  0  0  0  0
 23 51  1  0  0  0  0
 23 52  1  0  0  0  0
 24 25  1  0  0  0  0
 24 53  1  0  0  0  0
 24 54  1  0  0  0  0
 25 26  1  0  0  0  0
 26 55  1  0  0  0  0
 26 56  1  0  0  0  0
 27 28  1  0  0  0  0
 27 29  1  0  0  0  0
 27 62  1  0  0  0  0
 28 57  1  0  0  0  0
 28 58  1  0  0  0  0
 28 59  1  0  0  0  0
 29 60  1  0  0  0  0
 29 61  1  0  0  0  0
M  CHG  1  27   1
M  END
> <s_m_source_file>
AV-unprocessed.smi

> <i_m_source_file_index>
21

> <i_lp_mmshare_version>
43012

> <i_f3d_flags>
0

> <s_epik_input>
W0NIM11PW0NASF0xW0NIMl1bQ0BIXShOKFtDSDNdKVtDSDJdMSlbQ0gyXU4oW0NIM10pYyhuW2NIXW4yKWMoYzIzKW5bY0hdbjNbQ0gyXVtDQEhdKFtDSDJdW09IXSlbQ0BASF00W0NIMl1bQ0gyXU9bQ0gyXTQ=

> <s_epik_cmdline>
J2VwaWtfcHl0aG9uJywgJy1waCcsICc3LjAnLCAnLXRuJywgJzgnLCAnLW1hJywgJzIwMCcsICctbWV0YWxfYmluZGluZycsICctaW1hZScsICc8aW5maWxlLm1hZT4nLCAnLW9tYWUnLCAnPG91dGZpbGUubWFlPic=

> <r_lp_tautomer_probability>
1

> <r_epik_Ionization_Penalty>
0.0157465

> <r_epik_Ionization_Penalty_Charging>
0.015354

> <r_epik_Ionization_Penalty_Neutral>
0.000392529

> <r_epik_State_Penalty>
0.0120612

> <r_epik_Charging_Adjusted_Penalty>
0.0274152

> <i_epik_Tot_Q>
1

> <i_epik_Tot_abs_Q>
1

> <r_epik_Metal_State_Penalty>
0.0121253

> <b_epik_Metal_Only>
0

> <s_lp_Force_Field>
OPLS_2005

> <r_lp_Energy>
57.6991

> <b_lp_Chiralities_Consistent>
1

> <s_lp_Variant>
AV-unprocessed.smi:21-6

> <Gold.Version>
5.8.1

> <Gold.Id.Protein>
6NUR|6NUR_protein|mol2

> <Gold.PLP.Fitness>
50.6242

> <Gold.PLP.PLP>
-48.2817

> <Gold.PLP.part.hbond>
-3.7991

> <Gold.PLP.part.metal>
0.0000

> <Gold.PLP.part.buried>
6.1199

> <Gold.PLP.part.nonpolar>
-48.8255

> <Gold.PLP.part.repulsive>
0.4275

> <Gold.PLP.ligand.clash>
0.0000

> <Gold.PLP.ligand.torsion>
3.3159

> <Gold.PLP.Chemscore.Hbond>
2.7511

> <Gold.PLP.Chemscore.CHOScore>
0.0000

> <Gold.PLP.Chemscore.Metal>
0.0000

> <Gold.Chemscore.Hbonds>
donor molecule, donor type, donor heavy atom, donor atom, acceptor molecule, acceptor atom, score
      L1  H    21    49       P1  8028  0.81
      P1  H  7989  7998       L1    12  1.00
      P1  H  7997  8008       L1    10  0.90

> <Gold.PLP.Chemscore.Internal.Correction>
0.7208

> <Gold.Rescore>
     Score         DG    S(hbond)    S(metal)    S(lipo)     H(rot)  DE(clash)    DE(int)     intcor
      8.44     -15.29       0.91        0.00     125.22       3.08       3.67       3.19       ----

> <Gold.Chemscore.Fitness>
8.4352

> <Gold.Chemscore.DG>
-15.2946

> <Gold.Chemscore.ZeroCoef>
-5.4800

> <Gold.Chemscore.Hbond>
0.9094

> <Gold.Chemscore.Metal>
0.0000

> <Gold.Chemscore.Lipo>
125.2244

> <Gold.Chemscore.Internal_Hbond>
0.0000

> <Gold.Chemscore.DEClash>
3.6721

> <Gold.Chemscore.DEInternal>
3.1873

> <Gold.Chemscore.Rot>
3.0758

> <Gold.Chemscore.Internal.Correction>
   9.000000E+99

> <Gold.Chemscore.Hbonds>
donor molecule, donor type, donor heavy atom, donor atom, acceptor molecule, acceptor atom, score
      L1  H    21    49       P1  8028  0.13
      P1  H  7989  7998       L1    12  0.89
      P1  H  7997  8008       L1    10  0.05

> <Gold.Chemscore.Hbond.Weighted>
-3.0375

> <Gold.Chemscore.Metal.Weighted>
-0.0000

> <Gold.Chemscore.Lipo.Weighted>
-14.6513

> <Gold.Chemscore.Internal_Hbond.Weighted>
0.0000

> <Gold.Chemscore.DEClash.Weighted>
3.6721

> <Gold.Chemscore.DEInternal.Weighted>
3.1873

> <Gold.Chemscore.Rot.Weighted>
7.8741

> <Gold.Chemscore.Internal.Correction.Weighted>
   9.000000E+99

> <Gold.Protein.RotatedTorsions>
[ 6907 6896 6895 6894 ] final  -32.86 input  -60.11 | X-H torsion
[ 7974 7965 7964 7962 ] final   60.16 input  175.53 | X-H torsion
[ 8008 7997 7996 7995 ] final  -54.23 input   59.86 | X-H torsion
[ 10167 10162 10161 10158 ] final   25.78 input  -65.29 | X-H torsion
[ 10718 10713 10712 10709 ] final -161.41 input   66.30 | X-H torsion
[ 10763 10752 10751 10750 ] final  -45.85 input  -60.55 | X-H torsion
[ 11005 11000 10999 10996 ] final  -49.92 input  -57.11 | X-H torsion

> <Gold.Protein.ActiveResidues>
 VAL166  LYS551  ARG553  GLY616  TRP617  ASP618  TYR619  PRO620  LYS621  CYS622 
 ASP623  PHE694  ASN695  SER759  ASP760  ASP761  ALA762  ILE779  LEU786  VAL792 
 PHE793  MET794  SER795  GLU796  ALA797  LYS798  CYS799  TRP800  GLU811  SER814 

> <Gold.Protein.RotatedAtoms>
  151.0731  134.9811  159.8318 H   0  0  0  0  0  0  0  0  0  0  0  0  # atno 6907 bound_to 6896
  152.5411  134.2274  159.8821 H   0  0  0  0  0  0  0  0  0  0  0  0  # atno 6908 bound_to 6896
  151.2300  133.4412  159.2637 H   0  0  0  0  0  0  0  0  0  0  0  0  # atno 6909 bound_to 6896
  145.8991  139.3568  143.0603 H   0  0  0  0  0  0  0  0  0  0  0  0  # atno 7974 bound_to 7965
  154.4156  140.1181  156.5282 H   0  0  0  0  0  0  0  0  0  0  0  0  # atno 8008 bound_to 7997
  155.6632  140.3496  155.4771 H   0  0  0  0  0  0  0  0  0  0  0  0  # atno 8009 bound_to 7997
  155.9695  140.1138  157.0814 H   0  0  0  0  0  0  0  0  0  0  0  0  # atno 8010 bound_to 7997
  140.5078  144.0211  150.6359 H   0  0  0  0  0  0  0  0  0  0  0  0  # atno 10167 bound_to 10162
  156.5959  130.8790  151.2902 H   0  0  0  0  0  0  0  0  0  0  0  0  # atno 10718 bound_to 10713
  154.0354  135.6651  153.4784 H   0  0  0  0  0  0  0  0  0  0  0  0  # atno 10763 bound_to 10752
  153.0523  135.5077  154.7893 H   0  0  0  0  0  0  0  0  0  0  0  0  # atno 10764 bound_to 10752
  154.6852  135.3052  154.9523 H   0  0  0  0  0  0  0  0  0  0  0  0  # atno 10765 bound_to 10752
  141.0787  133.6659  156.3656 H   0  0  0  0  0  0  0  0  0  0  0  0  # atno 11005 bound_to 11000
  145.8813  140.9361  143.0600 LP  0  0  0  0  0  0  0  0  0  0  0  0  # atno 17320 bound_to 7965
  144.6735  140.0783  143.7470 LP  0  0  0  0  0  0  0  0  0  0  0  0  # atno 17321 bound_to 7965
  140.3525  143.2955  152.0472 LP  0  0  0  0  0  0  0  0  0  0  0  0  # atno 17342 bound_to 10162
  139.4888  144.6363  151.6968 LP  0  0  0  0  0  0  0  0  0  0  0  0  # atno 17343 bound_to 10162
  157.7292  130.9667  150.1776 LP  0  0  0  0  0  0  0  0  0  0  0  0  # atno 17370 bound_to 10713
  156.2510  130.3700  149.8232 LP  0  0  0  0  0  0  0  0  0  0  0  0  # atno 17371 bound_to 10713
  140.5517  134.6021  157.5409 LP  0  0  0  0  0  0  0  0  0  0  0  0  # atno 17394 bound_to 11000
  139.9600  134.7469  156.0258 LP  0  0  0  0  0  0  0  0  0  0  0  0  # atno 17395 bound_to 11000

$$$$
