AV-unprocessed.smi:1302|AV-procd|sdf|5425|dock3
  -GOLD-   22720 4583D 1   1.00000     0.00000
 Structure written by MMmdl.
 43 44  0  0  0  0  0  0  0  0  1 V2000
  151.0654  133.4716  156.1666 C   0  0  0  0  0  0  0  0  0  0  0  0
  149.8787  134.4471  156.1240 C   0  0  0  0  0  0  0  0  0  0  0  0
  149.2774  134.5468  154.7160 C   0  0  0  0  0  0  0  0  0  0  0  0
  150.2948  135.7735  156.5697 N   0  0  0  0  0  0  0  0  0  0  0  0
  150.9687  136.6691  155.8288 C   0  0  0  0  0  0  0  0  0  0  0  0
  151.3431  136.4559  154.6753 O   0  0  0  0  0  0  0  0  0  0  0  0
  151.3075  137.9580  156.5200 C   0  0  0  0  0  0  0  0  0  0  0  0
  151.6005  139.1188  155.7745 C   0  0  0  0  0  0  0  0  0  0  0  0
  151.8903  140.3170  156.4548 C   0  0  0  0  0  0  0  0  0  0  0  0
  151.8743  140.3300  157.8696 C   0  0  0  0  0  0  0  0  0  0  0  0
  152.1650  141.5195  158.5724 N   0  0  0  0  0  0  0  0  0  0  0  0
  152.3731  141.3693  160.0101 C   0  0  0  0  0  0  0  0  0  0  0  0
  152.9867  142.6523  160.6021 C   0  0  2  0  0  0  0  0  0  0  0  0
  153.1045  142.5816  162.1282 C   0  0  0  0  0  0  0  0  0  0  0  0
  152.1614  143.7650  160.2691 O   0  0  0  0  0  0  0  0  0  0  0  0
  152.0599  143.9658  158.8622 C   0  0  2  0  0  0  0  0  0  0  0  0
  151.2369  145.2342  158.6152 C   0  0  0  0  0  0  0  0  0  0  0  0
  151.4147  142.7235  158.2212 C   0  0  0  0  0  0  0  0  0  0  0  0
  151.5741  139.2176  158.5844 N   0  0  0  0  0  0  0  0  0  0  0  0
  151.2976  138.0712  157.9280 C   0  0  0  0  0  0  0  0  0  0  0  0
  150.7633  132.4750  155.8439 H   0  0  0  0  0  0  0  0  0  0  0  0
  151.4675  133.3809  157.1762 H   0  0  0  0  0  0  0  0  0  0  0  0
  151.8745  133.8015  155.5139 H   0  0  0  0  0  0  0  0  0  0  0  0
  149.0991  134.0742  156.7908 H   0  0  0  0  0  0  0  0  0  0  0  0
  148.9314  133.5729  154.3684 H   0  0  0  0  0  0  0  0  0  0  0  0
  150.0082  134.9164  153.9958 H   0  0  0  0  0  0  0  0  0  0  0  0
  148.4222  135.2236  154.7011 H   0  0  0  0  0  0  0  0  0  0  0  0
  150.0516  136.0303  157.5155 H   0  0  0  0  0  0  0  0  0  0  0  0
  151.6056  139.0996  154.6941 H   0  0  0  0  0  0  0  0  0  0  0  0
  152.1044  141.2095  155.8861 H   0  0  0  0  0  0  0  0  0  0  0  0
  151.4118  141.1600  160.4814 H   0  0  0  0  0  0  0  0  0  0  0  0
  153.0257  140.5271  160.2362 H   0  0  0  0  0  0  0  0  0  0  0  0
  153.9832  142.8088  160.1847 H   0  0  0  0  0  0  0  0  0  0  0  0
  153.7413  141.7515  162.4347 H   0  0  0  0  0  0  0  0  0  0  0  0
  152.1279  142.4445  162.5933 H   0  0  0  0  0  0  0  0  0  0  0  0
  153.5381  143.4985  162.5281 H   0  0  0  0  0  0  0  0  0  0  0  0
  153.0588  144.1156  158.4486 H   0  0  0  0  0  0  0  0  0  0  0  0
  151.1374  145.4360  157.5483 H   0  0  0  0  0  0  0  0  0  0  0  0
  151.7113  146.1017  159.0745 H   0  0  0  0  0  0  0  0  0  0  0  0
  150.2343  145.1419  159.0340 H   0  0  0  0  0  0  0  0  0  0  0  0
  151.3897  142.8478  157.1377 H   0  0  0  0  0  0  0  0  0  0  0  0
  150.3840  142.6159  158.5622 H   0  0  0  0  0  0  0  0  0  0  0  0
  151.0576  137.2249  158.5551 H   0  0  0  0  0  0  0  0  0  0  0  0
  1  2  1  0  0  0  0
  1 21  1  0  0  0  0
  1 22  1  0  0  0  0
  1 23  1  0  0  0  0
  2  3  1  0  0  0  0
  2  4  1  0  0  0  0
  2 24  1  0  0  0  0
  3 25  1  0  0  0  0
  3 26  1  0  0  0  0
  3 27  1  0  0  0  0
  4  5  1  0  0  0  0
  4 28  1  0  0  0  0
  5  6  2  0  0  0  0
  5  7  1  0  0  0  0
  7 20  1  0  0  0  0
  7  8  2  0  0  0  0
  8  9  1  0  0  0  0
  8 29  1  0  0  0  0
  9 10  2  0  0  0  0
  9 30  1  0  0  0  0
 10 11  1  0  0  0  0
 10 19  1  0  0  0  0
 11 18  1  0  0  0  0
 11 12  1  0  0  0  0
 12 13  1  0  0  0  0
 12 31  1  0  0  0  0
 12 32  1  0  0  0  0
 13 14  1  0  0  0  0
 13 15  1  0  0  0  0
 13 33  1  0  0  0  0
 14 34  1  0  0  0  0
 14 35  1  0  0  0  0
 14 36  1  0  0  0  0
 15 16  1  0  0  0  0
 16 17  1  0  0  0  0
 16 18  1  0  0  0  0
 16 37  1  0  0  0  0
 17 38  1  0  0  0  0
 17 39  1  0  0  0  0
 17 40  1  0  0  0  0
 18 41  1  0  0  0  0
 18 42  1  0  0  0  0
 19 20  2  0  0  0  0
 20 43  1  0  0  0  0
M  END
> <s_m_source_file>
AV-unprocessed.smi

> <i_m_source_file_index>
1302

> <i_lp_mmshare_version>
43012

> <i_f3d_flags>
0

> <s_epik_input>
W0NIM11bQ0hdKFtDSDNdKVtOSF1DKD1PKWMxW2NIXVtjSF1jKG5bY0hdMSlOMltDSDJdW0NAQEhdKFtDSDNdKU9bQ0BASF0oW0NIM10pW0NIMl0y

> <s_epik_cmdline>
J2VwaWtfcHl0aG9uJywgJy1waCcsICc3LjAnLCAnLXRuJywgJzgnLCAnLW1hJywgJzIwMCcsICctbWV0YWxfYmluZGluZycsICctaW1hZScsICc8aW5maWxlLm1hZT4nLCAnLW9tYWUnLCAnPG91dGZpbGUubWFlPic=

> <r_lp_tautomer_probability>
1

> <r_epik_Ionization_Penalty>
2.23089e-05

> <r_epik_Ionization_Penalty_Charging>
0

> <r_epik_Ionization_Penalty_Neutral>
2.23089e-05

> <r_epik_State_Penalty>
-0

> <r_epik_Charging_Adjusted_Penalty>
0

> <i_epik_Tot_Q>
0

> <i_epik_Tot_abs_Q>
0

> <r_epik_Metal_State_Penalty>
-0

> <b_epik_Metal_Only>
0

> <s_lp_Force_Field>
OPLS_2005

> <r_lp_Energy>
16.9164

> <b_lp_Chiralities_Consistent>
1

> <s_lp_Variant>
AV-unprocessed.smi:1302-1

> <Gold.Version>
5.8.1

> <Gold.Id.Protein>
6NUR|6NUR_protein|mol2

> <Gold.PLP.Fitness>
39.1069

> <Gold.PLP.PLP>
-36.9543

> <Gold.PLP.part.hbond>
-1.0000

> <Gold.PLP.part.metal>
0.0000

> <Gold.PLP.part.buried>
-6.5674

> <Gold.PLP.part.nonpolar>
-29.5728

> <Gold.PLP.part.repulsive>
0.3137

> <Gold.PLP.ligand.clash>
0.0000

> <Gold.PLP.ligand.torsion>
0.5932

> <Gold.PLP.Chemscore.Hbond>
1.0000

> <Gold.PLP.Chemscore.CHOScore>
0.0000

> <Gold.PLP.Chemscore.Metal>
0.0000

> <Gold.Chemscore.Hbonds>
donor molecule, donor type, donor heavy atom, donor atom, acceptor molecule, acceptor atom, score
      P1  H 10752 10763       L1     6  1.00

> <Gold.PLP.Chemscore.Internal.Correction>
0.3390

> <Gold.Rescore>
     Score         DG    S(hbond)    S(metal)    S(lipo)     H(rot)  DE(clash)    DE(int)     intcor
     16.21     -17.99       1.00        0.00     103.64       1.15       0.03       1.75       ----

> <Gold.Chemscore.Fitness>
16.2098

> <Gold.Chemscore.DG>
-17.9898

> <Gold.Chemscore.ZeroCoef>
-5.4800

> <Gold.Chemscore.Hbond>
0.9969

> <Gold.Chemscore.Metal>
0.0000

> <Gold.Chemscore.Lipo>
103.6427

> <Gold.Chemscore.Internal_Hbond>
0.0000

> <Gold.Chemscore.DEClash>
0.0297

> <Gold.Chemscore.DEInternal>
1.7503

> <Gold.Chemscore.Rot>
1.1508

> <Gold.Chemscore.Internal.Correction>
   9.000000E+99

> <Gold.Chemscore.Hbonds>
donor molecule, donor type, donor heavy atom, donor atom, acceptor molecule, acceptor atom, score
      P1  H 10752 10763       L1     6  0.94

> <Gold.Chemscore.Hbond.Weighted>
-3.3297

> <Gold.Chemscore.Metal.Weighted>
-0.0000

> <Gold.Chemscore.Lipo.Weighted>
-12.1262

> <Gold.Chemscore.Internal_Hbond.Weighted>
0.0000

> <Gold.Chemscore.DEClash.Weighted>
0.0297

> <Gold.Chemscore.DEInternal.Weighted>
1.7503

> <Gold.Chemscore.Rot.Weighted>
2.9461

> <Gold.Chemscore.Internal.Correction.Weighted>
   9.000000E+99

> <Gold.Protein.RotatedTorsions>
[ 6907 6896 6895 6894 ] final  -30.83 input  -60.11 | X-H torsion
[ 7974 7965 7964 7962 ] final   91.25 input  175.53 | X-H torsion
[ 8008 7997 7996 7995 ] final  -24.67 input   59.86 | X-H torsion
[ 10167 10162 10161 10158 ] final  100.38 input  -65.29 | X-H torsion
[ 10718 10713 10712 10709 ] final  -83.05 input   66.30 | X-H torsion
[ 10763 10752 10751 10750 ] final   52.98 input  -60.55 | X-H torsion
[ 11005 11000 10999 10996 ] final -136.14 input  -57.11 | X-H torsion

> <Gold.Protein.ActiveResidues>
 VAL166  LYS551  ARG553  GLY616  TRP617  ASP618  TYR619  PRO620  LYS621  CYS622 
 ASP623  PHE694  ASN695  SER759  ASP760  ASP761  ALA762  ILE779  LEU786  VAL792 
 PHE793  MET794  SER795  GLU796  ALA797  LYS798  CYS799  TRP800  GLU811  SER814 

> <Gold.Protein.RotatedAtoms>
  151.1002  134.9968  159.8444 H   0  0  0  0  0  0  0  0  0  0  0  0  # atno 6907 bound_to 6896
  152.5436  134.1959  159.8703 H   0  0  0  0  0  0  0  0  0  0  0  0  # atno 6908 bound_to 6896
  151.2001  133.4571  159.2629 H   0  0  0  0  0  0  0  0  0  0  0  0  # atno 6909 bound_to 6896
  145.5082  139.2276  143.2739 H   0  0  0  0  0  0  0  0  0  0  0  0  # atno 7974 bound_to 7965
  154.4517  140.1947  156.0500 H   0  0  0  0  0  0  0  0  0  0  0  0  # atno 8008 bound_to 7997
  156.0661  140.3290  155.7492 H   0  0  0  0  0  0  0  0  0  0  0  0  # atno 8009 bound_to 7997
  155.5336  140.0580  157.2875 H   0  0  0  0  0  0  0  0  0  0  0  0  # atno 8010 bound_to 7997
  139.7532  144.6977  151.0401 H   0  0  0  0  0  0  0  0  0  0  0  0  # atno 10167 bound_to 10162
  156.0024  130.4653  150.4198 H   0  0  0  0  0  0  0  0  0  0  0  0  # atno 10718 bound_to 10713
  152.9792  135.5794  154.4667 H   0  0  0  0  0  0  0  0  0  0  0  0  # atno 10763 bound_to 10752
  154.4236  135.2772  155.1961 H   0  0  0  0  0  0  0  0  0  0  0  0  # atno 10764 bound_to 10752
  154.3700  135.6170  153.5789 H   0  0  0  0  0  0  0  0  0  0  0  0  # atno 10765 bound_to 10752
  140.8832  134.1905  157.4577 H   0  0  0  0  0  0  0  0  0  0  0  0  # atno 11005 bound_to 11000
  146.2183  140.5887  142.9028 LP  0  0  0  0  0  0  0  0  0  0  0  0  # atno 17320 bound_to 7965
  144.7742  140.5704  143.6649 LP  0  0  0  0  0  0  0  0  0  0  0  0  # atno 17321 bound_to 7965
  140.7800  143.4784  151.0051 LP  0  0  0  0  0  0  0  0  0  0  0  0  # atno 17342 bound_to 10162
  139.8472  143.7486  152.3179 LP  0  0  0  0  0  0  0  0  0  0  0  0  # atno 17343 bound_to 10162
  157.2255  131.0492  151.2522 LP  0  0  0  0  0  0  0  0  0  0  0  0  # atno 17370 bound_to 10713
  157.3760  130.7206  149.6597 LP  0  0  0  0  0  0  0  0  0  0  0  0  # atno 17371 bound_to 10713
  139.8722  134.9826  156.5165 LP  0  0  0  0  0  0  0  0  0  0  0  0  # atno 17394 bound_to 11000
  140.8436  133.8186  155.9099 LP  0  0  0  0  0  0  0  0  0  0  0  0  # atno 17395 bound_to 11000

$$$$
