AV-unprocessed.smi:911|AV-procd|sdf|4137|dock3
  -GOLD-   22720 2 43D 1   1.00000     0.00000
 Structure written by MMmdl.
 47 49  0  0  0  0  0  0  0  0  3 V2000
  144.6700  134.6589  162.0149 C   0  0  0  0  0  0  0  0  0  0  0  0
  145.8760  135.5129  161.5310 C   0  0  0  0  0  0  0  0  0  0  0  0
  145.2418  136.7363  160.8104 C   0  0  0  0  0  0  0  0  0  0  0  0
  146.8786  135.8797  162.6434 C   0  0  1  0  0  0  0  0  0  0  0  0
  147.4264  134.5096  163.1036 C   0  0  0  0  0  0  0  0  0  0  0  0
  147.4693  133.7064  161.7869 C   0  0  0  0  0  0  0  0  0  0  0  0
  146.9673  134.7358  160.7413 C   0  0  1  0  0  0  0  0  0  0  0  0
  146.5012  134.0663  159.4330 C   0  0  0  0  0  0  0  0  0  0  0  0
  148.1409  135.7543  160.5896 C   0  0  1  0  0  0  0  0  0  0  0  0
  148.0321  136.5803  159.3905 N   0  0  0  0  0  0  0  0  0  0  0  0
  148.9234  136.6882  158.3916 C   0  0  0  0  0  0  0  0  0  0  0  0
  150.0161  136.1236  158.3998 O   0  0  0  0  0  0  0  0  0  0  0  0
  148.5238  137.5375  157.1720 C   0  0  0  0  0  0  0  0  0  0  0  0
  149.4697  138.6244  156.8557 N   0  0  0  0  0  0  0  0  0  0  0  0
  150.5434  138.2978  156.0038 C   0  0  0  0  0  0  0  0  0  0  0  0
  151.4430  139.2153  155.6005 C   0  0  0  0  0  0  0  0  0  0  0  0
  152.5182  138.8671  154.6988 N   0  3  0  0  0  0  0  0  0  0  0  0
  152.4842  137.7776  154.1358 O   0  0  0  0  0  0  0  0  0  0  0  0
  153.4330  139.6670  154.5264 O   0  5  0  0  0  0  0  0  0  0  0  0
  151.2843  140.5726  156.0851 C   0  0  0  0  0  0  0  0  0  0  0  0
  150.2570  140.8931  156.8962 C   0  0  0  0  0  0  0  0  0  0  0  0
  149.2677  139.8960  157.3186 C   0  0  0  0  0  0  0  0  0  0  0  0
  148.3104  140.1893  158.0342 O   0  0  0  0  0  0  0  0  0  0  0  0
  148.0271  136.5857  161.8868 C   0  0  0  0  0  0  0  0  0  0  0  0
  144.0392  135.2354  162.6921 H   0  0  0  0  0  0  0  0  0  0  0  0
  144.9307  133.7453  162.5441 H   0  0  0  0  0  0  0  0  0  0  0  0
  144.0449  134.3610  161.1726 H   0  0  0  0  0  0  0  0  0  0  0  0
  145.9407  137.5025  160.4876 H   0  0  0  0  0  0  0  0  0  0  0  0
  144.5327  137.2422  161.4664 H   0  0  0  0  0  0  0  0  0  0  0  0
  144.6875  136.4220  159.9255 H   0  0  0  0  0  0  0  0  0  0  0  0
  146.4660  136.4769  163.4573 H   0  0  0  0  0  0  0  0  0  0  0  0
  148.4107  134.5917  163.5664 H   0  0  0  0  0  0  0  0  0  0  0  0
  146.7689  134.0375  163.8341 H   0  0  0  0  0  0  0  0  0  0  0  0
  148.4705  133.3348  161.5657 H   0  0  0  0  0  0  0  0  0  0  0  0
  146.8220  132.8306  161.8402 H   0  0  0  0  0  0  0  0  0  0  0  0
  147.3316  133.5635  158.9366 H   0  0  0  0  0  0  0  0  0  0  0  0
  146.0854  134.7896  158.7316 H   0  0  0  0  0  0  0  0  0  0  0  0
  145.7314  133.3186  159.6232 H   0  0  0  0  0  0  0  0  0  0  0  0
  149.1013  135.2360  160.5750 H   0  0  0  0  0  0  0  0  0  0  0  0
  147.1659  137.0884  159.2873 H   0  0  0  0  0  0  0  0  0  0  0  0
  148.3848  136.8721  156.3185 H   0  0  0  0  0  0  0  0  0  0  0  0
  147.5361  137.9604  157.3618 H   0  0  0  0  0  0  0  0  0  0  0  0
  150.5640  137.2637  155.6903 H   0  0  0  0  0  0  0  0  0  0  0  0
  151.9879  141.3417  155.8014 H   0  0  0  0  0  0  0  0  0  0  0  0
  150.1575  141.9108  157.2447 H   0  0  0  0  0  0  0  0  0  0  0  0
  147.7898  137.6315  161.6896 H   0  0  0  0  0  0  0  0  0  0  0  0
  148.9577  136.5808  162.4555 H   0  0  0  0  0  0  0  0  0  0  0  0
  1  2  1  0  0  0  0
  1 25  1  0  0  0  0
  1 26  1  0  0  0  0
  1 27  1  0  0  0  0
  2  7  1  0  0  0  0
  2  3  1  0  0  0  0
  2  4  1  0  0  0  0
  3 28  1  0  0  0  0
  3 29  1  0  0  0  0
  3 30  1  0  0  0  0
  4 24  1  0  0  0  0
  4  5  1  0  0  0  0
  4 31  1  0  0  0  0
  5  6  1  0  0  0  0
  5 32  1  0  0  0  0
  5 33  1  0  0  0  0
  6  7  1  0  0  0  0
  6 34  1  0  0  0  0
  6 35  1  0  0  0  0
  7  8  1  0  0  0  0
  7  9  1  0  0  0  0
  8 36  1  0  0  0  0
  8 37  1  0  0  0  0
  8 38  1  0  0  0  0
  9 10  1  0  0  0  0
  9 24  1  0  0  0  0
  9 39  1  0  0  0  0
 10 11  1  0  0  0  0
 10 40  1  0  0  0  0
 11 12  2  0  0  0  0
 11 13  1  0  0  0  0
 13 14  1  0  0  0  0
 13 41  1  0  0  0  0
 13 42  1  0  0  0  0
 14 22  1  0  0  0  0
 14 15  1  0  0  0  0
 15 16  2  0  0  0  0
 15 43  1  0  0  0  0
 16 17  1  0  0  0  0
 16 20  1  0  0  0  0
 17 18  2  0  0  0  0
 17 19  1  0  0  0  0
 20 21  2  0  0  0  0
 20 44  1  0  0  0  0
 21 22  1  0  0  0  0
 21 45  1  0  0  0  0
 22 23  2  0  0  0  0
 24 46  1  0  0  0  0
 24 47  1  0  0  0  0
M  CHG  1  17   1
M  CHG  1  19  -1
M  END
> <s_m_source_file>
AV-unprocessed.smi

> <i_m_source_file_index>
911

> <i_lp_mmshare_version>
43012

> <i_f3d_flags>
0

> <s_epik_input>
W0NIM11bQ0BdMTJDKFtDSDNdKShbQ0gzXSlbQ0BIXShbQ0gyXVtDSDJdMSlbQ0gyXVtDQEBIXTJbTkhdQyg9TylbQ0gyXW4zW2NIXWMoW04rXSg9TylbTy1dKVtjSF1bY0hdYzM9Tw==

> <s_epik_cmdline>
J2VwaWtfcHl0aG9uJywgJy1waCcsICc3LjAnLCAnLXRuJywgJzgnLCAnLW1hJywgJzIwMCcsICctbWV0YWxfYmluZGluZycsICctaW1hZScsICc8aW5maWxlLm1hZT4nLCAnLW9tYWUnLCAnPG91dGZpbGUubWFlPic=

> <r_lp_tautomer_probability>
1

> <r_epik_Ionization_Penalty>
2.04092e-08

> <r_epik_Ionization_Penalty_Charging>
8.54191e-11

> <r_epik_Ionization_Penalty_Neutral>
2.03238e-08

> <r_epik_State_Penalty>
-0

> <r_epik_Charging_Adjusted_Penalty>
8.54191e-11

> <i_epik_Tot_Q>
0

> <i_epik_Tot_abs_Q>
2

> <r_epik_Metal_State_Penalty>
-0

> <b_epik_Metal_Only>
0

> <s_lp_Force_Field>
OPLS_2005

> <r_lp_Energy>
66.6043

> <b_lp_Chiralities_Consistent>
1

> <s_lp_Variant>
AV-unprocessed.smi:911-2

> <Gold.Version>
5.8.1

> <Gold.Id.Protein>
6NUR|6NUR_protein|mol2

> <Gold.PLP.Fitness>
44.0781

> <Gold.PLP.PLP>
-37.0151

> <Gold.PLP.part.hbond>
-4.7635

> <Gold.PLP.part.metal>
0.0000

> <Gold.PLP.part.buried>
-2.2038

> <Gold.PLP.part.nonpolar>
-30.4391

> <Gold.PLP.part.repulsive>
0.3085

> <Gold.PLP.ligand.clash>
0.0000

> <Gold.PLP.ligand.torsion>
0.4411

> <Gold.PLP.Chemscore.Hbond>
2.6400

> <Gold.PLP.Chemscore.CHOScore>
0.0000

> <Gold.PLP.Chemscore.Metal>
0.0000

> <Gold.Chemscore.Hbonds>
donor molecule, donor type, donor heavy atom, donor atom, acceptor molecule, acceptor atom, score
      P1  H  6896  6907       L1    12  0.99
      P1  H  7997  8010       L1    19  0.99
      P1  H 10752 10764       L1    18  0.48

> <Gold.PLP.Chemscore.Internal.Correction>
0.0253

> <Gold.Rescore>
     Score         DG    S(hbond)    S(metal)    S(lipo)     H(rot)  DE(clash)    DE(int)     intcor
     19.47     -20.33       2.64        0.00      84.89       1.53       0.44       0.42       ----

> <Gold.Chemscore.Fitness>
19.4732

> <Gold.Chemscore.DG>
-20.3329

> <Gold.Chemscore.ZeroCoef>
-5.4800

> <Gold.Chemscore.Hbond>
2.6443

> <Gold.Chemscore.Metal>
0.0000

> <Gold.Chemscore.Lipo>
84.8871

> <Gold.Chemscore.Internal_Hbond>
0.0000

> <Gold.Chemscore.DEClash>
0.4412

> <Gold.Chemscore.DEInternal>
0.4185

> <Gold.Chemscore.Rot>
1.5277

> <Gold.Chemscore.Internal.Correction>
   9.000000E+99

> <Gold.Chemscore.Hbonds>
donor molecule, donor type, donor heavy atom, donor atom, acceptor molecule, acceptor atom, score
      P1  H  6896  6907       L1    12  0.91
      P1  H  7997  8010       L1    19  0.94
      P1  H 10752 10764       L1    18  0.48

> <Gold.Chemscore.Hbond.Weighted>
-8.8321

> <Gold.Chemscore.Metal.Weighted>
-0.0000

> <Gold.Chemscore.Lipo.Weighted>
-9.9318

> <Gold.Chemscore.Internal_Hbond.Weighted>
0.0000

> <Gold.Chemscore.DEClash.Weighted>
0.4412

> <Gold.Chemscore.DEInternal.Weighted>
0.4185

> <Gold.Chemscore.Rot.Weighted>
3.9110

> <Gold.Chemscore.Internal.Correction.Weighted>
   9.000000E+99

> <Gold.Protein.RotatedTorsions>
[ 6907 6896 6895 6894 ] final  -63.99 input  -60.11 | X-H torsion
[ 7974 7965 7964 7962 ] final   54.91 input  175.53 | X-H torsion
[ 8008 7997 7996 7995 ] final  138.99 input   59.86 | X-H torsion
[ 10167 10162 10161 10158 ] final  126.96 input  -65.29 | X-H torsion
[ 10718 10713 10712 10709 ] final   51.53 input   66.30 | X-H torsion
[ 10763 10752 10751 10750 ] final  -93.43 input  -60.55 | X-H torsion
[ 11005 11000 10999 10996 ] final  -67.21 input  -57.11 | X-H torsion

> <Gold.Protein.ActiveResidues>
 VAL166  LYS551  ARG553  GLY616  TRP617  ASP618  TYR619  PRO620  LYS621  CYS622 
 ASP623  PHE694  ASN695  SER759  ASP760  ASP761  ALA762  ILE779  LEU786  VAL792 
 PHE793  MET794  SER795  GLU796  ALA797  LYS798  CYS799  TRP800  GLU811  SER814 

> <Gold.Protein.RotatedAtoms>
  150.7613  134.6359  159.6210 H   0  0  0  0  0  0  0  0  0  0  0  0  # atno 6907 bound_to 6896
  152.3622  134.6852  160.0212 H   0  0  0  0  0  0  0  0  0  0  0  0  # atno 6908 bound_to 6896
  151.7238  133.3279  159.3359 H   0  0  0  0  0  0  0  0  0  0  0  0  # atno 6909 bound_to 6896
  145.9560  139.4015  143.0277 H   0  0  0  0  0  0  0  0  0  0  0  0  # atno 7974 bound_to 7965
  156.2993  140.2379  156.4163 H   0  0  0  0  0  0  0  0  0  0  0  0  # atno 8008 bound_to 7997
  154.8395  140.0429  157.1552 H   0  0  0  0  0  0  0  0  0  0  0  0  # atno 8009 bound_to 7997
  154.9118  140.2991  155.5266 H   0  0  0  0  0  0  0  0  0  0  0  0  # atno 8010 bound_to 7997
  139.5603  144.6877  151.4062 H   0  0  0  0  0  0  0  0  0  0  0  0  # atno 10167 bound_to 10162
  157.4989  130.8425  149.8292 H   0  0  0  0  0  0  0  0  0  0  0  0  # atno 10718 bound_to 10713
  154.6958  135.5195  153.8456 H   0  0  0  0  0  0  0  0  0  0  0  0  # atno 10763 bound_to 10752
  153.0666  135.6587  154.0350 H   0  0  0  0  0  0  0  0  0  0  0  0  # atno 10764 bound_to 10752
  154.0217  135.2993  155.3360 H   0  0  0  0  0  0  0  0  0  0  0  0  # atno 10765 bound_to 10752
  141.1502  133.6714  156.6257 H   0  0  0  0  0  0  0  0  0  0  0  0  # atno 11005 bound_to 11000
  145.8106  140.9727  143.0950 LP  0  0  0  0  0  0  0  0  0  0  0  0  # atno 17320 bound_to 7965
  144.6805  139.9916  143.7484 LP  0  0  0  0  0  0  0  0  0  0  0  0  # atno 17321 bound_to 7965
  140.6882  143.7924  150.7217 LP  0  0  0  0  0  0  0  0  0  0  0  0  # atno 17342 bound_to 10162
  140.1398  143.4451  152.2201 LP  0  0  0  0  0  0  0  0  0  0  0  0  # atno 17343 bound_to 10162
  156.0217  130.3793  150.1942 LP  0  0  0  0  0  0  0  0  0  0  0  0  # atno 17370 bound_to 10713
  157.0132  130.9957  151.3360 LP  0  0  0  0  0  0  0  0  0  0  0  0  # atno 17371 bound_to 10713
  140.3506  134.7772  157.4464 LP  0  0  0  0  0  0  0  0  0  0  0  0  # atno 17394 bound_to 11000
  140.0864  134.5661  155.8488 LP  0  0  0  0  0  0  0  0  0  0  0  0  # atno 17395 bound_to 11000

$$$$
