AV-unprocessed.smi:1702|AV-procd|sdf|6852|dock4
  -GOLD-   22720 8 33D 1   1.00000     0.00000
 Structure written by MMmdl.
 45 47  0  0  0  0  0  0  0  0  3 V2000
  143.6828  137.1692  153.0039 C   0  0  0  0  0  0  0  0  0  0  0  0
  144.9461  136.4690  152.4721 C   0  0  2  0  0  0  0  0  0  0  0  0
  145.7982  135.8447  153.5919 C   0  0  0  0  0  0  0  0  0  0  0  0
  146.5593  136.9066  154.4061 C   0  0  0  0  0  0  0  0  0  0  0  0
  147.3997  137.7599  153.5245 N   0  3  2  0  0  0  0  0  0  0  0  0
  148.2522  138.7198  154.2734 C   0  0  0  0  0  0  0  0  0  0  0  0
  149.4629  138.0396  154.9433 C   0  0  1  0  0  0  0  0  0  0  0  0
  149.7382  136.8274  154.2672 O   0  0  0  0  0  0  0  0  0  0  0  0
  150.7168  138.9356  154.9046 C   0  0  0  0  0  0  0  0  0  0  0  0
  150.4740  140.2832  155.4382 N   0  0  0  0  0  0  0  0  0  0  0  0
  149.6693  141.2781  154.9731 C   0  0  0  0  0  0  0  0  0  0  0  0
  149.7910  142.3362  155.8219 N   0  3  0  0  0  0  0  0  0  0  0  0
  150.6858  142.0136  156.8446 C   0  0  0  0  0  0  0  0  0  0  0  0
  151.1319  142.7549  157.9341 C   0  0  0  0  0  0  0  0  0  0  0  0
  152.0545  142.1256  158.7956 C   0  0  0  0  0  0  0  0  0  0  0  0
  152.5223  142.8027  159.8707 F   0  0  0  0  0  0  0  0  0  0  0  0
  152.4984  140.8072  158.5586 C   0  0  0  0  0  0  0  0  0  0  0  0
  153.3847  140.2399  159.4105 F   0  0  0  0  0  0  0  0  0  0  0  0
  152.0385  140.0651  157.4504 C   0  0  0  0  0  0  0  0  0  0  0  0
  151.1279  140.6958  156.6041 C   0  0  0  0  0  0  0  0  0  0  0  0
  146.5882  138.4272  152.4740 C   0  0  0  0  0  0  0  0  0  0  0  0
  145.8274  137.3984  151.6183 C   0  0  0  0  0  0  0  0  0  0  0  0
  143.9199  138.0041  153.6629 H   0  0  0  0  0  0  0  0  0  0  0  0
  143.0586  136.4738  153.5659 H   0  0  0  0  0  0  0  0  0  0  0  0
  143.0789  137.5590  152.1840 H   0  0  0  0  0  0  0  0  0  0  0  0
  144.6016  135.6584  151.8285 H   0  0  0  0  0  0  0  0  0  0  0  0
  145.1725  135.2424  154.2518 H   0  0  0  0  0  0  0  0  0  0  0  0
  146.5196  135.1558  153.1497 H   0  0  0  0  0  0  0  0  0  0  0  0
  145.8601  137.5310  154.9634 H   0  0  0  0  0  0  0  0  0  0  0  0
  147.1792  136.4008  155.1455 H   0  0  0  0  0  0  0  0  0  0  0  0
  148.6226  139.4930  153.5980 H   0  0  0  0  0  0  0  0  0  0  0  0
  147.6426  139.2367  155.0160 H   0  0  0  0  0  0  0  0  0  0  0  0
  149.2368  137.8019  155.9820 H   0  0  0  0  0  0  0  0  0  0  0  0
  149.4231  136.8969  153.3785 H   0  0  0  0  0  0  0  0  0  0  0  0
  151.5201  138.4909  155.4940 H   0  0  0  0  0  0  0  0  0  0  0  0
  151.0987  139.0310  153.8873 H   0  0  0  0  0  0  0  0  0  0  0  0
  149.0482  141.2377  154.0896 H   0  0  0  0  0  0  0  0  0  0  0  0
  150.7947  143.7641  158.1197 H   0  0  0  0  0  0  0  0  0  0  0  0
  152.3848  139.0570  157.2796 H   0  0  0  0  0  0  0  0  0  0  0  0
  145.8952  139.1310  152.9368 H   0  0  0  0  0  0  0  0  0  0  0  0
  147.2402  139.0112  151.8233 H   0  0  0  0  0  0  0  0  0  0  0  0
  146.5500  136.7962  151.0655 H   0  0  0  0  0  0  0  0  0  0  0  0
  145.2233  137.9081  150.8670 H   0  0  0  0  0  0  0  0  0  0  0  0
  148.0341  137.1438  153.0357 H   0  0  0  0  0  0  0  0  0  0  0  0
  149.2981  143.2133  155.7085 H   0  0  0  0  0  0  0  0  0  0  0  0
  1  2  1  0  0  0  0
  1 23  1  0  0  0  0
  1 24  1  0  0  0  0
  1 25  1  0  0  0  0
  2 22  1  0  0  0  0
  2  3  1  0  0  0  0
  2 26  1  0  0  0  0
  3  4  1  0  0  0  0
  3 27  1  0  0  0  0
  3 28  1  0  0  0  0
  4  5  1  0  0  0  0
  4 29  1  0  0  0  0
  4 30  1  0  0  0  0
  5  6  1  0  0  0  0
  5 21  1  0  0  0  0
  5 44  1  0  0  0  0
  6  7  1  0  0  0  0
  6 31  1  0  0  0  0
  6 32  1  0  0  0  0
  7  8  1  0  0  0  0
  7  9  1  0  0  0  0
  7 33  1  0  0  0  0
  8 34  1  0  0  0  0
  9 10  1  0  0  0  0
  9 35  1  0  0  0  0
  9 36  1  0  0  0  0
 10 20  1  0  0  0  0
 10 11  1  0  0  0  0
 11 12  2  0  0  0  0
 11 37  1  0  0  0  0
 12 13  1  0  0  0  0
 12 45  1  0  0  0  0
 13 20  2  0  0  0  0
 13 14  1  0  0  0  0
 14 15  2  0  0  0  0
 14 38  1  0  0  0  0
 15 16  1  0  0  0  0
 15 17  1  0  0  0  0
 17 18  1  0  0  0  0
 17 19  2  0  0  0  0
 19 20  1  0  0  0  0
 19 39  1  0  0  0  0
 21 22  1  0  0  0  0
 21 40  1  0  0  0  0
 21 41  1  0  0  0  0
 22 42  1  0  0  0  0
 22 43  1  0  0  0  0
M  CHG  1   5   1
M  CHG  1  12   1
M  END
> <s_m_source_file>
AV-unprocessed.smi

> <i_m_source_file_index>
1702

> <i_lp_mmshare_version>
43012

> <i_f3d_flags>
0

> <s_epik_input>
W0NIM11bQ0hdMVtDSDJdW0NIMl1OKFtDSDJdW0NIMl0xKVtDSDJdW0NASF0oW09IXSlbQ0gyXW4oW2NIXW4yKWMoYzIzKVtjSF1jKEYpYyhGKVtjSF0z

> <s_epik_cmdline>
J2VwaWtfcHl0aG9uJywgJy1waCcsICc3LjAnLCAnLXRuJywgJzgnLCAnLW1hJywgJzIwMCcsICctbWV0YWxfYmluZGluZycsICctaW1hZScsICc8aW5maWxlLm1hZT4nLCAnLW9tYWUnLCAnPG91dGZpbGUubWFlPic=

> <r_epik_Ionization_Penalty>
2.33291

> <r_epik_Ionization_Penalty_Charging>
2.33291

> <r_epik_Ionization_Penalty_Neutral>
6.90208e-07

> <r_epik_State_Penalty>
2.4838

> <r_epik_Charging_Adjusted_Penalty>
4.81672

> <i_epik_Tot_Q>
2

> <i_epik_Tot_abs_Q>
2

> <r_epik_Metal_State_Penalty>
6.56754

> <b_epik_Metal_Only>
0

> <s_lp_Force_Field>
OPLS_2005

> <r_lp_Energy>
31.9784

> <b_lp_Chiralities_Consistent>
1

> <s_lp_Variant>
AV-unprocessed.smi:1702-8

> <Gold.Version>
5.8.1

> <Gold.Id.Protein>
6NUR|6NUR_protein|mol2

> <Gold.PLP.Fitness>
54.1371

> <Gold.PLP.PLP>
-40.6976

> <Gold.PLP.part.hbond>
-3.6179

> <Gold.PLP.part.metal>
0.0000

> <Gold.PLP.part.buried>
0.4494

> <Gold.PLP.part.nonpolar>
-39.0533

> <Gold.PLP.part.repulsive>
0.1777

> <Gold.PLP.ligand.clash>
0.0000

> <Gold.PLP.ligand.torsion>
0.7346

> <Gold.PLP.Chemscore.Hbond>
4.9600

> <Gold.PLP.Chemscore.CHOScore>
0.0000

> <Gold.PLP.Chemscore.Metal>
0.0000

> <Gold.Chemscore.Hbonds>
donor molecule, donor type, donor heavy atom, donor atom, acceptor molecule, acceptor atom, score
      L1  H     5    44       P1  7948  2.00
      L1  H     8    34       P1  7948  1.00
      L1  H    12    45       P1  8028  2.00

> <Gold.PLP.Chemscore.Internal.Correction>
0.0288

> <Gold.Rescore>
     Score         DG    S(hbond)    S(metal)    S(lipo)     H(rot)  DE(clash)    DE(int)     intcor
     17.47     -19.24       2.88        0.00      86.14       2.32       0.21       1.56       ----

> <Gold.Chemscore.Fitness>
17.4652

> <Gold.Chemscore.DG>
-19.2410

> <Gold.Chemscore.ZeroCoef>
-5.4800

> <Gold.Chemscore.Hbond>
2.8817

> <Gold.Chemscore.Metal>
0.0000

> <Gold.Chemscore.Lipo>
86.1353

> <Gold.Chemscore.Internal_Hbond>
0.0000

> <Gold.Chemscore.DEClash>
0.2136

> <Gold.Chemscore.DEInternal>
1.5622

> <Gold.Chemscore.Rot>
2.3210

> <Gold.Chemscore.Internal.Correction>
   9.000000E+99

> <Gold.Chemscore.Hbonds>
donor molecule, donor type, donor heavy atom, donor atom, acceptor molecule, acceptor atom, score
      L1  H     5    44       P1  7948  1.00
      L1  H     8    34       P1  7948  0.85
      L1  H    12    45       P1  8028  0.96

> <Gold.Chemscore.Hbond.Weighted>
-9.6248

> <Gold.Chemscore.Metal.Weighted>
-0.0000

> <Gold.Chemscore.Lipo.Weighted>
-10.0778

> <Gold.Chemscore.Internal_Hbond.Weighted>
0.0000

> <Gold.Chemscore.DEClash.Weighted>
0.2136

> <Gold.Chemscore.DEInternal.Weighted>
1.5622

> <Gold.Chemscore.Rot.Weighted>
5.9416

> <Gold.Chemscore.Internal.Correction.Weighted>
   9.000000E+99

> <Gold.Protein.RotatedTorsions>
[ 6907 6896 6895 6894 ] final -168.43 input  -60.11 | X-H torsion
[ 7974 7965 7964 7962 ] final   19.02 input  175.53 | X-H torsion
[ 8008 7997 7996 7995 ] final   40.42 input   59.86 | X-H torsion
[ 10167 10162 10161 10158 ] final  -14.72 input  -65.29 | X-H torsion
[ 10718 10713 10712 10709 ] final  -20.24 input   66.30 | X-H torsion
[ 10763 10752 10751 10750 ] final  -43.70 input  -60.55 | X-H torsion
[ 11005 11000 10999 10996 ] final  -71.65 input  -57.11 | X-H torsion

> <Gold.Protein.ActiveResidues>
 VAL166  LYS551  ARG553  GLY616  TRP617  ASP618  TYR619  PRO620  LYS621  CYS622 
 ASP623  PHE694  ASN695  SER759  ASP760  ASP761  ALA762  ILE779  LEU786  VAL792 
 PHE793  MET794  SER795  GLU796  ALA797  LYS798  CYS799  TRP800  GLU811  SER814 

> <Gold.Protein.RotatedAtoms>
  151.4754  133.3559  159.2829 H   0  0  0  0  0  0  0  0  0  0  0  0  # atno 6907 bound_to 6896
  150.8933  134.8341  159.7319 H   0  0  0  0  0  0  0  0  0  0  0  0  # atno 6908 bound_to 6896
  152.4836  134.4666  159.9674 H   0  0  0  0  0  0  0  0  0  0  0  0  # atno 6909 bound_to 6896
  146.2164  139.8373  142.8648 H   0  0  0  0  0  0  0  0  0  0  0  0  # atno 7974 bound_to 7965
  155.2528  140.3353  155.4280 H   0  0  0  0  0  0  0  0  0  0  0  0  # atno 8008 bound_to 7997
  156.2208  140.1808  156.7525 H   0  0  0  0  0  0  0  0  0  0  0  0  # atno 8009 bound_to 7997
  154.5822  140.0651  156.9106 H   0  0  0  0  0  0  0  0  0  0  0  0  # atno 8010 bound_to 7997
  140.7206  143.5292  150.9540 H   0  0  0  0  0  0  0  0  0  0  0  0  # atno 10167 bound_to 10162
  156.5345  130.4663  149.6530 H   0  0  0  0  0  0  0  0  0  0  0  0  # atno 10718 bound_to 10713
  154.0000  135.6695  153.4758 H   0  0  0  0  0  0  0  0  0  0  0  0  # atno 10763 bound_to 10752
  153.0667  135.4997  154.8211 H   0  0  0  0  0  0  0  0  0  0  0  0  # atno 10764 bound_to 10752
  154.7058  135.3087  154.9235 H   0  0  0  0  0  0  0  0  0  0  0  0  # atno 10765 bound_to 10752
  141.1596  133.6823  156.6938 H   0  0  0  0  0  0  0  0  0  0  0  0  # atno 11005 bound_to 11000
  145.2935  141.0174  143.3649 LP  0  0  0  0  0  0  0  0  0  0  0  0  # atno 17320 bound_to 7965
  144.9059  139.4590  143.6610 LP  0  0  0  0  0  0  0  0  0  0  0  0  # atno 17321 bound_to 7965
  139.9012  143.6834  152.3131 LP  0  0  0  0  0  0  0  0  0  0  0  0  # atno 17342 bound_to 10162
  139.7184  144.7607  151.0996 LP  0  0  0  0  0  0  0  0  0  0  0  0  # atno 17343 bound_to 10162
  156.3028  130.7186  151.2062 LP  0  0  0  0  0  0  0  0  0  0  0  0  # atno 17370 bound_to 10713
  157.7416  131.0502  150.5085 LP  0  0  0  0  0  0  0  0  0  0  0  0  # atno 17371 bound_to 10713
  140.3010  134.8164  157.4097 LP  0  0  0  0  0  0  0  0  0  0  0  0  # atno 17394 bound_to 11000
  140.1262  134.5155  155.8143 LP  0  0  0  0  0  0  0  0  0  0  0  0  # atno 17395 bound_to 11000

$$$$
