AV-unprocessed.smi:2203|AV-procd|sdf|8935|dock1
  -GOLD-   2272012153D 1   1.00000     0.00000
 Structure written by MMmdl.
 48 49  0  0  0  0  0  0  0  0  1 V2000
  148.3479  141.3676  154.1153 C   0  0  0  0  0  0  0  0  0  0  0  0
  149.5421  141.0565  154.9717 C   0  0  0  0  0  0  0  0  0  0  0  0
  149.9623  141.9549  155.8456 N   0  0  0  0  0  0  0  0  0  0  0  0
  151.0249  141.3829  156.4491 N   0  0  0  0  0  0  0  0  0  0  0  0
  151.7348  142.1209  157.4835 C   0  0  0  0  0  0  0  0  0  0  0  0
  151.1834  143.5465  157.7017 C   0  0  0  0  0  0  0  0  0  0  0  0
  152.2697  144.4672  158.2760 C   0  0  0  0  0  0  0  0  0  0  0  0
  149.9230  143.5719  158.5834 C   0  0  0  0  0  0  0  0  0  0  0  0
  151.2682  140.1123  155.9592 C   0  0  0  0  0  0  0  0  0  0  0  0
  152.3809  139.2510  156.4663 C   0  0  0  0  0  0  0  0  0  0  0  0
  150.3284  139.8673  154.9939 C   0  0  0  0  0  0  0  0  0  0  0  0
  150.1494  138.6310  154.1500 C   0  0  0  0  0  0  0  0  0  0  0  0
  149.9760  137.4140  155.0580 C   0  0  0  0  0  0  0  0  0  0  0  0
  150.2573  137.4924  156.2537 O   0  0  0  0  0  0  0  0  0  0  0  0
  149.5042  136.2994  154.4816 N   0  0  0  0  0  0  0  0  0  0  0  0
  149.2548  135.0495  155.1849 C   0  0  0  0  0  0  0  0  0  0  0  0
  149.3075  133.8628  154.2133 C   0  0  2  0  0  0  0  0  0  0  0  0
  147.9692  133.5637  153.5378 C   0  0  0  0  0  0  0  0  0  0  0  0
  148.0924  132.0857  153.2476 C   0  0  0  0  0  0  0  0  0  0  0  0
  148.8117  131.5911  154.4974 C   0  0  0  0  0  0  0  0  0  0  0  0
  149.6562  132.6639  154.9047 O   0  0  0  0  0  0  0  0  0  0  0  0
  147.4503  140.8966  154.5162 H   0  0  0  0  0  0  0  0  0  0  0  0
  148.4882  141.0040  153.0975 H   0  0  0  0  0  0  0  0  0  0  0  0
  148.1632  142.4409  154.0573 H   0  0  0  0  0  0  0  0  0  0  0  0
  151.6855  141.5553  158.4157 H   0  0  0  0  0  0  0  0  0  0  0  0
  152.7897  142.1612  157.2114 H   0  0  0  0  0  0  0  0  0  0  0  0
  150.9047  143.9508  156.7283 H   0  0  0  0  0  0  0  0  0  0  0  0
  152.5977  144.1282  159.2591 H   0  0  0  0  0  0  0  0  0  0  0  0
  151.9045  145.4894  158.3809 H   0  0  0  0  0  0  0  0  0  0  0  0
  153.1438  144.4970  157.6249 H   0  0  0  0  0  0  0  0  0  0  0  0
  150.1210  143.1442  159.5668 H   0  0  0  0  0  0  0  0  0  0  0  0
  149.1055  143.0088  158.1330 H   0  0  0  0  0  0  0  0  0  0  0  0
  149.5680  144.5922  158.7300 H   0  0  0  0  0  0  0  0  0  0  0  0
  152.2695  138.2221  156.1243 H   0  0  0  0  0  0  0  0  0  0  0  0
  152.3996  139.2322  157.5558 H   0  0  0  0  0  0  0  0  0  0  0  0
  153.3451  139.6167  156.1139 H   0  0  0  0  0  0  0  0  0  0  0  0
  149.2871  138.7190  153.4878 H   0  0  0  0  0  0  0  0  0  0  0  0
  151.0078  138.4650  153.4984 H   0  0  0  0  0  0  0  0  0  0  0  0
  149.3030  136.3184  153.4924 H   0  0  0  0  0  0  0  0  0  0  0  0
  149.9878  134.9150  155.9821 H   0  0  0  0  0  0  0  0  0  0  0  0
  148.2718  135.1026  155.6549 H   0  0  0  0  0  0  0  0  0  0  0  0
  150.0617  134.0361  153.4438 H   0  0  0  0  0  0  0  0  0  0  0  0
  147.1409  133.7374  154.2265 H   0  0  0  0  0  0  0  0  0  0  0  0
  147.8009  134.1640  152.6435 H   0  0  0  0  0  0  0  0  0  0  0  0
  147.1314  131.5966  153.0855 H   0  0  0  0  0  0  0  0  0  0  0  0
  148.7137  131.9260  152.3653 H   0  0  0  0  0  0  0  0  0  0  0  0
  148.0946  131.3933  155.2952 H   0  0  0  0  0  0  0  0  0  0  0  0
  149.3807  130.6784  154.3196 H   0  0  0  0  0  0  0  0  0  0  0  0
  1  2  1  0  0  0  0
  1 22  1  0  0  0  0
  1 23  1  0  0  0  0
  1 24  1  0  0  0  0
  2 11  1  0  0  0  0
  2  3  2  0  0  0  0
  3  4  1  0  0  0  0
  4  5  1  0  0  0  0
  4  9  1  0  0  0  0
  5  6  1  0  0  0  0
  5 25  1  0  0  0  0
  5 26  1  0  0  0  0
  6  7  1  0  0  0  0
  6  8  1  0  0  0  0
  6 27  1  0  0  0  0
  7 28  1  0  0  0  0
  7 29  1  0  0  0  0
  7 30  1  0  0  0  0
  8 31  1  0  0  0  0
  8 32  1  0  0  0  0
  8 33  1  0  0  0  0
  9 10  1  0  0  0  0
  9 11  2  0  0  0  0
 10 34  1  0  0  0  0
 10 35  1  0  0  0  0
 10 36  1  0  0  0  0
 11 12  1  0  0  0  0
 12 13  1  0  0  0  0
 12 37  1  0  0  0  0
 12 38  1  0  0  0  0
 13 14  2  0  0  0  0
 13 15  1  0  0  0  0
 15 16  1  0  0  0  0
 15 39  1  0  0  0  0
 16 17  1  0  0  0  0
 16 40  1  0  0  0  0
 16 41  1  0  0  0  0
 17 21  1  0  0  0  0
 17 18  1  0  0  0  0
 17 42  1  0  0  0  0
 18 19  1  0  0  0  0
 18 43  1  0  0  0  0
 18 44  1  0  0  0  0
 19 20  1  0  0  0  0
 19 45  1  0  0  0  0
 19 46  1  0  0  0  0
 20 21  1  0  0  0  0
 20 47  1  0  0  0  0
 20 48  1  0  0  0  0
M  END
> <s_m_source_file>
AV-unprocessed.smi

> <i_m_source_file_index>
2203

> <i_lp_mmshare_version>
43012

> <i_f3d_flags>
0

> <s_epik_input>
W0NIM11jMW5uKFtDSDJdW0NIXShbQ0gzXSlbQ0gzXSljKFtDSDNdKWMxW0NIMl1DKD1PKVtOSF1bQ0gyXVtDQEBIXTJbQ0gyXVtDSDJdW0NIMl1PMg==

> <s_epik_cmdline>
J2VwaWtfcHl0aG9uJywgJy1waCcsICc3LjAnLCAnLXRuJywgJzgnLCAnLW1hJywgJzIwMCcsICctbWV0YWxfYmluZGluZycsICctaW1hZScsICc8aW5maWxlLm1hZT4nLCAnLW9tYWUnLCAnPG91dGZpbGUubWFlPic=

> <r_lp_tautomer_probability>
1

> <r_epik_Ionization_Penalty>
0.00306713

> <r_epik_Ionization_Penalty_Charging>
0

> <r_epik_Ionization_Penalty_Neutral>
0.00306713

> <r_epik_State_Penalty>
0.00215672

> <r_epik_Charging_Adjusted_Penalty>
0.00215672

> <i_epik_Tot_Q>
0

> <i_epik_Tot_abs_Q>
0

> <r_epik_Metal_State_Penalty>
-0

> <b_epik_Metal_Only>
0

> <s_lp_Force_Field>
OPLS_2005

> <r_lp_Energy>
15.5636

> <b_lp_Chiralities_Consistent>
1

> <s_lp_Variant>
AV-unprocessed.smi:2203-1

> <Gold.Version>
5.8.1

> <Gold.Id.Protein>
6NUR|6NUR_protein|mol2

> <Gold.PLP.Fitness>
42.4713

> <Gold.PLP.PLP>
-41.2446

> <Gold.PLP.part.hbond>
-1.0490

> <Gold.PLP.part.metal>
0.0000

> <Gold.PLP.part.buried>
-0.8579

> <Gold.PLP.part.nonpolar>
-39.3119

> <Gold.PLP.part.repulsive>
1.0343

> <Gold.PLP.ligand.clash>
0.0000

> <Gold.PLP.ligand.torsion>
0.9220

> <Gold.PLP.Chemscore.Hbond>
1.0000

> <Gold.PLP.Chemscore.CHOScore>
0.0000

> <Gold.PLP.Chemscore.Metal>
0.0000

> <Gold.Chemscore.Hbonds>
donor molecule, donor type, donor heavy atom, donor atom, acceptor molecule, acceptor atom, score
      L1  H    15    39       P1  7948  1.00

> <Gold.PLP.Chemscore.Internal.Correction>
0.0707

> <Gold.Rescore>
     Score         DG    S(hbond)    S(metal)    S(lipo)     H(rot)  DE(clash)    DE(int)     intcor
     13.19     -16.84       0.98        0.00     104.97       1.63       0.07       3.58       ----

> <Gold.Chemscore.Fitness>
13.1930

> <Gold.Chemscore.DG>
-16.8438

> <Gold.Chemscore.ZeroCoef>
-5.4800

> <Gold.Chemscore.Hbond>
0.9767

> <Gold.Chemscore.Metal>
0.0000

> <Gold.Chemscore.Lipo>
104.9739

> <Gold.Chemscore.Internal_Hbond>
0.0000

> <Gold.Chemscore.DEClash>
0.0716

> <Gold.Chemscore.DEInternal>
3.5791

> <Gold.Chemscore.Rot>
1.6329

> <Gold.Chemscore.Internal.Correction>
   9.000000E+99

> <Gold.Chemscore.Hbonds>
donor molecule, donor type, donor heavy atom, donor atom, acceptor molecule, acceptor atom, score
      L1  H    15    39       P1  7948  0.85

> <Gold.Chemscore.Hbond.Weighted>
-3.2621

> <Gold.Chemscore.Metal.Weighted>
-0.0000

> <Gold.Chemscore.Lipo.Weighted>
-12.2820

> <Gold.Chemscore.Internal_Hbond.Weighted>
0.0000

> <Gold.Chemscore.DEClash.Weighted>
0.0716

> <Gold.Chemscore.DEInternal.Weighted>
3.5791

> <Gold.Chemscore.Rot.Weighted>
4.1803

> <Gold.Chemscore.Internal.Correction.Weighted>
   9.000000E+99

> <Gold.Protein.RotatedTorsions>
[ 6907 6896 6895 6894 ] final    1.78 input  -60.11 | X-H torsion
[ 7974 7965 7964 7962 ] final -141.80 input  175.53 | X-H torsion
[ 8008 7997 7996 7995 ] final  -97.80 input   59.86 | X-H torsion
[ 10167 10162 10161 10158 ] final   15.48 input  -65.29 | X-H torsion
[ 10718 10713 10712 10709 ] final   53.17 input   66.30 | X-H torsion
[ 10763 10752 10751 10750 ] final -170.86 input  -60.55 | X-H torsion
[ 11005 11000 10999 10996 ] final   77.32 input  -57.11 | X-H torsion

> <Gold.Protein.ActiveResidues>
 VAL166  LYS551  ARG553  GLY616  TRP617  ASP618  TYR619  PRO620  LYS621  CYS622 
 ASP623  PHE694  ASN695  SER759  ASP760  ASP761  ALA762  ILE779  LEU786  VAL792 
 PHE793  MET794  SER795  GLU796  ALA797  LYS798  CYS799  TRP800  GLU811  SER814 

> <Gold.Protein.RotatedAtoms>
  151.5982  135.1049  160.0054 H   0  0  0  0  0  0  0  0  0  0  0  0  # atno 6907 bound_to 6896
  152.4271  133.7210  159.6544 H   0  0  0  0  0  0  0  0  0  0  0  0  # atno 6908 bound_to 6896
  150.8161  133.8263  159.3182 H   0  0  0  0  0  0  0  0  0  0  0  0  # atno 6909 bound_to 6896
  144.8491  140.6035  143.5401 H   0  0  0  0  0  0  0  0  0  0  0  0  # atno 7974 bound_to 7965
  154.7927  140.0460  157.1213 H   0  0  0  0  0  0  0  0  0  0  0  0  # atno 8008 bound_to 7997
  154.9572  140.3073  155.5027 H   0  0  0  0  0  0  0  0  0  0  0  0  # atno 8009 bound_to 7997
  156.2952  140.2277  156.4655 H   0  0  0  0  0  0  0  0  0  0  0  0  # atno 8010 bound_to 7997
  140.5864  143.8881  150.6834 H   0  0  0  0  0  0  0  0  0  0  0  0  # atno 10167 bound_to 10162
  157.5142  130.8521  149.8474 H   0  0  0  0  0  0  0  0  0  0  0  0  # atno 10718 bound_to 10713
  154.6369  135.2893  155.0150 H   0  0  0  0  0  0  0  0  0  0  0  0  # atno 10763 bound_to 10752
  154.1291  135.6536  153.4922 H   0  0  0  0  0  0  0  0  0  0  0  0  # atno 10764 bound_to 10752
  153.0307  135.5306  154.7219 H   0  0  0  0  0  0  0  0  0  0  0  0  # atno 10765 bound_to 10752
  139.9260  134.7673  156.1506 H   0  0  0  0  0  0  0  0  0  0  0  0  # atno 11005 bound_to 11000
  145.4535  139.1521  143.3905 LP  0  0  0  0  0  0  0  0  0  0  0  0  # atno 17320 bound_to 7965
  146.2770  140.4662  142.8791 LP  0  0  0  0  0  0  0  0  0  0  0  0  # atno 17321 bound_to 7965
  140.2393  143.3676  152.1500 LP  0  0  0  0  0  0  0  0  0  0  0  0  # atno 17342 bound_to 10162
  139.5200  144.7027  151.5445 LP  0  0  0  0  0  0  0  0  0  0  0  0  # atno 17343 bound_to 10162
  156.0309  130.3765  150.1690 LP  0  0  0  0  0  0  0  0  0  0  0  0  # atno 17370 bound_to 10713
  156.9879  130.9884  151.3422 LP  0  0  0  0  0  0  0  0  0  0  0  0  # atno 17371 bound_to 10713
  141.0817  133.6751  156.2350 LP  0  0  0  0  0  0  0  0  0  0  0  0  # atno 17394 bound_to 11000
  140.6336  134.5238  157.5562 LP  0  0  0  0  0  0  0  0  0  0  0  0  # atno 17395 bound_to 11000

$$$$
