AV-unprocessed.smi:17|AV-procd|sdf|103|dock6
  -GOLD-   2262015253D 1   1.00000     0.00000
 Structure written by MMmdl.
 57 59  0  0  0  0  0  0  0  0  1 V2000
  146.9350  134.7317  162.2254 C   0  0  0  0  0  0  0  0  0  0  0  0
  147.9833  134.5922  161.1101 C   0  0  0  0  0  0  0  0  0  0  0  0
  147.5148  135.0849  159.8114 N   0  0  0  0  0  0  0  0  0  0  0  0
  148.2574  136.0394  159.1858 C   0  0  0  0  0  0  0  0  0  0  0  0
  149.5358  136.2564  159.5959 N   0  0  0  0  0  0  0  0  0  0  0  0
  150.2899  137.1898  159.0099 C   0  0  0  0  0  0  0  0  0  0  0  0
  149.9717  138.0093  158.0078 N   0  0  0  0  0  0  0  0  0  0  0  0
  148.6928  137.7988  157.5860 C   0  0  0  0  0  0  0  0  0  0  0  0
  147.7732  136.8478  158.1152 C   0  0  0  0  0  0  0  0  0  0  0  0
  146.5720  136.9250  157.4184 N   0  0  0  0  0  0  0  0  0  0  0  0
  146.7694  137.8626  156.5331 C   0  0  0  0  0  0  0  0  0  0  0  0
  148.0187  138.4362  156.5590 N   0  0  0  0  0  0  0  0  0  0  0  0
  148.5038  139.4894  155.6837 C   0  0  0  0  0  0  0  0  0  0  0  0
  150.0030  139.8261  155.9038 C   0  0  2  0  0  0  0  0  0  0  0  0
  150.2647  141.3503  155.7900 C   0  0  0  0  0  0  0  0  0  0  0  0
  149.5522  141.9172  154.7097 O   0  0  0  0  0  0  0  0  0  0  0  0
  150.9215  138.9690  154.9797 C   0  0  2  0  0  0  0  0  0  0  0  0
  151.0609  137.5164  155.4269 C   0  0  0  0  0  0  0  0  0  0  0  0
  152.2169  137.5500  156.4299 C   0  0  0  0  0  0  0  0  0  0  0  0
  152.9198  138.7620  156.1792 O   0  0  0  0  0  0  0  0  0  0  0  0
  152.4063  139.3553  154.9963 C   0  0  0  0  0  0  0  0  0  0  0  0
  146.5195  134.3303  159.0357 C   0  0  1  0  0  0  0  0  0  0  0  0
  146.9126  132.8499  158.8933 C   0  0  0  0  0  0  0  0  0  0  0  0
  145.0882  134.4858  159.5938 C   0  0  0  0  0  0  0  0  0  0  0  0
  143.7880  133.7949  158.4703 S   0  0  0  0  0  0  0  0  0  0  0  0
  144.0045  131.9778  158.6653 C   0  0  0  0  0  0  0  0  0  0  0  0
  142.4578  134.1553  158.9847 O   0  0  0  0  0  0  0  0  0  0  0  0
  144.1554  134.1382  157.0884 O   0  0  0  0  0  0  0  0  0  0  0  0
  147.3421  134.3933  163.1781 H   0  0  0  0  0  0  0  0  0  0  0  0
  146.0469  134.1342  162.0191 H   0  0  0  0  0  0  0  0  0  0  0  0
  146.6193  135.7673  162.3511 H   0  0  0  0  0  0  0  0  0  0  0  0
  148.8711  135.1492  161.4060 H   0  0  0  0  0  0  0  0  0  0  0  0
  148.3091  133.5569  161.0285 H   0  0  0  0  0  0  0  0  0  0  0  0
  151.2922  137.2940  159.3985 H   0  0  0  0  0  0  0  0  0  0  0  0
  146.0073  138.1590  155.8269 H   0  0  0  0  0  0  0  0  0  0  0  0
  148.3144  139.1643  154.6624 H   0  0  0  0  0  0  0  0  0  0  0  0
  147.8918  140.3793  155.8348 H   0  0  0  0  0  0  0  0  0  0  0  0
  150.2396  139.5585  156.9347 H   0  0  0  0  0  0  0  0  0  0  0  0
  149.9792  141.8700  156.7041 H   0  0  0  0  0  0  0  0  0  0  0  0
  151.3249  141.5642  155.6673 H   0  0  0  0  0  0  0  0  0  0  0  0
  149.4094  142.8336  154.8917 H   0  0  0  0  0  0  0  0  0  0  0  0
  150.5373  139.0193  153.9599 H   0  0  0  0  0  0  0  0  0  0  0  0
  150.1613  137.0695  155.8459 H   0  0  0  0  0  0  0  0  0  0  0  0
  151.3486  136.9047  154.5704 H   0  0  0  0  0  0  0  0  0  0  0  0
  151.8489  137.5625  157.4561 H   0  0  0  0  0  0  0  0  0  0  0  0
  152.8733  136.6871  156.3149 H   0  0  0  0  0  0  0  0  0  0  0  0
  152.9142  138.9072  154.1406 H   0  0  0  0  0  0  0  0  0  0  0  0
  152.6095  140.4233  154.9535 H   0  0  0  0  0  0  0  0  0  0  0  0
  146.4806  134.7314  158.0230 H   0  0  0  0  0  0  0  0  0  0  0  0
  146.2207  132.3242  158.2349 H   0  0  0  0  0  0  0  0  0  0  0  0
  146.9045  132.3372  159.8553 H   0  0  0  0  0  0  0  0  0  0  0  0
  147.9106  132.7461  158.4668 H   0  0  0  0  0  0  0  0  0  0  0  0
  145.0125  133.9235  160.5247 H   0  0  0  0  0  0  0  0  0  0  0  0
  144.8356  135.5172  159.8358 H   0  0  0  0  0  0  0  0  0  0  0  0
  143.3632  131.4616  157.9516 H   0  0  0  0  0  0  0  0  0  0  0  0
  143.7245  131.6750  159.6713 H   0  0  0  0  0  0  0  0  0  0  0  0
  145.0433  131.7082  158.4766 H   0  0  0  0  0  0  0  0  0  0  0  0
  1  2  1  0  0  0  0
  1 29  1  0  0  0  0
  1 30  1  0  0  0  0
  1 31  1  0  0  0  0
  2  3  1  0  0  0  0
  2 32  1  0  0  0  0
  2 33  1  0  0  0  0
  3  4  1  0  0  0  0
  3 22  1  0  0  0  0
  4  9  1  0  0  0  0
  4  5  2  0  0  0  0
  5  6  1  0  0  0  0
  6  7  2  0  0  0  0
  6 34  1  0  0  0  0
  7  8  1  0  0  0  0
  8 12  1  0  0  0  0
  8  9  2  0  0  0  0
  9 10  1  0  0  0  0
 10 11  2  0  0  0  0
 11 12  1  0  0  0  0
 11 35  1  0  0  0  0
 12 13  1  0  0  0  0
 13 14  1  0  0  0  0
 13 36  1  0  0  0  0
 13 37  1  0  0  0  0
 14 15  1  0  0  0  0
 14 17  1  0  0  0  0
 14 38  1  0  0  0  0
 15 16  1  0  0  0  0
 15 39  1  0  0  0  0
 15 40  1  0  0  0  0
 16 41  1  0  0  0  0
 17 21  1  0  0  0  0
 17 18  1  0  0  0  0
 17 42  1  0  0  0  0
 18 19  1  0  0  0  0
 18 43  1  0  0  0  0
 18 44  1  0  0  0  0
 19 20  1  0  0  0  0
 19 45  1  0  0  0  0
 19 46  1  0  0  0  0
 20 21  1  0  0  0  0
 21 47  1  0  0  0  0
 21 48  1  0  0  0  0
 22 23  1  0  0  0  0
 22 24  1  0  0  0  0
 22 49  1  0  0  0  0
 23 50  1  0  0  0  0
 23 51  1  0  0  0  0
 23 52  1  0  0  0  0
 24 25  1  0  0  0  0
 24 53  1  0  0  0  0
 24 54  1  0  0  0  0
 25 26  1  0  0  0  0
 25 27  2  0  0  0  0
 25 28  2  0  0  0  0
 26 55  1  0  0  0  0
 26 56  1  0  0  0  0
 26 57  1  0  0  0  0
M  END
> <s_m_source_file>
AV-unprocessed.smi

> <i_m_source_file_index>
17

> <i_lp_mmshare_version>
43012

> <i_f3d_flags>
0

> <s_epik_input>
W0NIM11TKD1PKSg9TylbQ0gyXVtDQEBIXShbQ0gzXSlOKFtDSDJdW0NIM10pYyhuW2NIXW4xKWMoYzEyKW5bY0hdbjJbQ0gyXVtDQEhdKFtDSDJdW09IXSlbQ0BASF0zW0NIMl1bQ0gyXU9bQ0gyXTM=

> <s_epik_cmdline>
J2VwaWtfcHl0aG9uJywgJy1waCcsICc3LjAnLCAnLXRuJywgJzgnLCAnLW1hJywgJzIwMCcsICctbWV0YWxfYmluZGluZycsICctaW1hZScsICc8aW5maWxlLm1hZT4nLCAnLW9tYWUnLCAnPG91dGZpbGUubWFlPic=

> <r_lp_tautomer_probability>
1

> <r_epik_Ionization_Penalty>
0.00119955

> <r_epik_Ionization_Penalty_Charging>
0

> <r_epik_Ionization_Penalty_Neutral>
0.00119955

> <r_epik_State_Penalty>
0.000665399

> <r_epik_Charging_Adjusted_Penalty>
0.000665399

> <i_epik_Tot_Q>
0

> <i_epik_Tot_abs_Q>
0

> <r_epik_Metal_State_Penalty>
-0

> <b_epik_Metal_Only>
0

> <s_lp_Force_Field>
OPLS_2005

> <r_lp_Energy>
34.7732

> <b_lp_Chiralities_Consistent>
1

> <s_lp_Variant>
AV-unprocessed.smi:17-5

> <Gold.Version>
5.8.1

> <Gold.Id.Protein>
6NUR|6NUR_protein|mol2

> <Gold.PLP.Fitness>
39.5080

> <Gold.PLP.PLP>
-29.3264

> <Gold.PLP.part.hbond>
-5.8787

> <Gold.PLP.part.metal>
0.0000

> <Gold.PLP.part.buried>
-2.4943

> <Gold.PLP.part.nonpolar>
-21.1543

> <Gold.PLP.part.repulsive>
0.0860

> <Gold.PLP.ligand.clash>
0.0000

> <Gold.PLP.ligand.torsion>
1.7416

> <Gold.PLP.Chemscore.Hbond>
4.0168

> <Gold.PLP.Chemscore.CHOScore>
0.0000

> <Gold.PLP.Chemscore.Metal>
0.0000

> <Gold.Chemscore.Hbonds>
donor molecule, donor type, donor heavy atom, donor atom, acceptor molecule, acceptor atom, score
      L1  H    16    41       P1  8028  0.84
      P1  H  6896  6908       L1     5  1.00
      P1  H  7997  8009       L1    20  0.95
      P1  H 11000 11005       L1    27  0.78

> <Gold.PLP.Chemscore.Internal.Correction>
1.6141

> <Gold.Rescore>
     Score         DG    S(hbond)    S(metal)    S(lipo)     H(rot)  DE(clash)    DE(int)     intcor
      9.78     -15.07       3.24        0.00      66.19       3.51       1.55       3.74       ----

> <Gold.Chemscore.Fitness>
9.7770

> <Gold.Chemscore.DG>
-15.0652

> <Gold.Chemscore.ZeroCoef>
-5.4800

> <Gold.Chemscore.Hbond>
3.2384

> <Gold.Chemscore.Metal>
0.0000

> <Gold.Chemscore.Lipo>
66.1873

> <Gold.Chemscore.Internal_Hbond>
0.0000

> <Gold.Chemscore.DEClash>
1.5457

> <Gold.Chemscore.DEInternal>
3.7425

> <Gold.Chemscore.Rot>
3.5059

> <Gold.Chemscore.Internal.Correction>
   9.000000E+99

> <Gold.Chemscore.Hbonds>
donor molecule, donor type, donor heavy atom, donor atom, acceptor molecule, acceptor atom, score
      L1  H    16    41       P1  8028  0.82
      P1  H  6896  6908       L1     5  0.36
      P1  H  7997  8009       L1    20  0.20
      P1  H 11000 11005       L1    27  0.65

> <Gold.Chemscore.Hbond.Weighted>
-10.8163

> <Gold.Chemscore.Metal.Weighted>
-0.0000

> <Gold.Chemscore.Lipo.Weighted>
-7.7439

> <Gold.Chemscore.Internal_Hbond.Weighted>
0.0000

> <Gold.Chemscore.DEClash.Weighted>
1.5457

> <Gold.Chemscore.DEInternal.Weighted>
3.7425

> <Gold.Chemscore.Rot.Weighted>
8.9750

> <Gold.Chemscore.Internal.Correction.Weighted>
   9.000000E+99

> <Gold.Protein.RotatedTorsions>
[ 6907 6896 6895 6894 ] final  176.78 input  -60.11 | X-H torsion
[ 7974 7965 7964 7962 ] final -177.23 input  175.53 | X-H torsion
[ 8008 7997 7996 7995 ] final -178.32 input   59.86 | X-H torsion
[ 10167 10162 10161 10158 ] final  -69.74 input  -65.29 | X-H torsion
[ 10718 10713 10712 10709 ] final -174.03 input   66.30 | X-H torsion
[ 10763 10752 10751 10750 ] final    0.25 input  -60.55 | X-H torsion
[ 11005 11000 10999 10996 ] final -132.64 input  -57.11 | X-H torsion

> <Gold.Protein.ActiveResidues>
 VAL166  LYS551  ARG553  GLY616  TRP617  ASP618  TYR619  PRO620  LYS621  CYS622 
 ASP623  PHE694  ASN695  SER759  ASP760  ASP761  ALA762  ILE779  LEU786  VAL792 
 PHE793  MET794  SER795  GLU796  ALA797  LYS798  CYS799  TRP800  GLU811  SER814 

> <Gold.Protein.RotatedAtoms>
  151.7147  133.3313  159.3299 H   0  0  0  0  0  0  0  0  0  0  0  0  # atno 6907 bound_to 6896
  150.7679  134.6501  159.6293 H   0  0  0  0  0  0  0  0  0  0  0  0  # atno 6908 bound_to 6896
  152.3690  134.6765  160.0234 H   0  0  0  0  0  0  0  0  0  0  0  0  # atno 6909 bound_to 6896
  144.7127  140.1050  143.6414 H   0  0  0  0  0  0  0  0  0  0  0  0  # atno 7974 bound_to 7965
  156.0174  140.1253  157.0392 H   0  0  0  0  0  0  0  0  0  0  0  0  # atno 8008 bound_to 7997
  154.4298  140.1075  156.5985 H   0  0  0  0  0  0  0  0  0  0  0  0  # atno 8009 bound_to 7997
  155.5993  140.3470  155.4591 H   0  0  0  0  0  0  0  0  0  0  0  0  # atno 8010 bound_to 7997
  140.5407  143.2315  151.7094 H   0  0  0  0  0  0  0  0  0  0  0  0  # atno 10167 bound_to 10162
  156.7791  130.9477  151.3120 H   0  0  0  0  0  0  0  0  0  0  0  0  # atno 10718 bound_to 10713
  153.3231  135.6970  153.7013 H   0  0  0  0  0  0  0  0  0  0  0  0  # atno 10763 bound_to 10752
  153.5845  135.3491  155.2888 H   0  0  0  0  0  0  0  0  0  0  0  0  # atno 10764 bound_to 10752
  154.8602  135.4303  154.2400 H   0  0  0  0  0  0  0  0  0  0  0  0  # atno 10765 bound_to 10752
  140.9152  134.1516  157.4358 H   0  0  0  0  0  0  0  0  0  0  0  0  # atno 11005 bound_to 11000
  145.9504  139.2730  143.1215 LP  0  0  0  0  0  0  0  0  0  0  0  0  # atno 17320 bound_to 7965
  145.9329  140.9035  143.0347 LP  0  0  0  0  0  0  0  0  0  0  0  0  # atno 17321 bound_to 7965
  139.4988  144.3973  152.0218 LP  0  0  0  0  0  0  0  0  0  0  0  0  # atno 17342 bound_to 10162
  140.3081  144.3569  150.6041 LP  0  0  0  0  0  0  0  0  0  0  0  0  # atno 17343 bound_to 10162
  157.6655  130.9003  149.9922 LP  0  0  0  0  0  0  0  0  0  0  0  0  # atno 17370 bound_to 10713
  156.1229  130.3645  149.9857 LP  0  0  0  0  0  0  0  0  0  0  0  0  # atno 17371 bound_to 10713
  139.8764  134.9951  156.5725 LP  0  0  0  0  0  0  0  0  0  0  0  0  # atno 17394 bound_to 11000
  140.8059  133.8468  155.8767 LP  0  0  0  0  0  0  0  0  0  0  0  0  # atno 17395 bound_to 11000

$$$$
