AV-unprocessed.smi:2079|AV-procd|sdf|8485|dock7
  -GOLD-   2272011193D 1   1.00000     0.00000
 Structure written by MMmdl.
 41 42  0  0  0  0  0  0  0  0  3 V2000
  153.5642  142.0595  161.4139 C   0  0  0  0  0  0  0  0  0  0  0  0
  153.1595  141.4766  160.1036 C   0  0  0  0  0  0  0  0  0  0  0  0
  152.1270  141.7383  159.2477 C   0  0  0  0  0  0  0  0  0  0  0  0
  152.3469  140.8181  158.1881 C   0  0  0  0  0  0  0  0  0  0  0  0
  151.4690  140.7749  157.0726 N   0  0  0  0  0  0  0  0  0  0  0  0
  151.6567  140.1911  155.8748 C   0  0  0  0  0  0  0  0  0  0  0  0
  152.7035  139.5770  155.6355 O   0  0  0  0  0  0  0  0  0  0  0  0
  150.5934  140.3676  155.0420 N   0  5  0  0  0  0  0  0  0  0  0  0
  149.6710  139.3105  154.6303 C   0  0  0  0  0  0  0  0  0  0  0  0
  148.6970  139.8345  153.5549 C   0  0  0  0  0  0  0  0  0  0  0  0
  147.6922  138.8071  153.1681 N   0  3  2  0  0  0  0  0  0  0  0  0
  146.7986  139.2169  152.0462 C   0  0  0  0  0  0  0  0  0  0  0  0
  145.9594  138.0283  151.5491 C   0  0  0  0  0  0  0  0  0  0  0  0
  145.1566  137.3979  152.6940 C   0  0  0  0  0  0  0  0  0  0  0  0
  146.0926  137.0252  153.8538 C   0  0  0  0  0  0  0  0  0  0  0  0
  146.9433  138.2248  154.3218 C   0  0  2  0  0  0  0  0  0  0  0  0
  146.1117  139.2675  155.1007 C   0  0  0  0  0  0  0  0  0  0  0  0
  153.4160  140.0604  158.3832 N   0  0  0  0  0  0  0  0  0  0  0  0
  153.9425  140.4791  159.6108 O   0  0  0  0  0  0  0  0  0  0  0  0
  152.7900  142.7219  161.8015 H   0  0  0  0  0  0  0  0  0  0  0  0
  154.4833  142.6363  161.3112 H   0  0  0  0  0  0  0  0  0  0  0  0
  153.7369  141.2745  162.1501 H   0  0  0  0  0  0  0  0  0  0  0  0
  151.3433  142.4725  159.3610 H   0  0  0  0  0  0  0  0  0  0  0  0
  150.5911  141.2587  157.1900 H   0  0  0  0  0  0  0  0  0  0  0  0
  150.2154  138.4568  154.2265 H   0  0  0  0  0  0  0  0  0  0  0  0
  149.0963  138.9148  155.4691 H   0  0  0  0  0  0  0  0  0  0  0  0
  148.1860  140.7070  153.9647 H   0  0  0  0  0  0  0  0  0  0  0  0
  149.2347  140.1840  152.6719 H   0  0  0  0  0  0  0  0  0  0  0  0
  146.1516  140.0364  152.3598 H   0  0  0  0  0  0  0  0  0  0  0  0
  147.3910  139.5982  151.2141 H   0  0  0  0  0  0  0  0  0  0  0  0
  145.2854  138.3533  150.7559 H   0  0  0  0  0  0  0  0  0  0  0  0
  146.6168  137.2780  151.1078 H   0  0  0  0  0  0  0  0  0  0  0  0
  144.3912  138.0943  153.0369 H   0  0  0  0  0  0  0  0  0  0  0  0
  144.6293  136.5125  152.3381 H   0  0  0  0  0  0  0  0  0  0  0  0
  145.5157  136.6208  154.6863 H   0  0  0  0  0  0  0  0  0  0  0  0
  146.7564  136.2227  153.5289 H   0  0  0  0  0  0  0  0  0  0  0  0
  147.6868  137.8280  155.0150 H   0  0  0  0  0  0  0  0  0  0  0  0
  145.6146  138.8028  155.9523 H   0  0  0  0  0  0  0  0  0  0  0  0
  145.3372  139.7259  154.4869 H   0  0  0  0  0  0  0  0  0  0  0  0
  146.7348  140.0696  155.4960 H   0  0  0  0  0  0  0  0  0  0  0  0
  148.2448  138.0412  152.8098 H   0  0  0  0  0  0  0  0  0  0  0  0
  1  2  1  0  0  0  0
  1 20  1  0  0  0  0
  1 21  1  0  0  0  0
  1 22  1  0  0  0  0
  2 19  1  0  0  0  0
  2  3  2  0  0  0  0
  3  4  1  0  0  0  0
  3 23  1  0  0  0  0
  4  5  1  0  0  0  0
  4 18  2  0  0  0  0
  5  6  1  0  0  0  0
  5 24  1  0  0  0  0
  6  7  2  0  0  0  0
  6  8  1  0  0  0  0
  8  9  1  0  0  0  0
  9 10  1  0  0  0  0
  9 25  1  0  0  0  0
  9 26  1  0  0  0  0
 10 11  1  0  0  0  0
 10 27  1  0  0  0  0
 10 28  1  0  0  0  0
 11 16  1  0  0  0  0
 11 12  1  0  0  0  0
 11 41  1  0  0  0  0
 12 13  1  0  0  0  0
 12 29  1  0  0  0  0
 12 30  1  0  0  0  0
 13 14  1  0  0  0  0
 13 31  1  0  0  0  0
 13 32  1  0  0  0  0
 14 15  1  0  0  0  0
 14 33  1  0  0  0  0
 14 34  1  0  0  0  0
 15 16  1  0  0  0  0
 15 35  1  0  0  0  0
 15 36  1  0  0  0  0
 16 17  1  0  0  0  0
 16 37  1  0  0  0  0
 17 38  1  0  0  0  0
 17 39  1  0  0  0  0
 17 40  1  0  0  0  0
 18 19  1  0  0  0  0
M  CHG  1   8  -1
M  CHG  1  11   1
M  END
> <s_m_source_file>
AV-unprocessed.smi

> <i_m_source_file_index>
2079

> <i_lp_mmshare_version>
43012

> <i_f3d_flags>
0

> <s_epik_input>
W0NIM11jMVtjSF1jKG5vMSlbTkhdQyg9TylbTkhdW0NIMl1bQ0gyXU4yW0NIMl1bQ0gyXVtDSDJdW0NIMl1bQ0BIXTJbQ0gzXQ==

> <s_epik_cmdline>
J2VwaWtfcHl0aG9uJywgJy1waCcsICc3LjAnLCAnLXRuJywgJzgnLCAnLW1hJywgJzIwMCcsICctbWV0YWxfYmluZGluZycsICctaW1hZScsICc8aW5maWxlLm1hZT4nLCAnLW9tYWUnLCAnPG91dGZpbGUubWFlPic=

> <r_epik_Ionization_Penalty>
6.7666

> <r_epik_Ionization_Penalty_Charging>
6.7666

> <r_epik_Ionization_Penalty_Neutral>
5.77131e-06

> <r_epik_State_Penalty>
6.79217

> <r_epik_Charging_Adjusted_Penalty>
13.5588

> <i_epik_Tot_Q>
0

> <i_epik_Tot_abs_Q>
2

> <r_epik_Metal_State_Penalty>
2.72569

> <b_epik_Metal_Only>
1

> <s_lp_Force_Field>
OPLS_2005

> <r_lp_Energy>
14.7709

> <b_lp_Chiralities_Consistent>
1

> <s_lp_Variant>
AV-unprocessed.smi:2079-11

> <Gold.Version>
5.8.1

> <Gold.Id.Protein>
6NUR|6NUR_protein|mol2

> <Gold.PLP.Fitness>
42.1688

> <Gold.PLP.PLP>
-30.3935

> <Gold.PLP.part.hbond>
-5.0000

> <Gold.PLP.part.metal>
0.0000

> <Gold.PLP.part.buried>
4.7028

> <Gold.PLP.part.nonpolar>
-30.4879

> <Gold.PLP.part.repulsive>
0.1947

> <Gold.PLP.ligand.clash>
0.0000

> <Gold.PLP.ligand.torsion>
0.7573

> <Gold.PLP.Chemscore.Hbond>
4.3870

> <Gold.PLP.Chemscore.CHOScore>
0.0000

> <Gold.PLP.Chemscore.Metal>
0.0000

> <Gold.Chemscore.Hbonds>
donor molecule, donor type, donor heavy atom, donor atom, acceptor molecule, acceptor atom, score
      L1  H    11    41       P1  7948  1.43
      P1  H  7989  7998       L1     8  0.80
      P1  H  7997  8008       L1    18  0.46
      P1  H  7997  8009       L1     7  0.85

> <Gold.PLP.Chemscore.Internal.Correction>
0.1291

> <Gold.Rescore>
     Score         DG    S(hbond)    S(metal)    S(lipo)     H(rot)  DE(clash)    DE(int)     intcor
     14.06     -17.90       2.42        0.00      70.68       1.54       1.76       2.07       ----

> <Gold.Chemscore.Fitness>
14.0600

> <Gold.Chemscore.DG>
-17.8964

> <Gold.Chemscore.ZeroCoef>
-5.4800

> <Gold.Chemscore.Hbond>
2.4228

> <Gold.Chemscore.Metal>
0.0000

> <Gold.Chemscore.Lipo>
70.6750

> <Gold.Chemscore.Internal_Hbond>
0.0000

> <Gold.Chemscore.DEClash>
1.7615

> <Gold.Chemscore.DEInternal>
2.0749

> <Gold.Chemscore.Rot>
1.5409

> <Gold.Chemscore.Internal.Correction>
   9.000000E+99

> <Gold.Chemscore.Hbonds>
donor molecule, donor type, donor heavy atom, donor atom, acceptor molecule, acceptor atom, score
      L1  H    11    41       P1  7948  0.71
      P1  H  7989  7998       L1     8  0.07
      P1  H  7997  8008       L1    18  0.09
      P1  H  7997  8009       L1     7  0.82

> <Gold.Chemscore.Hbond.Weighted>
-8.0920

> <Gold.Chemscore.Metal.Weighted>
-0.0000

> <Gold.Chemscore.Lipo.Weighted>
-8.2690

> <Gold.Chemscore.Internal_Hbond.Weighted>
0.0000

> <Gold.Chemscore.DEClash.Weighted>
1.7615

> <Gold.Chemscore.DEInternal.Weighted>
2.0749

> <Gold.Chemscore.Rot.Weighted>
3.9446

> <Gold.Chemscore.Internal.Correction.Weighted>
   9.000000E+99

> <Gold.Protein.RotatedTorsions>
[ 6907 6896 6895 6894 ] final -167.85 input  -60.11 | X-H torsion
[ 7974 7965 7964 7962 ] final    6.14 input  175.53 | X-H torsion
[ 8008 7997 7996 7995 ] final -123.42 input   59.86 | X-H torsion
[ 10167 10162 10161 10158 ] final -145.45 input  -65.29 | X-H torsion
[ 10718 10713 10712 10709 ] final  -61.08 input   66.30 | X-H torsion
[ 10763 10752 10751 10750 ] final  103.74 input  -60.55 | X-H torsion
[ 11005 11000 10999 10996 ] final   -5.86 input  -57.11 | X-H torsion

> <Gold.Protein.ActiveResidues>
 VAL166  LYS551  ARG553  GLY616  TRP617  ASP618  TYR619  PRO620  LYS621  CYS622 
 ASP623  PHE694  ASN695  SER759  ASP760  ASP761  ALA762  ILE779  LEU786  VAL792 
 PHE793  MET794  SER795  GLU796  ALA797  LYS798  CYS799  TRP800  GLU811  SER814 

> <Gold.Protein.RotatedAtoms>
  151.4662  133.3580  159.2816 H   0  0  0  0  0  0  0  0  0  0  0  0  # atno 6907 bound_to 6896
  150.8992  134.8404  159.7359 H   0  0  0  0  0  0  0  0  0  0  0  0  # atno 6908 bound_to 6896
  152.4869  134.4580  159.9648 H   0  0  0  0  0  0  0  0  0  0  0  0  # atno 6909 bound_to 6896
  146.2436  140.0278  142.8392 H   0  0  0  0  0  0  0  0  0  0  0  0  # atno 7974 bound_to 7965
  155.1803  140.0410  157.2881 H   0  0  0  0  0  0  0  0  0  0  0  0  # atno 8008 bound_to 7997
  154.6208  140.2500  155.7524 H   0  0  0  0  0  0  0  0  0  0  0  0  # atno 8009 bound_to 7997
  156.2432  140.2895  156.0515 H   0  0  0  0  0  0  0  0  0  0  0  0  # atno 8010 bound_to 7997
  139.7805  143.8108  152.2638 H   0  0  0  0  0  0  0  0  0  0  0  0  # atno 10167 bound_to 10162
  156.0946  130.4195  150.0944 H   0  0  0  0  0  0  0  0  0  0  0  0  # atno 10718 bound_to 10713
  153.3566  135.3966  155.1687 H   0  0  0  0  0  0  0  0  0  0  0  0  # atno 10763 bound_to 10752
  154.8672  135.3669  154.5153 H   0  0  0  0  0  0  0  0  0  0  0  0  # atno 10764 bound_to 10752
  153.5609  135.7081  153.5608 H   0  0  0  0  0  0  0  0  0  0  0  0  # atno 10765 bound_to 10752
  140.6957  133.9033  155.8648 H   0  0  0  0  0  0  0  0  0  0  0  0  # atno 11005 bound_to 11000
  145.1182  140.9446  143.4616 LP  0  0  0  0  0  0  0  0  0  0  0  0  # atno 17320 bound_to 7965
  145.0507  139.3183  143.5930 LP  0  0  0  0  0  0  0  0  0  0  0  0  # atno 17321 bound_to 7965
  139.8169  144.7312  150.9623 LP  0  0  0  0  0  0  0  0  0  0  0  0  # atno 17342 bound_to 10162
  140.7818  143.4196  151.0862 LP  0  0  0  0  0  0  0  0  0  0  0  0  # atno 17343 bound_to 10162
  156.8945  130.9600  151.3584 LP  0  0  0  0  0  0  0  0  0  0  0  0  # atno 17370 bound_to 10713
  157.6104  130.8579  149.8942 LP  0  0  0  0  0  0  0  0  0  0  0  0  # atno 17371 bound_to 10713
  141.0205  134.0895  157.4125 LP  0  0  0  0  0  0  0  0  0  0  0  0  # atno 17394 bound_to 11000
  139.8911  135.0116  156.6772 LP  0  0  0  0  0  0  0  0  0  0  0  0  # atno 17395 bound_to 11000

$$$$
