AV-unprocessed.smi:1593|AV-procd|sdf|6412|dock3
  -GOLD-   22720 7 43D 1   1.00000     0.00000
 Structure written by MMmdl.
 36 37  0  0  0  0  0  0  0  0  3 V2000
  146.2225  133.8945  162.2222 C   0  0  0  0  0  0  0  0  0  0  0  0
  147.1119  134.8280  161.4751 C   0  0  0  0  0  0  0  0  0  0  0  0
  148.1136  134.6327  160.5670 C   0  0  0  0  0  0  0  0  0  0  0  0
  148.5297  135.9554  160.2532 C   0  0  0  0  0  0  0  0  0  0  0  0
  149.5114  136.2918  159.4023 N   0  5  0  0  0  0  0  0  0  0  0  0
  149.2268  136.5661  158.1091 C   0  0  0  0  0  0  0  0  0  0  0  0
  148.2052  137.1098  157.6828 O   0  0  0  0  0  0  0  0  0  0  0  0
  150.1845  136.1816  157.2533 N   0  0  0  0  0  0  0  0  0  0  0  0
  150.1446  136.3434  155.8049 C   0  0  0  0  0  0  0  0  0  0  0  0
  150.3841  135.0032  155.0843 C   0  0  0  0  0  0  0  0  0  0  0  0
  149.2424  134.6153  154.2201 N   0  3  0  0  0  0  0  0  0  0  0  0
  149.4938  133.3523  153.4856 C   0  0  0  0  0  0  0  0  0  0  0  0
  148.3073  133.0183  152.5658 C   0  0  0  0  0  0  0  0  0  0  0  0
  147.1145  132.9360  153.3355 O   0  0  0  0  0  0  0  0  0  0  0  0
  146.8117  134.1677  153.9791 C   0  0  0  0  0  0  0  0  0  0  0  0
  147.9489  134.5425  154.9446 C   0  0  0  0  0  0  0  0  0  0  0  0
  147.8525  136.8713  160.9249 N   0  0  0  0  0  0  0  0  0  0  0  0
  146.9358  136.1566  161.7052 O   0  0  0  0  0  0  0  0  0  0  0  0
  146.5920  132.8708  162.1594 H   0  0  0  0  0  0  0  0  0  0  0  0
  145.2121  133.9158  161.8139 H   0  0  0  0  0  0  0  0  0  0  0  0
  146.1692  134.1698  163.2756 H   0  0  0  0  0  0  0  0  0  0  0  0
  148.4868  133.6947  160.1843 H   0  0  0  0  0  0  0  0  0  0  0  0
  151.0064  135.7446  157.6446 H   0  0  0  0  0  0  0  0  0  0  0  0
  149.1904  136.7884  155.5217 H   0  0  0  0  0  0  0  0  0  0  0  0
  150.9170  137.0598  155.5241 H   0  0  0  0  0  0  0  0  0  0  0  0
  151.2795  135.1059  154.4691 H   0  0  0  0  0  0  0  0  0  0  0  0
  150.5908  134.2027  155.7964 H   0  0  0  0  0  0  0  0  0  0  0  0
  150.4029  133.4435  152.8898 H   0  0  0  0  0  0  0  0  0  0  0  0
  149.6564  132.5409  154.1971 H   0  0  0  0  0  0  0  0  0  0  0  0
  148.1978  133.7700  151.7821 H   0  0  0  0  0  0  0  0  0  0  0  0
  148.4741  132.0625  152.0688 H   0  0  0  0  0  0  0  0  0  0  0  0
  146.6563  134.9521  153.2364 H   0  0  0  0  0  0  0  0  0  0  0  0
  145.8755  134.0586  154.5269 H   0  0  0  0  0  0  0  0  0  0  0  0
  148.0168  133.8022  155.7433 H   0  0  0  0  0  0  0  0  0  0  0  0
  147.7185  135.4977  155.4149 H   0  0  0  0  0  0  0  0  0  0  0  0
  149.1525  135.3380  153.5202 H   0  0  0  0  0  0  0  0  0  0  0  0
  1  2  1  0  0  0  0
  1 19  1  0  0  0  0
  1 20  1  0  0  0  0
  1 21  1  0  0  0  0
  2 18  1  0  0  0  0
  2  3  2  0  0  0  0
  3  4  1  0  0  0  0
  3 22  1  0  0  0  0
  4  5  1  0  0  0  0
  4 17  2  0  0  0  0
  5  6  1  0  0  0  0
  6  7  2  0  0  0  0
  6  8  1  0  0  0  0
  8  9  1  0  0  0  0
  8 23  1  0  0  0  0
  9 10  1  0  0  0  0
  9 24  1  0  0  0  0
  9 25  1  0  0  0  0
 10 11  1  0  0  0  0
 10 26  1  0  0  0  0
 10 27  1  0  0  0  0
 11 16  1  0  0  0  0
 11 12  1  0  0  0  0
 11 36  1  0  0  0  0
 12 13  1  0  0  0  0
 12 28  1  0  0  0  0
 12 29  1  0  0  0  0
 13 14  1  0  0  0  0
 13 30  1  0  0  0  0
 13 31  1  0  0  0  0
 14 15  1  0  0  0  0
 15 16  1  0  0  0  0
 15 32  1  0  0  0  0
 15 33  1  0  0  0  0
 16 34  1  0  0  0  0
 16 35  1  0  0  0  0
 17 18  1  0  0  0  0
M  CHG  1   5  -1
M  CHG  1  11   1
M  END
> <s_m_source_file>
AV-unprocessed.smi

> <i_m_source_file_index>
1593

> <i_lp_mmshare_version>
43012

> <i_f3d_flags>
0

> <s_epik_input>
W0NIM11jMVtjSF1jKG5vMSlbTkhdQyg9TylbTkhdW0NIMl1bQ0gyXU4yW0NIMl1bQ0gyXU9bQ0gyXVtDSDJdMg==

> <s_epik_cmdline>
J2VwaWtfcHl0aG9uJywgJy1waCcsICc3LjAnLCAnLXRuJywgJzgnLCAnLW1hJywgJzIwMCcsICctbWV0YWxfYmluZGluZycsICctaW1hZScsICc8aW5maWxlLm1hZT4nLCAnLW9tYWUnLCAnPG91dGZpbGUubWFlPic=

> <r_epik_Ionization_Penalty>
6.73013

> <r_epik_Ionization_Penalty_Charging>
6.73004

> <r_epik_Ionization_Penalty_Neutral>
9.27027e-05

> <r_epik_State_Penalty>
6.93052

> <r_epik_Charging_Adjusted_Penalty>
13.6606

> <i_epik_Tot_Q>
0

> <i_epik_Tot_abs_Q>
2

> <r_epik_Metal_State_Penalty>
2.86736

> <b_epik_Metal_Only>
1

> <s_lp_Force_Field>
OPLS_2005

> <r_lp_Energy>
3.0075

> <b_lp_Chiralities_Consistent>
1

> <s_lp_Variant>
AV-unprocessed.smi:1593-4

> <Gold.Version>
5.8.1

> <Gold.Id.Protein>
6NUR|6NUR_protein|mol2

> <Gold.PLP.Fitness>
40.2208

> <Gold.PLP.PLP>
-26.1309

> <Gold.PLP.part.hbond>
-4.0000

> <Gold.PLP.part.metal>
0.0000

> <Gold.PLP.part.buried>
-4.5828

> <Gold.PLP.part.nonpolar>
-18.3066

> <Gold.PLP.part.repulsive>
0.1875

> <Gold.PLP.ligand.clash>
0.0000

> <Gold.PLP.ligand.torsion>
1.3850

> <Gold.PLP.Chemscore.Hbond>
5.5933

> <Gold.PLP.Chemscore.CHOScore>
0.0000

> <Gold.PLP.Chemscore.Metal>
0.0000

> <Gold.Chemscore.Hbonds>
donor molecule, donor type, donor heavy atom, donor atom, acceptor molecule, acceptor atom, score
      L1  H    11    36       P1  7948  2.00
      P1  H  6896  6908       L1     5  2.00
      P1  H  6931  6943       L1    17  0.93
      P1  H  6934  6947       L1    17  0.39

> <Gold.PLP.Chemscore.Internal.Correction>
0.0801

> <Gold.Rescore>
     Score         DG    S(hbond)    S(metal)    S(lipo)     H(rot)  DE(clash)    DE(int)     intcor
     14.48     -15.85       2.73        0.00      46.09       1.62       0.00       1.36       ----

> <Gold.Chemscore.Fitness>
14.4846

> <Gold.Chemscore.DG>
-15.8472

> <Gold.Chemscore.ZeroCoef>
-5.4800

> <Gold.Chemscore.Hbond>
2.7331

> <Gold.Chemscore.Metal>
0.0000

> <Gold.Chemscore.Lipo>
46.0929

> <Gold.Chemscore.Internal_Hbond>
0.0000

> <Gold.Chemscore.DEClash>
0.0000

> <Gold.Chemscore.DEInternal>
1.3625

> <Gold.Chemscore.Rot>
1.6228

> <Gold.Chemscore.Internal.Correction>
   9.000000E+99

> <Gold.Chemscore.Hbonds>
donor molecule, donor type, donor heavy atom, donor atom, acceptor molecule, acceptor atom, score
      L1  H    11    36       P1  7948  0.40
      P1  H  6896  6908       L1     5  0.32
      P1  H  6931  6943       L1    17  0.70
      P1  H  6934  6947       L1    17  0.23

> <Gold.Chemscore.Hbond.Weighted>
-9.1286

> <Gold.Chemscore.Metal.Weighted>
-0.0000

> <Gold.Chemscore.Lipo.Weighted>
-5.3929

> <Gold.Chemscore.Internal_Hbond.Weighted>
0.0000

> <Gold.Chemscore.DEClash.Weighted>
0.0000

> <Gold.Chemscore.DEInternal.Weighted>
1.3625

> <Gold.Chemscore.Rot.Weighted>
4.1542

> <Gold.Chemscore.Internal.Correction.Weighted>
   9.000000E+99

> <Gold.Protein.RotatedTorsions>
[ 6907 6896 6895 6894 ] final -169.07 input  -60.11 | X-H torsion
[ 7974 7965 7964 7962 ] final   98.65 input  175.53 | X-H torsion
[ 8008 7997 7996 7995 ] final  -65.48 input   59.86 | X-H torsion
[ 10167 10162 10161 10158 ] final    0.25 input  -65.29 | X-H torsion
[ 10718 10713 10712 10709 ] final  164.31 input   66.30 | X-H torsion
[ 10763 10752 10751 10750 ] final  -39.21 input  -60.55 | X-H torsion
[ 11005 11000 10999 10996 ] final   30.19 input  -57.11 | X-H torsion

> <Gold.Protein.ActiveResidues>
 VAL166  LYS551  ARG553  GLY616  TRP617  ASP618  TYR619  PRO620  LYS621  CYS622 
 ASP623  PHE694  ASN695  SER759  ASP760  ASP761  ALA762  ILE779  LEU786  VAL792 
 PHE793  MET794  SER795  GLU796  ALA797  LYS798  CYS799  TRP800  GLU811  SER814 

> <Gold.Protein.RotatedAtoms>
  151.4856  133.3536  159.2844 H   0  0  0  0  0  0  0  0  0  0  0  0  # atno 6907 bound_to 6896
  150.8868  134.8269  159.7276 H   0  0  0  0  0  0  0  0  0  0  0  0  # atno 6908 bound_to 6896
  152.4798  134.4761  159.9703 H   0  0  0  0  0  0  0  0  0  0  0  0  # atno 6909 bound_to 6896
  145.4094  139.2336  143.3256 H   0  0  0  0  0  0  0  0  0  0  0  0  # atno 7974 bound_to 7965
  154.4674  140.0932  156.7056 H   0  0  0  0  0  0  0  0  0  0  0  0  # atno 8008 bound_to 7997
  155.4819  140.3468  155.4323 H   0  0  0  0  0  0  0  0  0  0  0  0  # atno 8009 bound_to 7997
  156.0980  140.1415  156.9493 H   0  0  0  0  0  0  0  0  0  0  0  0  # atno 8010 bound_to 7997
  140.6737  143.6977  150.7976 H   0  0  0  0  0  0  0  0  0  0  0  0  # atno 10167 bound_to 10162
  157.0962  131.0431  151.2517 H   0  0  0  0  0  0  0  0  0  0  0  0  # atno 10718 bound_to 10713
  153.9256  135.6777  153.4746 H   0  0  0  0  0  0  0  0  0  0  0  0  # atno 10763 bound_to 10752
  153.1006  135.4830  154.8856 H   0  0  0  0  0  0  0  0  0  0  0  0  # atno 10764 bound_to 10752
  154.7455  135.3171  154.8609 H   0  0  0  0  0  0  0  0  0  0  0  0  # atno 10765 bound_to 10752
  140.2970  134.2799  155.7762 H   0  0  0  0  0  0  0  0  0  0  0  0  # atno 11005 bound_to 11000
  146.2712  140.4803  142.8813 LP  0  0  0  0  0  0  0  0  0  0  0  0  # atno 17320 bound_to 7965
  144.8319  140.6721  143.6285 LP  0  0  0  0  0  0  0  0  0  0  0  0  # atno 17321 bound_to 7965
  140.0667  143.5101  152.2600 LP  0  0  0  0  0  0  0  0  0  0  0  0  # atno 17342 bound_to 10162
  139.6018  144.7584  151.3155 LP  0  0  0  0  0  0  0  0  0  0  0  0  # atno 17343 bound_to 10162
  157.4679  130.7692  149.7296 LP  0  0  0  0  0  0  0  0  0  0  0  0  # atno 17370 bound_to 10713
  155.9885  130.3958  150.3115 LP  0  0  0  0  0  0  0  0  0  0  0  0  # atno 17371 bound_to 10713
  141.2135  133.7622  156.9710 LP  0  0  0  0  0  0  0  0  0  0  0  0  # atno 17394 bound_to 11000
  140.1143  134.9457  157.2111 LP  0  0  0  0  0  0  0  0  0  0  0  0  # atno 17395 bound_to 11000

$$$$
