AV-unprocessed.smi:212|AV-procd|sdf|1624|dock8
  -GOLD-   2262019563D 1   1.00000     0.00000
 Structure written by MMmdl.
 65 68  0  0  0  0  0  0  0  0  2 V2000
  143.2109  137.7295  153.1495 C   0  0  0  0  0  0  0  0  0  0  0  0
  144.0988  136.4873  153.3558 C   0  0  1  0  0  0  0  0  0  0  0  0
  144.6256  135.8819  152.0359 C   0  0  0  0  0  0  0  0  0  0  0  0
  145.4268  134.6566  152.2921 N   0  3  1  0  0  0  0  0  0  0  0  0
  145.8990  133.9939  151.0479 C   0  0  0  0  0  0  0  0  0  0  0  0
  144.7730  133.2082  150.3383 C   0  0  0  0  0  0  0  0  0  0  0  0
  145.3583  131.9941  149.5976 C   0  0  0  0  0  0  0  0  0  0  0  0
  143.6649  132.7557  151.3069 C   0  0  0  0  0  0  0  0  0  0  0  0
  144.1927  134.0441  149.3560 O   0  0  0  0  0  0  0  0  0  0  0  0
  146.5068  134.8757  153.2888 C   0  0  0  0  0  0  0  0  0  0  0  0
  145.9442  135.4635  154.5967 C   0  0  0  0  0  0  0  0  0  0  0  0
  145.1791  136.6784  154.3328 N   0  0  0  0  0  0  0  0  0  0  0  0
  145.9558  137.7920  154.3109 C   0  0  0  0  0  0  0  0  0  0  0  0
  146.4340  138.2831  153.1374 N   0  0  0  0  0  0  0  0  0  0  0  0
  147.2199  139.3642  153.1302 C   0  0  0  0  0  0  0  0  0  0  0  0
  147.6503  140.0901  154.1639 N   0  0  0  0  0  0  0  0  0  0  0  0
  147.1807  139.5946  155.3442 C   0  0  0  0  0  0  0  0  0  0  0  0
  146.3391  138.4590  155.5059 C   0  0  0  0  0  0  0  0  0  0  0  0
  146.0700  138.2536  156.8533 N   0  0  0  0  0  0  0  0  0  0  0  0
  146.7152  139.2158  157.4554 C   0  0  0  0  0  0  0  0  0  0  0  0
  147.4037  140.0702  156.6236 N   0  0  0  0  0  0  0  0  0  0  0  0
  148.1993  141.2189  157.0203 C   0  0  0  0  0  0  0  0  0  0  0  0
  149.7258  140.9650  156.9438 C   0  0  1  0  0  0  0  0  0  0  0  0
  150.3392  141.3987  155.5902 C   0  0  0  0  0  0  0  0  0  0  0  0
  150.2123  140.3831  154.6159 O   0  0  0  0  0  0  0  0  0  0  0  0
  150.4657  141.5893  158.1536 C   0  0  2  0  0  0  0  0  0  0  0  0
  150.6507  143.0953  158.0856 C   0  0  0  0  0  0  0  0  0  0  0  0
  151.7629  143.3296  159.1019 C   0  0  0  0  0  0  0  0  0  0  0  0
  152.5755  142.1618  159.0597 O   0  0  0  0  0  0  0  0  0  0  0  0
  151.9223  141.1410  158.3122 C   0  0  0  0  0  0  0  0  0  0  0  0
  142.3355  137.4803  152.5493 H   0  0  0  0  0  0  0  0  0  0  0  0
  143.7317  138.5360  152.6345 H   0  0  0  0  0  0  0  0  0  0  0  0
  142.8519  138.1173  154.1033 H   0  0  0  0  0  0  0  0  0  0  0  0
  143.4476  135.7353  153.8040 H   0  0  0  0  0  0  0  0  0  0  0  0
  143.7839  135.6277  151.3905 H   0  0  0  0  0  0  0  0  0  0  0  0
  145.2307  136.6046  151.4879 H   0  0  0  0  0  0  0  0  0  0  0  0
  146.3145  134.7352  150.3625 H   0  0  0  0  0  0  0  0  0  0  0  0
  146.7263  133.3191  151.2741 H   0  0  0  0  0  0  0  0  0  0  0  0
  145.8277  131.2979  150.2935 H   0  0  0  0  0  0  0  0  0  0  0  0
  146.1166  132.2947  148.8732 H   0  0  0  0  0  0  0  0  0  0  0  0
  144.5864  131.4456  149.0563 H   0  0  0  0  0  0  0  0  0  0  0  0
  144.0682  132.1200  152.0958 H   0  0  0  0  0  0  0  0  0  0  0  0
  142.8945  132.1841  150.7879 H   0  0  0  0  0  0  0  0  0  0  0  0
  143.1707  133.6023  151.7845 H   0  0  0  0  0  0  0  0  0  0  0  0
  144.8863  134.4644  148.8698 H   0  0  0  0  0  0  0  0  0  0  0  0
  147.0093  133.9316  153.5006 H   0  0  0  0  0  0  0  0  0  0  0  0
  147.2571  135.5472  152.8683 H   0  0  0  0  0  0  0  0  0  0  0  0
  145.2859  134.7380  155.0762 H   0  0  0  0  0  0  0  0  0  0  0  0
  146.7545  135.6522  155.3021 H   0  0  0  0  0  0  0  0  0  0  0  0
  147.5530  139.6939  152.1571 H   0  0  0  0  0  0  0  0  0  0  0  0
  146.7012  139.3340  158.5293 H   0  0  0  0  0  0  0  0  0  0  0  0
  147.9259  142.0625  156.3854 H   0  0  0  0  0  0  0  0  0  0  0  0
  147.9052  141.4894  158.0346 H   0  0  0  0  0  0  0  0  0  0  0  0
  149.8678  139.8854  157.0071 H   0  0  0  0  0  0  0  0  0  0  0  0
  149.8583  142.3029  155.2177 H   0  0  0  0  0  0  0  0  0  0  0  0
  151.3944  141.6487  155.7005 H   0  0  0  0  0  0  0  0  0  0  0  0
  149.7765  139.6425  155.0095 H   0  0  0  0  0  0  0  0  0  0  0  0
  149.9299  141.3491  159.0736 H   0  0  0  0  0  0  0  0  0  0  0  0
  150.9849  143.3943  157.0909 H   0  0  0  0  0  0  0  0  0  0  0  0
  149.7454  143.6534  158.3256 H   0  0  0  0  0  0  0  0  0  0  0  0
  152.3417  144.2282  158.8870 H   0  0  0  0  0  0  0  0  0  0  0  0
  151.3465  143.4261  160.1054 H   0  0  0  0  0  0  0  0  0  0  0  0
  152.0104  140.1752  158.8102 H   0  0  0  0  0  0  0  0  0  0  0  0
  152.4116  141.0646  157.3403 H   0  0  0  0  0  0  0  0  0  0  0  0
  144.7869  134.0019  152.7191 H   0  0  0  0  0  0  0  0  0  0  0  0
  1  2  1  0  0  0  0
  1 31  1  0  0  0  0
  1 32  1  0  0  0  0
  1 33  1  0  0  0  0
  2 12  1  0  0  0  0
  2  3  1  0  0  0  0
  2 34  1  0  0  0  0
  3  4  1  0  0  0  0
  3 35  1  0  0  0  0
  3 36  1  0  0  0  0
  4  5  1  0  0  0  0
  4 10  1  0  0  0  0
  4 65  1  0  0  0  0
  5  6  1  0  0  0  0
  5 37  1  0  0  0  0
  5 38  1  0  0  0  0
  6  7  1  0  0  0  0
  6  8  1  0  0  0  0
  6  9  1  0  0  0  0
  7 39  1  0  0  0  0
  7 40  1  0  0  0  0
  7 41  1  0  0  0  0
  8 42  1  0  0  0  0
  8 43  1  0  0  0  0
  8 44  1  0  0  0  0
  9 45  1  0  0  0  0
 10 11  1  0  0  0  0
 10 46  1  0  0  0  0
 10 47  1  0  0  0  0
 11 12  1  0  0  0  0
 11 48  1  0  0  0  0
 11 49  1  0  0  0  0
 12 13  1  0  0  0  0
 13 18  1  0  0  0  0
 13 14  2  0  0  0  0
 14 15  1  0  0  0  0
 15 16  2  0  0  0  0
 15 50  1  0  0  0  0
 16 17  1  0  0  0  0
 17 21  1  0  0  0  0
 17 18  2  0  0  0  0
 18 19  1  0  0  0  0
 19 20  2  0  0  0  0
 20 21  1  0  0  0  0
 20 51  1  0  0  0  0
 21 22  1  0  0  0  0
 22 23  1  0  0  0  0
 22 52  1  0  0  0  0
 22 53  1  0  0  0  0
 23 24  1  0  0  0  0
 23 26  1  0  0  0  0
 23 54  1  0  0  0  0
 24 25  1  0  0  0  0
 24 55  1  0  0  0  0
 24 56  1  0  0  0  0
 25 57  1  0  0  0  0
 26 30  1  0  0  0  0
 26 27  1  0  0  0  0
 26 58  1  0  0  0  0
 27 28  1  0  0  0  0
 27 59  1  0  0  0  0
 27 60  1  0  0  0  0
 28 29  1  0  0  0  0
 28 61  1  0  0  0  0
 28 62  1  0  0  0  0
 29 30  1  0  0  0  0
 30 63  1  0  0  0  0
 30 64  1  0  0  0  0
M  CHG  1   4   1
M  END
> <s_m_source_file>
AV-unprocessed.smi

> <i_m_source_file_index>
212

> <i_lp_mmshare_version>
43012

> <i_f3d_flags>
0

> <s_epik_input>
W0NIM11bQ0BASF0xW0NIMl1OKFtDSDJdQyhbQ0gzXSkoW0NIM10pW09IXSlbQ0gyXVtDSDJdTjFjKG5bY0hdbjIpYyhjMjMpbltjSF1uM1tDSDJdW0NASF0oW0NIMl1bT0hdKVtDQEBIXTRbQ0gyXVtDSDJdT1tDSDJdNA==

> <s_epik_cmdline>
J2VwaWtfcHl0aG9uJywgJy1waCcsICc3LjAnLCAnLXRuJywgJzgnLCAnLW1hJywgJzIwMCcsICctbWV0YWxfYmluZGluZycsICctaW1hZScsICc8aW5maWxlLm1hZT4nLCAnLW9tYWUnLCAnPG91dGZpbGUubWFlPic=

> <r_lp_tautomer_probability>
1

> <r_epik_Ionization_Penalty>
0.00182193

> <r_epik_Ionization_Penalty_Charging>
0.00173996

> <r_epik_Ionization_Penalty_Neutral>
8.19718e-05

> <r_epik_State_Penalty>
-0

> <r_epik_Charging_Adjusted_Penalty>
0.00173996

> <i_epik_Tot_Q>
1

> <i_epik_Tot_abs_Q>
1

> <r_epik_Metal_State_Penalty>
-0

> <b_epik_Metal_Only>
0

> <s_lp_Force_Field>
OPLS_2005

> <r_lp_Energy>
58.8905

> <b_lp_Chiralities_Consistent>
1

> <s_lp_Variant>
AV-unprocessed.smi:212-8

> <Gold.Version>
5.8.1

> <Gold.Id.Protein>
6NUR|6NUR_protein|mol2

> <Gold.PLP.Fitness>
42.3996

> <Gold.PLP.PLP>
-37.7018

> <Gold.PLP.part.hbond>
-2.7440

> <Gold.PLP.part.metal>
0.0000

> <Gold.PLP.part.buried>
-6.1710

> <Gold.PLP.part.nonpolar>
-28.7126

> <Gold.PLP.part.repulsive>
0.3800

> <Gold.PLP.ligand.clash>
0.0000

> <Gold.PLP.ligand.torsion>
2.6097

> <Gold.PLP.Chemscore.Hbond>
1.9440

> <Gold.PLP.Chemscore.CHOScore>
1.0000

> <Gold.PLP.Chemscore.Metal>
0.0000

> <Gold.Chemscore.Hbonds>
donor molecule, donor type, donor heavy atom, donor atom, acceptor molecule, acceptor atom, score
      L1  H     9    45       P1  7921  1.00
      P1  H  7989  7998       L1    25  0.94
      L1  C    15    50       P1  7957  1.00

> <Gold.PLP.Chemscore.Internal.Correction>
1.0853

> <Gold.Rescore>
     Score         DG    S(hbond)    S(metal)    S(lipo)     H(rot)  DE(clash)    DE(int)     intcor
      8.74     -12.85       1.86        0.00      90.36       3.68       0.95       3.16       ----

> <Gold.Chemscore.Fitness>
8.7402

> <Gold.Chemscore.DG>
-12.8508

> <Gold.Chemscore.ZeroCoef>
-5.4800

> <Gold.Chemscore.Hbond>
1.8631

> <Gold.Chemscore.Metal>
0.0000

> <Gold.Chemscore.Lipo>
90.3600

> <Gold.Chemscore.Internal_Hbond>
0.0000

> <Gold.Chemscore.DEClash>
0.9547

> <Gold.Chemscore.DEInternal>
3.1559

> <Gold.Chemscore.Rot>
3.6812

> <Gold.Chemscore.Internal.Correction>
   9.000000E+99

> <Gold.Chemscore.Hbonds>
donor molecule, donor type, donor heavy atom, donor atom, acceptor molecule, acceptor atom, score
      L1  H     9    45       P1  7921  1.00
      P1  H  7989  7998       L1    25  0.20

> <Gold.Chemscore.Hbond.Weighted>
-6.2226

> <Gold.Chemscore.Metal.Weighted>
-0.0000

> <Gold.Chemscore.Lipo.Weighted>
-10.5721

> <Gold.Chemscore.Internal_Hbond.Weighted>
0.0000

> <Gold.Chemscore.DEClash.Weighted>
0.9547

> <Gold.Chemscore.DEInternal.Weighted>
3.1559

> <Gold.Chemscore.Rot.Weighted>
9.4239

> <Gold.Chemscore.Internal.Correction.Weighted>
   9.000000E+99

> <Gold.Protein.RotatedTorsions>
[ 6907 6896 6895 6894 ] final   13.25 input  -60.11 | X-H torsion
[ 7974 7965 7964 7962 ] final  109.51 input  175.53 | X-H torsion
[ 8008 7997 7996 7995 ] final -131.53 input   59.86 | X-H torsion
[ 10167 10162 10161 10158 ] final -169.36 input  -65.29 | X-H torsion
[ 10718 10713 10712 10709 ] final  113.04 input   66.30 | X-H torsion
[ 10763 10752 10751 10750 ] final -154.56 input  -60.55 | X-H torsion
[ 11005 11000 10999 10996 ] final    8.99 input  -57.11 | X-H torsion

> <Gold.Protein.ActiveResidues>
 VAL166  LYS551  ARG553  GLY616  TRP617  ASP618  TYR619  PRO620  LYS621  CYS622 
 ASP623  PHE694  ASN695  SER759  ASP760  ASP761  ALA762  ILE779  LEU786  VAL792 
 PHE793  MET794  SER795  GLU796  ALA797  LYS798  CYS799  TRP800  GLU811  SER814 

> <Gold.Protein.RotatedAtoms>
  151.7834  135.0755  160.0376 H   0  0  0  0  0  0  0  0  0  0  0  0  # atno 6907 bound_to 6896
  152.3207  133.5846  159.5751 H   0  0  0  0  0  0  0  0  0  0  0  0  # atno 6908 bound_to 6896
  150.7368  133.9931  159.3655 H   0  0  0  0  0  0  0  0  0  0  0  0  # atno 6909 bound_to 6896
  145.2669  139.2681  143.3987 H   0  0  0  0  0  0  0  0  0  0  0  0  # atno 7974 bound_to 7965
  155.3139  140.0458  157.3036 H   0  0  0  0  0  0  0  0  0  0  0  0  # atno 8008 bound_to 7997
  154.5418  140.2290  155.8595 H   0  0  0  0  0  0  0  0  0  0  0  0  # atno 8009 bound_to 7997
  156.1887  140.3056  155.9296 H   0  0  0  0  0  0  0  0  0  0  0  0  # atno 8010 bound_to 7997
  139.5927  144.1178  152.1653 H   0  0  0  0  0  0  0  0  0  0  0  0  # atno 10167 bound_to 10162
  157.6360  131.0977  150.6982 H   0  0  0  0  0  0  0  0  0  0  0  0  # atno 10718 bound_to 10713
  154.7850  135.3187  154.7907 H   0  0  0  0  0  0  0  0  0  0  0  0  # atno 10763 bound_to 10752
  153.8609  135.6853  153.4787 H   0  0  0  0  0  0  0  0  0  0  0  0  # atno 10764 bound_to 10752
  153.1498  135.4704  154.9559 H   0  0  0  0  0  0  0  0  0  0  0  0  # atno 10765 bound_to 10752
  140.5308  134.0468  155.7873 H   0  0  0  0  0  0  0  0  0  0  0  0  # atno 11005 bound_to 11000
  146.3258  140.3101  142.8626 LP  0  0  0  0  0  0  0  0  0  0  0  0  # atno 17320 bound_to 7965
  144.9369  140.8036  143.5654 LP  0  0  0  0  0  0  0  0  0  0  0  0  # atno 17321 bound_to 7965
  140.0756  144.5743  150.7159 LP  0  0  0  0  0  0  0  0  0  0  0  0  # atno 17342 bound_to 10162
  140.7187  143.2568  151.4351 LP  0  0  0  0  0  0  0  0  0  0  0  0  # atno 17343 bound_to 10162
  156.7314  130.4711  149.5499 LP  0  0  0  0  0  0  0  0  0  0  0  0  # atno 17370 bound_to 10713
  156.1600  130.6367  151.0706 LP  0  0  0  0  0  0  0  0  0  0  0  0  # atno 17371 bound_to 10713
  141.1282  133.9346  157.2590 LP  0  0  0  0  0  0  0  0  0  0  0  0  # atno 17394 bound_to 11000
  139.9555  135.0166  156.9116 LP  0  0  0  0  0  0  0  0  0  0  0  0  # atno 17395 bound_to 11000

$$$$
