AV-unprocessed.smi:1491|AV-procd|sdf|6032|dock2
  -GOLD-   22720 6133D 1   1.00000     0.00000
 Structure written by MMmdl.
 39 40  0  0  0  0  0  0  0  0  2 V2000
  147.3093  133.1656  154.7809 O   0  0  0  0  0  0  0  0  0  0  0  0
  147.7761  133.9065  153.9159 C   0  0  0  0  0  0  0  0  0  0  0  0
  148.8994  134.6218  154.0671 N   0  0  0  0  0  0  0  0  0  0  0  0
  149.7365  134.6346  155.2637 C   0  0  0  0  0  0  0  0  0  0  0  0
  149.7061  135.9851  156.0076 C   0  0  0  0  0  0  0  0  0  0  0  0
  150.7947  136.8792  155.6038 N   0  0  0  0  0  0  0  0  0  0  0  0
  150.9353  137.5245  154.4019 C   0  0  0  0  0  0  0  0  0  0  0  0
  152.0977  138.2472  154.4805 C   0  0  0  0  0  0  0  0  0  0  0  0
  152.6173  138.0111  155.7252 N   0  3  0  0  0  0  0  0  0  0  0  0
  151.8233  137.1790  156.4070 C   0  0  0  0  0  0  0  0  0  0  0  0
  147.2331  134.0840  152.7036 N   0  0  0  0  0  0  0  0  0  0  0  0
  146.0216  133.4275  152.2218 C   0  0  2  0  0  0  0  0  0  0  0  0
  146.3665  132.3479  151.1742 C   0  0  0  0  0  0  0  0  0  0  0  0
  145.0971  131.6951  150.6032 C   0  0  0  0  0  0  0  0  0  0  0  0
  144.1459  132.7512  150.0150 C   0  0  1  0  0  0  0  0  0  0  0  0
  142.9631  132.1242  149.5665 O   0  0  0  0  0  0  0  0  0  0  0  0
  143.7949  133.8238  151.0601 C   0  0  0  0  0  0  0  0  0  0  0  0
  145.0644  134.4783  151.6285 C   0  0  0  0  0  0  0  0  0  0  0  0
  149.1963  135.2053  153.2983 H   0  0  0  0  0  0  0  0  0  0  0  0
  149.3943  133.8383  155.9254 H   0  0  0  0  0  0  0  0  0  0  0  0
  150.7623  134.3850  154.9883 H   0  0  0  0  0  0  0  0  0  0  0  0
  148.7623  136.4977  155.8168 H   0  0  0  0  0  0  0  0  0  0  0  0
  149.7697  135.8435  157.0872 H   0  0  0  0  0  0  0  0  0  0  0  0
  150.2142  137.4253  153.6030 H   0  0  0  0  0  0  0  0  0  0  0  0
  152.5810  138.8943  153.7631 H   0  0  0  0  0  0  0  0  0  0  0  0
  151.9820  136.8205  157.4086 H   0  0  0  0  0  0  0  0  0  0  0  0
  147.6909  134.7167  152.0641 H   0  0  0  0  0  0  0  0  0  0  0  0
  145.5182  132.9515  153.0658 H   0  0  0  0  0  0  0  0  0  0  0  0
  146.9416  132.7923  150.3606 H   0  0  0  0  0  0  0  0  0  0  0  0
  147.0016  131.5804  151.6176 H   0  0  0  0  0  0  0  0  0  0  0  0
  145.3690  130.9668  149.8383 H   0  0  0  0  0  0  0  0  0  0  0  0
  144.5911  131.1396  151.3941 H   0  0  0  0  0  0  0  0  0  0  0  0
  144.6202  133.2259  149.1550 H   0  0  0  0  0  0  0  0  0  0  0  0
  142.2544  132.7471  149.6191 H   0  0  0  0  0  0  0  0  0  0  0  0
  143.1549  134.5864  150.6146 H   0  0  0  0  0  0  0  0  0  0  0  0
  143.2233  133.3764  151.8745 H   0  0  0  0  0  0  0  0  0  0  0  0
  144.7902  135.2075  152.3918 H   0  0  0  0  0  0  0  0  0  0  0  0
  145.5686  135.0343  150.8367 H   0  0  0  0  0  0  0  0  0  0  0  0
  153.4791  138.4069  156.0802 H   0  0  0  0  0  0  0  0  0  0  0  0
  1  2  2  0  0  0  0
  2  3  1  0  0  0  0
  2 11  1  0  0  0  0
  3  4  1  0  0  0  0
  3 19  1  0  0  0  0
  4  5  1  0  0  0  0
  4 20  1  0  0  0  0
  4 21  1  0  0  0  0
  5  6  1  0  0  0  0
  5 22  1  0  0  0  0
  5 23  1  0  0  0  0
  6 10  1  0  0  0  0
  6  7  1  0  0  0  0
  7  8  2  0  0  0  0
  7 24  1  0  0  0  0
  8  9  1  0  0  0  0
  8 25  1  0  0  0  0
  9 10  2  0  0  0  0
  9 39  1  0  0  0  0
 10 26  1  0  0  0  0
 11 12  1  0  0  0  0
 11 27  1  0  0  0  0
 12 18  1  0  0  0  0
 12 13  1  0  0  0  0
 12 28  1  0  0  0  0
 13 14  1  0  0  0  0
 13 29  1  0  0  0  0
 13 30  1  0  0  0  0
 14 15  1  0  0  0  0
 14 31  1  0  0  0  0
 14 32  1  0  0  0  0
 15 16  1  0  0  0  0
 15 17  1  0  0  0  0
 15 33  1  0  0  0  0
 16 34  1  0  0  0  0
 17 18  1  0  0  0  0
 17 35  1  0  0  0  0
 17 36  1  0  0  0  0
 18 37  1  0  0  0  0
 18 38  1  0  0  0  0
M  CHG  1   9   1
M  END
> <s_m_source_file>
AV-unprocessed.smi

> <i_m_source_file_index>
1491

> <i_lp_mmshare_version>
43012

> <i_f3d_flags>
0

> <s_epik_input>
W0NIMl0xW0NIMl1bQ0BIXShbT0hdKVtDSDJdW0NIMl1bQ0BIXTFbTkhdQyg9TylbTkhdW0NIMl1bQ0gyXW4yW2NIXVtjSF1uW2NIXTI=

> <s_epik_cmdline>
J2VwaWtfcHl0aG9uJywgJy1waCcsICc3LjAnLCAnLXRuJywgJzgnLCAnLW1hJywgJzIwMCcsICctbWV0YWxfYmluZGluZycsICctaW1hZScsICc8aW5maWxlLm1hZT4nLCAnLW9tYWUnLCAnPG91dGZpbGUubWFlPic=

> <r_lp_tautomer_probability>
1

> <r_epik_Ionization_Penalty>
0.254652

> <r_epik_Ionization_Penalty_Charging>
0

> <r_epik_Ionization_Penalty_Neutral>
0.254652

> <r_epik_State_Penalty>
0.246077

> <r_epik_Charging_Adjusted_Penalty>
0.246077

> <i_epik_Tot_Q>
1

> <i_epik_Tot_abs_Q>
1

> <r_epik_Metal_State_Penalty>
0.536042

> <b_epik_Metal_Only>
0

> <s_lp_Force_Field>
OPLS_2005

> <r_lp_Energy>
9.33043

> <b_lp_Chiralities_Consistent>
1

> <s_lp_Variant>
AV-unprocessed.smi:1491-1

> <Gold.Version>
5.8.1

> <Gold.Id.Protein>
6NUR|6NUR_protein|mol2

> <Gold.PLP.Fitness>
44.8107

> <Gold.PLP.PLP>
-31.8533

> <Gold.PLP.part.hbond>
-4.5773

> <Gold.PLP.part.metal>
0.0000

> <Gold.PLP.part.buried>
-5.1475

> <Gold.PLP.part.nonpolar>
-22.9925

> <Gold.PLP.part.repulsive>
0.2079

> <Gold.PLP.ligand.clash>
0.0000

> <Gold.PLP.ligand.torsion>
0.4727

> <Gold.PLP.Chemscore.Hbond>
3.5363

> <Gold.PLP.Chemscore.CHOScore>
1.0895

> <Gold.PLP.Chemscore.Metal>
0.0000

> <Gold.Chemscore.Hbonds>
donor molecule, donor type, donor heavy atom, donor atom, acceptor molecule, acceptor atom, score
      L1  H     3    19       P1  7948  0.90
      L1  H    11    27       P1  7948  0.96
      L1  H    16    34       P1 10186  0.88
      P1  H 10785 10796       L1    16  0.68
      L1  C     7    24       P1  7948  1.00
      L1  C     7    24       P1  7949  0.09

> <Gold.PLP.Chemscore.Internal.Correction>
0.0255

> <Gold.Rescore>
     Score         DG    S(hbond)    S(metal)    S(lipo)     H(rot)  DE(clash)    DE(int)     intcor
     15.17     -15.63       2.79        0.00      65.15       2.65       0.02       0.45       ----

> <Gold.Chemscore.Fitness>
15.1689

> <Gold.Chemscore.DG>
-15.6344

> <Gold.Chemscore.ZeroCoef>
-5.4800

> <Gold.Chemscore.Hbond>
2.7921

> <Gold.Chemscore.Metal>
0.0000

> <Gold.Chemscore.Lipo>
65.1467

> <Gold.Chemscore.Internal_Hbond>
0.0000

> <Gold.Chemscore.DEClash>
0.0202

> <Gold.Chemscore.DEInternal>
0.4452

> <Gold.Chemscore.Rot>
2.6536

> <Gold.Chemscore.Internal.Correction>
   9.000000E+99

> <Gold.Chemscore.Hbonds>
donor molecule, donor type, donor heavy atom, donor atom, acceptor molecule, acceptor atom, score
      L1  H     3    19       P1  7948  0.18
      L1  H    11    27       P1  7948  0.55
      L1  H    16    34       P1 10186  0.86
      P1  H 10785 10796       L1    16  0.62

> <Gold.Chemscore.Hbond.Weighted>
-9.3256

> <Gold.Chemscore.Metal.Weighted>
-0.0000

> <Gold.Chemscore.Lipo.Weighted>
-7.6222

> <Gold.Chemscore.Internal_Hbond.Weighted>
0.0000

> <Gold.Chemscore.DEClash.Weighted>
0.0202

> <Gold.Chemscore.DEInternal.Weighted>
0.4452

> <Gold.Chemscore.Rot.Weighted>
6.7933

> <Gold.Chemscore.Internal.Correction.Weighted>
   9.000000E+99

> <Gold.Protein.RotatedTorsions>
[ 6907 6896 6895 6894 ] final  -77.60 input  -60.11 | X-H torsion
[ 7974 7965 7964 7962 ] final   70.22 input  175.53 | X-H torsion
[ 8008 7997 7996 7995 ] final  108.30 input   59.86 | X-H torsion
[ 10167 10162 10161 10158 ] final -149.86 input  -65.29 | X-H torsion
[ 10718 10713 10712 10709 ] final  128.18 input   66.30 | X-H torsion
[ 10763 10752 10751 10750 ] final   75.58 input  -60.55 | X-H torsion
[ 11005 11000 10999 10996 ] final -157.14 input  -57.11 | X-H torsion

> <Gold.Protein.ActiveResidues>
 VAL166  LYS551  ARG553  GLY616  TRP617  ASP618  TYR619  PRO620  LYS621  CYS622 
 ASP623  PHE694  ASN695  SER759  ASP760  ASP761  ALA762  ILE779  LEU786  VAL792 
 PHE793  MET794  SER795  GLU796  ALA797  LYS798  CYS799  TRP800  GLU811  SER814 

> <Gold.Protein.RotatedAtoms>
  150.6994  134.4399  159.5286 H   0  0  0  0  0  0  0  0  0  0  0  0  # atno 6907 bound_to 6896
  152.2110  134.8498  160.0506 H   0  0  0  0  0  0  0  0  0  0  0  0  # atno 6908 bound_to 6896
  151.9383  133.3596  159.3993 H   0  0  0  0  0  0  0  0  0  0  0  0  # atno 6909 bound_to 6896
  145.7808  139.2887  143.1266 H   0  0  0  0  0  0  0  0  0  0  0  0  # atno 7974 bound_to 7965
  156.1892  140.3079  155.9298 H   0  0  0  0  0  0  0  0  0  0  0  0  # atno 8008 bound_to 7997
  155.3212  140.0456  157.3056 H   0  0  0  0  0  0  0  0  0  0  0  0  # atno 8009 bound_to 7997
  154.5432  140.2268  155.8616 H   0  0  0  0  0  0  0  0  0  0  0  0  # atno 8010 bound_to 7997
  139.7405  143.8670  152.2561 H   0  0  0  0  0  0  0  0  0  0  0  0  # atno 10167 bound_to 10162
  157.5267  131.1098  150.9072 H   0  0  0  0  0  0  0  0  0  0  0  0  # atno 10718 bound_to 10713
  153.0664  135.4983  154.8210 H   0  0  0  0  0  0  0  0  0  0  0  0  # atno 10763 bound_to 10752
  154.6960  135.2993  154.9413 H   0  0  0  0  0  0  0  0  0  0  0  0  # atno 10764 bound_to 10752
  154.0152  135.6749  153.4821 H   0  0  0  0  0  0  0  0  0  0  0  0  # atno 10765 bound_to 10752
  140.6679  134.4279  157.5232 H   0  0  0  0  0  0  0  0  0  0  0  0  # atno 11005 bound_to 11000
  146.0076  140.8465  142.9987 LP  0  0  0  0  0  0  0  0  0  0  0  0  # atno 17320 bound_to 7965
  144.6797  140.2442  143.7340 LP  0  0  0  0  0  0  0  0  0  0  0  0  # atno 17321 bound_to 7965
  139.8619  144.7113  150.9090 LP  0  0  0  0  0  0  0  0  0  0  0  0  # atno 17342 bound_to 10162
  140.7785  143.3810  151.1476 LP  0  0  0  0  0  0  0  0  0  0  0  0  # atno 17343 bound_to 10162
  156.9665  130.5475  149.5288 LP  0  0  0  0  0  0  0  0  0  0  0  0  # atno 17370 bound_to 10713
  156.0392  130.5476  150.8729 LP  0  0  0  0  0  0  0  0  0  0  0  0  # atno 17371 bound_to 10713
  139.8991  134.8598  156.1973 LP  0  0  0  0  0  0  0  0  0  0  0  0  # atno 17394 bound_to 11000
  141.0415  133.6935  156.1606 LP  0  0  0  0  0  0  0  0  0  0  0  0  # atno 17395 bound_to 11000

$$$$
