AV-unprocessed.smi:2345|AV-procd|sdf|9361|dock4
  -GOLD-   2272012583D 1   1.00000     0.00000
 Structure written by MMmdl.
 37 38  0  0  0  0  0  0  0  0  1 V2000
  152.7450  142.5448  161.8748 C   0  0  0  0  0  0  0  0  0  0  0  0
  153.3841  141.6083  160.8466 C   0  0  0  0  0  0  0  0  0  0  0  0
  152.1918  141.1045  159.5753 S   0  0  0  0  0  0  0  0  0  0  0  0
  152.0752  142.6347  158.6014 C   0  0  2  0  0  0  0  0  0  0  0  0
  153.1028  143.6799  159.0432 C   0  0  0  0  0  0  0  0  0  0  0  0
  152.4903  145.0090  158.6147 C   0  0  0  0  0  0  0  0  0  0  0  0
  150.9955  144.8357  158.8855 C   0  0  0  0  0  0  0  0  0  0  0  0
  150.7022  143.3311  158.7177 C   0  0  1  0  0  0  0  0  0  0  0  0
  149.8945  143.0777  157.5272 N   0  0  0  0  0  0  0  0  0  0  0  0
  149.7171  141.8775  156.9579 C   0  0  0  0  0  0  0  0  0  0  0  0
  150.2032  140.8378  157.4023 O   0  0  0  0  0  0  0  0  0  0  0  0
  148.9685  141.9754  155.8465 N   0  0  0  0  0  0  0  0  0  0  0  0
  148.5729  140.9458  154.9500 C   0  0  0  0  0  0  0  0  0  0  0  0
  149.1861  139.6712  154.8860 C   0  0  0  0  0  0  0  0  0  0  0  0
  148.6889  138.7290  153.9632 C   0  0  0  0  0  0  0  0  0  0  0  0
  147.6488  138.9730  153.1379 N   0  0  0  0  0  0  0  0  0  0  0  0
  147.0573  140.1840  153.2122 C   0  0  0  0  0  0  0  0  0  0  0  0
  147.4756  141.1963  154.0990 C   0  0  0  0  0  0  0  0  0  0  0  0
  146.8343  142.3898  154.1260 F   0  0  0  0  0  0  0  0  0  0  0  0
  153.4670  142.8335  162.6387 H   0  0  0  0  0  0  0  0  0  0  0  0
  151.9043  142.0640  162.3753 H   0  0  0  0  0  0  0  0  0  0  0  0
  152.3782  143.4558  161.4012 H   0  0  0  0  0  0  0  0  0  0  0  0
  154.2279  142.1040  160.3665 H   0  0  0  0  0  0  0  0  0  0  0  0
  153.7721  140.7203  161.3452 H   0  0  0  0  0  0  0  0  0  0  0  0
  152.2824  142.3890  157.5583 H   0  0  0  0  0  0  0  0  0  0  0  0
  153.2133  143.6657  160.1285 H   0  0  0  0  0  0  0  0  0  0  0  0
  154.0872  143.5109  158.6058 H   0  0  0  0  0  0  0  0  0  0  0  0
  152.9172  145.8602  159.1457 H   0  0  0  0  0  0  0  0  0  0  0  0
  152.6561  145.1626  157.5475 H   0  0  0  0  0  0  0  0  0  0  0  0
  150.7796  145.1292  159.9136 H   0  0  0  0  0  0  0  0  0  0  0  0
  150.3894  145.4724  158.2393 H   0  0  0  0  0  0  0  0  0  0  0  0
  150.1766  142.9731  159.6054 H   0  0  0  0  0  0  0  0  0  0  0  0
  149.4594  143.8795  157.0948 H   0  0  0  0  0  0  0  0  0  0  0  0
  148.7105  142.9103  155.5662 H   0  0  0  0  0  0  0  0  0  0  0  0
  150.0096  139.3953  155.5263 H   0  0  0  0  0  0  0  0  0  0  0  0
  149.1360  137.7487  153.8913 H   0  0  0  0  0  0  0  0  0  0  0  0
  146.2241  140.3511  152.5457 H   0  0  0  0  0  0  0  0  0  0  0  0
  1  2  1  0  0  0  0
  1 20  1  0  0  0  0
  1 21  1  0  0  0  0
  1 22  1  0  0  0  0
  2  3  1  0  0  0  0
  2 23  1  0  0  0  0
  2 24  1  0  0  0  0
  3  4  1  0  0  0  0
  4  8  1  0  0  0  0
  4  5  1  0  0  0  0
  4 25  1  0  0  0  0
  5  6  1  0  0  0  0
  5 26  1  0  0  0  0
  5 27  1  0  0  0  0
  6  7  1  0  0  0  0
  6 28  1  0  0  0  0
  6 29  1  0  0  0  0
  7  8  1  0  0  0  0
  7 30  1  0  0  0  0
  7 31  1  0  0  0  0
  8  9  1  0  0  0  0
  8 32  1  0  0  0  0
  9 10  1  0  0  0  0
  9 33  1  0  0  0  0
 10 11  2  0  0  0  0
 10 12  1  0  0  0  0
 12 13  1  0  0  0  0
 12 34  1  0  0  0  0
 13 18  1  0  0  0  0
 13 14  2  0  0  0  0
 14 15  1  0  0  0  0
 14 35  1  0  0  0  0
 15 16  2  0  0  0  0
 15 36  1  0  0  0  0
 16 17  1  0  0  0  0
 17 18  2  0  0  0  0
 17 37  1  0  0  0  0
 18 19  1  0  0  0  0
M  END
> <s_m_source_file>
AV-unprocessed.smi

> <i_m_source_file_index>
2345

> <i_lp_mmshare_version>
43012

> <i_f3d_flags>
0

> <s_epik_input>
W0NIM11bQ0gyXVNbQ0BASF0xW0NIMl1bQ0gyXVtDSDJdW0NASF0xW05IXUMoPU8pW05IXWMyW2NIXVtjSF1uW2NIXWMyRg==

> <s_epik_cmdline>
J2VwaWtfcHl0aG9uJywgJy1waCcsICc3LjAnLCAnLXRuJywgJzgnLCAnLW1hJywgJzIwMCcsICctbWV0YWxfYmluZGluZycsICctaW1hZScsICc8aW5maWxlLm1hZT4nLCAnLW9tYWUnLCAnPG91dGZpbGUubWFlPic=

> <r_epik_Ionization_Penalty>
0.00333745

> <r_epik_Ionization_Penalty_Charging>
0

> <r_epik_Ionization_Penalty_Neutral>
0.00333745

> <r_epik_State_Penalty>
0.00233401

> <r_epik_Charging_Adjusted_Penalty>
0.00233401

> <i_epik_Tot_Q>
0

> <i_epik_Tot_abs_Q>
0

> <r_epik_Metal_State_Penalty>
-0

> <b_epik_Metal_Only>
0

> <s_lp_Force_Field>
OPLS_2005

> <r_lp_Energy>
20.2563

> <b_lp_Chiralities_Consistent>
1

> <s_lp_Variant>
AV-unprocessed.smi:2345-1

> <Gold.Version>
5.8.1

> <Gold.Id.Protein>
6NUR|6NUR_protein|mol2

> <Gold.PLP.Fitness>
53.8382

> <Gold.PLP.PLP>
-44.0917

> <Gold.PLP.part.hbond>
-2.0000

> <Gold.PLP.part.metal>
0.0000

> <Gold.PLP.part.buried>
-5.3370

> <Gold.PLP.part.nonpolar>
-37.9796

> <Gold.PLP.part.repulsive>
1.5494

> <Gold.PLP.ligand.clash>
0.0000

> <Gold.PLP.ligand.torsion>
1.0061

> <Gold.PLP.Chemscore.Hbond>
2.0000

> <Gold.PLP.Chemscore.CHOScore>
1.9162

> <Gold.PLP.Chemscore.Metal>
0.0000

> <Gold.Chemscore.Hbonds>
donor molecule, donor type, donor heavy atom, donor atom, acceptor molecule, acceptor atom, score
      L1  H     9    33       P1  8028  1.00
      L1  H    12    34       P1  8028  1.00
      L1  C    15    36       P1  7948  0.89
      L1  C    17    37       P1 10175  0.99

> <Gold.PLP.Chemscore.Internal.Correction>
0.0100

> <Gold.Rescore>
     Score         DG    S(hbond)    S(metal)    S(lipo)     H(rot)  DE(clash)    DE(int)     intcor
     17.75     -22.16       1.89        0.00     118.23       1.35       0.13       4.29       ----

> <Gold.Chemscore.Fitness>
17.7473

> <Gold.Chemscore.DG>
-22.1596

> <Gold.Chemscore.ZeroCoef>
-5.4800

> <Gold.Chemscore.Hbond>
1.8851

> <Gold.Chemscore.Metal>
0.0000

> <Gold.Chemscore.Lipo>
118.2316

> <Gold.Chemscore.Internal_Hbond>
0.0000

> <Gold.Chemscore.DEClash>
0.1252

> <Gold.Chemscore.DEInternal>
4.2871

> <Gold.Chemscore.Rot>
1.3475

> <Gold.Chemscore.Internal.Correction>
   9.000000E+99

> <Gold.Chemscore.Hbonds>
donor molecule, donor type, donor heavy atom, donor atom, acceptor molecule, acceptor atom, score
      L1  H     9    33       P1  8028  0.63
      L1  H    12    34       P1  8028  0.97

> <Gold.Chemscore.Hbond.Weighted>
-6.2961

> <Gold.Chemscore.Metal.Weighted>
-0.0000

> <Gold.Chemscore.Lipo.Weighted>
-13.8331

> <Gold.Chemscore.Internal_Hbond.Weighted>
0.0000

> <Gold.Chemscore.DEClash.Weighted>
0.1252

> <Gold.Chemscore.DEInternal.Weighted>
4.2871

> <Gold.Chemscore.Rot.Weighted>
3.4496

> <Gold.Chemscore.Internal.Correction.Weighted>
   9.000000E+99

> <Gold.Protein.RotatedTorsions>
[ 6907 6896 6895 6894 ] final  -46.84 input  -60.11 | X-H torsion
[ 7974 7965 7964 7962 ] final  -29.03 input  175.53 | X-H torsion
[ 8008 7997 7996 7995 ] final  148.91 input   59.86 | X-H torsion
[ 10167 10162 10161 10158 ] final   -9.53 input  -65.29 | X-H torsion
[ 10718 10713 10712 10709 ] final   92.01 input   66.30 | X-H torsion
[ 10763 10752 10751 10750 ] final  -52.41 input  -60.55 | X-H torsion
[ 11005 11000 10999 10996 ] final  -74.85 input  -57.11 | X-H torsion

> <Gold.Protein.ActiveResidues>
 VAL166  LYS551  ARG553  GLY616  TRP617  ASP618  TYR619  PRO620  LYS621  CYS622 
 ASP623  PHE694  ASN695  SER759  ASP760  ASP761  ALA762  ILE779  LEU786  VAL792 
 PHE793  MET794  SER795  GLU796  ALA797  LYS798  CYS799  TRP800  GLU811  SER814 

> <Gold.Protein.RotatedAtoms>
  150.9070  134.8485  159.7398 H   0  0  0  0  0  0  0  0  0  0  0  0  # atno 6907 bound_to 6896
  152.4924  134.4416  159.9555 H   0  0  0  0  0  0  0  0  0  0  0  0  # atno 6908 bound_to 6896
  151.4462  133.3590  159.2824 H   0  0  0  0  0  0  0  0  0  0  0  0  # atno 6909 bound_to 6896
  146.1246  140.5359  142.8720 H   0  0  0  0  0  0  0  0  0  0  0  0  # atno 7974 bound_to 7965
  156.2774  140.2116  156.5773 H   0  0  0  0  0  0  0  0  0  0  0  0  # atno 8008 bound_to 7997
  154.7087  140.0514  157.0552 H   0  0  0  0  0  0  0  0  0  0  0  0  # atno 8009 bound_to 7997
  155.0635  140.3169  155.4656 H   0  0  0  0  0  0  0  0  0  0  0  0  # atno 8010 bound_to 7997
  140.7090  143.5847  150.8955 H   0  0  0  0  0  0  0  0  0  0  0  0  # atno 10167 bound_to 10162
  157.6959  131.0428  150.3816 H   0  0  0  0  0  0  0  0  0  0  0  0  # atno 10718 bound_to 10713
  154.1423  135.6503  153.4945 H   0  0  0  0  0  0  0  0  0  0  0  0  # atno 10763 bound_to 10752
  153.0162  135.5318  154.6892 H   0  0  0  0  0  0  0  0  0  0  0  0  # atno 10764 bound_to 10752
  154.6157  135.2959  155.0353 H   0  0  0  0  0  0  0  0  0  0  0  0  # atno 10765 bound_to 10752
  141.1639  133.6926  156.7428 H   0  0  0  0  0  0  0  0  0  0  0  0  # atno 11005 bound_to 11000
  144.7630  140.5465  143.6722 LP  0  0  0  0  0  0  0  0  0  0  0  0  # atno 17320 bound_to 7965
  145.5393  139.1475  143.3456 LP  0  0  0  0  0  0  0  0  0  0  0  0  # atno 17321 bound_to 7965
  139.9573  143.6204  152.3012 LP  0  0  0  0  0  0  0  0  0  0  0  0  # atno 17342 bound_to 10162
  139.6744  144.7659  151.1724 LP  0  0  0  0  0  0  0  0  0  0  0  0  # atno 17343 bound_to 10162
  156.4230  130.3956  149.6812 LP  0  0  0  0  0  0  0  0  0  0  0  0  # atno 17370 bound_to 10713
  156.4056  130.7697  151.2707 LP  0  0  0  0  0  0  0  0  0  0  0  0  # atno 17371 bound_to 10713
  140.2662  134.8428  157.3805 LP  0  0  0  0  0  0  0  0  0  0  0  0  # atno 17394 bound_to 11000
  140.1564  134.4784  155.7925 LP  0  0  0  0  0  0  0  0  0  0  0  0  # atno 17395 bound_to 11000

$$$$
