AV-unprocessed.smi:2790|AV-procd|sdf|10766|dock1
  -GOLD-   2272015203D 1   1.00000     0.00000
 Structure written by MMmdl.
 46 47  0  0  0  0  0  0  0  0  2 V2000
  146.4939  138.6851  152.1287 C   0  0  0  0  0  0  0  0  0  0  0  0
  146.4985  139.8100  153.0932 N   0  3  0  0  0  0  0  0  0  0  0  0
  146.4642  139.3297  154.4917 C   0  0  0  0  0  0  0  0  0  0  0  0
  147.6012  140.7763  152.8567 C   0  0  0  0  0  0  0  0  0  0  0  0
  147.9358  141.6190  154.0913 C   0  0  0  0  0  0  0  0  0  0  0  0
  147.0938  142.3707  154.5832 O   0  0  0  0  0  0  0  0  0  0  0  0
  149.1700  141.4713  154.5905 N   0  0  0  0  0  0  0  0  0  0  0  0
  149.6863  142.1908  155.7511 C   0  0  0  0  0  0  0  0  0  0  0  0
  150.5186  141.2804  156.6903 C   0  0  0  0  0  0  0  0  0  0  0  0
  151.3151  142.1731  157.6721 C   0  0  0  0  0  0  0  0  0  0  0  0
  152.1110  141.6402  158.7174 C   0  0  0  0  0  0  0  0  0  0  0  0
  152.8295  142.5175  159.5533 C   0  0  0  0  0  0  0  0  0  0  0  0
  152.8192  143.8576  159.4080 N   0  0  0  0  0  0  0  0  0  0  0  0
  152.0802  144.3705  158.4041 C   0  0  0  0  0  0  0  0  0  0  0  0
  151.3257  143.5804  157.5150 C   0  0  0  0  0  0  0  0  0  0  0  0
  149.5364  140.3369  157.4435 C   0  0  0  0  0  0  0  0  0  0  0  0
  150.2546  139.2794  158.3004 C   0  0  0  0  0  0  0  0  0  0  0  0
  151.1677  138.4049  157.4308 C   0  0  0  0  0  0  0  0  0  0  0  0
  152.1571  139.2652  156.6337 C   0  0  0  0  0  0  0  0  0  0  0  0
  151.4253  140.3543  155.8215 C   0  0  0  0  0  0  0  0  0  0  0  0
  147.3962  138.0804  152.2289 H   0  0  0  0  0  0  0  0  0  0  0  0
  146.4371  139.0440  151.1008 H   0  0  0  0  0  0  0  0  0  0  0  0
  145.6311  138.0399  152.2977 H   0  0  0  0  0  0  0  0  0  0  0  0
  147.3764  138.7857  154.7402 H   0  0  0  0  0  0  0  0  0  0  0  0
  145.6149  138.6644  154.6508 H   0  0  0  0  0  0  0  0  0  0  0  0
  146.3627  140.1648  155.1855 H   0  0  0  0  0  0  0  0  0  0  0  0
  148.5106  140.2351  152.5921 H   0  0  0  0  0  0  0  0  0  0  0  0
  147.3602  141.4180  152.0074 H   0  0  0  0  0  0  0  0  0  0  0  0
  149.8021  140.8309  154.1318 H   0  0  0  0  0  0  0  0  0  0  0  0
  150.3036  143.0175  155.3952 H   0  0  0  0  0  0  0  0  0  0  0  0
  148.8528  142.6403  156.2940 H   0  0  0  0  0  0  0  0  0  0  0  0
  152.1896  140.5806  158.8997 H   0  0  0  0  0  0  0  0  0  0  0  0
  153.4362  142.1293  160.3582 H   0  0  0  0  0  0  0  0  0  0  0  0
  152.0968  145.4452  158.2993 H   0  0  0  0  0  0  0  0  0  0  0  0
  150.7776  144.0660  156.7229 H   0  0  0  0  0  0  0  0  0  0  0  0
  148.8320  140.8936  158.0597 H   0  0  0  0  0  0  0  0  0  0  0  0
  148.9139  139.8136  156.7159 H   0  0  0  0  0  0  0  0  0  0  0  0
  150.8380  139.7623  159.0852 H   0  0  0  0  0  0  0  0  0  0  0  0
  149.5199  138.6523  158.8059 H   0  0  0  0  0  0  0  0  0  0  0  0
  151.7079  137.6905  158.0528 H   0  0  0  0  0  0  0  0  0  0  0  0
  150.5596  137.8176  156.7416 H   0  0  0  0  0  0  0  0  0  0  0  0
  152.8774  139.7127  157.3176 H   0  0  0  0  0  0  0  0  0  0  0  0
  152.7347  138.6309  155.9610 H   0  0  0  0  0  0  0  0  0  0  0  0
  150.8041  139.8479  155.0811 H   0  0  0  0  0  0  0  0  0  0  0  0
  152.1403  140.9290  155.2336 H   0  0  0  0  0  0  0  0  0  0  0  0
  145.6396  140.3227  152.9488 H   0  0  0  0  0  0  0  0  0  0  0  0
  1  2  1  0  0  0  0
  1 21  1  0  0  0  0
  1 22  1  0  0  0  0
  1 23  1  0  0  0  0
  2  3  1  0  0  0  0
  2  4  1  0  0  0  0
  2 46  1  0  0  0  0
  3 24  1  0  0  0  0
  3 25  1  0  0  0  0
  3 26  1  0  0  0  0
  4  5  1  0  0  0  0
  4 27  1  0  0  0  0
  4 28  1  0  0  0  0
  5  6  2  0  0  0  0
  5  7  1  0  0  0  0
  7  8  1  0  0  0  0
  7 29  1  0  0  0  0
  8  9  1  0  0  0  0
  8 30  1  0  0  0  0
  8 31  1  0  0  0  0
  9 20  1  0  0  0  0
  9 10  1  0  0  0  0
  9 16  1  0  0  0  0
 10 15  1  0  0  0  0
 10 11  2  0  0  0  0
 11 12  1  0  0  0  0
 11 32  1  0  0  0  0
 12 13  2  0  0  0  0
 12 33  1  0  0  0  0
 13 14  1  0  0  0  0
 14 15  2  0  0  0  0
 14 34  1  0  0  0  0
 15 35  1  0  0  0  0
 16 17  1  0  0  0  0
 16 36  1  0  0  0  0
 16 37  1  0  0  0  0
 17 18  1  0  0  0  0
 17 38  1  0  0  0  0
 17 39  1  0  0  0  0
 18 19  1  0  0  0  0
 18 40  1  0  0  0  0
 18 41  1  0  0  0  0
 19 20  1  0  0  0  0
 19 42  1  0  0  0  0
 19 43  1  0  0  0  0
 20 44  1  0  0  0  0
 20 45  1  0  0  0  0
M  CHG  1   2   1
M  END
> <s_m_source_file>
AV-unprocessed.smi

> <i_m_source_file_index>
2790

> <i_lp_mmshare_version>
43012

> <i_f3d_flags>
0

> <s_epik_input>
W0NIM11OKFtDSDNdKVtDSDJdQyg9TylbTkhdW0NIMl1DMShbQ0gyXVtDSDJdW0NIMl1bQ0gyXVtDSDJdMSljMltjSF1bY0hdbltjSF1bY0hdMg==

> <s_epik_cmdline>
J2VwaWtfcHl0aG9uJywgJy1waCcsICc3LjAnLCAnLXRuJywgJzgnLCAnLW1hJywgJzIwMCcsICctbWV0YWxfYmluZGluZycsICctaW1hZScsICc8aW5maWxlLm1hZT4nLCAnLW9tYWUnLCAnPG91dGZpbGUubWFlPic=

> <r_epik_Ionization_Penalty>
0.089928

> <r_epik_Ionization_Penalty_Charging>
0.0368445

> <r_epik_Ionization_Penalty_Neutral>
0.0530835

> <r_epik_State_Penalty>
0.0777876

> <r_epik_Charging_Adjusted_Penalty>
0.114632

> <i_epik_Tot_Q>
1

> <i_epik_Tot_abs_Q>
1

> <r_epik_Metal_State_Penalty>
0.0848697

> <b_epik_Metal_Only>
0

> <s_lp_Force_Field>
OPLS_2005

> <r_lp_Energy>
21.8656

> <b_lp_Chiralities_Consistent>
1

> <s_lp_Variant>
AV-unprocessed.smi:2790-1

> <Gold.Version>
5.8.1

> <Gold.Id.Protein>
6NUR|6NUR_protein|mol2

> <Gold.PLP.Fitness>
39.7675

> <Gold.PLP.PLP>
-35.0165

> <Gold.PLP.part.hbond>
-1.0000

> <Gold.PLP.part.metal>
0.0000

> <Gold.PLP.part.buried>
0.2624

> <Gold.PLP.part.nonpolar>
-35.2029

> <Gold.PLP.part.repulsive>
0.3793

> <Gold.PLP.ligand.clash>
0.0000

> <Gold.PLP.ligand.torsion>
0.6610

> <Gold.PLP.Chemscore.Hbond>
2.0000

> <Gold.PLP.Chemscore.CHOScore>
0.0000

> <Gold.PLP.Chemscore.Metal>
0.0000

> <Gold.Chemscore.Hbonds>
donor molecule, donor type, donor heavy atom, donor atom, acceptor molecule, acceptor atom, score
      L1  H     2    46       P1 10175  2.00

> <Gold.PLP.Chemscore.Internal.Correction>
0.0730

> <Gold.Rescore>
     Score         DG    S(hbond)    S(metal)    S(lipo)     H(rot)  DE(clash)    DE(int)     intcor
     13.39     -17.47       0.96        0.00     111.38       1.65       2.71       1.38       ----

> <Gold.Chemscore.Fitness>
13.3909

> <Gold.Chemscore.DG>
-17.4746

> <Gold.Chemscore.ZeroCoef>
-5.4800

> <Gold.Chemscore.Hbond>
0.9577

> <Gold.Chemscore.Metal>
0.0000

> <Gold.Chemscore.Lipo>
111.3828

> <Gold.Chemscore.Internal_Hbond>
0.0000

> <Gold.Chemscore.DEClash>
2.7051

> <Gold.Chemscore.DEInternal>
1.3786

> <Gold.Chemscore.Rot>
1.6547

> <Gold.Chemscore.Internal.Correction>
   9.000000E+99

> <Gold.Chemscore.Hbonds>
donor molecule, donor type, donor heavy atom, donor atom, acceptor molecule, acceptor atom, score
      L1  H     2    46       P1 10175  0.85

> <Gold.Chemscore.Hbond.Weighted>
-3.1989

> <Gold.Chemscore.Metal.Weighted>
-0.0000

> <Gold.Chemscore.Lipo.Weighted>
-13.0318

> <Gold.Chemscore.Internal_Hbond.Weighted>
0.0000

> <Gold.Chemscore.DEClash.Weighted>
2.7051

> <Gold.Chemscore.DEInternal.Weighted>
1.3786

> <Gold.Chemscore.Rot.Weighted>
4.2361

> <Gold.Chemscore.Internal.Correction.Weighted>
   9.000000E+99

> <Gold.Protein.RotatedTorsions>
[ 6907 6896 6895 6894 ] final  150.19 input  -60.11 | X-H torsion
[ 7974 7965 7964 7962 ] final   75.59 input  175.53 | X-H torsion
[ 8008 7997 7996 7995 ] final  -19.97 input   59.86 | X-H torsion
[ 10167 10162 10161 10158 ] final -137.03 input  -65.29 | X-H torsion
[ 10718 10713 10712 10709 ] final  -34.18 input   66.30 | X-H torsion
[ 10763 10752 10751 10750 ] final   39.10 input  -60.55 | X-H torsion
[ 11005 11000 10999 10996 ] final    7.73 input  -57.11 | X-H torsion

> <Gold.Protein.ActiveResidues>
 VAL166  LYS551  ARG553  GLY616  TRP617  ASP618  TYR619  PRO620  LYS621  CYS622 
 ASP623  PHE694  ASN695  SER759  ASP760  ASP761  ALA762  ILE779  LEU786  VAL792 
 PHE793  MET794  SER795  GLU796  ALA797  LYS798  CYS799  TRP800  GLU811  SER814 

> <Gold.Protein.RotatedAtoms>
  152.1178  133.4336  159.4660 H   0  0  0  0  0  0  0  0  0  0  0  0  # atno 6907 bound_to 6896
  150.6870  134.2571  159.4543 H   0  0  0  0  0  0  0  0  0  0  0  0  # atno 6908 bound_to 6896
  152.0445  134.9690  160.0625 H   0  0  0  0  0  0  0  0  0  0  0  0  # atno 6909 bound_to 6896
  145.7137  139.2623  143.1636 H   0  0  0  0  0  0  0  0  0  0  0  0  # atno 7974 bound_to 7965
  154.4801  140.2074  155.9785 H   0  0  0  0  0  0  0  0  0  0  0  0  # atno 8008 bound_to 7997
  156.1151  140.3222  155.8097 H   0  0  0  0  0  0  0  0  0  0  0  0  # atno 8009 bound_to 7997
  155.4567  140.0521  157.2986 H   0  0  0  0  0  0  0  0  0  0  0  0  # atno 8010 bound_to 7997
  139.8619  143.7067  152.2649 H   0  0  0  0  0  0  0  0  0  0  0  0  # atno 10167 bound_to 10162
  156.3536  130.4312  149.7683 H   0  0  0  0  0  0  0  0  0  0  0  0  # atno 10718 bound_to 10713
  152.9978  135.6230  154.2410 H   0  0  0  0  0  0  0  0  0  0  0  0  # atno 10763 bound_to 10752
  154.2151  135.2798  155.2946 H   0  0  0  0  0  0  0  0  0  0  0  0  # atno 10764 bound_to 10752
  154.5575  135.5715  153.7036 H   0  0  0  0  0  0  0  0  0  0  0  0  # atno 10765 bound_to 10752
  140.5449  134.0338  155.7917 H   0  0  0  0  0  0  0  0  0  0  0  0  # atno 11005 bound_to 11000
  146.0689  140.7890  142.9698 LP  0  0  0  0  0  0  0  0  0  0  0  0  # atno 17320 bound_to 7965
  144.6935  140.3312  143.7216 LP  0  0  0  0  0  0  0  0  0  0  0  0  # atno 17321 bound_to 7965
  139.7366  144.7570  151.0718 LP  0  0  0  0  0  0  0  0  0  0  0  0  # atno 17342 bound_to 10162
  140.7774  143.5023  150.9756 LP  0  0  0  0  0  0  0  0  0  0  0  0  # atno 17343 bound_to 10162
  156.4873  130.8069  151.3080 LP  0  0  0  0  0  0  0  0  0  0  0  0  # atno 17370 bound_to 10713
  157.7464  130.9986  150.2860 LP  0  0  0  0  0  0  0  0  0  0  0  0  # atno 17371 bound_to 10713
  141.1205  133.9469  157.2738 LP  0  0  0  0  0  0  0  0  0  0  0  0  # atno 17394 bound_to 11000
  139.9485  135.0180  156.8923 LP  0  0  0  0  0  0  0  0  0  0  0  0  # atno 17395 bound_to 11000

$$$$
