AV-unprocessed.smi:38|AV-procd|sdf|337|dock7
  -GOLD-   2262016173D 1   1.00000     0.00000
 Structure written by MMmdl.
 28 29  0  0  0  0  0  0  0  0  1 V2000
  152.7295  140.2699  157.8985 O   0  0  0  0  0  0  0  0  0  0  0  0
  151.9244  140.3314  156.9714 C   0  0  0  0  0  0  0  0  0  0  0  0
  151.8371  139.2880  156.0460 N   0  0  0  0  0  0  0  0  0  0  0  0
  150.9643  139.2406  154.9576 C   0  0  0  0  0  0  0  0  0  0  0  0
  150.9877  138.2771  154.1929 O   0  0  0  0  0  0  0  0  0  0  0  0
  150.0815  140.3303  154.7856 N   0  0  0  0  0  0  0  0  0  0  0  0
  149.1382  140.3098  153.5994 C   0  0  1  0  0  0  0  0  0  0  0  0
  148.1286  139.1570  153.7055 C   0  0  0  0  0  0  0  0  0  0  0  0
  146.8658  139.8124  153.1903 C   0  0  1  0  0  0  0  0  0  0  0  0
  145.6998  139.1301  153.6064 O   0  0  0  0  0  0  0  0  0  0  0  0
  146.9947  141.2448  153.7221 C   0  0  1  0  0  0  0  0  0  0  0  0
  146.6114  141.4270  155.2080 C   0  0  0  0  0  0  0  0  0  0  0  0
  146.6105  142.7994  155.5372 O   0  0  0  0  0  0  0  0  0  0  0  0
  148.3922  141.4965  153.5612 O   0  0  0  0  0  0  0  0  0  0  0  0
  150.1524  141.4030  155.6684 C   0  0  0  0  0  0  0  0  0  0  0  0
  151.0070  141.4383  156.7183 C   0  0  0  0  0  0  0  0  0  0  0  0
  151.0147  142.5083  157.5314 F   0  0  0  0  0  0  0  0  0  0  0  0
  152.4621  138.5052  156.1723 H   0  0  0  0  0  0  0  0  0  0  0  0
  149.7773  140.2566  152.7158 H   0  0  0  0  0  0  0  0  0  0  0  0
  146.8907  139.8297  152.0997 H   0  0  0  0  0  0  0  0  0  0  0  0
  146.4106  141.9271  153.1030 H   0  0  0  0  0  0  0  0  0  0  0  0
  148.4440  138.2940  153.1185 H   0  0  0  0  0  0  0  0  0  0  0  0
  148.0144  138.8578  154.7489 H   0  0  0  0  0  0  0  0  0  0  0  0
  144.9478  139.6609  153.3909 H   0  0  0  0  0  0  0  0  0  0  0  0
  145.6013  141.0622  155.3934 H   0  0  0  0  0  0  0  0  0  0  0  0
  147.2740  140.8781  155.8764 H   0  0  0  0  0  0  0  0  0  0  0  0
  147.5062  143.0873  155.6286 H   0  0  0  0  0  0  0  0  0  0  0  0
  149.5114  142.2613  155.5362 H   0  0  0  0  0  0  0  0  0  0  0  0
  1  2  2  0  0  0  0
  2 16  1  0  0  0  0
  2  3  1  0  0  0  0
  3 18  1  0  0  0  0
  3  4  1  0  0  0  0
  4  5  2  0  0  0  0
  4  6  1  0  0  0  0
  6  7  1  0  0  0  0
  6 15  1  0  0  0  0
  7 19  1  0  0  0  0
  7 14  1  0  0  0  0
  7  8  1  0  0  0  0
  8  9  1  0  0  0  0
  8 22  1  0  0  0  0
  8 23  1  0  0  0  0
  9 20  1  0  0  0  0
  9 10  1  0  0  0  0
  9 11  1  0  0  0  0
 10 24  1  0  0  0  0
 11 21  1  0  0  0  0
 11 12  1  0  0  0  0
 11 14  1  0  0  0  0
 12 13  1  0  0  0  0
 12 25  1  0  0  0  0
 12 26  1  0  0  0  0
 13 27  1  0  0  0  0
 15 16  2  0  0  0  0
 15 28  1  0  0  0  0
 16 17  1  0  0  0  0
M  END
> <s_m_source_file>
AV-unprocessed.smi

> <i_m_source_file_index>
38

> <i_lp_mmshare_version>
43012

> <i_f3d_flags>
0

> <s_epik_input>
Tz1jMVtuSF1jKD1PKW4oW2NIXWMxRilbQ0BIXTJbQ0gyXVtDQEhdKFtPSF0pW0NASF0oTzIpW0NIMl1bT0hd

> <s_epik_cmdline>
J2VwaWtfcHl0aG9uJywgJy1waCcsICc3LjAnLCAnLXRuJywgJzgnLCAnLW1hJywgJzIwMCcsICctbWV0YWxfYmluZGluZycsICctaW1hZScsICc8aW5maWxlLm1hZT4nLCAnLW9tYWUnLCAnPG91dGZpbGUubWFlPic=

> <r_lp_tautomer_probability>
0.999537

> <r_epik_Ionization_Penalty>
0.0357432

> <r_epik_Ionization_Penalty_Charging>
0.0357431

> <r_epik_Ionization_Penalty_Neutral>
1.19946e-07

> <r_epik_State_Penalty>
0.0298169

> <r_epik_Charging_Adjusted_Penalty>
0.06556

> <i_epik_Tot_Q>
0

> <i_epik_Tot_abs_Q>
0

> <r_epik_Metal_State_Penalty>
2.348

> <b_epik_Metal_Only>
0

> <s_epik_Chemistry_Notes>
This compound contains an acetal/aminal-like group ( X-CH(R)-Y where X, Y are N, S, or O) that may be acid/base labile, releasing an aldehyde.

> <s_lp_Force_Field>
OPLS_2005

> <r_lp_Energy>
30.312

> <b_lp_Chiralities_Consistent>
1

> <s_lp_Variant>
AV-unprocessed.smi:38-3

> <Gold.Version>
5.8.1

> <Gold.Id.Protein>
6NUR|6NUR_protein|mol2

> <Gold.PLP.Fitness>
38.2242

> <Gold.PLP.PLP>
-25.1418

> <Gold.PLP.part.hbond>
-4.0000

> <Gold.PLP.part.metal>
0.0000

> <Gold.PLP.part.buried>
4.8215

> <Gold.PLP.part.nonpolar>
-25.5459

> <Gold.PLP.part.repulsive>
1.4798

> <Gold.PLP.ligand.clash>
0.0000

> <Gold.PLP.ligand.torsion>
0.0731

> <Gold.PLP.Chemscore.Hbond>
3.4113

> <Gold.PLP.Chemscore.CHOScore>
0.9906

> <Gold.PLP.Chemscore.Metal>
0.0000

> <Gold.Chemscore.Hbonds>
donor molecule, donor type, donor heavy atom, donor atom, acceptor molecule, acceptor atom, score
      L1  H    10    24       P1 10175  1.00
      L1  H    13    27       P1  8028  0.72
      P1  H  7997  8010       L1     1  0.90
      P1  H  8011  8017       L1    14  0.38
      L1  C    15    28       P1  8028  0.98

> <Gold.PLP.Chemscore.Internal.Correction>
0.0230

> <Gold.Rescore>
     Score         DG    S(hbond)    S(metal)    S(lipo)     H(rot)  DE(clash)    DE(int)     intcor
      6.29      -9.59       2.13        0.00      38.19       2.91       3.12       0.18       ----

> <Gold.Chemscore.Fitness>
6.2945

> <Gold.Chemscore.DG>
-9.5911

> <Gold.Chemscore.ZeroCoef>
-5.4800

> <Gold.Chemscore.Hbond>
2.1265

> <Gold.Chemscore.Metal>
0.0000

> <Gold.Chemscore.Lipo>
38.1935

> <Gold.Chemscore.Internal_Hbond>
0.0000

> <Gold.Chemscore.DEClash>
3.1206

> <Gold.Chemscore.DEInternal>
0.1760

> <Gold.Chemscore.Rot>
2.9141

> <Gold.Chemscore.Internal.Correction>
   9.000000E+99

> <Gold.Chemscore.Hbonds>
donor molecule, donor type, donor heavy atom, donor atom, acceptor molecule, acceptor atom, score
      L1  H    10    24       P1 10175  1.00
      L1  H    13    27       P1  8028  0.16
      P1  H  7997  8010       L1     1  0.18
      P1  H  8011  8017       L1    14  0.03

> <Gold.Chemscore.Hbond.Weighted>
-7.1025

> <Gold.Chemscore.Metal.Weighted>
-0.0000

> <Gold.Chemscore.Lipo.Weighted>
-4.4686

> <Gold.Chemscore.Internal_Hbond.Weighted>
0.0000

> <Gold.Chemscore.DEClash.Weighted>
3.1206

> <Gold.Chemscore.DEInternal.Weighted>
0.1760

> <Gold.Chemscore.Rot.Weighted>
7.4601

> <Gold.Chemscore.Internal.Correction.Weighted>
   9.000000E+99

> <Gold.Protein.RotatedTorsions>
[ 6907 6896 6895 6894 ] final  173.98 input  -60.11 | X-H torsion
[ 7974 7965 7964 7962 ] final   52.51 input  175.53 | X-H torsion
[ 8008 7997 7996 7995 ] final   48.70 input   59.86 | X-H torsion
[ 10167 10162 10161 10158 ] final  -26.68 input  -65.29 | X-H torsion
[ 10718 10713 10712 10709 ] final  -61.52 input   66.30 | X-H torsion
[ 10763 10752 10751 10750 ] final  134.64 input  -60.55 | X-H torsion
[ 11005 11000 10999 10996 ] final   58.23 input  -57.11 | X-H torsion

> <Gold.Protein.ActiveResidues>
 VAL166  LYS551  ARG553  GLY616  TRP617  ASP618  TYR619  PRO620  LYS621  CYS622 
 ASP623  PHE694  ASN695  SER759  ASP760  ASP761  ALA762  ILE779  LEU786  VAL792 
 PHE793  MET794  SER795  GLU796  ALA797  LYS798  CYS799  TRP800  GLU811  SER814 

> <Gold.Protein.RotatedAtoms>
  151.7596  133.3333  159.3413 H   0  0  0  0  0  0  0  0  0  0  0  0  # atno 6907 bound_to 6896
  150.7503  134.6118  159.6099 H   0  0  0  0  0  0  0  0  0  0  0  0  # atno 6908 bound_to 6896
  152.3414  134.7131  160.0314 H   0  0  0  0  0  0  0  0  0  0  0  0  # atno 6909 bound_to 6896
  145.9806  139.4238  143.0134 H   0  0  0  0  0  0  0  0  0  0  0  0  # atno 7974 bound_to 7965
  155.3899  140.3433  155.4251 H   0  0  0  0  0  0  0  0  0  0  0  0  # atno 8008 bound_to 7997
  156.1563  140.1586  156.8720 H   0  0  0  0  0  0  0  0  0  0  0  0  # atno 8009 bound_to 7997
  154.5098  140.0793  156.7948 H   0  0  0  0  0  0  0  0  0  0  0  0  # atno 8010 bound_to 7997
  140.7281  143.4157  151.1032 H   0  0  0  0  0  0  0  0  0  0  0  0  # atno 10167 bound_to 10162
  156.0916  130.4199  150.1006 H   0  0  0  0  0  0  0  0  0  0  0  0  # atno 10718 bound_to 10713
  153.8270  135.3109  155.3415 H   0  0  0  0  0  0  0  0  0  0  0  0  # atno 10763 bound_to 10752
  154.7989  135.4738  154.0231 H   0  0  0  0  0  0  0  0  0  0  0  0  # atno 10764 bound_to 10752
  153.1658  135.6869  153.8768 H   0  0  0  0  0  0  0  0  0  0  0  0  # atno 10765 bound_to 10752
  140.0393  134.5897  155.9403 H   0  0  0  0  0  0  0  0  0  0  0  0  # atno 11005 bound_to 11000
  145.7775  140.9870  143.1116 LP  0  0  0  0  0  0  0  0  0  0  0  0  # atno 17320 bound_to 7965
  144.6860  139.9524  143.7478 LP  0  0  0  0  0  0  0  0  0  0  0  0  # atno 17321 bound_to 7965
  139.7797  143.8374  152.3135 LP  0  0  0  0  0  0  0  0  0  0  0  0  # atno 17342 bound_to 10162
  139.8320  144.7249  150.9438 LP  0  0  0  0  0  0  0  0  0  0  0  0  # atno 17343 bound_to 10162
  156.9014  130.9621  151.3576 LP  0  0  0  0  0  0  0  0  0  0  0  0  # atno 17370 bound_to 10713
  157.6067  130.8552  149.8886 LP  0  0  0  0  0  0  0  0  0  0  0  0  # atno 17371 bound_to 10713
  141.1874  133.6560  156.5281 LP  0  0  0  0  0  0  0  0  0  0  0  0  # atno 17394 bound_to 11000
  140.4096  134.7284  157.4828 LP  0  0  0  0  0  0  0  0  0  0  0  0  # atno 17395 bound_to 11000

$$$$
