AV-unprocessed.smi:3085|AV-procd|sdf|11762|dock7
  -GOLD-   2272017143D 1   1.00000     0.00000
 Structure written by MMmdl.
 26 27  0  0  0  0  0  0  0  0  2 V2000
  152.4705  142.7341  160.8605 C   0  0  0  0  0  0  0  0  0  0  0  0
  153.2498  141.4339  160.6375 C   0  0  0  0  0  0  0  0  0  0  0  0
  152.9485  140.8129  159.2912 C   0  0  0  0  0  0  0  0  0  0  0  0
  152.0842  141.2798  158.3961 N   0  0  0  0  0  0  0  0  0  0  0  0
  152.1544  140.4442  157.3491 C   0  0  0  0  0  0  0  0  0  0  0  0
  151.3601  140.5922  156.0664 C   0  0  2  0  0  0  0  0  0  0  0  0
  150.5477  141.9033  156.0651 C   0  0  0  0  0  0  0  0  0  0  0  0
  149.7782  142.0333  154.8276 N   0  0  0  0  0  0  0  0  0  0  0  0
  148.9322  140.8631  154.6045 C   0  0  0  0  0  0  0  0  0  0  0  0
  149.7785  139.5791  154.6375 C   0  0  0  0  0  0  0  0  0  0  0  0
  150.4661  139.4964  155.8804 O   0  0  0  0  0  0  0  0  0  0  0  0
  153.0678  139.4857  157.5692 N   0  0  0  0  0  0  0  0  0  0  0  0
  153.5484  139.7272  158.7720 N   0  5  0  0  0  0  0  0  0  0  0  0
  152.6968  143.1612  161.8373 H   0  0  0  0  0  0  0  0  0  0  0  0
  151.3956  142.5583  160.8131 H   0  0  0  0  0  0  0  0  0  0  0  0
  152.7226  143.4772  160.1035 H   0  0  0  0  0  0  0  0  0  0  0  0
  154.3215  141.6238  160.7061 H   0  0  0  0  0  0  0  0  0  0  0  0
  153.0066  140.7141  161.4198 H   0  0  0  0  0  0  0  0  0  0  0  0
  152.0774  140.6036  155.2432 H   0  0  0  0  0  0  0  0  0  0  0  0
  149.8745  141.9183  156.9234 H   0  0  0  0  0  0  0  0  0  0  0  0
  151.2156  142.7576  156.1771 H   0  0  0  0  0  0  0  0  0  0  0  0
  149.2008  142.8665  154.8749 H   0  0  0  0  0  0  0  0  0  0  0  0
  148.1595  140.8121  155.3722 H   0  0  0  0  0  0  0  0  0  0  0  0
  148.4187  140.9496  153.6468 H   0  0  0  0  0  0  0  0  0  0  0  0
  149.1365  138.7047  154.5314 H   0  0  0  0  0  0  0  0  0  0  0  0
  150.4888  139.5549  153.8094 H   0  0  0  0  0  0  0  0  0  0  0  0
  1  2  1  0  0  0  0
  1 14  1  0  0  0  0
  1 15  1  0  0  0  0
  1 16  1  0  0  0  0
  2  3  1  0  0  0  0
  2 17  1  0  0  0  0
  2 18  1  0  0  0  0
  3 13  1  0  0  0  0
  3  4  2  0  0  0  0
  4  5  1  0  0  0  0
  5  6  1  0  0  0  0
  5 12  2  0  0  0  0
  6 11  1  0  0  0  0
  6  7  1  0  0  0  0
  6 19  1  0  0  0  0
  7  8  1  0  0  0  0
  7 20  1  0  0  0  0
  7 21  1  0  0  0  0
  8  9  1  0  0  0  0
  8 22  1  0  0  0  0
  9 10  1  0  0  0  0
  9 23  1  0  0  0  0
  9 24  1  0  0  0  0
 10 11  1  0  0  0  0
 10 25  1  0  0  0  0
 10 26  1  0  0  0  0
 12 13  1  0  0  0  0
M  CHG  1  13  -1
M  END
> <s_m_source_file>
AV-unprocessed.smi

> <i_m_source_file_index>
3085

> <i_lp_mmshare_version>
43012

> <i_f3d_flags>
0

> <s_epik_input>
W0NIM11bQ0gyXWMxbmMobltuSF0xKVtDQEBIXTJbQ0gyXVtOSF1bQ0gyXVtDSDJdTzI=

> <s_epik_cmdline>
J2VwaWtfcHl0aG9uJywgJy1waCcsICc3LjAnLCAnLXRuJywgJzgnLCAnLW1hJywgJzIwMCcsICctbWV0YWxfYmluZGluZycsICctaW1hZScsICc8aW5maWxlLm1hZT4nLCAnLW9tYWUnLCAnPG91dGZpbGUubWFlPic=

> <r_lp_tautomer_probability>
0.948284

> <r_epik_Ionization_Penalty>
17.858

> <r_epik_Ionization_Penalty_Charging>
16.2847

> <r_epik_Ionization_Penalty_Neutral>
1.5733

> <r_epik_State_Penalty>
7.01418

> <r_epik_Charging_Adjusted_Penalty>
23.2989

> <i_epik_Tot_Q>
-1

> <i_epik_Tot_abs_Q>
1

> <r_epik_Metal_State_Penalty>
3.17281

> <b_epik_Metal_Only>
1

> <s_lp_Force_Field>
OPLS_2005

> <r_lp_Energy>
10.8419

> <b_lp_Chiralities_Consistent>
1

> <s_lp_Variant>
AV-unprocessed.smi:3085-13

> <Gold.Version>
5.8.1

> <Gold.Id.Protein>
6NUR|6NUR_protein|mol2

> <Gold.PLP.Fitness>
31.6322

> <Gold.PLP.PLP>
-25.8172

> <Gold.PLP.part.hbond>
-4.9751

> <Gold.PLP.part.metal>
0.0000

> <Gold.PLP.part.buried>
-0.5966

> <Gold.PLP.part.nonpolar>
-19.4841

> <Gold.PLP.part.repulsive>
0.0054

> <Gold.PLP.ligand.clash>
0.0000

> <Gold.PLP.ligand.torsion>
0.0882

> <Gold.PLP.Chemscore.Hbond>
1.9920

> <Gold.PLP.Chemscore.CHOScore>
0.0000

> <Gold.PLP.Chemscore.Metal>
0.0000

> <Gold.Chemscore.Hbonds>
donor molecule, donor type, donor heavy atom, donor atom, acceptor molecule, acceptor atom, score
      L1  H     8    22       P1  8028  0.99
      P1  H  7997  8010       L1    12  0.95

> <Gold.PLP.Chemscore.Internal.Correction>
0.0154

> <Gold.Rescore>
     Score         DG    S(hbond)    S(metal)    S(lipo)     H(rot)  DE(clash)    DE(int)     intcor
     12.65     -12.94       1.46        0.00      49.56       1.26       0.12       0.17       ----

> <Gold.Chemscore.Fitness>
12.6461

> <Gold.Chemscore.DG>
-12.9361

> <Gold.Chemscore.ZeroCoef>
-5.4800

> <Gold.Chemscore.Hbond>
1.4643

> <Gold.Chemscore.Metal>
0.0000

> <Gold.Chemscore.Lipo>
49.5614

> <Gold.Chemscore.Internal_Hbond>
0.0000

> <Gold.Chemscore.DEClash>
0.1158

> <Gold.Chemscore.DEInternal>
0.1742

> <Gold.Chemscore.Rot>
1.2630

> <Gold.Chemscore.Internal.Correction>
   9.000000E+99

> <Gold.Chemscore.Hbonds>
donor molecule, donor type, donor heavy atom, donor atom, acceptor molecule, acceptor atom, score
      L1  H     8    22       P1  8028  0.87
      P1  H  7997  8010       L1    12  0.06

> <Gold.Chemscore.Hbond.Weighted>
-4.8907

> <Gold.Chemscore.Metal.Weighted>
-0.0000

> <Gold.Chemscore.Lipo.Weighted>
-5.7987

> <Gold.Chemscore.Internal_Hbond.Weighted>
0.0000

> <Gold.Chemscore.DEClash.Weighted>
0.1158

> <Gold.Chemscore.DEInternal.Weighted>
0.1742

> <Gold.Chemscore.Rot.Weighted>
3.2333

> <Gold.Chemscore.Internal.Correction.Weighted>
   9.000000E+99

> <Gold.Protein.RotatedTorsions>
[ 6907 6896 6895 6894 ] final  -35.47 input  -60.11 | X-H torsion
[ 7974 7965 7964 7962 ] final -172.87 input  175.53 | X-H torsion
[ 8008 7997 7996 7995 ] final   66.02 input   59.86 | X-H torsion
[ 10167 10162 10161 10158 ] final  153.20 input  -65.29 | X-H torsion
[ 10718 10713 10712 10709 ] final  -24.97 input   66.30 | X-H torsion
[ 10763 10752 10751 10750 ] final  163.55 input  -60.55 | X-H torsion
[ 11005 11000 10999 10996 ] final   32.81 input  -57.11 | X-H torsion

> <Gold.Protein.ActiveResidues>
 VAL166  LYS551  ARG553  GLY616  TRP617  ASP618  TYR619  PRO620  LYS621  CYS622 
 ASP623  PHE694  ASN695  SER759  ASP760  ASP761  ALA762  ILE779  LEU786  VAL792 
 PHE793  MET794  SER795  GLU796  ALA797  LYS798  CYS799  TRP800  GLU811  SER814 

> <Gold.Protein.RotatedAtoms>
  151.0394  134.9596  159.8153 H   0  0  0  0  0  0  0  0  0  0  0  0  # atno 6907 bound_to 6896
  152.5361  134.2677  159.8969 H   0  0  0  0  0  0  0  0  0  0  0  0  # atno 6908 bound_to 6896
  151.2689  133.4222  159.2654 H   0  0  0  0  0  0  0  0  0  0  0  0  # atno 6909 bound_to 6896
  144.7142  140.1708  143.6367 H   0  0  0  0  0  0  0  0  0  0  0  0  # atno 7974 bound_to 7965
  155.6709  140.3497  155.4818 H   0  0  0  0  0  0  0  0  0  0  0  0  # atno 8008 bound_to 7997
  155.9689  140.1152  157.0853 H   0  0  0  0  0  0  0  0  0  0  0  0  # atno 8009 bound_to 7997
  154.4161  140.1161  156.5266 H   0  0  0  0  0  0  0  0  0  0  0  0  # atno 8010 bound_to 7997
  139.4828  144.5293  151.7749 H   0  0  0  0  0  0  0  0  0  0  0  0  # atno 10167 bound_to 10162
  156.4705  130.4523  149.6872 H   0  0  0  0  0  0  0  0  0  0  0  0  # atno 10718 bound_to 10713
  154.2955  135.2760  155.2635 H   0  0  0  0  0  0  0  0  0  0  0  0  # atno 10763 bound_to 10752
  154.5095  135.5786  153.6597 H   0  0  0  0  0  0  0  0  0  0  0  0  # atno 10764 bound_to 10752
  152.9908  135.6177  154.3122 H   0  0  0  0  0  0  0  0  0  0  0  0  # atno 10765 bound_to 10752
  140.2696  134.3098  155.7832 H   0  0  0  0  0  0  0  0  0  0  0  0  # atno 11005 bound_to 11000
  145.8945  139.2395  143.1529 LP  0  0  0  0  0  0  0  0  0  0  0  0  # atno 17320 bound_to 7965
  145.9871  140.8634  143.0085 LP  0  0  0  0  0  0  0  0  0  0  0  0  # atno 17321 bound_to 7965
  140.4817  144.1440  150.5934 LP  0  0  0  0  0  0  0  0  0  0  0  0  # atno 17342 bound_to 10162
  140.4270  143.2585  151.9643 LP  0  0  0  0  0  0  0  0  0  0  0  0  # atno 17343 bound_to 10162
  156.3623  130.7488  151.2461 LP  0  0  0  0  0  0  0  0  0  0  0  0  # atno 17370 bound_to 10713
  157.7491  131.0347  150.4328 LP  0  0  0  0  0  0  0  0  0  0  0  0  # atno 17371 bound_to 10713
  141.2179  133.7459  156.9314 LP  0  0  0  0  0  0  0  0  0  0  0  0  # atno 17394 bound_to 11000
  140.1386  134.9309  157.2436 LP  0  0  0  0  0  0  0  0  0  0  0  0  # atno 17395 bound_to 11000

$$$$
