AV-unprocessed.smi:897|AV-procd|sdf|4080|dock4
  -GOLD-   22720 1563D 1   1.00000     0.00000
 Structure written by MMmdl.
 35 37  0  0  0  0  0  0  0  0  1 V2000
  151.9292  144.5778  158.5102 C   0  0  0  0  0  0  0  0  0  0  0  0
  152.3297  143.1671  158.8877 C   0  0  0  0  0  0  0  0  0  0  0  0
  153.1023  142.9160  160.0366 C   0  0  0  0  0  0  0  0  0  0  0  0
  153.4463  141.5838  160.3426 C   0  0  0  0  0  0  0  0  0  0  0  0
  154.2841  141.3012  161.5808 C   0  0  0  0  0  0  0  0  0  0  0  0
  152.9976  140.5488  159.4811 C   0  0  0  0  0  0  0  0  0  0  0  0
  153.3267  139.1532  159.7651 C   0  0  0  0  0  0  0  0  0  0  0  0
  153.5864  138.0483  159.9902 N   0  0  0  0  0  0  0  0  0  0  0  0
  152.2195  140.9053  158.3449 C   0  0  0  0  0  0  0  0  0  0  0  0
  151.7546  139.9157  157.4588 N   0  0  0  0  0  0  0  0  0  0  0  0
  151.6427  140.1722  156.0259 C   0  0  1  0  0  0  0  0  0  0  0  0
  152.3921  139.1438  155.1754 C   0  0  0  0  0  0  0  0  0  0  0  0
  151.2937  138.6679  154.2142 C   0  0  1  0  0  0  0  0  0  0  0  0
  150.2956  137.7373  154.9152 C   0  0  0  0  0  0  0  0  0  0  0  0
  149.5232  138.7178  155.7955 C   0  0  0  0  0  0  0  0  0  0  0  0
  150.2114  140.0533  155.4643 C   0  0  2  0  0  0  0  0  0  0  0  0
  150.5100  139.8434  154.0943 O   0  0  0  0  0  0  0  0  0  0  0  0
  151.9005  142.1910  158.0631 N   0  0  0  0  0  0  0  0  0  0  0  0
  152.4279  145.3129  159.1425 H   0  0  0  0  0  0  0  0  0  0  0  0
  150.8523  144.7069  158.6204 H   0  0  0  0  0  0  0  0  0  0  0  0
  152.1968  144.7854  157.4737 H   0  0  0  0  0  0  0  0  0  0  0  0
  153.4242  143.7300  160.6698 H   0  0  0  0  0  0  0  0  0  0  0  0
  153.7433  140.6509  162.2692 H   0  0  0  0  0  0  0  0  0  0  0  0
  154.5293  142.2207  162.1131 H   0  0  0  0  0  0  0  0  0  0  0  0
  155.2201  140.8142  161.3058 H   0  0  0  0  0  0  0  0  0  0  0  0
  151.2304  139.1405  157.8382 H   0  0  0  0  0  0  0  0  0  0  0  0
  152.0427  141.1623  155.8023 H   0  0  0  0  0  0  0  0  0  0  0  0
  153.2043  139.6262  154.6305 H   0  0  0  0  0  0  0  0  0  0  0  0
  152.8152  138.3192  155.7510 H   0  0  0  0  0  0  0  0  0  0  0  0
  151.6710  138.2787  153.2682 H   0  0  0  0  0  0  0  0  0  0  0  0
  149.6288  137.2663  154.1919 H   0  0  0  0  0  0  0  0  0  0  0  0
  150.7901  136.9517  155.4875 H   0  0  0  0  0  0  0  0  0  0  0  0
  148.4739  138.7454  155.4997 H   0  0  0  0  0  0  0  0  0  0  0  0
  149.5652  138.4642  156.8549 H   0  0  0  0  0  0  0  0  0  0  0  0
  149.5874  140.9274  155.6521 H   0  0  0  0  0  0  0  0  0  0  0  0
  1  2  1  0  0  0  0
  1 19  1  0  0  0  0
  1 20  1  0  0  0  0
  1 21  1  0  0  0  0
  2 18  1  0  0  0  0
  2  3  2  0  0  0  0
  3  4  1  0  0  0  0
  3 22  1  0  0  0  0
  4  5  1  0  0  0  0
  4  6  2  0  0  0  0
  5 23  1  0  0  0  0
  5 24  1  0  0  0  0
  5 25  1  0  0  0  0
  6  7  1  0  0  0  0
  6  9  1  0  0  0  0
  7  8  3  0  0  0  0
  9 10  1  0  0  0  0
  9 18  2  0  0  0  0
 10 11  1  0  0  0  0
 10 26  1  0  0  0  0
 11 16  1  0  0  0  0
 11 12  1  0  0  0  0
 11 27  1  0  0  0  0
 12 13  1  0  0  0  0
 12 28  1  0  0  0  0
 12 29  1  0  0  0  0
 13 17  1  0  0  0  0
 13 14  1  0  0  0  0
 13 30  1  0  0  0  0
 14 15  1  0  0  0  0
 14 31  1  0  0  0  0
 14 32  1  0  0  0  0
 15 16  1  0  0  0  0
 15 33  1  0  0  0  0
 15 34  1  0  0  0  0
 16 17  1  0  0  0  0
 16 35  1  0  0  0  0
M  END
> <s_m_source_file>
AV-unprocessed.smi

> <i_m_source_file_index>
897

> <i_lp_mmshare_version>
43012

> <i_f3d_flags>
0

> <s_epik_input>
W0NIM11jMVtjSF1jKFtDSDNdKWMoQyNOKWMobjEpW05IXVtDQEhdKFtDSDJdW0NAQEhdMjMpW0NAQEhdKE8zKVtDSDJdW0NIMl0y

> <s_epik_cmdline>
J2VwaWtfcHl0aG9uJywgJy1waCcsICc3LjAnLCAnLXRuJywgJzgnLCAnLW1hJywgJzIwMCcsICctbWV0YWxfYmluZGluZycsICctaW1hZScsICc8aW5maWxlLm1hZT4nLCAnLW9tYWUnLCAnPG91dGZpbGUubWFlPic=

> <r_lp_tautomer_probability>
1

> <r_epik_Ionization_Penalty>
0.000502654

> <r_epik_Ionization_Penalty_Charging>
0

> <r_epik_Ionization_Penalty_Neutral>
0.000502654

> <r_epik_State_Penalty>
-0

> <r_epik_Charging_Adjusted_Penalty>
0

> <i_epik_Tot_Q>
0

> <i_epik_Tot_abs_Q>
0

> <r_epik_Metal_State_Penalty>
-0

> <b_epik_Metal_Only>
0

> <s_lp_Force_Field>
OPLS_2005

> <r_lp_Energy>
43.9226

> <b_lp_Chiralities_Consistent>
1

> <s_lp_Variant>
AV-unprocessed.smi:897-2

> <Gold.Version>
5.8.1

> <Gold.Id.Protein>
6NUR|6NUR_protein|mol2

> <Gold.PLP.Fitness>
41.9729

> <Gold.PLP.PLP>
-39.4748

> <Gold.PLP.part.hbond>
-1.0000

> <Gold.PLP.part.metal>
0.0000

> <Gold.PLP.part.buried>
-4.2683

> <Gold.PLP.part.nonpolar>
-34.4701

> <Gold.PLP.part.repulsive>
0.7867

> <Gold.PLP.ligand.clash>
0.0000

> <Gold.PLP.ligand.torsion>
0.2560

> <Gold.PLP.Chemscore.Hbond>
1.0000

> <Gold.PLP.Chemscore.CHOScore>
0.0000

> <Gold.PLP.Chemscore.Metal>
0.0000

> <Gold.Chemscore.Hbonds>
donor molecule, donor type, donor heavy atom, donor atom, acceptor molecule, acceptor atom, score
      P1  H  7989  7998       L1    17  1.00

> <Gold.PLP.Chemscore.Internal.Correction>
0.0101

> <Gold.Rescore>
     Score         DG    S(hbond)    S(metal)    S(lipo)     H(rot)  DE(clash)    DE(int)     intcor
     17.00     -17.29       0.64        0.00     104.50       1.00       0.01       0.27       ----

> <Gold.Chemscore.Fitness>
17.0048

> <Gold.Chemscore.DG>
-17.2929

> <Gold.Chemscore.ZeroCoef>
-5.4800

> <Gold.Chemscore.Hbond>
0.6425

> <Gold.Chemscore.Metal>
0.0000

> <Gold.Chemscore.Lipo>
104.5030

> <Gold.Chemscore.Internal_Hbond>
0.0000

> <Gold.Chemscore.DEClash>
0.0144

> <Gold.Chemscore.DEInternal>
0.2736

> <Gold.Chemscore.Rot>
1.0000

> <Gold.Chemscore.Internal.Correction>
   9.000000E+99

> <Gold.Chemscore.Hbonds>
donor molecule, donor type, donor heavy atom, donor atom, acceptor molecule, acceptor atom, score
      P1  H  7989  7998       L1    17  0.23

> <Gold.Chemscore.Hbond.Weighted>
-2.1460

> <Gold.Chemscore.Metal.Weighted>
-0.0000

> <Gold.Chemscore.Lipo.Weighted>
-12.2269

> <Gold.Chemscore.Internal_Hbond.Weighted>
0.0000

> <Gold.Chemscore.DEClash.Weighted>
0.0144

> <Gold.Chemscore.DEInternal.Weighted>
0.2736

> <Gold.Chemscore.Rot.Weighted>
2.5600

> <Gold.Chemscore.Internal.Correction.Weighted>
   9.000000E+99

> <Gold.Protein.RotatedTorsions>
[ 6907 6896 6895 6894 ] final   45.20 input  -60.11 | X-H torsion
[ 7974 7965 7964 7962 ] final  -85.47 input  175.53 | X-H torsion
[ 8008 7997 7996 7995 ] final -127.59 input   59.86 | X-H torsion
[ 10167 10162 10161 10158 ] final -118.87 input  -65.29 | X-H torsion
[ 10718 10713 10712 10709 ] final  -78.44 input   66.30 | X-H torsion
[ 10763 10752 10751 10750 ] final  102.71 input  -60.55 | X-H torsion
[ 11005 11000 10999 10996 ] final  145.55 input  -57.11 | X-H torsion

> <Gold.Protein.ActiveResidues>
 VAL166  LYS551  ARG553  GLY616  TRP617  ASP618  TYR619  PRO620  LYS621  CYS622 
 ASP623  PHE694  ASN695  SER759  ASP760  ASP761  ALA762  ILE779  LEU786  VAL792 
 PHE793  MET794  SER795  GLU796  ALA797  LYS798  CYS799  TRP800  GLU811  SER814 

> <Gold.Protein.RotatedAtoms>
  152.2417  134.8222  160.0459 H   0  0  0  0  0  0  0  0  0  0  0  0  # atno 6907 bound_to 6896
  151.8934  133.3516  159.3814 H   0  0  0  0  0  0  0  0  0  0  0  0  # atno 6908 bound_to 6896
  150.7056  134.4827  159.5522 H   0  0  0  0  0  0  0  0  0  0  0  0  # atno 6909 bound_to 6896
  145.4929  140.9552  143.1802 H   0  0  0  0  0  0  0  0  0  0  0  0  # atno 7974 bound_to 7965
  155.2486  140.0431  157.2984 H   0  0  0  0  0  0  0  0  0  0  0  0  # atno 8008 bound_to 7997
  154.5783  140.2393  155.8060 H   0  0  0  0  0  0  0  0  0  0  0  0  # atno 8009 bound_to 7997
  156.2174  140.2980  155.9880 H   0  0  0  0  0  0  0  0  0  0  0  0  # atno 8010 bound_to 7997
  140.0528  143.5043  152.2073 H   0  0  0  0  0  0  0  0  0  0  0  0  # atno 10167 bound_to 10162
  156.0117  130.4518  150.3497 H   0  0  0  0  0  0  0  0  0  0  0  0  # atno 10718 bound_to 10713
  153.3431  135.4001  155.1587 H   0  0  0  0  0  0  0  0  0  0  0  0  # atno 10763 bound_to 10752
  154.8647  135.3638  154.5320 H   0  0  0  0  0  0  0  0  0  0  0  0  # atno 10764 bound_to 10752
  153.5766  135.7077  153.5541 H   0  0  0  0  0  0  0  0  0  0  0  0  # atno 10765 bound_to 10752
  140.0721  134.9145  157.1363 H   0  0  0  0  0  0  0  0  0  0  0  0  # atno 11005 bound_to 11000
  144.7824  139.6498  143.7149 LP  0  0  0  0  0  0  0  0  0  0  0  0  # atno 17320 bound_to 7965
  146.2273  139.5747  142.9578 LP  0  0  0  0  0  0  0  0  0  0  0  0  # atno 17321 bound_to 7965
  139.5942  144.7561  151.3326 LP  0  0  0  0  0  0  0  0  0  0  0  0  # atno 17342 bound_to 10162
  140.7209  143.7139  150.7748 LP  0  0  0  0  0  0  0  0  0  0  0  0  # atno 17343 bound_to 10162
  157.1590  131.0340  151.2850 LP  0  0  0  0  0  0  0  0  0  0  0  0  # atno 17370 bound_to 10713
  157.4328  130.7500  149.7004 LP  0  0  0  0  0  0  0  0  0  0  0  0  # atno 17371 bound_to 10713
  140.3611  134.2493  155.7187 LP  0  0  0  0  0  0  0  0  0  0  0  0  # atno 17394 bound_to 11000
  141.2016  133.7959  157.0433 LP  0  0  0  0  0  0  0  0  0  0  0  0  # atno 17395 bound_to 11000

$$$$
