AV-unprocessed.smi:1099|AV-procd|sdf|4757|dock5
  -GOLD-   22720 3293D 1   1.00000     0.00000
 Structure written by MMmdl.
 41 43  0  0  0  0  0  0  0  0  1 V2000
  153.8559  137.0708  164.9422 C   0  0  0  0  0  0  0  0  0  0  0  0
  154.6009  136.0751  164.0470 C   0  0  0  0  0  0  0  0  0  0  0  0
  154.7838  136.5812  162.6552 C   0  0  0  0  0  0  0  0  0  0  0  0
  154.3193  137.7599  162.2316 N   0  0  0  0  0  0  0  0  0  0  0  0
  154.5907  137.9912  160.8794 C   0  0  0  0  0  0  0  0  0  0  0  0
  154.1553  139.2722  160.2348 C   0  0  0  0  0  0  0  0  0  0  0  0
  153.8350  140.3632  161.2658 C   0  0  0  0  0  0  0  0  0  0  0  0
  153.6943  141.6591  160.6155 N   0  0  0  0  0  0  0  0  0  0  0  0
  152.7297  142.5475  160.8949 C   0  0  0  0  0  0  0  0  0  0  0  0
  151.8559  142.3421  161.7381 O   0  0  0  0  0  0  0  0  0  0  0  0
  152.7891  143.8758  160.1190 C   0  0  2  0  0  0  0  0  0  0  0  0
  151.5134  144.7473  160.2290 C   0  0  0  0  0  0  0  0  0  0  0  0
  151.1597  145.0306  158.7568 C   0  0  2  0  0  0  0  0  0  0  0  0
  150.5930  143.7535  158.1090 C   0  0  0  0  0  0  0  0  0  0  0  0
  151.8472  142.8777  157.9341 C   0  0  0  0  0  0  0  0  0  0  0  0
  152.9557  143.7363  158.5824 C   0  0  1  0  0  0  0  0  0  0  0  0
  152.5396  145.1283  158.1159 C   0  0  0  0  0  0  0  0  0  0  0  0
  155.2632  136.9567  160.2780 C   0  0  0  0  0  0  0  0  0  0  0  0
  155.5763  135.6518  161.3884 S   0  0  0  0  0  0  0  0  0  0  0  0
  153.7341  136.6714  165.9491 H   0  0  0  0  0  0  0  0  0  0  0  0
  152.8628  137.2882  164.5475 H   0  0  0  0  0  0  0  0  0  0  0  0
  154.3998  138.0126  165.0203 H   0  0  0  0  0  0  0  0  0  0  0  0
  155.5796  135.8509  164.4729 H   0  0  0  0  0  0  0  0  0  0  0  0
  154.0547  135.1323  164.0061 H   0  0  0  0  0  0  0  0  0  0  0  0
  154.9349  139.6285  159.5602 H   0  0  0  0  0  0  0  0  0  0  0  0
  153.2790  139.0932  159.6103 H   0  0  0  0  0  0  0  0  0  0  0  0
  152.9132  140.1211  161.7971 H   0  0  0  0  0  0  0  0  0  0  0  0
  154.6318  140.4184  162.0092 H   0  0  0  0  0  0  0  0  0  0  0  0
  154.3791  141.9004  159.9139 H   0  0  0  0  0  0  0  0  0  0  0  0
  153.6291  144.4562  160.5060 H   0  0  0  0  0  0  0  0  0  0  0  0
  150.6875  144.2737  160.7611 H   0  0  0  0  0  0  0  0  0  0  0  0
  151.7397  145.6777  160.7511 H   0  0  0  0  0  0  0  0  0  0  0  0
  150.5243  145.9063  158.6217 H   0  0  0  0  0  0  0  0  0  0  0  0
  149.8373  143.2758  158.7338 H   0  0  0  0  0  0  0  0  0  0  0  0
  150.1393  143.9720  157.1415 H   0  0  0  0  0  0  0  0  0  0  0  0
  151.7388  141.8868  158.3732 H   0  0  0  0  0  0  0  0  0  0  0  0
  152.0568  142.7328  156.8734 H   0  0  0  0  0  0  0  0  0  0  0  0
  153.9630  143.4477  158.2803 H   0  0  0  0  0  0  0  0  0  0  0  0
  152.5063  145.2319  157.0297 H   0  0  0  0  0  0  0  0  0  0  0  0
  153.1546  145.9289  158.5313 H   0  0  0  0  0  0  0  0  0  0  0  0
  155.5905  136.8826  159.2517 H   0  0  0  0  0  0  0  0  0  0  0  0
  1  2  1  0  0  0  0
  1 20  1  0  0  0  0
  1 21  1  0  0  0  0
  1 22  1  0  0  0  0
  2  3  1  0  0  0  0
  2 23  1  0  0  0  0
  2 24  1  0  0  0  0
  3 19  1  0  0  0  0
  3  4  2  0  0  0  0
  4  5  1  0  0  0  0
  5  6  1  0  0  0  0
  5 18  2  0  0  0  0
  6  7  1  0  0  0  0
  6 25  1  0  0  0  0
  6 26  1  0  0  0  0
  7  8  1  0  0  0  0
  7 27  1  0  0  0  0
  7 28  1  0  0  0  0
  8  9  1  0  0  0  0
  8 29  1  0  0  0  0
  9 10  2  0  0  0  0
  9 11  1  0  0  0  0
 11 16  1  0  0  0  0
 11 12  1  0  0  0  0
 11 30  1  0  0  0  0
 12 13  1  0  0  0  0
 12 31  1  0  0  0  0
 12 32  1  0  0  0  0
 13 17  1  0  0  0  0
 13 14  1  0  0  0  0
 13 33  1  0  0  0  0
 14 15  1  0  0  0  0
 14 34  1  0  0  0  0
 14 35  1  0  0  0  0
 15 16  1  0  0  0  0
 15 36  1  0  0  0  0
 15 37  1  0  0  0  0
 16 17  1  0  0  0  0
 16 38  1  0  0  0  0
 17 39  1  0  0  0  0
 17 40  1  0  0  0  0
 18 19  1  0  0  0  0
 18 41  1  0  0  0  0
M  END
> <s_m_source_file>
AV-unprocessed.smi

> <i_m_source_file_index>
1099

> <i_lp_mmshare_version>
43012

> <i_f3d_flags>
0

> <s_epik_input>
W0NIM11bQ0gyXWMxbmMoW2NIXXMxKVtDSDJdW0NIMl1bTkhdQyg9TylbQ0BIXShbQ0gyXVtDQEBIXTIzKVtDQEBIXShbQ0gyXTMpW0NIMl1bQ0gyXTI=

> <s_epik_cmdline>
J2VwaWtfcHl0aG9uJywgJy1waCcsICc3LjAnLCAnLXRuJywgJzgnLCAnLW1hJywgJzIwMCcsICctbWV0YWxfYmluZGluZycsICctaW1hZScsICc8aW5maWxlLm1hZT4nLCAnLW9tYWUnLCAnPG91dGZpbGUubWFlPic=

> <r_epik_Ionization_Penalty>
0.00110131

> <r_epik_Ionization_Penalty_Charging>
0

> <r_epik_Ionization_Penalty_Neutral>
0.00110131

> <r_epik_State_Penalty>
0.00072257

> <r_epik_Charging_Adjusted_Penalty>
0.00072257

> <i_epik_Tot_Q>
0

> <i_epik_Tot_abs_Q>
0

> <r_epik_Metal_State_Penalty>
-0

> <b_epik_Metal_Only>
0

> <s_lp_Force_Field>
OPLS_2005

> <r_lp_Energy>
38.6178

> <b_lp_Chiralities_Consistent>
1

> <s_lp_Variant>
AV-unprocessed.smi:1099-3

> <Gold.Version>
5.8.1

> <Gold.Id.Protein>
6NUR|6NUR_protein|mol2

> <Gold.PLP.Fitness>
43.9330

> <Gold.PLP.PLP>
-43.2797

> <Gold.PLP.part.hbond>
-1.0000

> <Gold.PLP.part.metal>
0.0000

> <Gold.PLP.part.buried>
-6.3552

> <Gold.PLP.part.nonpolar>
-37.9599

> <Gold.PLP.part.repulsive>
0.1645

> <Gold.PLP.ligand.clash>
0.0000

> <Gold.PLP.ligand.torsion>
0.6678

> <Gold.PLP.Chemscore.Hbond>
0.6458

> <Gold.PLP.Chemscore.CHOScore>
0.0000

> <Gold.PLP.Chemscore.Metal>
0.0000

> <Gold.Chemscore.Hbonds>
donor molecule, donor type, donor heavy atom, donor atom, acceptor molecule, acceptor atom, score
      P1  H  6933  6945       L1    10  0.77

> <Gold.PLP.Chemscore.Internal.Correction>
0.0514

> <Gold.Rescore>
     Score         DG    S(hbond)    S(metal)    S(lipo)     H(rot)  DE(clash)    DE(int)     intcor
     19.14     -20.74       0.92        0.00     135.14       1.42       0.57       1.02       ----

> <Gold.Chemscore.Fitness>
19.1445

> <Gold.Chemscore.DG>
-20.7371

> <Gold.Chemscore.ZeroCoef>
-5.4800

> <Gold.Chemscore.Hbond>
0.9198

> <Gold.Chemscore.Metal>
0.0000

> <Gold.Chemscore.Lipo>
135.1386

> <Gold.Chemscore.Internal_Hbond>
0.0000

> <Gold.Chemscore.DEClash>
0.5719

> <Gold.Chemscore.DEInternal>
1.0208

> <Gold.Chemscore.Rot>
1.4165

> <Gold.Chemscore.Internal.Correction>
   9.000000E+99

> <Gold.Chemscore.Hbonds>
donor molecule, donor type, donor heavy atom, donor atom, acceptor molecule, acceptor atom, score
      P1  H  6933  6945       L1    10  0.75

> <Gold.Chemscore.Hbond.Weighted>
-3.0721

> <Gold.Chemscore.Metal.Weighted>
-0.0000

> <Gold.Chemscore.Lipo.Weighted>
-15.8112

> <Gold.Chemscore.Internal_Hbond.Weighted>
0.0000

> <Gold.Chemscore.DEClash.Weighted>
0.5719

> <Gold.Chemscore.DEInternal.Weighted>
1.0208

> <Gold.Chemscore.Rot.Weighted>
3.6262

> <Gold.Chemscore.Internal.Correction.Weighted>
   9.000000E+99

> <Gold.Protein.RotatedTorsions>
[ 6907 6896 6895 6894 ] final   81.10 input  -60.11 | X-H torsion
[ 7974 7965 7964 7962 ] final   79.21 input  175.53 | X-H torsion
[ 8008 7997 7996 7995 ] final  -65.61 input   59.86 | X-H torsion
[ 10167 10162 10161 10158 ] final   -9.21 input  -65.29 | X-H torsion
[ 10718 10713 10712 10709 ] final  169.39 input   66.30 | X-H torsion
[ 10763 10752 10751 10750 ] final  176.26 input  -60.55 | X-H torsion
[ 11005 11000 10999 10996 ] final  145.01 input  -57.11 | X-H torsion

> <Gold.Protein.ActiveResidues>
 VAL166  LYS551  ARG553  GLY616  TRP617  ASP618  TYR619  PRO620  LYS621  CYS622 
 ASP623  PHE694  ASN695  SER759  ASP760  ASP761  ALA762  ILE779  LEU786  VAL792 
 PHE793  MET794  SER795  GLU796  ALA797  LYS798  CYS799  TRP800  GLU811  SER814 

> <Gold.Protein.RotatedAtoms>
  152.5257  134.3255  159.9163 H   0  0  0  0  0  0  0  0  0  0  0  0  # atno 6907 bound_to 6896
  151.3204  133.4036  159.2662 H   0  0  0  0  0  0  0  0  0  0  0  0  # atno 6908 bound_to 6896
  150.9963  134.9303  159.7986 H   0  0  0  0  0  0  0  0  0  0  0  0  # atno 6909 bound_to 6896
  145.6672  139.2487  143.1889 H   0  0  0  0  0  0  0  0  0  0  0  0  # atno 7974 bound_to 7965
  154.4682  140.0929  156.7076 H   0  0  0  0  0  0  0  0  0  0  0  0  # atno 8008 bound_to 7997
  155.4797  140.3467  155.4319 H   0  0  0  0  0  0  0  0  0  0  0  0  # atno 8009 bound_to 7997
  156.0994  140.1418  156.9477 H   0  0  0  0  0  0  0  0  0  0  0  0  # atno 8010 bound_to 7997
  140.7081  143.5883  150.8920 H   0  0  0  0  0  0  0  0  0  0  0  0  # atno 10167 bound_to 10162
  157.0233  131.0238  151.2768 H   0  0  0  0  0  0  0  0  0  0  0  0  # atno 10718 bound_to 10713
  154.4787  135.2774  155.1587 H   0  0  0  0  0  0  0  0  0  0  0  0  # atno 10763 bound_to 10752
  154.3307  135.6190  153.5553 H   0  0  0  0  0  0  0  0  0  0  0  0  # atno 10764 bound_to 10752
  152.9872  135.5765  154.5183 H   0  0  0  0  0  0  0  0  0  0  0  0  # atno 10765 bound_to 10752
  140.0678  134.9169  157.1294 H   0  0  0  0  0  0  0  0  0  0  0  0  # atno 11005 bound_to 11000
  146.1076  140.7468  142.9519 LP  0  0  0  0  0  0  0  0  0  0  0  0  # atno 17320 bound_to 7965
  144.7069  140.3887  143.7111 LP  0  0  0  0  0  0  0  0  0  0  0  0  # atno 17321 bound_to 7965
  139.9608  143.6166  152.3003 LP  0  0  0  0  0  0  0  0  0  0  0  0  # atno 17342 bound_to 10162
  139.6718  144.7660  151.1769 LP  0  0  0  0  0  0  0  0  0  0  0  0  # atno 17343 bound_to 10162
  157.5233  130.8012  149.7833 LP  0  0  0  0  0  0  0  0  0  0  0  0  # atno 17370 bound_to 10713
  156.0094  130.3840  150.2315 LP  0  0  0  0  0  0  0  0  0  0  0  0  # atno 17371 bound_to 10713
  140.3672  134.2429  155.7181 LP  0  0  0  0  0  0  0  0  0  0  0  0  # atno 17394 bound_to 11000
  141.2000  133.7998  157.0511 LP  0  0  0  0  0  0  0  0  0  0  0  0  # atno 17395 bound_to 11000

$$$$
