AV-unprocessed.smi:2671|AV-procd|sdf|10346|dock7
  -GOLD-   2272014373D 1   1.00000     0.00000
 Structure written by MMmdl.
 28 29  0  0  0  0  0  0  0  0  2 V2000
  152.9336  138.0503  154.3811 O   0  0  0  0  0  0  0  0  0  0  0  0
  152.1719  138.8058  154.9810 C   0  0  0  0  0  0  0  0  0  0  0  0
  150.8107  138.9996  154.4839 C   0  0  0  0  0  0  0  0  0  0  0  0
  149.9768  139.8330  155.1546 C   0  0  0  0  0  0  0  0  0  0  0  0
  148.5557  140.0828  154.6784 C   0  0  0  0  0  0  0  0  0  0  0  0
  147.7076  140.0431  155.7064 F   0  0  0  0  0  0  0  0  0  0  0  0
  148.4657  141.2867  154.1134 F   0  0  0  0  0  0  0  0  0  0  0  0
  148.1694  139.1722  153.7829 F   0  0  0  0  0  0  0  0  0  0  0  0
  150.4206  140.5081  156.3072 N   0  0  0  0  0  0  0  0  0  0  0  0
  151.6176  140.3225  156.7238 C   0  0  0  0  0  0  0  0  0  0  0  0
  152.1901  141.1796  158.2015 S   0  0  0  0  0  0  0  0  0  0  0  0
  151.9410  142.9375  157.8107 C   0  0  0  0  0  0  0  0  0  0  0  0
  151.5064  143.7386  159.0455 C   0  0  2  0  0  0  0  0  0  0  0  0
  151.6566  145.2551  158.9073 C   0  0  0  0  0  0  0  0  0  0  0  0
  151.8874  145.7319  160.3340 C   0  0  0  0  0  0  0  0  0  0  0  0
  152.1096  144.4439  161.1304 C   0  0  0  0  0  0  0  0  0  0  0  0
  152.3495  143.4471  160.1485 O   0  0  0  0  0  0  0  0  0  0  0  0
  152.5270  139.4900  156.1068 N   0  5  0  0  0  0  0  0  0  0  0  0
  150.4772  138.4845  153.5951 H   0  0  0  0  0  0  0  0  0  0  0  0
  151.1970  143.0319  157.0189 H   0  0  0  0  0  0  0  0  0  0  0  0
  152.8760  143.3421  157.4223 H   0  0  0  0  0  0  0  0  0  0  0  0
  150.4798  143.4859  159.3182 H   0  0  0  0  0  0  0  0  0  0  0  0
  152.5281  145.4971  158.2978 H   0  0  0  0  0  0  0  0  0  0  0  0
  150.7858  145.7181  158.4426 H   0  0  0  0  0  0  0  0  0  0  0  0
  152.7610  146.3827  160.3820 H   0  0  0  0  0  0  0  0  0  0  0  0
  151.0326  146.2874  160.7213 H   0  0  0  0  0  0  0  0  0  0  0  0
  152.9414  144.5205  161.8311 H   0  0  0  0  0  0  0  0  0  0  0  0
  151.2130  144.1814  161.6938 H   0  0  0  0  0  0  0  0  0  0  0  0
  1  2  2  0  0  0  0
  2 18  1  0  0  0  0
  2  3  1  0  0  0  0
  3 19  1  0  0  0  0
  3  4  2  0  0  0  0
  4  5  1  0  0  0  0
  4  9  1  0  0  0  0
  5  6  1  0  0  0  0
  5  7  1  0  0  0  0
  5  8  1  0  0  0  0
  9 10  2  0  0  0  0
 10 11  1  0  0  0  0
 10 18  1  0  0  0  0
 11 12  1  0  0  0  0
 12 13  1  0  0  0  0
 12 20  1  0  0  0  0
 12 21  1  0  0  0  0
 13 17  1  0  0  0  0
 13 14  1  0  0  0  0
 13 22  1  0  0  0  0
 14 15  1  0  0  0  0
 14 23  1  0  0  0  0
 14 24  1  0  0  0  0
 15 16  1  0  0  0  0
 15 25  1  0  0  0  0
 15 26  1  0  0  0  0
 16 17  1  0  0  0  0
 16 27  1  0  0  0  0
 16 28  1  0  0  0  0
M  CHG  1  18  -1
M  END
> <s_m_source_file>
AV-unprocessed.smi

> <i_m_source_file_index>
2671

> <i_lp_mmshare_version>
43012

> <i_f3d_flags>
0

> <s_epik_input>
W09IXWMxW2NIXWMoQyhGKShGKUYpbmMobjEpU1tDSDJdW0NAQEhdMltDSDJdW0NIMl1bQ0gyXU8y

> <s_epik_cmdline>
J2VwaWtfcHl0aG9uJywgJy1waCcsICc3LjAnLCAnLXRuJywgJzgnLCAnLW1hJywgJzIwMCcsICctbWV0YWxfYmluZGluZycsICctaW1hZScsICc8aW5maWxlLm1hZT4nLCAnLW9tYWUnLCAnPG91dGZpbGUubWFlPic=

> <r_lp_tautomer_probability>
1

> <r_epik_Ionization_Penalty>
0.972901

> <r_epik_Ionization_Penalty_Charging>
0.00136034

> <r_epik_Ionization_Penalty_Neutral>
0.971541

> <r_epik_State_Penalty>
0.242243

> <r_epik_Charging_Adjusted_Penalty>
0.243604

> <i_epik_Tot_Q>
-1

> <i_epik_Tot_abs_Q>
1

> <r_epik_Metal_State_Penalty>
0.0617458

> <b_epik_Metal_Only>
0

> <s_lp_Force_Field>
OPLS_2005

> <r_lp_Energy>
24.2298

> <b_lp_Chiralities_Consistent>
1

> <s_lp_Variant>
AV-unprocessed.smi:2671-1

> <Gold.Version>
5.8.1

> <Gold.Id.Protein>
6NUR|6NUR_protein|mol2

> <Gold.PLP.Fitness>
42.1899

> <Gold.PLP.PLP>
-38.3193

> <Gold.PLP.part.hbond>
-2.0000

> <Gold.PLP.part.metal>
0.0000

> <Gold.PLP.part.buried>
-5.7826

> <Gold.PLP.part.nonpolar>
-31.4052

> <Gold.PLP.part.repulsive>
0.0964

> <Gold.PLP.ligand.clash>
0.4305

> <Gold.PLP.ligand.torsion>
0.9041

> <Gold.PLP.Chemscore.Hbond>
2.0296

> <Gold.PLP.Chemscore.CHOScore>
0.0000

> <Gold.PLP.Chemscore.Metal>
0.0000

> <Gold.Chemscore.Hbonds>
donor molecule, donor type, donor heavy atom, donor atom, acceptor molecule, acceptor atom, score
      P1  H  7997  8009       L1    18  2.00
      P1  H 10752 10764       L1     1  0.02

> <Gold.PLP.Chemscore.Internal.Correction>
0.0205

> <Gold.Rescore>
     Score         DG    S(hbond)    S(metal)    S(lipo)     H(rot)  DE(clash)    DE(int)     intcor
     12.87     -13.96       0.86        0.00      84.41       1.66       0.24       0.84       ----

> <Gold.Chemscore.Fitness>
12.8747

> <Gold.Chemscore.DG>
-13.9553

> <Gold.Chemscore.ZeroCoef>
-5.4800

> <Gold.Chemscore.Hbond>
0.8565

> <Gold.Chemscore.Metal>
0.0000

> <Gold.Chemscore.Lipo>
84.4145

> <Gold.Chemscore.Internal_Hbond>
0.0000

> <Gold.Chemscore.DEClash>
0.2386

> <Gold.Chemscore.DEInternal>
0.8420

> <Gold.Chemscore.Rot>
1.6649

> <Gold.Chemscore.Internal.Correction>
   9.000000E+99

> <Gold.Chemscore.Hbonds>
donor molecule, donor type, donor heavy atom, donor atom, acceptor molecule, acceptor atom, score
      P1  H  7997  8009       L1    18  0.81
      P1  H 10752 10764       L1     1  0.03

> <Gold.Chemscore.Hbond.Weighted>
-2.8608

> <Gold.Chemscore.Metal.Weighted>
-0.0000

> <Gold.Chemscore.Lipo.Weighted>
-9.8765

> <Gold.Chemscore.Internal_Hbond.Weighted>
0.0000

> <Gold.Chemscore.DEClash.Weighted>
0.2386

> <Gold.Chemscore.DEInternal.Weighted>
0.8420

> <Gold.Chemscore.Rot.Weighted>
4.2620

> <Gold.Chemscore.Internal.Correction.Weighted>
   9.000000E+99

> <Gold.Protein.RotatedTorsions>
[ 6907 6896 6895 6894 ] final   88.56 input  -60.11 | X-H torsion
[ 7974 7965 7964 7962 ] final  154.53 input  175.53 | X-H torsion
[ 8008 7997 7996 7995 ] final -157.01 input   59.86 | X-H torsion
[ 10167 10162 10161 10158 ] final -165.23 input  -65.29 | X-H torsion
[ 10718 10713 10712 10709 ] final  -97.22 input   66.30 | X-H torsion
[ 10763 10752 10751 10750 ] final -116.44 input  -60.55 | X-H torsion
[ 11005 11000 10999 10996 ] final  168.22 input  -57.11 | X-H torsion

> <Gold.Protein.ActiveResidues>
 VAL166  LYS551  ARG553  GLY616  TRP617  ASP618  TYR619  PRO620  LYS621  CYS622 
 ASP623  PHE694  ASN695  SER759  ASP760  ASP761  ALA762  ILE779  LEU786  VAL792 
 PHE793  MET794  SER795  GLU796  ALA797  LYS798  CYS799  TRP800  GLU811  SER814 

> <Gold.Protein.RotatedAtoms>
  152.5426  134.2103  159.8746 H   0  0  0  0  0  0  0  0  0  0  0  0  # atno 6907 bound_to 6896
  151.2086  133.4562  159.2605 H   0  0  0  0  0  0  0  0  0  0  0  0  # atno 6908 bound_to 6896
  151.0919  134.9934  159.8462 H   0  0  0  0  0  0  0  0  0  0  0  0  # atno 6909 bound_to 6896
  144.8083  139.6946  143.6152 H   0  0  0  0  0  0  0  0  0  0  0  0  # atno 7974 bound_to 7965
  155.7259  140.0796  157.2310 H   0  0  0  0  0  0  0  0  0  0  0  0  # atno 8008 bound_to 7997
  154.4039  140.1604  156.2508 H   0  0  0  0  0  0  0  0  0  0  0  0  # atno 8009 bound_to 7997
  155.9154  140.3401  155.6134 H   0  0  0  0  0  0  0  0  0  0  0  0  # atno 8010 bound_to 7997
  139.6196  144.0651  152.1920 H   0  0  0  0  0  0  0  0  0  0  0  0  # atno 10167 bound_to 10162
  156.0079  130.5185  150.6343 H   0  0  0  0  0  0  0  0  0  0  0  0  # atno 10718 bound_to 10713
  154.8519  135.4345  154.1821 H   0  0  0  0  0  0  0  0  0  0  0  0  # atno 10763 bound_to 10752
  153.2909  135.6961  153.7299 H   0  0  0  0  0  0  0  0  0  0  0  0  # atno 10764 bound_to 10752
  153.6467  135.3458  155.3062 H   0  0  0  0  0  0  0  0  0  0  0  0  # atno 10765 bound_to 10752
  140.2850  134.7719  157.3790 H   0  0  0  0  0  0  0  0  0  0  0  0  # atno 11005 bound_to 11000
  146.2378  139.5940  142.9512 LP  0  0  0  0  0  0  0  0  0  0  0  0  # atno 17320 bound_to 7965
  145.5385  141.0422  143.2344 LP  0  0  0  0  0  0  0  0  0  0  0  0  # atno 17321 bound_to 7965
  140.0289  144.6096  150.7504 LP  0  0  0  0  0  0  0  0  0  0  0  0  # atno 17342 bound_to 10162
  140.7373  143.2764  151.3729 LP  0  0  0  0  0  0  0  0  0  0  0  0  # atno 17343 bound_to 10162
  157.4135  131.0827  151.1199 LP  0  0  0  0  0  0  0  0  0  0  0  0  # atno 17370 bound_to 10713
  157.1823  130.6315  149.5676 LP  0  0  0  0  0  0  0  0  0  0  0  0  # atno 17371 bound_to 10713
  140.1248  134.5172  155.8154 LP  0  0  0  0  0  0  0  0  0  0  0  0  # atno 17394 bound_to 11000
  141.2156  133.6769  156.6931 LP  0  0  0  0  0  0  0  0  0  0  0  0  # atno 17395 bound_to 11000

$$$$
