AV-unprocessed.smi:1403|AV-procd|sdf|5703|dock9
  -GOLD-   22720 5333D 1   1.00000     0.00000
 Structure written by MMmdl.
 35 36  0  0  0  0  0  0  0  0  2 V2000
  145.5722  135.6955  151.5984 C   0  0  0  0  0  0  0  0  0  0  0  0
  145.8304  134.4637  152.4777 C   0  0  2  0  0  0  0  0  0  0  0  0
  147.2278  134.4765  152.9026 N   0  0  0  0  0  0  0  0  0  0  0  0
  147.7836  133.6950  153.8449 C   0  0  0  0  0  0  0  0  0  0  0  0
  147.1492  132.8459  154.4702 O   0  0  0  0  0  0  0  0  0  0  0  0
  149.2848  133.8664  154.1348 C   0  0  0  0  0  0  0  0  0  0  0  0
  149.7621  133.1904  155.3554 N   0  0  0  0  0  0  0  0  0  0  0  0
  149.7793  131.7845  155.3536 C   0  0  0  0  0  0  0  0  0  0  0  0
  150.2049  131.0776  156.4177 C   0  0  0  0  0  0  0  0  0  0  0  0
  150.6566  131.8079  157.5954 C   0  0  0  0  0  0  0  0  0  0  0  0
  151.0462  131.1791  158.5774 O   0  0  0  0  0  0  0  0  0  0  0  0
  150.6248  133.1718  157.5470 N   0  5  0  0  0  0  0  0  0  0  0  0
  150.1914  133.8777  156.4570 C   0  0  0  0  0  0  0  0  0  0  0  0
  150.1813  135.1085  156.4302 O   0  0  0  0  0  0  0  0  0  0  0  0
  145.5097  133.1517  151.7336 C   0  0  1  0  0  0  0  0  0  0  0  0
  144.1336  133.1018  151.0699 C   0  0  0  0  0  0  0  0  0  0  0  0
  144.3043  132.0337  150.0043 C   0  0  0  0  0  0  0  0  0  0  0  0
  145.8187  131.9738  149.7806 C   0  0  0  0  0  0  0  0  0  0  0  0
  146.3731  132.9790  150.6204 O   0  0  0  0  0  0  0  0  0  0  0  0
  144.5292  135.7444  151.2848 H   0  0  0  0  0  0  0  0  0  0  0  0
  146.1897  135.6789  150.6995 H   0  0  0  0  0  0  0  0  0  0  0  0
  145.7957  136.6162  152.1383 H   0  0  0  0  0  0  0  0  0  0  0  0
  145.1771  134.5374  153.3489 H   0  0  0  0  0  0  0  0  0  0  0  0
  147.8299  135.1478  152.4471 H   0  0  0  0  0  0  0  0  0  0  0  0
  149.8466  133.5213  153.2652 H   0  0  0  0  0  0  0  0  0  0  0  0
  149.4952  134.9349  154.1979 H   0  0  0  0  0  0  0  0  0  0  0  0
  149.4344  131.3219  154.4404 H   0  0  0  0  0  0  0  0  0  0  0  0
  150.2142  129.9977  156.3990 H   0  0  0  0  0  0  0  0  0  0  0  0
  145.6242  132.2974  152.4038 H   0  0  0  0  0  0  0  0  0  0  0  0
  143.3304  132.8764  151.7722 H   0  0  0  0  0  0  0  0  0  0  0  0
  143.9104  134.0592  150.5968 H   0  0  0  0  0  0  0  0  0  0  0  0
  143.9382  131.0700  150.3598 H   0  0  0  0  0  0  0  0  0  0  0  0
  143.7605  132.2854  149.0934 H   0  0  0  0  0  0  0  0  0  0  0  0
  146.2118  130.9994  150.0731 H   0  0  0  0  0  0  0  0  0  0  0  0
  146.0923  132.1520  148.7405 H   0  0  0  0  0  0  0  0  0  0  0  0
  1  2  1  0  0  0  0
  1 20  1  0  0  0  0
  1 21  1  0  0  0  0
  1 22  1  0  0  0  0
  2  3  1  0  0  0  0
  2 15  1  0  0  0  0
  2 23  1  0  0  0  0
  3  4  1  0  0  0  0
  3 24  1  0  0  0  0
  4  5  2  0  0  0  0
  4  6  1  0  0  0  0
  6  7  1  0  0  0  0
  6 25  1  0  0  0  0
  6 26  1  0  0  0  0
  7 13  1  0  0  0  0
  7  8  1  0  0  0  0
  8  9  2  0  0  0  0
  8 27  1  0  0  0  0
  9 10  1  0  0  0  0
  9 28  1  0  0  0  0
 10 11  2  0  0  0  0
 10 12  1  0  0  0  0
 12 13  1  0  0  0  0
 13 14  2  0  0  0  0
 15 19  1  0  0  0  0
 15 16  1  0  0  0  0
 15 29  1  0  0  0  0
 16 17  1  0  0  0  0
 16 30  1  0  0  0  0
 16 31  1  0  0  0  0
 17 18  1  0  0  0  0
 17 32  1  0  0  0  0
 17 33  1  0  0  0  0
 18 19  1  0  0  0  0
 18 34  1  0  0  0  0
 18 35  1  0  0  0  0
M  CHG  1  12  -1
M  END
> <s_m_source_file>
AV-unprocessed.smi

> <i_m_source_file_index>
1403

> <i_lp_mmshare_version>
43012

> <i_f3d_flags>
0

> <s_epik_input>
TzFbQ0gyXVtDSDJdW0NIMl1bQ0BIXTFbQ0BIXShbQ0gzXSlbTkhdQyg9TylbQ0gyXW4yW2NIXVtjSF1jKD1PKVtuSF1jMj1P

> <s_epik_cmdline>
J2VwaWtfcHl0aG9uJywgJy1waCcsICc3LjAnLCAnLXRuJywgJzgnLCAnLW1hJywgJzIwMCcsICctbWV0YWxfYmluZGluZycsICctaW1hZScsICc8aW5maWxlLm1hZT4nLCAnLW9tYWUnLCAnPG91dGZpbGUubWFlPic=

> <r_lp_tautomer_probability>
0.999537

> <r_epik_Ionization_Penalty>
3.07438

> <r_epik_Ionization_Penalty_Charging>
2.82466e-08

> <r_epik_Ionization_Penalty_Neutral>
3.07438

> <r_epik_State_Penalty>
3.07341

> <r_epik_Charging_Adjusted_Penalty>
3.07341

> <i_epik_Tot_Q>
-1

> <i_epik_Tot_abs_Q>
1

> <r_epik_Metal_State_Penalty>
0.45947

> <b_epik_Metal_Only>
1

> <s_lp_Force_Field>
OPLS_2005

> <r_lp_Energy>
26.9379

> <b_lp_Chiralities_Consistent>
1

> <s_lp_Variant>
AV-unprocessed.smi:1403-7

> <Gold.Version>
5.8.1

> <Gold.Id.Protein>
6NUR|6NUR_protein|mol2

> <Gold.PLP.Fitness>
40.2461

> <Gold.PLP.PLP>
-31.9079

> <Gold.PLP.part.hbond>
-2.0000

> <Gold.PLP.part.metal>
0.0000

> <Gold.PLP.part.buried>
-4.7782

> <Gold.PLP.part.nonpolar>
-25.7786

> <Gold.PLP.part.repulsive>
0.2644

> <Gold.PLP.ligand.clash>
0.0000

> <Gold.PLP.ligand.torsion>
0.3437

> <Gold.PLP.Chemscore.Hbond>
3.0000

> <Gold.PLP.Chemscore.CHOScore>
0.0000

> <Gold.PLP.Chemscore.Metal>
0.0000

> <Gold.Chemscore.Hbonds>
donor molecule, donor type, donor heavy atom, donor atom, acceptor molecule, acceptor atom, score
      L1  H     3    24       P1  7948  1.00
      P1  H  6896  6908       L1    12  1.66

> <Gold.PLP.Chemscore.Internal.Correction>
0.0257

> <Gold.Rescore>
     Score         DG    S(hbond)    S(metal)    S(lipo)     H(rot)  DE(clash)    DE(int)     intcor
     13.59     -13.90       1.90        0.00      61.41       1.99       0.03       0.28       ----

> <Gold.Chemscore.Fitness>
13.5870

> <Gold.Chemscore.DG>
-13.8961

> <Gold.Chemscore.ZeroCoef>
-5.4800

> <Gold.Chemscore.Hbond>
1.8969

> <Gold.Chemscore.Metal>
0.0000

> <Gold.Chemscore.Lipo>
61.4110

> <Gold.Chemscore.Internal_Hbond>
0.0000

> <Gold.Chemscore.DEClash>
0.0295

> <Gold.Chemscore.DEInternal>
0.2796

> <Gold.Chemscore.Rot>
1.9940

> <Gold.Chemscore.Internal.Correction>
   9.000000E+99

> <Gold.Chemscore.Hbonds>
donor molecule, donor type, donor heavy atom, donor atom, acceptor molecule, acceptor atom, score
      L1  H     3    24       P1  7948  0.97
      P1  H  6896  6908       L1    12  0.14

> <Gold.Chemscore.Hbond.Weighted>
-6.3357

> <Gold.Chemscore.Metal.Weighted>
-0.0000

> <Gold.Chemscore.Lipo.Weighted>
-7.1851

> <Gold.Chemscore.Internal_Hbond.Weighted>
0.0000

> <Gold.Chemscore.DEClash.Weighted>
0.0295

> <Gold.Chemscore.DEInternal.Weighted>
0.2796

> <Gold.Chemscore.Rot.Weighted>
5.1047

> <Gold.Chemscore.Internal.Correction.Weighted>
   9.000000E+99

> <Gold.Protein.RotatedTorsions>
[ 6907 6896 6895 6894 ] final   88.36 input  -60.11 | X-H torsion
[ 7974 7965 7964 7962 ] final  -36.80 input  175.53 | X-H torsion
[ 8008 7997 7996 7995 ] final  -84.41 input   59.86 | X-H torsion
[ 10167 10162 10161 10158 ] final  101.26 input  -65.29 | X-H torsion
[ 10718 10713 10712 10709 ] final -150.38 input   66.30 | X-H torsion
[ 10763 10752 10751 10750 ] final   99.89 input  -60.55 | X-H torsion
[ 11005 11000 10999 10996 ] final    9.70 input  -57.11 | X-H torsion

> <Gold.Protein.ActiveResidues>
 VAL166  LYS551  ARG553  GLY616  TRP617  ASP618  TYR619  PRO620  LYS621  CYS622 
 ASP623  PHE694  ASN695  SER759  ASP760  ASP761  ALA762  ILE779  LEU786  VAL792 
 PHE793  MET794  SER795  GLU796  ALA797  LYS798  CYS799  TRP800  GLU811  SER814 

> <Gold.Protein.RotatedAtoms>
  152.5424  134.2134  159.8758 H   0  0  0  0  0  0  0  0  0  0  0  0  # atno 6907 bound_to 6896
  151.2115  133.4546  159.2606 H   0  0  0  0  0  0  0  0  0  0  0  0  # atno 6908 bound_to 6896
  151.0892  134.9918  159.8450 H   0  0  0  0  0  0  0  0  0  0  0  0  # atno 6909 bound_to 6896
  146.0630  140.6322  142.8988 H   0  0  0  0  0  0  0  0  0  0  0  0  # atno 7974 bound_to 7965
  154.6295  140.0605  156.9714 H   0  0  0  0  0  0  0  0  0  0  0  0  # atno 8008 bound_to 7997
  155.1689  140.3289  155.4378 H   0  0  0  0  0  0  0  0  0  0  0  0  # atno 8009 bound_to 7997
  156.2475  140.1917  156.6792 H   0  0  0  0  0  0  0  0  0  0  0  0  # atno 8010 bound_to 7997
  139.7453  144.6999  151.0513 H   0  0  0  0  0  0  0  0  0  0  0  0  # atno 10167 bound_to 10162
  156.4454  130.8142  151.2372 H   0  0  0  0  0  0  0  0  0  0  0  0  # atno 10718 bound_to 10713
  153.3071  135.4097  155.1304 H   0  0  0  0  0  0  0  0  0  0  0  0  # atno 10763 bound_to 10752
  154.8566  135.3555  154.5773 H   0  0  0  0  0  0  0  0  0  0  0  0  # atno 10764 bound_to 10752
  153.6201  135.7065  153.5372 H   0  0  0  0  0  0  0  0  0  0  0  0  # atno 10765 bound_to 10752
  140.5228  134.0542  155.7850 H   0  0  0  0  0  0  0  0  0  0  0  0  # atno 11005 bound_to 11000
  144.7186  140.4295  143.7025 LP  0  0  0  0  0  0  0  0  0  0  0  0  # atno 17320 bound_to 7965
  145.6527  139.1567  143.2853 LP  0  0  0  0  0  0  0  0  0  0  0  0  # atno 17321 bound_to 7965
  140.7791  143.4874  150.9938 LP  0  0  0  0  0  0  0  0  0  0  0  0  # atno 17342 bound_to 10162
  139.8562  143.7374  152.3176 LP  0  0  0  0  0  0  0  0  0  0  0  0  # atno 17343 bound_to 10162
  157.7505  131.0155  150.3506 LP  0  0  0  0  0  0  0  0  0  0  0  0  # atno 17370 bound_to 10713
  156.3873  130.3891  149.7056 LP  0  0  0  0  0  0  0  0  0  0  0  0  # atno 17371 bound_to 10713
  141.1325  133.9278  157.2506 LP  0  0  0  0  0  0  0  0  0  0  0  0  # atno 17394 bound_to 11000
  139.9596  135.0157  156.9225 LP  0  0  0  0  0  0  0  0  0  0  0  0  # atno 17395 bound_to 11000

$$$$
