AV-unprocessed.smi:3116|AV-procd|sdf|11875|dock1
  -GOLD-   2272017263D 1   1.00000     0.00000
 Structure written by MMmdl.
 33 33  0  0  0  0  0  0  0  0  1 V2000
  153.1699  138.5281  155.3110 C   0  0  0  0  0  0  0  0  0  0  0  0
  151.7376  138.8919  155.7313 C   0  0  1  0  0  0  0  0  0  0  0  0
  151.7261  140.2318  156.3453 N   0  0  0  0  0  0  0  0  0  0  0  0
  152.1234  140.2752  157.7543 C   0  0  2  0  0  0  0  0  0  0  0  0
  151.0641  139.4708  158.5272 C   0  0  0  0  0  0  0  0  0  0  0  0
  152.2268  141.7536  158.2218 C   0  0  1  0  0  0  0  0  0  0  0  0
  150.8910  142.5152  158.1152 C   0  0  0  0  0  0  0  0  0  0  0  0
  152.7504  141.8530  159.5803 N   0  0  0  0  0  0  0  0  0  0  0  0
  153.9181  141.3161  160.0827 C   0  0  0  0  0  0  0  0  0  0  0  0
  153.9794  141.6368  161.4083 C   0  0  0  0  0  0  0  0  0  0  0  0
  152.7874  142.3804  161.6313 C   0  0  0  0  0  0  0  0  0  0  0  0
  152.0527  142.5061  160.5383 N   0  0  0  0  0  0  0  0  0  0  0  0
  150.7774  138.7765  154.5361 C   0  0  0  0  0  0  0  0  0  0  0  0
  150.6392  137.5706  153.9796 N   0  0  0  0  0  0  0  0  0  0  0  0
  150.1559  139.7576  154.1322 O   0  0  0  0  0  0  0  0  0  0  0  0
  153.2102  137.5376  154.8562 H   0  0  0  0  0  0  0  0  0  0  0  0
  153.8369  138.5163  156.1737 H   0  0  0  0  0  0  0  0  0  0  0  0
  153.5731  139.2421  154.5914 H   0  0  0  0  0  0  0  0  0  0  0  0
  151.4364  138.1656  156.4869 H   0  0  0  0  0  0  0  0  0  0  0  0
  152.2776  140.8928  155.8178 H   0  0  0  0  0  0  0  0  0  0  0  0
  153.0871  139.7890  157.9096 H   0  0  0  0  0  0  0  0  0  0  0  0
  151.3270  139.3676  159.5795 H   0  0  0  0  0  0  0  0  0  0  0  0
  150.9690  138.4609  158.1260 H   0  0  0  0  0  0  0  0  0  0  0  0
  150.0832  139.9440  158.4718 H   0  0  0  0  0  0  0  0  0  0  0  0
  152.9388  142.2658  157.5724 H   0  0  0  0  0  0  0  0  0  0  0  0
  150.5677  142.6171  157.0797 H   0  0  0  0  0  0  0  0  0  0  0  0
  150.9836  143.5238  158.5194 H   0  0  0  0  0  0  0  0  0  0  0  0
  150.0959  142.0095  158.6641 H   0  0  0  0  0  0  0  0  0  0  0  0
  154.5992  140.7517  159.4627 H   0  0  0  0  0  0  0  0  0  0  0  0
  154.7564  141.3773  162.1118 H   0  0  0  0  0  0  0  0  0  0  0  0
  152.4352  142.8270  162.5493 H   0  0  0  0  0  0  0  0  0  0  0  0
  150.0233  137.4479  153.1889 H   0  0  0  0  0  0  0  0  0  0  0  0
  151.1565  136.7867  154.3498 H   0  0  0  0  0  0  0  0  0  0  0  0
  1  2  1  0  0  0  0
  1 16  1  0  0  0  0
  1 17  1  0  0  0  0
  1 18  1  0  0  0  0
  2  3  1  0  0  0  0
  2 13  1  0  0  0  0
  2 19  1  0  0  0  0
  3  4  1  0  0  0  0
  3 20  1  0  0  0  0
  4  5  1  0  0  0  0
  4  6  1  0  0  0  0
  4 21  1  0  0  0  0
  5 22  1  0  0  0  0
  5 23  1  0  0  0  0
  5 24  1  0  0  0  0
  6  7  1  0  0  0  0
  6  8  1  0  0  0  0
  6 25  1  0  0  0  0
  7 26  1  0  0  0  0
  7 27  1  0  0  0  0
  7 28  1  0  0  0  0
  8 12  1  0  0  0  0
  8  9  1  0  0  0  0
  9 10  2  0  0  0  0
  9 29  1  0  0  0  0
 10 11  1  0  0  0  0
 10 30  1  0  0  0  0
 11 12  2  0  0  0  0
 11 31  1  0  0  0  0
 13 14  1  0  0  0  0
 13 15  2  0  0  0  0
 14 32  1  0  0  0  0
 14 33  1  0  0  0  0
M  END
> <s_m_source_file>
AV-unprocessed.smi

> <i_m_source_file_index>
3116

> <i_lp_mmshare_version>
43012

> <i_f3d_flags>
0

> <s_epik_input>
W05IMl1DKD1PKVtDQEhdKFtDSDNdKVtOSF1bQ0BIXShbQ0gzXSlbQ0BIXShbQ0gzXSluMVtjSF1bY0hdW2NIXW4x

> <s_epik_cmdline>
J2VwaWtfcHl0aG9uJywgJy1waCcsICc3LjAnLCAnLXRuJywgJzgnLCAnLW1hJywgJzIwMCcsICctbWV0YWxfYmluZGluZycsICctaW1hZScsICc8aW5maWxlLm1hZT4nLCAnLW9tYWUnLCAnPG91dGZpbGUubWFlPic=

> <r_lp_tautomer_probability>
1

> <r_epik_Ionization_Penalty>
0.865977

> <r_epik_Ionization_Penalty_Charging>
0

> <r_epik_Ionization_Penalty_Neutral>
0.865977

> <r_epik_State_Penalty>
0.901888

> <r_epik_Charging_Adjusted_Penalty>
0.901888

> <i_epik_Tot_Q>
0

> <i_epik_Tot_abs_Q>
0

> <r_epik_Metal_State_Penalty>
0.901181

> <b_epik_Metal_Only>
0

> <s_lp_Force_Field>
OPLS_2005

> <r_lp_Energy>
8.89759

> <b_lp_Chiralities_Consistent>
1

> <s_lp_Variant>
AV-unprocessed.smi:3116-14

> <Gold.Version>
5.8.1

> <Gold.Id.Protein>
6NUR|6NUR_protein|mol2

> <Gold.PLP.Fitness>
38.3435

> <Gold.PLP.PLP>
-32.8946

> <Gold.PLP.part.hbond>
-3.6001

> <Gold.PLP.part.metal>
0.0000

> <Gold.PLP.part.buried>
-5.4004

> <Gold.PLP.part.nonpolar>
-25.5720

> <Gold.PLP.part.repulsive>
1.0403

> <Gold.PLP.ligand.clash>
0.0000

> <Gold.PLP.ligand.torsion>
0.3392

> <Gold.PLP.Chemscore.Hbond>
2.0000

> <Gold.PLP.Chemscore.CHOScore>
0.0000

> <Gold.PLP.Chemscore.Metal>
0.0000

> <Gold.Chemscore.Hbonds>
donor molecule, donor type, donor heavy atom, donor atom, acceptor molecule, acceptor atom, score
      L1  H    14    32       P1  7948  0.96
      P1  H  7989  7998       L1    15  1.00

> <Gold.PLP.Chemscore.Internal.Correction>
0.1273

> <Gold.Rescore>
     Score         DG    S(hbond)    S(metal)    S(lipo)     H(rot)  DE(clash)    DE(int)     intcor
     13.18     -13.56       1.80        0.00      69.74       2.38       0.08       0.30       ----

> <Gold.Chemscore.Fitness>
13.1775

> <Gold.Chemscore.DG>
-13.5639

> <Gold.Chemscore.ZeroCoef>
-5.4800

> <Gold.Chemscore.Hbond>
1.8042

> <Gold.Chemscore.Metal>
0.0000

> <Gold.Chemscore.Lipo>
69.7416

> <Gold.Chemscore.Internal_Hbond>
0.0000

> <Gold.Chemscore.DEClash>
0.0833

> <Gold.Chemscore.DEInternal>
0.3031

> <Gold.Chemscore.Rot>
2.3836

> <Gold.Chemscore.Internal.Correction>
   9.000000E+99

> <Gold.Chemscore.Hbonds>
donor molecule, donor type, donor heavy atom, donor atom, acceptor molecule, acceptor atom, score
      L1  H    14    32       P1  7948  0.22
      P1  H  7989  7998       L1    15  0.29

> <Gold.Chemscore.Hbond.Weighted>
-6.0261

> <Gold.Chemscore.Metal.Weighted>
-0.0000

> <Gold.Chemscore.Lipo.Weighted>
-8.1598

> <Gold.Chemscore.Internal_Hbond.Weighted>
0.0000

> <Gold.Chemscore.DEClash.Weighted>
0.0833

> <Gold.Chemscore.DEInternal.Weighted>
0.3031

> <Gold.Chemscore.Rot.Weighted>
6.1020

> <Gold.Chemscore.Internal.Correction.Weighted>
   9.000000E+99

> <Gold.Protein.RotatedTorsions>
[ 6907 6896 6895 6894 ] final  -57.65 input  -60.11 | X-H torsion
[ 7974 7965 7964 7962 ] final  -91.03 input  175.53 | X-H torsion
[ 8008 7997 7996 7995 ] final   99.74 input   59.86 | X-H torsion
[ 10167 10162 10161 10158 ] final  -27.11 input  -65.29 | X-H torsion
[ 10718 10713 10712 10709 ] final  -91.15 input   66.30 | X-H torsion
[ 10763 10752 10751 10750 ] final  -80.49 input  -60.55 | X-H torsion
[ 11005 11000 10999 10996 ] final  -69.53 input  -57.11 | X-H torsion

> <Gold.Protein.ActiveResidues>
 VAL166  LYS551  ARG553  GLY616  TRP617  ASP618  TYR619  PRO620  LYS621  CYS622 
 ASP623  PHE694  ASN695  SER759  ASP760  ASP761  ALA762  ILE779  LEU786  VAL792 
 PHE793  MET794  SER795  GLU796  ALA797  LYS798  CYS799  TRP800  GLU811  SER814 

> <Gold.Protein.RotatedAtoms>
  150.8069  134.7199  159.6651 H   0  0  0  0  0  0  0  0  0  0  0  0  # atno 6907 bound_to 6896
  152.4188  134.5989  160.0004 H   0  0  0  0  0  0  0  0  0  0  0  0  # atno 6908 bound_to 6896
  151.6210  133.3302  159.3124 H   0  0  0  0  0  0  0  0  0  0  0  0  # atno 6909 bound_to 6896
  145.4186  140.9549  143.2194 H   0  0  0  0  0  0  0  0  0  0  0  0  # atno 7974 bound_to 7965
  156.1134  140.3224  155.8105 H   0  0  0  0  0  0  0  0  0  0  0  0  # atno 8008 bound_to 7997
  155.4632  140.0541  157.3005 H   0  0  0  0  0  0  0  0  0  0  0  0  # atno 8009 bound_to 7997
  154.4776  140.2039  155.9854 H   0  0  0  0  0  0  0  0  0  0  0  0  # atno 8010 bound_to 7997
  140.7279  143.4121  151.1088 H   0  0  0  0  0  0  0  0  0  0  0  0  # atno 10167 bound_to 10162
  155.9992  130.4937  150.5431 H   0  0  0  0  0  0  0  0  0  0  0  0  # atno 10718 bound_to 10713
  154.5518  135.5659  153.6929 H   0  0  0  0  0  0  0  0  0  0  0  0  # atno 10763 bound_to 10752
  152.9992  135.6252  154.2364 H   0  0  0  0  0  0  0  0  0  0  0  0  # atno 10764 bound_to 10752
  154.2299  135.2866  155.2873 H   0  0  0  0  0  0  0  0  0  0  0  0  # atno 10765 bound_to 10752
  141.1556  133.6767  156.6613 H   0  0  0  0  0  0  0  0  0  0  0  0  # atno 11005 bound_to 11000
  144.8261  139.5708  143.6965 LP  0  0  0  0  0  0  0  0  0  0  0  0  # atno 17320 bound_to 7965
  146.2668  139.6540  142.9323 LP  0  0  0  0  0  0  0  0  0  0  0  0  # atno 17321 bound_to 7965
  139.7756  143.8431  152.3128 LP  0  0  0  0  0  0  0  0  0  0  0  0  # atno 17342 bound_to 10162
  139.8364  144.7230  150.9386 LP  0  0  0  0  0  0  0  0  0  0  0  0  # atno 17343 bound_to 10162
  157.3364  131.0709  151.1821 LP  0  0  0  0  0  0  0  0  0  0  0  0  # atno 17370 bound_to 10713
  157.2684  130.6692  149.6008 LP  0  0  0  0  0  0  0  0  0  0  0  0  # atno 17371 bound_to 10713
  140.3245  134.7980  157.4278 LP  0  0  0  0  0  0  0  0  0  0  0  0  # atno 17394 bound_to 11000
  140.1069  134.5398  155.8302 LP  0  0  0  0  0  0  0  0  0  0  0  0  # atno 17395 bound_to 11000

$$$$
