AV-unprocessed.smi:275|AV-procd|sdf|2064|dock2
  -GOLD-   2262021313D 1   1.00000     0.00000
 Structure written by MMmdl.
 65 69  0  0  0  0  0  0  0  0  1 V2000
  150.0305  139.1940  154.7286 C   0  0  0  0  0  0  0  0  0  0  0  0
  151.0096  139.9322  155.6570 C   0  0  0  0  0  0  0  0  0  0  0  0
  152.2947  139.0992  155.7973 C   0  0  0  0  0  0  0  0  0  0  0  0
  150.3982  140.2467  157.0350 C   0  0  2  0  0  0  0  0  0  0  0  0
  149.0221  140.7350  156.9708 N   0  0  0  0  0  0  0  0  0  0  0  0
  147.9494  139.8162  157.1528 C   0  0  0  0  0  0  0  0  0  0  0  0
  147.7187  139.2149  158.3511 N   0  0  0  0  0  0  0  0  0  0  0  0
  146.7085  138.3543  158.5060 C   0  0  0  0  0  0  0  0  0  0  0  0
  145.8101  137.9530  157.6060 N   0  0  0  0  0  0  0  0  0  0  0  0
  146.0288  138.5481  156.3996 C   0  0  0  0  0  0  0  0  0  0  0  0
  147.0630  139.4773  156.0937 C   0  0  0  0  0  0  0  0  0  0  0  0
  146.9738  139.8646  154.7625 N   0  0  0  0  0  0  0  0  0  0  0  0
  145.9455  139.2029  154.3067 C   0  0  0  0  0  0  0  0  0  0  0  0
  145.3068  138.4026  155.2275 N   0  0  0  0  0  0  0  0  0  0  0  0
  144.1501  137.5566  154.9891 C   0  0  0  0  0  0  0  0  0  0  0  0
  144.4877  136.0750  154.6761 C   0  0  1  0  0  0  0  0  0  0  0  0
  143.7236  135.1858  155.6879 C   0  0  0  0  0  0  0  0  0  0  0  0
  142.3764  134.9923  155.3097 O   0  0  0  0  0  0  0  0  0  0  0  0
  144.1790  135.6822  153.1985 C   0  0  2  0  0  0  0  0  0  0  0  0
  144.1372  134.1890  152.9134 C   0  0  0  0  0  0  0  0  0  0  0  0
  144.2654  134.1438  151.3981 C   0  0  0  0  0  0  0  0  0  0  0  0
  145.1854  135.1794  151.0905 O   0  0  0  0  0  0  0  0  0  0  0  0
  145.2127  136.1297  152.1516 C   0  0  0  0  0  0  0  0  0  0  0  0
  149.2233  141.5844  158.1307 C   0  0  0  0  0  0  0  0  0  0  0  0
  150.7229  141.5601  157.7930 C   0  0  0  0  0  0  0  0  0  0  0  0
  151.2187  142.7700  156.9685 C   0  0  0  0  0  0  0  0  0  0  0  0
  151.2900  144.0667  157.7935 C   0  0  0  0  0  0  0  0  0  0  0  0
  152.1855  143.8913  159.0265 C   0  0  0  0  0  0  0  0  0  0  0  0
  151.7535  142.6759  159.8565 C   0  0  0  0  0  0  0  0  0  0  0  0
  151.6772  141.4085  158.9887 C   0  0  0  0  0  0  0  0  0  0  0  0
  149.6860  138.2608  155.1751 H   0  0  0  0  0  0  0  0  0  0  0  0
  150.4990  138.9522  153.7744 H   0  0  0  0  0  0  0  0  0  0  0  0
  149.1546  139.8035  154.5075 H   0  0  0  0  0  0  0  0  0  0  0  0
  151.2804  140.8653  155.1621 H   0  0  0  0  0  0  0  0  0  0  0  0
  152.0866  138.1329  156.2577 H   0  0  0  0  0  0  0  0  0  0  0  0
  153.0427  139.5975  156.4113 H   0  0  0  0  0  0  0  0  0  0  0  0
  152.7494  138.9113  154.8244 H   0  0  0  0  0  0  0  0  0  0  0  0
  150.4885  139.4061  157.7253 H   0  0  0  0  0  0  0  0  0  0  0  0
  146.6054  137.9277  159.4929 H   0  0  0  0  0  0  0  0  0  0  0  0
  145.6179  139.2875  153.2808 H   0  0  0  0  0  0  0  0  0  0  0  0
  143.5311  137.6208  155.8847 H   0  0  0  0  0  0  0  0  0  0  0  0
  143.5563  137.9829  154.1797 H   0  0  0  0  0  0  0  0  0  0  0  0
  145.5540  135.9339  154.8593 H   0  0  0  0  0  0  0  0  0  0  0  0
  144.1699  134.1928  155.7485 H   0  0  0  0  0  0  0  0  0  0  0  0
  143.7684  135.6104  156.6913 H   0  0  0  0  0  0  0  0  0  0  0  0
  142.1871  134.0665  155.3337 H   0  0  0  0  0  0  0  0  0  0  0  0
  143.2089  136.0978  152.9201 H   0  0  0  0  0  0  0  0  0  0  0  0
  144.9904  133.6869  153.3718 H   0  0  0  0  0  0  0  0  0  0  0  0
  143.2238  133.7078  153.2640 H   0  0  0  0  0  0  0  0  0  0  0  0
  144.6114  133.1771  151.0318 H   0  0  0  0  0  0  0  0  0  0  0  0
  143.3087  134.3675  150.9245 H   0  0  0  0  0  0  0  0  0  0  0  0
  144.9992  137.1242  151.7618 H   0  0  0  0  0  0  0  0  0  0  0  0
  146.2200  136.1371  152.5688 H   0  0  0  0  0  0  0  0  0  0  0  0
  148.7441  142.5598  158.0450 H   0  0  0  0  0  0  0  0  0  0  0  0
  148.9808  141.0871  159.0722 H   0  0  0  0  0  0  0  0  0  0  0  0
  152.2057  142.5726  156.5530 H   0  0  0  0  0  0  0  0  0  0  0  0
  150.5680  142.9395  156.1099 H   0  0  0  0  0  0  0  0  0  0  0  0
  151.6667  144.8814  157.1744 H   0  0  0  0  0  0  0  0  0  0  0  0
  150.2881  144.3597  158.1085 H   0  0  0  0  0  0  0  0  0  0  0  0
  153.2203  143.7615  158.7072 H   0  0  0  0  0  0  0  0  0  0  0  0
  152.1613  144.7928  159.6392 H   0  0  0  0  0  0  0  0  0  0  0  0
  152.4513  142.5220  160.6800 H   0  0  0  0  0  0  0  0  0  0  0  0
  150.7798  142.8681  160.3089 H   0  0  0  0  0  0  0  0  0  0  0  0
  151.3659  140.5723  159.6158 H   0  0  0  0  0  0  0  0  0  0  0  0
  152.6780  141.1541  158.6377 H   0  0  0  0  0  0  0  0  0  0  0  0
  1  2  1  0  0  0  0
  1 31  1  0  0  0  0
  1 32  1  0  0  0  0
  1 33  1  0  0  0  0
  2  3  1  0  0  0  0
  2  4  1  0  0  0  0
  2 34  1  0  0  0  0
  3 35  1  0  0  0  0
  3 36  1  0  0  0  0
  3 37  1  0  0  0  0
  4 25  1  0  0  0  0
  4  5  1  0  0  0  0
  4 38  1  0  0  0  0
  5  6  1  0  0  0  0
  5 24  1  0  0  0  0
  6 11  1  0  0  0  0
  6  7  2  0  0  0  0
  7  8  1  0  0  0  0
  8  9  2  0  0  0  0
  8 39  1  0  0  0  0
  9 10  1  0  0  0  0
 10 14  1  0  0  0  0
 10 11  2  0  0  0  0
 11 12  1  0  0  0  0
 12 13  2  0  0  0  0
 13 14  1  0  0  0  0
 13 40  1  0  0  0  0
 14 15  1  0  0  0  0
 15 16  1  0  0  0  0
 15 41  1  0  0  0  0
 15 42  1  0  0  0  0
 16 17  1  0  0  0  0
 16 19  1  0  0  0  0
 16 43  1  0  0  0  0
 17 18  1  0  0  0  0
 17 44  1  0  0  0  0
 17 45  1  0  0  0  0
 18 46  1  0  0  0  0
 19 23  1  0  0  0  0
 19 20  1  0  0  0  0
 19 47  1  0  0  0  0
 20 21  1  0  0  0  0
 20 48  1  0  0  0  0
 20 49  1  0  0  0  0
 21 22  1  0  0  0  0
 21 50  1  0  0  0  0
 21 51  1  0  0  0  0
 22 23  1  0  0  0  0
 23 52  1  0  0  0  0
 23 53  1  0  0  0  0
 24 25  1  0  0  0  0
 24 54  1  0  0  0  0
 24 55  1  0  0  0  0
 25 30  1  0  0  0  0
 25 26  1  0  0  0  0
 26 27  1  0  0  0  0
 26 56  1  0  0  0  0
 26 57  1  0  0  0  0
 27 28  1  0  0  0  0
 27 58  1  0  0  0  0
 27 59  1  0  0  0  0
 28 29  1  0  0  0  0
 28 60  1  0  0  0  0
 28 61  1  0  0  0  0
 29 30  1  0  0  0  0
 29 62  1  0  0  0  0
 29 63  1  0  0  0  0
 30 64  1  0  0  0  0
 30 65  1  0  0  0  0
M  END
> <s_m_source_file>
AV-unprocessed.smi

> <i_m_source_file_index>
275

> <i_lp_mmshare_version>
43012

> <i_f3d_flags>
0

> <s_epik_input>
W0NIMl0xW0NIMl1bQ0gyXVtDSDJdW0NIMl1DMTJbQ0BIXShbQ0hdKFtDSDNdKVtDSDNdKU4oW0NIMl0yKWMobltjSF1uMyljKGMzNCluW2NIXW40W0NIMl1bQ0BIXShbQ0gyXVtPSF0pW0NAQEhdNVtDSDJdW0NIMl1PW0NIMl01

> <s_epik_cmdline>
J2VwaWtfcHl0aG9uJywgJy1waCcsICc3LjAnLCAnLXRuJywgJzgnLCAnLW1hJywgJzIwMCcsICctbWV0YWxfYmluZGluZycsICctaW1hZScsICc8aW5maWxlLm1hZT4nLCAnLW9tYWUnLCAnPG91dGZpbGUubWFlPic=

> <r_lp_tautomer_probability>
1

> <r_epik_Ionization_Penalty>
0.00375122

> <r_epik_Ionization_Penalty_Charging>
0

> <r_epik_Ionization_Penalty_Neutral>
0.00375122

> <r_epik_State_Penalty>
0.00260593

> <r_epik_Charging_Adjusted_Penalty>
0.00260593

> <i_epik_Tot_Q>
0

> <i_epik_Tot_abs_Q>
0

> <r_epik_Metal_State_Penalty>
-0

> <b_epik_Metal_Only>
0

> <s_lp_Force_Field>
OPLS_2005

> <r_lp_Energy>
64.5971

> <b_lp_Chiralities_Consistent>
1

> <s_lp_Variant>
AV-unprocessed.smi:275-3

> <Gold.Version>
5.8.1

> <Gold.Id.Protein>
6NUR|6NUR_protein|mol2

> <Gold.PLP.Fitness>
41.4526

> <Gold.PLP.PLP>
-39.8061

> <Gold.PLP.part.hbond>
-2.8261

> <Gold.PLP.part.metal>
0.0000

> <Gold.PLP.part.buried>
-4.9640

> <Gold.PLP.part.nonpolar>
-32.9832

> <Gold.PLP.part.repulsive>
0.3512

> <Gold.PLP.ligand.clash>
0.0000

> <Gold.PLP.ligand.torsion>
2.4957

> <Gold.PLP.Chemscore.Hbond>
1.0000

> <Gold.PLP.Chemscore.CHOScore>
1.0000

> <Gold.PLP.Chemscore.Metal>
0.0000

> <Gold.Chemscore.Hbonds>
donor molecule, donor type, donor heavy atom, donor atom, acceptor molecule, acceptor atom, score
      L1  H    18    46       P1 10957  0.10
      L1  C    13    40       P1 10175  0.94

> <Gold.PLP.Chemscore.Internal.Correction>
0.6379

> <Gold.Rescore>
     Score         DG    S(hbond)    S(metal)    S(lipo)     H(rot)  DE(clash)    DE(int)     intcor
     12.33     -15.12       0.97        0.00     110.12       2.54       0.29       2.49       ----

> <Gold.Chemscore.Fitness>
12.3345

> <Gold.Chemscore.DG>
-15.1181

> <Gold.Chemscore.ZeroCoef>
-5.4800

> <Gold.Chemscore.Hbond>
0.9734

> <Gold.Chemscore.Metal>
0.0000

> <Gold.Chemscore.Lipo>
110.1162

> <Gold.Chemscore.Internal_Hbond>
0.0000

> <Gold.Chemscore.DEClash>
0.2926

> <Gold.Chemscore.DEInternal>
2.4910

> <Gold.Chemscore.Rot>
2.5377

> <Gold.Chemscore.Internal.Correction>
   9.000000E+99

> <Gold.Chemscore.Hbonds>
donor molecule, donor type, donor heavy atom, donor atom, acceptor molecule, acceptor atom, score
      L1  H    18    46       P1 10957  0.12

> <Gold.Chemscore.Hbond.Weighted>
-3.2511

> <Gold.Chemscore.Metal.Weighted>
-0.0000

> <Gold.Chemscore.Lipo.Weighted>
-12.8836

> <Gold.Chemscore.Internal_Hbond.Weighted>
0.0000

> <Gold.Chemscore.DEClash.Weighted>
0.2926

> <Gold.Chemscore.DEInternal.Weighted>
2.4910

> <Gold.Chemscore.Rot.Weighted>
6.4966

> <Gold.Chemscore.Internal.Correction.Weighted>
   9.000000E+99

> <Gold.Protein.RotatedTorsions>
[ 6907 6896 6895 6894 ] final  170.68 input  -60.11 | X-H torsion
[ 7974 7965 7964 7962 ] final  -56.07 input  175.53 | X-H torsion
[ 8008 7997 7996 7995 ] final  155.46 input   59.86 | X-H torsion
[ 10167 10162 10161 10158 ] final  -99.12 input  -65.29 | X-H torsion
[ 10718 10713 10712 10709 ] final -175.82 input   66.30 | X-H torsion
[ 10763 10752 10751 10750 ] final  171.52 input  -60.55 | X-H torsion
[ 11005 11000 10999 10996 ] final    6.54 input  -57.11 | X-H torsion

> <Gold.Protein.ActiveResidues>
 VAL166  LYS551  ARG553  GLY616  TRP617  ASP618  TYR619  PRO620  LYS621  CYS622 
 ASP623  PHE694  ASN695  SER759  ASP760  ASP761  ALA762  ILE779  LEU786  VAL792 
 PHE793  MET794  SER795  GLU796  ALA797  LYS798  CYS799  TRP800  GLU811  SER814 

> <Gold.Protein.RotatedAtoms>
  151.8122  133.3383  159.3558 H   0  0  0  0  0  0  0  0  0  0  0  0  # atno 6907 bound_to 6896
  150.7322  134.5653  159.5872 H   0  0  0  0  0  0  0  0  0  0  0  0  # atno 6908 bound_to 6896
  152.3067  134.7548  160.0397 H   0  0  0  0  0  0  0  0  0  0  0  0  # atno 6909 bound_to 6896
  145.8669  140.8245  142.9908 H   0  0  0  0  0  0  0  0  0  0  0  0  # atno 7974 bound_to 7965
  156.2476  140.1939  156.6805 H   0  0  0  0  0  0  0  0  0  0  0  0  # atno 8008 bound_to 7997
  154.6325  140.0594  156.9775 H   0  0  0  0  0  0  0  0  0  0  0  0  # atno 8009 bound_to 7997
  155.1688  140.3266  155.4399 H   0  0  0  0  0  0  0  0  0  0  0  0  # atno 8010 bound_to 7997
  140.2658  143.3377  152.0582 H   0  0  0  0  0  0  0  0  0  0  0  0  # atno 10167 bound_to 10162
  156.8055  130.9567  151.3117 H   0  0  0  0  0  0  0  0  0  0  0  0  # atno 10718 bound_to 10713
  154.4130  135.2756  155.2024 H   0  0  0  0  0  0  0  0  0  0  0  0  # atno 10763 bound_to 10752
  154.4002  135.6046  153.5896 H   0  0  0  0  0  0  0  0  0  0  0  0  # atno 10764 bound_to 10752
  152.9831  135.5924  154.4415 H   0  0  0  0  0  0  0  0  0  0  0  0  # atno 10765 bound_to 10752
  140.5583  134.0217  155.7962 H   0  0  0  0  0  0  0  0  0  0  0  0  # atno 11005 bound_to 11000
  144.6726  140.1179  143.7451 LP  0  0  0  0  0  0  0  0  0  0  0  0  # atno 17320 bound_to 7965
  145.9183  139.2530  143.1396 LP  0  0  0  0  0  0  0  0  0  0  0  0  # atno 17321 bound_to 7965
  139.5003  144.6689  151.6291 LP  0  0  0  0  0  0  0  0  0  0  0  0  # atno 17342 bound_to 10162
  140.5929  143.9747  150.6336 LP  0  0  0  0  0  0  0  0  0  0  0  0  # atno 17343 bound_to 10162
  157.6532  130.8902  149.9676 LP  0  0  0  0  0  0  0  0  0  0  0  0  # atno 17370 bound_to 10713
  156.1076  130.3652  150.0107 LP  0  0  0  0  0  0  0  0  0  0  0  0  # atno 17371 bound_to 10713
  141.1130  133.9586  157.2875 LP  0  0  0  0  0  0  0  0  0  0  0  0  # atno 17394 bound_to 11000
  139.9420  135.0189  156.8738 LP  0  0  0  0  0  0  0  0  0  0  0  0  # atno 17395 bound_to 11000

$$$$
