AV-unprocessed.smi:243|AV-procd|sdf|1850|dock7
  -GOLD-   2262020473D 1   1.00000     0.00000
 Structure written by MMmdl.
 58 61  0  0  0  0  0  0  0  0  2 V2000
  144.9185  130.9675  151.1070 C   0  0  0  0  0  0  0  0  0  0  0  0
  145.9467  131.2592  152.2090 C   0  0  0  0  0  0  0  0  0  0  0  0
  146.9581  132.2689  151.7962 N   0  3  2  0  0  0  0  0  0  0  0  0
  147.8066  132.7476  152.9152 C   0  0  0  0  0  0  0  0  0  0  0  0
  147.0323  133.6953  153.8441 C   0  0  0  0  0  0  0  0  0  0  0  0
  146.4488  134.8993  153.0691 C   0  0  2  0  0  0  0  0  0  0  0  0
  145.7380  135.8389  153.9501 N   0  0  0  0  0  0  0  0  0  0  0  0
  144.2849  135.7247  154.0007 C   0  0  0  0  0  0  0  0  0  0  0  0
  146.1938  137.1156  154.0057 C   0  0  0  0  0  0  0  0  0  0  0  0
  146.4029  137.7607  152.8309 N   0  0  0  0  0  0  0  0  0  0  0  0
  146.8563  139.0175  152.8235 C   0  0  0  0  0  0  0  0  0  0  0  0
  147.1642  139.7989  153.8601 N   0  0  0  0  0  0  0  0  0  0  0  0
  146.9663  139.1529  155.0447 C   0  0  0  0  0  0  0  0  0  0  0  0
  146.4859  137.8226  155.2084 C   0  0  0  0  0  0  0  0  0  0  0  0
  146.3979  137.5174  156.5618 N   0  0  0  0  0  0  0  0  0  0  0  0
  146.8087  138.6006  157.1618 C   0  0  0  0  0  0  0  0  0  0  0  0
  147.1809  139.6296  156.3264 N   0  0  0  0  0  0  0  0  0  0  0  0
  147.6786  140.9387  156.7217 C   0  0  0  0  0  0  0  0  0  0  0  0
  149.1503  141.1902  156.3152 C   0  0  1  0  0  0  0  0  0  0  0  0
  149.5551  142.4575  156.8036 O   0  0  0  0  0  0  0  0  0  0  0  0
  150.1053  140.1374  156.8620 C   0  0  0  0  0  0  0  0  0  0  0  0
  151.2340  140.1459  155.8396 C   0  0  0  0  0  0  0  0  0  0  0  0
  150.5494  140.2931  154.6068 O   0  0  0  0  0  0  0  0  0  0  0  0
  149.4211  141.1428  154.7974 C   0  0  0  0  0  0  0  0  0  0  0  0
  145.6129  134.4120  151.8539 C   0  0  1  0  0  0  0  0  0  0  0  0
  145.1569  135.5815  150.9624 C   0  0  0  0  0  0  0  0  0  0  0  0
  146.4243  133.4074  151.0022 C   0  0  0  0  0  0  0  0  0  0  0  0
  144.2669  130.1448  151.4019 H   0  0  0  0  0  0  0  0  0  0  0  0
  145.4078  130.6828  150.1751 H   0  0  0  0  0  0  0  0  0  0  0  0
  144.2789  131.8263  150.9056 H   0  0  0  0  0  0  0  0  0  0  0  0
  145.4425  131.5599  153.1273 H   0  0  0  0  0  0  0  0  0  0  0  0
  146.4590  130.3239  152.4376 H   0  0  0  0  0  0  0  0  0  0  0  0
  148.2043  131.9017  153.4771 H   0  0  0  0  0  0  0  0  0  0  0  0
  148.6700  133.2688  152.4997 H   0  0  0  0  0  0  0  0  0  0  0  0
  146.2374  133.1372  154.3389 H   0  0  0  0  0  0  0  0  0  0  0  0
  147.6990  134.0409  154.6343 H   0  0  0  0  0  0  0  0  0  0  0  0
  147.2965  135.4536  152.6633 H   0  0  0  0  0  0  0  0  0  0  0  0
  143.8525  136.4695  154.6707 H   0  0  0  0  0  0  0  0  0  0  0  0
  144.0028  134.7407  154.3759 H   0  0  0  0  0  0  0  0  0  0  0  0
  143.8379  135.8489  153.0146 H   0  0  0  0  0  0  0  0  0  0  0  0
  146.9945  139.4594  151.8476 H   0  0  0  0  0  0  0  0  0  0  0  0
  146.8530  138.6773  158.2385 H   0  0  0  0  0  0  0  0  0  0  0  0
  147.0316  141.6997  156.2830 H   0  0  0  0  0  0  0  0  0  0  0  0
  147.5670  141.0303  157.8029 H   0  0  0  0  0  0  0  0  0  0  0  0
  149.0348  143.1230  156.3800 H   0  0  0  0  0  0  0  0  0  0  0  0
  150.4448  140.3374  157.8791 H   0  0  0  0  0  0  0  0  0  0  0  0
  149.6288  139.1560  156.8578 H   0  0  0  0  0  0  0  0  0  0  0  0
  151.8968  140.9987  155.9948 H   0  0  0  0  0  0  0  0  0  0  0  0
  151.8320  139.2346  155.8612 H   0  0  0  0  0  0  0  0  0  0  0  0
  148.5875  140.7102  154.2454 H   0  0  0  0  0  0  0  0  0  0  0  0
  149.6124  142.1318  154.3780 H   0  0  0  0  0  0  0  0  0  0  0  0
  144.7205  133.8996  152.2114 H   0  0  0  0  0  0  0  0  0  0  0  0
  146.0100  136.1309  150.5633 H   0  0  0  0  0  0  0  0  0  0  0  0
  144.5362  136.2917  151.5076 H   0  0  0  0  0  0  0  0  0  0  0  0
  144.5688  135.2229  150.1172 H   0  0  0  0  0  0  0  0  0  0  0  0
  147.2731  133.9219  150.5494 H   0  0  0  0  0  0  0  0  0  0  0  0
  145.8252  133.0423  150.1689 H   0  0  0  0  0  0  0  0  0  0  0  0
  147.5846  131.7700  151.1806 H   0  0  0  0  0  0  0  0  0  0  0  0
  1  2  1  0  0  0  0
  1 28  1  0  0  0  0
  1 29  1  0  0  0  0
  1 30  1  0  0  0  0
  2  3  1  0  0  0  0
  2 31  1  0  0  0  0
  2 32  1  0  0  0  0
  3 27  1  0  0  0  0
  3  4  1  0  0  0  0
  3 58  1  0  0  0  0
  4  5  1  0  0  0  0
  4 33  1  0  0  0  0
  4 34  1  0  0  0  0
  5  6  1  0  0  0  0
  5 35  1  0  0  0  0
  5 36  1  0  0  0  0
  6  7  1  0  0  0  0
  6 25  1  0  0  0  0
  6 37  1  0  0  0  0
  7  8  1  0  0  0  0
  7  9  1  0  0  0  0
  8 38  1  0  0  0  0
  8 39  1  0  0  0  0
  8 40  1  0  0  0  0
  9 14  1  0  0  0  0
  9 10  2  0  0  0  0
 10 11  1  0  0  0  0
 11 12  2  0  0  0  0
 11 41  1  0  0  0  0
 12 13  1  0  0  0  0
 13 17  1  0  0  0  0
 13 14  2  0  0  0  0
 14 15  1  0  0  0  0
 15 16  2  0  0  0  0
 16 17  1  0  0  0  0
 16 42  1  0  0  0  0
 17 18  1  0  0  0  0
 18 19  1  0  0  0  0
 18 43  1  0  0  0  0
 18 44  1  0  0  0  0
 19 24  1  0  0  0  0
 19 20  1  0  0  0  0
 19 21  1  0  0  0  0
 20 45  1  0  0  0  0
 21 22  1  0  0  0  0
 21 46  1  0  0  0  0
 21 47  1  0  0  0  0
 22 23  1  0  0  0  0
 22 48  1  0  0  0  0
 22 49  1  0  0  0  0
 23 24  1  0  0  0  0
 24 50  1  0  0  0  0
 24 51  1  0  0  0  0
 25 26  1  0  0  0  0
 25 27  1  0  0  0  0
 25 52  1  0  0  0  0
 26 53  1  0  0  0  0
 26 54  1  0  0  0  0
 26 55  1  0  0  0  0
 27 56  1  0  0  0  0
 27 57  1  0  0  0  0
M  CHG  1   3   1
M  END
> <s_m_source_file>
AV-unprocessed.smi

> <i_m_source_file_index>
243

> <i_lp_mmshare_version>
43012

> <i_f3d_flags>
0

> <s_epik_input>
W0NIM11bQ0gyXU4xW0NIMl1bQ0gyXVtDQEhdKFtDQEBIXShbQ0gzXSlbQ0gyXTEpTihbQ0gzXSljKG5bY0hdbjIpYyhjMjMpbltjSF1uM1tDSDJdW0NAQF00KFtPSF0pW0NIMl1bQ0gyXU9bQ0gyXTQ=

> <s_epik_cmdline>
J2VwaWtfcHl0aG9uJywgJy1waCcsICc3LjAnLCAnLXRuJywgJzgnLCAnLW1hJywgJzIwMCcsICctbWV0YWxfYmluZGluZycsICctaW1hZScsICc8aW5maWxlLm1hZT4nLCAnLW9tYWUnLCAnPG91dGZpbGUubWFlPic=

> <r_lp_tautomer_probability>
1

> <r_epik_Ionization_Penalty>
0.00253099

> <r_epik_Ionization_Penalty_Charging>
0.00137877

> <r_epik_Ionization_Penalty_Neutral>
0.00115221

> <r_epik_State_Penalty>
-0

> <r_epik_Charging_Adjusted_Penalty>
0.00137877

> <i_epik_Tot_Q>
1

> <i_epik_Tot_abs_Q>
1

> <r_epik_Metal_State_Penalty>
-0

> <b_epik_Metal_Only>
0

> <s_lp_Force_Field>
OPLS_2005

> <r_lp_Energy>
49.0604

> <b_lp_Chiralities_Consistent>
1

> <s_lp_Variant>
AV-unprocessed.smi:243-3

> <Gold.Version>
5.8.1

> <Gold.Id.Protein>
6NUR|6NUR_protein|mol2

> <Gold.PLP.Fitness>
41.9446

> <Gold.PLP.PLP>
-33.5160

> <Gold.PLP.part.hbond>
-2.8520

> <Gold.PLP.part.metal>
0.0000

> <Gold.PLP.part.buried>
-4.5711

> <Gold.PLP.part.nonpolar>
-26.9119

> <Gold.PLP.part.repulsive>
1.2310

> <Gold.PLP.ligand.clash>
0.0000

> <Gold.PLP.ligand.torsion>
1.8411

> <Gold.PLP.Chemscore.Hbond>
3.0000

> <Gold.PLP.Chemscore.CHOScore>
0.7627

> <Gold.PLP.Chemscore.Metal>
0.0000

> <Gold.Chemscore.Hbonds>
donor molecule, donor type, donor heavy atom, donor atom, acceptor molecule, acceptor atom, score
      L1  H     3    58       P1 10747  1.00
      L1  H    20    45       P1  8028  1.00
      P1  H  7989  7998       L1    23  1.00
      L1  C    11    41       P1  7957  0.37

> <Gold.PLP.Chemscore.Internal.Correction>
0.8226

> <Gold.Rescore>
     Score         DG    S(hbond)    S(metal)    S(lipo)     H(rot)  DE(clash)    DE(int)     intcor
     13.14     -16.61       2.65        0.00      74.75       2.53       0.25       3.22       ----

> <Gold.Chemscore.Fitness>
13.1401

> <Gold.Chemscore.DG>
-16.6088

> <Gold.Chemscore.ZeroCoef>
-5.4800

> <Gold.Chemscore.Hbond>
2.6532

> <Gold.Chemscore.Metal>
0.0000

> <Gold.Chemscore.Lipo>
74.7450

> <Gold.Chemscore.Internal_Hbond>
0.0000

> <Gold.Chemscore.DEClash>
0.2512

> <Gold.Chemscore.DEInternal>
3.2175

> <Gold.Chemscore.Rot>
2.5305

> <Gold.Chemscore.Internal.Correction>
   9.000000E+99

> <Gold.Chemscore.Hbonds>
donor molecule, donor type, donor heavy atom, donor atom, acceptor molecule, acceptor atom, score
      L1  H     3    58       P1 10747  1.00
      L1  H    20    45       P1  8028  0.95
      P1  H  7989  7998       L1    23  0.55

> <Gold.Chemscore.Hbond.Weighted>
-8.8616

> <Gold.Chemscore.Metal.Weighted>
-0.0000

> <Gold.Chemscore.Lipo.Weighted>
-8.7452

> <Gold.Chemscore.Internal_Hbond.Weighted>
0.0000

> <Gold.Chemscore.DEClash.Weighted>
0.2512

> <Gold.Chemscore.DEInternal.Weighted>
3.2175

> <Gold.Chemscore.Rot.Weighted>
6.4780

> <Gold.Chemscore.Internal.Correction.Weighted>
   9.000000E+99

> <Gold.Protein.RotatedTorsions>
[ 6907 6896 6895 6894 ] final   19.97 input  -60.11 | X-H torsion
[ 7974 7965 7964 7962 ] final   33.39 input  175.53 | X-H torsion
[ 8008 7997 7996 7995 ] final   49.40 input   59.86 | X-H torsion
[ 10167 10162 10161 10158 ] final  -26.40 input  -65.29 | X-H torsion
[ 10718 10713 10712 10709 ] final -119.68 input   66.30 | X-H torsion
[ 10763 10752 10751 10750 ] final  -91.01 input  -60.55 | X-H torsion
[ 11005 11000 10999 10996 ] final  105.98 input  -57.11 | X-H torsion

> <Gold.Protein.ActiveResidues>
 VAL166  LYS551  ARG553  GLY616  TRP617  ASP618  TYR619  PRO620  LYS621  CYS622 
 ASP623  PHE694  ASN695  SER759  ASP760  ASP761  ALA762  ILE779  LEU786  VAL792 
 PHE793  MET794  SER795  GLU796  ALA797  LYS798  CYS799  TRP800  GLU811  SER814 

> <Gold.Protein.RotatedAtoms>
  151.8891  135.0423  160.0495 H   0  0  0  0  0  0  0  0  0  0  0  0  # atno 6907 bound_to 6896
  152.2451  133.5163  159.5301 H   0  0  0  0  0  0  0  0  0  0  0  0  # atno 6908 bound_to 6896
  150.7065  134.0953  159.3989 H   0  0  0  0  0  0  0  0  0  0  0  0  # atno 6909 bound_to 6896
  146.1423  139.6403  142.9154 H   0  0  0  0  0  0  0  0  0  0  0  0  # atno 7974 bound_to 7965
  155.4016  140.3438  155.4257 H   0  0  0  0  0  0  0  0  0  0  0  0  # atno 8008 bound_to 7997
  156.1500  140.1568  156.8817 H   0  0  0  0  0  0  0  0  0  0  0  0  # atno 8009 bound_to 7997
  154.5044  140.0806  156.7845 H   0  0  0  0  0  0  0  0  0  0  0  0  # atno 8010 bound_to 7997
  140.7283  143.4181  151.0995 H   0  0  0  0  0  0  0  0  0  0  0  0  # atno 10167 bound_to 10162
  156.1200  130.6315  150.9447 H   0  0  0  0  0  0  0  0  0  0  0  0  # atno 10718 bound_to 10713
  154.6717  135.5283  153.8147 H   0  0  0  0  0  0  0  0  0  0  0  0  # atno 10763 bound_to 10752
  153.0506  135.6530  154.0714 H   0  0  0  0  0  0  0  0  0  0  0  0  # atno 10764 bound_to 10752
  154.0612  135.2961  155.3304 H   0  0  0  0  0  0  0  0  0  0  0  0  # atno 10765 bound_to 10752
  139.8808  134.9354  156.5596 H   0  0  0  0  0  0  0  0  0  0  0  0  # atno 11005 bound_to 11000
  145.5017  141.0437  143.2537 LP  0  0  0  0  0  0  0  0  0  0  0  0  # atno 17320 bound_to 7965
  144.7807  139.6533  143.7155 LP  0  0  0  0  0  0  0  0  0  0  0  0  # atno 17321 bound_to 7965
  139.7823  143.8337  152.3139 LP  0  0  0  0  0  0  0  0  0  0  0  0  # atno 17342 bound_to 10162
  139.8292  144.7261  150.9472 LP  0  0  0  0  0  0  0  0  0  0  0  0  # atno 17343 bound_to 10162
  157.6383  131.0913  150.8303 LP  0  0  0  0  0  0  0  0  0  0  0  0  # atno 17370 bound_to 10713
  156.8401  130.5045  149.5322 LP  0  0  0  0  0  0  0  0  0  0  0  0  # atno 17371 bound_to 10713
  140.8179  133.8377  155.8869 LP  0  0  0  0  0  0  0  0  0  0  0  0  # atno 17394 bound_to 11000
  140.9446  134.1857  157.4773 LP  0  0  0  0  0  0  0  0  0  0  0  0  # atno 17395 bound_to 11000

$$$$
