AV-unprocessed.smi:3018|AV-procd|sdf|11481|dock3
  -GOLD-   2272016423D 1   1.00000     0.00000
 Structure written by MMmdl.
 44 45  0  0  0  0  0  0  0  0  2 V2000
  151.2076  138.0855  154.8839 C   0  0  0  0  0  0  0  0  0  0  0  0
  152.2157  138.8534  155.7484 C   0  0  0  0  0  0  0  0  0  0  0  0
  151.5434  139.6114  156.9086 C   0  0  2  0  0  0  0  0  0  0  0  0
  152.4945  140.5305  157.4419 O   0  0  0  0  0  0  0  0  0  0  0  0
  151.9670  141.6016  158.2200 C   0  0  0  0  0  0  0  0  0  0  0  0
  151.4599  142.7222  157.2903 C   0  0  0  0  0  0  0  0  0  0  0  0
  151.0053  143.9517  158.0928 C   0  0  0  0  0  0  0  0  0  0  0  0
  152.1208  144.4611  159.0198 C   0  0  0  0  0  0  0  0  0  0  0  0
  152.6377  143.3435  159.9397 C   0  0  0  0  0  0  0  0  0  0  0  0
  153.0943  142.1210  159.1281 C   0  0  0  0  0  0  0  0  0  0  0  0
  151.0794  138.6599  158.0226 C   0  0  0  0  0  0  0  0  0  0  0  0
  151.6239  138.6767  159.1270 O   0  0  0  0  0  0  0  0  0  0  0  0
  150.0546  137.8505  157.7211 N   0  0  0  0  0  0  0  0  0  0  0  0
  149.3885  136.9605  158.6643 C   0  0  0  0  0  0  0  0  0  0  0  0
  147.9435  137.4137  158.9368 C   0  0  0  0  0  0  0  0  0  0  0  0
  147.4257  136.9829  160.2987 C   0  0  0  0  0  0  0  0  0  0  0  0
  147.1454  137.7054  161.3201 N   0  0  0  0  0  0  0  0  0  0  0  0
  146.6967  136.7747  162.3130 N   0  5  0  0  0  0  0  0  0  0  0  0
  146.7596  135.5396  161.7580 C   0  0  0  0  0  0  0  0  0  0  0  0
  146.4709  134.4561  162.2610 O   0  0  0  0  0  0  0  0  0  0  0  0
  147.2050  135.6525  160.5110 N   0  0  0  0  0  0  0  0  0  0  0  0
  147.3606  134.9089  159.8470 H   0  0  0  0  0  0  0  0  0  0  0  0
  151.7125  137.5573  154.0749 H   0  0  0  0  0  0  0  0  0  0  0  0
  150.4772  138.7597  154.4361 H   0  0  0  0  0  0  0  0  0  0  0  0
  150.6635  137.3482  155.4749 H   0  0  0  0  0  0  0  0  0  0  0  0
  152.9456  138.1455  156.1437 H   0  0  0  0  0  0  0  0  0  0  0  0
  152.7722  139.5496  155.1193 H   0  0  0  0  0  0  0  0  0  0  0  0
  150.6775  140.1430  156.5111 H   0  0  0  0  0  0  0  0  0  0  0  0
  151.1514  141.2623  158.8595 H   0  0  0  0  0  0  0  0  0  0  0  0
  152.2537  143.0111  156.6003 H   0  0  0  0  0  0  0  0  0  0  0  0
  150.6333  142.3659  156.6763 H   0  0  0  0  0  0  0  0  0  0  0  0
  150.6954  144.7460  157.4131 H   0  0  0  0  0  0  0  0  0  0  0  0
  150.1271  143.6931  158.6846 H   0  0  0  0  0  0  0  0  0  0  0  0
  152.9448  144.8492  158.4199 H   0  0  0  0  0  0  0  0  0  0  0  0
  151.7538  145.2951  159.6189 H   0  0  0  0  0  0  0  0  0  0  0  0
  153.4609  143.7143  160.5506 H   0  0  0  0  0  0  0  0  0  0  0  0
  151.8507  143.0472  160.6331 H   0  0  0  0  0  0  0  0  0  0  0  0
  153.4189  141.3293  159.8042 H   0  0  0  0  0  0  0  0  0  0  0  0
  153.9618  142.3885  158.5234 H   0  0  0  0  0  0  0  0  0  0  0  0
  149.6647  137.9060  156.7914 H   0  0  0  0  0  0  0  0  0  0  0  0
  149.3868  135.9523  158.2488 H   0  0  0  0  0  0  0  0  0  0  0  0
  149.9461  136.9152  159.6019 H   0  0  0  0  0  0  0  0  0  0  0  0
  147.8747  138.4986  158.8450 H   0  0  0  0  0  0  0  0  0  0  0  0
  147.2828  137.0023  158.1733 H   0  0  0  0  0  0  0  0  0  0  0  0
  1  2  1  0  0  0  0
  1 23  1  0  0  0  0
  1 24  1  0  0  0  0
  1 25  1  0  0  0  0
  2  3  1  0  0  0  0
  2 26  1  0  0  0  0
  2 27  1  0  0  0  0
  3  4  1  0  0  0  0
  3 11  1  0  0  0  0
  3 28  1  0  0  0  0
  4  5  1  0  0  0  0
  5 10  1  0  0  0  0
  5  6  1  0  0  0  0
  5 29  1  0  0  0  0
  6  7  1  0  0  0  0
  6 30  1  0  0  0  0
  6 31  1  0  0  0  0
  7  8  1  0  0  0  0
  7 32  1  0  0  0  0
  7 33  1  0  0  0  0
  8  9  1  0  0  0  0
  8 34  1  0  0  0  0
  8 35  1  0  0  0  0
  9 10  1  0  0  0  0
  9 36  1  0  0  0  0
  9 37  1  0  0  0  0
 10 38  1  0  0  0  0
 10 39  1  0  0  0  0
 11 12  2  0  0  0  0
 11 13  1  0  0  0  0
 13 14  1  0  0  0  0
 13 40  1  0  0  0  0
 14 15  1  0  0  0  0
 14 41  1  0  0  0  0
 14 42  1  0  0  0  0
 15 16  1  0  0  0  0
 15 43  1  0  0  0  0
 15 44  1  0  0  0  0
 16 21  1  0  0  0  0
 16 17  2  0  0  0  0
 17 18  1  0  0  0  0
 18 19  1  0  0  0  0
 19 20  2  0  0  0  0
 19 21  1  0  0  0  0
 21 22  1  0  0  0  0
M  CHG  1  18  -1
M  END
> <s_m_source_file>
AV-unprocessed.smi

> <i_m_source_file_index>
3018

> <i_lp_mmshare_version>
43012

> <i_f3d_flags>
0

> <s_epik_input>
W0NIMl0xW0NIMl1bQ0gyXVtDSDJdW0NIMl1bQ0hdMU9bQ0BASF0oW0NIMl1bQ0gzXSlDKD1PKVtOSF1bQ0gyXVtDSDJdYzJuW25IXWMoPU8pW25IXTI=

> <s_epik_cmdline>
J2VwaWtfcHl0aG9uJywgJy1waCcsICc3LjAnLCAnLXRuJywgJzgnLCAnLW1hJywgJzIwMCcsICctbWV0YWxfYmluZGluZycsICctaW1hZScsICc8aW5maWxlLm1hZT4nLCAnLW9tYWUnLCAnPG91dGZpbGUubWFlPic=

> <r_lp_tautomer_probability>
1

> <r_epik_Ionization_Penalty>
14.1812

> <r_epik_Ionization_Penalty_Charging>
13.7758

> <r_epik_Ionization_Penalty_Neutral>
0.405355

> <r_epik_State_Penalty>
4.92413

> <r_epik_Charging_Adjusted_Penalty>
18.7

> <i_epik_Tot_Q>
-1

> <i_epik_Tot_abs_Q>
1

> <r_epik_Metal_State_Penalty>
1.32654

> <b_epik_Metal_Only>
1

> <s_lp_Force_Field>
OPLS_2005

> <r_lp_Energy>
19.863

> <b_lp_Chiralities_Consistent>
1

> <s_lp_Variant>
AV-unprocessed.smi:3018-3

> <Gold.Version>
5.8.1

> <Gold.Id.Protein>
6NUR|6NUR_protein|mol2

> <Gold.PLP.Fitness>
45.3564

> <Gold.PLP.PLP>
-39.2480

> <Gold.PLP.part.hbond>
-3.0000

> <Gold.PLP.part.metal>
0.0000

> <Gold.PLP.part.buried>
-5.1546

> <Gold.PLP.part.nonpolar>
-29.7056

> <Gold.PLP.part.repulsive>
0.1460

> <Gold.PLP.ligand.clash>
0.0000

> <Gold.PLP.ligand.torsion>
0.8504

> <Gold.PLP.Chemscore.Hbond>
2.5482

> <Gold.PLP.Chemscore.CHOScore>
0.0000

> <Gold.PLP.Chemscore.Metal>
0.0000

> <Gold.Chemscore.Hbonds>
donor molecule, donor type, donor heavy atom, donor atom, acceptor molecule, acceptor atom, score
      P1  H  6931  6943       L1    17  0.56
      P1  H  6934  6947       L1    17  0.60
      P1  H  7997  8009       L1     4  0.74

> <Gold.PLP.Chemscore.Internal.Correction>
0.1646

> <Gold.Rescore>
     Score         DG    S(hbond)    S(metal)    S(lipo)     H(rot)  DE(clash)    DE(int)     intcor
     14.89     -16.10       2.34        0.00      89.05       2.98       0.10       1.11       ----

> <Gold.Chemscore.Fitness>
14.8878

> <Gold.Chemscore.DG>
-16.0964

> <Gold.Chemscore.ZeroCoef>
-5.4800

> <Gold.Chemscore.Hbond>
2.3409

> <Gold.Chemscore.Metal>
0.0000

> <Gold.Chemscore.Lipo>
89.0530

> <Gold.Chemscore.Internal_Hbond>
0.0000

> <Gold.Chemscore.DEClash>
0.0998

> <Gold.Chemscore.DEInternal>
1.1087

> <Gold.Chemscore.Rot>
2.9772

> <Gold.Chemscore.Internal.Correction>
   9.000000E+99

> <Gold.Chemscore.Hbonds>
donor molecule, donor type, donor heavy atom, donor atom, acceptor molecule, acceptor atom, score
      P1  H  6931  6943       L1    17  0.09
      P1  H  6934  6947       L1    17  0.40
      P1  H  7997  8009       L1     4  0.57

> <Gold.Chemscore.Hbond.Weighted>
-7.8188

> <Gold.Chemscore.Metal.Weighted>
-0.0000

> <Gold.Chemscore.Lipo.Weighted>
-10.4192

> <Gold.Chemscore.Internal_Hbond.Weighted>
0.0000

> <Gold.Chemscore.DEClash.Weighted>
0.0998

> <Gold.Chemscore.DEInternal.Weighted>
1.1087

> <Gold.Chemscore.Rot.Weighted>
7.6216

> <Gold.Chemscore.Internal.Correction.Weighted>
   9.000000E+99

> <Gold.Protein.RotatedTorsions>
[ 6907 6896 6895 6894 ] final -119.13 input  -60.11 | X-H torsion
[ 7974 7965 7964 7962 ] final -103.43 input  175.53 | X-H torsion
[ 8008 7997 7996 7995 ] final  174.33 input   59.86 | X-H torsion
[ 10167 10162 10161 10158 ] final  -54.64 input  -65.29 | X-H torsion
[ 10718 10713 10712 10709 ] final   33.13 input   66.30 | X-H torsion
[ 10763 10752 10751 10750 ] final  141.51 input  -60.55 | X-H torsion
[ 11005 11000 10999 10996 ] final   30.33 input  -57.11 | X-H torsion

> <Gold.Protein.ActiveResidues>
 VAL166  LYS551  ARG553  GLY616  TRP617  ASP618  TYR619  PRO620  LYS621  CYS622 
 ASP623  PHE694  ASN695  SER759  ASP760  ASP761  ALA762  ILE779  LEU786  VAL792 
 PHE793  MET794  SER795  GLU796  ALA797  LYS798  CYS799  TRP800  GLU811  SER814 

> <Gold.Protein.RotatedAtoms>
  150.8279  133.8141  159.3110 H   0  0  0  0  0  0  0  0  0  0  0  0  # atno 6907 bound_to 6896
  151.5880  135.1053  160.0042 H   0  0  0  0  0  0  0  0  0  0  0  0  # atno 6908 bound_to 6896
  152.4362  133.7323  159.6651 H   0  0  0  0  0  0  0  0  0  0  0  0  # atno 6909 bound_to 6896
  145.2560  140.9254  143.3068 H   0  0  0  0  0  0  0  0  0  0  0  0  # atno 7974 bound_to 7965
  156.0985  140.1437  156.9499 H   0  0  0  0  0  0  0  0  0  0  0  0  # atno 8008 bound_to 7997
  154.4687  140.0917  156.7133 H   0  0  0  0  0  0  0  0  0  0  0  0  # atno 8009 bound_to 7997
  155.4801  140.3444  155.4340 H   0  0  0  0  0  0  0  0  0  0  0  0  # atno 8010 bound_to 7997
  140.6419  143.2512  151.4966 H   0  0  0  0  0  0  0  0  0  0  0  0  # atno 10167 bound_to 10162
  157.2939  130.7316  149.6627 H   0  0  0  0  0  0  0  0  0  0  0  0  # atno 10718 bound_to 10713
  153.9404  135.2980  155.3443 H   0  0  0  0  0  0  0  0  0  0  0  0  # atno 10763 bound_to 10752
  154.7480  135.4994  153.9241 H   0  0  0  0  0  0  0  0  0  0  0  0  # atno 10764 bound_to 10752
  153.1045  135.6743  153.9718 H   0  0  0  0  0  0  0  0  0  0  0  0  # atno 10765 bound_to 10752
  140.2955  134.2816  155.7766 H   0  0  0  0  0  0  0  0  0  0  0  0  # atno 11005 bound_to 11000
  144.9460  139.4135  143.6425 LP  0  0  0  0  0  0  0  0  0  0  0  0  # atno 17320 bound_to 7965
  146.3289  139.8444  142.8884 LP  0  0  0  0  0  0  0  0  0  0  0  0  # atno 17321 bound_to 7965
  139.5628  144.2114  152.1719 LP  0  0  0  0  0  0  0  0  0  0  0  0  # atno 17342 bound_to 10162
  140.1387  144.5222  150.6757 LP  0  0  0  0  0  0  0  0  0  0  0  0  # atno 17343 bound_to 10162
  155.9668  130.4300  150.4859 LP  0  0  0  0  0  0  0  0  0  0  0  0  # atno 17370 bound_to 10713
  157.2826  131.0610  151.2187 LP  0  0  0  0  0  0  0  0  0  0  0  0  # atno 17371 bound_to 10713
  141.2138  133.7612  156.9689 LP  0  0  0  0  0  0  0  0  0  0  0  0  # atno 17394 bound_to 11000
  140.1156  134.9449  157.2130 LP  0  0  0  0  0  0  0  0  0  0  0  0  # atno 17395 bound_to 11000

$$$$
