AV-unprocessed.smi:1669|AV-procd|sdf|6689|dock7
  -GOLD-   22720 7413D 1   1.00000     0.00000
 Structure written by MMmdl.
 49 51  0  0  0  0  0  0  0  0  3 V2000
  146.7165  137.4521  158.1789 C   0  0  0  0  0  0  0  0  0  0  0  0
  148.1165  137.6223  158.6329 N   0  3  1  0  0  0  0  0  0  0  0  0
  148.7526  136.3371  159.0208 C   0  0  0  0  0  0  0  0  0  0  0  0
  148.1934  135.8009  160.3256 C   0  0  0  0  0  0  0  0  0  0  0  0
  147.7205  134.4734  160.3950 C   0  0  0  0  0  0  0  0  0  0  0  0
  147.2010  133.9696  161.6033 C   0  0  0  0  0  0  0  0  0  0  0  0
  147.1516  134.7915  162.7460 C   0  0  0  0  0  0  0  0  0  0  0  0
  147.6205  136.1179  162.6798 C   0  0  0  0  0  0  0  0  0  0  0  0
  148.1394  136.6227  161.4715 C   0  0  0  0  0  0  0  0  0  0  0  0
  148.9289  138.3983  157.6625 C   0  0  0  0  0  0  0  0  0  0  0  0
  150.4441  138.2496  157.9252 C   0  0  2  0  0  0  0  0  0  0  0  0
  150.7348  138.7914  159.1966 O   0  0  0  0  0  0  0  0  0  0  0  0
  151.3265  138.9778  156.8905 C   0  0  0  0  0  0  0  0  0  0  0  0
  150.9950  140.4047  156.7551 N   0  0  0  0  0  0  0  0  0  0  0  0
  150.1496  141.0456  155.8949 C   0  0  0  0  0  0  0  0  0  0  0  0
  149.3097  140.4248  154.8241 C   0  0  0  0  0  0  0  0  0  0  0  0
  149.7123  140.8023  153.5250 O   0  0  0  0  0  0  0  0  0  0  0  0
  150.2099  142.3756  156.1905 N   0  3  0  0  0  0  0  0  0  0  0  0
  151.0964  142.5884  157.2460 C   0  0  0  0  0  0  0  0  0  0  0  0
  151.4858  143.7597  157.8879 C   0  0  0  0  0  0  0  0  0  0  0  0
  152.4164  143.6259  158.9394 C   0  0  0  0  0  0  0  0  0  0  0  0
  152.9204  142.3644  159.3175 C   0  0  0  0  0  0  0  0  0  0  0  0
  152.5174  141.1836  158.6595 C   0  0  0  0  0  0  0  0  0  0  0  0
  151.6005  141.3256  157.6181 C   0  0  0  0  0  0  0  0  0  0  0  0
  146.6716  136.8574  157.2658 H   0  0  0  0  0  0  0  0  0  0  0  0
  146.2551  138.4198  157.9792 H   0  0  0  0  0  0  0  0  0  0  0  0
  146.1110  136.9590  158.9393 H   0  0  0  0  0  0  0  0  0  0  0  0
  148.6320  135.6035  158.2218 H   0  0  0  0  0  0  0  0  0  0  0  0
  149.8271  136.4635  159.1536 H   0  0  0  0  0  0  0  0  0  0  0  0
  147.7564  133.8372  159.5225 H   0  0  0  0  0  0  0  0  0  0  0  0
  146.8400  132.9527  161.6542 H   0  0  0  0  0  0  0  0  0  0  0  0
  146.7533  134.4051  163.6726 H   0  0  0  0  0  0  0  0  0  0  0  0
  147.5814  136.7484  163.5559 H   0  0  0  0  0  0  0  0  0  0  0  0
  148.4975  137.6410  161.4293 H   0  0  0  0  0  0  0  0  0  0  0  0
  148.6653  138.0753  156.6547 H   0  0  0  0  0  0  0  0  0  0  0  0
  148.6719  139.4577  157.7155 H   0  0  0  0  0  0  0  0  0  0  0  0
  150.7238  137.1971  157.9446 H   0  0  0  0  0  0  0  0  0  0  0  0
  150.1545  138.4016  159.8335 H   0  0  0  0  0  0  0  0  0  0  0  0
  152.3788  138.9038  157.1667 H   0  0  0  0  0  0  0  0  0  0  0  0
  151.2383  138.5136  155.9070 H   0  0  0  0  0  0  0  0  0  0  0  0
  149.3591  139.3385  154.8961 H   0  0  0  0  0  0  0  0  0  0  0  0
  148.2694  140.7142  154.9751 H   0  0  0  0  0  0  0  0  0  0  0  0
  149.5371  140.0846  152.9349 H   0  0  0  0  0  0  0  0  0  0  0  0
  151.0993  144.7273  157.6019 H   0  0  0  0  0  0  0  0  0  0  0  0
  152.7487  144.5082  159.4673 H   0  0  0  0  0  0  0  0  0  0  0  0
  153.6306  142.3014  160.1297 H   0  0  0  0  0  0  0  0  0  0  0  0
  152.9083  140.2226  158.9597 H   0  0  0  0  0  0  0  0  0  0  0  0
  148.0732  138.1901  159.4677 H   0  0  0  0  0  0  0  0  0  0  0  0
  149.6803  143.0841  155.6983 H   0  0  0  0  0  0  0  0  0  0  0  0
  1  2  1  0  0  0  0
  1 25  1  0  0  0  0
  1 26  1  0  0  0  0
  1 27  1  0  0  0  0
  2  3  1  0  0  0  0
  2 10  1  0  0  0  0
  2 48  1  0  0  0  0
  3  4  1  0  0  0  0
  3 28  1  0  0  0  0
  3 29  1  0  0  0  0
  4  9  1  0  0  0  0
  4  5  2  0  0  0  0
  5  6  1  0  0  0  0
  5 30  1  0  0  0  0
  6  7  2  0  0  0  0
  6 31  1  0  0  0  0
  7  8  1  0  0  0  0
  7 32  1  0  0  0  0
  8  9  2  0  0  0  0
  8 33  1  0  0  0  0
  9 34  1  0  0  0  0
 10 11  1  0  0  0  0
 10 35  1  0  0  0  0
 10 36  1  0  0  0  0
 11 12  1  0  0  0  0
 11 13  1  0  0  0  0
 11 37  1  0  0  0  0
 12 38  1  0  0  0  0
 13 14  1  0  0  0  0
 13 39  1  0  0  0  0
 13 40  1  0  0  0  0
 14 24  1  0  0  0  0
 14 15  1  0  0  0  0
 15 16  1  0  0  0  0
 15 18  2  0  0  0  0
 16 17  1  0  0  0  0
 16 41  1  0  0  0  0
 16 42  1  0  0  0  0
 17 43  1  0  0  0  0
 18 19  1  0  0  0  0
 18 49  1  0  0  0  0
 19 24  2  0  0  0  0
 19 20  1  0  0  0  0
 20 21  2  0  0  0  0
 20 44  1  0  0  0  0
 21 22  1  0  0  0  0
 21 45  1  0  0  0  0
 22 23  2  0  0  0  0
 22 46  1  0  0  0  0
 23 24  1  0  0  0  0
 23 47  1  0  0  0  0
M  CHG  1   2   1
M  CHG  1  18   1
M  END
> <s_m_source_file>
AV-unprocessed.smi

> <i_m_source_file_index>
1669

> <i_lp_mmshare_version>
43012

> <i_f3d_flags>
0

> <s_epik_input>
W2NIXTFbY0hdW2NIXVtjSF1bY0hdYzFbQ0gyXU4oW0NIM10pW0NIMl1bQ0BIXShbT0hdKVtDSDJdbihjKG4yKVtDSDJdW09IXSljKGMyMylbY0hdW2NIXVtjSF1bY0hdMw==

> <s_epik_cmdline>
J2VwaWtfcHl0aG9uJywgJy1waCcsICc3LjAnLCAnLXRuJywgJzgnLCAnLW1hJywgJzIwMCcsICctbWV0YWxfYmluZGluZycsICctaW1hZScsICc8aW5maWxlLm1hZT4nLCAnLW9tYWUnLCAnPG91dGZpbGUubWFlPic=

> <r_epik_Ionization_Penalty>
1.57484

> <r_epik_Ionization_Penalty_Charging>
1.57398

> <r_epik_Ionization_Penalty_Neutral>
0.000858917

> <r_epik_State_Penalty>
1.64997

> <r_epik_Charging_Adjusted_Penalty>
3.22395

> <i_epik_Tot_Q>
2

> <i_epik_Tot_abs_Q>
2

> <r_epik_Metal_State_Penalty>
5.70481

> <b_epik_Metal_Only>
0

> <s_lp_Force_Field>
OPLS_2005

> <r_lp_Energy>
24.1241

> <b_lp_Chiralities_Consistent>
1

> <s_lp_Variant>
AV-unprocessed.smi:1669-7

> <Gold.Version>
5.8.1

> <Gold.Id.Protein>
6NUR|6NUR_protein|mol2

> <Gold.PLP.Fitness>
60.9066

> <Gold.PLP.PLP>
-50.5280

> <Gold.PLP.part.hbond>
-4.7746

> <Gold.PLP.part.metal>
0.0000

> <Gold.PLP.part.buried>
-4.2280

> <Gold.PLP.part.nonpolar>
-42.6311

> <Gold.PLP.part.repulsive>
0.2473

> <Gold.PLP.ligand.clash>
0.0000

> <Gold.PLP.ligand.torsion>
0.8135

> <Gold.PLP.Chemscore.Hbond>
3.9440

> <Gold.PLP.Chemscore.CHOScore>
0.0000

> <Gold.PLP.Chemscore.Metal>
0.0000

> <Gold.Chemscore.Hbonds>
donor molecule, donor type, donor heavy atom, donor atom, acceptor molecule, acceptor atom, score
      L1  H    17    43       P1  7957  0.59
      L1  H    18    49       P1  8028  2.00
      P1  H  7989  7998       L1    17  0.35
      P1  H  8011  8017       L1    17  1.00

> <Gold.PLP.Chemscore.Internal.Correction>
0.1735

> <Gold.Rescore>
     Score         DG    S(hbond)    S(metal)    S(lipo)     H(rot)  DE(clash)    DE(int)     intcor
     17.97     -18.91       2.25        0.00     122.05       3.27       0.09       0.85       ----

> <Gold.Chemscore.Fitness>
17.9690

> <Gold.Chemscore.DG>
-18.9074

> <Gold.Chemscore.ZeroCoef>
-5.4800

> <Gold.Chemscore.Hbond>
2.2526

> <Gold.Chemscore.Metal>
0.0000

> <Gold.Chemscore.Lipo>
122.0490

> <Gold.Chemscore.Internal_Hbond>
0.0000

> <Gold.Chemscore.DEClash>
0.0877

> <Gold.Chemscore.DEInternal>
0.8507

> <Gold.Chemscore.Rot>
3.2718

> <Gold.Chemscore.Internal.Correction>
   9.000000E+99

> <Gold.Chemscore.Hbonds>
donor molecule, donor type, donor heavy atom, donor atom, acceptor molecule, acceptor atom, score
      L1  H    17    43       P1  7957  0.58
      L1  H    18    49       P1  8028  0.95
      P1  H  7989  7998       L1    17  0.09
      P1  H  8011  8017       L1    17  0.42

> <Gold.Chemscore.Hbond.Weighted>
-7.5236

> <Gold.Chemscore.Metal.Weighted>
-0.0000

> <Gold.Chemscore.Lipo.Weighted>
-14.2797

> <Gold.Chemscore.Internal_Hbond.Weighted>
0.0000

> <Gold.Chemscore.DEClash.Weighted>
0.0877

> <Gold.Chemscore.DEInternal.Weighted>
0.8507

> <Gold.Chemscore.Rot.Weighted>
8.3759

> <Gold.Chemscore.Internal.Correction.Weighted>
   9.000000E+99

> <Gold.Protein.RotatedTorsions>
[ 6907 6896 6895 6894 ] final  -18.79 input  -60.11 | X-H torsion
[ 7974 7965 7964 7962 ] final -174.14 input  175.53 | X-H torsion
[ 8008 7997 7996 7995 ] final -143.38 input   59.86 | X-H torsion
[ 10167 10162 10161 10158 ] final   34.86 input  -65.29 | X-H torsion
[ 10718 10713 10712 10709 ] final -140.65 input   66.30 | X-H torsion
[ 10763 10752 10751 10750 ] final  157.06 input  -60.55 | X-H torsion
[ 11005 11000 10999 10996 ] final -106.61 input  -57.11 | X-H torsion

> <Gold.Protein.ActiveResidues>
 VAL166  LYS551  ARG553  GLY616  TRP617  ASP618  TYR619  PRO620  LYS621  CYS622 
 ASP623  PHE694  ASN695  SER759  ASP760  ASP761  ALA762  ILE779  LEU786  VAL792 
 PHE793  MET794  SER795  GLU796  ALA797  LYS798  CYS799  TRP800  GLU811  SER814 

> <Gold.Protein.RotatedAtoms>
  151.2728  135.0690  159.9140 H   0  0  0  0  0  0  0  0  0  0  0  0  # atno 6907 bound_to 6896
  152.5347  134.0112  159.7949 H   0  0  0  0  0  0  0  0  0  0  0  0  # atno 6908 bound_to 6896
  151.0353  133.5703  159.2687 H   0  0  0  0  0  0  0  0  0  0  0  0  # atno 6909 bound_to 6896
  144.7133  140.1517  143.6383 H   0  0  0  0  0  0  0  0  0  0  0  0  # atno 7974 bound_to 7965
  155.5096  140.0582  157.2925 H   0  0  0  0  0  0  0  0  0  0  0  0  # atno 8008 bound_to 7997
  154.4557  140.1971  156.0337 H   0  0  0  0  0  0  0  0  0  0  0  0  # atno 8009 bound_to 7997
  156.0793  140.3249  155.7678 H   0  0  0  0  0  0  0  0  0  0  0  0  # atno 8010 bound_to 7997
  140.4276  144.1371  150.6155 H   0  0  0  0  0  0  0  0  0  0  0  0  # atno 10167 bound_to 10162
  156.3247  130.7554  151.1659 H   0  0  0  0  0  0  0  0  0  0  0  0  # atno 10718 bound_to 10713
  154.1943  135.2793  155.3012 H   0  0  0  0  0  0  0  0  0  0  0  0  # atno 10763 bound_to 10752
  154.5904  135.5561  153.7276 H   0  0  0  0  0  0  0  0  0  0  0  0  # atno 10764 bound_to 10752
  153.0104  135.6367  154.2081 H   0  0  0  0  0  0  0  0  0  0  0  0  # atno 10765 bound_to 10752
  141.0996  133.8908  157.1876 H   0  0  0  0  0  0  0  0  0  0  0  0  # atno 11005 bound_to 11000
  145.9111  139.2487  143.1437 LP  0  0  0  0  0  0  0  0  0  0  0  0  # atno 17320 bound_to 7965
  145.9716  140.8756  143.0160 LP  0  0  0  0  0  0  0  0  0  0  0  0  # atno 17321 bound_to 7965
  140.4464  143.2505  151.9406 LP  0  0  0  0  0  0  0  0  0  0  0  0  # atno 17342 bound_to 10162
  139.4784  144.5605  151.8247 LP  0  0  0  0  0  0  0  0  0  0  0  0  # atno 17343 bound_to 10162
  157.7419  131.0498  150.5064 LP  0  0  0  0  0  0  0  0  0  0  0  0  # atno 17370 bound_to 10713
  156.5222  130.4164  149.6245 LP  0  0  0  0  0  0  0  0  0  0  0  0  # atno 17371 bound_to 10713
  139.9843  135.0087  156.9825 LP  0  0  0  0  0  0  0  0  0  0  0  0  # atno 17394 bound_to 11000
  140.5055  134.1054  155.7259 LP  0  0  0  0  0  0  0  0  0  0  0  0  # atno 17395 bound_to 11000

$$$$
