AV-unprocessed.smi:531|AV-procd|sdf|2847|dock8
  -GOLD-   2262023333D 1   1.00000     0.00000
 Structure written by MMmdl.
 45 47  0  0  0  0  0  0  0  0  2 V2000
  149.6547  138.5532  154.4859 C   0  0  0  0  0  0  0  0  0  0  0  0
  149.0048  139.6523  155.3293 C   0  0  0  0  0  0  0  0  0  0  0  0
  149.9463  140.6929  155.5172 O   0  0  0  0  0  0  0  0  0  0  0  0
  151.0367  140.3148  156.3405 C   0  0  0  0  0  0  0  0  0  0  0  0
  150.7940  140.8080  157.7737 C   0  0  0  0  0  0  0  0  0  0  0  0
  151.9104  140.4730  158.6578 N   0  0  0  0  0  0  0  0  0  0  0  0
  152.6850  141.3231  159.3868 C   0  0  0  0  0  0  0  0  0  0  0  0
  152.5205  142.7096  159.3470 N   0  0  0  0  0  0  0  0  0  0  0  0
  152.1572  143.5029  158.1721 C   0  0  0  0  0  0  0  0  0  0  0  0
  151.0010  144.4727  158.4765 C   0  0  0  0  0  0  0  0  0  0  0  0
  151.3765  145.4066  159.6352 C   0  0  0  0  0  0  0  0  0  0  0  0
  151.8665  144.5836  160.8348 C   0  0  0  0  0  0  0  0  0  0  0  0
  152.9760  143.6049  160.4095 C   0  0  0  0  0  0  0  0  0  0  0  0
  153.5770  140.7236  160.1769 N   0  0  0  0  0  0  0  0  0  0  0  0
  153.3725  139.3784  159.9151 C   0  0  0  0  0  0  0  0  0  0  0  0
  152.3710  139.1980  159.0121 C   0  0  0  0  0  0  0  0  0  0  0  0
  151.8971  137.8647  158.5714 C   0  0  0  0  0  0  0  0  0  0  0  0
  150.9747  137.7466  157.7679 O   0  0  0  0  0  0  0  0  0  0  0  0
  152.5957  136.8448  159.1630 N   0  5  0  0  0  0  0  0  0  0  0  0
  153.6173  136.9847  160.0767 C   0  0  0  0  0  0  0  0  0  0  0  0
  154.1885  136.0100  160.5677 O   0  0  0  0  0  0  0  0  0  0  0  0
  154.0188  138.2364  160.4616 N   0  0  0  0  0  0  0  0  0  0  0  0
  155.0992  138.4159  161.4360 C   0  0  0  0  0  0  0  0  0  0  0  0
  148.9626  137.7277  154.3195 H   0  0  0  0  0  0  0  0  0  0  0  0
  150.5404  138.1540  154.9810 H   0  0  0  0  0  0  0  0  0  0  0  0
  149.9603  138.9367  153.5122 H   0  0  0  0  0  0  0  0  0  0  0  0
  148.1154  140.0348  154.8264 H   0  0  0  0  0  0  0  0  0  0  0  0
  148.6940  139.2472  156.2934 H   0  0  0  0  0  0  0  0  0  0  0  0
  151.1535  139.2302  156.3351 H   0  0  0  0  0  0  0  0  0  0  0  0
  151.9613  140.7445  155.9525 H   0  0  0  0  0  0  0  0  0  0  0  0
  150.6214  141.8811  157.7819 H   0  0  0  0  0  0  0  0  0  0  0  0
  149.8713  140.3864  158.1596 H   0  0  0  0  0  0  0  0  0  0  0  0
  153.0331  144.0676  157.8500 H   0  0  0  0  0  0  0  0  0  0  0  0
  151.9080  142.8521  157.3351 H   0  0  0  0  0  0  0  0  0  0  0  0
  150.7592  145.0579  157.5891 H   0  0  0  0  0  0  0  0  0  0  0  0
  150.1019  143.9122  158.7336 H   0  0  0  0  0  0  0  0  0  0  0  0
  152.1658  146.0871  159.3139 H   0  0  0  0  0  0  0  0  0  0  0  0
  150.5244  146.0249  159.9186 H   0  0  0  0  0  0  0  0  0  0  0  0
  152.2326  145.2472  161.6186 H   0  0  0  0  0  0  0  0  0  0  0  0
  151.0332  144.0259  161.2638 H   0  0  0  0  0  0  0  0  0  0  0  0
  153.2901  143.0165  161.2724 H   0  0  0  0  0  0  0  0  0  0  0  0
  153.8563  144.1517  160.0691 H   0  0  0  0  0  0  0  0  0  0  0  0
  156.0060  137.9081  161.1043 H   0  0  0  0  0  0  0  0  0  0  0  0
  154.8099  138.0020  162.4029 H   0  0  0  0  0  0  0  0  0  0  0  0
  155.3558  139.4634  161.5919 H   0  0  0  0  0  0  0  0  0  0  0  0
  1  2  1  0  0  0  0
  1 24  1  0  0  0  0
  1 25  1  0  0  0  0
  1 26  1  0  0  0  0
  2  3  1  0  0  0  0
  2 27  1  0  0  0  0
  2 28  1  0  0  0  0
  3  4  1  0  0  0  0
  4  5  1  0  0  0  0
  4 29  1  0  0  0  0
  4 30  1  0  0  0  0
  5  6  1  0  0  0  0
  5 31  1  0  0  0  0
  5 32  1  0  0  0  0
  6 16  1  0  0  0  0
  6  7  1  0  0  0  0
  7  8  1  0  0  0  0
  7 14  2  0  0  0  0
  8 13  1  0  0  0  0
  8  9  1  0  0  0  0
  9 10  1  0  0  0  0
  9 33  1  0  0  0  0
  9 34  1  0  0  0  0
 10 11  1  0  0  0  0
 10 35  1  0  0  0  0
 10 36  1  0  0  0  0
 11 12  1  0  0  0  0
 11 37  1  0  0  0  0
 11 38  1  0  0  0  0
 12 13  1  0  0  0  0
 12 39  1  0  0  0  0
 12 40  1  0  0  0  0
 13 41  1  0  0  0  0
 13 42  1  0  0  0  0
 14 15  1  0  0  0  0
 15 22  1  0  0  0  0
 15 16  2  0  0  0  0
 16 17  1  0  0  0  0
 17 18  2  0  0  0  0
 17 19  1  0  0  0  0
 19 20  1  0  0  0  0
 20 21  2  0  0  0  0
 20 22  1  0  0  0  0
 22 23  1  0  0  0  0
 23 43  1  0  0  0  0
 23 44  1  0  0  0  0
 23 45  1  0  0  0  0
M  CHG  1  19  -1
M  END
> <s_m_source_file>
AV-unprocessed.smi

> <i_m_source_file_index>
531

> <i_lp_mmshare_version>
43012

> <i_f3d_flags>
0

> <s_epik_input>
W0NIM11uMWMoPU8pW25IXWMoPU8pYyhjMTIpbihbQ0gyXVtDSDJdT1tDSDJdW0NIM10pYyhuMilOM1tDSDJdW0NIMl1bQ0gyXVtDSDJdW0NIMl0z

> <s_epik_cmdline>
J2VwaWtfcHl0aG9uJywgJy1waCcsICc3LjAnLCAnLXRuJywgJzgnLCAnLW1hJywgJzIwMCcsICctbWV0YWxfYmluZGluZycsICctaW1hZScsICc8aW5maWxlLm1hZT4nLCAnLW9tYWUnLCAnPG91dGZpbGUubWFlPic=

> <r_lp_tautomer_probability>
1

> <r_epik_Ionization_Penalty>
5.10252

> <r_epik_Ionization_Penalty_Charging>
0.0734613

> <r_epik_Ionization_Penalty_Neutral>
5.02906

> <r_epik_State_Penalty>
5.02576

> <r_epik_Charging_Adjusted_Penalty>
5.09922

> <i_epik_Tot_Q>
-1

> <i_epik_Tot_abs_Q>
1

> <r_epik_Metal_State_Penalty>
1.13821

> <b_epik_Metal_Only>
1

> <s_lp_Force_Field>
OPLS_2005

> <r_lp_Energy>
41.0851

> <b_lp_Chiralities_Consistent>
1

> <s_lp_Variant>
AV-unprocessed.smi:531-2

> <Gold.Version>
5.8.1

> <Gold.Id.Protein>
6NUR|6NUR_protein|mol2

> <Gold.PLP.Fitness>
55.5192

> <Gold.PLP.PLP>
-47.2387

> <Gold.PLP.part.hbond>
-2.0000

> <Gold.PLP.part.metal>
0.0000

> <Gold.PLP.part.buried>
-7.9462

> <Gold.PLP.part.nonpolar>
-38.0102

> <Gold.PLP.part.repulsive>
0.0337

> <Gold.PLP.ligand.clash>
0.0000

> <Gold.PLP.ligand.torsion>
0.6270

> <Gold.PLP.Chemscore.Hbond>
3.0000

> <Gold.PLP.Chemscore.CHOScore>
0.0000

> <Gold.PLP.Chemscore.Metal>
0.0000

> <Gold.Chemscore.Hbonds>
donor molecule, donor type, donor heavy atom, donor atom, acceptor molecule, acceptor atom, score
      P1  H  6896  6907       L1    19  0.53

> <Gold.PLP.Chemscore.Internal.Correction>
0.5345

> <Gold.Rescore>
     Score         DG    S(hbond)    S(metal)    S(lipo)     H(rot)  DE(clash)    DE(int)     intcor
     15.65     -18.52       1.70        0.00      97.70       1.59       1.42       1.45       ----

> <Gold.Chemscore.Fitness>
15.6511

> <Gold.Chemscore.DG>
-18.5176

> <Gold.Chemscore.ZeroCoef>
-5.4800

> <Gold.Chemscore.Hbond>
1.7013

> <Gold.Chemscore.Metal>
0.0000

> <Gold.Chemscore.Lipo>
97.6994

> <Gold.Chemscore.Internal_Hbond>
0.0000

> <Gold.Chemscore.DEClash>
1.4157

> <Gold.Chemscore.DEInternal>
1.4509

> <Gold.Chemscore.Rot>
1.5920

> <Gold.Chemscore.Internal.Correction>
   9.000000E+99

> <Gold.Chemscore.Hbonds>
donor molecule, donor type, donor heavy atom, donor atom, acceptor molecule, acceptor atom, score
      P1  H  6896  6907       L1    19  0.01

> <Gold.Chemscore.Hbond.Weighted>
-5.6824

> <Gold.Chemscore.Metal.Weighted>
-0.0000

> <Gold.Chemscore.Lipo.Weighted>
-11.4308

> <Gold.Chemscore.Internal_Hbond.Weighted>
0.0000

> <Gold.Chemscore.DEClash.Weighted>
1.4157

> <Gold.Chemscore.DEInternal.Weighted>
1.4509

> <Gold.Chemscore.Rot.Weighted>
4.0756

> <Gold.Chemscore.Internal.Correction.Weighted>
   9.000000E+99

> <Gold.Protein.RotatedTorsions>
[ 6907 6896 6895 6894 ] final   38.51 input  -60.11 | X-H torsion
[ 7974 7965 7964 7962 ] final   66.03 input  175.53 | X-H torsion
[ 8008 7997 7996 7995 ] final  -19.66 input   59.86 | X-H torsion
[ 10167 10162 10161 10158 ] final  104.90 input  -65.29 | X-H torsion
[ 10718 10713 10712 10709 ] final  -66.87 input   66.30 | X-H torsion
[ 10763 10752 10751 10750 ] final    9.52 input  -60.55 | X-H torsion
[ 11005 11000 10999 10996 ] final -123.78 input  -57.11 | X-H torsion

> <Gold.Protein.ActiveResidues>
 VAL166  LYS551  ARG553  GLY616  TRP617  ASP618  TYR619  PRO620  LYS621  CYS622 
 ASP623  PHE694  ASN695  SER759  ASP760  ASP761  ALA762  ILE779  LEU786  VAL792 
 PHE793  MET794  SER795  GLU796  ALA797  LYS798  CYS799  TRP800  GLU811  SER814 

> <Gold.Protein.RotatedAtoms>
  152.1575  134.8939  160.0543 H   0  0  0  0  0  0  0  0  0  0  0  0  # atno 6907 bound_to 6896
  151.9948  133.3799  159.4166 H   0  0  0  0  0  0  0  0  0  0  0  0  # atno 6908 bound_to 6896
  150.6883  134.3820  159.5082 H   0  0  0  0  0  0  0  0  0  0  0  0  # atno 6909 bound_to 6896
  145.8315  139.3142  143.0985 H   0  0  0  0  0  0  0  0  0  0  0  0  # atno 7974 bound_to 7965
  154.4821  140.2083  155.9738 H   0  0  0  0  0  0  0  0  0  0  0  0  # atno 8008 bound_to 7997
  156.1181  140.3218  155.8138 H   0  0  0  0  0  0  0  0  0  0  0  0  # atno 8009 bound_to 7997
  155.4516  140.0517  157.2991 H   0  0  0  0  0  0  0  0  0  0  0  0  # atno 8010 bound_to 7997
  139.7138  144.7072  151.0983 H   0  0  0  0  0  0  0  0  0  0  0  0  # atno 10167 bound_to 10162
  156.0588  130.4269  150.1772 H   0  0  0  0  0  0  0  0  0  0  0  0  # atno 10718 bound_to 10713
  153.2131  135.6871  153.8089 H   0  0  0  0  0  0  0  0  0  0  0  0  # atno 10763 bound_to 10752
  153.7315  135.3252  155.3288 H   0  0  0  0  0  0  0  0  0  0  0  0  # atno 10764 bound_to 10752
  154.8232  135.4637  154.0948 H   0  0  0  0  0  0  0  0  0  0  0  0  # atno 10765 bound_to 10752
  140.9892  134.0563  157.3674 H   0  0  0  0  0  0  0  0  0  0  0  0  # atno 11005 bound_to 11000
  145.9566  140.8868  143.0232 LP  0  0  0  0  0  0  0  0  0  0  0  0  # atno 17320 bound_to 7965
  144.6739  140.1754  143.7410 LP  0  0  0  0  0  0  0  0  0  0  0  0  # atno 17321 bound_to 7965
  140.7739  143.5257  150.9483 LP  0  0  0  0  0  0  0  0  0  0  0  0  # atno 17342 bound_to 10162
  139.8943  143.6915  152.3141 LP  0  0  0  0  0  0  0  0  0  0  0  0  # atno 17343 bound_to 10162
  156.9844  130.9874  151.3430 LP  0  0  0  0  0  0  0  0  0  0  0  0  # atno 17370 bound_to 10713
  157.5580  130.8227  149.8230 LP  0  0  0  0  0  0  0  0  0  0  0  0  # atno 17371 bound_to 10713
  139.8984  135.0154  156.7149 LP  0  0  0  0  0  0  0  0  0  0  0  0  # atno 17394 bound_to 11000
  140.7066  133.9260  155.8058 LP  0  0  0  0  0  0  0  0  0  0  0  0  # atno 17395 bound_to 11000

$$$$
