AV-unprocessed.smi:1508|AV-procd|sdf|6086|dock2
  -GOLD-   22720 6213D 1   1.00000     0.00000
 Structure written by MMmdl.
 38 39  0  0  0  0  0  0  0  0  2 V2000
  143.8319  135.0952  152.8073 C   0  0  0  0  0  0  0  0  0  0  0  0
  145.3464  134.8613  152.6909 C   0  0  0  0  0  0  0  0  0  0  0  0
  145.9396  135.1220  151.2796 C   0  0  2  0  0  0  0  0  0  0  0  0
  145.5161  136.5029  150.7074 C   0  0  0  0  0  0  0  0  0  0  0  0
  146.3691  137.5959  151.1641 N   0  0  0  0  0  0  0  0  0  0  0  0
  146.2160  138.2529  152.3226 C   0  0  0  0  0  0  0  0  0  0  0  0
  145.3264  137.9932  153.1326 O   0  0  0  0  0  0  0  0  0  0  0  0
  147.1440  139.2127  152.4655 N   0  0  0  0  0  0  0  0  0  0  0  0
  147.2961  140.1241  153.5402 C   0  0  0  0  0  0  0  0  0  0  0  0
  146.3195  140.1874  154.4528 N   0  0  0  0  0  0  0  0  0  0  0  0
  146.5975  141.1152  155.4492 N   0  0  0  0  0  0  0  0  0  0  0  0
  147.7741  141.7164  155.2482 C   0  0  0  0  0  0  0  0  0  0  0  0
  148.6610  141.2093  153.8215 S   0  0  0  0  0  0  0  0  0  0  0  0
  145.6193  134.0218  150.3227 N   0  3  0  0  0  0  0  0  0  0  0  0
  146.2694  132.7188  150.6152 C   0  0  0  0  0  0  0  0  0  0  0  0
  145.2752  131.6145  150.2291 C   0  0  0  0  0  0  0  0  0  0  0  0
  144.1392  132.3389  149.5159 C   0  0  0  0  0  0  0  0  0  0  0  0
  144.1815  133.7347  150.1260 C   0  0  0  0  0  0  0  0  0  0  0  0
  143.4833  134.8496  153.8105 H   0  0  0  0  0  0  0  0  0  0  0  0
  143.2739  134.4749  152.1059 H   0  0  0  0  0  0  0  0  0  0  0  0
  143.5699  136.1363  152.6193 H   0  0  0  0  0  0  0  0  0  0  0  0
  145.8510  135.4941  153.4214 H   0  0  0  0  0  0  0  0  0  0  0  0
  145.5746  133.8454  153.0130 H   0  0  0  0  0  0  0  0  0  0  0  0
  147.0253  135.1256  151.3912 H   0  0  0  0  0  0  0  0  0  0  0  0
  145.5243  136.5007  149.6168 H   0  0  0  0  0  0  0  0  0  0  0  0
  144.4900  136.7327  150.9942 H   0  0  0  0  0  0  0  0  0  0  0  0
  147.1267  137.8705  150.5553 H   0  0  0  0  0  0  0  0  0  0  0  0
  147.8156  139.3097  151.7182 H   0  0  0  0  0  0  0  0  0  0  0  0
  148.1224  142.4635  155.9460 H   0  0  0  0  0  0  0  0  0  0  0  0
  147.1958  132.6390  150.0456 H   0  0  0  0  0  0  0  0  0  0  0  0
  146.5199  132.6257  151.6733 H   0  0  0  0  0  0  0  0  0  0  0  0
  145.7282  130.8423  149.6063 H   0  0  0  0  0  0  0  0  0  0  0  0
  144.8952  131.1309  151.1301 H   0  0  0  0  0  0  0  0  0  0  0  0
  144.3489  132.3960  148.4467 H   0  0  0  0  0  0  0  0  0  0  0  0
  143.1743  131.8477  149.6452 H   0  0  0  0  0  0  0  0  0  0  0  0
  143.6700  133.7317  151.0901 H   0  0  0  0  0  0  0  0  0  0  0  0
  143.6980  134.4713  149.4840 H   0  0  0  0  0  0  0  0  0  0  0  0
  145.9657  134.3080  149.4181 H   0  0  0  0  0  0  0  0  0  0  0  0
  1  2  1  0  0  0  0
  1 19  1  0  0  0  0
  1 20  1  0  0  0  0
  1 21  1  0  0  0  0
  2  3  1  0  0  0  0
  2 22  1  0  0  0  0
  2 23  1  0  0  0  0
  3  4  1  0  0  0  0
  3 14  1  0  0  0  0
  3 24  1  0  0  0  0
  4  5  1  0  0  0  0
  4 25  1  0  0  0  0
  4 26  1  0  0  0  0
  5  6  1  0  0  0  0
  5 27  1  0  0  0  0
  6  7  2  0  0  0  0
  6  8  1  0  0  0  0
  8  9  1  0  0  0  0
  8 28  1  0  0  0  0
  9 13  1  0  0  0  0
  9 10  2  0  0  0  0
 10 11  1  0  0  0  0
 11 12  2  0  0  0  0
 12 13  1  0  0  0  0
 12 29  1  0  0  0  0
 14 18  1  0  0  0  0
 14 15  1  0  0  0  0
 14 38  1  0  0  0  0
 15 16  1  0  0  0  0
 15 30  1  0  0  0  0
 15 31  1  0  0  0  0
 16 17  1  0  0  0  0
 16 32  1  0  0  0  0
 16 33  1  0  0  0  0
 17 18  1  0  0  0  0
 17 34  1  0  0  0  0
 17 35  1  0  0  0  0
 18 36  1  0  0  0  0
 18 37  1  0  0  0  0
M  CHG  1  14   1
M  END
> <s_m_source_file>
AV-unprocessed.smi

> <i_m_source_file_index>
1508

> <i_lp_mmshare_version>
43012

> <i_f3d_flags>
0

> <s_epik_input>
W0NIMl0xW0NIMl1bQ0gyXVtDSDJdTjFbQ0BIXShbQ0gyXVtDSDNdKVtDSDJdW05IXUMoPU8pW05IXWMybm5bY0hdczI=

> <s_epik_cmdline>
J2VwaWtfcHl0aG9uJywgJy1waCcsICc3LjAnLCAnLXRuJywgJzgnLCAnLW1hJywgJzIwMCcsICctbWV0YWxfYmluZGluZycsICctaW1hZScsICc8aW5maWxlLm1hZT4nLCAnLW9tYWUnLCAnPG91dGZpbGUubWFlPic=

> <r_lp_tautomer_probability>
1

> <r_epik_Ionization_Penalty>
0.00193711

> <r_epik_Ionization_Penalty_Charging>
0.00115997

> <r_epik_Ionization_Penalty_Neutral>
0.000777142

> <r_epik_State_Penalty>
-0

> <r_epik_Charging_Adjusted_Penalty>
0.00115997

> <i_epik_Tot_Q>
1

> <i_epik_Tot_abs_Q>
1

> <r_epik_Metal_State_Penalty>
0.264283

> <b_epik_Metal_Only>
0

> <s_lp_Force_Field>
OPLS_2005

> <r_lp_Energy>
30.1882

> <b_lp_Chiralities_Consistent>
1

> <s_lp_Variant>
AV-unprocessed.smi:1508-1

> <Gold.Version>
5.8.1

> <Gold.Id.Protein>
6NUR|6NUR_protein|mol2

> <Gold.PLP.Fitness>
38.4575

> <Gold.PLP.PLP>
-30.7081

> <Gold.PLP.part.hbond>
-3.7446

> <Gold.PLP.part.metal>
0.0000

> <Gold.PLP.part.buried>
-2.0325

> <Gold.PLP.part.nonpolar>
-27.8433

> <Gold.PLP.part.repulsive>
1.7745

> <Gold.PLP.ligand.clash>
0.0000

> <Gold.PLP.ligand.torsion>
0.6914

> <Gold.PLP.Chemscore.Hbond>
2.0000

> <Gold.PLP.Chemscore.CHOScore>
0.9979

> <Gold.PLP.Chemscore.Metal>
0.0000

> <Gold.Chemscore.Hbonds>
donor molecule, donor type, donor heavy atom, donor atom, acceptor molecule, acceptor atom, score
      L1  H     8    28       P1  7957  0.96
      L1  H    14    38       P1  7921  1.00
      L1  C    12    29       P1  8028  1.00

> <Gold.PLP.Chemscore.Internal.Correction>
0.1387

> <Gold.Rescore>
     Score         DG    S(hbond)    S(metal)    S(lipo)     H(rot)  DE(clash)    DE(int)     intcor
     11.45     -15.69       1.84        0.00      76.12       1.89       1.80       2.43       ----

> <Gold.Chemscore.Fitness>
11.4543

> <Gold.Chemscore.DG>
-15.6879

> <Gold.Chemscore.ZeroCoef>
-5.4800

> <Gold.Chemscore.Hbond>
1.8421

> <Gold.Chemscore.Metal>
0.0000

> <Gold.Chemscore.Lipo>
76.1226

> <Gold.Chemscore.Internal_Hbond>
0.0000

> <Gold.Chemscore.DEClash>
1.7991

> <Gold.Chemscore.DEInternal>
2.4345

> <Gold.Chemscore.Rot>
1.8950

> <Gold.Chemscore.Internal.Correction>
   9.000000E+99

> <Gold.Chemscore.Hbonds>
donor molecule, donor type, donor heavy atom, donor atom, acceptor molecule, acceptor atom, score
      L1  H     8    28       P1  7957  0.89
      L1  H    14    38       P1  7921  0.40

> <Gold.Chemscore.Hbond.Weighted>
-6.1527

> <Gold.Chemscore.Metal.Weighted>
-0.0000

> <Gold.Chemscore.Lipo.Weighted>
-8.9063

> <Gold.Chemscore.Internal_Hbond.Weighted>
0.0000

> <Gold.Chemscore.DEClash.Weighted>
1.7991

> <Gold.Chemscore.DEInternal.Weighted>
2.4345

> <Gold.Chemscore.Rot.Weighted>
4.8511

> <Gold.Chemscore.Internal.Correction.Weighted>
   9.000000E+99

> <Gold.Protein.RotatedTorsions>
[ 6907 6896 6895 6894 ] final  108.09 input  -60.11 | X-H torsion
[ 7974 7965 7964 7962 ] final  122.71 input  175.53 | X-H torsion
[ 8008 7997 7996 7995 ] final  -78.74 input   59.86 | X-H torsion
[ 10167 10162 10161 10158 ] final  130.77 input  -65.29 | X-H torsion
[ 10718 10713 10712 10709 ] final   -9.87 input   66.30 | X-H torsion
[ 10763 10752 10751 10750 ] final   29.31 input  -60.55 | X-H torsion
[ 11005 11000 10999 10996 ] final -148.55 input  -57.11 | X-H torsion

> <Gold.Protein.ActiveResidues>
 VAL166  LYS551  ARG553  GLY616  TRP617  ASP618  TYR619  PRO620  LYS621  CYS622 
 ASP623  PHE694  ASN695  SER759  ASP760  ASP761  ALA762  ILE779  LEU786  VAL792 
 PHE793  MET794  SER795  GLU796  ALA797  LYS798  CYS799  TRP800  GLU811  SER814 

> <Gold.Protein.RotatedAtoms>
  152.5127  133.9139  159.7501 H   0  0  0  0  0  0  0  0  0  0  0  0  # atno 6907 bound_to 6896
  150.9526  133.6524  159.2776 H   0  0  0  0  0  0  0  0  0  0  0  0  # atno 6908 bound_to 6896
  151.3797  135.0942  159.9545 H   0  0  0  0  0  0  0  0  0  0  0  0  # atno 6909 bound_to 6896
  145.1044  139.3496  143.4795 H   0  0  0  0  0  0  0  0  0  0  0  0  # atno 7974 bound_to 7965
  154.5718  140.0689  156.8975 H   0  0  0  0  0  0  0  0  0  0  0  0  # atno 8008 bound_to 7997
  155.2621  140.3359  155.4254 H   0  0  0  0  0  0  0  0  0  0  0  0  # atno 8009 bound_to 7997
  156.2124  140.1764  156.7651 H   0  0  0  0  0  0  0  0  0  0  0  0  # atno 8010 bound_to 7997
  139.5415  144.6734  151.4611 H   0  0  0  0  0  0  0  0  0  0  0  0  # atno 10167 bound_to 10162
  156.6818  130.5039  149.5969 H   0  0  0  0  0  0  0  0  0  0  0  0  # atno 10718 bound_to 10713
  153.0438  135.6492  154.0872 H   0  0  0  0  0  0  0  0  0  0  0  0  # atno 10763 bound_to 10752
  154.0573  135.2891  155.3332 H   0  0  0  0  0  0  0  0  0  0  0  0  # atno 10764 bound_to 10752
  154.6680  135.5366  153.8167 H   0  0  0  0  0  0  0  0  0  0  0  0  # atno 10765 bound_to 10752
  140.7601  134.3308  157.5104 H   0  0  0  0  0  0  0  0  0  0  0  0  # atno 11005 bound_to 11000
  146.3529  140.0935  142.8611 LP  0  0  0  0  0  0  0  0  0  0  0  0  # atno 17320 bound_to 7965
  145.0919  140.9290  143.4764 LP  0  0  0  0  0  0  0  0  0  0  0  0  # atno 17321 bound_to 7965
  140.6646  143.8425  150.6927 LP  0  0  0  0  0  0  0  0  0  0  0  0  # atno 17342 bound_to 10162
  140.1831  143.4099  152.1919 LP  0  0  0  0  0  0  0  0  0  0  0  0  # atno 17343 bound_to 10162
  156.1862  130.6530  151.1009 LP  0  0  0  0  0  0  0  0  0  0  0  0  # atno 17370 bound_to 10713
  157.7041  131.0764  150.6726 LP  0  0  0  0  0  0  0  0  0  0  0  0  # atno 17371 bound_to 10713
  139.8772  134.9197  156.3232 LP  0  0  0  0  0  0  0  0  0  0  0  0  # atno 17394 bound_to 11000
  140.9671  133.7351  156.0482 LP  0  0  0  0  0  0  0  0  0  0  0  0  # atno 17395 bound_to 11000

$$$$
