AV-unprocessed.smi:1191|AV-procd|sdf|4984|dock10
  -GOLD-   22720 3583D 1   1.00000     0.00000
 Structure written by MMmdl.
 47 48  0  0  0  0  0  0  0  0  2 V2000
  152.7703  140.9446  158.9454 C   0  0  0  0  0  0  0  0  0  0  0  0
  152.0301  140.7346  157.6574 C   0  0  0  0  0  0  0  0  0  0  0  0
  150.9009  141.4450  157.1629 C   0  0  0  0  0  0  0  0  0  0  0  0
  150.6311  140.8553  155.9601 C   0  0  0  0  0  0  0  0  0  0  0  0
  149.5615  141.1543  154.9617 C   0  0  0  0  0  0  0  0  0  0  0  0
  151.5697  139.8531  155.7847 N   0  0  0  0  0  0  0  0  0  0  0  0
  151.7276  138.9236  154.6765 C   0  0  0  0  0  0  0  0  0  0  0  0
  151.1758  137.5407  155.0294 C   0  0  0  0  0  0  0  0  0  0  0  0
  151.8952  136.5455  154.9415 O   0  0  0  0  0  0  0  0  0  0  0  0
  149.9002  137.4907  155.4427 N   0  0  0  0  0  0  0  0  0  0  0  0
  149.2083  136.2771  155.8587 C   0  0  0  0  0  0  0  0  0  0  0  0
  147.8436  136.1423  155.1553 C   0  0  0  0  0  0  0  0  0  0  0  0
  147.8277  135.0521  154.1475 N   0  3  1  0  0  0  0  0  0  0  0  0
  148.5499  133.8432  154.6216 C   0  0  0  0  0  0  0  0  0  0  0  0
  148.6467  132.7841  153.5122 C   0  0  0  0  0  0  0  0  0  0  0  0
  147.2553  132.4142  152.9837 C   0  0  0  0  0  0  0  0  0  0  0  0
  146.5075  133.6768  152.5235 C   0  0  1  0  0  0  0  0  0  0  0  0
  145.0998  133.3395  152.0119 C   0  0  0  0  0  0  0  0  0  0  0  0
  146.4617  134.7159  153.6620 C   0  0  0  0  0  0  0  0  0  0  0  0
  152.4257  139.7841  156.8273 N   0  0  0  0  0  0  0  0  0  0  0  0
  152.2743  141.6889  159.5685 H   0  0  0  0  0  0  0  0  0  0  0  0
  153.7875  141.2910  158.7604 H   0  0  0  0  0  0  0  0  0  0  0  0
  152.8308  140.0196  159.5195 H   0  0  0  0  0  0  0  0  0  0  0  0
  150.3694  142.2649  157.6228 H   0  0  0  0  0  0  0  0  0  0  0  0
  149.0030  142.0459  155.2466 H   0  0  0  0  0  0  0  0  0  0  0  0
  148.8559  140.3266  154.8891 H   0  0  0  0  0  0  0  0  0  0  0  0
  149.9867  141.3283  153.9733 H   0  0  0  0  0  0  0  0  0  0  0  0
  151.2258  139.3330  153.7988 H   0  0  0  0  0  0  0  0  0  0  0  0
  152.7851  138.8349  154.4229 H   0  0  0  0  0  0  0  0  0  0  0  0
  149.3775  138.3543  155.4800 H   0  0  0  0  0  0  0  0  0  0  0  0
  149.8582  135.4378  155.6150 H   0  0  0  0  0  0  0  0  0  0  0  0
  149.0834  136.2699  156.9430 H   0  0  0  0  0  0  0  0  0  0  0  0
  147.0878  135.9311  155.9133 H   0  0  0  0  0  0  0  0  0  0  0  0
  147.5532  137.0847  154.6880 H   0  0  0  0  0  0  0  0  0  0  0  0
  149.5565  134.1148  154.9424 H   0  0  0  0  0  0  0  0  0  0  0  0
  148.0394  133.4311  155.4935 H   0  0  0  0  0  0  0  0  0  0  0  0
  149.2616  133.1633  152.6949 H   0  0  0  0  0  0  0  0  0  0  0  0
  149.1499  131.8937  153.8903 H   0  0  0  0  0  0  0  0  0  0  0  0
  147.3482  131.7064  152.1590 H   0  0  0  0  0  0  0  0  0  0  0  0
  146.6881  131.9086  153.7665 H   0  0  0  0  0  0  0  0  0  0  0  0
  147.0623  134.1133  151.6912 H   0  0  0  0  0  0  0  0  0  0  0  0
  144.4866  132.8974  152.7977 H   0  0  0  0  0  0  0  0  0  0  0  0
  145.1427  132.6301  151.1850 H   0  0  0  0  0  0  0  0  0  0  0  0
  144.5876  134.2323  151.6520 H   0  0  0  0  0  0  0  0  0  0  0  0
  145.8637  134.3395  154.4938 H   0  0  0  0  0  0  0  0  0  0  0  0
  145.9623  135.6126  153.2975 H   0  0  0  0  0  0  0  0  0  0  0  0
  148.3481  135.3937  153.3519 H   0  0  0  0  0  0  0  0  0  0  0  0
  1  2  1  0  0  0  0
  1 21  1  0  0  0  0
  1 22  1  0  0  0  0
  1 23  1  0  0  0  0
  2 20  2  0  0  0  0
  2  3  1  0  0  0  0
  3  4  2  0  0  0  0
  3 24  1  0  0  0  0
  4  5  1  0  0  0  0
  4  6  1  0  0  0  0
  5 25  1  0  0  0  0
  5 26  1  0  0  0  0
  5 27  1  0  0  0  0
  6  7  1  0  0  0  0
  6 20  1  0  0  0  0
  7  8  1  0  0  0  0
  7 28  1  0  0  0  0
  7 29  1  0  0  0  0
  8  9  2  0  0  0  0
  8 10  1  0  0  0  0
 10 11  1  0  0  0  0
 10 30  1  0  0  0  0
 11 12  1  0  0  0  0
 11 31  1  0  0  0  0
 11 32  1  0  0  0  0
 12 13  1  0  0  0  0
 12 33  1  0  0  0  0
 12 34  1  0  0  0  0
 13 19  1  0  0  0  0
 13 14  1  0  0  0  0
 13 47  1  0  0  0  0
 14 15  1  0  0  0  0
 14 35  1  0  0  0  0
 14 36  1  0  0  0  0
 15 16  1  0  0  0  0
 15 37  1  0  0  0  0
 15 38  1  0  0  0  0
 16 17  1  0  0  0  0
 16 39  1  0  0  0  0
 16 40  1  0  0  0  0
 17 18  1  0  0  0  0
 17 19  1  0  0  0  0
 17 41  1  0  0  0  0
 18 42  1  0  0  0  0
 18 43  1  0  0  0  0
 18 44  1  0  0  0  0
 19 45  1  0  0  0  0
 19 46  1  0  0  0  0
M  CHG  1  13   1
M  END
> <s_m_source_file>
AV-unprocessed.smi

> <i_m_source_file_index>
1191

> <i_lp_mmshare_version>
43012

> <i_f3d_flags>
0

> <s_epik_input>
W0NIM11jMVtjSF1jKFtDSDNdKW4objEpW0NIMl1DKD1PKVtOSF1bQ0gyXVtDSDJdTjJbQ0gyXVtDSDJdW0NIMl1bQ0BASF0oW0NIM10pW0NIMl0y

> <s_epik_cmdline>
J2VwaWtfcHl0aG9uJywgJy1waCcsICc3LjAnLCAnLXRuJywgJzgnLCAnLW1hJywgJzIwMCcsICctbWV0YWxfYmluZGluZycsICctaW1hZScsICc8aW5maWxlLm1hZT4nLCAnLW9tYWUnLCAnPG91dGZpbGUubWFlPic=

> <r_lp_tautomer_probability>
1

> <r_epik_Ionization_Penalty>
0.00249932

> <r_epik_Ionization_Penalty_Charging>
0.00230623

> <r_epik_Ionization_Penalty_Neutral>
0.000193092

> <r_epik_State_Penalty>
-0

> <r_epik_Charging_Adjusted_Penalty>
0.00230623

> <i_epik_Tot_Q>
1

> <i_epik_Tot_abs_Q>
1

> <r_epik_Metal_State_Penalty>
-0

> <b_epik_Metal_Only>
0

> <s_lp_Force_Field>
OPLS_2005

> <r_lp_Energy>
14.3844

> <b_lp_Chiralities_Consistent>
1

> <s_lp_Variant>
AV-unprocessed.smi:1191-1

> <Gold.Version>
5.8.1

> <Gold.Id.Protein>
6NUR|6NUR_protein|mol2

> <Gold.PLP.Fitness>
45.9971

> <Gold.PLP.PLP>
-35.5365

> <Gold.PLP.part.hbond>
-2.7604

> <Gold.PLP.part.metal>
0.0000

> <Gold.PLP.part.buried>
-3.3501

> <Gold.PLP.part.nonpolar>
-30.0445

> <Gold.PLP.part.repulsive>
0.1292

> <Gold.PLP.ligand.clash>
0.0000

> <Gold.PLP.ligand.torsion>
0.7856

> <Gold.PLP.Chemscore.Hbond>
4.0000

> <Gold.PLP.Chemscore.CHOScore>
0.0000

> <Gold.PLP.Chemscore.Metal>
0.0000

> <Gold.Chemscore.Hbonds>
donor molecule, donor type, donor heavy atom, donor atom, acceptor molecule, acceptor atom, score
      L1  H    13    47       P1  7948  2.00
      P1  H  7997  8009       L1    20  1.00
      P1  H 10752 10765       L1     9  0.93

> <Gold.PLP.Chemscore.Internal.Correction>
0.0318

> <Gold.Rescore>
     Score         DG    S(hbond)    S(metal)    S(lipo)     H(rot)  DE(clash)    DE(int)     intcor
     18.27     -19.15       2.86        0.00      71.60       1.67       0.01       0.87       ----

> <Gold.Chemscore.Fitness>
18.2685

> <Gold.Chemscore.DG>
-19.1528

> <Gold.Chemscore.ZeroCoef>
-5.4800

> <Gold.Chemscore.Hbond>
2.8622

> <Gold.Chemscore.Metal>
0.0000

> <Gold.Chemscore.Lipo>
71.5991

> <Gold.Chemscore.Internal_Hbond>
0.0000

> <Gold.Chemscore.DEClash>
0.0102

> <Gold.Chemscore.DEInternal>
0.8741

> <Gold.Chemscore.Rot>
1.6657

> <Gold.Chemscore.Internal.Correction>
   9.000000E+99

> <Gold.Chemscore.Hbonds>
donor molecule, donor type, donor heavy atom, donor atom, acceptor molecule, acceptor atom, score
      L1  H    13    47       P1  7948  0.99
      P1  H  7997  8009       L1    20  0.38
      P1  H 10752 10765       L1     9  0.84

> <Gold.Chemscore.Hbond.Weighted>
-9.5598

> <Gold.Chemscore.Metal.Weighted>
-0.0000

> <Gold.Chemscore.Lipo.Weighted>
-8.3771

> <Gold.Chemscore.Internal_Hbond.Weighted>
0.0000

> <Gold.Chemscore.DEClash.Weighted>
0.0102

> <Gold.Chemscore.DEInternal.Weighted>
0.8741

> <Gold.Chemscore.Rot.Weighted>
4.2641

> <Gold.Chemscore.Internal.Correction.Weighted>
   9.000000E+99

> <Gold.Protein.RotatedTorsions>
[ 6907 6896 6895 6894 ] final   -0.59 input  -60.11 | X-H torsion
[ 7974 7965 7964 7962 ] final   68.35 input  175.53 | X-H torsion
[ 8008 7997 7996 7995 ] final  173.61 input   59.86 | X-H torsion
[ 10167 10162 10161 10158 ] final  123.20 input  -65.29 | X-H torsion
[ 10718 10713 10712 10709 ] final   23.17 input   66.30 | X-H torsion
[ 10763 10752 10751 10750 ] final  162.84 input  -60.55 | X-H torsion
[ 11005 11000 10999 10996 ] final  -23.20 input  -57.11 | X-H torsion

> <Gold.Protein.ActiveResidues>
 VAL166  LYS551  ARG553  GLY616  TRP617  ASP618  TYR619  PRO620  LYS621  CYS622 
 ASP623  PHE694  ASN695  SER759  ASP760  ASP761  ALA762  ILE779  LEU786  VAL792 
 PHE793  MET794  SER795  GLU796  ALA797  LYS798  CYS799  TRP800  GLU811  SER814 

> <Gold.Protein.RotatedAtoms>
  151.5599  135.1065  159.9969 H   0  0  0  0  0  0  0  0  0  0  0  0  # atno 6907 bound_to 6896
  152.4452  133.7518  159.6709 H   0  0  0  0  0  0  0  0  0  0  0  0  # atno 6908 bound_to 6896
  150.8365  133.7936  159.3101 H   0  0  0  0  0  0  0  0  0  0  0  0  # atno 6909 bound_to 6896
  145.8036  139.2995  143.1140 H   0  0  0  0  0  0  0  0  0  0  0  0  # atno 7974 bound_to 7965
  156.1058  140.1456  156.9405 H   0  0  0  0  0  0  0  0  0  0  0  0  # atno 8008 bound_to 7997
  154.4733  140.0902  156.7244 H   0  0  0  0  0  0  0  0  0  0  0  0  # atno 8009 bound_to 7997
  155.4681  140.3441  155.4324 H   0  0  0  0  0  0  0  0  0  0  0  0  # atno 8010 bound_to 7997
  139.5813  144.6987  151.3521 H   0  0  0  0  0  0  0  0  0  0  0  0  # atno 10167 bound_to 10162
  157.1624  130.6723  149.6049 H   0  0  0  0  0  0  0  0  0  0  0  0  # atno 10718 bound_to 10713
  154.2846  135.2762  155.2682 H   0  0  0  0  0  0  0  0  0  0  0  0  # atno 10763 bound_to 10752
  154.5188  135.5762  153.6667 H   0  0  0  0  0  0  0  0  0  0  0  0  # atno 10764 bound_to 10752
  152.9923  135.6199  154.3007 H   0  0  0  0  0  0  0  0  0  0  0  0  # atno 10765 bound_to 10752
  140.8729  133.7708  156.0208 H   0  0  0  0  0  0  0  0  0  0  0  0  # atno 11005 bound_to 11000
  145.9851  140.8650  143.0094 LP  0  0  0  0  0  0  0  0  0  0  0  0  # atno 17320 bound_to 7965
  144.6765  140.2136  143.7374 LP  0  0  0  0  0  0  0  0  0  0  0  0  # atno 17321 bound_to 7965
  140.7091  143.7437  150.7534 LP  0  0  0  0  0  0  0  0  0  0  0  0  # atno 17342 bound_to 10162
  140.0971  143.4823  152.2446 LP  0  0  0  0  0  0  0  0  0  0  0  0  # atno 17343 bound_to 10162
  155.9751  130.4707  150.6439 LP  0  0  0  0  0  0  0  0  0  0  0  0  # atno 17370 bound_to 10713
  157.4120  131.0825  151.1212 LP  0  0  0  0  0  0  0  0  0  0  0  0  # atno 17371 bound_to 10713
  140.8552  134.2906  157.5258 LP  0  0  0  0  0  0  0  0  0  0  0  0  # atno 17394 bound_to 11000
  139.8713  134.9489  156.4010 LP  0  0  0  0  0  0  0  0  0  0  0  0  # atno 17395 bound_to 11000

$$$$
