AV-unprocessed.smi:193|AV-procd|sdf|1510|dock6
  -GOLD-   2262019343D 1   1.00000     0.00000
 Structure written by MMmdl.
 62 66  0  0  0  0  0  0  0  0  2 V2000
  154.2312  140.9622  160.6106 C   0  0  0  0  0  0  0  0  0  0  0  0
  153.0247  141.2578  159.7057 C   0  0  2  0  0  0  0  0  0  0  0  0
  153.0420  140.2869  158.5064 C   0  0  0  0  0  0  0  0  0  0  0  0
  151.8178  140.3016  157.7106 N   0  0  0  0  0  0  0  0  0  0  0  0
  151.7967  139.3066  156.7990 C   0  0  0  0  0  0  0  0  0  0  0  0
  152.7107  139.3532  155.7997 N   0  0  0  0  0  0  0  0  0  0  0  0
  152.7298  138.3918  154.8707 C   0  0  0  0  0  0  0  0  0  0  0  0
  151.9404  137.3204  154.7604 N   0  0  0  0  0  0  0  0  0  0  0  0
  151.0195  137.2751  155.7660 C   0  0  0  0  0  0  0  0  0  0  0  0
  150.8784  138.2206  156.8194 C   0  0  0  0  0  0  0  0  0  0  0  0
  149.8327  137.8506  157.6564 N   0  0  0  0  0  0  0  0  0  0  0  0
  149.3809  136.7461  157.1269 C   0  0  0  0  0  0  0  0  0  0  0  0
  150.0405  136.3240  155.9943 N   0  0  0  0  0  0  0  0  0  0  0  0
  149.7513  135.1319  155.2121 C   0  0  0  0  0  0  0  0  0  0  0  0
  150.0565  133.8078  155.9548 C   0  0  0  0  0  0  0  0  0  0  0  0
  149.5739  132.7442  155.1513 O   0  0  0  0  0  0  0  0  0  0  0  0
  151.5770  133.6292  156.1358 C   0  0  0  0  0  0  0  0  0  0  0  0
  151.9170  132.4102  157.0118 C   0  0  0  0  0  0  0  0  0  0  0  0
  151.2557  132.5123  158.2670 O   0  0  0  0  0  0  0  0  0  0  0  0
  149.8385  132.5060  158.1454 C   0  0  0  0  0  0  0  0  0  0  0  0
  149.3701  133.7283  157.3361 C   0  0  0  0  0  0  0  0  0  0  0  0
  151.3414  141.5738  157.1764 C   0  0  0  0  0  0  0  0  0  0  0  0
  150.7413  142.4531  158.2839 C   0  0  0  0  0  0  0  0  0  0  0  0
  151.7278  143.3342  158.9602 N   0  3  1  0  0  0  0  0  0  0  0  0
  151.1457  143.9792  160.1592 C   0  0  1  0  0  0  0  0  0  0  0  0
  151.2519  145.4866  160.1452 C   0  0  0  0  0  0  0  0  0  0  0  0
  149.9201  144.8201  159.8751 C   0  0  2  0  0  0  0  0  0  0  0  0
  148.8016  144.9168  160.8891 C   0  0  0  0  0  0  0  0  0  0  0  0
  153.0605  142.7327  159.2404 C   0  0  0  0  0  0  0  0  0  0  0  0
  155.1723  141.1248  160.0837 H   0  0  0  0  0  0  0  0  0  0  0  0
  154.2194  139.9291  160.9591 H   0  0  0  0  0  0  0  0  0  0  0  0
  154.2287  141.6018  161.4939 H   0  0  0  0  0  0  0  0  0  0  0  0
  152.1330  141.0788  160.3080 H   0  0  0  0  0  0  0  0  0  0  0  0
  153.8991  140.5023  157.8667 H   0  0  0  0  0  0  0  0  0  0  0  0
  153.1866  139.2711  158.8785 H   0  0  0  0  0  0  0  0  0  0  0  0
  153.4854  138.4954  154.1056 H   0  0  0  0  0  0  0  0  0  0  0  0
  148.5520  136.1999  157.5538 H   0  0  0  0  0  0  0  0  0  0  0  0
  148.7028  135.1667  154.9125 H   0  0  0  0  0  0  0  0  0  0  0  0
  150.3306  135.1840  154.2895 H   0  0  0  0  0  0  0  0  0  0  0  0
  150.2977  132.1733  154.9433 H   0  0  0  0  0  0  0  0  0  0  0  0
  152.0715  133.5444  155.1672 H   0  0  0  0  0  0  0  0  0  0  0  0
  151.9903  134.5196  156.6116 H   0  0  0  0  0  0  0  0  0  0  0  0
  151.6402  131.4786  156.5160 H   0  0  0  0  0  0  0  0  0  0  0  0
  152.9922  132.3657  157.1857 H   0  0  0  0  0  0  0  0  0  0  0  0
  149.5065  131.5766  157.6803 H   0  0  0  0  0  0  0  0  0  0  0  0
  149.4013  132.5317  159.1437 H   0  0  0  0  0  0  0  0  0  0  0  0
  149.6035  134.6297  157.9044 H   0  0  0  0  0  0  0  0  0  0  0  0
  148.2847  133.7043  157.2328 H   0  0  0  0  0  0  0  0  0  0  0  0
  152.1346  142.0957  156.6397 H   0  0  0  0  0  0  0  0  0  0  0  0
  150.5583  141.3702  156.4434 H   0  0  0  0  0  0  0  0  0  0  0  0
  149.9845  143.1018  157.8417 H   0  0  0  0  0  0  0  0  0  0  0  0
  150.2136  141.8338  159.0117 H   0  0  0  0  0  0  0  0  0  0  0  0
  151.2407  143.4309  161.0952 H   0  0  0  0  0  0  0  0  0  0  0  0
  151.3798  145.9878  161.1026 H   0  0  0  0  0  0  0  0  0  0  0  0
  151.7541  145.9607  159.3037 H   0  0  0  0  0  0  0  0  0  0  0  0
  149.5745  144.8557  158.8431 H   0  0  0  0  0  0  0  0  0  0  0  0
  149.1956  144.8743  161.9051 H   0  0  0  0  0  0  0  0  0  0  0  0
  148.1018  144.0919  160.7528 H   0  0  0  0  0  0  0  0  0  0  0  0
  148.2624  145.8560  160.7646 H   0  0  0  0  0  0  0  0  0  0  0  0
  153.5660  143.3511  159.9836 H   0  0  0  0  0  0  0  0  0  0  0  0
  153.6752  142.8202  158.3436 H   0  0  0  0  0  0  0  0  0  0  0  0
  151.9137  144.0868  158.3129 H   0  0  0  0  0  0  0  0  0  0  0  0
  1  2  1  0  0  0  0
  1 30  1  0  0  0  0
  1 31  1  0  0  0  0
  1 32  1  0  0  0  0
  2 29  1  0  0  0  0
  2  3  1  0  0  0  0
  2 33  1  0  0  0  0
  3  4  1  0  0  0  0
  3 34  1  0  0  0  0
  3 35  1  0  0  0  0
  4  5  1  0  0  0  0
  4 22  1  0  0  0  0
  5 10  1  0  0  0  0
  5  6  2  0  0  0  0
  6  7  1  0  0  0  0
  7  8  2  0  0  0  0
  7 36  1  0  0  0  0
  8  9  1  0  0  0  0
  9 13  1  0  0  0  0
  9 10  2  0  0  0  0
 10 11  1  0  0  0  0
 11 12  2  0  0  0  0
 12 13  1  0  0  0  0
 12 37  1  0  0  0  0
 13 14  1  0  0  0  0
 14 15  1  0  0  0  0
 14 38  1  0  0  0  0
 14 39  1  0  0  0  0
 15 21  1  0  0  0  0
 15 16  1  0  0  0  0
 15 17  1  0  0  0  0
 16 40  1  0  0  0  0
 17 18  1  0  0  0  0
 17 41  1  0  0  0  0
 17 42  1  0  0  0  0
 18 19  1  0  0  0  0
 18 43  1  0  0  0  0
 18 44  1  0  0  0  0
 19 20  1  0  0  0  0
 20 21  1  0  0  0  0
 20 45  1  0  0  0  0
 20 46  1  0  0  0  0
 21 47  1  0  0  0  0
 21 48  1  0  0  0  0
 22 23  1  0  0  0  0
 22 49  1  0  0  0  0
 22 50  1  0  0  0  0
 23 24  1  0  0  0  0
 23 51  1  0  0  0  0
 23 52  1  0  0  0  0
 24 25  1  0  0  0  0
 24 29  1  0  0  0  0
 24 62  1  0  0  0  0
 25 27  1  0  0  0  0
 25 26  1  0  0  0  0
 25 53  1  0  0  0  0
 26 27  1  0  0  0  0
 26 54  1  0  0  0  0
 26 55  1  0  0  0  0
 27 28  1  0  0  0  0
 27 56  1  0  0  0  0
 28 57  1  0  0  0  0
 28 58  1  0  0  0  0
 28 59  1  0  0  0  0
 29 60  1  0  0  0  0
 29 61  1  0  0  0  0
M  CHG  1  24   1
M  END
> <s_m_source_file>
AV-unprocessed.smi

> <i_m_source_file_index>
193

> <i_lp_mmshare_version>
43012

> <i_f3d_flags>
0

> <s_epik_input>
W0NIM11bQ0BASF0xW0NIMl1bQ0BIXTFOKFtDSDJdMilbQ0gyXVtDSDJdTihbQ0gyXVtDQEhdMltDSDNdKWMobltjSF1uMyljKGMzNCluW2NIXW40W0NIMl1DNShbT0hdKVtDSDJdW0NIMl1PW0NIMl1bQ0gyXTU=

> <s_epik_cmdline>
J2VwaWtfcHl0aG9uJywgJy1waCcsICc3LjAnLCAnLXRuJywgJzgnLCAnLW1hJywgJzIwMCcsICctbWV0YWxfYmluZGluZycsICctaW1hZScsICc8aW5maWxlLm1hZT4nLCAnLW9tYWUnLCAnPG91dGZpbGUubWFlPic=

> <r_lp_tautomer_probability>
1

> <r_epik_Ionization_Penalty>
0.0540825

> <r_epik_Ionization_Penalty_Charging>
0.0538476

> <r_epik_Ionization_Penalty_Neutral>
0.000234891

> <r_epik_State_Penalty>
0.0200719

> <r_epik_Charging_Adjusted_Penalty>
0.0739194

> <i_epik_Tot_Q>
1

> <i_epik_Tot_abs_Q>
1

> <r_epik_Metal_State_Penalty>
0.0199414

> <b_epik_Metal_Only>
0

> <s_lp_Force_Field>
OPLS_2005

> <r_lp_Energy>
55.8923

> <b_lp_Chiralities_Consistent>
1

> <s_lp_Variant>
AV-unprocessed.smi:193-15

> <Gold.Version>
5.8.1

> <Gold.Id.Protein>
6NUR|6NUR_protein|mol2

> <Gold.PLP.Fitness>
53.8287

> <Gold.PLP.PLP>
-45.3188

> <Gold.PLP.part.hbond>
-3.0000

> <Gold.PLP.part.metal>
0.0000

> <Gold.PLP.part.buried>
-8.1647

> <Gold.PLP.part.nonpolar>
-33.9193

> <Gold.PLP.part.repulsive>
0.1582

> <Gold.PLP.ligand.clash>
0.0000

> <Gold.PLP.ligand.torsion>
0.9594

> <Gold.PLP.Chemscore.Hbond>
2.9516

> <Gold.PLP.Chemscore.CHOScore>
0.0000

> <Gold.PLP.Chemscore.Metal>
0.0000

> <Gold.Chemscore.Hbonds>
donor molecule, donor type, donor heavy atom, donor atom, acceptor molecule, acceptor atom, score
      P1  H  6896  6909       L1    19  0.11
      P1  H  7997  8009       L1     6  1.00
      P1  H 10752 10765       L1     8  0.93

> <Gold.PLP.Chemscore.Internal.Correction>
1.5738

> <Gold.Rescore>
     Score         DG    S(hbond)    S(metal)    S(lipo)     H(rot)  DE(clash)    DE(int)     intcor
     20.09     -21.11       2.44        0.00     111.94       2.20       0.08       0.94       ----

> <Gold.Chemscore.Fitness>
20.0888

> <Gold.Chemscore.DG>
-21.1064

> <Gold.Chemscore.ZeroCoef>
-5.4800

> <Gold.Chemscore.Hbond>
2.4448

> <Gold.Chemscore.Metal>
0.0000

> <Gold.Chemscore.Lipo>
111.9436

> <Gold.Chemscore.Internal_Hbond>
0.0000

> <Gold.Chemscore.DEClash>
0.0765

> <Gold.Chemscore.DEInternal>
0.9411

> <Gold.Chemscore.Rot>
2.2018

> <Gold.Chemscore.Internal.Correction>
   9.000000E+99

> <Gold.Chemscore.Hbonds>
donor molecule, donor type, donor heavy atom, donor atom, acceptor molecule, acceptor atom, score
      P1  H  7997  8009       L1     6  0.85
      P1  H 10752 10765       L1     8  0.71

> <Gold.Chemscore.Hbond.Weighted>
-8.1656

> <Gold.Chemscore.Metal.Weighted>
-0.0000

> <Gold.Chemscore.Lipo.Weighted>
-13.0974

> <Gold.Chemscore.Internal_Hbond.Weighted>
0.0000

> <Gold.Chemscore.DEClash.Weighted>
0.0765

> <Gold.Chemscore.DEInternal.Weighted>
0.9411

> <Gold.Chemscore.Rot.Weighted>
5.6366

> <Gold.Chemscore.Internal.Correction.Weighted>
   9.000000E+99

> <Gold.Protein.RotatedTorsions>
[ 6907 6896 6895 6894 ] final  -15.85 input  -60.11 | X-H torsion
[ 7974 7965 7964 7962 ] final   42.60 input  175.53 | X-H torsion
[ 8008 7997 7996 7995 ] final -158.97 input   59.86 | X-H torsion
[ 10167 10162 10161 10158 ] final -104.56 input  -65.29 | X-H torsion
[ 10718 10713 10712 10709 ] final  147.60 input   66.30 | X-H torsion
[ 10763 10752 10751 10750 ] final  168.41 input  -60.55 | X-H torsion
[ 11005 11000 10999 10996 ] final  179.79 input  -57.11 | X-H torsion

> <Gold.Protein.ActiveResidues>
 VAL166  LYS551  ARG553  GLY616  TRP617  ASP618  TYR619  PRO620  LYS621  CYS622 
 ASP623  PHE694  ASN695  SER759  ASP760  ASP761  ALA762  ILE779  LEU786  VAL792 
 PHE793  MET794  SER795  GLU796  ALA797  LYS798  CYS799  TRP800  GLU811  SER814 

> <Gold.Protein.RotatedAtoms>
  151.3176  135.0810  159.9294 H   0  0  0  0  0  0  0  0  0  0  0  0  # atno 6907 bound_to 6896
  152.5264  133.9672  159.7755 H   0  0  0  0  0  0  0  0  0  0  0  0  # atno 6908 bound_to 6896
  150.9987  133.6025  159.2728 H   0  0  0  0  0  0  0  0  0  0  0  0  # atno 6909 bound_to 6896
  146.0727  139.5282  142.9588 H   0  0  0  0  0  0  0  0  0  0  0  0  # atno 7974 bound_to 7965
  155.7556  140.0832  157.2180 H   0  0  0  0  0  0  0  0  0  0  0  0  # atno 8008 bound_to 7997
  154.4008  140.1552  156.2829 H   0  0  0  0  0  0  0  0  0  0  0  0  # atno 8009 bound_to 7997
  155.8889  140.3416  155.5944 H   0  0  0  0  0  0  0  0  0  0  0  0  # atno 8010 bound_to 7997
  140.2080  143.3768  152.1074 H   0  0  0  0  0  0  0  0  0  0  0  0  # atno 10167 bound_to 10162
  157.3189  131.0901  151.1256 H   0  0  0  0  0  0  0  0  0  0  0  0  # atno 10718 bound_to 10713
  154.3682  135.2753  155.2281 H   0  0  0  0  0  0  0  0  0  0  0  0  # atno 10763 bound_to 10752
  154.4440  135.5947  153.6151 H   0  0  0  0  0  0  0  0  0  0  0  0  # atno 10764 bound_to 10752
  152.9839  135.6025  154.3910 H   0  0  0  0  0  0  0  0  0  0  0  0  # atno 10765 bound_to 10752
  140.4101  134.6699  157.4609 H   0  0  0  0  0  0  0  0  0  0  0  0  # atno 11005 bound_to 11000
  145.6363  141.0294  143.1836 LP  0  0  0  0  0  0  0  0  0  0  0  0  # atno 17320 bound_to 7965
  144.7241  139.7931  143.7371 LP  0  0  0  0  0  0  0  0  0  0  0  0  # atno 17321 bound_to 7965
  139.5191  144.7015  151.5480 LP  0  0  0  0  0  0  0  0  0  0  0  0  # atno 17342 bound_to 10162
  140.6344  143.9013  150.6634 LP  0  0  0  0  0  0  0  0  0  0  0  0  # atno 17343 bound_to 10162
  157.2549  130.6631  149.5948 LP  0  0  0  0  0  0  0  0  0  0  0  0  # atno 17370 bound_to 10713
  155.9684  130.4527  150.5783 LP  0  0  0  0  0  0  0  0  0  0  0  0  # atno 17371 bound_to 10713
  140.0274  134.6457  155.9154 LP  0  0  0  0  0  0  0  0  0  0  0  0  # atno 17394 bound_to 11000
  141.1824  133.6549  156.5076 LP  0  0  0  0  0  0  0  0  0  0  0  0  # atno 17395 bound_to 11000

$$$$
