AV-unprocessed.smi:1240|AV-procd|sdf|5209|dock10
  -GOLD-   22720 4303D 1   1.00000     0.00000
 Structure written by MMmdl.
 49 51  0  0  0  0  0  0  0  0  3 V2000
  148.5868  133.0457  155.0541 O   0  0  0  0  0  0  0  0  0  0  0  0
  148.5255  133.8959  154.1668 C   0  0  0  0  0  0  0  0  0  0  0  0
  149.1675  135.0700  154.2293 N   0  0  0  0  0  0  0  0  0  0  0  0
  149.9802  135.4990  155.3639 C   0  0  0  0  0  0  0  0  0  0  0  0
  149.6766  136.9630  155.7737 C   0  0  2  0  0  0  0  0  0  0  0  0
  150.9824  137.8236  155.8297 C   0  0  1  0  0  0  0  0  0  0  0  0
  151.8851  137.6745  154.6095 C   0  0  0  0  0  0  0  0  0  0  0  0
  152.7096  138.9502  154.6456 C   0  0  0  0  0  0  0  0  0  0  0  0
  151.7511  139.9340  154.9876 O   0  0  0  0  0  0  0  0  0  0  0  0
  150.7702  139.3532  155.8405 C   0  0  0  0  0  0  0  0  0  0  0  0
  148.8571  136.9342  157.0332 N   0  3  0  0  0  0  0  0  0  0  0  0
  149.5469  136.6191  158.3118 C   0  0  0  0  0  0  0  0  0  0  0  0
  148.5311  136.5170  159.4630 C   0  0  0  0  0  0  0  0  0  0  0  0
  147.7982  137.7295  159.5676 O   0  0  0  0  0  0  0  0  0  0  0  0
  147.0622  138.0048  158.3839 C   0  0  0  0  0  0  0  0  0  0  0  0
  148.0325  138.1595  157.2015 C   0  0  0  0  0  0  0  0  0  0  0  0
  147.8377  133.7714  153.0185 N   0  0  0  0  0  0  0  0  0  0  0  0
  147.0155  132.6900  152.5993 C   0  0  0  0  0  0  0  0  0  0  0  0
  147.1350  131.4661  153.2943 C   0  0  0  0  0  0  0  0  0  0  0  0
  146.3496  130.3633  152.9007 C   0  0  0  0  0  0  0  0  0  0  0  0
  145.4996  130.4811  151.8581 N   0  3  0  0  0  0  0  0  0  0  0  0
  145.3627  131.6247  151.1534 C   0  0  0  0  0  0  0  0  0  0  0  0
  146.1214  132.7612  151.5007 C   0  0  0  0  0  0  0  0  0  0  0  0
  149.0632  135.7183  153.4625 H   0  0  0  0  0  0  0  0  0  0  0  0
  149.8190  134.8179  156.2002 H   0  0  0  0  0  0  0  0  0  0  0  0
  151.0324  135.3836  155.1034 H   0  0  0  0  0  0  0  0  0  0  0  0
  149.0582  137.3950  154.9849 H   0  0  0  0  0  0  0  0  0  0  0  0
  151.5813  137.5405  156.6966 H   0  0  0  0  0  0  0  0  0  0  0  0
  152.5072  136.7794  154.6410 H   0  0  0  0  0  0  0  0  0  0  0  0
  151.2941  137.6493  153.6927 H   0  0  0  0  0  0  0  0  0  0  0  0
  153.4748  138.8987  155.4216 H   0  0  0  0  0  0  0  0  0  0  0  0
  153.1933  139.1715  153.6939 H   0  0  0  0  0  0  0  0  0  0  0  0
  149.7833  139.6324  155.4704 H   0  0  0  0  0  0  0  0  0  0  0  0
  150.8813  139.7650  156.8434 H   0  0  0  0  0  0  0  0  0  0  0  0
  150.0743  135.6686  158.2466 H   0  0  0  0  0  0  0  0  0  0  0  0
  150.2757  137.3966  158.5426 H   0  0  0  0  0  0  0  0  0  0  0  0
  147.8502  135.6781  159.3095 H   0  0  0  0  0  0  0  0  0  0  0  0
  149.0491  136.3373  160.4051 H   0  0  0  0  0  0  0  0  0  0  0  0
  146.3382  137.2102  158.1949 H   0  0  0  0  0  0  0  0  0  0  0  0
  146.4957  138.9250  158.5275 H   0  0  0  0  0  0  0  0  0  0  0  0
  148.6858  139.0176  157.3686 H   0  0  0  0  0  0  0  0  0  0  0  0
  147.4620  138.3701  156.2977 H   0  0  0  0  0  0  0  0  0  0  0  0
  147.9572  134.5124  152.3436 H   0  0  0  0  0  0  0  0  0  0  0  0
  147.8164  131.3701  154.1274 H   0  0  0  0  0  0  0  0  0  0  0  0
  146.3768  129.3976  153.3841 H   0  0  0  0  0  0  0  0  0  0  0  0
  144.6594  131.5955  150.3340 H   0  0  0  0  0  0  0  0  0  0  0  0
  146.0118  133.6588  150.9113 H   0  0  0  0  0  0  0  0  0  0  0  0
  148.2049  136.1747  156.9002 H   0  0  0  0  0  0  0  0  0  0  0  0
  144.9410  129.6708  151.5884 H   0  0  0  0  0  0  0  0  0  0  0  0
  1  2  2  0  0  0  0
  2  3  1  0  0  0  0
  2 17  1  0  0  0  0
  3  4  1  0  0  0  0
  3 24  1  0  0  0  0
  4  5  1  0  0  0  0
  4 25  1  0  0  0  0
  4 26  1  0  0  0  0
  5  6  1  0  0  0  0
  5 11  1  0  0  0  0
  5 27  1  0  0  0  0
  6 10  1  0  0  0  0
  6  7  1  0  0  0  0
  6 28  1  0  0  0  0
  7  8  1  0  0  0  0
  7 29  1  0  0  0  0
  7 30  1  0  0  0  0
  8  9  1  0  0  0  0
  8 31  1  0  0  0  0
  8 32  1  0  0  0  0
  9 10  1  0  0  0  0
 10 33  1  0  0  0  0
 10 34  1  0  0  0  0
 11 16  1  0  0  0  0
 11 12  1  0  0  0  0
 11 48  1  0  0  0  0
 12 13  1  0  0  0  0
 12 35  1  0  0  0  0
 12 36  1  0  0  0  0
 13 14  1  0  0  0  0
 13 37  1  0  0  0  0
 13 38  1  0  0  0  0
 14 15  1  0  0  0  0
 15 16  1  0  0  0  0
 15 39  1  0  0  0  0
 15 40  1  0  0  0  0
 16 41  1  0  0  0  0
 16 42  1  0  0  0  0
 17 18  1  0  0  0  0
 17 43  1  0  0  0  0
 18 23  1  0  0  0  0
 18 19  2  0  0  0  0
 19 20  1  0  0  0  0
 19 44  1  0  0  0  0
 20 21  2  0  0  0  0
 20 45  1  0  0  0  0
 21 22  1  0  0  0  0
 21 49  1  0  0  0  0
 22 23  2  0  0  0  0
 22 46  1  0  0  0  0
 23 47  1  0  0  0  0
M  CHG  1  11   1
M  CHG  1  21   1
M  END
> <s_m_source_file>
AV-unprocessed.smi

> <i_m_source_file_index>
1240

> <i_lp_mmshare_version>
43012

> <i_f3d_flags>
0

> <s_epik_input>
W2NIXTFbY0hdbltjSF1bY0hdYzFbTkhdQyg9TylbTkhdW0NIMl1bQ0BIXShbQ0BASF0yW0NIMl1bQ0gyXU9bQ0gyXTIpTjNbQ0gyXVtDSDJdT1tDSDJdW0NIMl0z

> <s_epik_cmdline>
J2VwaWtfcHl0aG9uJywgJy1waCcsICc3LjAnLCAnLXRuJywgJzgnLCAnLW1hJywgJzIwMCcsICctbWV0YWxfYmluZGluZycsICctaW1hZScsICc8aW5maWxlLm1hZT4nLCAnLW9tYWUnLCAnPG91dGZpbGUubWFlPic=

> <r_epik_Ionization_Penalty>
2.08105

> <r_epik_Ionization_Penalty_Charging>
2.08103

> <r_epik_Ionization_Penalty_Neutral>
2.04144e-05

> <r_epik_State_Penalty>
2.15598

> <r_epik_Charging_Adjusted_Penalty>
4.23701

> <i_epik_Tot_Q>
2

> <i_epik_Tot_abs_Q>
2

> <r_epik_Metal_State_Penalty>
2.25158

> <b_epik_Metal_Only>
0

> <s_lp_Force_Field>
OPLS_2005

> <r_lp_Energy>
62.0114

> <b_lp_Chiralities_Consistent>
1

> <s_lp_Variant>
AV-unprocessed.smi:1240-15

> <Gold.Version>
5.8.1

> <Gold.Id.Protein>
6NUR|6NUR_protein|mol2

> <Gold.PLP.Fitness>
40.8954

> <Gold.PLP.PLP>
-32.6433

> <Gold.PLP.part.hbond>
-4.0000

> <Gold.PLP.part.metal>
0.0000

> <Gold.PLP.part.buried>
-3.4242

> <Gold.PLP.part.nonpolar>
-24.2477

> <Gold.PLP.part.repulsive>
0.1345

> <Gold.PLP.ligand.clash>
0.0000

> <Gold.PLP.ligand.torsion>
1.2696

> <Gold.PLP.Chemscore.Hbond>
3.5440

> <Gold.PLP.Chemscore.CHOScore>
0.0000

> <Gold.PLP.Chemscore.Metal>
0.0000

> <Gold.Chemscore.Hbonds>
donor molecule, donor type, donor heavy atom, donor atom, acceptor molecule, acceptor atom, score
      L1  H     3    24       P1  7948  1.00
      L1  H    17    43       P1  7948  0.94
      P1  H  6934  6947       L1    14  0.58
      P1  H  7989  7998       L1     9  0.99

> <Gold.PLP.Chemscore.Internal.Correction>
0.1594

> <Gold.Rescore>
     Score         DG    S(hbond)    S(metal)    S(lipo)     H(rot)  DE(clash)    DE(int)     intcor
     16.12     -19.26       2.96        0.00      71.54       1.74       0.00       3.14       ----

> <Gold.Chemscore.Fitness>
16.1181

> <Gold.Chemscore.DG>
-19.2619

> <Gold.Chemscore.ZeroCoef>
-5.4800

> <Gold.Chemscore.Hbond>
2.9555

> <Gold.Chemscore.Metal>
0.0000

> <Gold.Chemscore.Lipo>
71.5396

> <Gold.Chemscore.Internal_Hbond>
0.0000

> <Gold.Chemscore.DEClash>
0.0038

> <Gold.Chemscore.DEInternal>
3.1400

> <Gold.Chemscore.Rot>
1.7421

> <Gold.Chemscore.Internal.Correction>
   9.000000E+99

> <Gold.Chemscore.Hbonds>
donor molecule, donor type, donor heavy atom, donor atom, acceptor molecule, acceptor atom, score
      L1  H     3    24       P1  7948  0.77
      L1  H    17    43       P1  7948  0.35
      P1  H  6934  6947       L1    14  0.30
      P1  H  7989  7998       L1     9  0.28

> <Gold.Chemscore.Hbond.Weighted>
-9.8715

> <Gold.Chemscore.Metal.Weighted>
-0.0000

> <Gold.Chemscore.Lipo.Weighted>
-8.3701

> <Gold.Chemscore.Internal_Hbond.Weighted>
0.0000

> <Gold.Chemscore.DEClash.Weighted>
0.0038

> <Gold.Chemscore.DEInternal.Weighted>
3.1400

> <Gold.Chemscore.Rot.Weighted>
4.4597

> <Gold.Chemscore.Internal.Correction.Weighted>
   9.000000E+99

> <Gold.Protein.RotatedTorsions>
[ 6907 6896 6895 6894 ] final   93.37 input  -60.11 | X-H torsion
[ 7974 7965 7964 7962 ] final   28.18 input  175.53 | X-H torsion
[ 8008 7997 7996 7995 ] final  -65.64 input   59.86 | X-H torsion
[ 10167 10162 10161 10158 ] final  149.32 input  -65.29 | X-H torsion
[ 10718 10713 10712 10709 ] final -140.05 input   66.30 | X-H torsion
[ 10763 10752 10751 10750 ] final  166.22 input  -60.55 | X-H torsion
[ 11005 11000 10999 10996 ] final -121.03 input  -57.11 | X-H torsion

> <Gold.Protein.ActiveResidues>
 VAL166  LYS551  ARG553  GLY616  TRP617  ASP618  TYR619  PRO620  LYS621  CYS622 
 ASP623  PHE694  ASN695  SER759  ASP760  ASP761  ALA762  ILE779  LEU786  VAL792 
 PHE793  MET794  SER795  GLU796  ALA797  LYS798  CYS799  TRP800  GLU811  SER814 

> <Gold.Protein.RotatedAtoms>
  152.5452  134.1357  159.8457 H   0  0  0  0  0  0  0  0  0  0  0  0  # atno 6907 bound_to 6896
  151.1398  133.4972  159.2604 H   0  0  0  0  0  0  0  0  0  0  0  0  # atno 6908 bound_to 6896
  151.1585  135.0272  159.8754 H   0  0  0  0  0  0  0  0  0  0  0  0  # atno 6909 bound_to 6896
  146.1743  139.7091  142.8945 H   0  0  0  0  0  0  0  0  0  0  0  0  # atno 7974 bound_to 7965
  154.4684  140.0929  156.7081 H   0  0  0  0  0  0  0  0  0  0  0  0  # atno 8008 bound_to 7997
  155.4792  140.3467  155.4319 H   0  0  0  0  0  0  0  0  0  0  0  0  # atno 8009 bound_to 7997
  156.0997  140.1419  156.9472 H   0  0  0  0  0  0  0  0  0  0  0  0  # atno 8010 bound_to 7997
  139.4863  144.5611  151.7230 H   0  0  0  0  0  0  0  0  0  0  0  0  # atno 10167 bound_to 10162
  156.3178  130.7517  151.1608 H   0  0  0  0  0  0  0  0  0  0  0  0  # atno 10718 bound_to 10713
  154.3357  135.2754  155.2449 H   0  0  0  0  0  0  0  0  0  0  0  0  # atno 10763 bound_to 10752
  154.4741  135.5875  153.6346 H   0  0  0  0  0  0  0  0  0  0  0  0  # atno 10764 bound_to 10752
  152.9862  135.6095  154.3553 H   0  0  0  0  0  0  0  0  0  0  0  0  # atno 10765 bound_to 10752
  141.0100  134.0279  157.3426 H   0  0  0  0  0  0  0  0  0  0  0  0  # atno 11005 bound_to 11000
  145.4254  141.0410  143.2940 LP  0  0  0  0  0  0  0  0  0  0  0  0  # atno 17320 bound_to 7965
  144.8212  139.5789  143.6986 LP  0  0  0  0  0  0  0  0  0  0  0  0  # atno 17321 bound_to 7965
  140.5181  144.0922  150.6014 LP  0  0  0  0  0  0  0  0  0  0  0  0  # atno 17342 bound_to 10162
  140.3871  143.2772  152.0104 LP  0  0  0  0  0  0  0  0  0  0  0  0  # atno 17343 bound_to 10162
  157.7405  131.0516  150.5159 LP  0  0  0  0  0  0  0  0  0  0  0  0  # atno 17370 bound_to 10713
  156.5308  130.4184  149.6203 LP  0  0  0  0  0  0  0  0  0  0  0  0  # atno 17371 bound_to 10713
  139.9084  135.0185  156.7588 LP  0  0  0  0  0  0  0  0  0  0  0  0  # atno 17394 bound_to 11000
  140.6750  133.9526  155.7877 LP  0  0  0  0  0  0  0  0  0  0  0  0  # atno 17395 bound_to 11000

$$$$
