AV-unprocessed.smi:3266|AV-procd|sdf|12503|dock4
  -GOLD-   2272018403D 1   1.00000     0.00000
 Structure written by MMmdl.
 39 40  0  0  0  0  0  0  0  0  2 V2000
  148.3490  140.2247  154.2992 O   0  0  0  0  0  0  0  0  0  0  0  0
  148.2144  141.4397  154.4445 C   0  0  0  0  0  0  0  0  0  0  0  0
  146.9952  142.1720  153.8768 C   0  0  0  0  0  0  0  0  0  0  0  0
  146.2193  142.9861  154.9287 C   0  0  0  0  0  0  0  0  0  0  0  0
  145.0034  143.7085  154.3303 C   0  0  1  0  0  0  0  0  0  0  0  0
  144.3156  144.6702  155.2977 C   0  0  0  0  0  0  0  0  0  0  0  0
  143.6373  145.6243  154.3417 C   0  0  0  0  0  0  0  0  0  0  0  0
  144.6879  145.7576  153.2434 C   0  0  0  0  0  0  0  0  0  0  0  0
  145.3892  144.5165  153.2200 O   0  0  0  0  0  0  0  0  0  0  0  0
  149.0940  142.1999  155.1137 N   0  0  0  0  0  0  0  0  0  0  0  0
  150.3189  141.7162  155.7445 C   0  0  0  0  0  0  0  0  0  0  0  0
  150.1939  141.5190  157.2701 C   0  0  0  0  0  0  0  0  0  0  0  0
  150.9603  142.5428  158.0906 C   0  0  0  0  0  0  0  0  0  0  0  0
  151.9891  142.1700  158.9826 C   0  0  0  0  0  0  0  0  0  0  0  0
  152.6697  143.1711  159.7068 C   0  0  0  0  0  0  0  0  0  0  0  0
  152.3090  144.5223  159.5234 C   0  0  0  0  0  0  0  0  0  0  0  0
  151.2754  144.8388  158.6186 C   0  0  0  0  0  0  0  0  0  0  0  0
  150.6469  143.8512  157.9445 N   0  3  0  0  0  0  0  0  0  0  0  0
  147.3364  142.8288  153.0759 H   0  0  0  0  0  0  0  0  0  0  0  0
  146.3279  141.4400  153.4196 H   0  0  0  0  0  0  0  0  0  0  0  0
  145.8798  142.3199  155.7232 H   0  0  0  0  0  0  0  0  0  0  0  0
  146.8786  143.7178  155.3980 H   0  0  0  0  0  0  0  0  0  0  0  0
  144.2708  142.9814  153.9764 H   0  0  0  0  0  0  0  0  0  0  0  0
  143.6197  144.1707  155.9724 H   0  0  0  0  0  0  0  0  0  0  0  0
  145.0511  145.2068  155.8993 H   0  0  0  0  0  0  0  0  0  0  0  0
  142.7291  145.1709  153.9415 H   0  0  0  0  0  0  0  0  0  0  0  0
  143.3726  146.5782  154.7984 H   0  0  0  0  0  0  0  0  0  0  0  0
  144.2484  145.9865  152.2724 H   0  0  0  0  0  0  0  0  0  0  0  0
  145.3964  146.5492  153.4894 H   0  0  0  0  0  0  0  0  0  0  0  0
  148.9063  143.1899  155.1824 H   0  0  0  0  0  0  0  0  0  0  0  0
  150.6421  140.7892  155.2685 H   0  0  0  0  0  0  0  0  0  0  0  0
  151.0971  142.4523  155.5408 H   0  0  0  0  0  0  0  0  0  0  0  0
  149.1434  141.5547  157.5620 H   0  0  0  0  0  0  0  0  0  0  0  0
  150.5414  140.5204  157.5369 H   0  0  0  0  0  0  0  0  0  0  0  0
  152.2561  141.1308  159.1092 H   0  0  0  0  0  0  0  0  0  0  0  0
  153.4595  142.9057  160.3940 H   0  0  0  0  0  0  0  0  0  0  0  0
  152.8179  145.3038  160.0687 H   0  0  0  0  0  0  0  0  0  0  0  0
  150.9347  145.8434  158.4149 H   0  0  0  0  0  0  0  0  0  0  0  0
  149.9023  144.1025  157.2933 H   0  0  0  0  0  0  0  0  0  0  0  0
  1  2  2  0  0  0  0
  2  3  1  0  0  0  0
  2 10  1  0  0  0  0
  3  4  1  0  0  0  0
  3 19  1  0  0  0  0
  3 20  1  0  0  0  0
  4  5  1  0  0  0  0
  4 21  1  0  0  0  0
  4 22  1  0  0  0  0
  5  9  1  0  0  0  0
  5  6  1  0  0  0  0
  5 23  1  0  0  0  0
  6  7  1  0  0  0  0
  6 24  1  0  0  0  0
  6 25  1  0  0  0  0
  7  8  1  0  0  0  0
  7 26  1  0  0  0  0
  7 27  1  0  0  0  0
  8  9  1  0  0  0  0
  8 28  1  0  0  0  0
  8 29  1  0  0  0  0
 10 11  1  0  0  0  0
 10 30  1  0  0  0  0
 11 12  1  0  0  0  0
 11 31  1  0  0  0  0
 11 32  1  0  0  0  0
 12 13  1  0  0  0  0
 12 33  1  0  0  0  0
 12 34  1  0  0  0  0
 13 18  1  0  0  0  0
 13 14  2  0  0  0  0
 14 15  1  0  0  0  0
 14 35  1  0  0  0  0
 15 16  2  0  0  0  0
 15 36  1  0  0  0  0
 16 17  1  0  0  0  0
 16 37  1  0  0  0  0
 17 18  2  0  0  0  0
 17 38  1  0  0  0  0
 18 39  1  0  0  0  0
M  CHG  1  18   1
M  END
> <s_m_source_file>
AV-unprocessed.smi

> <i_m_source_file_index>
3266

> <i_lp_mmshare_version>
43012

> <i_f3d_flags>
0

> <s_epik_input>
TzFbQ0gyXVtDSDJdW0NIMl1bQ0BIXTFbQ0gyXVtDSDJdQyg9TylbTkhdW0NIMl1bQ0gyXWMyW2NIXVtjSF1bY0hdW2NIXW4y

> <s_epik_cmdline>
J2VwaWtfcHl0aG9uJywgJy1waCcsICc3LjAnLCAnLXRuJywgJzgnLCAnLW1hJywgJzIwMCcsICctbWV0YWxfYmluZGluZycsICctaW1hZScsICc8aW5maWxlLm1hZT4nLCAnLW9tYWUnLCAnPG91dGZpbGUubWFlPic=

> <r_epik_Ionization_Penalty>
1.8495

> <r_epik_Ionization_Penalty_Charging>
1.8495

> <r_epik_Ionization_Penalty_Neutral>
1.53068e-08

> <r_epik_State_Penalty>
1.96688

> <r_epik_Charging_Adjusted_Penalty>
3.81638

> <i_epik_Tot_Q>
1

> <i_epik_Tot_abs_Q>
1

> <r_epik_Metal_State_Penalty>
1.99263

> <b_epik_Metal_Only>
0

> <s_lp_Force_Field>
OPLS_2005

> <r_lp_Energy>
22.1722

> <b_lp_Chiralities_Consistent>
1

> <s_lp_Variant>
AV-unprocessed.smi:3266-4

> <Gold.Version>
5.8.1

> <Gold.Id.Protein>
6NUR|6NUR_protein|mol2

> <Gold.PLP.Fitness>
52.1926

> <Gold.PLP.PLP>
-44.1804

> <Gold.PLP.part.hbond>
-2.4492

> <Gold.PLP.part.metal>
0.0000

> <Gold.PLP.part.buried>
-6.6890

> <Gold.PLP.part.nonpolar>
-36.2862

> <Gold.PLP.part.repulsive>
0.5392

> <Gold.PLP.ligand.clash>
0.0000

> <Gold.PLP.ligand.torsion>
0.5332

> <Gold.PLP.Chemscore.Hbond>
3.0000

> <Gold.PLP.Chemscore.CHOScore>
0.0000

> <Gold.PLP.Chemscore.Metal>
0.0000

> <Gold.Chemscore.Hbonds>
donor molecule, donor type, donor heavy atom, donor atom, acceptor molecule, acceptor atom, score
      L1  H    10    30       P1  8028  1.00
      L1  H    18    39       P1  8028  2.00

> <Gold.PLP.Chemscore.Internal.Correction>
0.0786

> <Gold.Rescore>
     Score         DG    S(hbond)    S(metal)    S(lipo)     H(rot)  DE(clash)    DE(int)     intcor
     20.12     -20.83       1.97        0.00     115.24       1.84       0.13       0.58       ----

> <Gold.Chemscore.Fitness>
20.1174

> <Gold.Chemscore.DG>
-20.8333

> <Gold.Chemscore.ZeroCoef>
-5.4800

> <Gold.Chemscore.Hbond>
1.9687

> <Gold.Chemscore.Metal>
0.0000

> <Gold.Chemscore.Lipo>
115.2431

> <Gold.Chemscore.Internal_Hbond>
0.0000

> <Gold.Chemscore.DEClash>
0.1316

> <Gold.Chemscore.DEInternal>
0.5842

> <Gold.Chemscore.Rot>
1.8382

> <Gold.Chemscore.Internal.Correction>
   9.000000E+99

> <Gold.Chemscore.Hbonds>
donor molecule, donor type, donor heavy atom, donor atom, acceptor molecule, acceptor atom, score
      L1  H    10    30       P1  8028  0.98
      L1  H    18    39       P1  8028  0.63

> <Gold.Chemscore.Hbond.Weighted>
-6.5756

> <Gold.Chemscore.Metal.Weighted>
-0.0000

> <Gold.Chemscore.Lipo.Weighted>
-13.4834

> <Gold.Chemscore.Internal_Hbond.Weighted>
0.0000

> <Gold.Chemscore.DEClash.Weighted>
0.1316

> <Gold.Chemscore.DEInternal.Weighted>
0.5842

> <Gold.Chemscore.Rot.Weighted>
4.7058

> <Gold.Chemscore.Internal.Correction.Weighted>
   9.000000E+99

> <Gold.Protein.RotatedTorsions>
[ 6907 6896 6895 6894 ] final  118.10 input  -60.11 | X-H torsion
[ 7974 7965 7964 7962 ] final  160.48 input  175.53 | X-H torsion
[ 8008 7997 7996 7995 ] final -166.00 input   59.86 | X-H torsion
[ 10167 10162 10161 10158 ] final  148.50 input  -65.29 | X-H torsion
[ 10718 10713 10712 10709 ] final  177.37 input   66.30 | X-H torsion
[ 10763 10752 10751 10750 ] final   70.50 input  -60.55 | X-H torsion
[ 11005 11000 10999 10996 ] final -155.15 input  -57.11 | X-H torsion

> <Gold.Protein.ActiveResidues>
 VAL166  LYS551  ARG553  GLY616  TRP617  ASP618  TYR619  PRO620  LYS621  CYS622 
 ASP623  PHE694  ASN695  SER759  ASP760  ASP761  ALA762  ILE779  LEU786  VAL792 
 PHE793  MET794  SER795  GLU796  ALA797  LYS798  CYS799  TRP800  GLU811  SER814 

> <Gold.Protein.RotatedAtoms>
  152.4567  133.7737  159.6812 H   0  0  0  0  0  0  0  0  0  0  0  0  # atno 6907 bound_to 6896
  150.8495  133.7799  159.3037 H   0  0  0  0  0  0  0  0  0  0  0  0  # atno 6908 bound_to 6896
  151.5398  135.1071  159.9975 H   0  0  0  0  0  0  0  0  0  0  0  0  # atno 6909 bound_to 6896
  144.7734  139.7764  143.6288 H   0  0  0  0  0  0  0  0  0  0  0  0  # atno 7974 bound_to 7965
  155.8577  140.0973  157.1634 H   0  0  0  0  0  0  0  0  0  0  0  0  # atno 8008 bound_to 7997
  154.3988  140.1371  156.3984 H   0  0  0  0  0  0  0  0  0  0  0  0  # atno 8009 bound_to 7997
  155.7891  140.3456  155.5342 H   0  0  0  0  0  0  0  0  0  0  0  0  # atno 8010 bound_to 7997
  139.4874  144.5674  151.7118 H   0  0  0  0  0  0  0  0  0  0  0  0  # atno 10167 bound_to 10162
  156.9063  130.9895  151.3028 H   0  0  0  0  0  0  0  0  0  0  0  0  # atno 10718 bound_to 10713
  153.0345  135.5171  154.7451 H   0  0  0  0  0  0  0  0  0  0  0  0  # atno 10763 bound_to 10752
  154.6438  135.2916  155.0073 H   0  0  0  0  0  0  0  0  0  0  0  0  # atno 10764 bound_to 10752
  154.0981  135.6640  153.4916 H   0  0  0  0  0  0  0  0  0  0  0  0  # atno 10765 bound_to 10752
  140.6896  134.4056  157.5220 H   0  0  0  0  0  0  0  0  0  0  0  0  # atno 11005 bound_to 11000
  146.1898  139.5132  142.9813 LP  0  0  0  0  0  0  0  0  0  0  0  0  # atno 17320 bound_to 7965
  145.6255  141.0314  143.1891 LP  0  0  0  0  0  0  0  0  0  0  0  0  # atno 17321 bound_to 7965
  140.5255  144.0812  150.6036 LP  0  0  0  0  0  0  0  0  0  0  0  0  # atno 17342 bound_to 10162
  140.3784  143.2816  152.0198 LP  0  0  0  0  0  0  0  0  0  0  0  0  # atno 17343 bound_to 10162
  157.5995  130.8502  149.8780 LP  0  0  0  0  0  0  0  0  0  0  0  0  # atno 17370 bound_to 10713
  156.0557  130.3709  150.1096 LP  0  0  0  0  0  0  0  0  0  0  0  0  # atno 17371 bound_to 10713
  139.8927  134.8747  156.2256 LP  0  0  0  0  0  0  0  0  0  0  0  0  # atno 17394 bound_to 11000
  141.0252  133.7019  156.1336 LP  0  0  0  0  0  0  0  0  0  0  0  0  # atno 17395 bound_to 11000

$$$$
