AV-unprocessed.smi:409|AV-procd|sdf|2506|dock6
  -GOLD-   2262022453D 1   1.00000     0.00000
 Structure written by MMmdl.
 34 35  0  0  0  0  0  0  0  0  2 V2000
  154.2034  140.0346  159.0236 O   0  0  0  0  0  0  0  0  0  0  0  0
  153.3561  140.3412  158.1836 C   0  0  0  0  0  0  0  0  0  0  0  0
  152.9557  139.3537  157.0792 C   0  0  0  0  0  0  0  0  0  0  0  0
  152.0661  139.9525  156.0714 N   0  0  0  0  0  0  0  0  0  0  0  0
  150.7160  140.1378  156.4174 C   0  0  0  0  0  0  0  0  0  0  0  0
  149.8297  140.6755  155.5577 C   0  0  0  0  0  0  0  0  0  0  0  0
  150.3021  141.0709  154.2366 C   0  0  0  0  0  0  0  0  0  0  0  0
  149.5082  141.5686  153.4407 O   0  0  0  0  0  0  0  0  0  0  0  0
  151.6204  140.8659  153.9464 N   0  5  0  0  0  0  0  0  0  0  0  0
  152.5096  140.3149  154.8299 C   0  0  0  0  0  0  0  0  0  0  0  0
  153.6948  140.1359  154.5465 O   0  0  0  0  0  0  0  0  0  0  0  0
  152.7108  141.5175  158.1846 N   0  0  0  0  0  0  0  0  0  0  0  0
  152.9274  142.5991  159.1404 C   0  0  0  0  0  0  0  0  0  0  0  0
  152.5256  142.1578  160.5632 C   0  0  0  0  0  0  0  0  0  0  0  0
  152.6738  143.3086  161.5717 C   0  0  0  0  0  0  0  0  0  0  0  0
  151.8739  144.5444  161.1308 C   0  0  0  0  0  0  0  0  0  0  0  0
  152.2763  144.9895  159.7160 C   0  0  0  0  0  0  0  0  0  0  0  0
  152.1251  143.8403  158.7060 C   0  0  0  0  0  0  0  0  0  0  0  0
  153.8679  138.9831  156.6100 H   0  0  0  0  0  0  0  0  0  0  0  0
  152.4832  138.4737  157.5201 H   0  0  0  0  0  0  0  0  0  0  0  0
  150.4469  139.8129  157.4115 H   0  0  0  0  0  0  0  0  0  0  0  0
  148.7951  140.8083  155.8377 H   0  0  0  0  0  0  0  0  0  0  0  0
  152.0290  141.6808  157.4582 H   0  0  0  0  0  0  0  0  0  0  0  0
  153.9863  142.8653  159.1394 H   0  0  0  0  0  0  0  0  0  0  0  0
  151.4921  141.8081  160.5635 H   0  0  0  0  0  0  0  0  0  0  0  0
  153.1367  141.3133  160.8831 H   0  0  0  0  0  0  0  0  0  0  0  0
  152.3422  142.9831  162.5582 H   0  0  0  0  0  0  0  0  0  0  0  0
  153.7276  143.5720  161.6712 H   0  0  0  0  0  0  0  0  0  0  0  0
  150.8075  144.3165  161.1533 H   0  0  0  0  0  0  0  0  0  0  0  0
  152.0310  145.3607  161.8364 H   0  0  0  0  0  0  0  0  0  0  0  0
  151.6677  145.8391  159.4056 H   0  0  0  0  0  0  0  0  0  0  0  0
  153.3106  145.3355  159.7222 H   0  0  0  0  0  0  0  0  0  0  0  0
  152.4546  144.1726  157.7208 H   0  0  0  0  0  0  0  0  0  0  0  0
  151.0692  143.5834  158.6082 H   0  0  0  0  0  0  0  0  0  0  0  0
  1  2  2  0  0  0  0
  2  3  1  0  0  0  0
  2 12  1  0  0  0  0
  3  4  1  0  0  0  0
  3 19  1  0  0  0  0
  3 20  1  0  0  0  0
  4 10  1  0  0  0  0
  4  5  1  0  0  0  0
  5  6  2  0  0  0  0
  5 21  1  0  0  0  0
  6  7  1  0  0  0  0
  6 22  1  0  0  0  0
  7  8  2  0  0  0  0
  7  9  1  0  0  0  0
  9 10  1  0  0  0  0
 10 11  2  0  0  0  0
 12 13  1  0  0  0  0
 12 23  1  0  0  0  0
 13 18  1  0  0  0  0
 13 14  1  0  0  0  0
 13 24  1  0  0  0  0
 14 15  1  0  0  0  0
 14 25  1  0  0  0  0
 14 26  1  0  0  0  0
 15 16  1  0  0  0  0
 15 27  1  0  0  0  0
 15 28  1  0  0  0  0
 16 17  1  0  0  0  0
 16 29  1  0  0  0  0
 16 30  1  0  0  0  0
 17 18  1  0  0  0  0
 17 31  1  0  0  0  0
 17 32  1  0  0  0  0
 18 33  1  0  0  0  0
 18 34  1  0  0  0  0
M  CHG  1   9  -1
M  END
> <s_m_source_file>
AV-unprocessed.smi

> <i_m_source_file_index>
409

> <i_lp_mmshare_version>
43012

> <i_f3d_flags>
0

> <s_epik_input>
W0NIMl0xW0NIMl1bQ0gyXVtDSDJdW0NIMl1bQ0hdMVtOSF1DKD1PKVtDSDJdbjJbY0hdW2NIXWMoPU8pW25IXWMyPU8=

> <s_epik_cmdline>
J2VwaWtfcHl0aG9uJywgJy1waCcsICc3LjAnLCAnLXRuJywgJzgnLCAnLW1hJywgJzIwMCcsICctbWV0YWxfYmluZGluZycsICctaW1hZScsICc8aW5maWxlLm1hZT4nLCAnLW9tYWUnLCAnPG91dGZpbGUubWFlPic=

> <r_lp_tautomer_probability>
0.999537

> <r_epik_Ionization_Penalty>
3.11464

> <r_epik_Ionization_Penalty_Charging>
2.89611e-08

> <r_epik_Ionization_Penalty_Neutral>
3.11464

> <r_epik_State_Penalty>
3.11372

> <r_epik_Charging_Adjusted_Penalty>
3.11373

> <i_epik_Tot_Q>
-1

> <i_epik_Tot_abs_Q>
1

> <r_epik_Metal_State_Penalty>
0.463005

> <b_epik_Metal_Only>
1

> <s_lp_Force_Field>
OPLS_2005

> <r_lp_Energy>
17.6148

> <b_lp_Chiralities_Consistent>
1

> <s_lp_Variant>
AV-unprocessed.smi:409-2

> <Gold.Version>
5.8.1

> <Gold.Id.Protein>
6NUR|6NUR_protein|mol2

> <Gold.PLP.Fitness>
41.6085

> <Gold.PLP.PLP>
-36.2193

> <Gold.PLP.part.hbond>
-2.2654

> <Gold.PLP.part.metal>
0.0000

> <Gold.PLP.part.buried>
-4.5631

> <Gold.PLP.part.nonpolar>
-29.5085

> <Gold.PLP.part.repulsive>
0.6965

> <Gold.PLP.ligand.clash>
0.0000

> <Gold.PLP.ligand.torsion>
0.3087

> <Gold.PLP.Chemscore.Hbond>
2.0000

> <Gold.PLP.Chemscore.CHOScore>
0.0000

> <Gold.PLP.Chemscore.Metal>
0.0000

> <Gold.Chemscore.Hbonds>
donor molecule, donor type, donor heavy atom, donor atom, acceptor molecule, acceptor atom, score
      P1  H  7997  8010       L1    11  0.80
      P1  H  8011  8017       L1     8  0.62

> <Gold.PLP.Chemscore.Internal.Correction>
0.0067

> <Gold.Rescore>
     Score         DG    S(hbond)    S(metal)    S(lipo)     H(rot)  DE(clash)    DE(int)     intcor
     16.14     -16.68       1.79        0.00      81.17       1.67       0.15       0.40       ----

> <Gold.Chemscore.Fitness>
16.1372

> <Gold.Chemscore.DG>
-16.6847

> <Gold.Chemscore.ZeroCoef>
-5.4800

> <Gold.Chemscore.Hbond>
1.7907

> <Gold.Chemscore.Metal>
0.0000

> <Gold.Chemscore.Lipo>
81.1664

> <Gold.Chemscore.Internal_Hbond>
0.0000

> <Gold.Chemscore.DEClash>
0.1483

> <Gold.Chemscore.DEInternal>
0.3992

> <Gold.Chemscore.Rot>
1.6690

> <Gold.Chemscore.Internal.Correction>
   9.000000E+99

> <Gold.Chemscore.Hbonds>
donor molecule, donor type, donor heavy atom, donor atom, acceptor molecule, acceptor atom, score
      P1  H  7997  8010       L1    11  0.69
      P1  H  8011  8017       L1     8  0.61

> <Gold.Chemscore.Hbond.Weighted>
-5.9808

> <Gold.Chemscore.Metal.Weighted>
-0.0000

> <Gold.Chemscore.Lipo.Weighted>
-9.4965

> <Gold.Chemscore.Internal_Hbond.Weighted>
0.0000

> <Gold.Chemscore.DEClash.Weighted>
0.1483

> <Gold.Chemscore.DEInternal.Weighted>
0.3992

> <Gold.Chemscore.Rot.Weighted>
4.2726

> <Gold.Chemscore.Internal.Correction.Weighted>
   9.000000E+99

> <Gold.Protein.RotatedTorsions>
[ 6907 6896 6895 6894 ] final   27.44 input  -60.11 | X-H torsion
[ 7974 7965 7964 7962 ] final  149.52 input  175.53 | X-H torsion
[ 8008 7997 7996 7995 ] final  118.45 input   59.86 | X-H torsion
[ 10167 10162 10161 10158 ] final   13.02 input  -65.29 | X-H torsion
[ 10718 10713 10712 10709 ] final  126.33 input   66.30 | X-H torsion
[ 10763 10752 10751 10750 ] final  -73.89 input  -60.55 | X-H torsion
[ 11005 11000 10999 10996 ] final   75.27 input  -57.11 | X-H torsion

> <Gold.Protein.ActiveResidues>
 VAL166  LYS551  ARG553  GLY616  TRP617  ASP618  TYR619  PRO620  LYS621  CYS622 
 ASP623  PHE694  ASN695  SER759  ASP760  ASP761  ALA762  ILE779  LEU786  VAL792 
 PHE793  MET794  SER795  GLU796  ALA797  LYS798  CYS799  TRP800  GLU811  SER814 

> <Gold.Protein.RotatedAtoms>
  152.0023  134.9921  160.0565 H   0  0  0  0  0  0  0  0  0  0  0  0  # atno 6907 bound_to 6896
  152.1507  133.4516  159.4820 H   0  0  0  0  0  0  0  0  0  0  0  0  # atno 6908 bound_to 6896
  150.6875  134.2110  159.4402 H   0  0  0  0  0  0  0  0  0  0  0  0  # atno 6909 bound_to 6896
  144.8432  139.6290  143.6007 H   0  0  0  0  0  0  0  0  0  0  0  0  # atno 7974 bound_to 7965
  156.2547  140.2874  156.0837 H   0  0  0  0  0  0  0  0  0  0  0  0  # atno 8008 bound_to 7997
  155.1538  140.0398  157.2844 H   0  0  0  0  0  0  0  0  0  0  0  0  # atno 8009 bound_to 7997
  154.6441  140.2529  155.7294 H   0  0  0  0  0  0  0  0  0  0  0  0  # atno 8010 bound_to 7997
  140.6030  143.8566  150.6984 H   0  0  0  0  0  0  0  0  0  0  0  0  # atno 10167 bound_to 10162
  157.5428  131.1096  150.8831 H   0  0  0  0  0  0  0  0  0  0  0  0  # atno 10718 bound_to 10713
  154.4657  135.5882  153.6286 H   0  0  0  0  0  0  0  0  0  0  0  0  # atno 10763 bound_to 10752
  152.9828  135.6054  154.3430 H   0  0  0  0  0  0  0  0  0  0  0  0  # atno 10764 bound_to 10752
  154.3307  135.2842  155.2452 H   0  0  0  0  0  0  0  0  0  0  0  0  # atno 10765 bound_to 10752
  139.9351  134.7504  156.1251 H   0  0  0  0  0  0  0  0  0  0  0  0  # atno 11005 bound_to 11000
  146.2721  139.6661  142.9288 LP  0  0  0  0  0  0  0  0  0  0  0  0  # atno 17320 bound_to 7965
  145.4651  141.0434  143.2730 LP  0  0  0  0  0  0  0  0  0  0  0  0  # atno 17321 bound_to 7965
  140.2117  143.3878  152.1713 LP  0  0  0  0  0  0  0  0  0  0  0  0  # atno 17342 bound_to 10162
  139.5304  144.7152  151.5076 LP  0  0  0  0  0  0  0  0  0  0  0  0  # atno 17343 bound_to 10162
  156.9379  130.5374  149.5280 LP  0  0  0  0  0  0  0  0  0  0  0  0  # atno 17370 bound_to 10713
  156.0510  130.5580  150.8990 LP  0  0  0  0  0  0  0  0  0  0  0  0  # atno 17371 bound_to 10713
  141.0961  133.6695  156.2648 LP  0  0  0  0  0  0  0  0  0  0  0  0  # atno 17394 bound_to 11000
  140.6097  134.5471  157.5531 LP  0  0  0  0  0  0  0  0  0  0  0  0  # atno 17395 bound_to 11000

$$$$
