AV-unprocessed.smi:1261|AV-procd|sdf|5304|dock1
  -GOLD-   22720 4423D 1   1.00000     0.00000
 Structure written by MMmdl.
 49 50  0  0  0  0  0  0  0  0  3 V2000
  151.5812  144.8907  159.5428 C   0  0  0  0  0  0  0  0  0  0  0  0
  150.7796  144.0214  158.5636 C   0  0  1  0  0  0  0  0  0  0  0  0
  151.3916  142.6150  158.4329 C   0  0  0  0  0  0  0  0  0  0  0  0
  150.5560  141.7127  157.5060 C   0  0  2  0  0  0  0  0  0  0  0  0
  150.7225  142.0645  156.0173 C   0  0  0  0  0  0  0  0  0  0  0  0
  149.0775  141.7077  157.9433 C   0  0  0  0  0  0  0  0  0  0  0  0
  148.5229  143.0840  158.0324 N   0  3  1  0  0  0  0  0  0  0  0  0
  147.0635  143.0822  158.3083 C   0  0  0  0  0  0  0  0  0  0  0  0
  146.2462  142.4666  157.1598 C   0  0  0  0  0  0  0  0  0  0  0  0
  146.0323  140.9555  157.3424 C   0  0  0  0  0  0  0  0  0  0  0  0
  145.4613  140.6491  158.6474 N   0  0  0  0  0  0  0  0  0  0  0  0
  144.8932  139.4818  158.9866 C   0  0  0  0  0  0  0  0  0  0  0  0
  144.8175  138.5181  158.2239 O   0  0  0  0  0  0  0  0  0  0  0  0
  144.3424  139.3854  160.4133 C   0  0  0  0  0  0  0  0  0  0  0  0
  144.7401  138.1327  161.0673 N   0  0  0  0  0  0  0  0  0  0  0  0
  146.1864  137.9353  161.1182 N   0  5  0  0  0  0  0  0  0  0  0  0
  146.6826  136.8266  161.7285 C   0  0  0  0  0  0  0  0  0  0  0  0
  147.8870  136.6003  161.8219 O   0  0  0  0  0  0  0  0  0  0  0  0
  145.7389  135.8743  162.2900 C   0  0  0  0  0  0  0  0  0  0  0  0
  144.4084  136.0765  162.2179 C   0  0  0  0  0  0  0  0  0  0  0  0
  143.8320  137.2548  161.5815 C   0  0  0  0  0  0  0  0  0  0  0  0
  142.6178  137.4460  161.5154 O   0  0  0  0  0  0  0  0  0  0  0  0
  149.3003  143.9240  158.9819 C   0  0  0  0  0  0  0  0  0  0  0  0
  151.5794  144.4638  160.5463 H   0  0  0  0  0  0  0  0  0  0  0  0
  151.1637  145.8958  159.6085 H   0  0  0  0  0  0  0  0  0  0  0  0
  152.6195  144.9867  159.2239 H   0  0  0  0  0  0  0  0  0  0  0  0
  150.8243  144.5093  157.5891 H   0  0  0  0  0  0  0  0  0  0  0  0
  152.4187  142.6793  158.0712 H   0  0  0  0  0  0  0  0  0  0  0  0
  151.4465  142.1546  159.4205 H   0  0  0  0  0  0  0  0  0  0  0  0
  150.9325  140.6955  157.6214 H   0  0  0  0  0  0  0  0  0  0  0  0
  150.3411  143.0591  155.7871 H   0  0  0  0  0  0  0  0  0  0  0  0
  150.1875  141.3535  155.3870 H   0  0  0  0  0  0  0  0  0  0  0  0
  151.7718  142.0348  155.7226 H   0  0  0  0  0  0  0  0  0  0  0  0
  148.4941  141.1126  157.2396 H   0  0  0  0  0  0  0  0  0  0  0  0
  148.9801  141.2227  158.9160 H   0  0  0  0  0  0  0  0  0  0  0  0
  146.8723  142.4939  159.2068 H   0  0  0  0  0  0  0  0  0  0  0  0
  146.7241  144.0961  158.5259 H   0  0  0  0  0  0  0  0  0  0  0  0
  145.2745  142.9544  157.0866 H   0  0  0  0  0  0  0  0  0  0  0  0
  146.7557  142.6464  156.2123 H   0  0  0  0  0  0  0  0  0  0  0  0
  145.3498  140.5793  156.5800 H   0  0  0  0  0  0  0  0  0  0  0  0
  146.9717  140.4162  157.2103 H   0  0  0  0  0  0  0  0  0  0  0  0
  145.4640  141.3864  159.3381 H   0  0  0  0  0  0  0  0  0  0  0  0
  144.6914  140.2438  160.9898 H   0  0  0  0  0  0  0  0  0  0  0  0
  143.2548  139.4776  160.3907 H   0  0  0  0  0  0  0  0  0  0  0  0
  146.1125  134.9843  162.7744 H   0  0  0  0  0  0  0  0  0  0  0  0
  143.7443  135.3418  162.6482 H   0  0  0  0  0  0  0  0  0  0  0  0
  149.2173  143.5067  159.9869 H   0  0  0  0  0  0  0  0  0  0  0  0
  148.8824  144.9289  159.0246 H   0  0  0  0  0  0  0  0  0  0  0  0
  148.6375  143.4925  157.1159 H   0  0  0  0  0  0  0  0  0  0  0  0
  1  2  1  0  0  0  0
  1 24  1  0  0  0  0
  1 25  1  0  0  0  0
  1 26  1  0  0  0  0
  2 23  1  0  0  0  0
  2  3  1  0  0  0  0
  2 27  1  0  0  0  0
  3  4  1  0  0  0  0
  3 28  1  0  0  0  0
  3 29  1  0  0  0  0
  4  5  1  0  0  0  0
  4  6  1  0  0  0  0
  4 30  1  0  0  0  0
  5 31  1  0  0  0  0
  5 32  1  0  0  0  0
  5 33  1  0  0  0  0
  6  7  1  0  0  0  0
  6 34  1  0  0  0  0
  6 35  1  0  0  0  0
  7  8  1  0  0  0  0
  7 23  1  0  0  0  0
  7 49  1  0  0  0  0
  8  9  1  0  0  0  0
  8 36  1  0  0  0  0
  8 37  1  0  0  0  0
  9 10  1  0  0  0  0
  9 38  1  0  0  0  0
  9 39  1  0  0  0  0
 10 11  1  0  0  0  0
 10 40  1  0  0  0  0
 10 41  1  0  0  0  0
 11 12  1  0  0  0  0
 11 42  1  0  0  0  0
 12 13  2  0  0  0  0
 12 14  1  0  0  0  0
 14 43  1  0  0  0  0
 14 44  1  0  0  0  0
 14 15  1  0  0  0  0
 15 16  1  0  0  0  0
 15 21  1  0  0  0  0
 16 17  1  0  0  0  0
 17 18  2  0  0  0  0
 17 19  1  0  0  0  0
 19 45  1  0  0  0  0
 19 20  2  0  0  0  0
 20 46  1  0  0  0  0
 20 21  1  0  0  0  0
 21 22  2  0  0  0  0
 23 47  1  0  0  0  0
 23 48  1  0  0  0  0
M  CHG  1   7   1
M  CHG  1  16  -1
M  END
> <s_m_source_file>
AV-unprocessed.smi

> <i_m_source_file_index>
1261

> <i_lp_mmshare_version>
43012

> <i_f3d_flags>
0

> <s_epik_input>
W0NIM11bQ0BASF0xW0NIMl1bQ0BASF0oW0NIM10pW0NIMl1OKFtDSDJdMSlbQ0gyXVtDSDJdW0NIMl1bTkhdQyg9TylbQ0gyXW4yW25IXWMoPU8pW2NIXVtjSF1jMj1P

> <s_epik_cmdline>
J2VwaWtfcHl0aG9uJywgJy1waCcsICc3LjAnLCAnLXRuJywgJzgnLCAnLW1hJywgJzIwMCcsICctbWV0YWxfYmluZGluZycsICctaW1hZScsICc8aW5maWxlLm1hZT4nLCAnLW9tYWUnLCAnPG91dGZpbGUubWFlPic=

> <r_lp_tautomer_probability>
1

> <r_epik_Ionization_Penalty>
0.0955723

> <r_epik_Ionization_Penalty_Charging>
0.0955723

> <r_epik_Ionization_Penalty_Neutral>
2.68632e-08

> <r_epik_State_Penalty>
0.0334406

> <r_epik_Charging_Adjusted_Penalty>
0.129013

> <i_epik_Tot_Q>
0

> <i_epik_Tot_abs_Q>
2

> <r_epik_Metal_State_Penalty>
0.0334406

> <b_epik_Metal_Only>
0

> <s_lp_Force_Field>
OPLS_2005

> <r_lp_Energy>
33.6406

> <b_lp_Chiralities_Consistent>
1

> <s_lp_Variant>
AV-unprocessed.smi:1261-4

> <Gold.Version>
5.8.1

> <Gold.Id.Protein>
6NUR|6NUR_protein|mol2

> <Gold.PLP.Fitness>
44.4596

> <Gold.PLP.PLP>
-30.4477

> <Gold.PLP.part.hbond>
-3.5701

> <Gold.PLP.part.metal>
0.0000

> <Gold.PLP.part.buried>
-5.0189

> <Gold.PLP.part.nonpolar>
-22.6545

> <Gold.PLP.part.repulsive>
0.2592

> <Gold.PLP.ligand.clash>
0.0000

> <Gold.PLP.ligand.torsion>
0.5349

> <Gold.PLP.Chemscore.Hbond>
5.0000

> <Gold.PLP.Chemscore.CHOScore>
0.0000

> <Gold.PLP.Chemscore.Metal>
0.0000

> <Gold.Chemscore.Hbonds>
donor molecule, donor type, donor heavy atom, donor atom, acceptor molecule, acceptor atom, score
      L1  H     7    49       P1  8028  1.90
      P1  H  6931  6943       L1    18  1.00
      P1  H  6934  6947       L1    16  1.69

> <Gold.PLP.Chemscore.Internal.Correction>
0.0817

> <Gold.Rescore>
     Score         DG    S(hbond)    S(metal)    S(lipo)     H(rot)  DE(clash)    DE(int)     intcor
     13.50     -14.22       2.14        0.00      68.25       2.49       0.20       0.51       ----

> <Gold.Chemscore.Fitness>
13.4996

> <Gold.Chemscore.DG>
-14.2168

> <Gold.Chemscore.ZeroCoef>
-5.4800

> <Gold.Chemscore.Hbond>
2.1363

> <Gold.Chemscore.Metal>
0.0000

> <Gold.Chemscore.Lipo>
68.2526

> <Gold.Chemscore.Internal_Hbond>
0.0000

> <Gold.Chemscore.DEClash>
0.2024

> <Gold.Chemscore.DEInternal>
0.5148

> <Gold.Chemscore.Rot>
2.4938

> <Gold.Chemscore.Internal.Correction>
   9.000000E+99

> <Gold.Chemscore.Hbonds>
donor molecule, donor type, donor heavy atom, donor atom, acceptor molecule, acceptor atom, score
      L1  H     7    49       P1  8028  0.21
      P1  H  6931  6943       L1    18  0.84
      P1  H  6934  6947       L1    16  0.74

> <Gold.Chemscore.Hbond.Weighted>
-7.1353

> <Gold.Chemscore.Metal.Weighted>
-0.0000

> <Gold.Chemscore.Lipo.Weighted>
-7.9856

> <Gold.Chemscore.Internal_Hbond.Weighted>
0.0000

> <Gold.Chemscore.DEClash.Weighted>
0.2024

> <Gold.Chemscore.DEInternal.Weighted>
0.5148

> <Gold.Chemscore.Rot.Weighted>
6.3840

> <Gold.Chemscore.Internal.Correction.Weighted>
   9.000000E+99

> <Gold.Protein.RotatedTorsions>
[ 6907 6896 6895 6894 ] final   68.72 input  -60.11 | X-H torsion
[ 7974 7965 7964 7962 ] final -139.59 input  175.53 | X-H torsion
[ 8008 7997 7996 7995 ] final   60.28 input   59.86 | X-H torsion
[ 10167 10162 10161 10158 ] final -142.80 input  -65.29 | X-H torsion
[ 10718 10713 10712 10709 ] final -115.22 input   66.30 | X-H torsion
[ 10763 10752 10751 10750 ] final -128.13 input  -60.55 | X-H torsion
[ 11005 11000 10999 10996 ] final  -51.62 input  -57.11 | X-H torsion

> <Gold.Protein.ActiveResidues>
 VAL166  LYS551  ARG553  GLY616  TRP617  ASP618  TYR619  PRO620  LYS621  CYS622 
 ASP623  PHE694  ASN695  SER759  ASP760  ASP761  ALA762  ILE779  LEU786  VAL792 
 PHE793  MET794  SER795  GLU796  ALA797  LYS798  CYS799  TRP800  GLU811  SER814 

> <Gold.Protein.RotatedAtoms>
  152.4639  134.5121  159.9756 H   0  0  0  0  0  0  0  0  0  0  0  0  # atno 6907 bound_to 6896
  151.5163  133.3469  159.2901 H   0  0  0  0  0  0  0  0  0  0  0  0  # atno 6908 bound_to 6896
  150.8614  134.7996  159.7148 H   0  0  0  0  0  0  0  0  0  0  0  0  # atno 6909 bound_to 6896
  144.8664  140.6300  143.5295 H   0  0  0  0  0  0  0  0  0  0  0  0  # atno 7974 bound_to 7965
  155.5798  140.3491  155.4537 H   0  0  0  0  0  0  0  0  0  0  0  0  # atno 8008 bound_to 7997
  156.0382  140.1290  157.0210 H   0  0  0  0  0  0  0  0  0  0  0  0  # atno 8009 bound_to 7997
  154.4380  140.1029  156.6184 H   0  0  0  0  0  0  0  0  0  0  0  0  # atno 8010 bound_to 7997
  139.8054  143.7776  152.2661 H   0  0  0  0  0  0  0  0  0  0  0  0  # atno 10167 bound_to 10162
  156.0881  130.6069  150.8877 H   0  0  0  0  0  0  0  0  0  0  0  0  # atno 10718 bound_to 10713
  154.8755  135.3939  154.3706 H   0  0  0  0  0  0  0  0  0  0  0  0  # atno 10763 bound_to 10752
  153.4466  135.7027  153.6140 H   0  0  0  0  0  0  0  0  0  0  0  0  # atno 10764 bound_to 10752
  153.4698  135.3793  155.2353 H   0  0  0  0  0  0  0  0  0  0  0  0  # atno 10765 bound_to 10752
  141.0881  133.6638  156.3905 H   0  0  0  0  0  0  0  0  0  0  0  0  # atno 11005 bound_to 11000
  145.4213  139.1563  143.4072 LP  0  0  0  0  0  0  0  0  0  0  0  0  # atno 17320 bound_to 7965
  146.2899  140.4323  142.8743 LP  0  0  0  0  0  0  0  0  0  0  0  0  # atno 17321 bound_to 7965
  139.7908  144.7411  150.9957 LP  0  0  0  0  0  0  0  0  0  0  0  0  # atno 17342 bound_to 10162
  140.7819  143.4444  151.0504 LP  0  0  0  0  0  0  0  0  0  0  0  0  # atno 17343 bound_to 10162
  157.6022  131.0940  150.8941 LP  0  0  0  0  0  0  0  0  0  0  0  0  # atno 17370 bound_to 10713
  156.9096  130.5276  149.5280 LP  0  0  0  0  0  0  0  0  0  0  0  0  # atno 17371 bound_to 10713
  140.5316  134.6207  157.5352 LP  0  0  0  0  0  0  0  0  0  0  0  0  # atno 17394 bound_to 11000
  139.9702  134.7305  156.0056 LP  0  0  0  0  0  0  0  0  0  0  0  0  # atno 17395 bound_to 11000

$$$$
