AV-unprocessed.smi:3125|AV-procd|sdf|11907|dock4
  -GOLD-   2272017293D 1   1.00000     0.00000
 Structure written by MMmdl.
 29 30  0  0  0  0  0  0  0  0  3 V2000
  142.8480  135.3586  152.5819 C   0  0  0  0  0  0  0  0  0  0  0  0
  144.1662  135.9649  152.3846 N   0  0  0  0  0  0  0  0  0  0  0  0
  144.4850  137.2854  152.5740 C   0  0  0  0  0  0  0  0  0  0  0  0
  145.8149  137.4161  152.2737 C   0  0  0  0  0  0  0  0  0  0  0  0
  146.2535  136.1710  151.9153 N   0  3  0  0  0  0  0  0  0  0  0  0
  145.2533  135.2822  151.9822 C   0  0  0  0  0  0  0  0  0  0  0  0
  145.3689  133.8169  151.6617 C   0  0  1  0  0  0  0  0  0  0  0  0
  144.2635  133.3539  150.6939 C   0  0  0  0  0  0  0  0  0  0  0  0
  144.4184  131.8580  150.3785 C   0  0  0  0  0  0  0  0  0  0  0  0
  145.8282  131.5501  149.8474 C   0  0  0  0  0  0  0  0  0  0  0  0
  146.8589  132.0123  150.8024 N   0  3  0  0  0  0  0  0  0  0  0  0
  146.7625  133.4583  151.1037 C   0  0  0  0  0  0  0  0  0  0  0  0
  142.1388  136.1225  152.9029 H   0  0  0  0  0  0  0  0  0  0  0  0
  142.9161  134.5860  153.3481 H   0  0  0  0  0  0  0  0  0  0  0  0
  142.5059  134.9238  151.6422 H   0  0  0  0  0  0  0  0  0  0  0  0
  143.7597  138.0178  152.8993 H   0  0  0  0  0  0  0  0  0  0  0  0
  146.4645  138.2794  152.2873 H   0  0  0  0  0  0  0  0  0  0  0  0
  145.2367  133.2793  152.6004 H   0  0  0  0  0  0  0  0  0  0  0  0
  143.2798  133.5414  151.1267 H   0  0  0  0  0  0  0  0  0  0  0  0
  144.3105  133.9264  149.7665 H   0  0  0  0  0  0  0  0  0  0  0  0
  144.2303  131.2721  151.2793 H   0  0  0  0  0  0  0  0  0  0  0  0
  143.6688  131.5509  149.6483 H   0  0  0  0  0  0  0  0  0  0  0  0
  145.9468  130.4783  149.6864 H   0  0  0  0  0  0  0  0  0  0  0  0
  145.9863  132.0366  148.8839 H   0  0  0  0  0  0  0  0  0  0  0  0
  146.7522  131.4945  151.6632 H   0  0  0  0  0  0  0  0  0  0  0  0
  146.9709  134.0234  150.1939 H   0  0  0  0  0  0  0  0  0  0  0  0
  147.5384  133.7181  151.8249 H   0  0  0  0  0  0  0  0  0  0  0  0
  147.7724  131.8164  150.4175 H   0  0  0  0  0  0  0  0  0  0  0  0
  147.2014  135.9525  151.6349 H   0  0  0  0  0  0  0  0  0  0  0  0
  1  2  1  0  0  0  0
  1 13  1  0  0  0  0
  1 14  1  0  0  0  0
  1 15  1  0  0  0  0
  2  6  1  0  0  0  0
  2  3  1  0  0  0  0
  3  4  2  0  0  0  0
  3 16  1  0  0  0  0
  4  5  1  0  0  0  0
  4 17  1  0  0  0  0
  5  6  2  0  0  0  0
  5 29  1  0  0  0  0
  6  7  1  0  0  0  0
  7 12  1  0  0  0  0
  7  8  1  0  0  0  0
  7 18  1  0  0  0  0
  8  9  1  0  0  0  0
  8 19  1  0  0  0  0
  8 20  1  0  0  0  0
  9 10  1  0  0  0  0
  9 21  1  0  0  0  0
  9 22  1  0  0  0  0
 10 11  1  0  0  0  0
 10 23  1  0  0  0  0
 10 24  1  0  0  0  0
 11 12  1  0  0  0  0
 11 25  1  0  0  0  0
 11 28  1  0  0  0  0
 12 26  1  0  0  0  0
 12 27  1  0  0  0  0
M  CHG  1   5   1
M  CHG  1  11   1
M  END
> <s_m_source_file>
AV-unprocessed.smi

> <i_m_source_file_index>
3125

> <i_lp_mmshare_version>
43012

> <i_f3d_flags>
0

> <s_epik_input>
W0NIM11uMVtjSF1bY0hdbmMxW0NAQEhdMltDSDJdW0NIMl1bQ0gyXVtOSF1bQ0gyXTI=

> <s_epik_cmdline>
J2VwaWtfcHl0aG9uJywgJy1waCcsICc3LjAnLCAnLXRuJywgJzgnLCAnLW1hJywgJzIwMCcsICctbWV0YWxfYmluZGluZycsICctaW1hZScsICc8aW5maWxlLm1hZT4nLCAnLW9tYWUnLCAnPG91dGZpbGUubWFlPic=

> <r_lp_tautomer_probability>
1

> <r_epik_Ionization_Penalty>
0.803551

> <r_epik_Ionization_Penalty_Charging>
0.000747377

> <r_epik_Ionization_Penalty_Neutral>
0.802804

> <r_epik_State_Penalty>
0.360941

> <r_epik_Charging_Adjusted_Penalty>
0.361688

> <i_epik_Tot_Q>
2

> <i_epik_Tot_abs_Q>
2

> <r_epik_Metal_State_Penalty>
3.98724

> <b_epik_Metal_Only>
0

> <s_lp_Force_Field>
OPLS_2005

> <r_lp_Energy>
24.5109

> <b_lp_Chiralities_Consistent>
1

> <s_lp_Variant>
AV-unprocessed.smi:3125-2

> <Gold.Version>
5.8.1

> <Gold.Id.Protein>
6NUR|6NUR_protein|mol2

> <Gold.PLP.Fitness>
36.1360

> <Gold.PLP.PLP>
-24.3704

> <Gold.PLP.part.hbond>
-1.7825

> <Gold.PLP.part.metal>
0.0000

> <Gold.PLP.part.buried>
-3.7869

> <Gold.PLP.part.nonpolar>
-19.7087

> <Gold.PLP.part.repulsive>
0.1146

> <Gold.PLP.ligand.clash>
0.0000

> <Gold.PLP.ligand.torsion>
0.1252

> <Gold.PLP.Chemscore.Hbond>
3.0000

> <Gold.PLP.Chemscore.CHOScore>
0.9980

> <Gold.PLP.Chemscore.Metal>
0.0000

> <Gold.Chemscore.Hbonds>
donor molecule, donor type, donor heavy atom, donor atom, acceptor molecule, acceptor atom, score
      L1  H     5    29       P1  7948  1.98
      L1  H    11    28       P1 10747  1.00
      L1  C     3    16       P1 10175  1.00

> <Gold.PLP.Chemscore.Internal.Correction>
0.0218

> <Gold.Rescore>
     Score         DG    S(hbond)    S(metal)    S(lipo)     H(rot)  DE(clash)    DE(int)     intcor
     15.84     -15.95       1.94        0.00      56.09       1.00       0.06       0.06       ----

> <Gold.Chemscore.Fitness>
15.8367

> <Gold.Chemscore.DG>
-15.9545

> <Gold.Chemscore.ZeroCoef>
-5.4800

> <Gold.Chemscore.Hbond>
1.9377

> <Gold.Chemscore.Metal>
0.0000

> <Gold.Chemscore.Lipo>
56.0895

> <Gold.Chemscore.Internal_Hbond>
0.0000

> <Gold.Chemscore.DEClash>
0.0585

> <Gold.Chemscore.DEInternal>
0.0593

> <Gold.Chemscore.Rot>
1.0000

> <Gold.Chemscore.Internal.Correction>
   9.000000E+99

> <Gold.Chemscore.Hbonds>
donor molecule, donor type, donor heavy atom, donor atom, acceptor molecule, acceptor atom, score
      L1  H     5    29       P1  7948  0.94
      L1  H    11    28       P1 10747  0.89

> <Gold.Chemscore.Hbond.Weighted>
-6.4720

> <Gold.Chemscore.Metal.Weighted>
-0.0000

> <Gold.Chemscore.Lipo.Weighted>
-6.5625

> <Gold.Chemscore.Internal_Hbond.Weighted>
0.0000

> <Gold.Chemscore.DEClash.Weighted>
0.0585

> <Gold.Chemscore.DEInternal.Weighted>
0.0593

> <Gold.Chemscore.Rot.Weighted>
2.5600

> <Gold.Chemscore.Internal.Correction.Weighted>
   9.000000E+99

> <Gold.Protein.RotatedTorsions>
[ 6907 6896 6895 6894 ] final  125.47 input  -60.11 | X-H torsion
[ 7974 7965 7964 7962 ] final  -39.96 input  175.53 | X-H torsion
[ 8008 7997 7996 7995 ] final    5.62 input   59.86 | X-H torsion
[ 10167 10162 10161 10158 ] final  -98.23 input  -65.29 | X-H torsion
[ 10718 10713 10712 10709 ] final  -34.91 input   66.30 | X-H torsion
[ 10763 10752 10751 10750 ] final  101.81 input  -60.55 | X-H torsion
[ 11005 11000 10999 10996 ] final -126.16 input  -57.11 | X-H torsion

> <Gold.Protein.ActiveResidues>
 VAL166  LYS551  ARG553  GLY616  TRP617  ASP618  TYR619  PRO620  LYS621  CYS622 
 ASP623  PHE694  ASN695  SER759  ASP760  ASP761  ALA762  ILE779  LEU786  VAL792 
 PHE793  MET794  SER795  GLU796  ALA797  LYS798  CYS799  TRP800  GLU811  SER814 

> <Gold.Protein.RotatedAtoms>
  152.3989  133.6788  159.6299 H   0  0  0  0  0  0  0  0  0  0  0  0  # atno 6907 bound_to 6896
  150.7884  133.8825  159.3299 H   0  0  0  0  0  0  0  0  0  0  0  0  # atno 6908 bound_to 6896
  151.6595  135.0993  160.0228 H   0  0  0  0  0  0  0  0  0  0  0  0  # atno 6909 bound_to 6896
  146.0348  140.6685  142.9115 H   0  0  0  0  0  0  0  0  0  0  0  0  # atno 7974 bound_to 7965
  154.7307  140.2730  155.6458 H   0  0  0  0  0  0  0  0  0  0  0  0  # atno 8008 bound_to 7997
  156.2849  140.2716  156.1932 H   0  0  0  0  0  0  0  0  0  0  0  0  # atno 8009 bound_to 7997
  155.0385  140.0371  157.2490 H   0  0  0  0  0  0  0  0  0  0  0  0  # atno 8010 bound_to 7997
  140.2751  143.3318  152.0496 H   0  0  0  0  0  0  0  0  0  0  0  0  # atno 10167 bound_to 10162
  156.3449  130.4299  149.7755 H   0  0  0  0  0  0  0  0  0  0  0  0  # atno 10718 bound_to 10713
  153.3315  135.4032  155.1499 H   0  0  0  0  0  0  0  0  0  0  0  0  # atno 10763 bound_to 10752
  154.8624  135.3611  154.5464 H   0  0  0  0  0  0  0  0  0  0  0  0  # atno 10764 bound_to 10752
  153.5903  135.7074  153.5485 H   0  0  0  0  0  0  0  0  0  0  0  0  # atno 10765 bound_to 10752
  140.9704  134.0814  157.3876 H   0  0  0  0  0  0  0  0  0  0  0  0  # atno 11005 bound_to 11000
  144.7047  140.3801  143.7128 LP  0  0  0  0  0  0  0  0  0  0  0  0  # atno 17320 bound_to 7965
  145.6982  139.1655  143.2608 LP  0  0  0  0  0  0  0  0  0  0  0  0  # atno 17321 bound_to 7965
  139.4978  144.6630  151.6421 LP  0  0  0  0  0  0  0  0  0  0  0  0  # atno 17342 bound_to 10162
  140.5858  143.9867  150.6294 LP  0  0  0  0  0  0  0  0  0  0  0  0  # atno 17343 bound_to 10162
  156.4977  130.8114  151.3120 LP  0  0  0  0  0  0  0  0  0  0  0  0  # atno 17370 bound_to 10713
  157.7452  130.9955  150.2745 LP  0  0  0  0  0  0  0  0  0  0  0  0  # atno 17371 bound_to 10713
  139.8910  135.0115  156.6767 LP  0  0  0  0  0  0  0  0  0  0  0  0  # atno 17394 bound_to 11000
  140.7337  133.9036  155.8229 LP  0  0  0  0  0  0  0  0  0  0  0  0  # atno 17395 bound_to 11000

$$$$
