AV-unprocessed.smi:1419|AV-procd|sdf|5784|dock1
  -GOLD-   22720 5433D 1   1.00000     0.00000
 Structure written by MMmdl.
 41 42  0  0  0  0  0  0  0  0  1 V2000
  148.5143  140.6527  157.5401 C   0  0  0  0  0  0  0  0  0  0  0  0
  149.0641  141.7459  156.6138 C   0  0  2  0  0  0  0  0  0  0  0  0
  149.6506  141.1396  155.3211 C   0  0  0  0  0  0  0  0  0  0  0  0
  148.6500  140.4813  154.5006 N   0  0  0  0  0  0  0  0  0  0  0  0
  147.5600  141.0688  153.8715 C   0  0  0  0  0  0  0  0  0  0  0  0
  146.8994  140.0609  153.2064 C   0  0  0  0  0  0  0  0  0  0  0  0
  147.5507  138.8493  153.4254 N   0  0  0  0  0  0  0  0  0  0  0  0
  148.5721  139.1766  154.2058 C   0  0  0  0  0  0  0  0  0  0  0  0
  150.0773  142.5130  157.3374 N   0  0  0  0  0  0  0  0  0  0  0  0
  151.1573  142.0095  157.9610 C   0  0  0  0  0  0  0  0  0  0  0  0
  151.4081  140.8038  157.9731 O   0  0  0  0  0  0  0  0  0  0  0  0
  151.9242  142.9313  158.5938 N   0  0  0  0  0  0  0  0  0  0  0  0
  151.8560  144.3917  158.4488 C   0  0  0  0  0  0  0  0  0  0  0  0
  151.3583  145.0072  159.7730 C   0  0  1  0  0  0  0  0  0  0  0  0
  149.8732  144.7326  160.0681 C   0  0  0  0  0  0  0  0  0  0  0  0
  152.1941  144.5737  160.8512 O   0  0  0  0  0  0  0  0  0  0  0  0
  152.3626  143.1589  160.9778 C   0  0  2  0  0  0  0  0  0  0  0  0
  153.3340  142.9001  162.1345 C   0  0  0  0  0  0  0  0  0  0  0  0
  152.8789  142.5791  159.6463 C   0  0  0  0  0  0  0  0  0  0  0  0
  147.7324  140.0766  157.0445 H   0  0  0  0  0  0  0  0  0  0  0  0
  148.0817  141.0830  158.4440 H   0  0  0  0  0  0  0  0  0  0  0  0
  149.2976  139.9569  157.8435 H   0  0  0  0  0  0  0  0  0  0  0  0
  148.2262  142.3935  156.3505 H   0  0  0  0  0  0  0  0  0  0  0  0
  150.1440  141.9108  154.7272 H   0  0  0  0  0  0  0  0  0  0  0  0
  150.4135  140.3999  155.5674 H   0  0  0  0  0  0  0  0  0  0  0  0
  147.3572  142.1275  153.9376 H   0  0  0  0  0  0  0  0  0  0  0  0
  146.0102  140.1136  152.5957 H   0  0  0  0  0  0  0  0  0  0  0  0
  149.2839  138.4493  154.5674 H   0  0  0  0  0  0  0  0  0  0  0  0
  149.9404  143.5122  157.3800 H   0  0  0  0  0  0  0  0  0  0  0  0
  152.8561  144.7655  158.2248 H   0  0  0  0  0  0  0  0  0  0  0  0
  151.2333  144.7304  157.6209 H   0  0  0  0  0  0  0  0  0  0  0  0
  151.4779  146.0889  159.7061 H   0  0  0  0  0  0  0  0  0  0  0  0
  149.2395  145.1369  159.2784 H   0  0  0  0  0  0  0  0  0  0  0  0
  149.5713  145.1995  161.0057 H   0  0  0  0  0  0  0  0  0  0  0  0
  149.6583  143.6680  160.1440 H   0  0  0  0  0  0  0  0  0  0  0  0
  151.4065  142.6988  161.2296 H   0  0  0  0  0  0  0  0  0  0  0  0
  153.4929  141.8317  162.2821 H   0  0  0  0  0  0  0  0  0  0  0  0
  152.9463  143.3101  163.0673 H   0  0  0  0  0  0  0  0  0  0  0  0
  154.3042  143.3603  161.9459 H   0  0  0  0  0  0  0  0  0  0  0  0
  153.0236  141.5021  159.7419 H   0  0  0  0  0  0  0  0  0  0  0  0
  153.8585  142.9933  159.4030 H   0  0  0  0  0  0  0  0  0  0  0  0
  1  2  1  0  0  0  0
  1 20  1  0  0  0  0
  1 21  1  0  0  0  0
  1 22  1  0  0  0  0
  2  3  1  0  0  0  0
  2  9  1  0  0  0  0
  2 23  1  0  0  0  0
  3  4  1  0  0  0  0
  3 24  1  0  0  0  0
  3 25  1  0  0  0  0
  4  8  1  0  0  0  0
  4  5  1  0  0  0  0
  5  6  2  0  0  0  0
  5 26  1  0  0  0  0
  6  7  1  0  0  0  0
  6 27  1  0  0  0  0
  7  8  2  0  0  0  0
  8 28  1  0  0  0  0
  9 10  1  0  0  0  0
  9 29  1  0  0  0  0
 10 11  2  0  0  0  0
 10 12  1  0  0  0  0
 12 19  1  0  0  0  0
 12 13  1  0  0  0  0
 13 14  1  0  0  0  0
 13 30  1  0  0  0  0
 13 31  1  0  0  0  0
 14 15  1  0  0  0  0
 14 16  1  0  0  0  0
 14 32  1  0  0  0  0
 15 33  1  0  0  0  0
 15 34  1  0  0  0  0
 15 35  1  0  0  0  0
 16 17  1  0  0  0  0
 17 18  1  0  0  0  0
 17 19  1  0  0  0  0
 17 36  1  0  0  0  0
 18 37  1  0  0  0  0
 18 38  1  0  0  0  0
 18 39  1  0  0  0  0
 19 40  1  0  0  0  0
 19 41  1  0  0  0  0
M  END
> <s_m_source_file>
AV-unprocessed.smi

> <i_m_source_file_index>
1419

> <i_lp_mmshare_version>
43012

> <i_f3d_flags>
0

> <s_epik_input>
W2NIXTFuW2NIXVtjSF1uMVtDSDJdW0NAQEhdKFtDSDNdKVtOSF1DKD1PKU4yW0NIMl1bQ0BASF0oW0NIM10pT1tDQEBIXShbQ0gzXSlbQ0gyXTI=

> <s_epik_cmdline>
J2VwaWtfcHl0aG9uJywgJy1waCcsICc3LjAnLCAnLXRuJywgJzgnLCAnLW1hJywgJzIwMCcsICctbWV0YWxfYmluZGluZycsICctaW1hZScsICc8aW5maWxlLm1hZT4nLCAnLW9tYWUnLCAnPG91dGZpbGUubWFlPic=

> <r_lp_tautomer_probability>
1

> <r_epik_Ionization_Penalty>
0.625124

> <r_epik_Ionization_Penalty_Charging>
0.625093

> <r_epik_Ionization_Penalty_Neutral>
3.17415e-05

> <r_epik_State_Penalty>
0.641455

> <r_epik_Charging_Adjusted_Penalty>
1.26655

> <i_epik_Tot_Q>
0

> <i_epik_Tot_abs_Q>
0

> <r_epik_Metal_State_Penalty>
0.307717

> <b_epik_Metal_Only>
0

> <s_lp_Force_Field>
OPLS_2005

> <r_lp_Energy>
30.2714

> <b_lp_Chiralities_Consistent>
1

> <s_lp_Variant>
AV-unprocessed.smi:1419-11

> <Gold.Version>
5.8.1

> <Gold.Id.Protein>
6NUR|6NUR_protein|mol2

> <Gold.PLP.Fitness>
46.8966

> <Gold.PLP.PLP>
-43.4754

> <Gold.PLP.part.hbond>
-1.0000

> <Gold.PLP.part.metal>
0.0000

> <Gold.PLP.part.buried>
-3.5270

> <Gold.PLP.part.nonpolar>
-38.9687

> <Gold.PLP.part.repulsive>
0.7202

> <Gold.PLP.ligand.clash>
0.0000

> <Gold.PLP.ligand.torsion>
0.1987

> <Gold.PLP.Chemscore.Hbond>
0.2413

> <Gold.PLP.Chemscore.CHOScore>
1.0000

> <Gold.PLP.Chemscore.Metal>
0.0000

> <Gold.Chemscore.Hbonds>
donor molecule, donor type, donor heavy atom, donor atom, acceptor molecule, acceptor atom, score
      L1  H     9    29       P1  8028  0.11
      L1  C     6    27       P1 10175  1.00

> <Gold.PLP.Chemscore.Internal.Correction>
0.0946

> <Gold.Rescore>
     Score         DG    S(hbond)    S(metal)    S(lipo)     H(rot)  DE(clash)    DE(int)     intcor
     13.70     -15.10       0.72        0.00      96.06       1.58       0.10       1.29       ----

> <Gold.Chemscore.Fitness>
13.7009

> <Gold.Chemscore.DG>
-15.0956

> <Gold.Chemscore.ZeroCoef>
-5.4800

> <Gold.Chemscore.Hbond>
0.7226

> <Gold.Chemscore.Metal>
0.0000

> <Gold.Chemscore.Lipo>
96.0587

> <Gold.Chemscore.Internal_Hbond>
0.0000

> <Gold.Chemscore.DEClash>
0.1043

> <Gold.Chemscore.DEInternal>
1.2903

> <Gold.Chemscore.Rot>
1.5769

> <Gold.Chemscore.Internal.Correction>
   9.000000E+99

> <Gold.Chemscore.Hbonds>
donor molecule, donor type, donor heavy atom, donor atom, acceptor molecule, acceptor atom, score
      L1  H     9    29       P1  8028  0.10

> <Gold.Chemscore.Hbond.Weighted>
-2.4136

> <Gold.Chemscore.Metal.Weighted>
-0.0000

> <Gold.Chemscore.Lipo.Weighted>
-11.2389

> <Gold.Chemscore.Internal_Hbond.Weighted>
0.0000

> <Gold.Chemscore.DEClash.Weighted>
0.1043

> <Gold.Chemscore.DEInternal.Weighted>
1.2903

> <Gold.Chemscore.Rot.Weighted>
4.0369

> <Gold.Chemscore.Internal.Correction.Weighted>
   9.000000E+99

> <Gold.Protein.RotatedTorsions>
[ 6907 6896 6895 6894 ] final   93.41 input  -60.11 | X-H torsion
[ 7974 7965 7964 7962 ] final  -49.15 input  175.53 | X-H torsion
[ 8008 7997 7996 7995 ] final -159.48 input   59.86 | X-H torsion
[ 10167 10162 10161 10158 ] final  165.93 input  -65.29 | X-H torsion
[ 10718 10713 10712 10709 ] final  -29.27 input   66.30 | X-H torsion
[ 10763 10752 10751 10750 ] final   70.37 input  -60.55 | X-H torsion
[ 11005 11000 10999 10996 ] final   40.16 input  -57.11 | X-H torsion

> <Gold.Protein.ActiveResidues>
 VAL166  LYS551  ARG553  GLY616  TRP617  ASP618  TYR619  PRO620  LYS621  CYS622 
 ASP623  PHE694  ASN695  SER759  ASP760  ASP761  ALA762  ILE779  LEU786  VAL792 
 PHE793  MET794  SER795  GLU796  ALA797  LYS798  CYS799  TRP800  GLU811  SER814 

> <Gold.Protein.RotatedAtoms>
  152.5452  134.1352  159.8455 H   0  0  0  0  0  0  0  0  0  0  0  0  # atno 6907 bound_to 6896
  151.1393  133.4975  159.2604 H   0  0  0  0  0  0  0  0  0  0  0  0  # atno 6908 bound_to 6896
  151.1590  135.0274  159.8756 H   0  0  0  0  0  0  0  0  0  0  0  0  # atno 6909 bound_to 6896
  145.9436  140.7639  142.9539 H   0  0  0  0  0  0  0  0  0  0  0  0  # atno 7974 bound_to 7965
  155.7632  140.0842  157.2145 H   0  0  0  0  0  0  0  0  0  0  0  0  # atno 8008 bound_to 7997
  154.4002  140.1539  156.2913 H   0  0  0  0  0  0  0  0  0  0  0  0  # atno 8009 bound_to 7997
  155.8819  140.3420  155.5897 H   0  0  0  0  0  0  0  0  0  0  0  0  # atno 8010 bound_to 7997
  139.4915  144.4080  151.9332 H   0  0  0  0  0  0  0  0  0  0  0  0  # atno 10167 bound_to 10162
  156.4146  130.4414  149.7227 H   0  0  0  0  0  0  0  0  0  0  0  0  # atno 10718 bound_to 10713
  153.0338  135.5176  154.7430 H   0  0  0  0  0  0  0  0  0  0  0  0  # atno 10763 bound_to 10752
  154.6424  135.2914  155.0090 H   0  0  0  0  0  0  0  0  0  0  0  0  # atno 10764 bound_to 10752
  154.1003  135.6637  153.4919 H   0  0  0  0  0  0  0  0  0  0  0  0  # atno 10765 bound_to 10752
  140.1958  134.3931  155.8122 H   0  0  0  0  0  0  0  0  0  0  0  0  # atno 11005 bound_to 11000
  144.6783  140.2320  143.7354 LP  0  0  0  0  0  0  0  0  0  0  0  0  # atno 17320 bound_to 7965
  145.8266  139.2067  143.1907 LP  0  0  0  0  0  0  0  0  0  0  0  0  # atno 17321 bound_to 7965
  140.3521  144.3076  150.5947 LP  0  0  0  0  0  0  0  0  0  0  0  0  # atno 17342 bound_to 10162
  140.5476  143.2212  151.7981 LP  0  0  0  0  0  0  0  0  0  0  0  0  # atno 17343 bound_to 10162
  156.4192  130.7760  151.2777 LP  0  0  0  0  0  0  0  0  0  0  0  0  # atno 17370 bound_to 10713
  157.7507  131.0188  150.3640 LP  0  0  0  0  0  0  0  0  0  0  0  0  # atno 17371 bound_to 10713
  141.2227  133.7069  156.8173 LP  0  0  0  0  0  0  0  0  0  0  0  0  # atno 17394 bound_to 11000
  140.2109  134.8828  157.3273 LP  0  0  0  0  0  0  0  0  0  0  0  0  # atno 17395 bound_to 11000

$$$$
