AV-unprocessed.smi:33|AV-procd|sdf|202|dock10
  -GOLD-   2262015483D 1   1.00000     0.00000
 Structure written by MMmdl.
 67 72  0  0  0  0  0  0  0  0  1 V2000
  152.3372  139.7717  156.7178 O   0  0  0  0  0  0  0  0  0  0  0  0
  151.6894  140.8079  156.8811 C   0  0  0  0  0  0  0  0  0  0  0  0
  150.5915  141.1211  156.1653 O   0  0  0  0  0  0  0  0  0  0  0  0
  150.1886  140.2900  155.0885 C   0  0  0  0  0  0  0  0  0  0  0  0
  148.6709  140.3893  154.8985 C   0  0  1  0  0  0  0  0  0  0  0  0
  148.3185  141.6972  154.4732 O   0  0  0  0  0  0  0  0  0  0  0  0
  147.0471  141.6625  153.9029 C   0  0  2  0  0  0  0  0  0  0  0  0
  146.0564  141.9700  154.9895 N   0  0  0  0  0  0  0  0  0  0  0  0
  145.8087  141.3118  156.1790 C   0  0  0  0  0  0  0  0  0  0  0  0
  144.8945  141.8509  156.9396 N   0  0  0  0  0  0  0  0  0  0  0  0
  144.4987  142.9806  156.2373 C   0  0  0  0  0  0  0  0  0  0  0  0
  143.5614  144.0200  156.4823 C   0  0  0  0  0  0  0  0  0  0  0  0
  142.7894  144.0647  157.5930 N   0  0  0  0  0  0  0  0  0  0  0  0
  143.0131  145.1787  158.5275 C   0  0  0  0  0  0  0  0  0  0  0  0
  144.1046  145.7513  158.5375 O   0  0  0  0  0  0  0  0  0  0  0  0
  141.9470  145.5836  159.5066 C   0  0  0  0  0  0  0  0  0  0  0  0
  142.3080  146.0348  160.7953 C   0  0  0  0  0  0  0  0  0  0  0  0
  141.3158  146.4239  161.7160 C   0  0  0  0  0  0  0  0  0  0  0  0
  139.9575  146.3820  161.3481 C   0  0  0  0  0  0  0  0  0  0  0  0
  139.5923  145.9623  160.0548 C   0  0  0  0  0  0  0  0  0  0  0  0
  140.5838  145.5738  159.1332 C   0  0  0  0  0  0  0  0  0  0  0  0
  141.8012  142.9892  157.7585 C   0  0  0  0  0  0  0  0  0  0  0  0
  141.4168  142.6849  158.8893 O   0  0  0  0  0  0  0  0  0  0  0  0
  141.2923  142.2319  156.5653 C   0  0  0  0  0  0  0  0  0  0  0  0
  141.4196  140.8265  156.5126 C   0  0  0  0  0  0  0  0  0  0  0  0
  140.9314  140.1110  155.4022 C   0  0  0  0  0  0  0  0  0  0  0  0
  140.2952  140.7936  154.3478 C   0  0  0  0  0  0  0  0  0  0  0  0
  140.1386  142.1915  154.4080 C   0  0  0  0  0  0  0  0  0  0  0  0
  140.6288  142.9082  155.5167 C   0  0  0  0  0  0  0  0  0  0  0  0
  143.4447  145.0056  155.5551 N   0  0  0  0  0  0  0  0  0  0  0  0
  144.1995  144.9716  154.4528 C   0  0  0  0  0  0  0  0  0  0  0  0
  145.1081  144.0626  154.0898 N   0  0  0  0  0  0  0  0  0  0  0  0
  145.2274  143.0714  155.0205 C   0  0  0  0  0  0  0  0  0  0  0  0
  146.8482  140.2445  153.3303 C   0  0  1  0  0  0  0  0  0  0  0  0
  146.7450  140.2466  151.9211 O   0  0  0  0  0  0  0  0  0  0  0  0
  148.1138  139.5154  153.7738 C   0  0  2  0  0  0  0  0  0  0  0  0
  147.8411  138.2812  154.1987 F   0  0  0  0  0  0  0  0  0  0  0  0
  152.0431  141.8475  157.8903 C   0  0  0  0  0  0  0  0  0  0  0  0
  152.6655  141.4555  159.0986 C   0  0  0  0  0  0  0  0  0  0  0  0
  153.0146  142.4137  160.0700 C   0  0  0  0  0  0  0  0  0  0  0  0
  152.7449  143.7761  159.8452 C   0  0  0  0  0  0  0  0  0  0  0  0
  152.1249  144.1791  158.6479 C   0  0  0  0  0  0  0  0  0  0  0  0
  151.7754  143.2221  157.6748 C   0  0  0  0  0  0  0  0  0  0  0  0
  150.6930  140.6162  154.1779 H   0  0  0  0  0  0  0  0  0  0  0  0
  150.4845  139.2566  155.2741 H   0  0  0  0  0  0  0  0  0  0  0  0
  148.1632  140.1789  155.8404 H   0  0  0  0  0  0  0  0  0  0  0  0
  146.9189  142.4583  153.1680 H   0  0  0  0  0  0  0  0  0  0  0  0
  146.3256  140.4112  156.4762 H   0  0  0  0  0  0  0  0  0  0  0  0
  143.3473  146.0698  161.0893 H   0  0  0  0  0  0  0  0  0  0  0  0
  141.5975  146.7550  162.7048 H   0  0  0  0  0  0  0  0  0  0  0  0
  139.1971  146.6785  162.0553 H   0  0  0  0  0  0  0  0  0  0  0  0
  138.5511  145.9385  159.7689 H   0  0  0  0  0  0  0  0  0  0  0  0
  140.2913  145.2568  158.1426 H   0  0  0  0  0  0  0  0  0  0  0  0
  141.9064  140.2930  157.3163 H   0  0  0  0  0  0  0  0  0  0  0  0
  141.0445  139.0377  155.3599 H   0  0  0  0  0  0  0  0  0  0  0  0
  139.9206  140.2439  153.4970 H   0  0  0  0  0  0  0  0  0  0  0  0
  139.6412  142.7145  153.6047 H   0  0  0  0  0  0  0  0  0  0  0  0
  140.4991  143.9803  155.5550 H   0  0  0  0  0  0  0  0  0  0  0  0
  144.0552  145.7898  153.7627 H   0  0  0  0  0  0  0  0  0  0  0  0
  145.9490  139.7828  153.7374 H   0  0  0  0  0  0  0  0  0  0  0  0
  147.6103  140.1381  151.5564 H   0  0  0  0  0  0  0  0  0  0  0  0
  148.8341  139.4394  152.9573 H   0  0  0  0  0  0  0  0  0  0  0  0
  152.8835  140.4153  159.2938 H   0  0  0  0  0  0  0  0  0  0  0  0
  153.4901  142.1019  160.9884 H   0  0  0  0  0  0  0  0  0  0  0  0
  153.0130  144.5106  160.5903 H   0  0  0  0  0  0  0  0  0  0  0  0
  151.9166  145.2247  158.4751 H   0  0  0  0  0  0  0  0  0  0  0  0
  151.3004  143.5652  156.7672 H   0  0  0  0  0  0  0  0  0  0  0  0
  1  2  2  0  0  0  0
  2  3  1  0  0  0  0
  2 38  1  0  0  0  0
  3  4  1  0  0  0  0
  4  5  1  0  0  0  0
  4 44  1  0  0  0  0
  4 45  1  0  0  0  0
  5 36  1  0  0  0  0
  5  6  1  0  0  0  0
  5 46  1  0  0  0  0
  6  7  1  0  0  0  0
  7  8  1  0  0  0  0
  7 34  1  0  0  0  0
  7 47  1  0  0  0  0
  8 33  1  0  0  0  0
  8  9  1  0  0  0  0
  9 10  2  0  0  0  0
  9 48  1  0  0  0  0
 10 11  1  0  0  0  0
 11 33  2  0  0  0  0
 11 12  1  0  0  0  0
 12 13  1  0  0  0  0
 12 30  2  0  0  0  0
 13 14  1  0  0  0  0
 13 22  1  0  0  0  0
 14 15  2  0  0  0  0
 14 16  1  0  0  0  0
 16 21  1  0  0  0  0
 16 17  2  0  0  0  0
 17 18  1  0  0  0  0
 17 49  1  0  0  0  0
 18 19  2  0  0  0  0
 18 50  1  0  0  0  0
 19 20  1  0  0  0  0
 19 51  1  0  0  0  0
 20 21  2  0  0  0  0
 20 52  1  0  0  0  0
 21 53  1  0  0  0  0
 22 23  2  0  0  0  0
 22 24  1  0  0  0  0
 24 29  1  0  0  0  0
 24 25  2  0  0  0  0
 25 26  1  0  0  0  0
 25 54  1  0  0  0  0
 26 27  2  0  0  0  0
 26 55  1  0  0  0  0
 27 28  1  0  0  0  0
 27 56  1  0  0  0  0
 28 29  2  0  0  0  0
 28 57  1  0  0  0  0
 29 58  1  0  0  0  0
 30 31  1  0  0  0  0
 31 32  2  0  0  0  0
 31 59  1  0  0  0  0
 32 33  1  0  0  0  0
 34 35  1  0  0  0  0
 34 36  1  0  0  0  0
 34 60  1  0  0  0  0
 35 61  1  0  0  0  0
 36 37  1  0  0  0  0
 36 62  1  0  0  0  0
 38 43  1  0  0  0  0
 38 39  2  0  0  0  0
 39 40  1  0  0  0  0
 39 63  1  0  0  0  0
 40 41  2  0  0  0  0
 40 64  1  0  0  0  0
 41 42  1  0  0  0  0
 41 65  1  0  0  0  0
 42 43  2  0  0  0  0
 42 66  1  0  0  0  0
 43 67  1  0  0  0  0
M  END
> <s_m_source_file>
AV-unprocessed.smi

> <i_m_source_file_index>
33

> <i_lp_mmshare_version>
43012

> <i_f3d_flags>
0

> <s_epik_input>
W2NIXTFbY0hdW2NIXVtjSF1bY0hdYzFDKD1PKU9bQ0gyXVtDQEBIXTJPW0NASF0oW0NAQEhdKFtPSF0pW0NAQEhdMkYpbihbY0hdbjMpYyhjMzQpbltjSF1uYzROKEMoPU8pYzVbY0hdW2NIXVtjSF1bY0hdW2NIXTUpQyg9TyljNltjSF1bY0hdW2NIXVtjSF1bY0hdNg==

> <s_epik_cmdline>
J2VwaWtfcHl0aG9uJywgJy1waCcsICc3LjAnLCAnLXRuJywgJzgnLCAnLW1hJywgJzIwMCcsICctbWV0YWxfYmluZGluZycsICctaW1hZScsICc8aW5maWxlLm1hZT4nLCAnLW9tYWUnLCAnPG91dGZpbGUubWFlPic=

> <r_lp_tautomer_probability>
1

> <r_epik_Ionization_Penalty>
0.00067664

> <r_epik_Ionization_Penalty_Charging>
0

> <r_epik_Ionization_Penalty_Neutral>
0.00067664

> <r_epik_State_Penalty>
0.000428095

> <r_epik_Charging_Adjusted_Penalty>
0.000428095

> <i_epik_Tot_Q>
0

> <i_epik_Tot_abs_Q>
0

> <r_epik_Metal_State_Penalty>
-0

> <b_epik_Metal_Only>
0

> <s_epik_Chemistry_Notes>
This compound has an ester and may undergo hydrolysis at high or low pH. This compound contains an acetal/aminal-like group ( X-CH(R)-Y where X, Y are N, S, or O) that may be acid/base labile, releasing an aldehyde.

> <s_lp_Force_Field>
OPLS_2005

> <r_lp_Energy>
69.1038

> <b_lp_Chiralities_Consistent>
1

> <s_lp_Variant>
AV-unprocessed.smi:33-4

> <Gold.Version>
5.8.1

> <Gold.Id.Protein>
6NUR|6NUR_protein|mol2

> <Gold.PLP.Fitness>
63.3089

> <Gold.PLP.PLP>
-61.4546

> <Gold.PLP.part.hbond>
-2.1977

> <Gold.PLP.part.metal>
0.0000

> <Gold.PLP.part.buried>
-9.1560

> <Gold.PLP.part.nonpolar>
-49.6578

> <Gold.PLP.part.repulsive>
0.5293

> <Gold.PLP.ligand.clash>
0.0000

> <Gold.PLP.ligand.torsion>
3.9255

> <Gold.PLP.Chemscore.Hbond>
1.9913

> <Gold.PLP.Chemscore.CHOScore>
0.0000

> <Gold.PLP.Chemscore.Metal>
0.0000

> <Gold.Chemscore.Hbonds>
donor molecule, donor type, donor heavy atom, donor atom, acceptor molecule, acceptor atom, score
      L1  H    35    61       P1  7957  1.00
      P1  H  7997  8008       L1     1  0.91

> <Gold.PLP.Chemscore.Internal.Correction>
3.7316

> <Gold.Rescore>
     Score         DG    S(hbond)    S(metal)    S(lipo)     H(rot)  DE(clash)    DE(int)     intcor
     16.51     -21.18       1.97        0.00     133.05       2.52       0.05       4.62       ----

> <Gold.Chemscore.Fitness>
16.5085

> <Gold.Chemscore.DG>
-21.1766

> <Gold.Chemscore.ZeroCoef>
-5.4800

> <Gold.Chemscore.Hbond>
1.9740

> <Gold.Chemscore.Metal>
0.0000

> <Gold.Chemscore.Lipo>
133.0499

> <Gold.Chemscore.Internal_Hbond>
0.0000

> <Gold.Chemscore.DEClash>
0.0454

> <Gold.Chemscore.DEInternal>
4.6227

> <Gold.Chemscore.Rot>
2.5247

> <Gold.Chemscore.Internal.Correction>
   9.000000E+99

> <Gold.Chemscore.Hbonds>
donor molecule, donor type, donor heavy atom, donor atom, acceptor molecule, acceptor atom, score
      L1  H    35    61       P1  7957  0.96
      P1  H  7997  8008       L1     1  0.74

> <Gold.Chemscore.Hbond.Weighted>
-6.5931

> <Gold.Chemscore.Metal.Weighted>
-0.0000

> <Gold.Chemscore.Lipo.Weighted>
-15.5668

> <Gold.Chemscore.Internal_Hbond.Weighted>
0.0000

> <Gold.Chemscore.DEClash.Weighted>
0.0454

> <Gold.Chemscore.DEInternal.Weighted>
4.6227

> <Gold.Chemscore.Rot.Weighted>
6.4633

> <Gold.Chemscore.Internal.Correction.Weighted>
   9.000000E+99

> <Gold.Protein.RotatedTorsions>
[ 6907 6896 6895 6894 ] final   -9.09 input  -60.11 | X-H torsion
[ 7974 7965 7964 7962 ] final  123.01 input  175.53 | X-H torsion
[ 8008 7997 7996 7995 ] final  -62.46 input   59.86 | X-H torsion
[ 10167 10162 10161 10158 ] final  -56.56 input  -65.29 | X-H torsion
[ 10718 10713 10712 10709 ] final -155.37 input   66.30 | X-H torsion
[ 10763 10752 10751 10750 ] final  146.93 input  -60.55 | X-H torsion
[ 11005 11000 10999 10996 ] final -136.16 input  -57.11 | X-H torsion

> <Gold.Protein.ActiveResidues>
 VAL166  LYS551  ARG553  GLY616  TRP617  ASP618  TYR619  PRO620  LYS621  CYS622 
 ASP623  PHE694  ASN695  SER759  ASP760  ASP761  ALA762  ILE779  LEU786  VAL792 
 PHE793  MET794  SER795  GLU796  ALA797  LYS798  CYS799  TRP800  GLU811  SER814 

> <Gold.Protein.RotatedAtoms>
  151.4232  135.1000  159.9619 H   0  0  0  0  0  0  0  0  0  0  0  0  # atno 6907 bound_to 6896
  152.4981  133.8687  159.7298 H   0  0  0  0  0  0  0  0  0  0  0  0  # atno 6908 bound_to 6896
  150.9208  133.6825  159.2860 H   0  0  0  0  0  0  0  0  0  0  0  0  # atno 6909 bound_to 6896
  145.1008  139.3520  143.4813 H   0  0  0  0  0  0  0  0  0  0  0  0  # atno 7974 bound_to 7965
  154.4501  140.0995  156.6590 H   0  0  0  0  0  0  0  0  0  0  0  0  # atno 8008 bound_to 7997
  155.5314  140.3481  155.4408 H   0  0  0  0  0  0  0  0  0  0  0  0  # atno 8009 bound_to 7997
  156.0662  140.1338  156.9872 H   0  0  0  0  0  0  0  0  0  0  0  0  # atno 8010 bound_to 7997
  140.6310  143.2459  151.5241 H   0  0  0  0  0  0  0  0  0  0  0  0  # atno 10167 bound_to 10162
  156.5119  130.8439  151.2650 H   0  0  0  0  0  0  0  0  0  0  0  0  # atno 10718 bound_to 10713
  154.0299  135.2898  155.3370 H   0  0  0  0  0  0  0  0  0  0  0  0  # atno 10763 bound_to 10752
  154.6994  135.5194  153.8508 H   0  0  0  0  0  0  0  0  0  0  0  0  # atno 10764 bound_to 10752
  153.0644  135.6625  154.0513 H   0  0  0  0  0  0  0  0  0  0  0  0  # atno 10765 bound_to 10752
  140.8831  134.1906  157.4578 H   0  0  0  0  0  0  0  0  0  0  0  0  # atno 11005 bound_to 11000
  146.3529  140.0885  142.8614 LP  0  0  0  0  0  0  0  0  0  0  0  0  # atno 17320 bound_to 7965
  145.0957  140.9313  143.4742 LP  0  0  0  0  0  0  0  0  0  0  0  0  # atno 17321 bound_to 7965
  139.5524  144.2361  152.1554 LP  0  0  0  0  0  0  0  0  0  0  0  0  # atno 17342 bound_to 10162
  140.1605  144.5030  150.6635 LP  0  0  0  0  0  0  0  0  0  0  0  0  # atno 17343 bound_to 10162
  157.7449  130.9946  150.2715 LP  0  0  0  0  0  0  0  0  0  0  0  0  # atno 17370 bound_to 10713
  156.3232  130.3789  149.7557 LP  0  0  0  0  0  0  0  0  0  0  0  0  # atno 17371 bound_to 10713
  139.8721  134.9826  156.5163 LP  0  0  0  0  0  0  0  0  0  0  0  0  # atno 17394 bound_to 11000
  140.8437  133.8185  155.9100 LP  0  0  0  0  0  0  0  0  0  0  0  0  # atno 17395 bound_to 11000

$$$$
