AV-unprocessed.smi:467|AV-procd|sdf|2650|dock1
  -GOLD-   2262023 63D 1   1.00000     0.00000
 Structure written by MMmdl.
 46 48  0  0  0  0  0  0  0  0  3 V2000
  152.0292  143.8388  160.3415 C   0  0  0  0  0  0  0  0  0  0  0  0
  151.8132  142.8548  159.2043 C   0  0  0  0  0  0  0  0  0  0  0  0
  150.9301  143.2133  158.1609 C   0  0  0  0  0  0  0  0  0  0  0  0
  150.7557  142.2941  157.1333 C   0  0  0  0  0  0  0  0  0  0  0  0
  149.9696  142.3516  155.9808 N   0  3  0  0  0  0  0  0  0  0  0  0
  150.1273  141.2040  155.2656 C   0  0  0  0  0  0  0  0  0  0  0  0
  151.0033  140.4131  155.9437 N   0  0  0  0  0  0  0  0  0  0  0  0
  151.5134  139.0765  155.6032 C   0  0  0  0  0  0  0  0  0  0  0  0
  150.6529  138.3620  154.5425 C   0  0  1  0  0  0  0  0  0  0  0  0
  151.3626  137.2541  154.0218 O   0  0  0  0  0  0  0  0  0  0  0  0
  149.3166  137.8636  155.1281 C   0  0  0  0  0  0  0  0  0  0  0  0
  148.1973  137.9570  154.1555 N   0  3  0  0  0  0  0  0  0  0  0  0
  146.9563  137.3178  154.6543 C   0  0  0  0  0  0  0  0  0  0  0  0
  145.8455  137.3928  153.5925 C   0  0  0  0  0  0  0  0  0  0  0  0
  145.6201  138.7496  153.2316 O   0  0  0  0  0  0  0  0  0  0  0  0
  146.7793  139.3491  152.6670 C   0  0  0  0  0  0  0  0  0  0  0  0
  147.9186  139.3422  153.7005 C   0  0  0  0  0  0  0  0  0  0  0  0
  151.4212  141.0524  157.1180 C   0  0  0  0  0  0  0  0  0  0  0  0
  152.2928  140.6831  158.1404 C   0  0  0  0  0  0  0  0  0  0  0  0
  152.4848  141.6050  159.1945 C   0  0  0  0  0  0  0  0  0  0  0  0
  153.4316  141.2293  160.3218 C   0  0  0  0  0  0  0  0  0  0  0  0
  151.4831  144.7677  160.1745 H   0  0  0  0  0  0  0  0  0  0  0  0
  153.0861  144.0882  160.4392 H   0  0  0  0  0  0  0  0  0  0  0  0
  151.6839  143.4144  161.2845 H   0  0  0  0  0  0  0  0  0  0  0  0
  150.4147  144.1627  158.1621 H   0  0  0  0  0  0  0  0  0  0  0  0
  149.6450  140.9657  154.3284 H   0  0  0  0  0  0  0  0  0  0  0  0
  152.5544  139.1528  155.2884 H   0  0  0  0  0  0  0  0  0  0  0  0
  151.5178  138.4952  156.5264 H   0  0  0  0  0  0  0  0  0  0  0  0
  150.4713  139.0589  153.7248 H   0  0  0  0  0  0  0  0  0  0  0  0
  151.1043  137.1240  153.1218 H   0  0  0  0  0  0  0  0  0  0  0  0
  149.4431  136.8277  155.4481 H   0  0  0  0  0  0  0  0  0  0  0  0
  149.0570  138.4265  156.0261 H   0  0  0  0  0  0  0  0  0  0  0  0
  147.1515  136.2742  154.9041 H   0  0  0  0  0  0  0  0  0  0  0  0
  146.6320  137.8129  155.5712 H   0  0  0  0  0  0  0  0  0  0  0  0
  146.1090  136.8076  152.7098 H   0  0  0  0  0  0  0  0  0  0  0  0
  144.9193  136.9741  153.9868 H   0  0  0  0  0  0  0  0  0  0  0  0
  147.0732  138.8201  151.7589 H   0  0  0  0  0  0  0  0  0  0  0  0
  146.5414  140.3725  152.3766 H   0  0  0  0  0  0  0  0  0  0  0  0
  147.6454  139.9617  154.5563 H   0  0  0  0  0  0  0  0  0  0  0  0
  148.8083  139.7871  153.2566 H   0  0  0  0  0  0  0  0  0  0  0  0
  152.8084  139.7347  158.1360 H   0  0  0  0  0  0  0  0  0  0  0  0
  153.8159  140.2160  160.1998 H   0  0  0  0  0  0  0  0  0  0  0  0
  152.9217  141.2767  161.2845 H   0  0  0  0  0  0  0  0  0  0  0  0
  154.2840  141.9090  160.3467 H   0  0  0  0  0  0  0  0  0  0  0  0
  148.4801  137.4279  153.3424 H   0  0  0  0  0  0  0  0  0  0  0  0
  149.3691  143.1168  155.7009 H   0  0  0  0  0  0  0  0  0  0  0  0
  1  2  1  0  0  0  0
  1 22  1  0  0  0  0
  1 23  1  0  0  0  0
  1 24  1  0  0  0  0
  2 20  1  0  0  0  0
  2  3  2  0  0  0  0
  3  4  1  0  0  0  0
  3 25  1  0  0  0  0
  4 18  2  0  0  0  0
  4  5  1  0  0  0  0
  5  6  2  0  0  0  0
  5 46  1  0  0  0  0
  6  7  1  0  0  0  0
  6 26  1  0  0  0  0
  7  8  1  0  0  0  0
  7 18  1  0  0  0  0
  8  9  1  0  0  0  0
  8 27  1  0  0  0  0
  8 28  1  0  0  0  0
  9 10  1  0  0  0  0
  9 11  1  0  0  0  0
  9 29  1  0  0  0  0
 10 30  1  0  0  0  0
 11 12  1  0  0  0  0
 11 31  1  0  0  0  0
 11 32  1  0  0  0  0
 12 17  1  0  0  0  0
 12 13  1  0  0  0  0
 12 45  1  0  0  0  0
 13 14  1  0  0  0  0
 13 33  1  0  0  0  0
 13 34  1  0  0  0  0
 14 15  1  0  0  0  0
 14 35  1  0  0  0  0
 14 36  1  0  0  0  0
 15 16  1  0  0  0  0
 16 17  1  0  0  0  0
 16 37  1  0  0  0  0
 16 38  1  0  0  0  0
 17 39  1  0  0  0  0
 17 40  1  0  0  0  0
 18 19  1  0  0  0  0
 19 20  2  0  0  0  0
 19 41  1  0  0  0  0
 20 21  1  0  0  0  0
 21 42  1  0  0  0  0
 21 43  1  0  0  0  0
 21 44  1  0  0  0  0
M  CHG  1   5   1
M  CHG  1  12   1
M  END
> <s_m_source_file>
AV-unprocessed.smi

> <i_m_source_file_index>
467

> <i_lp_mmshare_version>
43012

> <i_f3d_flags>
0

> <s_epik_input>
W0NIM11jKFtjSF0xKWMoW0NIM10pW2NIXWMoYzEyKW4oW2NIXW4yKVtDSDJdW0NASF0oW09IXSlbQ0gyXU4zW0NIMl1bQ0gyXU9bQ0gyXVtDSDJdMw==

> <s_epik_cmdline>
J2VwaWtfcHl0aG9uJywgJy1waCcsICc3LjAnLCAnLXRuJywgJzgnLCAnLW1hJywgJzIwMCcsICctbWV0YWxfYmluZGluZycsICctaW1hZScsICc8aW5maWxlLm1hZT4nLCAnLW9tYWUnLCAnPG91dGZpbGUubWFlPic=

> <r_epik_Ionization_Penalty>
1.88533

> <r_epik_Ionization_Penalty_Charging>
1.88531

> <r_epik_Ionization_Penalty_Neutral>
1.42224e-05

> <r_epik_State_Penalty>
1.94609

> <r_epik_Charging_Adjusted_Penalty>
3.8314

> <i_epik_Tot_Q>
2

> <i_epik_Tot_abs_Q>
2

> <r_epik_Metal_State_Penalty>
5.95915

> <b_epik_Metal_Only>
0

> <s_lp_Force_Field>
OPLS_2005

> <r_lp_Energy>
30.7546

> <b_lp_Chiralities_Consistent>
1

> <s_lp_Variant>
AV-unprocessed.smi:467-8

> <Gold.Version>
5.8.1

> <Gold.Id.Protein>
6NUR|6NUR_protein|mol2

> <Gold.PLP.Fitness>
58.2547

> <Gold.PLP.PLP>
-41.7727

> <Gold.PLP.part.hbond>
-4.0000

> <Gold.PLP.part.metal>
0.0000

> <Gold.PLP.part.buried>
-3.9639

> <Gold.PLP.part.nonpolar>
-33.9598

> <Gold.PLP.part.repulsive>
0.3220

> <Gold.PLP.ligand.clash>
0.0000

> <Gold.PLP.ligand.torsion>
0.8146

> <Gold.PLP.Chemscore.Hbond>
6.0000

> <Gold.PLP.Chemscore.CHOScore>
0.0000

> <Gold.PLP.Chemscore.Metal>
0.0000

> <Gold.Chemscore.Hbonds>
donor molecule, donor type, donor heavy atom, donor atom, acceptor molecule, acceptor atom, score
      L1  H     5    46       P1  8028  2.00
      L1  H    10    30       P1  7949  0.98
      L1  H    12    45       P1  7948  2.00
      P1  H 10752 10765       L1    10  0.44

> <Gold.PLP.Chemscore.Internal.Correction>
0.1112

> <Gold.Rescore>
     Score         DG    S(hbond)    S(metal)    S(lipo)     H(rot)  DE(clash)    DE(int)     intcor
     22.77     -23.95       3.46        0.00     106.46       2.16       0.31       0.87       ----

> <Gold.Chemscore.Fitness>
22.7712

> <Gold.Chemscore.DG>
-23.9498

> <Gold.Chemscore.ZeroCoef>
-5.4800

> <Gold.Chemscore.Hbond>
3.4557

> <Gold.Chemscore.Metal>
0.0000

> <Gold.Chemscore.Lipo>
106.4570

> <Gold.Chemscore.Internal_Hbond>
0.0000

> <Gold.Chemscore.DEClash>
0.3096

> <Gold.Chemscore.DEInternal>
0.8691

> <Gold.Chemscore.Rot>
2.1592

> <Gold.Chemscore.Internal.Correction>
   9.000000E+99

> <Gold.Chemscore.Hbonds>
donor molecule, donor type, donor heavy atom, donor atom, acceptor molecule, acceptor atom, score
      L1  H     5    46       P1  8028  0.98
      L1  H    10    30       P1  7949  0.40
      L1  H    12    45       P1  7948  0.99
      P1  H 10752 10765       L1    10  0.15

> <Gold.Chemscore.Hbond.Weighted>
-11.5419

> <Gold.Chemscore.Metal.Weighted>
-0.0000

> <Gold.Chemscore.Lipo.Weighted>
-12.4555

> <Gold.Chemscore.Internal_Hbond.Weighted>
0.0000

> <Gold.Chemscore.DEClash.Weighted>
0.3096

> <Gold.Chemscore.DEInternal.Weighted>
0.8691

> <Gold.Chemscore.Rot.Weighted>
5.5275

> <Gold.Chemscore.Internal.Correction.Weighted>
   9.000000E+99

> <Gold.Protein.RotatedTorsions>
[ 6907 6896 6895 6894 ] final -165.32 input  -60.11 | X-H torsion
[ 7974 7965 7964 7962 ] final  -32.12 input  175.53 | X-H torsion
[ 8008 7997 7996 7995 ] final   62.97 input   59.86 | X-H torsion
[ 10167 10162 10161 10158 ] final -156.51 input  -65.29 | X-H torsion
[ 10718 10713 10712 10709 ] final  -55.70 input   66.30 | X-H torsion
[ 10763 10752 10751 10750 ] final  163.20 input  -60.55 | X-H torsion
[ 11005 11000 10999 10996 ] final    7.66 input  -57.11 | X-H torsion

> <Gold.Protein.ActiveResidues>
 VAL166  LYS551  ARG553  GLY616  TRP617  ASP618  TYR619  PRO620  LYS621  CYS622 
 ASP623  PHE694  ASN695  SER759  ASP760  ASP761  ALA762  ILE779  LEU786  VAL792 
 PHE793  MET794  SER795  GLU796  ALA797  LYS798  CYS799  TRP800  GLU811  SER814 

> <Gold.Protein.RotatedAtoms>
  151.4258  133.3685  159.2761 H   0  0  0  0  0  0  0  0  0  0  0  0  # atno 6907 bound_to 6896
  150.9261  134.8679  159.7531 H   0  0  0  0  0  0  0  0  0  0  0  0  # atno 6908 bound_to 6896
  152.5005  134.4199  159.9529 H   0  0  0  0  0  0  0  0  0  0  0  0  # atno 6909 bound_to 6896
  146.1014  140.5753  142.8819 H   0  0  0  0  0  0  0  0  0  0  0  0  # atno 7974 bound_to 7965
  155.6228  140.3496  155.4657 H   0  0  0  0  0  0  0  0  0  0  0  0  # atno 8008 bound_to 7997
  156.0066  140.1224  157.0519 H   0  0  0  0  0  0  0  0  0  0  0  0  # atno 8009 bound_to 7997
  154.4266  140.1090  156.5756 H   0  0  0  0  0  0  0  0  0  0  0  0  # atno 8010 bound_to 7997
  139.6844  143.9525  152.2354 H   0  0  0  0  0  0  0  0  0  0  0  0  # atno 10167 bound_to 10162
  156.1347  130.4157  150.0206 H   0  0  0  0  0  0  0  0  0  0  0  0  # atno 10718 bound_to 10713
  154.2901  135.2761  155.2658 H   0  0  0  0  0  0  0  0  0  0  0  0  # atno 10763 bound_to 10752
  154.5141  135.5774  153.6632 H   0  0  0  0  0  0  0  0  0  0  0  0  # atno 10764 bound_to 10752
  152.9915  135.6188  154.3065 H   0  0  0  0  0  0  0  0  0  0  0  0  # atno 10765 bound_to 10752
  140.5457  134.0331  155.7919 H   0  0  0  0  0  0  0  0  0  0  0  0  # atno 11005 bound_to 11000
  144.7436  140.5008  143.6852 LP  0  0  0  0  0  0  0  0  0  0  0  0  # atno 17320 bound_to 7965
  145.5846  139.1491  143.3216 LP  0  0  0  0  0  0  0  0  0  0  0  0  # atno 17321 bound_to 7965
  139.9324  144.6733  150.8349 LP  0  0  0  0  0  0  0  0  0  0  0  0  # atno 17342 bound_to 10162
  140.7663  143.3299  151.2433 LP  0  0  0  0  0  0  0  0  0  0  0  0  # atno 17343 bound_to 10162
  156.8109  130.9324  151.3644 LP  0  0  0  0  0  0  0  0  0  0  0  0  # atno 17370 bound_to 10713
  157.6521  130.8893  149.9654 LP  0  0  0  0  0  0  0  0  0  0  0  0  # atno 17371 bound_to 10713
  141.1201  133.9476  157.2746 LP  0  0  0  0  0  0  0  0  0  0  0  0  # atno 17394 bound_to 11000
  139.9481  135.0180  156.8912 LP  0  0  0  0  0  0  0  0  0  0  0  0  # atno 17395 bound_to 11000

$$$$
