AV-unprocessed.smi:545|AV-procd|sdf|2881|dock2
  -GOLD-   2262023373D 1   1.00000     0.00000
 Structure written by MMmdl.
 36 37  0  0  0  0  0  0  0  0  1 V2000
  148.2171  141.2811  153.9217 C   0  0  0  0  0  0  0  0  0  0  0  0
  149.4879  141.7119  154.3743 O   0  0  0  0  0  0  0  0  0  0  0  0
  149.6035  141.6803  155.7873 C   0  0  0  0  0  0  0  0  0  0  0  0
  151.0004  142.1586  156.2072 C   0  0  0  0  0  0  0  0  0  0  0  0
  151.6642  141.2025  157.0941 N   0  0  0  0  0  0  0  0  0  0  0  0
  152.1561  141.3707  158.3588 C   0  0  0  0  0  0  0  0  0  0  0  0
  152.1229  142.5846  159.0597 N   0  0  0  0  0  0  0  0  0  0  0  0
  152.6558  142.7329  160.4083 C   0  0  0  0  0  0  0  0  0  0  0  0
  151.7526  143.9029  158.5597 C   0  0  0  0  0  0  0  0  0  0  0  0
  152.6469  140.2530  158.9053 N   0  0  0  0  0  0  0  0  0  0  0  0
  152.4692  139.3007  157.9172 C   0  0  0  0  0  0  0  0  0  0  0  0
  151.8703  139.8450  156.8290 C   0  0  0  0  0  0  0  0  0  0  0  0
  151.5187  139.0432  155.6465 C   0  0  0  0  0  0  0  0  0  0  0  0
  150.9522  139.5009  154.6565 O   0  0  0  0  0  0  0  0  0  0  0  0
  151.8732  137.7404  155.7606 N   0  0  0  0  0  0  0  0  0  0  0  0
  152.4846  137.1347  156.8231 C   0  0  0  0  0  0  0  0  0  0  0  0
  152.7406  135.9313  156.7818 O   0  0  0  0  0  0  0  0  0  0  0  0
  152.7880  137.9127  157.9104 N   0  0  0  0  0  0  0  0  0  0  0  0
  153.4373  137.3158  159.0791 C   0  0  0  0  0  0  0  0  0  0  0  0
  151.6553  137.1471  154.9734 H   0  0  0  0  0  0  0  0  0  0  0  0
  148.1835  141.3231  152.8332 H   0  0  0  0  0  0  0  0  0  0  0  0
  147.4230  141.9215  154.3080 H   0  0  0  0  0  0  0  0  0  0  0  0
  148.0179  140.2528  154.2259 H   0  0  0  0  0  0  0  0  0  0  0  0
  148.8415  142.3186  156.2377 H   0  0  0  0  0  0  0  0  0  0  0  0
  149.4360  140.6659  156.1518 H   0  0  0  0  0  0  0  0  0  0  0  0
  151.6198  142.3206  155.3269 H   0  0  0  0  0  0  0  0  0  0  0  0
  150.9427  143.1386  156.6660 H   0  0  0  0  0  0  0  0  0  0  0  0
  152.6725  141.7739  160.9270 H   0  0  0  0  0  0  0  0  0  0  0  0
  152.0457  143.4141  161.0028 H   0  0  0  0  0  0  0  0  0  0  0  0
  153.6752  143.1184  160.3746 H   0  0  0  0  0  0  0  0  0  0  0  0
  151.9883  143.9871  157.4988 H   0  0  0  0  0  0  0  0  0  0  0  0
  152.2950  144.7021  159.0672 H   0  0  0  0  0  0  0  0  0  0  0  0
  150.6864  144.0796  158.7028 H   0  0  0  0  0  0  0  0  0  0  0  0
  154.3552  136.8017  158.7908 H   0  0  0  0  0  0  0  0  0  0  0  0
  152.7740  136.5906  159.5521 H   0  0  0  0  0  0  0  0  0  0  0  0
  153.7067  138.0555  159.8328 H   0  0  0  0  0  0  0  0  0  0  0  0
  1  2  1  0  0  0  0
  1 21  1  0  0  0  0
  1 22  1  0  0  0  0
  1 23  1  0  0  0  0
  2  3  1  0  0  0  0
  3  4  1  0  0  0  0
  3 24  1  0  0  0  0
  3 25  1  0  0  0  0
  4  5  1  0  0  0  0
  4 26  1  0  0  0  0
  4 27  1  0  0  0  0
  5 12  1  0  0  0  0
  5  6  1  0  0  0  0
  6  7  1  0  0  0  0
  6 10  2  0  0  0  0
  7  8  1  0  0  0  0
  7  9  1  0  0  0  0
  8 28  1  0  0  0  0
  8 29  1  0  0  0  0
  8 30  1  0  0  0  0
  9 31  1  0  0  0  0
  9 32  1  0  0  0  0
  9 33  1  0  0  0  0
 10 11  1  0  0  0  0
 11 18  1  0  0  0  0
 11 12  2  0  0  0  0
 12 13  1  0  0  0  0
 13 14  2  0  0  0  0
 13 15  1  0  0  0  0
 15 20  1  0  0  0  0
 15 16  1  0  0  0  0
 16 17  2  0  0  0  0
 16 18  1  0  0  0  0
 18 19  1  0  0  0  0
 19 34  1  0  0  0  0
 19 35  1  0  0  0  0
 19 36  1  0  0  0  0
M  END
> <s_m_source_file>
AV-unprocessed.smi

> <i_m_source_file_index>
545

> <i_lp_mmshare_version>
43012

> <i_f3d_flags>
0

> <s_epik_input>
W0NIM11PW0NIMl1bQ0gyXW4oYyhuMSlOKFtDSDNdKVtDSDNdKWMoYzEyKWMoPU8pW25IXWMoPU8pbjJbQ0gzXQ==

> <s_epik_cmdline>
J2VwaWtfcHl0aG9uJywgJy1waCcsICc3LjAnLCAnLXRuJywgJzgnLCAnLW1hJywgJzIwMCcsICctbWV0YWxfYmluZGluZycsICctaW1hZScsICc8aW5maWxlLm1hZT4nLCAnLW9tYWUnLCAnPG91dGZpbGUubWFlPic=

> <r_lp_tautomer_probability>
1

> <r_epik_Ionization_Penalty>
6.48997e-05

> <r_epik_Ionization_Penalty_Charging>
1.66474e-05

> <r_epik_Ionization_Penalty_Neutral>
4.82523e-05

> <r_epik_State_Penalty>
-0

> <r_epik_Charging_Adjusted_Penalty>
1.66474e-05

> <i_epik_Tot_Q>
0

> <i_epik_Tot_abs_Q>
0

> <r_epik_Metal_State_Penalty>
0.0159702

> <b_epik_Metal_Only>
0

> <s_lp_Force_Field>
OPLS_2005

> <r_lp_Energy>
27.7728

> <b_lp_Chiralities_Consistent>
1

> <s_lp_Variant>
AV-unprocessed.smi:545-1

> <Gold.Version>
5.8.1

> <Gold.Id.Protein>
6NUR|6NUR_protein|mol2

> <Gold.PLP.Fitness>
38.5634

> <Gold.PLP.PLP>
-32.9950

> <Gold.PLP.part.hbond>
-4.0000

> <Gold.PLP.part.metal>
0.0000

> <Gold.PLP.part.buried>
-3.7284

> <Gold.PLP.part.nonpolar>
-24.3224

> <Gold.PLP.part.repulsive>
0.3976

> <Gold.PLP.ligand.clash>
0.0000

> <Gold.PLP.ligand.torsion>
0.3962

> <Gold.PLP.Chemscore.Hbond>
2.1072

> <Gold.PLP.Chemscore.CHOScore>
0.0000

> <Gold.PLP.Chemscore.Metal>
0.0000

> <Gold.Chemscore.Hbonds>
donor molecule, donor type, donor heavy atom, donor atom, acceptor molecule, acceptor atom, score
      P1  H  7989  7998       L1    14  1.00
      P1  H  8011  8017       L1     2  0.09
      P1  H 10752 10764       L1    17  1.00

> <Gold.PLP.Chemscore.Internal.Correction>
0.0391

> <Gold.Rescore>
     Score         DG    S(hbond)    S(metal)    S(lipo)     H(rot)  DE(clash)    DE(int)     intcor
     10.75     -14.63       1.98        0.00      55.89       1.57       0.08       3.79       ----

> <Gold.Chemscore.Fitness>
10.7518

> <Gold.Chemscore.DG>
-14.6278

> <Gold.Chemscore.ZeroCoef>
-5.4800

> <Gold.Chemscore.Hbond>
1.9849

> <Gold.Chemscore.Metal>
0.0000

> <Gold.Chemscore.Lipo>
55.8874

> <Gold.Chemscore.Internal_Hbond>
0.0000

> <Gold.Chemscore.DEClash>
0.0836

> <Gold.Chemscore.DEInternal>
3.7923

> <Gold.Chemscore.Rot>
1.5705

> <Gold.Chemscore.Internal.Correction>
   9.000000E+99

> <Gold.Chemscore.Hbonds>
donor molecule, donor type, donor heavy atom, donor atom, acceptor molecule, acceptor atom, score
      P1  H  7989  7998       L1    14  1.00
      P1  H 10752 10764       L1    17  0.91

> <Gold.Chemscore.Hbond.Weighted>
-6.6295

> <Gold.Chemscore.Metal.Weighted>
-0.0000

> <Gold.Chemscore.Lipo.Weighted>
-6.5388

> <Gold.Chemscore.Internal_Hbond.Weighted>
0.0000

> <Gold.Chemscore.DEClash.Weighted>
0.0836

> <Gold.Chemscore.DEInternal.Weighted>
3.7923

> <Gold.Chemscore.Rot.Weighted>
4.0205

> <Gold.Chemscore.Internal.Correction.Weighted>
   9.000000E+99

> <Gold.Protein.RotatedTorsions>
[ 6907 6896 6895 6894 ] final  -11.76 input  -60.11 | X-H torsion
[ 7974 7965 7964 7962 ] final -165.83 input  175.53 | X-H torsion
[ 8008 7997 7996 7995 ] final  -60.00 input   59.86 | X-H torsion
[ 10167 10162 10161 10158 ] final  151.25 input  -65.29 | X-H torsion
[ 10718 10713 10712 10709 ] final  153.44 input   66.30 | X-H torsion
[ 10763 10752 10751 10750 ] final   -4.96 input  -60.55 | X-H torsion
[ 11005 11000 10999 10996 ] final  -14.43 input  -57.11 | X-H torsion

> <Gold.Protein.ActiveResidues>
 VAL166  LYS551  ARG553  GLY616  TRP617  ASP618  TYR619  PRO620  LYS621  CYS622 
 ASP623  PHE694  ASN695  SER759  ASP760  ASP761  ALA762  ILE779  LEU786  VAL792 
 PHE793  MET794  SER795  GLU796  ALA797  LYS798  CYS799  TRP800  GLU811  SER814 

> <Gold.Protein.RotatedAtoms>
  151.3811  135.0940  159.9496 H   0  0  0  0  0  0  0  0  0  0  0  0  # atno 6907 bound_to 6896
  152.5108  133.9071  159.7480 H   0  0  0  0  0  0  0  0  0  0  0  0  # atno 6908 bound_to 6896
  150.9504  133.6500  159.2802 H   0  0  0  0  0  0  0  0  0  0  0  0  # atno 6909 bound_to 6896
  144.7260  140.2756  143.6244 H   0  0  0  0  0  0  0  0  0  0  0  0  # atno 7974 bound_to 7965
  154.4378  140.1049  156.6204 H   0  0  0  0  0  0  0  0  0  0  0  0  # atno 8008 bound_to 7997
  155.5713  140.3489  155.4497 H   0  0  0  0  0  0  0  0  0  0  0  0  # atno 8009 bound_to 7997
  156.0387  140.1277  157.0168 H   0  0  0  0  0  0  0  0  0  0  0  0  # atno 8010 bound_to 7997
  139.4842  144.5456  151.7490 H   0  0  0  0  0  0  0  0  0  0  0  0  # atno 10167 bound_to 10162
  157.2447  131.0766  151.1769 H   0  0  0  0  0  0  0  0  0  0  0  0  # atno 10718 bound_to 10713
  153.3920  135.7002  153.6487 H   0  0  0  0  0  0  0  0  0  0  0  0  # atno 10763 bound_to 10752
  153.5056  135.3643  155.2562 H   0  0  0  0  0  0  0  0  0  0  0  0  # atno 10764 bound_to 10752
  154.8703  135.4122  154.3239 H   0  0  0  0  0  0  0  0  0  0  0  0  # atno 10765 bound_to 10752
  140.7863  133.8323  155.9338 H   0  0  0  0  0  0  0  0  0  0  0  0  # atno 11005 bound_to 11000
  145.8000  139.1960  143.2053 LP  0  0  0  0  0  0  0  0  0  0  0  0  # atno 17320 bound_to 7965
  146.0684  140.7895  142.9700 LP  0  0  0  0  0  0  0  0  0  0  0  0  # atno 17321 bound_to 7965
  140.5002  144.1181  150.5969 LP  0  0  0  0  0  0  0  0  0  0  0  0  # atno 17342 bound_to 10162
  140.4071  143.2675  151.9878 LP  0  0  0  0  0  0  0  0  0  0  0  0  # atno 17343 bound_to 10162
  157.3341  130.7000  149.6342 LP  0  0  0  0  0  0  0  0  0  0  0  0  # atno 17370 bound_to 10713
  155.9668  130.4299  150.4852 LP  0  0  0  0  0  0  0  0  0  0  0  0  # atno 17371 bound_to 10713
  140.9434  134.1872  157.4781 LP  0  0  0  0  0  0  0  0  0  0  0  0  # atno 17394 bound_to 11000
  139.8736  134.9881  156.5395 LP  0  0  0  0  0  0  0  0  0  0  0  0  # atno 17395 bound_to 11000

$$$$
