AV-unprocessed.smi:1513|AV-procd|sdf|6112|dock1
  -GOLD-   22720 6243D 1   1.00000     0.00000
 Structure written by MMmdl.
 32 33  0  0  0  0  0  0  0  0  3 V2000
  153.9105  136.6890  156.9861 N   0  5  0  0  0  0  0  0  0  0  0  0
  154.3382  137.0864  158.4910 S   0  0  0  0  0  0  0  0  0  0  0  0
  153.5202  136.3667  159.4814 O   0  0  0  0  0  0  0  0  0  0  0  0
  155.7957  136.9717  158.6626 O   0  0  0  0  0  0  0  0  0  0  0  0
  153.8741  138.6337  158.3468 N   0  5  0  0  0  0  0  0  0  0  0  0
  152.5909  139.0550  158.8853 C   0  0  0  0  0  0  0  0  0  0  0  0
  152.4570  140.5855  158.8902 C   0  0  0  0  0  0  0  0  0  0  0  0
  153.0304  141.3024  159.9681 C   0  0  0  0  0  0  0  0  0  0  0  0
  152.9414  142.7056  159.9996 C   0  0  0  0  0  0  0  0  0  0  0  0
  152.2775  143.3534  158.9456 C   0  0  0  0  0  0  0  0  0  0  0  0
  151.7213  142.6956  157.9100 N   0  0  0  0  0  0  0  0  0  0  0  0
  151.7962  141.3408  157.8661 C   0  0  0  0  0  0  0  0  0  0  0  0
  151.1565  140.7371  156.7613 N   0  0  0  0  0  0  0  0  0  0  0  0
  150.4431  141.6870  155.9167 C   0  0  0  0  0  0  0  0  0  0  0  0
  149.5967  140.9325  154.8771 C   0  0  0  0  0  0  0  0  0  0  0  0
  150.4282  140.0455  154.1324 O   0  0  0  0  0  0  0  0  0  0  0  0
  151.0516  139.0731  154.9673 C   0  0  0  0  0  0  0  0  0  0  0  0
  151.9479  139.7805  155.9979 C   0  0  0  0  0  0  0  0  0  0  0  0
  153.7597  137.5556  156.4565 H   0  0  0  0  0  0  0  0  0  0  0  0
  151.7598  138.6314  158.3197 H   0  0  0  0  0  0  0  0  0  0  0  0
  152.4409  138.7114  159.9095 H   0  0  0  0  0  0  0  0  0  0  0  0
  153.5418  140.7994  160.7780 H   0  0  0  0  0  0  0  0  0  0  0  0
  153.3727  143.2693  160.8132 H   0  0  0  0  0  0  0  0  0  0  0  0
  152.1892  144.4295  158.9337 H   0  0  0  0  0  0  0  0  0  0  0  0
  149.8025  142.3274  156.5239 H   0  0  0  0  0  0  0  0  0  0  0  0
  151.1624  142.3356  155.4151 H   0  0  0  0  0  0  0  0  0  0  0  0
  148.7942  140.3739  155.3607 H   0  0  0  0  0  0  0  0  0  0  0  0
  149.1252  141.6381  154.1935 H   0  0  0  0  0  0  0  0  0  0  0  0
  150.2933  138.4647  155.4635 H   0  0  0  0  0  0  0  0  0  0  0  0
  151.6463  138.4010  154.3487 H   0  0  0  0  0  0  0  0  0  0  0  0
  152.7613  140.2951  155.4850 H   0  0  0  0  0  0  0  0  0  0  0  0
  152.3958  139.0504  156.6731 H   0  0  0  0  0  0  0  0  0  0  0  0
  1  2  1  0  0  0  0
  1 19  1  0  0  0  0
  2  3  2  0  0  0  0
  2  4  2  0  0  0  0
  2  5  1  0  0  0  0
  5  6  1  0  0  0  0
  6  7  1  0  0  0  0
  6 20  1  0  0  0  0
  6 21  1  0  0  0  0
  7 12  1  0  0  0  0
  7  8  2  0  0  0  0
  8  9  1  0  0  0  0
  8 22  1  0  0  0  0
  9 10  2  0  0  0  0
  9 23  1  0  0  0  0
 10 11  1  0  0  0  0
 10 24  1  0  0  0  0
 11 12  2  0  0  0  0
 12 13  1  0  0  0  0
 13 18  1  0  0  0  0
 13 14  1  0  0  0  0
 14 15  1  0  0  0  0
 14 25  1  0  0  0  0
 14 26  1  0  0  0  0
 15 16  1  0  0  0  0
 15 27  1  0  0  0  0
 15 28  1  0  0  0  0
 16 17  1  0  0  0  0
 17 18  1  0  0  0  0
 17 29  1  0  0  0  0
 17 30  1  0  0  0  0
 18 31  1  0  0  0  0
 18 32  1  0  0  0  0
M  CHG  1   1  -1
M  CHG  1   5  -1
M  END
> <s_m_source_file>
AV-unprocessed.smi

> <i_m_source_file_index>
1513

> <i_lp_mmshare_version>
43012

> <i_f3d_flags>
0

> <s_epik_input>
W05IMl1TKD1PKSg9TylbTkhdW0NIMl1jMVtjSF1bY0hdW2NIXW5jMU4yW0NIMl1bQ0gyXU9bQ0gyXVtDSDJdMg==

> <s_epik_cmdline>
J2VwaWtfcHl0aG9uJywgJy1waCcsICc3LjAnLCAnLXRuJywgJzgnLCAnLW1hJywgJzIwMCcsICctbWV0YWxfYmluZGluZycsICctaW1hZScsICc8aW5maWxlLm1hZT4nLCAnLW9tYWUnLCAnPG91dGZpbGUubWFlPic=

> <r_lp_tautomer_probability>
1

> <r_epik_Ionization_Penalty>
9.15309

> <r_epik_Ionization_Penalty_Charging>
9.0542

> <r_epik_Ionization_Penalty_Neutral>
0.0988939

> <r_epik_State_Penalty>
4.65345

> <r_epik_Charging_Adjusted_Penalty>
13.7077

> <i_epik_Tot_Q>
-2

> <i_epik_Tot_abs_Q>
2

> <r_epik_Metal_State_Penalty>
1.24006

> <b_epik_Metal_Only>
1

> <s_lp_Force_Field>
OPLS_2005

> <r_lp_Energy>
26.0571

> <b_lp_Chiralities_Consistent>
1

> <s_lp_Variant>
AV-unprocessed.smi:1513-5

> <Gold.Version>
5.8.1

> <Gold.Id.Protein>
6NUR|6NUR_protein|mol2

> <Gold.PLP.Fitness>
49.9225

> <Gold.PLP.PLP>
-33.1147

> <Gold.PLP.part.hbond>
-3.9832

> <Gold.PLP.part.metal>
0.0000

> <Gold.PLP.part.buried>
-4.5262

> <Gold.PLP.part.nonpolar>
-25.6709

> <Gold.PLP.part.repulsive>
0.8152

> <Gold.PLP.ligand.clash>
0.0000

> <Gold.PLP.ligand.torsion>
0.9838

> <Gold.PLP.Chemscore.Hbond>
5.8560

> <Gold.PLP.Chemscore.CHOScore>
0.0000

> <Gold.PLP.Chemscore.Metal>
0.0000

> <Gold.Chemscore.Hbonds>
donor molecule, donor type, donor heavy atom, donor atom, acceptor molecule, acceptor atom, score
      P1  H  6896  6908       L1     3  1.00
      P1  H  7989  7998       L1    16  1.00
      P1  H  7997  8008       L1     5  1.82
      P1  H 10752 10764       L1     1  1.52

> <Gold.PLP.Chemscore.Internal.Correction>
1.2074

> <Gold.Rescore>
     Score         DG    S(hbond)    S(metal)    S(lipo)     H(rot)  DE(clash)    DE(int)     intcor
     17.34     -19.61       3.00        0.00      75.90       1.86       0.07       2.20       ----

> <Gold.Chemscore.Fitness>
17.3412

> <Gold.Chemscore.DG>
-19.6055

> <Gold.Chemscore.ZeroCoef>
-5.4800

> <Gold.Chemscore.Hbond>
2.9966

> <Gold.Chemscore.Metal>
0.0000

> <Gold.Chemscore.Lipo>
75.8977

> <Gold.Chemscore.Internal_Hbond>
0.0000

> <Gold.Chemscore.DEClash>
0.0687

> <Gold.Chemscore.DEInternal>
2.1957

> <Gold.Chemscore.Rot>
1.8606

> <Gold.Chemscore.Internal.Correction>
   9.000000E+99

> <Gold.Chemscore.Hbonds>
donor molecule, donor type, donor heavy atom, donor atom, acceptor molecule, acceptor atom, score
      P1  H  6896  6908       L1     3  0.92
      P1  H  7989  7998       L1    16  0.37
      P1  H  7997  8008       L1     5  0.63
      P1  H 10752 10764       L1     1  0.14

> <Gold.Chemscore.Hbond.Weighted>
-10.0086

> <Gold.Chemscore.Metal.Weighted>
-0.0000

> <Gold.Chemscore.Lipo.Weighted>
-8.8800

> <Gold.Chemscore.Internal_Hbond.Weighted>
0.0000

> <Gold.Chemscore.DEClash.Weighted>
0.0687

> <Gold.Chemscore.DEInternal.Weighted>
2.1957

> <Gold.Chemscore.Rot.Weighted>
4.7631

> <Gold.Chemscore.Internal.Correction.Weighted>
   9.000000E+99

> <Gold.Protein.RotatedTorsions>
[ 6907 6896 6895 6894 ] final  -86.77 input  -60.11 | X-H torsion
[ 7974 7965 7964 7962 ] final   89.75 input  175.53 | X-H torsion
[ 8008 7997 7996 7995 ] final  -81.50 input   59.86 | X-H torsion
[ 10167 10162 10161 10158 ] final  128.40 input  -65.29 | X-H torsion
[ 10718 10713 10712 10709 ] final   73.22 input   66.30 | X-H torsion
[ 10763 10752 10751 10750 ] final   15.18 input  -60.55 | X-H torsion
[ 11005 11000 10999 10996 ] final  -72.00 input  -57.11 | X-H torsion

> <Gold.Protein.ActiveResidues>
 VAL166  LYS551  ARG553  GLY616  TRP617  ASP618  TYR619  PRO620  LYS621  CYS622 
 ASP623  PHE694  ASN695  SER759  ASP760  ASP761  ALA762  ILE779  LEU786  VAL792 
 PHE793  MET794  SER795  GLU796  ALA797  LYS798  CYS799  TRP800  GLU811  SER814 

> <Gold.Protein.RotatedAtoms>
  150.6866  134.3000  159.4701 H   0  0  0  0  0  0  0  0  0  0  0  0  # atno 6907 bound_to 6896
  152.0896  134.9413  160.0581 H   0  0  0  0  0  0  0  0  0  0  0  0  # atno 6908 bound_to 6896
  152.0734  133.4083  159.4506 H   0  0  0  0  0  0  0  0  0  0  0  0  # atno 6909 bound_to 6896
  145.5282  139.2282  143.2633 H   0  0  0  0  0  0  0  0  0  0  0  0  # atno 7974 bound_to 7965
  154.5990  140.0647  156.9342 H   0  0  0  0  0  0  0  0  0  0  0  0  # atno 8008 bound_to 7997
  155.2165  140.3327  155.4303 H   0  0  0  0  0  0  0  0  0  0  0  0  # atno 8009 bound_to 7997
  156.2306  140.1839  156.7237 H   0  0  0  0  0  0  0  0  0  0  0  0  # atno 8010 bound_to 7997
  139.5529  144.6827  151.4269 H   0  0  0  0  0  0  0  0  0  0  0  0  # atno 10167 bound_to 10162
  157.6538  130.9618  150.1039 H   0  0  0  0  0  0  0  0  0  0  0  0  # atno 10718 bound_to 10713
  153.1550  135.6785  153.8826 H   0  0  0  0  0  0  0  0  0  0  0  0  # atno 10763 bound_to 10752
  153.8240  135.3126  155.3414 H   0  0  0  0  0  0  0  0  0  0  0  0  # atno 10764 bound_to 10752
  154.7891  135.4845  154.0099 H   0  0  0  0  0  0  0  0  0  0  0  0  # atno 10765 bound_to 10752
  141.1601  133.6834  156.6992 H   0  0  0  0  0  0  0  0  0  0  0  0  # atno 11005 bound_to 11000
  146.2061  140.6097  142.9080 LP  0  0  0  0  0  0  0  0  0  0  0  0  # atno 17320 bound_to 7965
  144.7640  140.5487  143.6716 LP  0  0  0  0  0  0  0  0  0  0  0  0  # atno 17321 bound_to 7965
  140.6796  143.8112  150.7103 LP  0  0  0  0  0  0  0  0  0  0  0  0  # atno 17342 bound_to 10162
  140.1562  143.4315  152.2098 LP  0  0  0  0  0  0  0  0  0  0  0  0  # atno 17343 bound_to 10162
  156.1954  130.3657  149.8856 LP  0  0  0  0  0  0  0  0  0  0  0  0  # atno 17370 bound_to 10713
  156.6773  130.8844  151.3571 LP  0  0  0  0  0  0  0  0  0  0  0  0  # atno 17371 bound_to 10713
  140.2971  134.8193  157.4066 LP  0  0  0  0  0  0  0  0  0  0  0  0  # atno 17394 bound_to 11000
  140.1295  134.5114  155.8117 LP  0  0  0  0  0  0  0  0  0  0  0  0  # atno 17395 bound_to 11000

$$$$
