AV-unprocessed.smi:1920|AV-procd|sdf|7781|dock6
  -GOLD-   22720 9523D 1   1.00000     0.00000
 Structure written by MMmdl.
 36 37  0  0  0  0  0  0  0  0  1 V2000
  153.0017  137.7724  159.7487 C   0  0  0  0  0  0  0  0  0  0  0  0
  153.9321  138.1127  160.9247 C   0  0  2  0  0  0  0  0  0  0  0  0
  153.6569  137.2551  162.1798 C   0  0  0  0  0  0  0  0  0  0  0  0
  154.5530  137.5657  163.2777 N   0  0  0  0  0  0  0  0  0  0  0  0
  154.4330  137.1495  164.5973 C   0  0  0  0  0  0  0  0  0  0  0  0
  155.5080  137.6781  165.2755 C   0  0  0  0  0  0  0  0  0  0  0  0
  156.3016  138.4122  164.3970 N   0  0  0  0  0  0  0  0  0  0  0  0
  155.6753  138.2970  163.2329 C   0  0  0  0  0  0  0  0  0  0  0  0
  153.8024  139.5324  161.2407 N   0  0  0  0  0  0  0  0  0  0  0  0
  153.9381  140.5395  160.3640 C   0  0  0  0  0  0  0  0  0  0  0  0
  154.1952  140.3690  159.1721 O   0  0  0  0  0  0  0  0  0  0  0  0
  153.7544  141.9570  160.9173 C   0  0  0  0  0  0  0  0  0  0  0  0
  152.4736  142.6568  160.4125 C   0  0  2  0  0  0  0  0  0  0  0  0
  152.5757  143.1524  158.9899 C   0  0  0  0  0  0  0  0  0  0  0  0
  152.2856  144.4461  158.8736 C   0  0  0  0  0  0  0  0  0  0  0  0
  151.9320  145.0780  160.1912 C   0  0  0  0  0  0  0  0  0  0  0  0
  152.1220  143.9362  161.2148 C   0  0  0  0  0  0  0  0  0  0  0  0
  153.1337  136.7418  159.4186 H   0  0  0  0  0  0  0  0  0  0  0  0
  153.2041  138.4138  158.8904 H   0  0  0  0  0  0  0  0  0  0  0  0
  151.9542  137.9025  160.0222 H   0  0  0  0  0  0  0  0  0  0  0  0
  154.9560  137.9284  160.5939 H   0  0  0  0  0  0  0  0  0  0  0  0
  152.6353  137.4043  162.5314 H   0  0  0  0  0  0  0  0  0  0  0  0
  153.7523  136.1945  161.9414 H   0  0  0  0  0  0  0  0  0  0  0  0
  153.6139  136.5313  164.9344 H   0  0  0  0  0  0  0  0  0  0  0  0
  155.7706  137.5852  166.3191 H   0  0  0  0  0  0  0  0  0  0  0  0
  156.0406  138.7585  162.3272 H   0  0  0  0  0  0  0  0  0  0  0  0
  153.5902  139.7670  162.1996 H   0  0  0  0  0  0  0  0  0  0  0  0
  153.7294  141.8906  162.0054 H   0  0  0  0  0  0  0  0  0  0  0  0
  154.6270  142.5628  160.6666 H   0  0  0  0  0  0  0  0  0  0  0  0
  151.6325  141.9632  160.4581 H   0  0  0  0  0  0  0  0  0  0  0  0
  152.8424  142.5027  158.1689 H   0  0  0  0  0  0  0  0  0  0  0  0
  152.2845  145.0038  157.9488 H   0  0  0  0  0  0  0  0  0  0  0  0
  152.5887  145.9231  160.3995 H   0  0  0  0  0  0  0  0  0  0  0  0
  150.9015  145.4332  160.1687 H   0  0  0  0  0  0  0  0  0  0  0  0
  151.2201  143.7889  161.8098 H   0  0  0  0  0  0  0  0  0  0  0  0
  152.9214  144.1949  161.9106 H   0  0  0  0  0  0  0  0  0  0  0  0
  1  2  1  0  0  0  0
  1 18  1  0  0  0  0
  1 19  1  0  0  0  0
  1 20  1  0  0  0  0
  2  3  1  0  0  0  0
  2  9  1  0  0  0  0
  2 21  1  0  0  0  0
  3  4  1  0  0  0  0
  3 22  1  0  0  0  0
  3 23  1  0  0  0  0
  4  8  1  0  0  0  0
  4  5  1  0  0  0  0
  5  6  2  0  0  0  0
  5 24  1  0  0  0  0
  6  7  1  0  0  0  0
  6 25  1  0  0  0  0
  7  8  2  0  0  0  0
  8 26  1  0  0  0  0
  9 10  1  0  0  0  0
  9 27  1  0  0  0  0
 10 11  2  0  0  0  0
 10 12  1  0  0  0  0
 12 13  1  0  0  0  0
 12 28  1  0  0  0  0
 12 29  1  0  0  0  0
 13 17  1  0  0  0  0
 13 14  1  0  0  0  0
 13 30  1  0  0  0  0
 14 15  2  0  0  0  0
 14 31  1  0  0  0  0
 15 16  1  0  0  0  0
 15 32  1  0  0  0  0
 16 17  1  0  0  0  0
 16 33  1  0  0  0  0
 16 34  1  0  0  0  0
 17 35  1  0  0  0  0
 17 36  1  0  0  0  0
M  END
> <s_m_source_file>
AV-unprocessed.smi

> <i_m_source_file_index>
1920

> <i_lp_mmshare_version>
43012

> <i_f3d_flags>
0

> <s_epik_input>
W2NIXTFuW2NIXVtjSF1uMVtDSDJdW0NAQEhdKFtDSDNdKVtOSF1DKD1PKVtDSDJdW0NAQEhdMltDSF09W0NIXVtDSDJdW0NIMl0y

> <s_epik_cmdline>
J2VwaWtfcHl0aG9uJywgJy1waCcsICc3LjAnLCAnLXRuJywgJzgnLCAnLW1hJywgJzIwMCcsICctbWV0YWxfYmluZGluZycsICctaW1hZScsICc8aW5maWxlLm1hZT4nLCAnLW9tYWUnLCAnPG91dGZpbGUubWFlPic=

> <r_lp_tautomer_probability>
1

> <r_epik_Ionization_Penalty>
0.635367

> <r_epik_Ionization_Penalty_Charging>
0.635367

> <r_epik_Ionization_Penalty_Neutral>
2.1249e-08

> <r_epik_State_Penalty>
0.65258

> <r_epik_Charging_Adjusted_Penalty>
1.28795

> <i_epik_Tot_Q>
0

> <i_epik_Tot_abs_Q>
0

> <r_epik_Metal_State_Penalty>
0.310403

> <b_epik_Metal_Only>
0

> <s_lp_Force_Field>
OPLS_2005

> <r_lp_Energy>
18.8766

> <b_lp_Chiralities_Consistent>
1

> <s_lp_Variant>
AV-unprocessed.smi:1920-5

> <Gold.Version>
5.8.1

> <Gold.Id.Protein>
6NUR|6NUR_protein|mol2

> <Gold.PLP.Fitness>
44.2639

> <Gold.PLP.PLP>
-42.5996

> <Gold.PLP.part.hbond>
-1.0000

> <Gold.PLP.part.metal>
0.0000

> <Gold.PLP.part.buried>
-2.2453

> <Gold.PLP.part.nonpolar>
-39.4956

> <Gold.PLP.part.repulsive>
0.0465

> <Gold.PLP.ligand.clash>
0.0000

> <Gold.PLP.ligand.torsion>
0.3469

> <Gold.PLP.Chemscore.Hbond>
0.7680

> <Gold.PLP.Chemscore.CHOScore>
0.0000

> <Gold.PLP.Chemscore.Metal>
0.0000

> <Gold.Chemscore.Hbonds>
donor molecule, donor type, donor heavy atom, donor atom, acceptor molecule, acceptor atom, score
      P1  H  7997  8010       L1    11  0.78

> <Gold.PLP.Chemscore.Internal.Correction>
0.0541

> <Gold.Rescore>
     Score         DG    S(hbond)    S(metal)    S(lipo)     H(rot)  DE(clash)    DE(int)     intcor
     14.63     -16.07       0.95        0.00     105.63       1.93       0.00       1.44       ----

> <Gold.Chemscore.Fitness>
14.6315

> <Gold.Chemscore.DG>
-16.0706

> <Gold.Chemscore.ZeroCoef>
-5.4800

> <Gold.Chemscore.Hbond>
0.9505

> <Gold.Chemscore.Metal>
0.0000

> <Gold.Chemscore.Lipo>
105.6281

> <Gold.Chemscore.Internal_Hbond>
0.0000

> <Gold.Chemscore.DEClash>
0.0038

> <Gold.Chemscore.DEInternal>
1.4353

> <Gold.Chemscore.Rot>
1.9306

> <Gold.Chemscore.Internal.Correction>
   9.000000E+99

> <Gold.Chemscore.Hbonds>
donor molecule, donor type, donor heavy atom, donor atom, acceptor molecule, acceptor atom, score
      P1  H  7997  8010       L1    11  0.75

> <Gold.Chemscore.Hbond.Weighted>
-3.1745

> <Gold.Chemscore.Metal.Weighted>
-0.0000

> <Gold.Chemscore.Lipo.Weighted>
-12.3585

> <Gold.Chemscore.Internal_Hbond.Weighted>
0.0000

> <Gold.Chemscore.DEClash.Weighted>
0.0038

> <Gold.Chemscore.DEInternal.Weighted>
1.4353

> <Gold.Chemscore.Rot.Weighted>
4.9424

> <Gold.Chemscore.Internal.Correction.Weighted>
   9.000000E+99

> <Gold.Protein.RotatedTorsions>
[ 6907 6896 6895 6894 ] final  131.32 input  -60.11 | X-H torsion
[ 7974 7965 7964 7962 ] final   20.48 input  175.53 | X-H torsion
[ 8008 7997 7996 7995 ] final    6.09 input   59.86 | X-H torsion
[ 10167 10162 10161 10158 ] final   25.57 input  -65.29 | X-H torsion
[ 10718 10713 10712 10709 ] final  145.15 input   66.30 | X-H torsion
[ 10763 10752 10751 10750 ] final  165.01 input  -60.55 | X-H torsion
[ 11005 11000 10999 10996 ] final  107.22 input  -57.11 | X-H torsion

> <Gold.Protein.ActiveResidues>
 VAL166  LYS551  ARG553  GLY616  TRP617  ASP618  TYR619  PRO620  LYS621  CYS622 
 ASP623  PHE694  ASN695  SER759  ASP760  ASP761  ALA762  ILE779  LEU786  VAL792 
 PHE793  MET794  SER795  GLU796  ALA797  LYS798  CYS799  TRP800  GLU811  SER814 

> <Gold.Protein.RotatedAtoms>
  152.3437  133.6097  159.5894 H   0  0  0  0  0  0  0  0  0  0  0  0  # atno 6907 bound_to 6896
  150.7494  133.9682  159.3546 H   0  0  0  0  0  0  0  0  0  0  0  0  # atno 6908 bound_to 6896
  151.7542  135.0826  160.0386 H   0  0  0  0  0  0  0  0  0  0  0  0  # atno 6909 bound_to 6896
  146.2109  139.8163  142.8689 H   0  0  0  0  0  0  0  0  0  0  0  0  # atno 7974 bound_to 7965
  154.7366  140.2741  155.6409 H   0  0  0  0  0  0  0  0  0  0  0  0  # atno 8008 bound_to 7997
  156.2863  140.2705  156.2007 H   0  0  0  0  0  0  0  0  0  0  0  0  # atno 8009 bound_to 7997
  155.0312  140.0371  157.2464 H   0  0  0  0  0  0  0  0  0  0  0  0  # atno 8010 bound_to 7997
  140.5095  144.0183  150.6366 H   0  0  0  0  0  0  0  0  0  0  0  0  # atno 10167 bound_to 10162
  157.3487  131.0947  151.1019 H   0  0  0  0  0  0  0  0  0  0  0  0  # atno 10718 bound_to 10713
  154.3176  135.2756  155.2535 H   0  0  0  0  0  0  0  0  0  0  0  0  # atno 10763 bound_to 10752
  154.4903  135.5835  153.6458 H   0  0  0  0  0  0  0  0  0  0  0  0  # atno 10764 bound_to 10752
  152.9880  135.6133  154.3358 H   0  0  0  0  0  0  0  0  0  0  0  0  # atno 10765 bound_to 10752
  139.8825  134.9394  156.5786 H   0  0  0  0  0  0  0  0  0  0  0  0  # atno 11005 bound_to 11000
  145.3143  141.0228  143.3537 LP  0  0  0  0  0  0  0  0  0  0  0  0  # atno 17320 bound_to 7965
  144.8913  139.4771  143.6676 LP  0  0  0  0  0  0  0  0  0  0  0  0  # atno 17321 bound_to 7965
  140.3502  143.2967  152.0495 LP  0  0  0  0  0  0  0  0  0  0  0  0  # atno 17342 bound_to 10162
  139.4892  144.6379  151.6937 LP  0  0  0  0  0  0  0  0  0  0  0  0  # atno 17343 bound_to 10162
  157.2203  130.6478  149.5808 LP  0  0  0  0  0  0  0  0  0  0  0  0  # atno 17370 bound_to 10713
  155.9718  130.4631  150.6171 LP  0  0  0  0  0  0  0  0  0  0  0  0  # atno 17371 bound_to 10713
  140.8044  133.8479  155.8754 LP  0  0  0  0  0  0  0  0  0  0  0  0  # atno 17394 bound_to 11000
  140.9563  134.1713  157.4689 LP  0  0  0  0  0  0  0  0  0  0  0  0  # atno 17395 bound_to 11000

$$$$
