AV-unprocessed.smi:261|AV-procd|sdf|1994|dock7
  -GOLD-   2262021183D 1   1.00000     0.00000
 Structure written by MMmdl.
 51 54  0  0  0  0  0  0  0  0  1 V2000
  142.8175  136.1782  152.6773 C   0  0  0  0  0  0  0  0  0  0  0  0
  143.7532  137.2007  152.9787 O   0  0  0  0  0  0  0  0  0  0  0  0
  145.0378  136.9943  152.4038 C   0  0  2  0  0  0  0  0  0  0  0  0
  145.6273  135.6304  152.7881 C   0  0  0  0  0  0  0  0  0  0  0  0
  146.2722  135.8490  154.1665 C   0  0  2  0  0  0  0  0  0  0  0  0
  145.2882  135.5285  155.3125 C   0  0  0  0  0  0  0  0  0  0  0  0
  145.6994  135.6725  156.5769 N   0  0  0  0  0  0  0  0  0  0  0  0
  144.1534  135.1381  155.0477 O   0  0  0  0  0  0  0  0  0  0  0  0
  146.6954  137.2489  154.1073 N   0  0  0  0  0  0  0  0  0  0  0  0
  147.6472  137.8214  154.8966 C   0  0  0  0  0  0  0  0  0  0  0  0
  148.1206  137.0952  155.9441 N   0  0  0  0  0  0  0  0  0  0  0  0
  149.0583  137.5918  156.7545 C   0  0  0  0  0  0  0  0  0  0  0  0
  149.6580  138.7806  156.7025 N   0  0  0  0  0  0  0  0  0  0  0  0
  149.1925  139.5220  155.6581 C   0  0  0  0  0  0  0  0  0  0  0  0
  148.1988  139.1270  154.7142 C   0  0  0  0  0  0  0  0  0  0  0  0
  148.0004  140.1576  153.8008 N   0  0  0  0  0  0  0  0  0  0  0  0
  148.8233  141.0960  154.1774 C   0  0  0  0  0  0  0  0  0  0  0  0
  149.5738  140.8005  155.2910 N   0  0  0  0  0  0  0  0  0  0  0  0
  150.5603  141.6606  155.9259 C   0  0  0  0  0  0  0  0  0  0  0  0
  150.2693  141.9504  157.4154 C   0  0  2  0  0  0  0  0  0  0  0  0
  149.0990  142.7378  157.5118 O   0  0  0  0  0  0  0  0  0  0  0  0
  151.4128  142.6804  158.1498 C   0  0  1  0  0  0  0  0  0  0  0  0
  151.6762  144.1043  157.6585 C   0  0  0  0  0  0  0  0  0  0  0  0
  152.3033  144.7893  158.8632 C   0  0  0  0  0  0  0  0  0  0  0  0
  152.0025  143.8436  160.0294 C   0  0  0  0  0  0  0  0  0  0  0  0
  151.0754  142.9013  159.5102 O   0  0  0  0  0  0  0  0  0  0  0  0
  146.0133  137.9853  153.0470 C   0  0  0  0  0  0  0  0  0  0  0  0
  144.9961  137.1390  151.3229 H   0  0  0  0  0  0  0  0  0  0  0  0
  147.1331  135.1862  154.2501 H   0  0  0  0  0  0  0  0  0  0  0  0
  141.8634  136.4088  153.1510 H   0  0  0  0  0  0  0  0  0  0  0  0
  143.1439  135.2054  153.0450 H   0  0  0  0  0  0  0  0  0  0  0  0
  142.6476  136.1056  151.6024 H   0  0  0  0  0  0  0  0  0  0  0  0
  144.9006  134.8180  152.7678 H   0  0  0  0  0  0  0  0  0  0  0  0
  146.4074  135.3681  152.0720 H   0  0  0  0  0  0  0  0  0  0  0  0
  145.0692  135.4587  157.3362 H   0  0  0  0  0  0  0  0  0  0  0  0
  146.6400  135.9862  156.7665 H   0  0  0  0  0  0  0  0  0  0  0  0
  149.3735  136.9433  157.5587 H   0  0  0  0  0  0  0  0  0  0  0  0
  148.8999  142.0387  153.6547 H   0  0  0  0  0  0  0  0  0  0  0  0
  151.5459  141.2076  155.8104 H   0  0  0  0  0  0  0  0  0  0  0  0
  150.5928  142.5993  155.3717 H   0  0  0  0  0  0  0  0  0  0  0  0
  150.0674  141.0022  157.9148 H   0  0  0  0  0  0  0  0  0  0  0  0
  149.0437  143.2878  156.7450 H   0  0  0  0  0  0  0  0  0  0  0  0
  152.3378  142.1021  158.1057 H   0  0  0  0  0  0  0  0  0  0  0  0
  152.3146  144.1322  156.7751 H   0  0  0  0  0  0  0  0  0  0  0  0
  150.7362  144.5981  157.4086 H   0  0  0  0  0  0  0  0  0  0  0  0
  153.3794  144.9151  158.7380 H   0  0  0  0  0  0  0  0  0  0  0  0
  151.8657  145.7758  159.0201 H   0  0  0  0  0  0  0  0  0  0  0  0
  152.9070  143.3201  160.3425 H   0  0  0  0  0  0  0  0  0  0  0  0
  151.5919  144.3624  160.8957 H   0  0  0  0  0  0  0  0  0  0  0  0
  146.7530  138.3112  152.3143 H   0  0  0  0  0  0  0  0  0  0  0  0
  145.5007  138.8704  153.4269 H   0  0  0  0  0  0  0  0  0  0  0  0
  1  2  1  0  0  0  0
  1 30  1  0  0  0  0
  1 31  1  0  0  0  0
  1 32  1  0  0  0  0
  2  3  1  0  0  0  0
  3 28  1  0  0  0  0
  3 27  1  0  0  0  0
  3  4  1  0  0  0  0
  4  5  1  0  0  0  0
  4 33  1  0  0  0  0
  4 34  1  0  0  0  0
  5 29  1  0  0  0  0
  5  6  1  0  0  0  0
  5  9  1  0  0  0  0
  6  7  1  0  0  0  0
  6  8  2  0  0  0  0
  7 35  1  0  0  0  0
  7 36  1  0  0  0  0
  9 10  1  0  0  0  0
  9 27  1  0  0  0  0
 10 15  1  0  0  0  0
 10 11  2  0  0  0  0
 11 12  1  0  0  0  0
 12 13  2  0  0  0  0
 12 37  1  0  0  0  0
 13 14  1  0  0  0  0
 14 18  1  0  0  0  0
 14 15  2  0  0  0  0
 15 16  1  0  0  0  0
 16 17  2  0  0  0  0
 17 18  1  0  0  0  0
 17 38  1  0  0  0  0
 18 19  1  0  0  0  0
 19 20  1  0  0  0  0
 19 39  1  0  0  0  0
 19 40  1  0  0  0  0
 20 21  1  0  0  0  0
 20 22  1  0  0  0  0
 20 41  1  0  0  0  0
 21 42  1  0  0  0  0
 22 26  1  0  0  0  0
 22 23  1  0  0  0  0
 22 43  1  0  0  0  0
 23 24  1  0  0  0  0
 23 44  1  0  0  0  0
 23 45  1  0  0  0  0
 24 25  1  0  0  0  0
 24 46  1  0  0  0  0
 24 47  1  0  0  0  0
 25 26  1  0  0  0  0
 25 48  1  0  0  0  0
 25 49  1  0  0  0  0
 27 50  1  0  0  0  0
 27 51  1  0  0  0  0
M  END
> <s_m_source_file>
AV-unprocessed.smi

> <i_m_source_file_index>
261

> <i_lp_mmshare_version>
43012

> <i_f3d_flags>
0

> <s_epik_input>
W0NIM11PW0NASF0xW0NIMl1bQ0BASF0oQyg9TylbTkgyXSlOKFtDSDJdMSljKG5bY0hdbjIpYyhjMjMpbltjSF1uM1tDSDJdW0NASF0oW09IXSlbQ0BASF00W0NIMl1bQ0gyXVtDSDJdTzQ=

> <s_epik_cmdline>
J2VwaWtfcHl0aG9uJywgJy1waCcsICc3LjAnLCAnLXRuJywgJzgnLCAnLW1hJywgJzIwMCcsICctbWV0YWxfYmluZGluZycsICctaW1hZScsICc8aW5maWxlLm1hZT4nLCAnLW9tYWUnLCAnPG91dGZpbGUubWFlPic=

> <r_lp_tautomer_probability>
1

> <r_epik_Ionization_Penalty>
0.000713824

> <r_epik_Ionization_Penalty_Charging>
0

> <r_epik_Ionization_Penalty_Neutral>
0.000713824

> <r_epik_State_Penalty>
0.000402132

> <r_epik_Charging_Adjusted_Penalty>
0.000402132

> <i_epik_Tot_Q>
0

> <i_epik_Tot_abs_Q>
0

> <r_epik_Metal_State_Penalty>
-0

> <b_epik_Metal_Only>
0

> <s_lp_Force_Field>
OPLS_2005

> <r_lp_Energy>
42.3495

> <b_lp_Chiralities_Consistent>
1

> <s_lp_Variant>
AV-unprocessed.smi:261-12

> <Gold.Version>
5.8.1

> <Gold.Id.Protein>
6NUR|6NUR_protein|mol2

> <Gold.PLP.Fitness>
38.7092

> <Gold.PLP.PLP>
-35.8938

> <Gold.PLP.part.hbond>
-1.3131

> <Gold.PLP.part.metal>
0.0000

> <Gold.PLP.part.buried>
-6.3247

> <Gold.PLP.part.nonpolar>
-30.3471

> <Gold.PLP.part.repulsive>
0.6994

> <Gold.PLP.ligand.clash>
0.0000

> <Gold.PLP.ligand.torsion>
0.1405

> <Gold.PLP.Chemscore.Hbond>
1.0000

> <Gold.PLP.Chemscore.CHOScore>
0.0000

> <Gold.PLP.Chemscore.Metal>
0.0000

> <Gold.Chemscore.Hbonds>
donor molecule, donor type, donor heavy atom, donor atom, acceptor molecule, acceptor atom, score
      L1  H    21    42       P1  8028  1.00

> <Gold.PLP.Chemscore.Internal.Correction>
0.0963

> <Gold.Rescore>
     Score         DG    S(hbond)    S(metal)    S(lipo)     H(rot)  DE(clash)    DE(int)     intcor
      7.34     -10.44       0.97        0.00      84.27       3.18       0.01       3.09       ----

> <Gold.Chemscore.Fitness>
7.3410

> <Gold.Chemscore.DG>
-10.4414

> <Gold.Chemscore.ZeroCoef>
-5.4800

> <Gold.Chemscore.Hbond>
0.9732

> <Gold.Chemscore.Metal>
0.0000

> <Gold.Chemscore.Lipo>
84.2701

> <Gold.Chemscore.Internal_Hbond>
0.0000

> <Gold.Chemscore.DEClash>
0.0106

> <Gold.Chemscore.DEInternal>
3.0898

> <Gold.Chemscore.Rot>
3.1831

> <Gold.Chemscore.Internal.Correction>
   9.000000E+99

> <Gold.Chemscore.Hbonds>
donor molecule, donor type, donor heavy atom, donor atom, acceptor molecule, acceptor atom, score
      L1  H    21    42       P1  8028  0.92

> <Gold.Chemscore.Hbond.Weighted>
-3.2504

> <Gold.Chemscore.Metal.Weighted>
-0.0000

> <Gold.Chemscore.Lipo.Weighted>
-9.8596

> <Gold.Chemscore.Internal_Hbond.Weighted>
0.0000

> <Gold.Chemscore.DEClash.Weighted>
0.0106

> <Gold.Chemscore.DEInternal.Weighted>
3.0898

> <Gold.Chemscore.Rot.Weighted>
8.1486

> <Gold.Chemscore.Internal.Correction.Weighted>
   9.000000E+99

> <Gold.Protein.RotatedTorsions>
[ 6907 6896 6895 6894 ] final   -7.27 input  -60.11 | X-H torsion
[ 7974 7965 7964 7962 ] final   44.41 input  175.53 | X-H torsion
[ 8008 7997 7996 7995 ] final  -71.94 input   59.86 | X-H torsion
[ 10167 10162 10161 10158 ] final -132.23 input  -65.29 | X-H torsion
[ 10718 10713 10712 10709 ] final  -48.98 input   66.30 | X-H torsion
[ 10763 10752 10751 10750 ] final   36.52 input  -60.55 | X-H torsion
[ 11005 11000 10999 10996 ] final  100.96 input  -57.11 | X-H torsion

> <Gold.Protein.ActiveResidues>
 VAL166  LYS551  ARG553  GLY616  TRP617  ASP618  TYR619  PRO620  LYS621  CYS622 
 ASP623  PHE694  ASN695  SER759  ASP760  ASP761  ALA762  ILE779  LEU786  VAL792 
 PHE793  MET794  SER795  GLU796  ALA797  LYS798  CYS799  TRP800  GLU811  SER814 

> <Gold.Protein.RotatedAtoms>
  151.4523  135.1031  159.9700 H   0  0  0  0  0  0  0  0  0  0  0  0  # atno 6907 bound_to 6896
  152.4884  133.8429  159.7172 H   0  0  0  0  0  0  0  0  0  0  0  0  # atno 6908 bound_to 6896
  150.9013  133.7055  159.2905 H   0  0  0  0  0  0  0  0  0  0  0  0  # atno 6909 bound_to 6896
  146.0571  139.5078  142.9681 H   0  0  0  0  0  0  0  0  0  0  0  0  # atno 7974 bound_to 7965
  154.5127  140.0806  156.8020 H   0  0  0  0  0  0  0  0  0  0  0  0  # atno 8008 bound_to 7997
  155.3750  140.3425  155.4226 H   0  0  0  0  0  0  0  0  0  0  0  0  # atno 8009 bound_to 7997
  156.1591  140.1583  156.8629 H   0  0  0  0  0  0  0  0  0  0  0  0  # atno 8010 bound_to 7997
  139.9107  143.6497  152.2576 H   0  0  0  0  0  0  0  0  0  0  0  0  # atno 10167 bound_to 10162
  156.1936  130.4153  149.9337 H   0  0  0  0  0  0  0  0  0  0  0  0  # atno 10718 bound_to 10713
  153.0073  135.6303  154.1999 H   0  0  0  0  0  0  0  0  0  0  0  0  # atno 10763 bound_to 10752
  154.1742  135.2817  155.3073 H   0  0  0  0  0  0  0  0  0  0  0  0  # atno 10764 bound_to 10752
  154.5885  135.5625  153.7315 H   0  0  0  0  0  0  0  0  0  0  0  0  # atno 10765 bound_to 10752
  139.8772  134.9163  156.4835 H   0  0  0  0  0  0  0  0  0  0  0  0  # atno 11005 bound_to 11000
  145.6624  141.0237  143.1701 LP  0  0  0  0  0  0  0  0  0  0  0  0  # atno 17320 bound_to 7965
  144.7154  139.8216  143.7400 LP  0  0  0  0  0  0  0  0  0  0  0  0  # atno 17321 bound_to 7965
  139.6945  144.7643  151.1381 LP  0  0  0  0  0  0  0  0  0  0  0  0  # atno 17342 bound_to 10162
  140.7686  143.5543  150.9169 LP  0  0  0  0  0  0  0  0  0  0  0  0  # atno 17343 bound_to 10162
  156.7069  130.8955  151.3605 LP  0  0  0  0  0  0  0  0  0  0  0  0  # atno 17370 bound_to 10713
  157.6944  130.9267  150.0603 LP  0  0  0  0  0  0  0  0  0  0  0  0  # atno 17371 bound_to 10713
  140.8710  133.7988  155.9365 LP  0  0  0  0  0  0  0  0  0  0  0  0  # atno 17394 bound_to 11000
  140.8952  134.2446  157.5072 LP  0  0  0  0  0  0  0  0  0  0  0  0  # atno 17395 bound_to 11000

$$$$
