AV-unprocessed.smi:219|AV-procd|sdf|1679|dock8
  -GOLD-   2262020113D 1   1.00000     0.00000
 Structure written by MMmdl.
 50 53  0  0  0  0  0  0  0  0  1 V2000
  145.0899  128.4716  153.3178 N   0  0  0  0  0  0  0  0  0  0  0  0
  146.0667  129.1794  152.7453 C   0  0  0  0  0  0  0  0  0  0  0  0
  146.7889  128.7109  151.8678 O   0  0  0  0  0  0  0  0  0  0  0  0
  146.2846  130.6081  153.2575 C   0  0  0  0  0  0  0  0  0  0  0  0
  146.2112  131.7190  152.1686 C   0  0  1  0  0  0  0  0  0  0  0  0
  144.8353  131.6371  151.4671 C   0  0  0  0  0  0  0  0  0  0  0  0
  144.6634  132.7206  150.3950 C   0  0  0  0  0  0  0  0  0  0  0  0
  144.8986  134.1020  151.0129 C   0  0  0  0  0  0  0  0  0  0  0  0
  146.2796  134.1540  151.6784 C   0  0  0  0  0  0  0  0  0  0  0  0
  146.4362  133.0888  152.6717 N   0  0  0  0  0  0  0  0  0  0  0  0
  147.5555  133.2781  153.4059 C   0  0  0  0  0  0  0  0  0  0  0  0
  148.4627  132.2733  153.5340 N   0  0  0  0  0  0  0  0  0  0  0  0
  149.5590  132.4583  154.2757 C   0  0  0  0  0  0  0  0  0  0  0  0
  149.9319  133.5425  154.9596 N   0  0  0  0  0  0  0  0  0  0  0  0
  149.0188  134.5484  154.8338 C   0  0  0  0  0  0  0  0  0  0  0  0
  147.8174  134.5026  154.0736 C   0  0  0  0  0  0  0  0  0  0  0  0
  147.1410  135.7109  154.1716 N   0  0  0  0  0  0  0  0  0  0  0  0
  147.8992  136.4318  154.9522 C   0  0  0  0  0  0  0  0  0  0  0  0
  149.0402  135.8081  155.4069 N   0  0  0  0  0  0  0  0  0  0  0  0
  150.0510  136.3714  156.2891 C   0  0  0  0  0  0  0  0  0  0  0  0
  151.1879  137.1107  155.5431 C   0  0  1  0  0  0  0  0  0  0  0  0
  151.5476  136.3702  154.3898 O   0  0  0  0  0  0  0  0  0  0  0  0
  150.7865  138.5134  155.1018 C   0  0  0  0  0  0  0  0  0  0  0  0
  152.1087  139.2679  155.1261 C   0  0  0  0  0  0  0  0  0  0  0  0
  152.7402  138.7541  156.2860 O   0  0  0  0  0  0  0  0  0  0  0  0
  152.4611  137.3602  156.3797 C   0  0  0  0  0  0  0  0  0  0  0  0
  144.9082  127.5280  153.0078 H   0  0  0  0  0  0  0  0  0  0  0  0
  144.5335  128.8818  154.0536 H   0  0  0  0  0  0  0  0  0  0  0  0
  145.5130  130.7784  154.0095 H   0  0  0  0  0  0  0  0  0  0  0  0
  147.2316  130.6683  153.7960 H   0  0  0  0  0  0  0  0  0  0  0  0
  146.9739  131.5222  151.4134 H   0  0  0  0  0  0  0  0  0  0  0  0
  144.7057  130.6560  151.0084 H   0  0  0  0  0  0  0  0  0  0  0  0
  144.0412  131.7379  152.2086 H   0  0  0  0  0  0  0  0  0  0  0  0
  145.3706  132.5525  149.5818 H   0  0  0  0  0  0  0  0  0  0  0  0
  143.6651  132.6665  149.9600 H   0  0  0  0  0  0  0  0  0  0  0  0
  144.8221  134.8744  150.2474 H   0  0  0  0  0  0  0  0  0  0  0  0
  144.1243  134.3147  151.7513 H   0  0  0  0  0  0  0  0  0  0  0  0
  147.0533  134.0594  150.9147 H   0  0  0  0  0  0  0  0  0  0  0  0
  146.4182  135.1268  152.1529 H   0  0  0  0  0  0  0  0  0  0  0  0
  150.2321  131.6158  154.3334 H   0  0  0  0  0  0  0  0  0  0  0  0
  147.6411  137.4453  155.2227 H   0  0  0  0  0  0  0  0  0  0  0  0
  149.5573  137.0482  156.9877 H   0  0  0  0  0  0  0  0  0  0  0  0
  150.4632  135.5603  156.8906 H   0  0  0  0  0  0  0  0  0  0  0  0
  150.7635  136.1800  153.8980 H   0  0  0  0  0  0  0  0  0  0  0  0
  150.2918  138.5447  154.1300 H   0  0  0  0  0  0  0  0  0  0  0  0
  150.1107  138.9613  155.8318 H   0  0  0  0  0  0  0  0  0  0  0  0
  152.7100  139.0358  154.2456 H   0  0  0  0  0  0  0  0  0  0  0  0
  151.9789  140.3487  155.1831 H   0  0  0  0  0  0  0  0  0  0  0  0
  152.3253  137.1121  157.4317 H   0  0  0  0  0  0  0  0  0  0  0  0
  153.3133  136.7837  156.0158 H   0  0  0  0  0  0  0  0  0  0  0  0
  1  2  1  0  0  0  0
  1 27  1  0  0  0  0
  1 28  1  0  0  0  0
  2  3  2  0  0  0  0
  2  4  1  0  0  0  0
  4  5  1  0  0  0  0
  4 29  1  0  0  0  0
  4 30  1  0  0  0  0
  5 10  1  0  0  0  0
  5  6  1  0  0  0  0
  5 31  1  0  0  0  0
  6  7  1  0  0  0  0
  6 32  1  0  0  0  0
  6 33  1  0  0  0  0
  7  8  1  0  0  0  0
  7 34  1  0  0  0  0
  7 35  1  0  0  0  0
  8  9  1  0  0  0  0
  8 36  1  0  0  0  0
  8 37  1  0  0  0  0
  9 10  1  0  0  0  0
  9 38  1  0  0  0  0
  9 39  1  0  0  0  0
 10 11  1  0  0  0  0
 11 16  1  0  0  0  0
 11 12  2  0  0  0  0
 12 13  1  0  0  0  0
 13 14  2  0  0  0  0
 13 40  1  0  0  0  0
 14 15  1  0  0  0  0
 15 19  1  0  0  0  0
 15 16  2  0  0  0  0
 16 17  1  0  0  0  0
 17 18  2  0  0  0  0
 18 19  1  0  0  0  0
 18 41  1  0  0  0  0
 19 20  1  0  0  0  0
 20 21  1  0  0  0  0
 20 42  1  0  0  0  0
 20 43  1  0  0  0  0
 21 26  1  0  0  0  0
 21 22  1  0  0  0  0
 21 23  1  0  0  0  0
 22 44  1  0  0  0  0
 23 24  1  0  0  0  0
 23 45  1  0  0  0  0
 23 46  1  0  0  0  0
 24 25  1  0  0  0  0
 24 47  1  0  0  0  0
 24 48  1  0  0  0  0
 25 26  1  0  0  0  0
 26 49  1  0  0  0  0
 26 50  1  0  0  0  0
M  END
> <s_m_source_file>
AV-unprocessed.smi

> <i_m_source_file_index>
219

> <i_lp_mmshare_version>
43012

> <i_f3d_flags>
0

> <s_epik_input>
W05IMl1DKD1PKVtDSDJdW0NAQEhdMVtDSDJdW0NIMl1bQ0gyXVtDSDJdTjFjKG5bY0hdbjIpYyhjMjMpbltjSF1uM1tDSDJdW0NAQF00KFtPSF0pW0NIMl1bQ0gyXU9bQ0gyXTQ=

> <s_epik_cmdline>
J2VwaWtfcHl0aG9uJywgJy1waCcsICc3LjAnLCAnLXRuJywgJzgnLCAnLW1hJywgJzIwMCcsICctbWV0YWxfYmluZGluZycsICctaW1hZScsICc8aW5maWxlLm1hZT4nLCAnLW9tYWUnLCAnPG91dGZpbGUubWFlPic=

> <r_lp_tautomer_probability>
1

> <r_epik_Ionization_Penalty>
0.00228532

> <r_epik_Ionization_Penalty_Charging>
0

> <r_epik_Ionization_Penalty_Neutral>
0.00228532

> <r_epik_State_Penalty>
0.00140978

> <r_epik_Charging_Adjusted_Penalty>
0.00140978

> <i_epik_Tot_Q>
0

> <i_epik_Tot_abs_Q>
0

> <r_epik_Metal_State_Penalty>
-0

> <b_epik_Metal_Only>
0

> <s_lp_Force_Field>
OPLS_2005

> <r_lp_Energy>
37.1625

> <b_lp_Chiralities_Consistent>
1

> <s_lp_Variant>
AV-unprocessed.smi:219-2

> <Gold.Version>
5.8.1

> <Gold.Id.Protein>
6NUR|6NUR_protein|mol2

> <Gold.PLP.Fitness>
44.6259

> <Gold.PLP.PLP>
-36.7420

> <Gold.PLP.part.hbond>
-4.0000

> <Gold.PLP.part.metal>
0.0000

> <Gold.PLP.part.buried>
-4.9396

> <Gold.PLP.part.nonpolar>
-28.0841

> <Gold.PLP.part.repulsive>
1.2229

> <Gold.PLP.ligand.clash>
0.0000

> <Gold.PLP.ligand.torsion>
0.7237

> <Gold.PLP.Chemscore.Hbond>
3.0242

> <Gold.PLP.Chemscore.CHOScore>
0.0000

> <Gold.PLP.Chemscore.Metal>
0.0000

> <Gold.Chemscore.Hbonds>
donor molecule, donor type, donor heavy atom, donor atom, acceptor molecule, acceptor atom, score
      L1  H     1    28       P1 10956  1.00
      P1  H  7997  8009       L1    25  0.66
      P1  H 10752 10763       L1    22  1.00

> <Gold.PLP.Chemscore.Internal.Correction>
0.2589

> <Gold.Rescore>
     Score         DG    S(hbond)    S(metal)    S(lipo)     H(rot)  DE(clash)    DE(int)     intcor
     11.48     -13.77       2.66        0.00      68.57       3.37       0.10       2.19       ----

> <Gold.Chemscore.Fitness>
11.4778

> <Gold.Chemscore.DG>
-13.7704

> <Gold.Chemscore.ZeroCoef>
-5.4800

> <Gold.Chemscore.Hbond>
2.6628

> <Gold.Chemscore.Metal>
0.0000

> <Gold.Chemscore.Lipo>
68.5727

> <Gold.Chemscore.Internal_Hbond>
0.0000

> <Gold.Chemscore.DEClash>
0.0988

> <Gold.Chemscore.DEInternal>
2.1939

> <Gold.Chemscore.Rot>
3.3697

> <Gold.Chemscore.Internal.Correction>
   9.000000E+99

> <Gold.Chemscore.Hbonds>
donor molecule, donor type, donor heavy atom, donor atom, acceptor molecule, acceptor atom, score
      L1  H     1    28       P1 10956  0.97
      P1  H  7997  8009       L1    25  0.09
      P1  H 10752 10763       L1    22  0.96

> <Gold.Chemscore.Hbond.Weighted>
-8.8938

> <Gold.Chemscore.Metal.Weighted>
-0.0000

> <Gold.Chemscore.Lipo.Weighted>
-8.0230

> <Gold.Chemscore.Internal_Hbond.Weighted>
0.0000

> <Gold.Chemscore.DEClash.Weighted>
0.0988

> <Gold.Chemscore.DEInternal.Weighted>
2.1939

> <Gold.Chemscore.Rot.Weighted>
8.6264

> <Gold.Chemscore.Internal.Correction.Weighted>
   9.000000E+99

> <Gold.Protein.RotatedTorsions>
[ 6907 6896 6895 6894 ] final  110.97 input  -60.11 | X-H torsion
[ 7974 7965 7964 7962 ] final -124.05 input  175.53 | X-H torsion
[ 8008 7997 7996 7995 ] final -159.79 input   59.86 | X-H torsion
[ 10167 10162 10161 10158 ] final  -31.71 input  -65.29 | X-H torsion
[ 10718 10713 10712 10709 ] final   43.84 input   66.30 | X-H torsion
[ 10763 10752 10751 10750 ] final   40.59 input  -60.55 | X-H torsion
[ 11005 11000 10999 10996 ] final -157.29 input  -57.11 | X-H torsion

> <Gold.Protein.ActiveResidues>
 VAL166  LYS551  ARG553  GLY616  TRP617  ASP618  TYR619  PRO620  LYS621  CYS622 
 ASP623  PHE694  ASN695  SER759  ASP760  ASP761  ALA762  ILE779  LEU786  VAL792 
 PHE793  MET794  SER795  GLU796  ALA797  LYS798  CYS799  TRP800  GLU811  SER814 

> <Gold.Protein.RotatedAtoms>
  152.4993  133.8724  159.7304 H   0  0  0  0  0  0  0  0  0  0  0  0  # atno 6907 bound_to 6896
  150.9207  133.6875  159.2839 H   0  0  0  0  0  0  0  0  0  0  0  0  # atno 6908 bound_to 6896
  151.4253  135.1007  159.9678 H   0  0  0  0  0  0  0  0  0  0  0  0  # atno 6909 bound_to 6896
  145.0121  140.7915  143.4432 H   0  0  0  0  0  0  0  0  0  0  0  0  # atno 7974 bound_to 7965
  155.7679  140.0848  157.2123 H   0  0  0  0  0  0  0  0  0  0  0  0  # atno 8008 bound_to 7997
  154.3998  140.1531  156.2964 H   0  0  0  0  0  0  0  0  0  0  0  0  # atno 8009 bound_to 7997
  155.8776  140.3422  155.5867 H   0  0  0  0  0  0  0  0  0  0  0  0  # atno 8010 bound_to 7997
  140.7232  143.3749  151.1707 H   0  0  0  0  0  0  0  0  0  0  0  0  # atno 10167 bound_to 10162
  157.4204  130.7965  149.7510 H   0  0  0  0  0  0  0  0  0  0  0  0  # atno 10718 bound_to 10713
  152.9932  135.6187  154.2650 H   0  0  0  0  0  0  0  0  0  0  0  0  # atno 10763 bound_to 10752
  154.2385  135.2789  155.2865 H   0  0  0  0  0  0  0  0  0  0  0  0  # atno 10764 bound_to 10752
  154.5389  135.5766  153.6880 H   0  0  0  0  0  0  0  0  0  0  0  0  # atno 10765 bound_to 10752
  140.6662  134.4296  157.5233 H   0  0  0  0  0  0  0  0  0  0  0  0  # atno 11005 bound_to 11000
  145.2009  139.2253  143.5193 LP  0  0  0  0  0  0  0  0  0  0  0  0  # atno 17320 bound_to 7965
  146.3471  140.1826  142.8589 LP  0  0  0  0  0  0  0  0  0  0  0  0  # atno 17321 bound_to 7965
  139.7328  143.9046  152.3025 LP  0  0  0  0  0  0  0  0  0  0  0  0  # atno 17342 bound_to 10162
  139.8841  144.7002  150.8845 LP  0  0  0  0  0  0  0  0  0  0  0  0  # atno 17343 bound_to 10162
  155.9878  130.3963  150.3145 LP  0  0  0  0  0  0  0  0  0  0  0  0  # atno 17370 bound_to 10713
  157.1292  131.0267  151.2976 LP  0  0  0  0  0  0  0  0  0  0  0  0  # atno 17371 bound_to 10713
  139.8996  134.8586  156.1951 LP  0  0  0  0  0  0  0  0  0  0  0  0  # atno 17394 bound_to 11000
  141.0427  133.6929  156.1627 LP  0  0  0  0  0  0  0  0  0  0  0  0  # atno 17395 bound_to 11000

$$$$
