AV-unprocessed.smi:2214|AV-procd|sdf|8958|dock2
  -GOLD-   2272012173D 1   1.00000     0.00000
 Structure written by MMmdl.
 41 42  0  0  0  0  0  0  0  0  1 V2000
  151.5389  144.7358  159.1543 C   0  0  0  0  0  0  0  0  0  0  0  0
  152.1678  143.3904  159.4531 C   0  0  0  0  0  0  0  0  0  0  0  0
  152.7883  143.1558  160.6958 C   0  0  0  0  0  0  0  0  0  0  0  0
  153.3705  141.9038  160.9641 C   0  0  0  0  0  0  0  0  0  0  0  0
  153.3351  140.8837  159.9938 C   0  0  0  0  0  0  0  0  0  0  0  0
  154.0590  139.3557  160.3483 Cl  0  0  0  0  0  0  0  0  0  0  0  0
  152.7177  141.1036  158.7425 C   0  0  0  0  0  0  0  0  0  0  0  0
  152.7221  140.0583  157.8435 O   0  0  0  0  0  0  0  0  0  0  0  0
  151.8276  140.1057  156.7389 C   0  0  0  0  0  0  0  0  0  0  0  0
  151.9539  138.8152  155.9115 C   0  0  2  0  0  0  0  0  0  0  0  0
  153.2929  138.7148  155.4697 O   0  0  0  0  0  0  0  0  0  0  0  0
  150.9836  138.7719  154.7095 C   0  0  0  0  0  0  0  0  0  0  0  0
  149.5826  138.9696  155.1162 N   0  0  0  0  0  0  0  0  0  0  0  0
  149.0129  137.9532  155.9000 C   0  0  0  0  0  0  0  0  0  0  0  0
  147.7901  138.0201  156.3145 N   0  0  0  0  0  0  0  0  0  0  0  0
  147.0005  139.1245  155.9816 C   0  0  0  0  0  0  0  0  0  0  0  0
  145.5790  139.0996  156.5153 C   0  0  0  0  0  0  0  0  0  0  0  0
  147.4937  140.1449  155.2280 C   0  0  0  0  0  0  0  0  0  0  0  0
  146.6807  141.3713  154.8330 C   0  0  0  0  0  0  0  0  0  0  0  0
  148.8870  140.0871  154.7569 C   0  0  0  0  0  0  0  0  0  0  0  0
  149.4036  140.9824  154.0856 O   0  0  0  0  0  0  0  0  0  0  0  0
  152.1343  142.3696  158.4812 C   0  0  0  0  0  0  0  0  0  0  0  0
  151.4524  145.3428  160.0560 H   0  0  0  0  0  0  0  0  0  0  0  0
  150.5398  144.6049  158.7374 H   0  0  0  0  0  0  0  0  0  0  0  0
  152.1443  145.2819  158.4305 H   0  0  0  0  0  0  0  0  0  0  0  0
  152.8207  143.9323  161.4460 H   0  0  0  0  0  0  0  0  0  0  0  0
  153.8458  141.7262  161.9175 H   0  0  0  0  0  0  0  0  0  0  0  0
  150.7974  140.2492  157.0697 H   0  0  0  0  0  0  0  0  0  0  0  0
  152.0930  140.9532  156.1047 H   0  0  0  0  0  0  0  0  0  0  0  0
  151.7695  137.9735  156.5802 H   0  0  0  0  0  0  0  0  0  0  0  0
  153.8322  139.2670  156.0146 H   0  0  0  0  0  0  0  0  0  0  0  0
  151.2502  139.5610  154.0037 H   0  0  0  0  0  0  0  0  0  0  0  0
  151.1206  137.8492  154.1410 H   0  0  0  0  0  0  0  0  0  0  0  0
  149.6715  137.1150  156.1341 H   0  0  0  0  0  0  0  0  0  0  0  0
  144.8622  139.1114  155.6940 H   0  0  0  0  0  0  0  0  0  0  0  0
  145.3950  139.9651  157.1523 H   0  0  0  0  0  0  0  0  0  0  0  0
  145.3930  138.2034  157.1086 H   0  0  0  0  0  0  0  0  0  0  0  0
  147.1358  142.2730  155.2440 H   0  0  0  0  0  0  0  0  0  0  0  0
  145.6503  141.3344  155.1818 H   0  0  0  0  0  0  0  0  0  0  0  0
  146.6538  141.4707  153.7475 H   0  0  0  0  0  0  0  0  0  0  0  0
  151.6529  142.5816  157.5388 H   0  0  0  0  0  0  0  0  0  0  0  0
  1  2  1  0  0  0  0
  1 23  1  0  0  0  0
  1 24  1  0  0  0  0
  1 25  1  0  0  0  0
  2 22  1  0  0  0  0
  2  3  2  0  0  0  0
  3  4  1  0  0  0  0
  3 26  1  0  0  0  0
  4  5  2  0  0  0  0
  4 27  1  0  0  0  0
  5  6  1  0  0  0  0
  5  7  1  0  0  0  0
  7  8  1  0  0  0  0
  7 22  2  0  0  0  0
  8  9  1  0  0  0  0
  9 10  1  0  0  0  0
  9 28  1  0  0  0  0
  9 29  1  0  0  0  0
 10 11  1  0  0  0  0
 10 12  1  0  0  0  0
 10 30  1  0  0  0  0
 11 31  1  0  0  0  0
 12 13  1  0  0  0  0
 12 32  1  0  0  0  0
 12 33  1  0  0  0  0
 13 20  1  0  0  0  0
 13 14  1  0  0  0  0
 14 15  2  0  0  0  0
 14 34  1  0  0  0  0
 15 16  1  0  0  0  0
 16 17  1  0  0  0  0
 16 18  2  0  0  0  0
 17 35  1  0  0  0  0
 17 36  1  0  0  0  0
 17 37  1  0  0  0  0
 18 19  1  0  0  0  0
 18 20  1  0  0  0  0
 19 38  1  0  0  0  0
 19 39  1  0  0  0  0
 19 40  1  0  0  0  0
 20 21  2  0  0  0  0
 22 41  1  0  0  0  0
M  END
> <s_m_source_file>
AV-unprocessed.smi

> <i_m_source_file_index>
2214

> <i_lp_mmshare_version>
43012

> <i_f3d_flags>
0

> <s_epik_input>
W0NIM11jMVtjSF1bY0hdYyhDbCljKFtjSF0xKU9bQ0gyXVtDQEhdKFtPSF0pW0NIMl1uMltjSF1uYyhbQ0gzXSljKFtDSDNdKWMyPU8=

> <s_epik_cmdline>
J2VwaWtfcHl0aG9uJywgJy1waCcsICc3LjAnLCAnLXRuJywgJzgnLCAnLW1hJywgJzIwMCcsICctbWV0YWxfYmluZGluZycsICctaW1hZScsICc8aW5maWxlLm1hZT4nLCAnLW9tYWUnLCAnPG91dGZpbGUubWFlPic=

> <r_lp_tautomer_probability>
1

> <r_epik_Ionization_Penalty>
3.50205e-05

> <r_epik_Ionization_Penalty_Charging>
7.87908e-08

> <r_epik_Ionization_Penalty_Neutral>
3.49418e-05

> <r_epik_State_Penalty>
-0

> <r_epik_Charging_Adjusted_Penalty>
7.87908e-08

> <i_epik_Tot_Q>
0

> <i_epik_Tot_abs_Q>
0

> <r_epik_Metal_State_Penalty>
-0

> <b_epik_Metal_Only>
0

> <s_lp_Force_Field>
OPLS_2005

> <r_lp_Energy>
24.1684

> <b_lp_Chiralities_Consistent>
1

> <s_lp_Variant>
AV-unprocessed.smi:2214-1

> <Gold.Version>
5.8.1

> <Gold.Id.Protein>
6NUR|6NUR_protein|mol2

> <Gold.PLP.Fitness>
49.1505

> <Gold.PLP.PLP>
-43.7744

> <Gold.PLP.part.hbond>
-4.0000

> <Gold.PLP.part.metal>
0.0000

> <Gold.PLP.part.buried>
-3.9059

> <Gold.PLP.part.nonpolar>
-35.8761

> <Gold.PLP.part.repulsive>
1.2946

> <Gold.PLP.ligand.clash>
0.0000

> <Gold.PLP.ligand.torsion>
0.2752

> <Gold.PLP.Chemscore.Hbond>
1.9711

> <Gold.PLP.Chemscore.CHOScore>
0.0000

> <Gold.PLP.Chemscore.Metal>
0.0000

> <Gold.Chemscore.Hbonds>
donor molecule, donor type, donor heavy atom, donor atom, acceptor molecule, acceptor atom, score
      P1  H  7989  7998       L1    21  0.17
      P1  H  7997  8009       L1     8  0.85
      P1  H  8011  8017       L1    21  0.30

> <Gold.PLP.Chemscore.Internal.Correction>
0.0132

> <Gold.Rescore>
     Score         DG    S(hbond)    S(metal)    S(lipo)     H(rot)  DE(clash)    DE(int)     intcor
     16.43     -17.94       1.52        0.00     114.49       2.35       1.37       0.13       ----

> <Gold.Chemscore.Fitness>
16.4316

> <Gold.Chemscore.DG>
-17.9395

> <Gold.Chemscore.ZeroCoef>
-5.4800

> <Gold.Chemscore.Hbond>
1.5204

> <Gold.Chemscore.Metal>
0.0000

> <Gold.Chemscore.Lipo>
114.4878

> <Gold.Chemscore.Internal_Hbond>
0.0000

> <Gold.Chemscore.DEClash>
1.3745

> <Gold.Chemscore.DEInternal>
0.1334

> <Gold.Chemscore.Rot>
2.3490

> <Gold.Chemscore.Internal.Correction>
   9.000000E+99

> <Gold.Chemscore.Hbonds>
donor molecule, donor type, donor heavy atom, donor atom, acceptor molecule, acceptor atom, score
      P1  H  7989  7998       L1    21  0.17
      P1  H  7997  8009       L1     8  0.10
      P1  H  8011  8017       L1    21  0.29

> <Gold.Chemscore.Hbond.Weighted>
-5.0780

> <Gold.Chemscore.Metal.Weighted>
-0.0000

> <Gold.Chemscore.Lipo.Weighted>
-13.3951

> <Gold.Chemscore.Internal_Hbond.Weighted>
0.0000

> <Gold.Chemscore.DEClash.Weighted>
1.3745

> <Gold.Chemscore.DEInternal.Weighted>
0.1334

> <Gold.Chemscore.Rot.Weighted>
6.0136

> <Gold.Chemscore.Internal.Correction.Weighted>
   9.000000E+99

> <Gold.Protein.RotatedTorsions>
[ 6907 6896 6895 6894 ] final  -13.23 input  -60.11 | X-H torsion
[ 7974 7965 7964 7962 ] final  165.36 input  175.53 | X-H torsion
[ 8008 7997 7996 7995 ] final  171.55 input   59.86 | X-H torsion
[ 10167 10162 10161 10158 ] final   85.42 input  -65.29 | X-H torsion
[ 10718 10713 10712 10709 ] final  167.75 input   66.30 | X-H torsion
[ 10763 10752 10751 10750 ] final  142.16 input  -60.55 | X-H torsion
[ 11005 11000 10999 10996 ] final   12.08 input  -57.11 | X-H torsion

> <Gold.Protein.ActiveResidues>
 VAL166  LYS551  ARG553  GLY616  TRP617  ASP618  TYR619  PRO620  LYS621  CYS622 
 ASP623  PHE694  ASN695  SER759  ASP760  ASP761  ALA762  ILE779  LEU786  VAL792 
 PHE793  MET794  SER795  GLU796  ALA797  LYS798  CYS799  TRP800  GLU811  SER814 

> <Gold.Protein.RotatedAtoms>
  151.3582  135.0898  159.9425 H   0  0  0  0  0  0  0  0  0  0  0  0  # atno 6907 bound_to 6896
  152.5169  133.9285  159.7579 H   0  0  0  0  0  0  0  0  0  0  0  0  # atno 6908 bound_to 6896
  150.9674  133.6326  159.2773 H   0  0  0  0  0  0  0  0  0  0  0  0  # atno 6909 bound_to 6896
  144.7506  139.8460  143.6367 H   0  0  0  0  0  0  0  0  0  0  0  0  # atno 7974 bound_to 7965
  156.1261  140.1509  156.9135 H   0  0  0  0  0  0  0  0  0  0  0  0  # atno 8008 bound_to 7997
  154.4872  140.0862  156.7554 H   0  0  0  0  0  0  0  0  0  0  0  0  # atno 8009 bound_to 7997
  155.4342  140.3428  155.4285 H   0  0  0  0  0  0  0  0  0  0  0  0  # atno 8010 bound_to 7997
  139.8979  144.6347  150.8668 H   0  0  0  0  0  0  0  0  0  0  0  0  # atno 10167 bound_to 10162
  157.0470  131.0303  151.2694 H   0  0  0  0  0  0  0  0  0  0  0  0  # atno 10718 bound_to 10713
  153.9511  135.2970  155.3438 H   0  0  0  0  0  0  0  0  0  0  0  0  # atno 10763 bound_to 10752
  154.7425  135.5018  153.9151 H   0  0  0  0  0  0  0  0  0  0  0  0  # atno 10764 bound_to 10752
  153.0993  135.6730  153.9811 H   0  0  0  0  0  0  0  0  0  0  0  0  # atno 10765 bound_to 10752
  140.4960  134.0793  155.7782 H   0  0  0  0  0  0  0  0  0  0  0  0  # atno 11005 bound_to 11000
  146.1449  139.4516  143.0085 LP  0  0  0  0  0  0  0  0  0  0  0  0  # atno 17320 bound_to 7965
  145.6960  141.0150  143.1530 LP  0  0  0  0  0  0  0  0  0  0  0  0  # atno 17321 bound_to 7965
  140.7713  143.3459  151.2111 LP  0  0  0  0  0  0  0  0  0  0  0  0  # atno 17342 bound_to 10162
  139.7051  143.9468  152.2923 LP  0  0  0  0  0  0  0  0  0  0  0  0  # atno 17343 bound_to 10162
  157.5060  130.7909  149.7654 LP  0  0  0  0  0  0  0  0  0  0  0  0  # atno 17370 bound_to 10713
  156.0019  130.3875  150.2572 LP  0  0  0  0  0  0  0  0  0  0  0  0  # atno 17371 bound_to 10713
  141.1460  133.9054  157.2214 LP  0  0  0  0  0  0  0  0  0  0  0  0  # atno 17394 bound_to 11000
  139.9741  135.0119  156.9587 LP  0  0  0  0  0  0  0  0  0  0  0  0  # atno 17395 bound_to 11000

$$$$
