AV-unprocessed.smi:3030|AV-procd|sdf|11540|dock6
  -GOLD-   2272016483D 1   1.00000     0.00000
 Structure written by MMmdl.
 52 53  0  0  0  0  0  0  0  0  1 V2000
  154.1136  140.6634  161.1673 C   0  0  0  0  0  0  0  0  0  0  0  0
  153.9876  140.8302  159.6490 C   0  0  0  0  0  0  0  0  0  0  0  0
  153.1681  141.9812  159.2989 N   0  0  0  0  0  0  0  0  0  0  0  0
  153.3010  143.1928  159.9689 C   0  0  0  0  0  0  0  0  0  0  0  0
  152.5322  144.2734  159.7333 C   0  0  0  0  0  0  0  0  0  0  0  0
  151.4705  144.1969  158.7094 C   0  0  0  0  0  0  0  0  0  0  0  0
  150.7501  145.1658  158.4686 O   0  0  0  0  0  0  0  0  0  0  0  0
  151.3245  142.9000  157.9964 C   0  0  0  0  0  0  0  0  0  0  0  0
  150.3171  142.8399  157.0191 N   0  0  0  0  0  0  0  0  0  0  0  0
  149.5759  141.7910  156.6178 C   0  0  0  0  0  0  0  0  0  0  0  0
  149.6348  140.6482  157.0702 O   0  0  0  0  0  0  0  0  0  0  0  0
  148.7341  142.1521  155.6392 N   0  0  0  0  0  0  0  0  0  0  0  0
  147.7903  141.2665  154.9593 C   0  0  1  0  0  0  0  0  0  0  0  0
  148.5772  140.1576  154.2270 C   0  0  0  0  0  0  0  0  0  0  0  0
  147.6650  139.1277  153.5347 C   0  0  2  0  0  0  0  0  0  0  0  0
  146.9972  139.6856  152.2654 C   0  0  0  0  0  0  0  0  0  0  0  0
  146.6495  138.5534  154.5390 C   0  0  0  0  0  0  0  0  0  0  0  0
  145.8498  139.6522  155.2575 C   0  0  0  0  0  0  0  0  0  0  0  0
  146.7726  140.6694  155.9699 C   0  0  2  0  0  0  0  0  0  0  0  0
  145.9898  141.7426  156.7854 C   0  0  0  0  0  0  0  0  0  0  0  0
  145.1873  141.1282  157.9454 C   0  0  0  0  0  0  0  0  0  0  0  0
  145.0929  142.6548  155.9281 C   0  0  0  0  0  0  0  0  0  0  0  0
  152.1700  141.8914  158.3306 C   0  0  0  0  0  0  0  0  0  0  0  0
  154.7358  139.8025  161.4115 H   0  0  0  0  0  0  0  0  0  0  0  0
  153.1377  140.5112  161.6292 H   0  0  0  0  0  0  0  0  0  0  0  0
  154.5681  141.5429  161.6242 H   0  0  0  0  0  0  0  0  0  0  0  0
  154.9777  140.9402  159.2050 H   0  0  0  0  0  0  0  0  0  0  0  0
  153.5558  139.9289  159.2122 H   0  0  0  0  0  0  0  0  0  0  0  0
  154.0899  143.2093  160.7069 H   0  0  0  0  0  0  0  0  0  0  0  0
  152.6748  145.1963  160.2763 H   0  0  0  0  0  0  0  0  0  0  0  0
  150.1252  143.7216  156.5656 H   0  0  0  0  0  0  0  0  0  0  0  0
  148.7513  143.1134  155.3317 H   0  0  0  0  0  0  0  0  0  0  0  0
  147.2372  141.8399  154.2145 H   0  0  0  0  0  0  0  0  0  0  0  0
  149.2561  140.5976  153.4950 H   0  0  0  0  0  0  0  0  0  0  0  0
  149.2104  139.6358  154.9463 H   0  0  0  0  0  0  0  0  0  0  0  0
  148.2989  138.3025  153.2075 H   0  0  0  0  0  0  0  0  0  0  0  0
  146.3379  140.5257  152.4819 H   0  0  0  0  0  0  0  0  0  0  0  0
  146.4012  138.9195  151.7689 H   0  0  0  0  0  0  0  0  0  0  0  0
  147.7452  140.0309  151.5513 H   0  0  0  0  0  0  0  0  0  0  0  0
  145.9690  137.8657  154.0360 H   0  0  0  0  0  0  0  0  0  0  0  0
  147.1813  137.9602  155.2839 H   0  0  0  0  0  0  0  0  0  0  0  0
  145.2095  140.1613  154.5376 H   0  0  0  0  0  0  0  0  0  0  0  0
  145.1819  139.1765  155.9745 H   0  0  0  0  0  0  0  0  0  0  0  0
  147.3589  140.1022  156.6952 H   0  0  0  0  0  0  0  0  0  0  0  0
  146.7234  142.3922  157.2627 H   0  0  0  0  0  0  0  0  0  0  0  0
  144.3448  140.5357  157.5893 H   0  0  0  0  0  0  0  0  0  0  0  0
  144.7834  141.9069  158.5930 H   0  0  0  0  0  0  0  0  0  0  0  0
  145.8141  140.4846  158.5632 H   0  0  0  0  0  0  0  0  0  0  0  0
  144.2894  142.0976  155.4472 H   0  0  0  0  0  0  0  0  0  0  0  0
  145.6596  143.1672  155.1512 H   0  0  0  0  0  0  0  0  0  0  0  0
  144.6282  143.4262  156.5427 H   0  0  0  0  0  0  0  0  0  0  0  0
  152.1483  140.9236  157.8565 H   0  0  0  0  0  0  0  0  0  0  0  0
  1  2  1  0  0  0  0
  1 24  1  0  0  0  0
  1 25  1  0  0  0  0
  1 26  1  0  0  0  0
  2  3  1  0  0  0  0
  2 27  1  0  0  0  0
  2 28  1  0  0  0  0
  3 23  1  0  0  0  0
  3  4  1  0  0  0  0
  4  5  2  0  0  0  0
  4 29  1  0  0  0  0
  5  6  1  0  0  0  0
  5 30  1  0  0  0  0
  6  7  2  0  0  0  0
  6  8  1  0  0  0  0
  8  9  1  0  0  0  0
  8 23  2  0  0  0  0
  9 10  1  0  0  0  0
  9 31  1  0  0  0  0
 10 11  2  0  0  0  0
 10 12  1  0  0  0  0
 12 13  1  0  0  0  0
 12 32  1  0  0  0  0
 13 19  1  0  0  0  0
 13 14  1  0  0  0  0
 13 33  1  0  0  0  0
 14 15  1  0  0  0  0
 14 34  1  0  0  0  0
 14 35  1  0  0  0  0
 15 16  1  0  0  0  0
 15 17  1  0  0  0  0
 15 36  1  0  0  0  0
 16 37  1  0  0  0  0
 16 38  1  0  0  0  0
 16 39  1  0  0  0  0
 17 18  1  0  0  0  0
 17 40  1  0  0  0  0
 17 41  1  0  0  0  0
 18 19  1  0  0  0  0
 18 42  1  0  0  0  0
 18 43  1  0  0  0  0
 19 20  1  0  0  0  0
 19 44  1  0  0  0  0
 20 21  1  0  0  0  0
 20 22  1  0  0  0  0
 20 45  1  0  0  0  0
 21 46  1  0  0  0  0
 21 47  1  0  0  0  0
 21 48  1  0  0  0  0
 22 49  1  0  0  0  0
 22 50  1  0  0  0  0
 22 51  1  0  0  0  0
 23 52  1  0  0  0  0
M  END
> <s_m_source_file>
AV-unprocessed.smi

> <i_m_source_file_index>
3030

> <i_lp_mmshare_version>
43012

> <i_f3d_flags>
0

> <s_epik_input>
W0NIM11bQ0gyXW4xW2NIXVtjSF1jKD1PKWMoW2NIXTEpW05IXUMoPU8pW05IXVtDQEBIXTJbQ0gyXVtDQEBIXShbQ0gzXSlbQ0gyXVtDSDJdW0NASF0yW0NIXShbQ0gzXSlbQ0gzXQ==

> <s_epik_cmdline>
J2VwaWtfcHl0aG9uJywgJy1waCcsICc3LjAnLCAnLXRuJywgJzgnLCAnLW1hJywgJzIwMCcsICctbWV0YWxfYmluZGluZycsICctaW1hZScsICc8aW5maWxlLm1hZT4nLCAnLW9tYWUnLCAnPG91dGZpbGUubWFlPic=

> <r_lp_tautomer_probability>
1

> <r_epik_Ionization_Penalty>
0.00147933

> <r_epik_Ionization_Penalty_Charging>
0.00145753

> <r_epik_Ionization_Penalty_Neutral>
2.17987e-05

> <r_epik_State_Penalty>
0.00097457

> <r_epik_Charging_Adjusted_Penalty>
0.0024321

> <i_epik_Tot_Q>
0

> <i_epik_Tot_abs_Q>
0

> <r_epik_Metal_State_Penalty>
-0

> <b_epik_Metal_Only>
0

> <s_lp_Force_Field>
OPLS_2005

> <r_lp_Energy>
11.4945

> <b_lp_Chiralities_Consistent>
1

> <s_lp_Variant>
AV-unprocessed.smi:3030-8

> <Gold.Version>
5.8.1

> <Gold.Id.Protein>
6NUR|6NUR_protein|mol2

> <Gold.PLP.Fitness>
43.3494

> <Gold.PLP.PLP>
-38.3560

> <Gold.PLP.part.hbond>
-2.0000

> <Gold.PLP.part.metal>
0.0000

> <Gold.PLP.part.buried>
-2.2292

> <Gold.PLP.part.nonpolar>
-34.7212

> <Gold.PLP.part.repulsive>
0.3514

> <Gold.PLP.ligand.clash>
0.0000

> <Gold.PLP.ligand.torsion>
0.4338

> <Gold.PLP.Chemscore.Hbond>
1.9280

> <Gold.PLP.Chemscore.CHOScore>
0.0000

> <Gold.PLP.Chemscore.Metal>
0.0000

> <Gold.Chemscore.Hbonds>
donor molecule, donor type, donor heavy atom, donor atom, acceptor molecule, acceptor atom, score
      L1  H     9    31       P1  8028  0.93
      L1  H    12    32       P1  8028  1.00

> <Gold.PLP.Chemscore.Internal.Correction>
0.0771

> <Gold.Rescore>
     Score         DG    S(hbond)    S(metal)    S(lipo)     H(rot)  DE(clash)    DE(int)     intcor
     17.95     -19.36       1.93        0.00      91.23       1.27       0.13       1.28       ----

> <Gold.Chemscore.Fitness>
17.9527

> <Gold.Chemscore.DG>
-19.3555

> <Gold.Chemscore.ZeroCoef>
-5.4800

> <Gold.Chemscore.Hbond>
1.9309

> <Gold.Chemscore.Metal>
0.0000

> <Gold.Chemscore.Lipo>
91.2295

> <Gold.Chemscore.Internal_Hbond>
0.0000

> <Gold.Chemscore.DEClash>
0.1268

> <Gold.Chemscore.DEInternal>
1.2760

> <Gold.Chemscore.Rot>
1.2685

> <Gold.Chemscore.Internal.Correction>
   9.000000E+99

> <Gold.Chemscore.Hbonds>
donor molecule, donor type, donor heavy atom, donor atom, acceptor molecule, acceptor atom, score
      L1  H     9    31       P1  8028  0.91
      L1  H    12    32       P1  8028  0.96

> <Gold.Chemscore.Hbond.Weighted>
-6.4491

> <Gold.Chemscore.Metal.Weighted>
-0.0000

> <Gold.Chemscore.Lipo.Weighted>
-10.6738

> <Gold.Chemscore.Internal_Hbond.Weighted>
0.0000

> <Gold.Chemscore.DEClash.Weighted>
0.1268

> <Gold.Chemscore.DEInternal.Weighted>
1.2760

> <Gold.Chemscore.Rot.Weighted>
3.2474

> <Gold.Chemscore.Internal.Correction.Weighted>
   9.000000E+99

> <Gold.Protein.RotatedTorsions>
[ 6907 6896 6895 6894 ] final  -76.82 input  -60.11 | X-H torsion
[ 7974 7965 7964 7962 ] final -114.09 input  175.53 | X-H torsion
[ 8008 7997 7996 7995 ] final -145.99 input   59.86 | X-H torsion
[ 10167 10162 10161 10158 ] final   65.02 input  -65.29 | X-H torsion
[ 10718 10713 10712 10709 ] final   79.32 input   66.30 | X-H torsion
[ 10763 10752 10751 10750 ] final -110.77 input  -60.55 | X-H torsion
[ 11005 11000 10999 10996 ] final  -21.92 input  -57.11 | X-H torsion

> <Gold.Protein.ActiveResidues>
 VAL166  LYS551  ARG553  GLY616  TRP617  ASP618  TYR619  PRO620  LYS621  CYS622 
 ASP623  PHE694  ASN695  SER759  ASP760  ASP761  ALA762  ILE779  LEU786  VAL792 
 PHE793  MET794  SER795  GLU796  ALA797  LYS798  CYS799  TRP800  GLU811  SER814 

> <Gold.Protein.RotatedAtoms>
  150.7016  134.4516  159.5338 H   0  0  0  0  0  0  0  0  0  0  0  0  # atno 6907 bound_to 6896
  152.2207  134.8413  160.0495 H   0  0  0  0  0  0  0  0  0  0  0  0  # atno 6908 bound_to 6896
  151.9264  133.3564  159.3952 H   0  0  0  0  0  0  0  0  0  0  0  0  # atno 6909 bound_to 6896
  145.1243  140.8687  143.3795 H   0  0  0  0  0  0  0  0  0  0  0  0  # atno 7974 bound_to 7965
  155.5522  140.0617  157.2847 H   0  0  0  0  0  0  0  0  0  0  0  0  # atno 8008 bound_to 7997
  154.4417  140.1900  156.0742 H   0  0  0  0  0  0  0  0  0  0  0  0  # atno 8009 bound_to 7997
  156.0508  140.3284  155.7353 H   0  0  0  0  0  0  0  0  0  0  0  0  # atno 8010 bound_to 7997
  140.1159  144.4776  150.6950 H   0  0  0  0  0  0  0  0  0  0  0  0  # atno 10167 bound_to 10162
  157.6773  130.9909  150.1915 H   0  0  0  0  0  0  0  0  0  0  0  0  # atno 10718 bound_to 10713
  154.8265  135.4552  154.0936 H   0  0  0  0  0  0  0  0  0  0  0  0  # atno 10763 bound_to 10752
  153.2245  135.6898  153.7967 H   0  0  0  0  0  0  0  0  0  0  0  0  # atno 10764 bound_to 10752
  153.7372  135.3318  155.3274 H   0  0  0  0  0  0  0  0  0  0  0  0  # atno 10765 bound_to 10752
  140.8608  133.7790  156.0072 H   0  0  0  0  0  0  0  0  0  0  0  0  # atno 11005 bound_to 11000
  145.0706  139.3035  143.5834 LP  0  0  0  0  0  0  0  0  0  0  0  0  # atno 17320 bound_to 7965
  146.3519  140.0179  142.8661 LP  0  0  0  0  0  0  0  0  0  0  0  0  # atno 17321 bound_to 7965
  140.6900  143.2370  151.5158 LP  0  0  0  0  0  0  0  0  0  0  0  0  # atno 17342 bound_to 10162
  139.5594  144.2193  152.1667 LP  0  0  0  0  0  0  0  0  0  0  0  0  # atno 17343 bound_to 10162
  156.2625  130.3712  149.8115 LP  0  0  0  0  0  0  0  0  0  0  0  0  # atno 17370 bound_to 10713
  156.5856  130.8484  151.3394 LP  0  0  0  0  0  0  0  0  0  0  0  0  # atno 17371 bound_to 10713
  140.8685  134.2755  157.5202 LP  0  0  0  0  0  0  0  0  0  0  0  0  # atno 17394 bound_to 11000
  139.8707  134.9555  156.4208 LP  0  0  0  0  0  0  0  0  0  0  0  0  # atno 17395 bound_to 11000

$$$$
