AV-unprocessed.smi:1778|AV-procd|sdf|7180|dock2
  -GOLD-   22720 8413D 1   1.00000     0.00000
 Structure written by MMmdl.
 34 35  0  0  0  0  0  0  0  0  1 V2000
  145.0329  130.7364  151.7258 C   0  0  0  0  0  0  0  0  0  0  0  0
  144.7740  132.2148  151.6694 C   0  0  0  0  0  0  0  0  0  0  0  0
  143.5273  132.6486  151.5936 N   0  0  0  0  0  0  0  0  0  0  0  0
  143.6083  134.0435  151.5433 O   0  0  0  0  0  0  0  0  0  0  0  0
  144.9173  134.3992  151.5900 C   0  0  0  0  0  0  0  0  0  0  0  0
  145.2201  135.8585  151.5388 C   0  0  0  0  0  0  0  0  0  0  0  0
  145.7116  133.2889  151.6712 C   0  0  0  0  0  0  0  0  0  0  0  0
  147.2160  133.2197  151.7378 C   0  0  0  0  0  0  0  0  0  0  0  0
  147.6595  133.0551  153.1911 C   0  0  0  0  0  0  0  0  0  0  0  0
  147.2641  132.0948  153.8513 O   0  0  0  0  0  0  0  0  0  0  0  0
  148.4790  134.0006  153.6757 N   0  0  0  0  0  0  0  0  0  0  0  0
  148.9994  134.0440  155.0374 C   0  0  1  0  0  0  0  0  0  0  0  0
  150.1313  133.0202  155.2591 C   0  0  0  0  0  0  0  0  0  0  0  0
  150.8700  133.3783  156.5543 C   0  0  0  0  0  0  0  0  0  0  0  0
  150.7576  135.2006  156.7168 S   0  0  0  0  0  0  0  0  0  0  0  0
  150.1200  135.5269  158.0014 O   0  0  0  0  0  0  0  0  0  0  0  0
  152.0393  135.8102  156.3314 O   0  0  0  0  0  0  0  0  0  0  0  0
  149.5514  135.4398  155.3584 C   0  0  0  0  0  0  0  0  0  0  0  0
  144.9611  130.2914  150.7333 H   0  0  0  0  0  0  0  0  0  0  0  0
  144.3126  130.2320  152.3705 H   0  0  0  0  0  0  0  0  0  0  0  0
  146.0275  130.5193  152.1142 H   0  0  0  0  0  0  0  0  0  0  0  0
  145.7897  136.1012  150.6416 H   0  0  0  0  0  0  0  0  0  0  0  0
  145.8087  136.1608  152.4047 H   0  0  0  0  0  0  0  0  0  0  0  0
  144.3051  136.4512  151.5295 H   0  0  0  0  0  0  0  0  0  0  0  0
  147.5996  132.3821  151.1540 H   0  0  0  0  0  0  0  0  0  0  0  0
  147.6800  134.1130  151.3185 H   0  0  0  0  0  0  0  0  0  0  0  0
  148.7525  134.7508  153.0577 H   0  0  0  0  0  0  0  0  0  0  0  0
  148.1955  133.8299  155.7445 H   0  0  0  0  0  0  0  0  0  0  0  0
  149.7561  131.9966  155.2847 H   0  0  0  0  0  0  0  0  0  0  0  0
  150.8361  133.0795  154.4284 H   0  0  0  0  0  0  0  0  0  0  0  0
  150.3734  132.9330  157.4167 H   0  0  0  0  0  0  0  0  0  0  0  0
  151.9133  133.0622  156.5515 H   0  0  0  0  0  0  0  0  0  0  0  0
  150.0911  135.8596  154.5087 H   0  0  0  0  0  0  0  0  0  0  0  0
  148.7776  136.1453  155.6618 H   0  0  0  0  0  0  0  0  0  0  0  0
  1  2  1  0  0  0  0
  1 19  1  0  0  0  0
  1 20  1  0  0  0  0
  1 21  1  0  0  0  0
  2  7  1  0  0  0  0
  2  3  2  0  0  0  0
  3  4  1  0  0  0  0
  4  5  1  0  0  0  0
  5  6  1  0  0  0  0
  5  7  2  0  0  0  0
  6 22  1  0  0  0  0
  6 23  1  0  0  0  0
  6 24  1  0  0  0  0
  7  8  1  0  0  0  0
  8  9  1  0  0  0  0
  8 25  1  0  0  0  0
  8 26  1  0  0  0  0
  9 10  2  0  0  0  0
  9 11  1  0  0  0  0
 11 12  1  0  0  0  0
 11 27  1  0  0  0  0
 12 18  1  0  0  0  0
 12 13  1  0  0  0  0
 12 28  1  0  0  0  0
 13 14  1  0  0  0  0
 13 29  1  0  0  0  0
 13 30  1  0  0  0  0
 14 15  1  0  0  0  0
 14 31  1  0  0  0  0
 14 32  1  0  0  0  0
 15 16  2  0  0  0  0
 15 17  2  0  0  0  0
 15 18  1  0  0  0  0
 18 33  1  0  0  0  0
 18 34  1  0  0  0  0
M  END
> <s_m_source_file>
AV-unprocessed.smi

> <i_m_source_file_index>
1778

> <i_lp_mmshare_version>
43012

> <i_f3d_flags>
0

> <s_epik_input>
W0NIM11jMW5vYyhbQ0gzXSljMVtDSDJdQyg9TylbTkhdW0NAQEhdKFtDSDJdMilbQ0gyXVtDSDJdUzIoPU8pPU8=

> <s_epik_cmdline>
J2VwaWtfcHl0aG9uJywgJy1waCcsICc3LjAnLCAnLXRuJywgJzgnLCAnLW1hJywgJzIwMCcsICctbWV0YWxfYmluZGluZycsICctaW1hZScsICc8aW5maWxlLm1hZT4nLCAnLW9tYWUnLCAnPG91dGZpbGUubWFlPic=

> <r_lp_tautomer_probability>
1

> <r_epik_Ionization_Penalty>
1.26334e-07

> <r_epik_Ionization_Penalty_Charging>
0

> <r_epik_Ionization_Penalty_Neutral>
1.26334e-07

> <r_epik_State_Penalty>
-0

> <r_epik_Charging_Adjusted_Penalty>
0

> <i_epik_Tot_Q>
0

> <i_epik_Tot_abs_Q>
0

> <r_epik_Metal_State_Penalty>
-0

> <b_epik_Metal_Only>
0

> <s_lp_Force_Field>
OPLS_2005

> <r_lp_Energy>
-2.84578

> <b_lp_Chiralities_Consistent>
1

> <s_lp_Variant>
AV-unprocessed.smi:1778-2

> <Gold.Version>
5.8.1

> <Gold.Id.Protein>
6NUR|6NUR_protein|mol2

> <Gold.PLP.Fitness>
35.8511

> <Gold.PLP.PLP>
-29.1044

> <Gold.PLP.part.hbond>
-3.0000

> <Gold.PLP.part.metal>
0.0000

> <Gold.PLP.part.buried>
-4.8200

> <Gold.PLP.part.nonpolar>
-21.7647

> <Gold.PLP.part.repulsive>
0.4801

> <Gold.PLP.ligand.clash>
0.0000

> <Gold.PLP.ligand.torsion>
0.5277

> <Gold.PLP.Chemscore.Hbond>
2.6000

> <Gold.PLP.Chemscore.CHOScore>
0.0000

> <Gold.PLP.Chemscore.Metal>
0.0000

> <Gold.Chemscore.Hbonds>
donor molecule, donor type, donor heavy atom, donor atom, acceptor molecule, acceptor atom, score
      L1  H    11    27       P1  7948  0.95
      P1  H  6896  6907       L1    16  0.78
      P1  H 10752 10763       L1    17  1.00

> <Gold.PLP.Chemscore.Internal.Correction>
0.0022

> <Gold.Rescore>
     Score         DG    S(hbond)    S(metal)    S(lipo)     H(rot)  DE(clash)    DE(int)     intcor
     15.36     -16.08       2.34        0.00      56.88       1.51       0.19       0.54       ----

> <Gold.Chemscore.Fitness>
15.3593

> <Gold.Chemscore.DG>
-16.0822

> <Gold.Chemscore.ZeroCoef>
-5.4800

> <Gold.Chemscore.Hbond>
2.3354

> <Gold.Chemscore.Metal>
0.0000

> <Gold.Chemscore.Lipo>
56.8804

> <Gold.Chemscore.Internal_Hbond>
0.0000

> <Gold.Chemscore.DEClash>
0.1862

> <Gold.Chemscore.DEInternal>
0.5368

> <Gold.Chemscore.Rot>
1.5051

> <Gold.Chemscore.Internal.Correction>
   9.000000E+99

> <Gold.Chemscore.Hbonds>
donor molecule, donor type, donor heavy atom, donor atom, acceptor molecule, acceptor atom, score
      L1  H    11    27       P1  7948  0.22
      P1  H  6896  6907       L1    16  0.76
      P1  H 10752 10763       L1    17  1.00

> <Gold.Chemscore.Hbond.Weighted>
-7.8003

> <Gold.Chemscore.Metal.Weighted>
-0.0000

> <Gold.Chemscore.Lipo.Weighted>
-6.6550

> <Gold.Chemscore.Internal_Hbond.Weighted>
0.0000

> <Gold.Chemscore.DEClash.Weighted>
0.1862

> <Gold.Chemscore.DEInternal.Weighted>
0.5368

> <Gold.Chemscore.Rot.Weighted>
3.8531

> <Gold.Chemscore.Internal.Correction.Weighted>
   9.000000E+99

> <Gold.Protein.RotatedTorsions>
[ 6907 6896 6895 6894 ] final  -56.71 input  -60.11 | X-H torsion
[ 7974 7965 7964 7962 ] final   46.51 input  175.53 | X-H torsion
[ 8008 7997 7996 7995 ] final   76.57 input   59.86 | X-H torsion
[ 10167 10162 10161 10158 ] final   13.97 input  -65.29 | X-H torsion
[ 10718 10713 10712 10709 ] final  -27.32 input   66.30 | X-H torsion
[ 10763 10752 10751 10750 ] final  101.95 input  -60.55 | X-H torsion
[ 11005 11000 10999 10996 ] final -147.61 input  -57.11 | X-H torsion

> <Gold.Protein.ActiveResidues>
 VAL166  LYS551  ARG553  GLY616  TRP617  ASP618  TYR619  PRO620  LYS621  CYS622 
 ASP623  PHE694  ASN695  SER759  ASP760  ASP761  ALA762  ILE779  LEU786  VAL792 
 PHE793  MET794  SER795  GLU796  ALA797  LYS798  CYS799  TRP800  GLU811  SER814 

> <Gold.Protein.RotatedAtoms>
  150.8145  134.7319  159.6717 H   0  0  0  0  0  0  0  0  0  0  0  0  # atno 6907 bound_to 6896
  152.4264  134.5856  159.9970 H   0  0  0  0  0  0  0  0  0  0  0  0  # atno 6908 bound_to 6896
  151.6057  133.3315  159.3093 H   0  0  0  0  0  0  0  0  0  0  0  0  # atno 6909 bound_to 6896
  146.0383  139.4848  142.9794 H   0  0  0  0  0  0  0  0  0  0  0  0  # atno 7974 bound_to 7965
  155.8292  140.3467  155.5561 H   0  0  0  0  0  0  0  0  0  0  0  0  # atno 8008 bound_to 7997
  155.8260  140.0920  157.1840 H   0  0  0  0  0  0  0  0  0  0  0  0  # atno 8009 bound_to 7997
  154.4004  140.1421  156.3544 H   0  0  0  0  0  0  0  0  0  0  0  0  # atno 8010 bound_to 7997
  140.5967  143.8687  150.6925 H   0  0  0  0  0  0  0  0  0  0  0  0  # atno 10167 bound_to 10162
  156.4396  130.4461  149.7061 H   0  0  0  0  0  0  0  0  0  0  0  0  # atno 10718 bound_to 10713
  153.3333  135.4027  155.1513 H   0  0  0  0  0  0  0  0  0  0  0  0  # atno 10763 bound_to 10752
  154.8628  135.3616  154.5442 H   0  0  0  0  0  0  0  0  0  0  0  0  # atno 10764 bound_to 10752
  153.5882  135.7074  153.5494 H   0  0  0  0  0  0  0  0  0  0  0  0  # atno 10765 bound_to 10752
  140.7699  134.3201  157.5078 H   0  0  0  0  0  0  0  0  0  0  0  0  # atno 11005 bound_to 11000
  145.6927  141.0159  143.1546 LP  0  0  0  0  0  0  0  0  0  0  0  0  # atno 17320 bound_to 7965
  144.7062  139.8552  143.7429 LP  0  0  0  0  0  0  0  0  0  0  0  0  # atno 17321 bound_to 7965
  140.2223  143.3799  152.1633 LP  0  0  0  0  0  0  0  0  0  0  0  0  # atno 17342 bound_to 10162
  139.5263  144.7106  151.5218 LP  0  0  0  0  0  0  0  0  0  0  0  0  # atno 17343 bound_to 10162
  156.3931  130.7637  151.2640 LP  0  0  0  0  0  0  0  0  0  0  0  0  # atno 17370 bound_to 10713
  157.7506  131.0262  150.3951 LP  0  0  0  0  0  0  0  0  0  0  0  0  # atno 17371 bound_to 10713
  139.8757  134.9254  156.3374 LP  0  0  0  0  0  0  0  0  0  0  0  0  # atno 17394 bound_to 11000
  140.9584  133.7405  156.0367 LP  0  0  0  0  0  0  0  0  0  0  0  0  # atno 17395 bound_to 11000

$$$$
