AV-unprocessed.smi:53|AV-procd|sdf|517|dock5
  -GOLD-   2262016393D 1   1.00000     0.00000
 Structure written by MMmdl.
 30 31  0  0  0  0  0  0  0  0  1 V2000
  153.9612  138.1094  154.7839 N   0  0  0  0  0  0  0  0  0  0  0  0
  152.7002  138.5506  154.8911 C   0  0  0  0  0  0  0  0  0  0  0  0
  151.6368  137.9076  154.1528 C   0  0  0  0  0  0  0  0  0  0  0  0
  150.3928  138.4091  154.3148 C   0  0  0  0  0  0  0  0  0  0  0  0
  150.1319  139.4847  155.1519 N   0  0  0  0  0  0  0  0  0  0  0  0
  148.7261  140.0272  155.3048 C   0  0  2  0  0  0  0  0  0  0  0  0
  147.8405  138.9508  155.3886 O   0  0  0  0  0  0  0  0  0  0  0  0
  146.6710  139.2450  154.6354 C   0  0  2  0  0  0  0  0  0  0  0  0
  145.8870  137.9635  154.3012 C   0  0  0  0  0  0  0  0  0  0  0  0
  144.9995  138.1989  153.2288 O   0  0  0  0  0  0  0  0  0  0  0  0
  147.1935  140.0750  153.4540 C   0  0  2  0  0  0  0  0  0  0  0  0
  147.6945  139.2402  152.4227 O   0  0  0  0  0  0  0  0  0  0  0  0
  148.2876  140.9104  154.1142 C   0  0  2  0  0  0  0  0  0  0  0  0
  149.3173  141.2970  153.2186 O   0  0  0  0  0  0  0  0  0  0  0  0
  151.1967  140.1029  155.8512 C   0  0  0  0  0  0  0  0  0  0  0  0
  151.0179  141.0803  156.5770 O   0  0  0  0  0  0  0  0  0  0  0  0
  152.4499  139.5799  155.6773 N   0  0  0  0  0  0  0  0  0  0  0  0
  148.6910  140.5570  156.2582 H   0  0  0  0  0  0  0  0  0  0  0  0
  146.0491  139.8863  155.2632 H   0  0  0  0  0  0  0  0  0  0  0  0
  146.4099  140.7024  153.0280 H   0  0  0  0  0  0  0  0  0  0  0  0
  147.8411  141.8129  154.5338 H   0  0  0  0  0  0  0  0  0  0  0  0
  154.7026  138.5615  155.2987 H   0  0  0  0  0  0  0  0  0  0  0  0
  154.1673  137.3210  154.1873 H   0  0  0  0  0  0  0  0  0  0  0  0
  151.7941  137.0652  153.4945 H   0  0  0  0  0  0  0  0  0  0  0  0
  149.5868  137.9443  153.7665 H   0  0  0  0  0  0  0  0  0  0  0  0
  146.5512  137.1342  154.0576 H   0  0  0  0  0  0  0  0  0  0  0  0
  145.2999  137.6531  155.1656 H   0  0  0  0  0  0  0  0  0  0  0  0
  144.7295  139.1043  153.2556 H   0  0  0  0  0  0  0  0  0  0  0  0
  148.2975  139.7439  151.8980 H   0  0  0  0  0  0  0  0  0  0  0  0
  149.5086  140.5660  152.6506 H   0  0  0  0  0  0  0  0  0  0  0  0
  1  2  1  0  0  0  0
  1 22  1  0  0  0  0
  1 23  1  0  0  0  0
  2 17  2  0  0  0  0
  2  3  1  0  0  0  0
  3  4  2  0  0  0  0
  3 24  1  0  0  0  0
  4  5  1  0  0  0  0
  4 25  1  0  0  0  0
  5  6  1  0  0  0  0
  5 15  1  0  0  0  0
  6 18  1  0  0  0  0
  6 13  1  0  0  0  0
  6  7  1  0  0  0  0
  7  8  1  0  0  0  0
  8 19  1  0  0  0  0
  8  9  1  0  0  0  0
  8 11  1  0  0  0  0
  9 10  1  0  0  0  0
  9 26  1  0  0  0  0
  9 27  1  0  0  0  0
 10 28  1  0  0  0  0
 11 20  1  0  0  0  0
 11 12  1  0  0  0  0
 11 13  1  0  0  0  0
 12 29  1  0  0  0  0
 13 21  1  0  0  0  0
 13 14  1  0  0  0  0
 14 30  1  0  0  0  0
 15 16  2  0  0  0  0
 15 17  1  0  0  0  0
M  END
> <s_m_source_file>
AV-unprocessed.smi

> <i_m_source_file_index>
53

> <i_lp_mmshare_version>
43012

> <i_f3d_flags>
0

> <s_epik_input>
W05IMl1jMVtjSF1bY0hdbihjKD1PKW4xKVtDQEBIXTJPW0NASF0oW0NIMl1bT0hdKVtDQEBIXShbT0hdKVtDQEBIXTJbT0hd

> <s_epik_cmdline>
J2VwaWtfcHl0aG9uJywgJy1waCcsICc3LjAnLCAnLXRuJywgJzgnLCAnLW1hJywgJzIwMCcsICctbWV0YWxfYmluZGluZycsICctaW1hZScsICc8aW5maWxlLm1hZT4nLCAnLW9tYWUnLCAnPG91dGZpbGUubWFlPic=

> <r_lp_tautomer_probability>
0.99996

> <r_epik_Ionization_Penalty>
0.00069087

> <r_epik_Ionization_Penalty_Charging>
2.61959e-08

> <r_epik_Ionization_Penalty_Neutral>
0.000690844

> <r_epik_State_Penalty>
1.15523e-05

> <r_epik_Charging_Adjusted_Penalty>
1.15785e-05

> <i_epik_Tot_Q>
0

> <i_epik_Tot_abs_Q>
0

> <r_epik_Metal_State_Penalty>
-0

> <b_epik_Metal_Only>
0

> <s_epik_Chemistry_Notes>
This compound contains an acetal/aminal-like group ( X-CH(R)-Y where X, Y are N, S, or O) that may be acid/base labile, releasing an aldehyde.

> <s_lp_Force_Field>
OPLS_2005

> <r_lp_Energy>
39.6979

> <b_lp_Chiralities_Consistent>
1

> <s_lp_Variant>
AV-unprocessed.smi:53-5

> <Gold.Version>
5.8.1

> <Gold.Id.Protein>
6NUR|6NUR_protein|mol2

> <Gold.PLP.Fitness>
43.0625

> <Gold.PLP.PLP>
-27.8136

> <Gold.PLP.part.hbond>
-5.6110

> <Gold.PLP.part.metal>
0.0000

> <Gold.PLP.part.buried>
-5.4704

> <Gold.PLP.part.nonpolar>
-18.0046

> <Gold.PLP.part.repulsive>
0.8065

> <Gold.PLP.ligand.clash>
0.0000

> <Gold.PLP.ligand.torsion>
0.6650

> <Gold.PLP.Chemscore.Hbond>
4.6885

> <Gold.PLP.Chemscore.CHOScore>
0.8323

> <Gold.PLP.Chemscore.Metal>
0.0000

> <Gold.Chemscore.Hbonds>
donor molecule, donor type, donor heavy atom, donor atom, acceptor molecule, acceptor atom, score
      L1  H    10    28       P1 10175  0.93
      L1  H    12    29       P1  7957  0.94
      L1  H    14    30       P1  7957  0.91
      P1  H  7997  8009       L1    17  0.91
      P1  H  8011  8017       L1    14  0.88
      L1  C     4    25       P1  7948  0.81

> <Gold.PLP.Chemscore.Internal.Correction>
0.0167

> <Gold.Rescore>
     Score         DG    S(hbond)    S(metal)    S(lipo)     H(rot)  DE(clash)    DE(int)     intcor
     10.84     -12.47       3.68        0.00      35.80       3.71       1.23       0.41       ----

> <Gold.Chemscore.Fitness>
10.8377

> <Gold.Chemscore.DG>
-12.4733

> <Gold.Chemscore.ZeroCoef>
-5.4800

> <Gold.Chemscore.Hbond>
3.6828

> <Gold.Chemscore.Metal>
0.0000

> <Gold.Chemscore.Lipo>
35.8046

> <Gold.Chemscore.Internal_Hbond>
0.0000

> <Gold.Chemscore.DEClash>
1.2275

> <Gold.Chemscore.DEInternal>
0.4081

> <Gold.Chemscore.Rot>
3.7095

> <Gold.Chemscore.Internal.Correction>
   9.000000E+99

> <Gold.Chemscore.Hbonds>
donor molecule, donor type, donor heavy atom, donor atom, acceptor molecule, acceptor atom, score
      L1  H    10    28       P1 10175  0.89
      L1  H    12    29       P1  7957  0.89
      L1  H    14    30       P1  7957  0.87
      P1  H  7997  8009       L1    17  0.35
      P1  H  8011  8017       L1    14  0.19

> <Gold.Chemscore.Hbond.Weighted>
-12.3005

> <Gold.Chemscore.Metal.Weighted>
-0.0000

> <Gold.Chemscore.Lipo.Weighted>
-4.1891

> <Gold.Chemscore.Internal_Hbond.Weighted>
0.0000

> <Gold.Chemscore.DEClash.Weighted>
1.2275

> <Gold.Chemscore.DEInternal.Weighted>
0.4081

> <Gold.Chemscore.Rot.Weighted>
9.4964

> <Gold.Chemscore.Internal.Correction.Weighted>
   9.000000E+99

> <Gold.Protein.RotatedTorsions>
[ 6907 6896 6895 6894 ] final -128.22 input  -60.11 | X-H torsion
[ 7974 7965 7964 7962 ] final  150.29 input  175.53 | X-H torsion
[ 8008 7997 7996 7995 ] final -163.46 input   59.86 | X-H torsion
[ 10167 10162 10161 10158 ] final  -74.56 input  -65.29 | X-H torsion
[ 10718 10713 10712 10709 ] final   76.05 input   66.30 | X-H torsion
[ 10763 10752 10751 10750 ] final   33.69 input  -60.55 | X-H torsion
[ 11005 11000 10999 10996 ] final  -54.32 input  -57.11 | X-H torsion

> <Gold.Protein.ActiveResidues>
 VAL166  LYS551  ARG553  GLY616  TRP617  ASP618  TYR619  PRO620  LYS621  CYS622 
 ASP623  PHE694  ASN695  SER759  ASP760  ASP761  ALA762  ILE779  LEU786  VAL792 
 PHE793  MET794  SER795  GLU796  ALA797  LYS798  CYS799  TRP800  GLU811  SER814 

> <Gold.Protein.RotatedAtoms>
  150.9156  133.6943  159.2844 H   0  0  0  0  0  0  0  0  0  0  0  0  # atno 6907 bound_to 6896
  151.4415  135.1019  159.9681 H   0  0  0  0  0  0  0  0  0  0  0  0  # atno 6908 bound_to 6896
  152.4953  133.8563  159.7282 H   0  0  0  0  0  0  0  0  0  0  0  0  # atno 6909 bound_to 6896
  144.8375  139.6390  143.6031 H   0  0  0  0  0  0  0  0  0  0  0  0  # atno 7974 bound_to 7965
  155.8216  140.0920  157.1846 H   0  0  0  0  0  0  0  0  0  0  0  0  # atno 8008 bound_to 7997
  154.3979  140.1436  156.3566 H   0  0  0  0  0  0  0  0  0  0  0  0  # atno 8009 bound_to 7997
  155.8261  140.3444  155.5546 H   0  0  0  0  0  0  0  0  0  0  0  0  # atno 8010 bound_to 7997
  140.5016  143.2360  151.7742 H   0  0  0  0  0  0  0  0  0  0  0  0  # atno 10167 bound_to 10162
  157.6658  130.9756  150.1442 H   0  0  0  0  0  0  0  0  0  0  0  0  # atno 10718 bound_to 10713
  153.0200  135.6380  154.1550 H   0  0  0  0  0  0  0  0  0  0  0  0  # atno 10763 bound_to 10752
  154.1286  135.2842  155.3192 H   0  0  0  0  0  0  0  0  0  0  0  0  # atno 10764 bound_to 10752
  154.6211  135.5524  153.7638 H   0  0  0  0  0  0  0  0  0  0  0  0  # atno 10765 bound_to 10752
  141.1020  133.6617  156.4303 H   0  0  0  0  0  0  0  0  0  0  0  0  # atno 11005 bound_to 11000
  146.2672  139.6547  142.9321 LP  0  0  0  0  0  0  0  0  0  0  0  0  # atno 17320 bound_to 7965
  145.4765  141.0437  143.2670 LP  0  0  0  0  0  0  0  0  0  0  0  0  # atno 17321 bound_to 7965
  139.4873  144.4514  151.9650 LP  0  0  0  0  0  0  0  0  0  0  0  0  # atno 17342 bound_to 10162
  140.3603  144.2981  150.5934 LP  0  0  0  0  0  0  0  0  0  0  0  0  # atno 17343 bound_to 10162
  156.2257  130.3677  149.8503 LP  0  0  0  0  0  0  0  0  0  0  0  0  # atno 17370 bound_to 10713
  156.6344  130.8679  151.3502 LP  0  0  0  0  0  0  0  0  0  0  0  0  # atno 17371 bound_to 10713
  140.4998  134.6496  157.5244 LP  0  0  0  0  0  0  0  0  0  0  0  0  # atno 17394 bound_to 11000
  139.9875  134.7038  155.9748 LP  0  0  0  0  0  0  0  0  0  0  0  0  # atno 17395 bound_to 11000

$$$$
