AV-unprocessed.smi:1883|AV-procd|sdf|7643|dock5
  -GOLD-   22720 9373D 1   1.00000     0.00000
 Structure written by MMmdl.
 35 37  0  0  0  0  0  0  0  0  1 V2000
  152.2182  140.2780  156.4318 C   0  0  0  0  0  0  0  0  0  0  0  0
  150.9114  140.5455  155.7550 C   0  0  0  0  0  0  0  0  0  0  0  0
  150.5626  139.9425  154.6185 N   0  0  0  0  0  0  0  0  0  0  0  0
  149.3114  140.4716  154.3670 C   0  0  0  0  0  0  0  0  0  0  0  0
  148.4108  140.2328  153.3043 C   0  0  0  0  0  0  0  0  0  0  0  0
  147.1692  140.9001  153.2576 C   0  0  0  0  0  0  0  0  0  0  0  0
  146.8114  141.8139  154.2698 C   0  0  0  0  0  0  0  0  0  0  0  0
  147.6941  142.0663  155.3377 C   0  0  0  0  0  0  0  0  0  0  0  0
  148.9321  141.3974  155.3804 C   0  0  0  0  0  0  0  0  0  0  0  0
  150.0062  141.4159  156.2655 N   0  0  0  0  0  0  0  0  0  0  0  0
  150.1168  142.2097  157.4819 C   0  0  0  0  0  0  0  0  0  0  0  0
  151.4664  142.9469  157.5946 C   0  0  1  0  0  0  0  0  0  0  0  0
  151.3268  144.2821  157.1458 O   0  0  0  0  0  0  0  0  0  0  0  0
  152.0229  142.8609  159.0098 C   0  0  0  0  0  0  0  0  0  0  0  0
  152.8562  141.7848  159.3913 C   0  0  0  0  0  0  0  0  0  0  0  0
  153.3713  141.7120  160.6998 C   0  0  0  0  0  0  0  0  0  0  0  0
  154.1653  140.6755  161.0577 F   0  0  0  0  0  0  0  0  0  0  0  0
  153.0619  142.7171  161.6355 C   0  0  0  0  0  0  0  0  0  0  0  0
  152.2413  143.7976  161.2600 C   0  0  0  0  0  0  0  0  0  0  0  0
  151.7249  143.8722  159.9514 C   0  0  0  0  0  0  0  0  0  0  0  0
  150.9445  144.9236  159.6041 F   0  0  0  0  0  0  0  0  0  0  0  0
  152.8294  139.6047  155.8297 H   0  0  0  0  0  0  0  0  0  0  0  0
  152.0507  139.8126  157.4032 H   0  0  0  0  0  0  0  0  0  0  0  0
  152.7716  141.2056  156.5750 H   0  0  0  0  0  0  0  0  0  0  0  0
  148.6763  139.5355  152.5235 H   0  0  0  0  0  0  0  0  0  0  0  0
  146.4887  140.7107  152.4405 H   0  0  0  0  0  0  0  0  0  0  0  0
  145.8590  142.3219  154.2259 H   0  0  0  0  0  0  0  0  0  0  0  0
  147.4249  142.7684  156.1127 H   0  0  0  0  0  0  0  0  0  0  0  0
  149.2920  142.9228  157.5088 H   0  0  0  0  0  0  0  0  0  0  0  0
  149.9735  141.5521  158.3398 H   0  0  0  0  0  0  0  0  0  0  0  0
  152.1835  142.4804  156.9193 H   0  0  0  0  0  0  0  0  0  0  0  0
  150.5766  144.3289  156.5730 H   0  0  0  0  0  0  0  0  0  0  0  0
  153.1066  141.0099  158.6816 H   0  0  0  0  0  0  0  0  0  0  0  0
  153.4570  142.6614  162.6392 H   0  0  0  0  0  0  0  0  0  0  0  0
  152.0090  144.5721  161.9761 H   0  0  0  0  0  0  0  0  0  0  0  0
  1  2  1  0  0  0  0
  1 22  1  0  0  0  0
  1 23  1  0  0  0  0
  1 24  1  0  0  0  0
  2 10  1  0  0  0  0
  2  3  2  0  0  0  0
  3  4  1  0  0  0  0
  4  9  2  0  0  0  0
  4  5  1  0  0  0  0
  5  6  2  0  0  0  0
  5 25  1  0  0  0  0
  6  7  1  0  0  0  0
  6 26  1  0  0  0  0
  7  8  2  0  0  0  0
  7 27  1  0  0  0  0
  8  9  1  0  0  0  0
  8 28  1  0  0  0  0
  9 10  1  0  0  0  0
 10 11  1  0  0  0  0
 11 12  1  0  0  0  0
 11 29  1  0  0  0  0
 11 30  1  0  0  0  0
 12 13  1  0  0  0  0
 12 14  1  0  0  0  0
 12 31  1  0  0  0  0
 13 32  1  0  0  0  0
 14 20  1  0  0  0  0
 14 15  2  0  0  0  0
 15 16  1  0  0  0  0
 15 33  1  0  0  0  0
 16 17  1  0  0  0  0
 16 18  2  0  0  0  0
 18 19  1  0  0  0  0
 18 34  1  0  0  0  0
 19 20  2  0  0  0  0
 19 35  1  0  0  0  0
 20 21  1  0  0  0  0
M  END
> <s_m_source_file>
AV-unprocessed.smi

> <i_m_source_file_index>
1883

> <i_lp_mmshare_version>
43012

> <i_f3d_flags>
0

> <s_epik_input>
W2NIXTFbY0hdW2NIXVtjSF1jKGMxMiluKGMobjIpW0NIM10pW0NIMl1bQ0BIXShbT0hdKWMzW2NIXWMoRilbY0hdW2NIXWMzRg==

> <s_epik_cmdline>
J2VwaWtfcHl0aG9uJywgJy1waCcsICc3LjAnLCAnLXRuJywgJzgnLCAnLW1hJywgJzIwMCcsICctbWV0YWxfYmluZGluZycsICctaW1hZScsICc8aW5maWxlLm1hZT4nLCAnLW9tYWUnLCAnPG91dGZpbGUubWFlPic=

> <r_epik_Ionization_Penalty>
0.129664

> <r_epik_Ionization_Penalty_Charging>
0

> <r_epik_Ionization_Penalty_Neutral>
0.129664

> <r_epik_State_Penalty>
0.119073

> <r_epik_Charging_Adjusted_Penalty>
0.119073

> <i_epik_Tot_Q>
0

> <i_epik_Tot_abs_Q>
0

> <r_epik_Metal_State_Penalty>
0.000131867

> <b_epik_Metal_Only>
0

> <s_lp_Force_Field>
OPLS_2005

> <r_lp_Energy>
10.6561

> <b_lp_Chiralities_Consistent>
1

> <s_lp_Variant>
AV-unprocessed.smi:1883-2

> <Gold.Version>
5.8.1

> <Gold.Id.Protein>
6NUR|6NUR_protein|mol2

> <Gold.PLP.Fitness>
54.4412

> <Gold.PLP.PLP>
-51.2754

> <Gold.PLP.part.hbond>
-2.0000

> <Gold.PLP.part.metal>
0.0000

> <Gold.PLP.part.buried>
0.8675

> <Gold.PLP.part.nonpolar>
-49.9340

> <Gold.PLP.part.repulsive>
0.0697

> <Gold.PLP.ligand.clash>
0.0000

> <Gold.PLP.ligand.torsion>
1.4303

> <Gold.PLP.Chemscore.Hbond>
2.0000

> <Gold.PLP.Chemscore.CHOScore>
0.0000

> <Gold.PLP.Chemscore.Metal>
0.0000

> <Gold.Chemscore.Hbonds>
donor molecule, donor type, donor heavy atom, donor atom, acceptor molecule, acceptor atom, score
      L1  H    13    32       P1  8028  1.00
      P1  H  7989  7998       L1     3  0.90

> <Gold.PLP.Chemscore.Internal.Correction>
0.0265

> <Gold.Rescore>
     Score         DG    S(hbond)    S(metal)    S(lipo)     H(rot)  DE(clash)    DE(int)     intcor
     14.22     -18.06       0.98        0.00     120.63       1.88       0.18       3.66       ----

> <Gold.Chemscore.Fitness>
14.2228

> <Gold.Chemscore.DG>
-18.0586

> <Gold.Chemscore.ZeroCoef>
-5.4800

> <Gold.Chemscore.Hbond>
0.9843

> <Gold.Chemscore.Metal>
0.0000

> <Gold.Chemscore.Lipo>
120.6303

> <Gold.Chemscore.Internal_Hbond>
0.0000

> <Gold.Chemscore.DEClash>
0.1760

> <Gold.Chemscore.DEInternal>
3.6597

> <Gold.Chemscore.Rot>
1.8839

> <Gold.Chemscore.Internal.Correction>
   9.000000E+99

> <Gold.Chemscore.Hbonds>
donor molecule, donor type, donor heavy atom, donor atom, acceptor molecule, acceptor atom, score
      L1  H    13    32       P1  8028  0.99
      P1  H  7989  7998       L1     3  0.07

> <Gold.Chemscore.Hbond.Weighted>
-3.2876

> <Gold.Chemscore.Metal.Weighted>
-0.0000

> <Gold.Chemscore.Lipo.Weighted>
-14.1137

> <Gold.Chemscore.Internal_Hbond.Weighted>
0.0000

> <Gold.Chemscore.DEClash.Weighted>
0.1760

> <Gold.Chemscore.DEInternal.Weighted>
3.6597

> <Gold.Chemscore.Rot.Weighted>
4.8227

> <Gold.Chemscore.Internal.Correction.Weighted>
   9.000000E+99

> <Gold.Protein.RotatedTorsions>
[ 6907 6896 6895 6894 ] final  179.54 input  -60.11 | X-H torsion
[ 7974 7965 7964 7962 ] final   75.63 input  175.53 | X-H torsion
[ 8008 7997 7996 7995 ] final   60.09 input   59.86 | X-H torsion
[ 10167 10162 10161 10158 ] final  121.06 input  -65.29 | X-H torsion
[ 10718 10713 10712 10709 ] final -166.03 input   66.30 | X-H torsion
[ 10763 10752 10751 10750 ] final  155.91 input  -60.55 | X-H torsion
[ 11005 11000 10999 10996 ] final  -72.49 input  -57.11 | X-H torsion

> <Gold.Protein.ActiveResidues>
 VAL166  LYS551  ARG553  GLY616  TRP617  ASP618  TYR619  PRO620  LYS621  CYS622 
 ASP623  PHE694  ASN695  SER759  ASP760  ASP761  ALA762  ILE779  LEU786  VAL792 
 PHE793  MET794  SER795  GLU796  ALA797  LYS798  CYS799  TRP800  GLU811  SER814 

> <Gold.Protein.RotatedAtoms>
  151.6701  133.3314  159.3194 H   0  0  0  0  0  0  0  0  0  0  0  0  # atno 6907 bound_to 6896
  150.7872  134.6870  159.6485 H   0  0  0  0  0  0  0  0  0  0  0  0  # atno 6908 bound_to 6896
  152.3944  134.6393  160.0147 H   0  0  0  0  0  0  0  0  0  0  0  0  # atno 6909 bound_to 6896
  145.7132  139.2622  143.1639 H   0  0  0  0  0  0  0  0  0  0  0  0  # atno 7974 bound_to 7965
  155.5767  140.3491  155.4529 H   0  0  0  0  0  0  0  0  0  0  0  0  # atno 8008 bound_to 7997
  156.0404  140.1294  157.0187 H   0  0  0  0  0  0  0  0  0  0  0  0  # atno 8009 bound_to 7997
  154.4389  140.1025  156.6214 H   0  0  0  0  0  0  0  0  0  0  0  0  # atno 8010 bound_to 7997
  139.5943  144.7036  151.3215 H   0  0  0  0  0  0  0  0  0  0  0  0  # atno 10167 bound_to 10162
  156.6619  130.9049  151.3030 H   0  0  0  0  0  0  0  0  0  0  0  0  # atno 10718 bound_to 10713
  154.1759  135.2802  155.3067 H   0  0  0  0  0  0  0  0  0  0  0  0  # atno 10763 bound_to 10752
  154.6039  135.5520  153.7406 H   0  0  0  0  0  0  0  0  0  0  0  0  # atno 10764 bound_to 10752
  153.0151  135.6398  154.1899 H   0  0  0  0  0  0  0  0  0  0  0  0  # atno 10765 bound_to 10752
  141.1609  133.6848  156.7067 H   0  0  0  0  0  0  0  0  0  0  0  0  # atno 11005 bound_to 11000
  146.0694  140.7886  142.9696 LP  0  0  0  0  0  0  0  0  0  0  0  0  # atno 17320 bound_to 7965
  144.6936  140.3318  143.7214 LP  0  0  0  0  0  0  0  0  0  0  0  0  # atno 17321 bound_to 7965
  140.7199  143.7165  150.7729 LP  0  0  0  0  0  0  0  0  0  0  0  0  # atno 17342 bound_to 10162
  140.0728  143.5045  152.2571 LP  0  0  0  0  0  0  0  0  0  0  0  0  # atno 17343 bound_to 10162
  157.7106  130.9436  150.1078 LP  0  0  0  0  0  0  0  0  0  0  0  0  # atno 17370 bound_to 10713
  156.2004  130.3660  149.8795 LP  0  0  0  0  0  0  0  0  0  0  0  0  # atno 17371 bound_to 10713
  140.2918  134.8235  157.4023 LP  0  0  0  0  0  0  0  0  0  0  0  0  # atno 17394 bound_to 11000
  140.1340  134.5058  155.8083 LP  0  0  0  0  0  0  0  0  0  0  0  0  # atno 17395 bound_to 11000

$$$$
