AV-unprocessed.smi:1027|AV-procd|sdf|4470|dock5
  -GOLD-   22720 2443D 1   1.00000     0.00000
 Structure written by MMmdl.
 35 36  0  0  0  0  0  0  0  0  1 V2000
  154.7169  137.1307  164.3120 C   0  0  0  0  0  0  0  0  0  0  0  0
  154.5440  136.0021  163.2763 C   0  0  0  0  0  0  0  0  0  0  0  0
  154.6217  134.6394  163.9883 C   0  0  0  0  0  0  0  0  0  0  0  0
  155.5573  136.1150  162.1063 C   0  0  1  0  0  0  0  0  0  0  0  0
  155.2961  135.1026  160.9747 C   0  0  0  0  0  0  0  0  0  0  0  0
  155.5337  137.4657  161.5449 N   0  0  0  0  0  0  0  0  0  0  0  0
  154.4753  138.0506  160.9644 C   0  0  0  0  0  0  0  0  0  0  0  0
  153.3747  137.5098  160.8550 O   0  0  0  0  0  0  0  0  0  0  0  0
  154.7813  139.2854  160.5289 N   0  0  0  0  0  0  0  0  0  0  0  0
  153.9411  140.2162  159.8628 C   0  0  0  0  0  0  0  0  0  0  0  0
  153.5158  140.0657  158.6009 N   0  0  0  0  0  0  0  0  0  0  0  0
  152.7067  141.1185  158.1980 N   0  0  0  0  0  0  0  0  0  0  0  0
  152.5451  142.0328  159.1617 C   0  0  0  0  0  0  0  0  0  0  0  0
  151.7165  143.2582  158.9646 C   0  0  0  0  0  0  0  0  0  0  0  0
  152.3661  144.5882  158.6588 C   0  0  0  0  0  0  0  0  0  0  0  0
  151.6911  144.3718  159.9888 C   0  0  0  0  0  0  0  0  0  0  0  0
  153.3838  141.6728  160.6676 S   0  0  0  0  0  0  0  0  0  0  0  0
  155.7226  137.1294  164.7330 H   0  0  0  0  0  0  0  0  0  0  0  0
  154.0132  137.0175  165.1372 H   0  0  0  0  0  0  0  0  0  0  0  0
  154.5387  138.1146  163.8779 H   0  0  0  0  0  0  0  0  0  0  0  0
  153.5387  136.0955  162.8630 H   0  0  0  0  0  0  0  0  0  0  0  0
  155.6246  134.4494  164.3719 H   0  0  0  0  0  0  0  0  0  0  0  0
  154.3546  133.8178  163.3247 H   0  0  0  0  0  0  0  0  0  0  0  0
  153.9324  134.5982  164.8321 H   0  0  0  0  0  0  0  0  0  0  0  0
  156.5530  135.9226  162.5106 H   0  0  0  0  0  0  0  0  0  0  0  0
  155.4238  134.0751  161.3137 H   0  0  0  0  0  0  0  0  0  0  0  0
  155.9914  135.2479  160.1473 H   0  0  0  0  0  0  0  0  0  0  0  0
  154.2853  135.2025  160.5783 H   0  0  0  0  0  0  0  0  0  0  0  0
  156.3961  137.9883  161.5925 H   0  0  0  0  0  0  0  0  0  0  0  0
  155.7272  139.5970  160.6927 H   0  0  0  0  0  0  0  0  0  0  0  0
  150.7866  143.0148  158.4541 H   0  0  0  0  0  0  0  0  0  0  0  0
  153.4537  144.6298  158.6496 H   0  0  0  0  0  0  0  0  0  0  0  0
  151.8682  145.2361  157.9405 H   0  0  0  0  0  0  0  0  0  0  0  0
  150.7419  144.8762  160.1581 H   0  0  0  0  0  0  0  0  0  0  0  0
  152.3340  144.2844  160.8622 H   0  0  0  0  0  0  0  0  0  0  0  0
  1  2  1  0  0  0  0
  1 18  1  0  0  0  0
  1 19  1  0  0  0  0
  1 20  1  0  0  0  0
  2  3  1  0  0  0  0
  2  4  1  0  0  0  0
  2 21  1  0  0  0  0
  3 22  1  0  0  0  0
  3 23  1  0  0  0  0
  3 24  1  0  0  0  0
  4  5  1  0  0  0  0
  4  6  1  0  0  0  0
  4 25  1  0  0  0  0
  5 26  1  0  0  0  0
  5 27  1  0  0  0  0
  5 28  1  0  0  0  0
  6  7  1  0  0  0  0
  6 29  1  0  0  0  0
  7  8  2  0  0  0  0
  7  9  1  0  0  0  0
  9 10  1  0  0  0  0
  9 30  1  0  0  0  0
 10 17  1  0  0  0  0
 10 11  2  0  0  0  0
 11 12  1  0  0  0  0
 12 13  2  0  0  0  0
 13 14  1  0  0  0  0
 13 17  1  0  0  0  0
 14 16  1  0  0  0  0
 14 15  1  0  0  0  0
 14 31  1  0  0  0  0
 15 16  1  0  0  0  0
 15 32  1  0  0  0  0
 15 33  1  0  0  0  0
 16 34  1  0  0  0  0
 16 35  1  0  0  0  0
M  END
> <s_m_source_file>
AV-unprocessed.smi

> <i_m_source_file_index>
1027

> <i_lp_mmshare_version>
43012

> <i_f3d_flags>
0

> <s_epik_input>
W0NIM11bQ0hdKFtDSDNdKVtDQEhdKFtDSDNdKVtOSF1DKD1PKVtOSF1jMW5uYyhzMSlbQ0hdMltDSDJdW0NIMl0y

> <s_epik_cmdline>
J2VwaWtfcHl0aG9uJywgJy1waCcsICc3LjAnLCAnLXRuJywgJzgnLCAnLW1hJywgJzIwMCcsICctbWV0YWxfYmluZGluZycsICctaW1hZScsICc8aW5maWxlLm1hZT4nLCAnLW9tYWUnLCAnPG91dGZpbGUubWFlPic=

> <r_lp_tautomer_probability>
1

> <r_epik_Ionization_Penalty>
0.000943246

> <r_epik_Ionization_Penalty_Charging>
0

> <r_epik_Ionization_Penalty_Neutral>
0.000943246

> <r_epik_State_Penalty>
-0

> <r_epik_Charging_Adjusted_Penalty>
0

> <i_epik_Tot_Q>
0

> <i_epik_Tot_abs_Q>
0

> <r_epik_Metal_State_Penalty>
0.281646

> <b_epik_Metal_Only>
0

> <s_lp_Force_Field>
OPLS_2005

> <r_lp_Energy>
3.72906

> <b_lp_Chiralities_Consistent>
1

> <s_lp_Variant>
AV-unprocessed.smi:1027-2

> <Gold.Version>
5.8.1

> <Gold.Id.Protein>
6NUR|6NUR_protein|mol2

> <Gold.PLP.Fitness>
36.3650

> <Gold.PLP.PLP>
-35.4489

> <Gold.PLP.part.hbond>
-1.3675

> <Gold.PLP.part.metal>
0.0000

> <Gold.PLP.part.buried>
-2.0857

> <Gold.PLP.part.nonpolar>
-31.4152

> <Gold.PLP.part.repulsive>
0.0336

> <Gold.PLP.ligand.clash>
0.0000

> <Gold.PLP.ligand.torsion>
1.0571

> <Gold.PLP.Chemscore.Hbond>
0.9600

> <Gold.PLP.Chemscore.CHOScore>
0.0000

> <Gold.PLP.Chemscore.Metal>
0.0000

> <Gold.Chemscore.Hbonds>
donor molecule, donor type, donor heavy atom, donor atom, acceptor molecule, acceptor atom, score
      P1  H  7997  8010       L1    11  0.93

> <Gold.PLP.Chemscore.Internal.Correction>
0.1502

> <Gold.Rescore>
     Score         DG    S(hbond)    S(metal)    S(lipo)     H(rot)  DE(clash)    DE(int)     intcor
     12.12     -13.85       0.63        0.00      84.04       1.39       0.05       1.68       ----

> <Gold.Chemscore.Fitness>
12.1215

> <Gold.Chemscore.DG>
-13.8533

> <Gold.Chemscore.ZeroCoef>
-5.4800

> <Gold.Chemscore.Hbond>
0.6275

> <Gold.Chemscore.Metal>
0.0000

> <Gold.Chemscore.Lipo>
84.0439

> <Gold.Chemscore.Internal_Hbond>
0.0000

> <Gold.Chemscore.DEClash>
0.0544

> <Gold.Chemscore.DEInternal>
1.6774

> <Gold.Chemscore.Rot>
1.3890

> <Gold.Chemscore.Internal.Correction>
   9.000000E+99

> <Gold.Chemscore.Hbonds>
donor molecule, donor type, donor heavy atom, donor atom, acceptor molecule, acceptor atom, score
      P1  H  7997  8010       L1    11  0.30

> <Gold.Chemscore.Hbond.Weighted>
-2.0960

> <Gold.Chemscore.Metal.Weighted>
-0.0000

> <Gold.Chemscore.Lipo.Weighted>
-9.8331

> <Gold.Chemscore.Internal_Hbond.Weighted>
0.0000

> <Gold.Chemscore.DEClash.Weighted>
0.0544

> <Gold.Chemscore.DEInternal.Weighted>
1.6774

> <Gold.Chemscore.Rot.Weighted>
3.5559

> <Gold.Chemscore.Internal.Correction.Weighted>
   9.000000E+99

> <Gold.Protein.RotatedTorsions>
[ 6907 6896 6895 6894 ] final  173.02 input  -60.11 | X-H torsion
[ 7974 7965 7964 7962 ] final   44.10 input  175.53 | X-H torsion
[ 8008 7997 7996 7995 ] final   14.33 input   59.86 | X-H torsion
[ 10167 10162 10161 10158 ] final  -68.96 input  -65.29 | X-H torsion
[ 10718 10713 10712 10709 ] final   11.01 input   66.30 | X-H torsion
[ 10763 10752 10751 10750 ] final  -86.82 input  -60.55 | X-H torsion
[ 11005 11000 10999 10996 ] final  -59.85 input  -57.11 | X-H torsion

> <Gold.Protein.ActiveResidues>
 VAL166  LYS551  ARG553  GLY616  TRP617  ASP618  TYR619  PRO620  LYS621  CYS622 
 ASP623  PHE694  ASN695  SER759  ASP760  ASP761  ALA762  ILE779  LEU786  VAL792 
 PHE793  MET794  SER795  GLU796  ALA797  LYS798  CYS799  TRP800  GLU811  SER814 

> <Gold.Protein.RotatedAtoms>
  151.7751  133.3344  159.3455 H   0  0  0  0  0  0  0  0  0  0  0  0  # atno 6907 bound_to 6896
  150.7447  134.5983  159.6032 H   0  0  0  0  0  0  0  0  0  0  0  0  # atno 6908 bound_to 6896
  152.3315  134.7255  160.0339 H   0  0  0  0  0  0  0  0  0  0  0  0  # atno 6909 bound_to 6896
  146.0598  139.5112  142.9665 H   0  0  0  0  0  0  0  0  0  0  0  0  # atno 7974 bound_to 7965
  154.8469  140.2923  155.5623 H   0  0  0  0  0  0  0  0  0  0  0  0  # atno 8008 bound_to 7997
  156.3014  140.2503  156.3353 H   0  0  0  0  0  0  0  0  0  0  0  0  # atno 8009 bound_to 7997
  154.9064  140.0390  157.1911 H   0  0  0  0  0  0  0  0  0  0  0  0  # atno 8010 bound_to 7997
  140.5467  143.2313  151.6988 H   0  0  0  0  0  0  0  0  0  0  0  0  # atno 10167 bound_to 10162
  156.9893  130.6036  149.5684 H   0  0  0  0  0  0  0  0  0  0  0  0  # atno 10718 bound_to 10713
  154.6267  135.5435  153.7635 H   0  0  0  0  0  0  0  0  0  0  0  0  # atno 10763 bound_to 10752
  153.0264  135.6426  154.1361 H   0  0  0  0  0  0  0  0  0  0  0  0  # atno 10764 bound_to 10752
  154.1293  135.2915  155.3169 H   0  0  0  0  0  0  0  0  0  0  0  0  # atno 10765 bound_to 10752
  141.1264  133.6618  156.5134 H   0  0  0  0  0  0  0  0  0  0  0  0  # atno 11005 bound_to 11000
  145.6580  141.0247  143.1724 LP  0  0  0  0  0  0  0  0  0  0  0  0  # atno 17320 bound_to 7965
  144.7168  139.8167  143.7396 LP  0  0  0  0  0  0  0  0  0  0  0  0  # atno 17321 bound_to 7965
  139.5010  144.3883  152.0306 LP  0  0  0  0  0  0  0  0  0  0  0  0  # atno 17342 bound_to 10162
  140.2996  144.3661  150.6064 LP  0  0  0  0  0  0  0  0  0  0  0  0  # atno 17343 bound_to 10162
  156.0213  130.5308  150.8284 LP  0  0  0  0  0  0  0  0  0  0  0  0  # atno 17370 bound_to 10713
  157.5470  131.0942  150.9749 LP  0  0  0  0  0  0  0  0  0  0  0  0  # atno 17371 bound_to 10713
  140.4350  134.7067  157.4962 LP  0  0  0  0  0  0  0  0  0  0  0  0  # atno 17394 bound_to 11000
  140.0268  134.6466  155.9162 LP  0  0  0  0  0  0  0  0  0  0  0  0  # atno 17395 bound_to 11000

$$$$
