AV-unprocessed.smi:2901|AV-procd|sdf|11150|dock1
  -GOLD-   2272016 33D 1   1.00000     0.00000
 Structure written by MMmdl.
 40 41  0  0  0  0  0  0  0  0  1 V2000
  151.6652  141.4749  158.3761 C   0  0  0  0  0  0  0  0  0  0  0  0
  151.4398  140.7452  157.0970 C   0  0  0  0  0  0  0  0  0  0  0  0
  150.3197  140.6990  156.3784 N   0  0  0  0  0  0  0  0  0  0  0  0
  150.6299  139.8932  155.2916 C   0  0  0  0  0  0  0  0  0  0  0  0
  149.6357  139.5871  154.2138 C   0  0  0  0  0  0  0  0  0  0  0  0
  148.4952  138.6907  154.7224 C   0  0  0  0  0  0  0  0  0  0  0  0
  147.9857  137.8163  153.6723 N   0  0  0  0  0  0  0  0  0  0  0  0
  146.6879  137.5713  153.4440 C   0  0  0  0  0  0  0  0  0  0  0  0
  145.7685  138.0674  154.0958 O   0  0  0  0  0  0  0  0  0  0  0  0
  146.5136  136.7224  152.4217 N   0  0  0  0  0  0  0  0  0  0  0  0
  145.2202  136.2747  151.9180 C   0  0  0  0  0  0  0  0  0  0  0  0
  145.3811  135.2354  150.7968 C   0  0  1  0  0  0  0  0  0  0  0  0
  146.2873  134.0655  151.1735 C   0  0  0  0  0  0  0  0  0  0  0  0
  145.8349  133.0055  150.1957 C   0  0  0  0  0  0  0  0  0  0  0  0
  144.3295  133.2533  150.1301 C   0  0  0  0  0  0  0  0  0  0  0  0
  144.1351  134.6230  150.4757 O   0  0  0  0  0  0  0  0  0  0  0  0
  151.9386  139.5002  155.4105 C   0  0  0  0  0  0  0  0  0  0  0  0
  152.8294  138.6558  154.5636 C   0  0  0  0  0  0  0  0  0  0  0  0
  152.4647  140.0324  156.5567 O   0  0  0  0  0  0  0  0  0  0  0  0
  150.7261  141.8812  158.7527 H   0  0  0  0  0  0  0  0  0  0  0  0
  152.3652  142.2955  158.2182 H   0  0  0  0  0  0  0  0  0  0  0  0
  152.0789  140.7981  159.1238 H   0  0  0  0  0  0  0  0  0  0  0  0
  149.2270  140.5170  153.8167 H   0  0  0  0  0  0  0  0  0  0  0  0
  150.1355  139.0996  153.3757 H   0  0  0  0  0  0  0  0  0  0  0  0
  148.8501  138.0662  155.5429 H   0  0  0  0  0  0  0  0  0  0  0  0
  147.6833  139.2995  155.1246 H   0  0  0  0  0  0  0  0  0  0  0  0
  148.6691  137.3643  153.0825 H   0  0  0  0  0  0  0  0  0  0  0  0
  147.3332  136.3686  151.9506 H   0  0  0  0  0  0  0  0  0  0  0  0
  144.6796  135.8289  152.7532 H   0  0  0  0  0  0  0  0  0  0  0  0
  144.6187  137.1198  151.5784 H   0  0  0  0  0  0  0  0  0  0  0  0
  145.7687  135.7097  149.8935 H   0  0  0  0  0  0  0  0  0  0  0  0
  147.3479  134.3028  151.0874 H   0  0  0  0  0  0  0  0  0  0  0  0
  146.0898  133.7383  152.1954 H   0  0  0  0  0  0  0  0  0  0  0  0
  146.2880  133.1825  149.2194 H   0  0  0  0  0  0  0  0  0  0  0  0
  146.0877  131.9929  150.5114 H   0  0  0  0  0  0  0  0  0  0  0  0
  143.9206  133.0321  149.1439 H   0  0  0  0  0  0  0  0  0  0  0  0
  143.8055  132.6352  150.8597 H   0  0  0  0  0  0  0  0  0  0  0  0
  152.4760  138.6286  153.5326 H   0  0  0  0  0  0  0  0  0  0  0  0
  152.8603  137.6327  154.9380 H   0  0  0  0  0  0  0  0  0  0  0  0
  153.8469  139.0472  154.5593 H   0  0  0  0  0  0  0  0  0  0  0  0
  1  2  1  0  0  0  0
  1 20  1  0  0  0  0
  1 21  1  0  0  0  0
  1 22  1  0  0  0  0
  2 19  1  0  0  0  0
  2  3  2  0  0  0  0
  3  4  1  0  0  0  0
  4  5  1  0  0  0  0
  4 17  2  0  0  0  0
  5  6  1  0  0  0  0
  5 23  1  0  0  0  0
  5 24  1  0  0  0  0
  6  7  1  0  0  0  0
  6 25  1  0  0  0  0
  6 26  1  0  0  0  0
  7  8  1  0  0  0  0
  7 27  1  0  0  0  0
  8  9  2  0  0  0  0
  8 10  1  0  0  0  0
 10 11  1  0  0  0  0
 10 28  1  0  0  0  0
 11 12  1  0  0  0  0
 11 29  1  0  0  0  0
 11 30  1  0  0  0  0
 12 16  1  0  0  0  0
 12 13  1  0  0  0  0
 12 31  1  0  0  0  0
 13 14  1  0  0  0  0
 13 32  1  0  0  0  0
 13 33  1  0  0  0  0
 14 15  1  0  0  0  0
 14 34  1  0  0  0  0
 14 35  1  0  0  0  0
 15 16  1  0  0  0  0
 15 36  1  0  0  0  0
 15 37  1  0  0  0  0
 17 18  1  0  0  0  0
 17 19  1  0  0  0  0
 18 38  1  0  0  0  0
 18 39  1  0  0  0  0
 18 40  1  0  0  0  0
M  END
> <s_m_source_file>
AV-unprocessed.smi

> <i_m_source_file_index>
2901

> <i_lp_mmshare_version>
43012

> <i_f3d_flags>
0

> <s_epik_input>
W0NIM11jMW5jKGMobzEpW0NIM10pW0NIMl1bQ0gyXVtOSF1DKD1PKVtOSF1bQ0gyXVtDQEBIXTJbQ0gyXVtDSDJdW0NIMl1PMg==

> <s_epik_cmdline>
J2VwaWtfcHl0aG9uJywgJy1waCcsICc3LjAnLCAnLXRuJywgJzgnLCAnLW1hJywgJzIwMCcsICctbWV0YWxfYmluZGluZycsICctaW1hZScsICc8aW5maWxlLm1hZT4nLCAnLW9tYWUnLCAnPG91dGZpbGUubWFlPic=

> <r_lp_tautomer_probability>
1

> <r_epik_Ionization_Penalty>
9.58254e-05

> <r_epik_Ionization_Penalty_Charging>
0

> <r_epik_Ionization_Penalty_Neutral>
9.58254e-05

> <r_epik_State_Penalty>
-0

> <r_epik_Charging_Adjusted_Penalty>
0

> <i_epik_Tot_Q>
0

> <i_epik_Tot_abs_Q>
0

> <r_epik_Metal_State_Penalty>
-0

> <b_epik_Metal_Only>
0

> <s_lp_Force_Field>
OPLS_2005

> <r_lp_Energy>
8.56878

> <b_lp_Chiralities_Consistent>
1

> <s_lp_Variant>
AV-unprocessed.smi:2901-2

> <Gold.Version>
5.8.1

> <Gold.Id.Protein>
6NUR|6NUR_protein|mol2

> <Gold.PLP.Fitness>
41.2417

> <Gold.PLP.PLP>
-32.9938

> <Gold.PLP.part.hbond>
-3.0000

> <Gold.PLP.part.metal>
0.0000

> <Gold.PLP.part.buried>
-2.7175

> <Gold.PLP.part.nonpolar>
-27.7948

> <Gold.PLP.part.repulsive>
0.4474

> <Gold.PLP.ligand.clash>
0.0000

> <Gold.PLP.ligand.torsion>
0.4287

> <Gold.PLP.Chemscore.Hbond>
2.9920

> <Gold.PLP.Chemscore.CHOScore>
0.0000

> <Gold.PLP.Chemscore.Metal>
0.0000

> <Gold.Chemscore.Hbonds>
donor molecule, donor type, donor heavy atom, donor atom, acceptor molecule, acceptor atom, score
      L1  H     7    27       P1  7948  0.96
      L1  H    10    28       P1  7948  1.00
      P1  H  7997  8010       L1    19  1.00

> <Gold.PLP.Chemscore.Internal.Correction>
0.1294

> <Gold.Rescore>
     Score         DG    S(hbond)    S(metal)    S(lipo)     H(rot)  DE(clash)    DE(int)     intcor
     18.30     -19.13       2.88        0.00      76.50       1.92       0.29       0.54       ----

> <Gold.Chemscore.Fitness>
18.3046

> <Gold.Chemscore.DG>
-19.1348

> <Gold.Chemscore.ZeroCoef>
-5.4800

> <Gold.Chemscore.Hbond>
2.8777

> <Gold.Chemscore.Metal>
0.0000

> <Gold.Chemscore.Lipo>
76.4980

> <Gold.Chemscore.Internal_Hbond>
0.0000

> <Gold.Chemscore.DEClash>
0.2874

> <Gold.Chemscore.DEInternal>
0.5428

> <Gold.Chemscore.Rot>
1.9167

> <Gold.Chemscore.Internal.Correction>
   9.000000E+99

> <Gold.Chemscore.Hbonds>
donor molecule, donor type, donor heavy atom, donor atom, acceptor molecule, acceptor atom, score
      L1  H     7    27       P1  7948  0.92
      L1  H    10    28       P1  7948  0.94
      P1  H  7997  8010       L1    19  0.70

> <Gold.Chemscore.Hbond.Weighted>
-9.6114

> <Gold.Chemscore.Metal.Weighted>
-0.0000

> <Gold.Chemscore.Lipo.Weighted>
-8.9503

> <Gold.Chemscore.Internal_Hbond.Weighted>
0.0000

> <Gold.Chemscore.DEClash.Weighted>
0.2874

> <Gold.Chemscore.DEInternal.Weighted>
0.5428

> <Gold.Chemscore.Rot.Weighted>
4.9069

> <Gold.Chemscore.Internal.Correction.Weighted>
   9.000000E+99

> <Gold.Protein.RotatedTorsions>
[ 6907 6896 6895 6894 ] final  138.49 input  -60.11 | X-H torsion
[ 7974 7965 7964 7962 ] final -169.69 input  175.53 | X-H torsion
[ 8008 7997 7996 7995 ] final   75.52 input   59.86 | X-H torsion
[ 10167 10162 10161 10158 ] final   78.31 input  -65.29 | X-H torsion
[ 10718 10713 10712 10709 ] final -129.24 input   66.30 | X-H torsion
[ 10763 10752 10751 10750 ] final   12.99 input  -60.55 | X-H torsion
[ 11005 11000 10999 10996 ] final  -48.81 input  -57.11 | X-H torsion

> <Gold.Protein.ActiveResidues>
 VAL166  LYS551  ARG553  GLY616  TRP617  ASP618  TYR619  PRO620  LYS621  CYS622 
 ASP623  PHE694  ASN695  SER759  ASP760  ASP761  ALA762  ILE779  LEU786  VAL792 
 PHE793  MET794  SER795  GLU796  ALA797  LYS798  CYS799  TRP800  GLU811  SER814 

> <Gold.Protein.RotatedAtoms>
  152.2660  133.5339  159.5409 H   0  0  0  0  0  0  0  0  0  0  0  0  # atno 6907 bound_to 6896
  150.7142  134.0764  159.3891 H   0  0  0  0  0  0  0  0  0  0  0  0  # atno 6908 bound_to 6896
  151.8680  135.0500  160.0527 H   0  0  0  0  0  0  0  0  0  0  0  0  # atno 6909 bound_to 6896
  144.7181  140.2183  143.6319 H   0  0  0  0  0  0  0  0  0  0  0  0  # atno 7974 bound_to 7965
  155.8142  140.3472  155.5475 H   0  0  0  0  0  0  0  0  0  0  0  0  # atno 8008 bound_to 7997
  155.8410  140.0941  157.1755 H   0  0  0  0  0  0  0  0  0  0  0  0  # atno 8009 bound_to 7997
  154.4005  140.1394  156.3715 H   0  0  0  0  0  0  0  0  0  0  0  0  # atno 8010 bound_to 7997
  139.9723  144.5885  150.7974 H   0  0  0  0  0  0  0  0  0  0  0  0  # atno 10167 bound_to 10162
  156.2027  130.6868  151.0558 H   0  0  0  0  0  0  0  0  0  0  0  0  # atno 10718 bound_to 10713
  153.1766  135.6821  153.8535 H   0  0  0  0  0  0  0  0  0  0  0  0  # atno 10763 bound_to 10752
  153.7881  135.3173  155.3376 H   0  0  0  0  0  0  0  0  0  0  0  0  # atno 10764 bound_to 10752
  154.8033  135.4764  154.0422 H   0  0  0  0  0  0  0  0  0  0  0  0  # atno 10765 bound_to 10752
  141.0722  133.6676  156.3494 H   0  0  0  0  0  0  0  0  0  0  0  0  # atno 11005 bound_to 11000
  145.8525  139.2182  143.1764 LP  0  0  0  0  0  0  0  0  0  0  0  0  # atno 17320 bound_to 7965
  146.0247  140.8314  142.9905 LP  0  0  0  0  0  0  0  0  0  0  0  0  # atno 17321 bound_to 7965
  140.7517  143.2978  151.3159 LP  0  0  0  0  0  0  0  0  0  0  0  0  # atno 17342 bound_to 10162
  139.6472  144.0430  152.2599 LP  0  0  0  0  0  0  0  0  0  0  0  0  # atno 17343 bound_to 10162
  157.6995  131.0781  150.6865 LP  0  0  0  0  0  0  0  0  0  0  0  0  # atno 17370 bound_to 10713
  156.6923  130.4598  149.5596 LP  0  0  0  0  0  0  0  0  0  0  0  0  # atno 17371 bound_to 10713
  140.5648  134.5898  157.5443 LP  0  0  0  0  0  0  0  0  0  0  0  0  # atno 17394 bound_to 11000
  139.9535  134.7575  156.0394 LP  0  0  0  0  0  0  0  0  0  0  0  0  # atno 17395 bound_to 11000

$$$$
