AV-unprocessed.smi:1330|AV-procd|sdf|5485|dock1
  -GOLD-   22720 5 63D 1   1.00000     0.00000
 Structure written by MMmdl.
 42 43  0  0  0  0  0  0  0  0  1 V2000
  148.4217  136.1165  154.8426 C   0  0  0  0  0  0  0  0  0  0  0  0
  149.4389  137.2252  154.8781 C   0  0  0  0  0  0  0  0  0  0  0  0
  149.0198  138.4080  154.5678 N   0  0  0  0  0  0  0  0  0  0  0  0
  149.8707  139.4949  154.5695 N   0  0  0  0  0  0  0  0  0  0  0  0
  149.2243  140.7579  154.1959 C   0  0  0  0  0  0  0  0  0  0  0  0
  148.3062  141.2904  155.3190 C   0  0  2  0  0  0  0  0  0  0  0  0
  147.6669  142.4657  154.8637 O   0  0  0  0  0  0  0  0  0  0  0  0
  149.0927  141.6584  156.5856 C   0  0  0  0  0  0  0  0  0  0  0  0
  150.4179  141.9960  156.2118 O   0  0  0  0  0  0  0  0  0  0  0  0
  150.9451  143.0860  156.9498 C   0  0  0  0  0  0  0  0  0  0  0  0
  151.7219  142.6271  158.1700 C   0  0  0  0  0  0  0  0  0  0  0  0
  152.3170  143.5682  159.0384 C   0  0  0  0  0  0  0  0  0  0  0  0
  153.0517  143.1332  160.1586 C   0  0  0  0  0  0  0  0  0  0  0  0
  153.2006  141.7560  160.4128 C   0  0  0  0  0  0  0  0  0  0  0  0
  154.1020  141.2236  161.7843 Cl  0  0  0  0  0  0  0  0  0  0  0  0
  152.6159  140.8137  159.5445 C   0  0  0  0  0  0  0  0  0  0  0  0
  151.8809  141.2485  158.4242 C   0  0  0  0  0  0  0  0  0  0  0  0
  151.1947  139.4462  154.8936 C   0  0  0  0  0  0  0  0  0  0  0  0
  151.9141  140.4465  154.8959 O   0  0  0  0  0  0  0  0  0  0  0  0
  151.6639  138.1028  155.2402 C   0  0  0  0  0  0  0  0  0  0  0  0
  153.0462  138.0057  155.5828 C   0  0  0  0  0  0  0  0  0  0  0  0
  154.1684  137.9467  155.8605 N   0  0  0  0  0  0  0  0  0  0  0  0
  150.8393  137.0255  155.2377 C   0  0  0  0  0  0  0  0  0  0  0  0
  151.2759  135.6107  155.5928 C   0  0  0  0  0  0  0  0  0  0  0  0
  148.3580  135.6176  155.8098 H   0  0  0  0  0  0  0  0  0  0  0  0
  148.6898  135.3708  154.0940 H   0  0  0  0  0  0  0  0  0  0  0  0
  147.4247  136.4863  154.5976 H   0  0  0  0  0  0  0  0  0  0  0  0
  150.0033  141.4889  153.9714 H   0  0  0  0  0  0  0  0  0  0  0  0
  148.6696  140.6551  153.2611 H   0  0  0  0  0  0  0  0  0  0  0  0
  147.5398  140.5605  155.5831 H   0  0  0  0  0  0  0  0  0  0  0  0
  148.0189  143.2014  155.3413 H   0  0  0  0  0  0  0  0  0  0  0  0
  148.6155  142.4894  157.1079 H   0  0  0  0  0  0  0  0  0  0  0  0
  149.1195  140.8093  157.2711 H   0  0  0  0  0  0  0  0  0  0  0  0
  151.5996  143.6779  156.3079 H   0  0  0  0  0  0  0  0  0  0  0  0
  150.1361  143.7378  157.2825 H   0  0  0  0  0  0  0  0  0  0  0  0
  152.2139  144.6271  158.8508 H   0  0  0  0  0  0  0  0  0  0  0  0
  153.5021  143.8579  160.8207 H   0  0  0  0  0  0  0  0  0  0  0  0
  152.7317  139.7569  159.7352 H   0  0  0  0  0  0  0  0  0  0  0  0
  151.4392  140.5196  157.7606 H   0  0  0  0  0  0  0  0  0  0  0  0
  152.3467  135.5449  155.7824 H   0  0  0  0  0  0  0  0  0  0  0  0
  151.0474  134.9214  154.7795 H   0  0  0  0  0  0  0  0  0  0  0  0
  150.7606  135.2671  156.4900 H   0  0  0  0  0  0  0  0  0  0  0  0
  1  2  1  0  0  0  0
  1 25  1  0  0  0  0
  1 26  1  0  0  0  0
  1 27  1  0  0  0  0
  2 23  1  0  0  0  0
  2  3  2  0  0  0  0
  3  4  1  0  0  0  0
  4  5  1  0  0  0  0
  4 18  1  0  0  0  0
  5  6  1  0  0  0  0
  5 28  1  0  0  0  0
  5 29  1  0  0  0  0
  6  7  1  0  0  0  0
  6  8  1  0  0  0  0
  6 30  1  0  0  0  0
  7 31  1  0  0  0  0
  8  9  1  0  0  0  0
  8 32  1  0  0  0  0
  8 33  1  0  0  0  0
  9 10  1  0  0  0  0
 10 11  1  0  0  0  0
 10 34  1  0  0  0  0
 10 35  1  0  0  0  0
 11 17  1  0  0  0  0
 11 12  2  0  0  0  0
 12 13  1  0  0  0  0
 12 36  1  0  0  0  0
 13 14  2  0  0  0  0
 13 37  1  0  0  0  0
 14 15  1  0  0  0  0
 14 16  1  0  0  0  0
 16 17  2  0  0  0  0
 16 38  1  0  0  0  0
 17 39  1  0  0  0  0
 18 19  2  0  0  0  0
 18 20  1  0  0  0  0
 20 21  1  0  0  0  0
 20 23  2  0  0  0  0
 21 22  3  0  0  0  0
 23 24  1  0  0  0  0
 24 40  1  0  0  0  0
 24 41  1  0  0  0  0
 24 42  1  0  0  0  0
M  END
> <s_m_source_file>
AV-unprocessed.smi

> <i_m_source_file_index>
1330

> <i_lp_mmshare_version>
43012

> <i_f3d_flags>
0

> <s_epik_input>
TiNDYyhjMVtDSDNdKWMoPU8pbihuYzFbQ0gzXSlbQ0gyXVtDQEhdKFtPSF0pW0NIMl1PW0NIMl1jMltjSF1bY0hdYyhDbClbY0hdW2NIXTI=

> <s_epik_cmdline>
J2VwaWtfcHl0aG9uJywgJy1waCcsICc3LjAnLCAnLXRuJywgJzgnLCAnLW1hJywgJzIwMCcsICctbWV0YWxfYmluZGluZycsICctaW1hZScsICc8aW5maWxlLm1hZT4nLCAnLW9tYWUnLCAnPG91dGZpbGUubWFlPic=

> <r_lp_tautomer_probability>
1

> <r_epik_Ionization_Penalty>
6.27695e-08

> <r_epik_Ionization_Penalty_Charging>
2.19172e-10

> <r_epik_Ionization_Penalty_Neutral>
6.25504e-08

> <r_epik_State_Penalty>
-0

> <r_epik_Charging_Adjusted_Penalty>
2.19172e-10

> <i_epik_Tot_Q>
0

> <i_epik_Tot_abs_Q>
0

> <r_epik_Metal_State_Penalty>
-0

> <b_epik_Metal_Only>
0

> <s_lp_Force_Field>
OPLS_2005

> <r_lp_Energy>
28.5495

> <b_lp_Chiralities_Consistent>
1

> <s_lp_Variant>
AV-unprocessed.smi:1330-1

> <Gold.Version>
5.8.1

> <Gold.Id.Protein>
6NUR|6NUR_protein|mol2

> <Gold.PLP.Fitness>
47.4984

> <Gold.PLP.PLP>
-43.7559

> <Gold.PLP.part.hbond>
-3.6532

> <Gold.PLP.part.metal>
0.0000

> <Gold.PLP.part.buried>
-0.0750

> <Gold.PLP.part.nonpolar>
-39.7897

> <Gold.PLP.part.repulsive>
0.2954

> <Gold.PLP.ligand.clash>
0.0000

> <Gold.PLP.ligand.torsion>
1.0939

> <Gold.PLP.Chemscore.Hbond>
1.8855

> <Gold.PLP.Chemscore.CHOScore>
0.0000

> <Gold.PLP.Chemscore.Metal>
0.0000

> <Gold.Chemscore.Hbonds>
donor molecule, donor type, donor heavy atom, donor atom, acceptor molecule, acceptor atom, score
      L1  H     7    31       P1  8028  1.00
      P1  H  7989  7998       L1    19  0.56
      P1  H  7997  8009       L1    22  0.15

> <Gold.PLP.Chemscore.Internal.Correction>
0.2739

> <Gold.Rescore>
     Score         DG    S(hbond)    S(metal)    S(lipo)     H(rot)  DE(clash)    DE(int)     intcor
     15.30     -18.20       1.69        0.00     114.74       2.48       0.53       2.37       ----

> <Gold.Chemscore.Fitness>
15.3046

> <Gold.Chemscore.DG>
-18.1979

> <Gold.Chemscore.ZeroCoef>
-5.4800

> <Gold.Chemscore.Hbond>
1.6875

> <Gold.Chemscore.Metal>
0.0000

> <Gold.Chemscore.Lipo>
114.7401

> <Gold.Chemscore.Internal_Hbond>
0.0000

> <Gold.Chemscore.DEClash>
0.5280

> <Gold.Chemscore.DEInternal>
2.3654

> <Gold.Chemscore.Rot>
2.4777

> <Gold.Chemscore.Internal.Correction>
   9.000000E+99

> <Gold.Chemscore.Hbonds>
donor molecule, donor type, donor heavy atom, donor atom, acceptor molecule, acceptor atom, score
      L1  H     7    31       P1  8028  0.78
      P1  H  7989  7998       L1    19  0.11
      P1  H  7997  8009       L1    22  0.03

> <Gold.Chemscore.Hbond.Weighted>
-5.6362

> <Gold.Chemscore.Metal.Weighted>
-0.0000

> <Gold.Chemscore.Lipo.Weighted>
-13.4246

> <Gold.Chemscore.Internal_Hbond.Weighted>
0.0000

> <Gold.Chemscore.DEClash.Weighted>
0.5280

> <Gold.Chemscore.DEInternal.Weighted>
2.3654

> <Gold.Chemscore.Rot.Weighted>
6.3428

> <Gold.Chemscore.Internal.Correction.Weighted>
   9.000000E+99

> <Gold.Protein.RotatedTorsions>
[ 6907 6896 6895 6894 ] final -125.22 input  -60.11 | X-H torsion
[ 7974 7965 7964 7962 ] final  -16.03 input  175.53 | X-H torsion
[ 8008 7997 7996 7995 ] final -174.85 input   59.86 | X-H torsion
[ 10167 10162 10161 10158 ] final  127.06 input  -65.29 | X-H torsion
[ 10718 10713 10712 10709 ] final -133.70 input   66.30 | X-H torsion
[ 10763 10752 10751 10750 ] final -133.16 input  -60.55 | X-H torsion
[ 11005 11000 10999 10996 ] final   44.26 input  -57.11 | X-H torsion

> <Gold.Protein.ActiveResidues>
 VAL166  LYS551  ARG553  GLY616  TRP617  ASP618  TYR619  PRO620  LYS621  CYS622 
 ASP623  PHE694  ASN695  SER759  ASP760  ASP761  ALA762  ILE779  LEU786  VAL792 
 PHE793  MET794  SER795  GLU796  ALA797  LYS798  CYS799  TRP800  GLU811  SER814 

> <Gold.Protein.RotatedAtoms>
  150.8846  133.7326  159.2922 H   0  0  0  0  0  0  0  0  0  0  0  0  # atno 6907 bound_to 6896
  151.4896  135.1055  159.9809 H   0  0  0  0  0  0  0  0  0  0  0  0  # atno 6908 bound_to 6896
  152.4781  133.8142  159.7075 H   0  0  0  0  0  0  0  0  0  0  0  0  # atno 6909 bound_to 6896
  146.2006  140.3578  142.8425 H   0  0  0  0  0  0  0  0  0  0  0  0  # atno 7974 bound_to 7965
  155.9752  140.1171  157.0776 H   0  0  0  0  0  0  0  0  0  0  0  0  # atno 8008 bound_to 7997
  154.4167  140.1155  156.5428 H   0  0  0  0  0  0  0  0  0  0  0  0  # atno 8009 bound_to 7997
  155.6543  140.3473  155.4762 H   0  0  0  0  0  0  0  0  0  0  0  0  # atno 8010 bound_to 7997
  139.5598  144.6874  151.4076 H   0  0  0  0  0  0  0  0  0  0  0  0  # atno 10167 bound_to 10162
  156.2477  130.7134  151.1021 H   0  0  0  0  0  0  0  0  0  0  0  0  # atno 10718 bound_to 10713
  154.8735  135.3775  154.4528 H   0  0  0  0  0  0  0  0  0  0  0  0  # atno 10763 bound_to 10752
  153.5203  135.7029  153.5740 H   0  0  0  0  0  0  0  0  0  0  0  0  # atno 10764 bound_to 10752
  153.3990  135.3953  155.1940 H   0  0  0  0  0  0  0  0  0  0  0  0  # atno 10765 bound_to 10752
  140.1568  134.4391  155.8344 H   0  0  0  0  0  0  0  0  0  0  0  0  # atno 11005 bound_to 11000
  144.8674  140.7225  143.6068 LP  0  0  0  0  0  0  0  0  0  0  0  0  # atno 17320 bound_to 7965
  145.3497  139.1709  143.4441 LP  0  0  0  0  0  0  0  0  0  0  0  0  # atno 17321 bound_to 7965
  140.6876  143.7937  150.7209 LP  0  0  0  0  0  0  0  0  0  0  0  0  # atno 17342 bound_to 10162
  140.1409  143.4442  152.2194 LP  0  0  0  0  0  0  0  0  0  0  0  0  # atno 17343 bound_to 10162
  157.7202  131.0686  150.6168 LP  0  0  0  0  0  0  0  0  0  0  0  0  # atno 17370 bound_to 10713
  156.6246  130.4415  149.5809 LP  0  0  0  0  0  0  0  0  0  0  0  0  # atno 17371 bound_to 10713
  141.2205  133.6896  156.7522 LP  0  0  0  0  0  0  0  0  0  0  0  0  # atno 17394 bound_to 11000
  140.2538  134.8520  157.3693 LP  0  0  0  0  0  0  0  0  0  0  0  0  # atno 17395 bound_to 11000

$$$$
