AV-unprocessed.smi:221|AV-procd|sdf|1694|dock6
  -GOLD-   2262020143D 1   1.00000     0.00000
 Structure written by MMmdl.
 50 53  0  0  0  0  0  0  0  0  1 V2000
  154.3627  132.4290  162.0794 N   0  0  0  0  0  0  0  0  0  0  0  0
  154.3358  133.6193  161.4754 C   0  0  0  0  0  0  0  0  0  0  0  0
  153.9638  133.7528  160.3107 O   0  0  0  0  0  0  0  0  0  0  0  0
  154.7740  134.8299  162.3123 C   0  0  2  0  0  0  0  0  0  0  0  0
  155.0951  134.4390  163.7609 C   0  0  0  0  0  0  0  0  0  0  0  0
  154.9118  135.7480  164.5206 C   0  0  1  0  0  0  0  0  0  0  0  0
  156.0144  136.4896  164.4044 F   0  0  0  0  0  0  0  0  0  0  0  0
  153.7575  136.4273  163.7798 C   0  0  0  0  0  0  0  0  0  0  0  0
  153.7101  135.8268  162.4492 N   0  0  0  0  0  0  0  0  0  0  0  0
  153.5766  136.6927  161.4204 C   0  0  0  0  0  0  0  0  0  0  0  0
  153.2746  136.1707  160.2067 N   0  0  0  0  0  0  0  0  0  0  0  0
  153.1373  136.9766  159.1493 C   0  0  0  0  0  0  0  0  0  0  0  0
  153.2578  138.3051  159.0896 N   0  0  0  0  0  0  0  0  0  0  0  0
  153.5615  138.8301  160.3114 C   0  0  0  0  0  0  0  0  0  0  0  0
  153.7353  138.1032  161.5218 C   0  0  0  0  0  0  0  0  0  0  0  0
  154.0333  138.9756  162.5619 N   0  0  0  0  0  0  0  0  0  0  0  0
  154.0391  140.1521  161.9972 C   0  0  0  0  0  0  0  0  0  0  0  0
  153.7732  140.1552  160.6463 N   0  0  0  0  0  0  0  0  0  0  0  0
  153.7228  141.3108  159.7694 C   0  0  0  0  0  0  0  0  0  0  0  0
  152.2839  141.7268  159.3755 C   0  0  2  0  0  0  0  0  0  0  0  0
  151.5865  140.6952  158.4511 C   0  0  0  0  0  0  0  0  0  0  0  0
  152.4579  140.2273  157.4421 O   0  0  0  0  0  0  0  0  0  0  0  0
  152.2901  143.1642  158.7953 C   0  0  1  0  0  0  0  0  0  0  0  0
  151.0218  143.5987  158.0690 C   0  0  0  0  0  0  0  0  0  0  0  0
  151.0557  145.1104  158.2425 C   0  0  0  0  0  0  0  0  0  0  0  0
  151.5135  145.2616  159.5758 O   0  0  0  0  0  0  0  0  0  0  0  0
  152.5265  144.2908  159.8174 C   0  0  0  0  0  0  0  0  0  0  0  0
  155.6576  135.2844  161.8598 H   0  0  0  0  0  0  0  0  0  0  0  0
  154.7198  135.6096  165.5849 H   0  0  0  0  0  0  0  0  0  0  0  0
  154.0870  131.6029  161.5687 H   0  0  0  0  0  0  0  0  0  0  0  0
  154.6613  132.3577  163.0412 H   0  0  0  0  0  0  0  0  0  0  0  0
  154.3817  133.7009  164.1326 H   0  0  0  0  0  0  0  0  0  0  0  0
  156.0968  134.0231  163.8754 H   0  0  0  0  0  0  0  0  0  0  0  0
  152.8128  136.1997  164.2745 H   0  0  0  0  0  0  0  0  0  0  0  0
  153.8637  137.5136  163.7727 H   0  0  0  0  0  0  0  0  0  0  0  0
  152.8978  136.4864  158.2172 H   0  0  0  0  0  0  0  0  0  0  0  0
  154.2480  141.0548  162.5527 H   0  0  0  0  0  0  0  0  0  0  0  0
  154.2282  142.1329  160.2775 H   0  0  0  0  0  0  0  0  0  0  0  0
  154.3106  141.0919  158.8774 H   0  0  0  0  0  0  0  0  0  0  0  0
  151.7002  141.7865  160.2958 H   0  0  0  0  0  0  0  0  0  0  0  0
  151.2522  139.8228  159.0110 H   0  0  0  0  0  0  0  0  0  0  0  0
  150.6992  141.1255  157.9859 H   0  0  0  0  0  0  0  0  0  0  0  0
  152.1902  140.6010  156.6163 H   0  0  0  0  0  0  0  0  0  0  0  0
  153.1096  143.2314  158.0778 H   0  0  0  0  0  0  0  0  0  0  0  0
  151.0055  143.2943  157.0222 H   0  0  0  0  0  0  0  0  0  0  0  0
  150.1278  143.2031  158.5497 H   0  0  0  0  0  0  0  0  0  0  0  0
  151.7678  145.5687  157.5543 H   0  0  0  0  0  0  0  0  0  0  0  0
  150.0808  145.5757  158.0952 H   0  0  0  0  0  0  0  0  0  0  0  0
  152.4791  143.9556  160.8534 H   0  0  0  0  0  0  0  0  0  0  0  0
  153.5077  144.7429  159.6665 H   0  0  0  0  0  0  0  0  0  0  0  0
  1  2  1  0  0  0  0
  1 30  1  0  0  0  0
  1 31  1  0  0  0  0
  2  3  2  0  0  0  0
  2  4  1  0  0  0  0
  4 28  1  0  0  0  0
  4  9  1  0  0  0  0
  4  5  1  0  0  0  0
  5  6  1  0  0  0  0
  5 32  1  0  0  0  0
  5 33  1  0  0  0  0
  6 29  1  0  0  0  0
  6  7  1  0  0  0  0
  6  8  1  0  0  0  0
  8  9  1  0  0  0  0
  8 34  1  0  0  0  0
  8 35  1  0  0  0  0
  9 10  1  0  0  0  0
 10 15  1  0  0  0  0
 10 11  2  0  0  0  0
 11 12  1  0  0  0  0
 12 13  2  0  0  0  0
 12 36  1  0  0  0  0
 13 14  1  0  0  0  0
 14 18  1  0  0  0  0
 14 15  2  0  0  0  0
 15 16  1  0  0  0  0
 16 17  2  0  0  0  0
 17 18  1  0  0  0  0
 17 37  1  0  0  0  0
 18 19  1  0  0  0  0
 19 20  1  0  0  0  0
 19 38  1  0  0  0  0
 19 39  1  0  0  0  0
 20 21  1  0  0  0  0
 20 23  1  0  0  0  0
 20 40  1  0  0  0  0
 21 22  1  0  0  0  0
 21 41  1  0  0  0  0
 21 42  1  0  0  0  0
 22 43  1  0  0  0  0
 23 27  1  0  0  0  0
 23 24  1  0  0  0  0
 23 44  1  0  0  0  0
 24 25  1  0  0  0  0
 24 45  1  0  0  0  0
 24 46  1  0  0  0  0
 25 26  1  0  0  0  0
 25 47  1  0  0  0  0
 25 48  1  0  0  0  0
 26 27  1  0  0  0  0
 27 49  1  0  0  0  0
 27 50  1  0  0  0  0
M  END
> <s_m_source_file>
AV-unprocessed.smi

> <i_m_source_file_index>
221

> <i_lp_mmshare_version>
43012

> <i_f3d_flags>
0

> <s_epik_input>
W05IMl1DKD1PKVtDQEBIXTFbQ0gyXVtDQEBIXShGKVtDSDJdTjFjKG5bY0hdbjIpYyhjMjMpbltjSF1uM1tDSDJdW0NASF0oW0NIMl1bT0hdKVtDQEBIXTRbQ0gyXVtDSDJdT1tDSDJdNA==

> <s_epik_cmdline>
J2VwaWtfcHl0aG9uJywgJy1waCcsICc3LjAnLCAnLXRuJywgJzgnLCAnLW1hJywgJzIwMCcsICctbWV0YWxfYmluZGluZycsICctaW1hZScsICc8aW5maWxlLm1hZT4nLCAnLW9tYWUnLCAnPG91dGZpbGUubWFlPic=

> <r_lp_tautomer_probability>
1

> <r_epik_Ionization_Penalty>
0.000818822

> <r_epik_Ionization_Penalty_Charging>
0

> <r_epik_Ionization_Penalty_Neutral>
0.000818822

> <r_epik_State_Penalty>
0.000440551

> <r_epik_Charging_Adjusted_Penalty>
0.000440551

> <i_epik_Tot_Q>
0

> <i_epik_Tot_abs_Q>
0

> <r_epik_Metal_State_Penalty>
-0

> <b_epik_Metal_Only>
0

> <s_lp_Force_Field>
OPLS_2005

> <r_lp_Energy>
51.8706

> <b_lp_Chiralities_Consistent>
1

> <s_lp_Variant>
AV-unprocessed.smi:221-9

> <Gold.Version>
5.8.1

> <Gold.Id.Protein>
6NUR|6NUR_protein|mol2

> <Gold.PLP.Fitness>
44.0965

> <Gold.PLP.PLP>
-41.1551

> <Gold.PLP.part.hbond>
-3.0000

> <Gold.PLP.part.metal>
0.0000

> <Gold.PLP.part.buried>
-5.8041

> <Gold.PLP.part.nonpolar>
-32.4346

> <Gold.PLP.part.repulsive>
0.1452

> <Gold.PLP.ligand.clash>
1.0511

> <Gold.PLP.ligand.torsion>
0.8807

> <Gold.PLP.Chemscore.Hbond>
1.8360

> <Gold.PLP.Chemscore.CHOScore>
0.0000

> <Gold.PLP.Chemscore.Metal>
0.0000

> <Gold.Chemscore.Hbonds>
donor molecule, donor type, donor heavy atom, donor atom, acceptor molecule, acceptor atom, score
      P1  H  6896  6908       L1    11  1.00
      P1  H  7997  8010       L1    22  0.51

> <Gold.PLP.Chemscore.Internal.Correction>
0.2458

> <Gold.Rescore>
     Score         DG    S(hbond)    S(metal)    S(lipo)     H(rot)  DE(clash)    DE(int)     intcor
      5.93     -11.98       1.23        0.00     101.97       3.72       0.20       5.85       ----

> <Gold.Chemscore.Fitness>
5.9296

> <Gold.Chemscore.DG>
-11.9797

> <Gold.Chemscore.ZeroCoef>
-5.4800

> <Gold.Chemscore.Hbond>
1.2253

> <Gold.Chemscore.Metal>
0.0000

> <Gold.Chemscore.Lipo>
101.9731

> <Gold.Chemscore.Internal_Hbond>
0.0000

> <Gold.Chemscore.DEClash>
0.1952

> <Gold.Chemscore.DEInternal>
5.8549

> <Gold.Chemscore.Rot>
3.7202

> <Gold.Chemscore.Internal.Correction>
   9.000000E+99

> <Gold.Chemscore.Hbonds>
donor molecule, donor type, donor heavy atom, donor atom, acceptor molecule, acceptor atom, score
      P1  H  6896  6908       L1    11  0.77
      P1  H  7997  8010       L1    22  0.07

> <Gold.Chemscore.Hbond.Weighted>
-4.0926

> <Gold.Chemscore.Metal.Weighted>
-0.0000

> <Gold.Chemscore.Lipo.Weighted>
-11.9309

> <Gold.Chemscore.Internal_Hbond.Weighted>
0.0000

> <Gold.Chemscore.DEClash.Weighted>
0.1952

> <Gold.Chemscore.DEInternal.Weighted>
5.8549

> <Gold.Chemscore.Rot.Weighted>
9.5237

> <Gold.Chemscore.Internal.Correction.Weighted>
   9.000000E+99

> <Gold.Protein.RotatedTorsions>
[ 6907 6896 6895 6894 ] final  -71.79 input  -60.11 | X-H torsion
[ 7974 7965 7964 7962 ] final    0.56 input  175.53 | X-H torsion
[ 8008 7997 7996 7995 ] final   39.29 input   59.86 | X-H torsion
[ 10167 10162 10161 10158 ] final  117.31 input  -65.29 | X-H torsion
[ 10718 10713 10712 10709 ] final   79.83 input   66.30 | X-H torsion
[ 10763 10752 10751 10750 ] final   -5.20 input  -60.55 | X-H torsion
[ 11005 11000 10999 10996 ] final  128.02 input  -57.11 | X-H torsion

> <Gold.Protein.ActiveResidues>
 VAL166  LYS551  ARG553  GLY616  TRP617  ASP618  TYR619  PRO620  LYS621  CYS622 
 ASP623  PHE694  ASN695  SER759  ASP760  ASP761  ALA762  ILE779  LEU786  VAL792 
 PHE793  MET794  SER795  GLU796  ALA797  LYS798  CYS799  TRP800  GLU811  SER814 

> <Gold.Protein.RotatedAtoms>
  150.7197  134.5257  159.5675 H   0  0  0  0  0  0  0  0  0  0  0  0  # atno 6907 bound_to 6896
  152.2802  134.7834  160.0407 H   0  0  0  0  0  0  0  0  0  0  0  0  # atno 6908 bound_to 6896
  151.8483  133.3400  159.3702 H   0  0  0  0  0  0  0  0  0  0  0  0  # atno 6909 bound_to 6896
  146.2435  140.1119  142.8343 H   0  0  0  0  0  0  0  0  0  0  0  0  # atno 7974 bound_to 7965
  155.2343  140.3340  155.4299 H   0  0  0  0  0  0  0  0  0  0  0  0  # atno 8008 bound_to 7997
  156.2282  140.1839  156.7355 H   0  0  0  0  0  0  0  0  0  0  0  0  # atno 8009 bound_to 7997
  154.5934  140.0634  156.9255 H   0  0  0  0  0  0  0  0  0  0  0  0  # atno 8010 bound_to 7997
  139.6187  144.7097  151.2682 H   0  0  0  0  0  0  0  0  0  0  0  0  # atno 10167 bound_to 10162
  157.6788  130.9932  150.1990 H   0  0  0  0  0  0  0  0  0  0  0  0  # atno 10718 bound_to 10713
  153.3952  135.7003  153.6466 H   0  0  0  0  0  0  0  0  0  0  0  0  # atno 10763 bound_to 10752
  153.5022  135.3650  155.2546 H   0  0  0  0  0  0  0  0  0  0  0  0  # atno 10764 bound_to 10752
  154.8706  135.4114  154.3277 H   0  0  0  0  0  0  0  0  0  0  0  0  # atno 10765 bound_to 10752
  139.9538  134.9617  156.8941 H   0  0  0  0  0  0  0  0  0  0  0  0  # atno 11005 bound_to 11000
  145.0480  140.8996  143.5013 LP  0  0  0  0  0  0  0  0  0  0  0  0  # atno 17320 bound_to 7965
  145.1212  139.2692  143.5587 LP  0  0  0  0  0  0  0  0  0  0  0  0  # atno 17321 bound_to 7965
  140.7368  143.6697  150.8092 LP  0  0  0  0  0  0  0  0  0  0  0  0  # atno 17342 bound_to 10162
  140.0304  143.5449  152.2762 LP  0  0  0  0  0  0  0  0  0  0  0  0  # atno 17343 bound_to 10162
  156.2685  130.3719  149.8056 LP  0  0  0  0  0  0  0  0  0  0  0  0  # atno 17370 bound_to 10713
  156.5780  130.8453  151.3375 LP  0  0  0  0  0  0  0  0  0  0  0  0  # atno 17371 bound_to 10713
  140.5656  134.0493  155.7413 LP  0  0  0  0  0  0  0  0  0  0  0  0  # atno 17394 bound_to 11000
  141.1206  133.9467  157.2736 LP  0  0  0  0  0  0  0  0  0  0  0  0  # atno 17395 bound_to 11000

$$$$
