AV-unprocessed.smi:1947|AV-procd|sdf|7868|dock7
  -GOLD-   2272010 23D 1   1.00000     0.00000
 Structure written by MMmdl.
 39 40  0  0  0  0  0  0  0  0  1 V2000
  147.5768  132.8972  152.7150 C   0  0  0  0  0  0  0  0  0  0  0  0
  146.5380  133.0420  151.5910 C   0  0  1  0  0  0  0  0  0  0  0  0
  145.9242  131.6723  151.2384 C   0  0  0  0  0  0  0  0  0  0  0  0
  144.8798  131.7873  150.1181 C   0  0  0  0  0  0  0  0  0  0  0  0
  143.7802  132.7907  150.4921 C   0  0  0  0  0  0  0  0  0  0  0  0
  144.3788  134.1623  150.8370 C   0  0  0  0  0  0  0  0  0  0  0  0
  145.4332  134.0579  151.9601 C   0  0  2  0  0  0  0  0  0  0  0  0
  146.0522  135.3245  152.1446 O   0  0  0  0  0  0  0  0  0  0  0  0
  145.1476  136.3965  152.3668 C   0  0  0  0  0  0  0  0  0  0  0  0
  145.7557  137.6826  151.7895 C   0  0  0  0  0  0  0  0  0  0  0  0
  147.0867  137.9350  152.3307 N   0  0  0  0  0  0  0  0  0  0  0  0
  147.4013  138.9314  153.1700 C   0  0  0  0  0  0  0  0  0  0  0  0
  146.5773  139.7332  153.6093 O   0  0  0  0  0  0  0  0  0  0  0  0
  148.7144  138.9335  153.4497 N   0  0  0  0  0  0  0  0  0  0  0  0
  149.4274  139.8359  154.2777 C   0  0  0  0  0  0  0  0  0  0  0  0
  150.7163  139.5757  154.5267 N   0  0  0  0  0  0  0  0  0  0  0  0
  151.2922  140.5370  155.3483 N   0  0  0  0  0  0  0  0  0  0  0  0
  150.4137  141.4853  155.6873 C   0  0  0  0  0  0  0  0  0  0  0  0
  148.7944  141.2994  155.0373 S   0  0  0  0  0  0  0  0  0  0  0  0
  147.1147  132.5493  153.6392 H   0  0  0  0  0  0  0  0  0  0  0  0
  148.0686  133.8469  152.9267 H   0  0  0  0  0  0  0  0  0  0  0  0
  148.3533  132.1825  152.4416 H   0  0  0  0  0  0  0  0  0  0  0  0
  147.0572  133.4126  150.7058 H   0  0  0  0  0  0  0  0  0  0  0  0
  146.7091  130.9796  150.9331 H   0  0  0  0  0  0  0  0  0  0  0  0
  145.4582  131.2383  152.1241 H   0  0  0  0  0  0  0  0  0  0  0  0
  145.3660  132.1025  149.1940 H   0  0  0  0  0  0  0  0  0  0  0  0
  144.4395  130.8101  149.9187 H   0  0  0  0  0  0  0  0  0  0  0  0
  143.0722  132.8903  149.6688 H   0  0  0  0  0  0  0  0  0  0  0  0
  143.2136  132.4134  151.3444 H   0  0  0  0  0  0  0  0  0  0  0  0
  144.8381  134.5913  149.9456 H   0  0  0  0  0  0  0  0  0  0  0  0
  143.5756  134.8402  151.1241 H   0  0  0  0  0  0  0  0  0  0  0  0
  144.9555  133.7315  152.8861 H   0  0  0  0  0  0  0  0  0  0  0  0
  144.1778  136.1998  151.9096 H   0  0  0  0  0  0  0  0  0  0  0  0
  144.9801  136.5163  153.4378 H   0  0  0  0  0  0  0  0  0  0  0  0
  145.8020  137.6238  150.7010 H   0  0  0  0  0  0  0  0  0  0  0  0
  145.1184  138.5344  152.0282 H   0  0  0  0  0  0  0  0  0  0  0  0
  147.8262  137.3235  152.0171 H   0  0  0  0  0  0  0  0  0  0  0  0
  149.2707  138.2137  153.0123 H   0  0  0  0  0  0  0  0  0  0  0  0
  150.7215  142.3002  156.3254 H   0  0  0  0  0  0  0  0  0  0  0  0
  1  2  1  0  0  0  0
  1 20  1  0  0  0  0
  1 21  1  0  0  0  0
  1 22  1  0  0  0  0
  2  7  1  0  0  0  0
  2  3  1  0  0  0  0
  2 23  1  0  0  0  0
  3  4  1  0  0  0  0
  3 24  1  0  0  0  0
  3 25  1  0  0  0  0
  4  5  1  0  0  0  0
  4 26  1  0  0  0  0
  4 27  1  0  0  0  0
  5  6  1  0  0  0  0
  5 28  1  0  0  0  0
  5 29  1  0  0  0  0
  6  7  1  0  0  0  0
  6 30  1  0  0  0  0
  6 31  1  0  0  0  0
  7  8  1  0  0  0  0
  7 32  1  0  0  0  0
  8  9  1  0  0  0  0
  9 10  1  0  0  0  0
  9 33  1  0  0  0  0
  9 34  1  0  0  0  0
 10 11  1  0  0  0  0
 10 35  1  0  0  0  0
 10 36  1  0  0  0  0
 11 12  1  0  0  0  0
 11 37  1  0  0  0  0
 12 13  2  0  0  0  0
 12 14  1  0  0  0  0
 14 15  1  0  0  0  0
 14 38  1  0  0  0  0
 15 19  1  0  0  0  0
 15 16  2  0  0  0  0
 16 17  1  0  0  0  0
 17 18  2  0  0  0  0
 18 19  1  0  0  0  0
 18 39  1  0  0  0  0
M  END
> <s_m_source_file>
AV-unprocessed.smi

> <i_m_source_file_index>
1947

> <i_lp_mmshare_version>
43012

> <i_f3d_flags>
0

> <s_epik_input>
W0NIM11bQ0BASF0xW0NIMl1bQ0gyXVtDSDJdW0NIMl1bQ0BIXTFPW0NIMl1bQ0gyXVtOSF1DKD1PKVtOSF1jMm5uW2NIXXMy

> <s_epik_cmdline>
J2VwaWtfcHl0aG9uJywgJy1waCcsICc3LjAnLCAnLXRuJywgJzgnLCAnLW1hJywgJzIwMCcsICctbWV0YWxfYmluZGluZycsICctaW1hZScsICc8aW5maWxlLm1hZT4nLCAnLW9tYWUnLCAnPG91dGZpbGUubWFlPic=

> <r_lp_tautomer_probability>
1

> <r_epik_Ionization_Penalty>
0.00220897

> <r_epik_Ionization_Penalty_Charging>
0

> <r_epik_Ionization_Penalty_Neutral>
0.00220897

> <r_epik_State_Penalty>
-0

> <r_epik_Charging_Adjusted_Penalty>
0

> <i_epik_Tot_Q>
0

> <i_epik_Tot_abs_Q>
0

> <r_epik_Metal_State_Penalty>
0.345002

> <b_epik_Metal_Only>
0

> <s_lp_Force_Field>
OPLS_2005

> <r_lp_Energy>
7.32574

> <b_lp_Chiralities_Consistent>
1

> <s_lp_Variant>
AV-unprocessed.smi:1947-4

> <Gold.Version>
5.8.1

> <Gold.Id.Protein>
6NUR|6NUR_protein|mol2

> <Gold.PLP.Fitness>
38.8219

> <Gold.PLP.PLP>
-35.3320

> <Gold.PLP.part.hbond>
-4.7597

> <Gold.PLP.part.metal>
0.0000

> <Gold.PLP.part.buried>
-2.6624

> <Gold.PLP.part.nonpolar>
-29.2076

> <Gold.PLP.part.repulsive>
1.2908

> <Gold.PLP.ligand.clash>
0.0000

> <Gold.PLP.ligand.torsion>
0.2755

> <Gold.PLP.Chemscore.Hbond>
1.3380

> <Gold.PLP.Chemscore.CHOScore>
0.0000

> <Gold.PLP.Chemscore.Metal>
0.0000

> <Gold.Chemscore.Hbonds>
donor molecule, donor type, donor heavy atom, donor atom, acceptor molecule, acceptor atom, score
      L1  H    11    37       P1  7948  1.00
      L1  H    14    38       P1  7948  0.30

> <Gold.PLP.Chemscore.Internal.Correction>
0.0268

> <Gold.Rescore>
     Score         DG    S(hbond)    S(metal)    S(lipo)     H(rot)  DE(clash)    DE(int)     intcor
     13.41     -14.71       1.56        0.00      76.74       1.94       0.35       0.96       ----

> <Gold.Chemscore.Fitness>
13.4107

> <Gold.Chemscore.DG>
-14.7134

> <Gold.Chemscore.ZeroCoef>
-5.4800

> <Gold.Chemscore.Hbond>
1.5619

> <Gold.Chemscore.Metal>
0.0000

> <Gold.Chemscore.Lipo>
76.7440

> <Gold.Chemscore.Internal_Hbond>
0.0000

> <Gold.Chemscore.DEClash>
0.3457

> <Gold.Chemscore.DEInternal>
0.9570

> <Gold.Chemscore.Rot>
1.9385

> <Gold.Chemscore.Internal.Correction>
   9.000000E+99

> <Gold.Chemscore.Hbonds>
donor molecule, donor type, donor heavy atom, donor atom, acceptor molecule, acceptor atom, score
      L1  H    11    37       P1  7948  0.95
      L1  H    14    38       P1  7948  0.29

> <Gold.Chemscore.Hbond.Weighted>
-5.2169

> <Gold.Chemscore.Metal.Weighted>
-0.0000

> <Gold.Chemscore.Lipo.Weighted>
-8.9790

> <Gold.Chemscore.Internal_Hbond.Weighted>
0.0000

> <Gold.Chemscore.DEClash.Weighted>
0.3457

> <Gold.Chemscore.DEInternal.Weighted>
0.9570

> <Gold.Chemscore.Rot.Weighted>
4.9625

> <Gold.Chemscore.Internal.Correction.Weighted>
   9.000000E+99

> <Gold.Protein.RotatedTorsions>
[ 6907 6896 6895 6894 ] final  168.87 input  -60.11 | X-H torsion
[ 7974 7965 7964 7962 ] final  106.07 input  175.53 | X-H torsion
[ 8008 7997 7996 7995 ] final   84.66 input   59.86 | X-H torsion
[ 10167 10162 10161 10158 ] final   -5.63 input  -65.29 | X-H torsion
[ 10718 10713 10712 10709 ] final  -54.79 input   66.30 | X-H torsion
[ 10763 10752 10751 10750 ] final    0.49 input  -60.55 | X-H torsion
[ 11005 11000 10999 10996 ] final  -15.08 input  -57.11 | X-H torsion

> <Gold.Protein.ActiveResidues>
 VAL166  LYS551  ARG553  GLY616  TRP617  ASP618  TYR619  PRO620  LYS621  CYS622 
 ASP623  PHE694  ASN695  SER759  ASP760  ASP761  ALA762  ILE779  LEU786  VAL792 
 PHE793  MET794  SER795  GLU796  ALA797  LYS798  CYS799  TRP800  GLU811  SER814 

> <Gold.Protein.RotatedAtoms>
  151.8409  133.3423  159.3642 H   0  0  0  0  0  0  0  0  0  0  0  0  # atno 6907 bound_to 6896
  150.7235  134.5392  159.5748 H   0  0  0  0  0  0  0  0  0  0  0  0  # atno 6908 bound_to 6896
  152.2865  134.7770  160.0437 H   0  0  0  0  0  0  0  0  0  0  0  0  # atno 6909 bound_to 6896
  145.3114  139.2539  143.3761 H   0  0  0  0  0  0  0  0  0  0  0  0  # atno 7974 bound_to 7965
  155.9399  140.3409  155.6319 H   0  0  0  0  0  0  0  0  0  0  0  0  # atno 8008 bound_to 7997
  155.7053  140.0765  157.2412 H   0  0  0  0  0  0  0  0  0  0  0  0  # atno 8009 bound_to 7997
  154.4100  140.1632  156.2223 H   0  0  0  0  0  0  0  0  0  0  0  0  # atno 8010 bound_to 7997
  140.6970  143.6286  150.8544 H   0  0  0  0  0  0  0  0  0  0  0  0  # atno 10167 bound_to 10162
  156.1421  130.4154  150.0085 H   0  0  0  0  0  0  0  0  0  0  0  0  # atno 10718 bound_to 10713
  153.3200  135.6968  153.7039 H   0  0  0  0  0  0  0  0  0  0  0  0  # atno 10763 bound_to 10752
  153.5883  135.3485  155.2902 H   0  0  0  0  0  0  0  0  0  0  0  0  # atno 10764 bound_to 10752
  154.8595  135.4311  154.2361 H   0  0  0  0  0  0  0  0  0  0  0  0  # atno 10765 bound_to 10752
  140.7930  133.8273  155.9398 H   0  0  0  0  0  0  0  0  0  0  0  0  # atno 11005 bound_to 11000
  146.3116  140.3651  142.8668 LP  0  0  0  0  0  0  0  0  0  0  0  0  # atno 17320 bound_to 7965
  144.9012  140.7645  143.5865 LP  0  0  0  0  0  0  0  0  0  0  0  0  # atno 17321 bound_to 7965
  140.0005  143.5750  152.2877 LP  0  0  0  0  0  0  0  0  0  0  0  0  # atno 17342 bound_to 10162
  139.6437  144.7656  151.2286 LP  0  0  0  0  0  0  0  0  0  0  0  0  # atno 17343 bound_to 10162
  156.7967  130.9276  151.3646 LP  0  0  0  0  0  0  0  0  0  0  0  0  # atno 17370 bound_to 10713
  157.6585  130.8945  149.9779 LP  0  0  0  0  0  0  0  0  0  0  0  0  # atno 17371 bound_to 10713
  140.9370  134.1949  157.4824 LP  0  0  0  0  0  0  0  0  0  0  0  0  # atno 17394 bound_to 11000
  139.8729  134.9856  156.5290 LP  0  0  0  0  0  0  0  0  0  0  0  0  # atno 17395 bound_to 11000

$$$$
