AV-unprocessed.smi:2706|AV-procd|sdf|10454|dock1
  -GOLD-   2272014493D 1   1.00000     0.00000
 Structure written by MMmdl.
 43 46  0  0  0  0  0  0  0  0  1 V2000
  152.2480  144.3087  158.0279 C   0  0  0  0  0  0  0  0  0  0  0  0
  152.3379  144.5554  159.4630 N   0  0  0  0  0  0  0  0  0  0  0  0
  151.8907  145.8864  159.8603 C   0  0  0  0  0  0  0  0  0  0  0  0
  152.8818  143.6231  160.3499 C   0  0  0  0  0  0  0  0  0  0  0  0
  152.9556  143.8831  161.6750 C   0  0  0  0  0  0  0  0  0  0  0  0
  153.5394  142.9112  162.5767 C   0  0  0  0  0  0  0  0  0  0  0  0
  154.0026  141.7294  162.1249 C   0  0  0  0  0  0  0  0  0  0  0  0
  153.9141  141.3873  160.7180 C   0  0  0  0  0  0  0  0  0  0  0  0
  154.3514  140.2355  160.2919 N   0  0  0  0  0  0  0  0  0  0  0  0
  154.1664  139.7827  158.9850 C   0  0  0  0  0  0  0  0  0  0  0  0
  154.9721  139.0466  158.4167 O   0  0  0  0  0  0  0  0  0  0  0  0
  152.9850  140.0981  158.4155 N   0  0  0  0  0  0  0  0  0  0  0  0
  152.5251  139.6858  157.1289 C   0  0  2  0  0  0  0  0  0  0  0  0
  151.5123  140.5217  156.3498 C   0  0  2  0  0  0  0  0  0  0  0  0
  150.4605  141.5017  156.8769 C   0  0  1  0  0  0  0  0  0  0  0  0
  149.1366  141.1959  156.1428 C   0  0  0  0  0  0  0  0  0  0  0  0
  148.7072  139.8479  156.7758 C   0  0  0  0  0  0  0  0  0  0  0  0
  149.8535  139.5729  157.7721 C   0  0  2  0  0  0  0  0  0  0  0  0
  150.0915  140.9991  158.2716 C   0  0  0  0  0  0  0  0  0  0  0  0
  151.0909  139.2100  156.9467 C   0  0  2  0  0  0  0  0  0  0  0  0
  153.3714  142.3949  159.8979 N   0  0  0  0  0  0  0  0  0  0  0  0
  153.1116  144.7397  157.5210 H   0  0  0  0  0  0  0  0  0  0  0  0
  151.3468  144.7570  157.6081 H   0  0  0  0  0  0  0  0  0  0  0  0
  152.2166  143.2452  157.7944 H   0  0  0  0  0  0  0  0  0  0  0  0
  151.0917  145.8137  160.5986 H   0  0  0  0  0  0  0  0  0  0  0  0
  151.5113  146.4611  159.0147 H   0  0  0  0  0  0  0  0  0  0  0  0
  152.7157  146.4495  160.2976 H   0  0  0  0  0  0  0  0  0  0  0  0
  152.5963  144.8122  162.0915 H   0  0  0  0  0  0  0  0  0  0  0  0
  153.6109  143.1419  163.6293 H   0  0  0  0  0  0  0  0  0  0  0  0
  154.4298  141.0462  162.8447 H   0  0  0  0  0  0  0  0  0  0  0  0
  152.3462  140.6627  158.9568 H   0  0  0  0  0  0  0  0  0  0  0  0
  153.2597  139.1760  156.5076 H   0  0  0  0  0  0  0  0  0  0  0  0
  151.6682  140.5611  155.2732 H   0  0  0  0  0  0  0  0  0  0  0  0
  150.7787  142.5417  156.8178 H   0  0  0  0  0  0  0  0  0  0  0  0
  148.3917  141.9685  156.3382 H   0  0  0  0  0  0  0  0  0  0  0  0
  149.2688  141.1245  155.0624 H   0  0  0  0  0  0  0  0  0  0  0  0
  147.7529  139.9515  157.2943 H   0  0  0  0  0  0  0  0  0  0  0  0
  148.6006  139.0543  156.0354 H   0  0  0  0  0  0  0  0  0  0  0  0
  149.6247  138.8362  158.5422 H   0  0  0  0  0  0  0  0  0  0  0  0
  150.8668  141.1089  159.0242 H   0  0  0  0  0  0  0  0  0  0  0  0
  149.1930  141.4706  158.6753 H   0  0  0  0  0  0  0  0  0  0  0  0
  150.9575  138.3654  156.2730 H   0  0  0  0  0  0  0  0  0  0  0  0
  153.3029  142.2475  158.9012 H   0  0  0  0  0  0  0  0  0  0  0  0
  1  2  1  0  0  0  0
  1 22  1  0  0  0  0
  1 23  1  0  0  0  0
  1 24  1  0  0  0  0
  2  3  1  0  0  0  0
  2  4  1  0  0  0  0
  3 25  1  0  0  0  0
  3 26  1  0  0  0  0
  3 27  1  0  0  0  0
  4 21  1  0  0  0  0
  4  5  2  0  0  0  0
  5  6  1  0  0  0  0
  5 28  1  0  0  0  0
  6  7  2  0  0  0  0
  6 29  1  0  0  0  0
  7  8  1  0  0  0  0
  7 30  1  0  0  0  0
  8  9  2  0  0  0  0
  8 21  1  0  0  0  0
  9 10  1  0  0  0  0
 10 11  2  0  0  0  0
 10 12  1  0  0  0  0
 12 13  1  0  0  0  0
 12 31  1  0  0  0  0
 13 20  1  0  0  0  0
 13 14  1  0  0  0  0
 13 32  1  0  0  0  0
 14 20  1  0  0  0  0
 14 15  1  0  0  0  0
 14 33  1  0  0  0  0
 15 19  1  0  0  0  0
 15 16  1  0  0  0  0
 15 34  1  0  0  0  0
 16 17  1  0  0  0  0
 16 35  1  0  0  0  0
 16 36  1  0  0  0  0
 17 18  1  0  0  0  0
 17 37  1  0  0  0  0
 17 38  1  0  0  0  0
 18 19  1  0  0  0  0
 18 20  1  0  0  0  0
 18 39  1  0  0  0  0
 19 40  1  0  0  0  0
 19 41  1  0  0  0  0
 20 42  1  0  0  0  0
 21 43  1  0  0  0  0
M  END
> <s_m_source_file>
AV-unprocessed.smi

> <i_m_source_file_index>
2706

> <i_lp_mmshare_version>
43012

> <i_f3d_flags>
0

> <s_epik_input>
W0NIM11OKFtDSDNdKWMxW2NIXVtjSF1bY0hdYyhuMSlbTkhdQyg9TylbTkhdW0NASF0yW0NAQEhdM1tDQEBIXShbQ0gyXTQpW0NIMl1bQ0gyXVtDQEBIXTRbQ0BIXTIz

> <s_epik_cmdline>
J2VwaWtfcHl0aG9uJywgJy1waCcsICc3LjAnLCAnLXRuJywgJzgnLCAnLW1hJywgJzIwMCcsICctbWV0YWxfYmluZGluZycsICctaW1hZScsICc8aW5maWxlLm1hZT4nLCAnLW9tYWUnLCAnPG91dGZpbGUubWFlPic=

> <r_lp_tautomer_probability>
0.999994

> <r_epik_Ionization_Penalty>
2.07242

> <r_epik_Ionization_Penalty_Charging>
2.07242

> <r_epik_Ionization_Penalty_Neutral>
9.73808e-07

> <r_epik_State_Penalty>
3.96009

> <r_epik_Charging_Adjusted_Penalty>
6.03251

> <i_epik_Tot_Q>
0

> <i_epik_Tot_abs_Q>
0

> <r_epik_Metal_State_Penalty>
3.98849

> <b_epik_Metal_Only>
1

> <s_lp_Force_Field>
OPLS_2005

> <r_lp_Energy>
93.8849

> <b_lp_Chiralities_Consistent>
1

> <s_lp_Variant>
AV-unprocessed.smi:2706-11

> <Gold.Version>
5.8.1

> <Gold.Id.Protein>
6NUR|6NUR_protein|mol2

> <Gold.PLP.Fitness>
45.9247

> <Gold.PLP.PLP>
-43.9188

> <Gold.PLP.part.hbond>
-1.0000

> <Gold.PLP.part.metal>
0.0000

> <Gold.PLP.part.buried>
-3.4561

> <Gold.PLP.part.nonpolar>
-39.0232

> <Gold.PLP.part.repulsive>
0.1513

> <Gold.PLP.ligand.clash>
0.0000

> <Gold.PLP.ligand.torsion>
0.5268

> <Gold.PLP.Chemscore.Hbond>
1.0000

> <Gold.PLP.Chemscore.CHOScore>
0.0000

> <Gold.PLP.Chemscore.Metal>
0.0000

> <Gold.Chemscore.Hbonds>
donor molecule, donor type, donor heavy atom, donor atom, acceptor molecule, acceptor atom, score
      P1  H  7997  8009       L1    11  0.62

> <Gold.PLP.Chemscore.Internal.Correction>
0.0596

> <Gold.Rescore>
     Score         DG    S(hbond)    S(metal)    S(lipo)     H(rot)  DE(clash)    DE(int)     intcor
     13.95     -15.92       0.71        0.00      90.87       1.00       0.09       1.87       ----

> <Gold.Chemscore.Fitness>
13.9511

> <Gold.Chemscore.DG>
-15.9190

> <Gold.Chemscore.ZeroCoef>
-5.4800

> <Gold.Chemscore.Hbond>
0.7089

> <Gold.Chemscore.Metal>
0.0000

> <Gold.Chemscore.Lipo>
90.8668

> <Gold.Chemscore.Internal_Hbond>
0.0000

> <Gold.Chemscore.DEClash>
0.0948

> <Gold.Chemscore.DEInternal>
1.8731

> <Gold.Chemscore.Rot>
1.0000

> <Gold.Chemscore.Internal.Correction>
   9.000000E+99

> <Gold.Chemscore.Hbonds>
donor molecule, donor type, donor heavy atom, donor atom, acceptor molecule, acceptor atom, score
      P1  H  7997  8009       L1    11  0.08

> <Gold.Chemscore.Hbond.Weighted>
-2.3676

> <Gold.Chemscore.Metal.Weighted>
-0.0000

> <Gold.Chemscore.Lipo.Weighted>
-10.6314

> <Gold.Chemscore.Internal_Hbond.Weighted>
0.0000

> <Gold.Chemscore.DEClash.Weighted>
0.0948

> <Gold.Chemscore.DEInternal.Weighted>
1.8731

> <Gold.Chemscore.Rot.Weighted>
2.5600

> <Gold.Chemscore.Internal.Correction.Weighted>
   9.000000E+99

> <Gold.Protein.RotatedTorsions>
[ 6907 6896 6895 6894 ] final  -99.97 input  -60.11 | X-H torsion
[ 7974 7965 7964 7962 ] final    3.95 input  175.53 | X-H torsion
[ 8008 7997 7996 7995 ] final  108.81 input   59.86 | X-H torsion
[ 10167 10162 10161 10158 ] final  -94.83 input  -65.29 | X-H torsion
[ 10718 10713 10712 10709 ] final  -65.53 input   66.30 | X-H torsion
[ 10763 10752 10751 10750 ] final -159.64 input  -60.55 | X-H torsion
[ 11005 11000 10999 10996 ] final  133.00 input  -57.11 | X-H torsion

> <Gold.Protein.ActiveResidues>
 VAL166  LYS551  ARG553  GLY616  TRP617  ASP618  TYR619  PRO620  LYS621  CYS622 
 ASP623  PHE694  ASN695  SER759  ASP760  ASP761  ALA762  ILE779  LEU786  VAL792 
 PHE793  MET794  SER795  GLU796  ALA797  LYS798  CYS799  TRP800  GLU811  SER814 

> <Gold.Protein.RotatedAtoms>
  150.7099  134.0959  159.3948 H   0  0  0  0  0  0  0  0  0  0  0  0  # atno 6907 bound_to 6896
  151.8945  135.0401  160.0510 H   0  0  0  0  0  0  0  0  0  0  0  0  # atno 6908 bound_to 6896
  152.2465  133.5143  159.5337 H   0  0  0  0  0  0  0  0  0  0  0  0  # atno 6909 bound_to 6896
  146.2445  140.0609  142.8368 H   0  0  0  0  0  0  0  0  0  0  0  0  # atno 7974 bound_to 7965
  156.1931  140.3069  155.9373 H   0  0  0  0  0  0  0  0  0  0  0  0  # atno 8008 bound_to 7997
  155.3128  140.0452  157.3052 H   0  0  0  0  0  0  0  0  0  0  0  0  # atno 8009 bound_to 7997
  154.5476  140.2281  155.8546 H   0  0  0  0  0  0  0  0  0  0  0  0  # atno 8010 bound_to 7997
  140.3104  143.3108  152.0154 H   0  0  0  0  0  0  0  0  0  0  0  0  # atno 10167 bound_to 10162
  156.0664  130.4248  150.1577 H   0  0  0  0  0  0  0  0  0  0  0  0  # atno 10718 bound_to 10713
  154.7458  135.3080  154.8648 H   0  0  0  0  0  0  0  0  0  0  0  0  # atno 10763 bound_to 10752
  153.9449  135.6770  153.4748 H   0  0  0  0  0  0  0  0  0  0  0  0  # atno 10764 bound_to 10752
  153.1054  135.4891  154.8869 H   0  0  0  0  0  0  0  0  0  0  0  0  # atno 10765 bound_to 10752
  139.9825  134.9543  156.9663 H   0  0  0  0  0  0  0  0  0  0  0  0  # atno 11005 bound_to 11000
  145.0901  140.9279  143.4774 LP  0  0  0  0  0  0  0  0  0  0  0  0  # atno 17320 bound_to 7965
  145.0779  139.2981  143.5798 LP  0  0  0  0  0  0  0  0  0  0  0  0  # atno 17321 bound_to 7965
  139.4895  144.6388  151.6919 LP  0  0  0  0  0  0  0  0  0  0  0  0  # atno 17342 bound_to 10162
  140.5573  144.0327  150.6153 LP  0  0  0  0  0  0  0  0  0  0  0  0  # atno 17343 bound_to 10162
  156.9636  130.9812  151.3474 LP  0  0  0  0  0  0  0  0  0  0  0  0  # atno 17370 bound_to 10713
  157.5708  130.8309  149.8389 LP  0  0  0  0  0  0  0  0  0  0  0  0  # atno 17371 bound_to 10713
  140.5069  134.1041  155.7262 LP  0  0  0  0  0  0  0  0  0  0  0  0  # atno 17394 bound_to 11000
  141.1495  133.8995  157.2134 LP  0  0  0  0  0  0  0  0  0  0  0  0  # atno 17395 bound_to 11000

$$$$
