AV-unprocessed.smi:49|AV-procd|sdf|474|dock4
  -GOLD-   2262016343D 1   1.00000     0.00000
 Structure written by MMmdl.
 27 28  0  0  0  0  0  0  0  0  1 V2000
  152.4714  144.4324  158.3177 C   0  0  0  0  0  0  0  0  0  0  0  0
  151.0905  143.7691  158.3563 C   0  0  0  0  0  0  0  0  0  0  0  0
  150.9760  142.6222  157.4063 C   0  0  0  0  0  0  0  0  0  0  0  0
  151.6700  141.4918  157.4844 N   0  0  0  0  0  0  0  0  0  0  0  0
  151.1790  140.8277  156.3946 C   0  0  0  0  0  0  0  0  0  0  0  0
  151.6216  139.4399  156.0418 C   0  0  1  0  0  0  0  0  0  0  0  0
  150.4546  138.4330  156.0633 C   0  0  0  0  0  0  0  0  0  0  0  0
  150.3395  137.9568  154.6171 C   0  0  2  0  0  0  0  0  0  0  0  0
  149.8726  136.6287  154.5099 O   0  0  0  0  0  0  0  0  0  0  0  0
  151.7633  138.1150  154.1000 C   0  0  0  0  0  0  0  0  0  0  0  0
  152.2330  139.3491  154.7110 N   0  0  0  0  0  0  0  0  0  0  0  0
  150.2338  141.4658  155.7020 N   0  0  0  0  0  0  0  0  0  0  0  0
  150.1270  142.6295  156.3767 N   0  0  0  0  0  0  0  0  0  0  0  0
  152.3531  139.1225  156.7862 H   0  0  0  0  0  0  0  0  0  0  0  0
  149.6733  138.6201  154.0631 H   0  0  0  0  0  0  0  0  0  0  0  0
  149.4868  143.3645  156.1117 H   0  0  0  0  0  0  0  0  0  0  0  0
  152.5216  145.2653  159.0192 H   0  0  0  0  0  0  0  0  0  0  0  0
  152.6931  144.8212  157.3233 H   0  0  0  0  0  0  0  0  0  0  0  0
  153.2562  143.7237  158.5835 H   0  0  0  0  0  0  0  0  0  0  0  0
  150.8762  143.4176  159.3664 H   0  0  0  0  0  0  0  0  0  0  0  0
  150.3206  144.5016  158.1123 H   0  0  0  0  0  0  0  0  0  0  0  0
  150.7166  137.5992  156.7166 H   0  0  0  0  0  0  0  0  0  0  0  0
  149.5189  138.8547  156.4335 H   0  0  0  0  0  0  0  0  0  0  0  0
  149.7801  136.4167  153.5935 H   0  0  0  0  0  0  0  0  0  0  0  0
  152.3789  137.2806  154.4389 H   0  0  0  0  0  0  0  0  0  0  0  0
  151.8163  138.1519  153.0118 H   0  0  0  0  0  0  0  0  0  0  0  0
  153.2429  139.3044  154.8000 H   0  0  0  0  0  0  0  0  0  0  0  0
  1  2  1  0  0  0  0
  1 17  1  0  0  0  0
  1 18  1  0  0  0  0
  1 19  1  0  0  0  0
  2  3  1  0  0  0  0
  2 20  1  0  0  0  0
  2 21  1  0  0  0  0
  3 13  1  0  0  0  0
  3  4  2  0  0  0  0
  4  5  1  0  0  0  0
  5  6  1  0  0  0  0
  5 12  2  0  0  0  0
  6 14  1  0  0  0  0
  6 11  1  0  0  0  0
  6  7  1  0  0  0  0
  7  8  1  0  0  0  0
  7 22  1  0  0  0  0
  7 23  1  0  0  0  0
  8 15  1  0  0  0  0
  8  9  1  0  0  0  0
  8 10  1  0  0  0  0
  9 24  1  0  0  0  0
 10 11  1  0  0  0  0
 10 25  1  0  0  0  0
 10 26  1  0  0  0  0
 11 27  1  0  0  0  0
 12 13  1  0  0  0  0
 13 16  1  0  0  0  0
M  END
> <s_m_source_file>
AV-unprocessed.smi

> <i_m_source_file_index>
49

> <i_lp_mmshare_version>
43012

> <i_f3d_flags>
0

> <s_epik_input>
W0NIM11bQ0gyXWMxbmMobltuSF0xKVtDQEBIXTJbQ0gyXVtDQEBIXShbT0hdKVtDSDJdW05IXTI=

> <s_epik_cmdline>
J2VwaWtfcHl0aG9uJywgJy1waCcsICc3LjAnLCAnLXRuJywgJzgnLCAnLW1hJywgJzIwMCcsICctbWV0YWxfYmluZGluZycsICctaW1hZScsICc8aW5maWxlLm1hZT4nLCAnLW9tYWUnLCAnPG91dGZpbGUubWFlPic=

> <r_lp_tautomer_probability>
0.948284

> <r_epik_Ionization_Penalty>
1.6657

> <r_epik_Ionization_Penalty_Charging>
0

> <r_epik_Ionization_Penalty_Neutral>
1.6657

> <r_epik_State_Penalty>
2.01417

> <r_epik_Charging_Adjusted_Penalty>
2.01417

> <i_epik_Tot_Q>
0

> <i_epik_Tot_abs_Q>
0

> <r_epik_Metal_State_Penalty>
2.28256

> <b_epik_Metal_Only>
0

> <s_lp_Force_Field>
OPLS_2005

> <r_lp_Energy>
18.9317

> <b_lp_Chiralities_Consistent>
1

> <s_lp_Variant>
AV-unprocessed.smi:49-12

> <Gold.Version>
5.8.1

> <Gold.Id.Protein>
6NUR|6NUR_protein|mol2

> <Gold.PLP.Fitness>
34.1043

> <Gold.PLP.PLP>
-25.7431

> <Gold.PLP.part.hbond>
-2.9884

> <Gold.PLP.part.metal>
0.0000

> <Gold.PLP.part.buried>
-4.2691

> <Gold.PLP.part.nonpolar>
-18.7064

> <Gold.PLP.part.repulsive>
0.1944

> <Gold.PLP.ligand.clash>
0.0000

> <Gold.PLP.ligand.torsion>
0.0258

> <Gold.PLP.Chemscore.Hbond>
2.8000

> <Gold.PLP.Chemscore.CHOScore>
0.0000

> <Gold.PLP.Chemscore.Metal>
0.0000

> <Gold.Chemscore.Hbonds>
donor molecule, donor type, donor heavy atom, donor atom, acceptor molecule, acceptor atom, score
      L1  H     9    24       P1  7948  1.00
      L1  H    13    16       P1  8028  1.00
      P1  H  7989  7998       L1    11  0.80

> <Gold.PLP.Chemscore.Internal.Correction>
0.0128

> <Gold.Rescore>
     Score         DG    S(hbond)    S(metal)    S(lipo)     H(rot)  DE(clash)    DE(int)     intcor
     14.51     -14.59       2.35        0.00      51.51       1.86       0.06       0.02       ----

> <Gold.Chemscore.Fitness>
14.5114

> <Gold.Chemscore.DG>
-14.5887

> <Gold.Chemscore.ZeroCoef>
-5.4800

> <Gold.Chemscore.Hbond>
2.3451

> <Gold.Chemscore.Metal>
0.0000

> <Gold.Chemscore.Lipo>
51.5104

> <Gold.Chemscore.Internal_Hbond>
0.0000

> <Gold.Chemscore.DEClash>
0.0622

> <Gold.Chemscore.DEInternal>
0.0152

> <Gold.Chemscore.Rot>
1.8558

> <Gold.Chemscore.Internal.Correction>
   9.000000E+99

> <Gold.Chemscore.Hbonds>
donor molecule, donor type, donor heavy atom, donor atom, acceptor molecule, acceptor atom, score
      L1  H     9    24       P1  7948  0.35
      L1  H    13    16       P1  8028  0.95
      P1  H  7989  7998       L1    11  0.31

> <Gold.Chemscore.Hbond.Weighted>
-7.8327

> <Gold.Chemscore.Metal.Weighted>
-0.0000

> <Gold.Chemscore.Lipo.Weighted>
-6.0267

> <Gold.Chemscore.Internal_Hbond.Weighted>
0.0000

> <Gold.Chemscore.DEClash.Weighted>
0.0622

> <Gold.Chemscore.DEInternal.Weighted>
0.0152

> <Gold.Chemscore.Rot.Weighted>
4.7507

> <Gold.Chemscore.Internal.Correction.Weighted>
   9.000000E+99

> <Gold.Protein.RotatedTorsions>
[ 6907 6896 6895 6894 ] final   81.16 input  -60.11 | X-H torsion
[ 7974 7965 7964 7962 ] final  137.79 input  175.53 | X-H torsion
[ 8008 7997 7996 7995 ] final -134.57 input   59.86 | X-H torsion
[ 10167 10162 10161 10158 ] final   12.95 input  -65.29 | X-H torsion
[ 10718 10713 10712 10709 ] final  179.77 input   66.30 | X-H torsion
[ 10763 10752 10751 10750 ] final  145.40 input  -60.55 | X-H torsion
[ 11005 11000 10999 10996 ] final  175.75 input  -57.11 | X-H torsion

> <Gold.Protein.ActiveResidues>
 VAL166  LYS551  ARG553  GLY616  TRP617  ASP618  TYR619  PRO620  LYS621  CYS622 
 ASP623  PHE694  ASN695  SER759  ASP760  ASP761  ALA762  ILE779  LEU786  VAL792 
 PHE793  MET794  SER795  GLU796  ALA797  LYS798  CYS799  TRP800  GLU811  SER814 

> <Gold.Protein.RotatedAtoms>
  152.5259  134.3246  159.9160 H   0  0  0  0  0  0  0  0  0  0  0  0  # atno 6907 bound_to 6896
  151.3195  133.4039  159.2661 H   0  0  0  0  0  0  0  0  0  0  0  0  # atno 6908 bound_to 6896
  150.9971  134.9309  159.7990 H   0  0  0  0  0  0  0  0  0  0  0  0  # atno 6909 bound_to 6896
  144.9434  139.4903  143.5561 H   0  0  0  0  0  0  0  0  0  0  0  0  # atno 7974 bound_to 7965
  155.3643  140.0484  157.3046 H   0  0  0  0  0  0  0  0  0  0  0  0  # atno 8008 bound_to 7997
  154.5162  140.2209  155.9024 H   0  0  0  0  0  0  0  0  0  0  0  0  # atno 8009 bound_to 7997
  156.1639  140.3110  155.8860 H   0  0  0  0  0  0  0  0  0  0  0  0  # atno 8010 bound_to 7997
  140.6035  143.8557  150.6989 H   0  0  0  0  0  0  0  0  0  0  0  0  # atno 10167 bound_to 10162
  156.8708  130.9783  151.3073 H   0  0  0  0  0  0  0  0  0  0  0  0  # atno 10718 bound_to 10713
  154.0048  135.2920  155.3399 H   0  0  0  0  0  0  0  0  0  0  0  0  # atno 10763 bound_to 10752
  154.7138  135.5138  153.8709 H   0  0  0  0  0  0  0  0  0  0  0  0  # atno 10764 bound_to 10752
  153.0749  135.6660  154.0286 H   0  0  0  0  0  0  0  0  0  0  0  0  # atno 10765 bound_to 10752
  140.3656  134.7075  157.4359 H   0  0  0  0  0  0  0  0  0  0  0  0  # atno 11005 bound_to 11000
  146.3294  139.8469  142.8880 LP  0  0  0  0  0  0  0  0  0  0  0  0  # atno 17320 bound_to 7965
  145.2955  141.0179  143.3638 LP  0  0  0  0  0  0  0  0  0  0  0  0  # atno 17321 bound_to 7965
  140.2108  143.3885  152.1719 LP  0  0  0  0  0  0  0  0  0  0  0  0  # atno 17342 bound_to 10162
  139.5308  144.7156  151.5064 LP  0  0  0  0  0  0  0  0  0  0  0  0  # atno 17343 bound_to 10162
  157.6197  130.8645  149.9087 LP  0  0  0  0  0  0  0  0  0  0  0  0  # atno 17370 bound_to 10713
  156.0727  130.3683  150.0741 LP  0  0  0  0  0  0  0  0  0  0  0  0  # atno 17371 bound_to 10713
  140.0592  134.6020  155.8769 LP  0  0  0  0  0  0  0  0  0  0  0  0  # atno 17394 bound_to 11000
  141.1971  133.6594  156.5723 LP  0  0  0  0  0  0  0  0  0  0  0  0  # atno 17395 bound_to 11000

$$$$
