AV-unprocessed.smi:167|AV-procd|sdf|1395|dock2
  -GOLD-   2262019133D 1   1.00000     0.00000
 Structure written by MMmdl.
 51 55  0  0  0  0  0  0  0  0  1 V2000
  150.4818  139.9397  154.6285 O   0  0  0  0  0  0  0  0  0  0  0  0
  149.2128  140.3412  154.1586 C   0  0  0  0  0  0  0  0  0  0  0  0
  148.3257  140.7830  155.3385 C   0  0  1  0  0  0  0  0  0  0  0  0
  147.1042  141.6314  154.9286 C   0  0  0  0  0  0  0  0  0  0  0  0
  145.9461  140.8407  155.5723 C   0  0  2  0  0  0  0  0  0  0  0  0
  145.9989  141.0216  157.0995 C   0  0  0  0  0  0  0  0  0  0  0  0
  147.1870  140.1176  157.4686 C   0  0  0  0  0  0  0  0  0  0  0  0
  147.6287  139.6153  156.0819 C   0  0  1  0  0  0  0  0  0  0  0  0
  146.3454  139.4509  155.4136 N   0  0  0  0  0  0  0  0  0  0  0  0
  146.2517  138.8212  154.2110 C   0  0  0  0  0  0  0  0  0  0  0  0
  146.8496  139.3822  153.1265 N   0  0  0  0  0  0  0  0  0  0  0  0
  146.7902  138.7845  151.9337 C   0  0  0  0  0  0  0  0  0  0  0  0
  146.1857  137.6430  151.6028 N   0  0  0  0  0  0  0  0  0  0  0  0
  145.5629  137.0827  152.6787 C   0  0  0  0  0  0  0  0  0  0  0  0
  145.5430  137.6010  154.0060 C   0  0  0  0  0  0  0  0  0  0  0  0
  144.8072  136.7533  154.8256 N   0  0  0  0  0  0  0  0  0  0  0  0
  144.4316  135.7848  154.0367 C   0  0  0  0  0  0  0  0  0  0  0  0
  144.8294  135.9090  152.7246 N   0  0  0  0  0  0  0  0  0  0  0  0
  144.5782  134.9863  151.6537 C   0  0  0  0  0  0  0  0  0  0  0  0
  144.1129  133.5494  151.9155 C   0  0  0  0  0  0  0  0  0  0  0  0
  144.9159  133.0798  150.6795 C   0  0  0  0  0  0  0  0  0  0  0  0
  145.6672  131.7408  150.8153 C   0  0  0  0  0  0  0  0  0  0  0  0
  146.5233  131.4847  149.7193 O   0  0  0  0  0  0  0  0  0  0  0  0
  144.0858  133.0072  149.3839 C   0  0  0  0  0  0  0  0  0  0  0  0
  143.8927  134.2870  148.8160 O   0  0  0  0  0  0  0  0  0  0  0  0
  145.7397  134.3758  150.8683 C   0  0  0  0  0  0  0  0  0  0  0  0
  150.3918  139.6473  155.5228 H   0  0  0  0  0  0  0  0  0  0  0  0
  149.3458  141.1387  153.4287 H   0  0  0  0  0  0  0  0  0  0  0  0
  148.7561  139.4997  153.6371 H   0  0  0  0  0  0  0  0  0  0  0  0
  148.9533  141.3354  156.0398 H   0  0  0  0  0  0  0  0  0  0  0  0
  147.1647  142.6583  155.2904 H   0  0  0  0  0  0  0  0  0  0  0  0
  146.9905  141.6690  153.8442 H   0  0  0  0  0  0  0  0  0  0  0  0
  144.9684  141.0888  155.1576 H   0  0  0  0  0  0  0  0  0  0  0  0
  146.1474  142.0609  157.3946 H   0  0  0  0  0  0  0  0  0  0  0  0
  145.0828  140.6613  157.5690 H   0  0  0  0  0  0  0  0  0  0  0  0
  147.9754  140.6460  158.0055 H   0  0  0  0  0  0  0  0  0  0  0  0
  146.8543  139.2869  158.0922 H   0  0  0  0  0  0  0  0  0  0  0  0
  148.2441  138.7207  156.1579 H   0  0  0  0  0  0  0  0  0  0  0  0
  147.3014  139.2934  151.1300 H   0  0  0  0  0  0  0  0  0  0  0  0
  143.8520  134.9483  154.3987 H   0  0  0  0  0  0  0  0  0  0  0  0
  143.8804  135.4785  150.9742 H   0  0  0  0  0  0  0  0  0  0  0  0
  144.4835  133.1440  152.8571 H   0  0  0  0  0  0  0  0  0  0  0  0
  143.0344  133.4088  151.8378 H   0  0  0  0  0  0  0  0  0  0  0  0
  146.2712  131.7259  151.7230 H   0  0  0  0  0  0  0  0  0  0  0  0
  144.9710  130.9049  150.8875 H   0  0  0  0  0  0  0  0  0  0  0  0
  147.4141  131.4610  150.0344 H   0  0  0  0  0  0  0  0  0  0  0  0
  144.5677  132.3657  148.6453 H   0  0  0  0  0  0  0  0  0  0  0  0
  143.1025  132.5738  149.5674 H   0  0  0  0  0  0  0  0  0  0  0  0
  144.5387  134.4155  148.1381 H   0  0  0  0  0  0  0  0  0  0  0  0
  145.9838  134.9071  149.9478 H   0  0  0  0  0  0  0  0  0  0  0  0
  146.6302  134.2425  151.4843 H   0  0  0  0  0  0  0  0  0  0  0  0
  1  2  1  0  0  0  0
  1 27  1  0  0  0  0
  2  3  1  0  0  0  0
  2 28  1  0  0  0  0
  2 29  1  0  0  0  0
  3  8  1  0  0  0  0
  3  4  1  0  0  0  0
  3 30  1  0  0  0  0
  4  5  1  0  0  0  0
  4 31  1  0  0  0  0
  4 32  1  0  0  0  0
  5  9  1  0  0  0  0
  5  6  1  0  0  0  0
  5 33  1  0  0  0  0
  6  7  1  0  0  0  0
  6 34  1  0  0  0  0
  6 35  1  0  0  0  0
  7  8  1  0  0  0  0
  7 36  1  0  0  0  0
  7 37  1  0  0  0  0
  8  9  1  0  0  0  0
  8 38  1  0  0  0  0
  9 10  1  0  0  0  0
 10 15  1  0  0  0  0
 10 11  2  0  0  0  0
 11 12  1  0  0  0  0
 12 13  2  0  0  0  0
 12 39  1  0  0  0  0
 13 14  1  0  0  0  0
 14 18  1  0  0  0  0
 14 15  2  0  0  0  0
 15 16  1  0  0  0  0
 16 17  2  0  0  0  0
 17 18  1  0  0  0  0
 17 40  1  0  0  0  0
 18 19  1  0  0  0  0
 19 26  1  0  0  0  0
 19 20  1  0  0  0  0
 19 41  1  0  0  0  0
 20 21  1  0  0  0  0
 20 42  1  0  0  0  0
 20 43  1  0  0  0  0
 21 22  1  0  0  0  0
 21 24  1  0  0  0  0
 21 26  1  0  0  0  0
 22 23  1  0  0  0  0
 22 44  1  0  0  0  0
 22 45  1  0  0  0  0
 23 46  1  0  0  0  0
 24 25  1  0  0  0  0
 24 47  1  0  0  0  0
 24 48  1  0  0  0  0
 25 49  1  0  0  0  0
 26 50  1  0  0  0  0
 26 51  1  0  0  0  0
M  END
> <s_m_source_file>
AV-unprocessed.smi

> <i_m_source_file_index>
167

> <i_lp_mmshare_version>
43012

> <i_f3d_flags>
0

> <s_epik_input>
W09IXVtDSDJdW0NASF0oW0NIMl1bQ0BASF0xMilbQ0BIXShbQ0gyXVtDSDJdMSlOMmMobltjSF1uMyljKGMzNCluW2NIXW40W0NIXShbQ0gyXTUpW0NIMl1DNShbQ0gyXVtPSF0pW0NIMl1bT0hd

> <s_epik_cmdline>
J2VwaWtfcHl0aG9uJywgJy1waCcsICc3LjAnLCAnLXRuJywgJzgnLCAnLW1hJywgJzIwMCcsICctbWV0YWxfYmluZGluZycsICctaW1hZScsICc8aW5maWxlLm1hZT4nLCAnLW9tYWUnLCAnPG91dGZpbGUubWFlPic=

> <r_lp_tautomer_probability>
1

> <r_epik_Ionization_Penalty>
0.0047903

> <r_epik_Ionization_Penalty_Charging>
0

> <r_epik_Ionization_Penalty_Neutral>
0.0047903

> <r_epik_State_Penalty>
0.00341021

> <r_epik_Charging_Adjusted_Penalty>
0.00341021

> <i_epik_Tot_Q>
0

> <i_epik_Tot_abs_Q>
0

> <r_epik_Metal_State_Penalty>
-0

> <b_epik_Metal_Only>
0

> <s_lp_Force_Field>
OPLS_2005

> <r_lp_Energy>
89.2094

> <b_lp_Chiralities_Consistent>
1

> <s_lp_Variant>
AV-unprocessed.smi:167-4

> <Gold.Version>
5.8.1

> <Gold.Id.Protein>
6NUR|6NUR_protein|mol2

> <Gold.PLP.Fitness>
46.1358

> <Gold.PLP.PLP>
-36.0325

> <Gold.PLP.part.hbond>
-3.8334

> <Gold.PLP.part.metal>
0.0000

> <Gold.PLP.part.buried>
-6.7606

> <Gold.PLP.part.nonpolar>
-27.1161

> <Gold.PLP.part.repulsive>
1.4748

> <Gold.PLP.ligand.clash>
0.0000

> <Gold.PLP.ligand.torsion>
1.0775

> <Gold.PLP.Chemscore.Hbond>
3.0000

> <Gold.PLP.Chemscore.CHOScore>
0.9302

> <Gold.PLP.Chemscore.Metal>
0.0000

> <Gold.Chemscore.Hbonds>
donor molecule, donor type, donor heavy atom, donor atom, acceptor molecule, acceptor atom, score
      L1  H    23    46       P1 10747  1.00
      L1  H    25    49       P1  7921  1.00
      P1  H  7989  7998       L1     1  1.00
      L1  C    12    39       P1  7957  0.95

> <Gold.PLP.Chemscore.Internal.Correction>
0.4676

> <Gold.Rescore>
     Score         DG    S(hbond)    S(metal)    S(lipo)     H(rot)  DE(clash)    DE(int)     intcor
      5.59     -11.96       2.91        0.00      64.43       4.20       0.55       5.82       ----

> <Gold.Chemscore.Fitness>
5.5933

> <Gold.Chemscore.DG>
-11.9605

> <Gold.Chemscore.ZeroCoef>
-5.4800

> <Gold.Chemscore.Hbond>
2.9053

> <Gold.Chemscore.Metal>
0.0000

> <Gold.Chemscore.Lipo>
64.4322

> <Gold.Chemscore.Internal_Hbond>
0.0000

> <Gold.Chemscore.DEClash>
0.5491

> <Gold.Chemscore.DEInternal>
5.8181

> <Gold.Chemscore.Rot>
4.2038

> <Gold.Chemscore.Internal.Correction>
   9.000000E+99

> <Gold.Chemscore.Hbonds>
donor molecule, donor type, donor heavy atom, donor atom, acceptor molecule, acceptor atom, score
      L1  H    23    46       P1 10747  0.99
      L1  H    25    49       P1  7921  0.97
      P1  H  7989  7998       L1     1  0.35

> <Gold.Chemscore.Hbond.Weighted>
-9.7036

> <Gold.Chemscore.Metal.Weighted>
-0.0000

> <Gold.Chemscore.Lipo.Weighted>
-7.5386

> <Gold.Chemscore.Internal_Hbond.Weighted>
0.0000

> <Gold.Chemscore.DEClash.Weighted>
0.5491

> <Gold.Chemscore.DEInternal.Weighted>
5.8181

> <Gold.Chemscore.Rot.Weighted>
10.7617

> <Gold.Chemscore.Internal.Correction.Weighted>
   9.000000E+99

> <Gold.Protein.RotatedTorsions>
[ 6907 6896 6895 6894 ] final  150.93 input  -60.11 | X-H torsion
[ 7974 7965 7964 7962 ] final -174.02 input  175.53 | X-H torsion
[ 8008 7997 7996 7995 ] final    5.76 input   59.86 | X-H torsion
[ 10167 10162 10161 10158 ] final  175.54 input  -65.29 | X-H torsion
[ 10718 10713 10712 10709 ] final  131.18 input   66.30 | X-H torsion
[ 10763 10752 10751 10750 ] final   46.64 input  -60.55 | X-H torsion
[ 11005 11000 10999 10996 ] final  114.98 input  -57.11 | X-H torsion

> <Gold.Protein.ActiveResidues>
 VAL166  LYS551  ARG553  GLY616  TRP617  ASP618  TYR619  PRO620  LYS621  CYS622 
 ASP623  PHE694  ASN695  SER759  ASP760  ASP761  ALA762  ILE779  LEU786  VAL792 
 PHE793  MET794  SER795  GLU796  ALA797  LYS798  CYS799  TRP800  GLU811  SER814 

> <Gold.Protein.RotatedAtoms>
  152.1076  133.4283  159.4615 H   0  0  0  0  0  0  0  0  0  0  0  0  # atno 6907 bound_to 6896
  150.6866  134.2686  159.4588 H   0  0  0  0  0  0  0  0  0  0  0  0  # atno 6908 bound_to 6896
  152.0552  134.9628  160.0625 H   0  0  0  0  0  0  0  0  0  0  0  0  # atno 6909 bound_to 6896
  144.7134  140.1535  143.6382 H   0  0  0  0  0  0  0  0  0  0  0  0  # atno 7974 bound_to 7965
  154.7325  140.2733  155.6444 H   0  0  0  0  0  0  0  0  0  0  0  0  # atno 8008 bound_to 7997
  156.2853  140.2713  156.1954 H   0  0  0  0  0  0  0  0  0  0  0  0  # atno 8009 bound_to 7997
  155.0363  140.0371  157.2483 H   0  0  0  0  0  0  0  0  0  0  0  0  # atno 8010 bound_to 7997
  139.5181  144.3020  152.0370 H   0  0  0  0  0  0  0  0  0  0  0  0  # atno 10167 bound_to 10162
  157.4992  131.1093  150.9451 H   0  0  0  0  0  0  0  0  0  0  0  0  # atno 10718 bound_to 10713
  152.9808  135.6002  154.3632 H   0  0  0  0  0  0  0  0  0  0  0  0  # atno 10763 bound_to 10752
  154.3312  135.2768  155.2472 H   0  0  0  0  0  0  0  0  0  0  0  0  # atno 10764 bound_to 10752
  154.4595  135.5969  153.6302 H   0  0  0  0  0  0  0  0  0  0  0  0  # atno 10765 bound_to 10752
  139.8996  134.9576  156.6974 H   0  0  0  0  0  0  0  0  0  0  0  0  # atno 11005 bound_to 11000
  145.9095  139.2478  143.1446 LP  0  0  0  0  0  0  0  0  0  0  0  0  # atno 17320 bound_to 7965
  145.9730  140.8745  143.0153 LP  0  0  0  0  0  0  0  0  0  0  0  0  # atno 17321 bound_to 7965
  140.2467  144.4212  150.6238 LP  0  0  0  0  0  0  0  0  0  0  0  0  # atno 17342 bound_to 10162
  140.6253  143.2180  151.6610 LP  0  0  0  0  0  0  0  0  0  0  0  0  # atno 17343 bound_to 10162
  157.0127  130.5643  149.5322 LP  0  0  0  0  0  0  0  0  0  0  0  0  # atno 17370 bound_to 10713
  156.0219  130.5313  150.8298 LP  0  0  0  0  0  0  0  0  0  0  0  0  # atno 17371 bound_to 10713
  140.7177  133.9168  155.8126 LP  0  0  0  0  0  0  0  0  0  0  0  0  # atno 17394 bound_to 11000
  141.0252  134.0834  157.4077 LP  0  0  0  0  0  0  0  0  0  0  0  0  # atno 17395 bound_to 11000

$$$$
