AV-unprocessed.smi:1761|AV-procd|sdf|7097|dock8
  -GOLD-   22720 8313D 1   1.00000     0.00000
 Structure written by MMmdl.
 34 35  0  0  0  0  0  0  0  0  1 V2000
  149.5341  140.9652  158.0585 O   0  0  0  0  0  0  0  0  0  0  0  0
  149.6177  141.9345  157.3038 C   0  0  0  0  0  0  0  0  0  0  0  0
  150.2686  143.0795  157.5759 N   0  0  0  0  0  0  0  0  0  0  0  0
  150.9626  143.4354  158.7634 C   0  0  0  0  0  0  0  0  0  0  0  0
  151.1387  144.8238  158.9602 C   0  0  0  0  0  0  0  0  0  0  0  0
  151.8102  145.2813  160.1105 C   0  0  0  0  0  0  0  0  0  0  0  0
  152.2886  144.3374  161.0366 C   0  0  0  0  0  0  0  0  0  0  0  0
  152.0724  142.9740  160.7648 C   0  0  0  0  0  0  0  0  0  0  0  0
  151.4294  142.5333  159.6627 N   0  0  0  0  0  0  0  0  0  0  0  0
  149.0552  141.9743  156.0870 N   0  0  0  0  0  0  0  0  0  0  0  0
  148.2687  140.9000  155.4835 C   0  0  2  0  0  0  0  0  0  0  0  0
  148.9793  139.5448  155.6666 C   0  0  0  0  0  0  0  0  0  0  0  0
  148.1633  138.3996  155.0450 C   0  0  0  0  0  0  0  0  0  0  0  0
  147.8633  138.6661  153.5614 C   0  0  0  0  0  0  0  0  0  0  0  0
  147.1636  140.0229  153.3617 C   0  0  0  0  0  0  0  0  0  0  0  0
  147.9534  141.1853  153.9941 C   0  0  2  0  0  0  0  0  0  0  0  0
  149.1446  141.3890  153.2559 O   0  0  0  0  0  0  0  0  0  0  0  0
  150.2577  143.7832  156.8529 H   0  0  0  0  0  0  0  0  0  0  0  0
  150.7632  145.5357  158.2396 H   0  0  0  0  0  0  0  0  0  0  0  0
  151.9539  146.3383  160.2792 H   0  0  0  0  0  0  0  0  0  0  0  0
  152.8073  144.6499  161.9308 H   0  0  0  0  0  0  0  0  0  0  0  0
  152.4240  142.2168  161.4500 H   0  0  0  0  0  0  0  0  0  0  0  0
  149.1746  142.8107  155.5348 H   0  0  0  0  0  0  0  0  0  0  0  0
  147.3206  140.8386  156.0217 H   0  0  0  0  0  0  0  0  0  0  0  0
  149.9697  139.5759  155.2104 H   0  0  0  0  0  0  0  0  0  0  0  0
  149.1355  139.3453  156.7273 H   0  0  0  0  0  0  0  0  0  0  0  0
  148.7040  137.4587  155.1505 H   0  0  0  0  0  0  0  0  0  0  0  0
  147.2265  138.2806  155.5909 H   0  0  0  0  0  0  0  0  0  0  0  0
  148.7934  138.6449  152.9921 H   0  0  0  0  0  0  0  0  0  0  0  0
  147.2405  137.8664  153.1598 H   0  0  0  0  0  0  0  0  0  0  0  0
  147.0038  140.2090  152.2988 H   0  0  0  0  0  0  0  0  0  0  0  0
  146.1721  139.9800  153.8144 H   0  0  0  0  0  0  0  0  0  0  0  0
  147.3613  142.0975  153.9115 H   0  0  0  0  0  0  0  0  0  0  0  0
  149.3526  140.5877  152.8005 H   0  0  0  0  0  0  0  0  0  0  0  0
  1  2  2  0  0  0  0
  2  3  1  0  0  0  0
  2 10  1  0  0  0  0
  3  4  1  0  0  0  0
  3 18  1  0  0  0  0
  4  9  1  0  0  0  0
  4  5  2  0  0  0  0
  5  6  1  0  0  0  0
  5 19  1  0  0  0  0
  6  7  2  0  0  0  0
  6 20  1  0  0  0  0
  7  8  1  0  0  0  0
  7 21  1  0  0  0  0
  8  9  2  0  0  0  0
  8 22  1  0  0  0  0
 10 11  1  0  0  0  0
 10 23  1  0  0  0  0
 11 16  1  0  0  0  0
 11 12  1  0  0  0  0
 11 24  1  0  0  0  0
 12 13  1  0  0  0  0
 12 25  1  0  0  0  0
 12 26  1  0  0  0  0
 13 14  1  0  0  0  0
 13 27  1  0  0  0  0
 13 28  1  0  0  0  0
 14 15  1  0  0  0  0
 14 29  1  0  0  0  0
 14 30  1  0  0  0  0
 15 16  1  0  0  0  0
 15 31  1  0  0  0  0
 15 32  1  0  0  0  0
 16 17  1  0  0  0  0
 16 33  1  0  0  0  0
 17 34  1  0  0  0  0
M  END
> <s_m_source_file>
AV-unprocessed.smi

> <i_m_source_file_index>
1761

> <i_lp_mmshare_version>
43012

> <i_f3d_flags>
0

> <s_epik_input>
bjFbY0hdW2NIXVtjSF1bY0hdYzFbTkhdQyg9TylbTkhdW0NAQEhdMltDSDJdW0NIMl1bQ0gyXVtDSDJdW0NASF0yW09IXQ==

> <s_epik_cmdline>
J2VwaWtfcHl0aG9uJywgJy1waCcsICc3LjAnLCAnLXRuJywgJzgnLCAnLW1hJywgJzIwMCcsICctbWV0YWxfYmluZGluZycsICctaW1hZScsICc8aW5maWxlLm1hZT4nLCAnLW9tYWUnLCAnPG91dGZpbGUubWFlPic=

> <r_lp_tautomer_probability>
1

> <r_epik_Ionization_Penalty>
4.92589e-05

> <r_epik_Ionization_Penalty_Charging>
0

> <r_epik_Ionization_Penalty_Neutral>
4.92589e-05

> <r_epik_State_Penalty>
-0

> <r_epik_Charging_Adjusted_Penalty>
0

> <i_epik_Tot_Q>
0

> <i_epik_Tot_abs_Q>
0

> <r_epik_Metal_State_Penalty>
-0

> <b_epik_Metal_Only>
0

> <s_lp_Force_Field>
OPLS_2005

> <r_lp_Energy>
15.389

> <b_lp_Chiralities_Consistent>
1

> <s_lp_Variant>
AV-unprocessed.smi:1761-3

> <Gold.Version>
5.8.1

> <Gold.Id.Protein>
6NUR|6NUR_protein|mol2

> <Gold.PLP.Fitness>
41.1906

> <Gold.PLP.PLP>
-31.4153

> <Gold.PLP.part.hbond>
-5.0585

> <Gold.PLP.part.metal>
0.0000

> <Gold.PLP.part.buried>
-3.8130

> <Gold.PLP.part.nonpolar>
-23.3085

> <Gold.PLP.part.repulsive>
0.1148

> <Gold.PLP.ligand.clash>
0.0000

> <Gold.PLP.ligand.torsion>
0.2179

> <Gold.PLP.Chemscore.Hbond>
3.3993

> <Gold.PLP.Chemscore.CHOScore>
0.0000

> <Gold.PLP.Chemscore.Metal>
0.0000

> <Gold.Chemscore.Hbonds>
donor molecule, donor type, donor heavy atom, donor atom, acceptor molecule, acceptor atom, score
      L1  H     3    18       P1  8028  0.77
      L1  H    10    23       P1  8028  0.80
      L1  H    17    34       P1  7957  0.75
      P1  H  8011  8017       L1    17  0.99

> <Gold.PLP.Chemscore.Internal.Correction>
0.0130

> <Gold.Rescore>
     Score         DG    S(hbond)    S(metal)    S(lipo)     H(rot)  DE(clash)    DE(int)     intcor
     16.53     -19.71       2.73        0.00      75.69       1.47       0.41       2.77       ----

> <Gold.Chemscore.Fitness>
16.5332

> <Gold.Chemscore.DG>
-19.7102

> <Gold.Chemscore.ZeroCoef>
-5.4800

> <Gold.Chemscore.Hbond>
2.7322

> <Gold.Chemscore.Metal>
0.0000

> <Gold.Chemscore.Lipo>
75.6892

> <Gold.Chemscore.Internal_Hbond>
0.0000

> <Gold.Chemscore.DEClash>
0.4063

> <Gold.Chemscore.DEInternal>
2.7708

> <Gold.Chemscore.Rot>
1.4653

> <Gold.Chemscore.Internal.Correction>
   9.000000E+99

> <Gold.Chemscore.Hbonds>
donor molecule, donor type, donor heavy atom, donor atom, acceptor molecule, acceptor atom, score
      L1  H     3    18       P1  8028  0.72
      L1  H    10    23       P1  8028  0.79
      L1  H    17    34       P1  7957  0.76
      P1  H  8011  8017       L1    17  0.26

> <Gold.Chemscore.Hbond.Weighted>
-9.1257

> <Gold.Chemscore.Metal.Weighted>
-0.0000

> <Gold.Chemscore.Lipo.Weighted>
-8.8556

> <Gold.Chemscore.Internal_Hbond.Weighted>
0.0000

> <Gold.Chemscore.DEClash.Weighted>
0.4063

> <Gold.Chemscore.DEInternal.Weighted>
2.7708

> <Gold.Chemscore.Rot.Weighted>
3.7511

> <Gold.Chemscore.Internal.Correction.Weighted>
   9.000000E+99

> <Gold.Protein.RotatedTorsions>
[ 6907 6896 6895 6894 ] final -161.98 input  -60.11 | X-H torsion
[ 7974 7965 7964 7962 ] final  162.04 input  175.53 | X-H torsion
[ 8008 7997 7996 7995 ] final  121.27 input   59.86 | X-H torsion
[ 10167 10162 10161 10158 ] final  174.85 input  -65.29 | X-H torsion
[ 10718 10713 10712 10709 ] final  122.66 input   66.30 | X-H torsion
[ 10763 10752 10751 10750 ] final  166.49 input  -60.55 | X-H torsion
[ 11005 11000 10999 10996 ] final  121.71 input  -57.11 | X-H torsion

> <Gold.Protein.ActiveResidues>
 VAL166  LYS551  ARG553  GLY616  TRP617  ASP618  TYR619  PRO620  LYS621  CYS622 
 ASP623  PHE694  ASN695  SER759  ASP760  ASP761  ALA762  ILE779  LEU786  VAL792 
 PHE793  MET794  SER795  GLU796  ALA797  LYS798  CYS799  TRP800  GLU811  SER814 

> <Gold.Protein.RotatedAtoms>
  151.3731  133.3848  159.2701 H   0  0  0  0  0  0  0  0  0  0  0  0  # atno 6907 bound_to 6896
  150.9635  134.9021  159.7755 H   0  0  0  0  0  0  0  0  0  0  0  0  # atno 6908 bound_to 6896
  152.5158  134.3691  159.9364 H   0  0  0  0  0  0  0  0  0  0  0  0  # atno 6909 bound_to 6896
  144.7656  139.7983  143.6316 H   0  0  0  0  0  0  0  0  0  0  0  0  # atno 7974 bound_to 7965
  156.2679  140.2812  156.1281 H   0  0  0  0  0  0  0  0  0  0  0  0  # atno 8008 bound_to 7997
  155.1083  140.0390  157.2734 H   0  0  0  0  0  0  0  0  0  0  0  0  # atno 8009 bound_to 7997
  154.6762  140.2598  155.6962 H   0  0  0  0  0  0  0  0  0  0  0  0  # atno 8010 bound_to 7997
  139.5156  144.3099  152.0301 H   0  0  0  0  0  0  0  0  0  0  0  0  # atno 10167 bound_to 10162
  157.5725  131.1082  150.8340 H   0  0  0  0  0  0  0  0  0  0  0  0  # atno 10718 bound_to 10713
  154.3397  135.2754  155.2429 H   0  0  0  0  0  0  0  0  0  0  0  0  # atno 10763 bound_to 10752
  154.4704  135.5884  153.6321 H   0  0  0  0  0  0  0  0  0  0  0  0  # atno 10764 bound_to 10752
  152.9858  135.6087  154.3598 H   0  0  0  0  0  0  0  0  0  0  0  0  # atno 10765 bound_to 10752
  139.9237  134.9639  156.7999 H   0  0  0  0  0  0  0  0  0  0  0  0  # atno 11005 bound_to 11000
  146.1760  139.4931  142.9897 LP  0  0  0  0  0  0  0  0  0  0  0  0  # atno 17320 bound_to 7965
  145.6481  141.0269  143.1775 LP  0  0  0  0  0  0  0  0  0  0  0  0  # atno 17321 bound_to 7965
  140.2544  144.4135  150.6209 LP  0  0  0  0  0  0  0  0  0  0  0  0  # atno 17342 bound_to 10162
  140.6202  143.2175  151.6709 LP  0  0  0  0  0  0  0  0  0  0  0  0  # atno 17343 bound_to 10162
  156.8808  130.5178  149.5291 LP  0  0  0  0  0  0  0  0  0  0  0  0  # atno 17370 bound_to 10713
  156.0770  130.5790  150.9492 LP  0  0  0  0  0  0  0  0  0  0  0  0  # atno 17371 bound_to 10713
  140.6398  133.9828  155.7702 LP  0  0  0  0  0  0  0  0  0  0  0  0  # atno 17394 bound_to 11000
  141.0778  134.0108  157.3431 LP  0  0  0  0  0  0  0  0  0  0  0  0  # atno 17395 bound_to 11000

$$$$
