AV-unprocessed.smi:1235|AV-procd|sdf|5178|dock10
  -GOLD-   22720 4253D 1   1.00000     0.00000
 Structure written by MMmdl.
 50 51  0  0  0  0  0  0  0  0  2 V2000
  151.7817  136.9323  156.5219 C   0  0  0  0  0  0  0  0  0  0  0  0
  151.6945  137.0074  155.1098 O   0  0  0  0  0  0  0  0  0  0  0  0
  151.9878  138.3034  154.6166 C   0  0  0  0  0  0  0  0  0  0  0  0
  151.0838  139.3221  155.3274 C   0  0  0  0  0  0  0  0  0  0  0  0
  149.6993  139.2375  154.8513 N   0  0  0  0  0  0  0  0  0  0  0  0
  149.1190  137.9910  155.0190 N   0  0  0  0  0  0  0  0  0  0  0  0
  147.9024  137.7833  154.6306 C   0  0  0  0  0  0  0  0  0  0  0  0
  147.2388  136.4600  154.7960 C   0  0  0  0  0  0  0  0  0  0  0  0
  146.5397  136.2004  155.7770 O   0  0  0  0  0  0  0  0  0  0  0  0
  147.4604  135.5727  153.8090 N   0  0  0  0  0  0  0  0  0  0  0  0
  146.9204  134.2183  153.7659 C   0  0  0  0  0  0  0  0  0  0  0  0
  147.8427  133.2699  152.9703 C   0  0  0  0  0  0  0  0  0  0  0  0
  147.1002  132.2698  152.1491 N   0  3  1  0  0  0  0  0  0  0  0  0
  146.8198  131.0226  152.9192 C   0  0  0  0  0  0  0  0  0  0  0  0
  146.1619  129.9402  152.0523 C   0  0  0  0  0  0  0  0  0  0  0  0
  144.8659  130.4630  151.4355 C   0  0  0  0  0  0  0  0  0  0  0  0
  145.1661  131.7351  150.6406 C   0  0  0  0  0  0  0  0  0  0  0  0
  145.8576  132.8132  151.5050 C   0  0  2  0  0  0  0  0  0  0  0  0
  146.1179  134.0508  150.6200 C   0  0  0  0  0  0  0  0  0  0  0  0
  147.1262  138.8458  154.0137 C   0  0  0  0  0  0  0  0  0  0  0  0
  147.7064  140.0555  153.8554 C   0  0  0  0  0  0  0  0  0  0  0  0
  149.0813  140.3171  154.2838 C   0  0  0  0  0  0  0  0  0  0  0  0
  149.6342  141.4075  154.1432 O   0  0  0  0  0  0  0  0  0  0  0  0
  151.5499  135.9190  156.8497 H   0  0  0  0  0  0  0  0  0  0  0  0
  151.0719  137.6102  156.9980 H   0  0  0  0  0  0  0  0  0  0  0  0
  152.7865  137.1769  156.8694 H   0  0  0  0  0  0  0  0  0  0  0  0
  153.0388  138.5384  154.7926 H   0  0  0  0  0  0  0  0  0  0  0  0
  151.8174  138.3385  153.5391 H   0  0  0  0  0  0  0  0  0  0  0  0
  151.1180  139.1464  156.4041 H   0  0  0  0  0  0  0  0  0  0  0  0
  151.4744  140.3316  155.1864 H   0  0  0  0  0  0  0  0  0  0  0  0
  148.0428  135.8611  153.0353 H   0  0  0  0  0  0  0  0  0  0  0  0
  146.7671  133.8451  154.7799 H   0  0  0  0  0  0  0  0  0  0  0  0
  145.9362  134.2930  153.3067 H   0  0  0  0  0  0  0  0  0  0  0  0
  148.5187  133.8399  152.3309 H   0  0  0  0  0  0  0  0  0  0  0  0
  148.4686  132.7650  153.7010 H   0  0  0  0  0  0  0  0  0  0  0  0
  147.7381  130.6032  153.3249 H   0  0  0  0  0  0  0  0  0  0  0  0
  146.1790  131.2580  153.7705 H   0  0  0  0  0  0  0  0  0  0  0  0
  146.8491  129.6284  151.2645 H   0  0  0  0  0  0  0  0  0  0  0  0
  145.9563  129.0542  152.6538 H   0  0  0  0  0  0  0  0  0  0  0  0
  144.4227  129.7067  150.7869 H   0  0  0  0  0  0  0  0  0  0  0  0
  144.1364  130.6741  152.2185 H   0  0  0  0  0  0  0  0  0  0  0  0
  145.7975  131.4868  149.7859 H   0  0  0  0  0  0  0  0  0  0  0  0
  144.2345  132.1256  150.2291 H   0  0  0  0  0  0  0  0  0  0  0  0
  145.1689  133.1046  152.3000 H   0  0  0  0  0  0  0  0  0  0  0  0
  145.2332  134.3025  150.0341 H   0  0  0  0  0  0  0  0  0  0  0  0
  146.9343  133.8757  149.9189 H   0  0  0  0  0  0  0  0  0  0  0  0
  146.3502  134.9416  151.2023 H   0  0  0  0  0  0  0  0  0  0  0  0
  146.1096  138.6814  153.6870 H   0  0  0  0  0  0  0  0  0  0  0  0
  147.1410  140.8546  153.3988 H   0  0  0  0  0  0  0  0  0  0  0  0
  147.7157  132.0112  151.3912 H   0  0  0  0  0  0  0  0  0  0  0  0
  1  2  1  0  0  0  0
  1 24  1  0  0  0  0
  1 25  1  0  0  0  0
  1 26  1  0  0  0  0
  2  3  1  0  0  0  0
  3  4  1  0  0  0  0
  3 27  1  0  0  0  0
  3 28  1  0  0  0  0
  4  5  1  0  0  0  0
  4 29  1  0  0  0  0
  4 30  1  0  0  0  0
  5 22  1  0  0  0  0
  5  6  1  0  0  0  0
  6  7  2  0  0  0  0
  7  8  1  0  0  0  0
  7 20  1  0  0  0  0
  8  9  2  0  0  0  0
  8 10  1  0  0  0  0
 10 11  1  0  0  0  0
 10 31  1  0  0  0  0
 11 12  1  0  0  0  0
 11 32  1  0  0  0  0
 11 33  1  0  0  0  0
 12 13  1  0  0  0  0
 12 34  1  0  0  0  0
 12 35  1  0  0  0  0
 13 18  1  0  0  0  0
 13 14  1  0  0  0  0
 13 50  1  0  0  0  0
 14 15  1  0  0  0  0
 14 36  1  0  0  0  0
 14 37  1  0  0  0  0
 15 16  1  0  0  0  0
 15 38  1  0  0  0  0
 15 39  1  0  0  0  0
 16 17  1  0  0  0  0
 16 40  1  0  0  0  0
 16 41  1  0  0  0  0
 17 18  1  0  0  0  0
 17 42  1  0  0  0  0
 17 43  1  0  0  0  0
 18 19  1  0  0  0  0
 18 44  1  0  0  0  0
 19 45  1  0  0  0  0
 19 46  1  0  0  0  0
 19 47  1  0  0  0  0
 20 21  2  0  0  0  0
 20 48  1  0  0  0  0
 21 22  1  0  0  0  0
 21 49  1  0  0  0  0
 22 23  2  0  0  0  0
M  CHG  1  13   1
M  END
> <s_m_source_file>
AV-unprocessed.smi

> <i_m_source_file_index>
1235

> <i_lp_mmshare_version>
43012

> <i_f3d_flags>
0

> <s_epik_input>
W0NIM11PW0NIMl1bQ0gyXW4xbmMoW2NIXVtjSF1jMT1PKUMoPU8pW05IXVtDSDJdW0NIMl1OMltDSDJdW0NIMl1bQ0gyXVtDSDJdW0NASF0yW0NIM10=

> <s_epik_cmdline>
J2VwaWtfcHl0aG9uJywgJy1waCcsICc3LjAnLCAnLXRuJywgJzgnLCAnLW1hJywgJzIwMCcsICctbWV0YWxfYmluZGluZycsICctaW1hZScsICc8aW5maWxlLm1hZT4nLCAnLW9tYWUnLCAnPG91dGZpbGUubWFlPic=

> <r_lp_tautomer_probability>
1

> <r_epik_Ionization_Penalty>
0.00271975

> <r_epik_Ionization_Penalty_Charging>
0.00271407

> <r_epik_Ionization_Penalty_Neutral>
5.6803e-06

> <r_epik_State_Penalty>
0.00189271

> <r_epik_Charging_Adjusted_Penalty>
0.00460678

> <i_epik_Tot_Q>
1

> <i_epik_Tot_abs_Q>
1

> <r_epik_Metal_State_Penalty>
-0

> <b_epik_Metal_Only>
0

> <s_lp_Force_Field>
OPLS_2005

> <r_lp_Energy>
40.1633

> <b_lp_Chiralities_Consistent>
1

> <s_lp_Variant>
AV-unprocessed.smi:1235-4

> <Gold.Version>
5.8.1

> <Gold.Id.Protein>
6NUR|6NUR_protein|mol2

> <Gold.PLP.Fitness>
45.3231

> <Gold.PLP.PLP>
-38.1991

> <Gold.PLP.part.hbond>
-5.0000

> <Gold.PLP.part.metal>
0.0000

> <Gold.PLP.part.buried>
-4.9032

> <Gold.PLP.part.nonpolar>
-29.3372

> <Gold.PLP.part.repulsive>
0.4367

> <Gold.PLP.ligand.clash>
0.0000

> <Gold.PLP.ligand.torsion>
2.2772

> <Gold.PLP.Chemscore.Hbond>
3.8444

> <Gold.PLP.Chemscore.CHOScore>
0.0000

> <Gold.PLP.Chemscore.Metal>
0.0000

> <Gold.Chemscore.Hbonds>
donor molecule, donor type, donor heavy atom, donor atom, acceptor molecule, acceptor atom, score
      L1  H    10    31       P1  7948  0.98
      L1  H    13    50       P1 10747  0.98
      P1  H  7989  7998       L1    23  0.23
      P1  H  8011  8017       L1    23  0.59
      P1  H 10752 10765       L1     2  1.00

> <Gold.PLP.Chemscore.Internal.Correction>
0.1452

> <Gold.Rescore>
     Score         DG    S(hbond)    S(metal)    S(lipo)     H(rot)  DE(clash)    DE(int)     intcor
     18.81     -22.55       3.50        0.00      89.91       2.00       0.26       3.48       ----

> <Gold.Chemscore.Fitness>
18.8147

> <Gold.Chemscore.DG>
-22.5522

> <Gold.Chemscore.ZeroCoef>
-5.4800

> <Gold.Chemscore.Hbond>
3.4963

> <Gold.Chemscore.Metal>
0.0000

> <Gold.Chemscore.Lipo>
89.9131

> <Gold.Chemscore.Internal_Hbond>
0.0000

> <Gold.Chemscore.DEClash>
0.2566

> <Gold.Chemscore.DEInternal>
3.4809

> <Gold.Chemscore.Rot>
2.0020

> <Gold.Chemscore.Internal.Correction>
   9.000000E+99

> <Gold.Chemscore.Hbonds>
donor molecule, donor type, donor heavy atom, donor atom, acceptor molecule, acceptor atom, score
      L1  H    10    31       P1  7948  0.92
      L1  H    13    50       P1 10747  0.91
      P1  H  7989  7998       L1    23  0.10
      P1  H  8011  8017       L1    23  0.56
      P1  H 10752 10765       L1     2  0.37

> <Gold.Chemscore.Hbond.Weighted>
-11.6776

> <Gold.Chemscore.Metal.Weighted>
-0.0000

> <Gold.Chemscore.Lipo.Weighted>
-10.5198

> <Gold.Chemscore.Internal_Hbond.Weighted>
0.0000

> <Gold.Chemscore.DEClash.Weighted>
0.2566

> <Gold.Chemscore.DEInternal.Weighted>
3.4809

> <Gold.Chemscore.Rot.Weighted>
5.1252

> <Gold.Chemscore.Internal.Correction.Weighted>
   9.000000E+99

> <Gold.Protein.RotatedTorsions>
[ 6907 6896 6895 6894 ] final  115.84 input  -60.11 | X-H torsion
[ 7974 7965 7964 7962 ] final  140.67 input  175.53 | X-H torsion
[ 8008 7997 7996 7995 ] final -119.12 input   59.86 | X-H torsion
[ 10167 10162 10161 10158 ] final  -81.37 input  -65.29 | X-H torsion
[ 10718 10713 10712 10709 ] final -115.48 input   66.30 | X-H torsion
[ 10763 10752 10751 10750 ] final  172.36 input  -60.55 | X-H torsion
[ 11005 11000 10999 10996 ] final  165.63 input  -57.11 | X-H torsion

> <Gold.Protein.ActiveResidues>
 VAL166  LYS551  ARG553  GLY616  TRP617  ASP618  TYR619  PRO620  LYS621  CYS622 
 ASP623  PHE694  ASN695  SER759  ASP760  ASP761  ALA762  ILE779  LEU786  VAL792 
 PHE793  MET794  SER795  GLU796  ALA797  LYS798  CYS799  TRP800  GLU811  SER814 

> <Gold.Protein.RotatedAtoms>
  152.4716  133.8042  159.6968 H   0  0  0  0  0  0  0  0  0  0  0  0  # atno 6907 bound_to 6896
  150.8708  133.7498  159.2968 H   0  0  0  0  0  0  0  0  0  0  0  0  # atno 6908 bound_to 6896
  151.5034  135.1066  159.9887 H   0  0  0  0  0  0  0  0  0  0  0  0  # atno 6909 bound_to 6896
  144.9166  139.5223  143.5683 H   0  0  0  0  0  0  0  0  0  0  0  0  # atno 7974 bound_to 7965
  155.1106  140.0397  157.2723 H   0  0  0  0  0  0  0  0  0  0  0  0  # atno 8008 bound_to 7997
  154.6688  140.2607  155.7003 H   0  0  0  0  0  0  0  0  0  0  0  0  # atno 8009 bound_to 7997
  156.2650  140.2802  156.1189 H   0  0  0  0  0  0  0  0  0  0  0  0  # atno 8010 bound_to 7997
  140.4418  143.2512  151.8614 H   0  0  0  0  0  0  0  0  0  0  0  0  # atno 10167 bound_to 10162
  156.0899  130.6083  150.8912 H   0  0  0  0  0  0  0  0  0  0  0  0  # atno 10718 bound_to 10713
  154.4250  135.2758  155.1950 H   0  0  0  0  0  0  0  0  0  0  0  0  # atno 10763 bound_to 10752
  154.3880  135.6072  153.5831 H   0  0  0  0  0  0  0  0  0  0  0  0  # atno 10764 bound_to 10752
  152.9834  135.5896  154.4552 H   0  0  0  0  0  0  0  0  0  0  0  0  # atno 10765 bound_to 10752
  140.2581  134.7924  157.3564 H   0  0  0  0  0  0  0  0  0  0  0  0  # atno 11005 bound_to 11000
  146.3185  139.8013  142.8965 LP  0  0  0  0  0  0  0  0  0  0  0  0  # atno 17320 bound_to 7965
  145.3366  141.0278  143.3416 LP  0  0  0  0  0  0  0  0  0  0  0  0  # atno 17321 bound_to 7965
  139.4790  144.5220  151.8788 LP  0  0  0  0  0  0  0  0  0  0  0  0  # atno 17342 bound_to 10162
  140.4309  144.2117  150.5888 LP  0  0  0  0  0  0  0  0  0  0  0  0  # atno 17343 bound_to 10162
  157.6044  131.0939  150.8904 LP  0  0  0  0  0  0  0  0  0  0  0  0  # atno 17370 bound_to 10713
  156.9055  130.5262  149.5281 LP  0  0  0  0  0  0  0  0  0  0  0  0  # atno 17371 bound_to 10713
  140.1492  134.4872  155.7974 LP  0  0  0  0  0  0  0  0  0  0  0  0  # atno 17394 bound_to 11000
  141.2193  133.6855  156.7347 LP  0  0  0  0  0  0  0  0  0  0  0  0  # atno 17395 bound_to 11000

$$$$
