AV-unprocessed.smi:1453|AV-procd|sdf|5911|dock6
  -GOLD-   22720 5593D 1   1.00000     0.00000
 Structure written by MMmdl.
 43 44  0  0  0  0  0  0  0  0  1 V2000
  149.3350  134.4859  154.6814 C   0  0  0  0  0  0  0  0  0  0  0  0
  149.2533  135.7365  155.5710 C   0  0  2  0  0  0  0  0  0  0  0  0
  150.5701  136.5235  155.5600 C   0  0  0  0  0  0  0  0  0  0  0  0
  151.6287  135.9736  155.8649 O   0  0  0  0  0  0  0  0  0  0  0  0
  150.4913  137.8166  155.2080 N   0  0  0  0  0  0  0  0  0  0  0  0
  151.6214  138.7380  155.1674 C   0  0  0  0  0  0  0  0  0  0  0  0
  151.5340  139.8310  156.2187 C   0  0  0  0  0  0  0  0  0  0  0  0
  151.9148  139.5920  157.5540 C   0  0  0  0  0  0  0  0  0  0  0  0
  151.8246  140.6411  158.4881 C   0  0  0  0  0  0  0  0  0  0  0  0
  151.3510  141.9056  158.0631 C   0  0  0  0  0  0  0  0  0  0  0  0
  151.2574  142.9744  158.9812 N   0  0  0  0  0  0  0  0  0  0  0  0
  152.4853  143.2967  159.7043 C   0  0  0  0  0  0  0  0  0  0  0  0
  152.1850  144.2523  160.8721 C   0  0  0  0  0  0  0  0  0  0  0  0
  151.5086  145.4080  160.3889 O   0  0  0  0  0  0  0  0  0  0  0  0
  150.2605  145.0782  159.7886 C   0  0  0  0  0  0  0  0  0  0  0  0
  150.4952  144.1560  158.5805 C   0  0  0  0  0  0  0  0  0  0  0  0
  150.9721  142.1252  156.7793 N   0  0  0  0  0  0  0  0  0  0  0  0
  151.0636  141.1171  155.8868 C   0  0  0  0  0  0  0  0  0  0  0  0
  148.8144  135.2474  157.3054 S   0  0  0  0  0  0  0  0  0  0  0  0
  148.8286  133.4065  157.2384 C   0  0  0  0  0  0  0  0  0  0  0  0
  149.9076  135.6825  158.1880 O   0  0  0  0  0  0  0  0  0  0  0  0
  147.4394  135.6830  157.5949 O   0  0  0  0  0  0  0  0  0  0  0  0
  149.6037  134.7451  153.6566 H   0  0  0  0  0  0  0  0  0  0  0  0
  148.3748  133.9707  154.6481 H   0  0  0  0  0  0  0  0  0  0  0  0
  150.0755  133.7763  155.0533 H   0  0  0  0  0  0  0  0  0  0  0  0
  148.4471  136.3739  155.2057 H   0  0  0  0  0  0  0  0  0  0  0  0
  149.5868  138.1918  154.9622 H   0  0  0  0  0  0  0  0  0  0  0  0
  152.5593  138.1886  155.2661 H   0  0  0  0  0  0  0  0  0  0  0  0
  151.6431  139.2083  154.1841 H   0  0  0  0  0  0  0  0  0  0  0  0
  152.2732  138.6202  157.8604 H   0  0  0  0  0  0  0  0  0  0  0  0
  152.1042  140.4605  159.5152 H   0  0  0  0  0  0  0  0  0  0  0  0
  152.9716  142.4041  160.0948 H   0  0  0  0  0  0  0  0  0  0  0  0
  153.1881  143.7634  159.0127 H   0  0  0  0  0  0  0  0  0  0  0  0
  151.5820  143.7561  161.6345 H   0  0  0  0  0  0  0  0  0  0  0  0
  153.1136  144.5606  161.3525 H   0  0  0  0  0  0  0  0  0  0  0  0
  149.6065  144.6016  160.5208 H   0  0  0  0  0  0  0  0  0  0  0  0
  149.7662  145.9960  159.4696 H   0  0  0  0  0  0  0  0  0  0  0  0
  151.0419  144.6916  157.8029 H   0  0  0  0  0  0  0  0  0  0  0  0
  149.5329  143.8611  158.1599 H   0  0  0  0  0  0  0  0  0  0  0  0
  150.7566  141.3487  154.8774 H   0  0  0  0  0  0  0  0  0  0  0  0
  148.6923  133.0095  158.2440 H   0  0  0  0  0  0  0  0  0  0  0  0
  149.7814  133.0596  156.8394 H   0  0  0  0  0  0  0  0  0  0  0  0
  148.0140  133.0545  156.6067 H   0  0  0  0  0  0  0  0  0  0  0  0
  1  2  1  0  0  0  0
  1 23  1  0  0  0  0
  1 24  1  0  0  0  0
  1 25  1  0  0  0  0
  2  3  1  0  0  0  0
  2 19  1  0  0  0  0
  2 26  1  0  0  0  0
  3  4  2  0  0  0  0
  3  5  1  0  0  0  0
  5  6  1  0  0  0  0
  5 27  1  0  0  0  0
  6  7  1  0  0  0  0
  6 28  1  0  0  0  0
  6 29  1  0  0  0  0
  7 18  1  0  0  0  0
  7  8  2  0  0  0  0
  8  9  1  0  0  0  0
  8 30  1  0  0  0  0
  9 10  2  0  0  0  0
  9 31  1  0  0  0  0
 10 11  1  0  0  0  0
 10 17  1  0  0  0  0
 11 16  1  0  0  0  0
 11 12  1  0  0  0  0
 12 13  1  0  0  0  0
 12 32  1  0  0  0  0
 12 33  1  0  0  0  0
 13 14  1  0  0  0  0
 13 34  1  0  0  0  0
 13 35  1  0  0  0  0
 14 15  1  0  0  0  0
 15 16  1  0  0  0  0
 15 36  1  0  0  0  0
 15 37  1  0  0  0  0
 16 38  1  0  0  0  0
 16 39  1  0  0  0  0
 17 18  2  0  0  0  0
 18 40  1  0  0  0  0
 19 20  1  0  0  0  0
 19 21  2  0  0  0  0
 19 22  2  0  0  0  0
 20 41  1  0  0  0  0
 20 42  1  0  0  0  0
 20 43  1  0  0  0  0
M  END
> <s_m_source_file>
AV-unprocessed.smi

> <i_m_source_file_index>
1453

> <i_lp_mmshare_version>
43012

> <i_f3d_flags>
0

> <s_epik_input>
W0NIM11TKD1PKSg9TylbQ0BIXShbQ0gzXSlDKD1PKVtOSF1bQ0gyXWMxW2NIXVtjSF1jKG5bY0hdMSlOMltDSDJdW0NIMl1PW0NIMl1bQ0gyXTI=

> <s_epik_cmdline>
J2VwaWtfcHl0aG9uJywgJy1waCcsICc3LjAnLCAnLXRuJywgJzgnLCAnLW1hJywgJzIwMCcsICctbWV0YWxfYmluZGluZycsICctaW1hZScsICc8aW5maWxlLm1hZT4nLCAnLW9tYWUnLCAnPG91dGZpbGUubWFlPic=

> <r_lp_tautomer_probability>
1

> <r_epik_Ionization_Penalty>
0.00349781

> <r_epik_Ionization_Penalty_Charging>
0

> <r_epik_Ionization_Penalty_Neutral>
0.00349781

> <r_epik_State_Penalty>
0.00248024

> <r_epik_Charging_Adjusted_Penalty>
0.00248024

> <i_epik_Tot_Q>
0

> <i_epik_Tot_abs_Q>
0

> <r_epik_Metal_State_Penalty>
-0

> <b_epik_Metal_Only>
0

> <s_lp_Force_Field>
OPLS_2005

> <r_lp_Energy>
14.1024

> <b_lp_Chiralities_Consistent>
1

> <s_lp_Variant>
AV-unprocessed.smi:1453-1

> <Gold.Version>
5.8.1

> <Gold.Id.Protein>
6NUR|6NUR_protein|mol2

> <Gold.PLP.Fitness>
40.0417

> <Gold.PLP.PLP>
-35.7284

> <Gold.PLP.part.hbond>
-2.0000

> <Gold.PLP.part.metal>
0.0000

> <Gold.PLP.part.buried>
-7.0598

> <Gold.PLP.part.nonpolar>
-27.3195

> <Gold.PLP.part.repulsive>
0.4002

> <Gold.PLP.ligand.clash>
0.0000

> <Gold.PLP.ligand.torsion>
0.6720

> <Gold.PLP.Chemscore.Hbond>
1.7200

> <Gold.PLP.Chemscore.CHOScore>
0.0000

> <Gold.PLP.Chemscore.Metal>
0.0000

> <Gold.Chemscore.Hbonds>
donor molecule, donor type, donor heavy atom, donor atom, acceptor molecule, acceptor atom, score
      P1  H  6896  6909       L1    21  0.78
      P1  H 10752 10765       L1     4  1.00

> <Gold.PLP.Chemscore.Internal.Correction>
0.4973

> <Gold.Rescore>
     Score         DG    S(hbond)    S(metal)    S(lipo)     H(rot)  DE(clash)    DE(int)     intcor
     14.59     -16.64       1.93        0.00      85.59       2.08       0.12       1.93       ----

> <Gold.Chemscore.Fitness>
14.5877

> <Gold.Chemscore.DG>
-16.6410

> <Gold.Chemscore.ZeroCoef>
-5.4800

> <Gold.Chemscore.Hbond>
1.9348

> <Gold.Chemscore.Metal>
0.0000

> <Gold.Chemscore.Lipo>
85.5927

> <Gold.Chemscore.Internal_Hbond>
0.0000

> <Gold.Chemscore.DEClash>
0.1185

> <Gold.Chemscore.DEInternal>
1.9348

> <Gold.Chemscore.Rot>
2.0764

> <Gold.Chemscore.Internal.Correction>
   9.000000E+99

> <Gold.Chemscore.Hbonds>
donor molecule, donor type, donor heavy atom, donor atom, acceptor molecule, acceptor atom, score
      P1  H  6896  6909       L1    21  0.72
      P1  H 10752 10765       L1     4  1.00

> <Gold.Chemscore.Hbond.Weighted>
-6.4622

> <Gold.Chemscore.Metal.Weighted>
-0.0000

> <Gold.Chemscore.Lipo.Weighted>
-10.0143

> <Gold.Chemscore.Internal_Hbond.Weighted>
0.0000

> <Gold.Chemscore.DEClash.Weighted>
0.1185

> <Gold.Chemscore.DEInternal.Weighted>
1.9348

> <Gold.Chemscore.Rot.Weighted>
5.3155

> <Gold.Chemscore.Internal.Correction.Weighted>
   9.000000E+99

> <Gold.Protein.RotatedTorsions>
[ 6907 6896 6895 6894 ] final   32.08 input  -60.11 | X-H torsion
[ 7974 7965 7964 7962 ] final   15.12 input  175.53 | X-H torsion
[ 8008 7997 7996 7995 ] final  174.93 input   59.86 | X-H torsion
[ 10167 10162 10161 10158 ] final  -74.81 input  -65.29 | X-H torsion
[ 10718 10713 10712 10709 ] final -123.36 input   66.30 | X-H torsion
[ 10763 10752 10751 10750 ] final -162.66 input  -60.55 | X-H torsion
[ 11005 11000 10999 10996 ] final  -17.54 input  -57.11 | X-H torsion

> <Gold.Protein.ActiveResidues>
 VAL166  LYS551  ARG553  GLY616  TRP617  ASP618  TYR619  PRO620  LYS621  CYS622 
 ASP623  PHE694  ASN695  SER759  ASP760  ASP761  ALA762  ILE779  LEU786  VAL792 
 PHE793  MET794  SER795  GLU796  ALA797  LYS798  CYS799  TRP800  GLU811  SER814 

> <Gold.Protein.RotatedAtoms>
  152.0694  134.9543  160.0574 H   0  0  0  0  0  0  0  0  0  0  0  0  # atno 6907 bound_to 6896
  152.0875  133.4179  159.4537 H   0  0  0  0  0  0  0  0  0  0  0  0  # atno 6908 bound_to 6896
  150.6836  134.2830  159.4678 H   0  0  0  0  0  0  0  0  0  0  0  0  # atno 6909 bound_to 6896
  146.2287  139.8940  142.8550 H   0  0  0  0  0  0  0  0  0  0  0  0  # atno 7974 bound_to 7965
  156.0923  140.1422  156.9576 H   0  0  0  0  0  0  0  0  0  0  0  0  # atno 8008 bound_to 7997
  154.4650  140.0929  156.7042 H   0  0  0  0  0  0  0  0  0  0  0  0  # atno 8009 bound_to 7997
  155.4899  140.3447  155.4355 H   0  0  0  0  0  0  0  0  0  0  0  0  # atno 8010 bound_to 7997
  140.4996  143.2364  151.7774 H   0  0  0  0  0  0  0  0  0  0  0  0  # atno 10167 bound_to 10162
  156.1495  130.6524  150.9892 H   0  0  0  0  0  0  0  0  0  0  0  0  # atno 10718 bound_to 10713
  154.7194  135.3022  154.9071 H   0  0  0  0  0  0  0  0  0  0  0  0  # atno 10763 bound_to 10752
  153.9948  135.6714  153.4760 H   0  0  0  0  0  0  0  0  0  0  0  0  # atno 10764 bound_to 10752
  153.0821  135.5003  154.8441 H   0  0  0  0  0  0  0  0  0  0  0  0  # atno 10765 bound_to 10752
  140.8179  133.8091  155.9629 H   0  0  0  0  0  0  0  0  0  0  0  0  # atno 11005 bound_to 11000
  145.2389  141.0002  143.3947 LP  0  0  0  0  0  0  0  0  0  0  0  0  # atno 17320 bound_to 7965
  144.9468  139.4127  143.6422 LP  0  0  0  0  0  0  0  0  0  0  0  0  # atno 17321 bound_to 7965
  139.4869  144.4540  151.9620 LP  0  0  0  0  0  0  0  0  0  0  0  0  # atno 17342 bound_to 10162
  140.3629  144.2951  150.5931 LP  0  0  0  0  0  0  0  0  0  0  0  0  # atno 17343 bound_to 10162
  157.6645  131.0874  150.7761 LP  0  0  0  0  0  0  0  0  0  0  0  0  # atno 17370 bound_to 10713
  156.7830  130.4865  149.5398 LP  0  0  0  0  0  0  0  0  0  0  0  0  # atno 17371 bound_to 10713
  140.9130  134.2237  157.4974 LP  0  0  0  0  0  0  0  0  0  0  0  0  # atno 17394 bound_to 11000
  139.8710  134.9758  156.4899 LP  0  0  0  0  0  0  0  0  0  0  0  0  # atno 17395 bound_to 11000

$$$$
