AV-unprocessed.smi:113|AV-procd|sdf|1094|dock5
  -GOLD-   2262018203D 1   1.00000     0.00000
 Structure written by MMmdl.
 52 55  0  0  0  0  0  0  0  0  1 V2000
  154.4015  139.9101  160.2321 C   0  0  0  0  0  0  0  0  0  0  0  0
  153.4348  140.9613  159.7275 C   0  0  0  0  0  0  0  0  0  0  0  0
  152.7569  140.7893  158.5075 C   0  0  0  0  0  0  0  0  0  0  0  0
  151.8676  141.7971  158.0685 C   0  0  0  0  0  0  0  0  0  0  0  0
  151.1039  141.6600  156.7463 C   0  0  0  0  0  0  0  0  0  0  0  0
  150.5894  140.3376  156.4203 N   0  0  0  0  0  0  0  0  0  0  0  0
  151.2715  139.5878  155.4304 C   0  0  0  0  0  0  0  0  0  0  0  0
  152.2855  140.0201  154.8781 O   0  0  0  0  0  0  0  0  0  0  0  0
  150.6696  138.2919  155.1055 C   0  0  0  0  0  0  0  0  0  0  0  0
  151.3417  137.4349  154.0445 C   0  0  0  0  0  0  0  0  0  0  0  0
  149.5391  137.8977  155.7393 C   0  0  0  0  0  0  0  0  0  0  0  0
  148.8971  138.6511  156.7071 N   0  0  0  0  0  0  0  0  0  0  0  0
  147.6202  138.1662  157.3472 C   0  0  1  0  0  0  0  0  0  0  0  0
  147.1448  136.8743  156.6963 C   0  0  0  0  0  0  0  0  0  0  0  0
  146.3597  136.2399  157.8277 C   0  0  2  0  0  0  0  0  0  0  0  0
  145.0034  136.6375  157.7659 O   0  0  0  0  0  0  0  0  0  0  0  0
  147.0232  136.7968  159.1040 C   0  0  1  0  0  0  0  0  0  0  0  0
  147.9118  135.7748  159.8308 C   0  0  0  0  0  0  0  0  0  0  0  0
  148.5139  136.3633  160.9640 O   0  0  0  0  0  0  0  0  0  0  0  0
  147.8638  137.8715  158.6849 O   0  0  0  0  0  0  0  0  0  0  0  0
  149.4024  139.9176  157.0613 C   0  0  0  0  0  0  0  0  0  0  0  0
  148.8149  140.6309  157.8783 O   0  0  0  0  0  0  0  0  0  0  0  0
  151.7052  142.9446  158.8907 C   0  0  0  0  0  0  0  0  0  0  0  0
  150.8372  144.0011  158.5227 C   0  0  0  0  0  0  0  0  0  0  0  0
  150.6912  145.1288  159.3498 C   0  0  0  0  0  0  0  0  0  0  0  0
  151.4098  145.2123  160.5535 C   0  0  0  0  0  0  0  0  0  0  0  0
  152.2742  144.1674  160.9264 C   0  0  0  0  0  0  0  0  0  0  0  0
  152.4378  143.0267  160.1117 C   0  0  0  0  0  0  0  0  0  0  0  0
  153.2810  142.0482  160.5083 N   0  0  0  0  0  0  0  0  0  0  0  0
  154.2635  138.9642  159.7073 H   0  0  0  0  0  0  0  0  0  0  0  0
  154.2541  139.7291  161.2974 H   0  0  0  0  0  0  0  0  0  0  0  0
  155.4294  140.2396  160.0787 H   0  0  0  0  0  0  0  0  0  0  0  0
  152.9285  139.8944  157.9288 H   0  0  0  0  0  0  0  0  0  0  0  0
  150.2599  142.3510  156.7249 H   0  0  0  0  0  0  0  0  0  0  0  0
  151.7338  141.9777  155.9137 H   0  0  0  0  0  0  0  0  0  0  0  0
  150.8100  136.4967  153.8836 H   0  0  0  0  0  0  0  0  0  0  0  0
  152.3628  137.1924  154.3415 H   0  0  0  0  0  0  0  0  0  0  0  0
  151.3781  137.9650  153.0921 H   0  0  0  0  0  0  0  0  0  0  0  0
  149.1111  136.9445  155.4634 H   0  0  0  0  0  0  0  0  0  0  0  0
  146.8893  138.9753  157.2998 H   0  0  0  0  0  0  0  0  0  0  0  0
  146.5707  137.0672  155.7890 H   0  0  0  0  0  0  0  0  0  0  0  0
  148.0083  136.2552  156.4478 H   0  0  0  0  0  0  0  0  0  0  0  0
  146.3966  135.1513  157.7744 H   0  0  0  0  0  0  0  0  0  0  0  0
  144.5782  136.3907  158.5729 H   0  0  0  0  0  0  0  0  0  0  0  0
  146.2785  137.1922  159.7974 H   0  0  0  0  0  0  0  0  0  0  0  0
  147.3356  134.8991  160.1315 H   0  0  0  0  0  0  0  0  0  0  0  0
  148.7041  135.4277  159.1668 H   0  0  0  0  0  0  0  0  0  0  0  0
  148.1472  135.9679  161.7400 H   0  0  0  0  0  0  0  0  0  0  0  0
  150.2704  143.9689  157.6049 H   0  0  0  0  0  0  0  0  0  0  0  0
  150.0272  145.9298  159.0595 H   0  0  0  0  0  0  0  0  0  0  0  0
  151.2994  146.0770  161.1912 H   0  0  0  0  0  0  0  0  0  0  0  0
  152.8222  144.2434  161.8542 H   0  0  0  0  0  0  0  0  0  0  0  0
  1  2  1  0  0  0  0
  1 30  1  0  0  0  0
  1 31  1  0  0  0  0
  1 32  1  0  0  0  0
  2 29  1  0  0  0  0
  2  3  2  0  0  0  0
  3  4  1  0  0  0  0
  3 33  1  0  0  0  0
  4  5  1  0  0  0  0
  4 23  2  0  0  0  0
  5  6  1  0  0  0  0
  5 34  1  0  0  0  0
  5 35  1  0  0  0  0
  6 21  1  0  0  0  0
  6  7  1  0  0  0  0
  7  8  2  0  0  0  0
  7  9  1  0  0  0  0
  9 10  1  0  0  0  0
  9 11  2  0  0  0  0
 10 36  1  0  0  0  0
 10 37  1  0  0  0  0
 10 38  1  0  0  0  0
 11 12  1  0  0  0  0
 11 39  1  0  0  0  0
 12 13  1  0  0  0  0
 12 21  1  0  0  0  0
 13 20  1  0  0  0  0
 13 14  1  0  0  0  0
 13 40  1  0  0  0  0
 14 15  1  0  0  0  0
 14 41  1  0  0  0  0
 14 42  1  0  0  0  0
 15 16  1  0  0  0  0
 15 17  1  0  0  0  0
 15 43  1  0  0  0  0
 16 44  1  0  0  0  0
 17 18  1  0  0  0  0
 17 20  1  0  0  0  0
 17 45  1  0  0  0  0
 18 19  1  0  0  0  0
 18 46  1  0  0  0  0
 18 47  1  0  0  0  0
 19 48  1  0  0  0  0
 21 22  2  0  0  0  0
 23 28  1  0  0  0  0
 23 24  1  0  0  0  0
 24 25  2  0  0  0  0
 24 49  1  0  0  0  0
 25 26  1  0  0  0  0
 25 50  1  0  0  0  0
 26 27  2  0  0  0  0
 26 51  1  0  0  0  0
 27 28  1  0  0  0  0
 27 52  1  0  0  0  0
 28 29  2  0  0  0  0
M  END
> <s_m_source_file>
AV-unprocessed.smi

> <i_m_source_file_index>
113

> <i_lp_mmshare_version>
43012

> <i_f3d_flags>
0

> <s_epik_input>
W2NIXTFbY0hdW2NIXVtjSF1jKGMxMiluYyhbQ0gzXSlbY0hdYzJbQ0gyXW4zYyg9TyljKFtDSDNdKVtjSF1uKGMzPU8pW0NAQEhdNFtDSDJdW0NAQEhdKFtPSF0pW0NASF0oTzQpW0NIMl1bT0hd

> <s_epik_cmdline>
J2VwaWtfcHl0aG9uJywgJy1waCcsICc3LjAnLCAnLXRuJywgJzgnLCAnLW1hJywgJzIwMCcsICctbWV0YWxfYmluZGluZycsICctaW1hZScsICc8aW5maWxlLm1hZT4nLCAnLW9tYWUnLCAnPG91dGZpbGUubWFlPic=

> <r_lp_tautomer_probability>
1

> <r_epik_Ionization_Penalty>
0.214728

> <r_epik_Ionization_Penalty_Charging>
3.04883e-08

> <r_epik_Ionization_Penalty_Neutral>
0.214728

> <r_epik_State_Penalty>
0.204913

> <r_epik_Charging_Adjusted_Penalty>
0.204913

> <i_epik_Tot_Q>
0

> <i_epik_Tot_abs_Q>
0

> <r_epik_Metal_State_Penalty>
0.000244761

> <b_epik_Metal_Only>
0

> <s_epik_Chemistry_Notes>
This compound contains an acetal/aminal-like group ( X-CH(R)-Y where X, Y are N, S, or O) that may be acid/base labile, releasing an aldehyde.

> <s_lp_Force_Field>
OPLS_2005

> <r_lp_Energy>
39.8803

> <b_lp_Chiralities_Consistent>
1

> <s_lp_Variant>
AV-unprocessed.smi:113-4

> <Gold.Version>
5.8.1

> <Gold.Id.Protein>
6NUR|6NUR_protein|mol2

> <Gold.PLP.Fitness>
52.9115

> <Gold.PLP.PLP>
-46.1158

> <Gold.PLP.part.hbond>
-4.0000

> <Gold.PLP.part.metal>
0.0000

> <Gold.PLP.part.buried>
-7.4688

> <Gold.PLP.part.nonpolar>
-36.6322

> <Gold.PLP.part.repulsive>
0.0557

> <Gold.PLP.ligand.clash>
0.0000

> <Gold.PLP.ligand.torsion>
0.6408

> <Gold.PLP.Chemscore.Hbond>
2.6802

> <Gold.PLP.Chemscore.CHOScore>
0.0000

> <Gold.PLP.Chemscore.Metal>
0.0000

> <Gold.Chemscore.Hbonds>
donor molecule, donor type, donor heavy atom, donor atom, acceptor molecule, acceptor atom, score
      P1  H  6931  6943       L1    19  0.53
      P1  H  7989  7998       L1     8  0.67

> <Gold.PLP.Chemscore.Internal.Correction>
0.0368

> <Gold.Rescore>
     Score         DG    S(hbond)    S(metal)    S(lipo)     H(rot)  DE(clash)    DE(int)     intcor
     17.04     -18.82       1.98        0.00     122.03       2.95       0.08       1.69       ----

> <Gold.Chemscore.Fitness>
17.0449

> <Gold.Chemscore.DG>
-18.8220

> <Gold.Chemscore.ZeroCoef>
-5.4800

> <Gold.Chemscore.Hbond>
1.9784

> <Gold.Chemscore.Metal>
0.0000

> <Gold.Chemscore.Lipo>
122.0343

> <Gold.Chemscore.Internal_Hbond>
0.0000

> <Gold.Chemscore.DEClash>
0.0838

> <Gold.Chemscore.DEInternal>
1.6933

> <Gold.Chemscore.Rot>
2.9469

> <Gold.Chemscore.Internal.Correction>
   9.000000E+99

> <Gold.Chemscore.Hbonds>
donor molecule, donor type, donor heavy atom, donor atom, acceptor molecule, acceptor atom, score
      P1  H  6931  6943       L1    19  0.08
      P1  H  7989  7998       L1     8  0.30

> <Gold.Chemscore.Hbond.Weighted>
-6.6080

> <Gold.Chemscore.Metal.Weighted>
-0.0000

> <Gold.Chemscore.Lipo.Weighted>
-14.2780

> <Gold.Chemscore.Internal_Hbond.Weighted>
0.0000

> <Gold.Chemscore.DEClash.Weighted>
0.0838

> <Gold.Chemscore.DEInternal.Weighted>
1.6933

> <Gold.Chemscore.Rot.Weighted>
7.5439

> <Gold.Chemscore.Internal.Correction.Weighted>
   9.000000E+99

> <Gold.Protein.RotatedTorsions>
[ 6907 6896 6895 6894 ] final   76.09 input  -60.11 | X-H torsion
[ 7974 7965 7964 7962 ] final   45.23 input  175.53 | X-H torsion
[ 8008 7997 7996 7995 ] final   47.72 input   59.86 | X-H torsion
[ 10167 10162 10161 10158 ] final   30.22 input  -65.29 | X-H torsion
[ 10718 10713 10712 10709 ] final  142.46 input   66.30 | X-H torsion
[ 10763 10752 10751 10750 ] final -165.01 input  -60.55 | X-H torsion
[ 11005 11000 10999 10996 ] final  -89.03 input  -57.11 | X-H torsion

> <Gold.Protein.ActiveResidues>
 VAL166  LYS551  ARG553  GLY616  TRP617  ASP618  TYR619  PRO620  LYS621  CYS622 
 ASP623  PHE694  ASN695  SER759  ASP760  ASP761  ALA762  ILE779  LEU786  VAL792 
 PHE793  MET794  SER795  GLU796  ALA797  LYS798  CYS799  TRP800  GLU811  SER814 

> <Gold.Protein.RotatedAtoms>
  152.5057  134.4021  159.9419 H   0  0  0  0  0  0  0  0  0  0  0  0  # atno 6907 bound_to 6896
  151.3986  133.3759  159.2737 H   0  0  0  0  0  0  0  0  0  0  0  0  # atno 6908 bound_to 6896
  150.9379  134.8811  159.7652 H   0  0  0  0  0  0  0  0  0  0  0  0  # atno 6909 bound_to 6896
  146.0498  139.4987  142.9725 H   0  0  0  0  0  0  0  0  0  0  0  0  # atno 7974 bound_to 7965
  155.3737  140.3425  155.4244 H   0  0  0  0  0  0  0  0  0  0  0  0  # atno 8008 bound_to 7997
  156.1648  140.1612  156.8583 H   0  0  0  0  0  0  0  0  0  0  0  0  # atno 8009 bound_to 7997
  154.5175  140.0775  156.8090 H   0  0  0  0  0  0  0  0  0  0  0  0  # atno 8010 bound_to 7997
  140.4697  144.0782  150.6234 H   0  0  0  0  0  0  0  0  0  0  0  0  # atno 10167 bound_to 10162
  157.3803  131.0991  151.0745 H   0  0  0  0  0  0  0  0  0  0  0  0  # atno 10718 bound_to 10713
  154.6973  135.2981  154.9392 H   0  0  0  0  0  0  0  0  0  0  0  0  # atno 10763 bound_to 10752
  154.0336  135.6667  153.4787 H   0  0  0  0  0  0  0  0  0  0  0  0  # atno 10764 bound_to 10752
  153.0655  135.5090  154.8098 H   0  0  0  0  0  0  0  0  0  0  0  0  # atno 10765 bound_to 10752
  141.1592  133.7605  156.9536 H   0  0  0  0  0  0  0  0  0  0  0  0  # atno 11005 bound_to 11000
  145.6743  141.0208  143.1641 LP  0  0  0  0  0  0  0  0  0  0  0  0  # atno 17320 bound_to 7965
  144.7117  139.8347  143.7412 LP  0  0  0  0  0  0  0  0  0  0  0  0  # atno 17321 bound_to 7965
  140.3993  143.2712  151.9967 LP  0  0  0  0  0  0  0  0  0  0  0  0  # atno 17342 bound_to 10162
  139.4817  144.6011  151.7603 LP  0  0  0  0  0  0  0  0  0  0  0  0  # atno 17343 bound_to 10162
  157.1816  130.6312  149.5674 LP  0  0  0  0  0  0  0  0  0  0  0  0  # atno 17370 bound_to 10713
  155.9774  130.4751  150.6592 LP  0  0  0  0  0  0  0  0  0  0  0  0  # atno 17371 bound_to 10713
  140.1240  134.9399  157.2244 LP  0  0  0  0  0  0  0  0  0  0  0  0  # atno 17394 bound_to 11000
  140.3036  134.3104  155.7283 LP  0  0  0  0  0  0  0  0  0  0  0  0  # atno 17395 bound_to 11000

$$$$
