AV-unprocessed.smi:3127|AV-procd|sdf|11916|dock5
  -GOLD-   2272017293D 1   1.00000     0.00000
 Structure written by MMmdl.
 33 34  0  0  0  0  0  0  0  0  1 V2000
  149.9523  144.4528  159.6722 C   0  0  0  0  0  0  0  0  0  0  0  0
  151.4728  144.1937  159.7329 C   0  0  0  0  0  0  0  0  0  0  0  0
  152.1715  145.2570  158.8630 C   0  0  0  0  0  0  0  0  0  0  0  0
  151.9217  144.3396  161.2004 C   0  0  0  0  0  0  0  0  0  0  0  0
  151.8122  142.8067  159.2239 C   0  0  0  0  0  0  0  0  0  0  0  0
  152.3259  141.7439  159.9317 C   0  0  0  0  0  0  0  0  0  0  0  0
  152.5662  140.3373  158.9328 S   0  0  0  0  0  0  0  0  0  0  0  0
  151.9345  141.2385  157.5631 C   0  0  0  0  0  0  0  0  0  0  0  0
  151.8434  140.6647  156.1854 C   0  0  2  0  0  0  0  0  0  0  0  0
  150.3850  140.4449  155.7392 C   0  0  0  0  0  0  0  0  0  0  0  0
  150.3484  139.8094  154.4229 N   0  0  0  0  0  0  0  0  0  0  0  0
  151.1215  138.5682  154.4141 C   0  0  0  0  0  0  0  0  0  0  0  0
  152.5599  138.8293  154.8967 C   0  0  0  0  0  0  0  0  0  0  0  0
  152.5298  139.4151  156.1937 O   0  0  0  0  0  0  0  0  0  0  0  0
  151.6062  142.4960  157.8734 N   0  0  0  0  0  0  0  0  0  0  0  0
  149.7053  145.4518  160.0334 H   0  0  0  0  0  0  0  0  0  0  0  0
  149.3999  143.7412  160.2871 H   0  0  0  0  0  0  0  0  0  0  0  0
  149.5729  144.3752  158.6525 H   0  0  0  0  0  0  0  0  0  0  0  0
  151.8662  145.1773  157.8189 H   0  0  0  0  0  0  0  0  0  0  0  0
  153.2568  145.1543  158.8964 H   0  0  0  0  0  0  0  0  0  0  0  0
  151.9321  146.2662  159.1998 H   0  0  0  0  0  0  0  0  0  0  0  0
  151.6719  145.3245  161.5966 H   0  0  0  0  0  0  0  0  0  0  0  0
  152.9997  144.2132  161.3060 H   0  0  0  0  0  0  0  0  0  0  0  0
  151.4404  143.5969  161.8376 H   0  0  0  0  0  0  0  0  0  0  0  0
  152.5827  141.6986  160.9794 H   0  0  0  0  0  0  0  0  0  0  0  0
  152.3469  141.3502  155.5010 H   0  0  0  0  0  0  0  0  0  0  0  0
  149.8676  139.8172  156.4659 H   0  0  0  0  0  0  0  0  0  0  0  0
  149.8529  141.3960  155.7105 H   0  0  0  0  0  0  0  0  0  0  0  0
  149.3858  139.6124  154.1677 H   0  0  0  0  0  0  0  0  0  0  0  0
  150.6470  137.8304  155.0621 H   0  0  0  0  0  0  0  0  0  0  0  0
  151.1344  138.1421  153.4107 H   0  0  0  0  0  0  0  0  0  0  0  0
  153.1146  137.8922  154.9461 H   0  0  0  0  0  0  0  0  0  0  0  0
  153.0938  139.4791  154.2012 H   0  0  0  0  0  0  0  0  0  0  0  0
  1  2  1  0  0  0  0
  1 16  1  0  0  0  0
  1 17  1  0  0  0  0
  1 18  1  0  0  0  0
  2  3  1  0  0  0  0
  2  4  1  0  0  0  0
  2  5  1  0  0  0  0
  3 19  1  0  0  0  0
  3 20  1  0  0  0  0
  3 21  1  0  0  0  0
  4 22  1  0  0  0  0
  4 23  1  0  0  0  0
  4 24  1  0  0  0  0
  5 15  1  0  0  0  0
  5  6  2  0  0  0  0
  6  7  1  0  0  0  0
  6 25  1  0  0  0  0
  7  8  1  0  0  0  0
  8  9  1  0  0  0  0
  8 15  2  0  0  0  0
  9 14  1  0  0  0  0
  9 10  1  0  0  0  0
  9 26  1  0  0  0  0
 10 11  1  0  0  0  0
 10 27  1  0  0  0  0
 10 28  1  0  0  0  0
 11 12  1  0  0  0  0
 11 29  1  0  0  0  0
 12 13  1  0  0  0  0
 12 30  1  0  0  0  0
 12 31  1  0  0  0  0
 13 14  1  0  0  0  0
 13 32  1  0  0  0  0
 13 33  1  0  0  0  0
M  END
> <s_m_source_file>
AV-unprocessed.smi

> <i_m_source_file_index>
3127

> <i_lp_mmshare_version>
43012

> <i_f3d_flags>
0

> <s_epik_input>
W0NIM11DKFtDSDNdKShbQ0gzXSljMVtjSF1zYyhuMSlbQ0BASF0yW0NIMl1bTkhdW0NIMl1bQ0gyXU8y

> <s_epik_cmdline>
J2VwaWtfcHl0aG9uJywgJy1waCcsICc3LjAnLCAnLXRuJywgJzgnLCAnLW1hJywgJzIwMCcsICctbWV0YWxfYmluZGluZycsICctaW1hZScsICc8aW5maWxlLm1hZT4nLCAnLW9tYWUnLCAnPG91dGZpbGUubWFlPic=

> <r_epik_Ionization_Penalty>
0.982256

> <r_epik_Ionization_Penalty_Charging>
0

> <r_epik_Ionization_Penalty_Neutral>
0.982256

> <r_epik_State_Penalty>
2.16535

> <r_epik_Charging_Adjusted_Penalty>
2.16535

> <i_epik_Tot_Q>
0

> <i_epik_Tot_abs_Q>
0

> <r_epik_Metal_State_Penalty>
2.16345

> <b_epik_Metal_Only>
0

> <s_lp_Force_Field>
OPLS_2005

> <r_lp_Energy>
6.45537

> <b_lp_Chiralities_Consistent>
1

> <s_lp_Variant>
AV-unprocessed.smi:3127-3

> <Gold.Version>
5.8.1

> <Gold.Id.Protein>
6NUR|6NUR_protein|mol2

> <Gold.PLP.Fitness>
40.6919

> <Gold.PLP.PLP>
-36.2165

> <Gold.PLP.part.hbond>
-2.0646

> <Gold.PLP.part.metal>
0.0000

> <Gold.PLP.part.buried>
-6.2752

> <Gold.PLP.part.nonpolar>
-27.9427

> <Gold.PLP.part.repulsive>
0.0443

> <Gold.PLP.ligand.clash>
0.0000

> <Gold.PLP.ligand.torsion>
0.3181

> <Gold.PLP.Chemscore.Hbond>
1.7000

> <Gold.PLP.Chemscore.CHOScore>
0.0000

> <Gold.PLP.Chemscore.Metal>
0.0000

> <Gold.Chemscore.Hbonds>
donor molecule, donor type, donor heavy atom, donor atom, acceptor molecule, acceptor atom, score
      P1  H  7989  7998       L1    11  0.85
      P1  H  7997  8009       L1    14  0.85

> <Gold.PLP.Chemscore.Internal.Correction>
0.0116

> <Gold.Rescore>
     Score         DG    S(hbond)    S(metal)    S(lipo)     H(rot)  DE(clash)    DE(int)     intcor
     16.23     -16.71       0.36        0.00     110.12       1.12       0.07       0.42       ----

> <Gold.Chemscore.Fitness>
16.2256

> <Gold.Chemscore.DG>
-16.7105

> <Gold.Chemscore.ZeroCoef>
-5.4800

> <Gold.Chemscore.Hbond>
0.3610

> <Gold.Chemscore.Metal>
0.0000

> <Gold.Chemscore.Lipo>
110.1173

> <Gold.Chemscore.Internal_Hbond>
0.0000

> <Gold.Chemscore.DEClash>
0.0696

> <Gold.Chemscore.DEInternal>
0.4153

> <Gold.Chemscore.Rot>
1.1167

> <Gold.Chemscore.Internal.Correction>
   9.000000E+99

> <Gold.Chemscore.Hbonds>
donor molecule, donor type, donor heavy atom, donor atom, acceptor molecule, acceptor atom, score
      P1  H  7989  7998       L1    11  0.04
      P1  H  7997  8009       L1    14  0.04

> <Gold.Chemscore.Hbond.Weighted>
-1.2056

> <Gold.Chemscore.Metal.Weighted>
-0.0000

> <Gold.Chemscore.Lipo.Weighted>
-12.8837

> <Gold.Chemscore.Internal_Hbond.Weighted>
0.0000

> <Gold.Chemscore.DEClash.Weighted>
0.0696

> <Gold.Chemscore.DEInternal.Weighted>
0.4153

> <Gold.Chemscore.Rot.Weighted>
2.8588

> <Gold.Chemscore.Internal.Correction.Weighted>
   9.000000E+99

> <Gold.Protein.RotatedTorsions>
[ 6907 6896 6895 6894 ] final -120.66 input  -60.11 | X-H torsion
[ 7974 7965 7964 7962 ] final   83.84 input  175.53 | X-H torsion
[ 8008 7997 7996 7995 ] final -161.70 input   59.86 | X-H torsion
[ 10167 10162 10161 10158 ] final   47.35 input  -65.29 | X-H torsion
[ 10718 10713 10712 10709 ] final   71.65 input   66.30 | X-H torsion
[ 10763 10752 10751 10750 ] final   58.60 input  -60.55 | X-H torsion
[ 11005 11000 10999 10996 ] final  101.62 input  -57.11 | X-H torsion

> <Gold.Protein.ActiveResidues>
 VAL166  LYS551  ARG553  GLY616  TRP617  ASP618  TYR619  PRO620  LYS621  CYS622 
 ASP623  PHE694  ASN695  SER759  ASP760  ASP761  ALA762  ILE779  LEU786  VAL792 
 PHE793  MET794  SER795  GLU796  ALA797  LYS798  CYS799  TRP800  GLU811  SER814 

> <Gold.Protein.RotatedAtoms>
  150.8413  133.7931  159.3059 H   0  0  0  0  0  0  0  0  0  0  0  0  # atno 6907 bound_to 6896
  151.5632  135.1063  159.9987 H   0  0  0  0  0  0  0  0  0  0  0  0  # atno 6908 bound_to 6896
  152.4476  133.7524  159.6757 H   0  0  0  0  0  0  0  0  0  0  0  0  # atno 6909 bound_to 6896
  145.6067  139.2361  143.2215 H   0  0  0  0  0  0  0  0  0  0  0  0  # atno 7974 bound_to 7965
  155.7960  140.0885  157.1983 H   0  0  0  0  0  0  0  0  0  0  0  0  # atno 8008 bound_to 7997
  154.3983  140.1481  156.3277 H   0  0  0  0  0  0  0  0  0  0  0  0  # atno 8009 bound_to 7997
  155.8511  140.3434  155.5696 H   0  0  0  0  0  0  0  0  0  0  0  0  # atno 8010 bound_to 7997
  140.3045  144.2894  150.6212 H   0  0  0  0  0  0  0  0  0  0  0  0  # atno 10167 bound_to 10162
  157.6462  130.9539  150.0818 H   0  0  0  0  0  0  0  0  0  0  0  0  # atno 10718 bound_to 10713
  152.9874  135.5601  154.5578 H   0  0  0  0  0  0  0  0  0  0  0  0  # atno 10763 bound_to 10752
  154.5003  135.2797  155.1428 H   0  0  0  0  0  0  0  0  0  0  0  0  # atno 10764 bound_to 10752
  154.2861  135.6335  153.5419 H   0  0  0  0  0  0  0  0  0  0  0  0  # atno 10765 bound_to 10752
  139.8774  134.9191  156.4935 H   0  0  0  0  0  0  0  0  0  0  0  0  # atno 11005 bound_to 11000
  146.1536  140.6890  142.9310 LP  0  0  0  0  0  0  0  0  0  0  0  0  # atno 17320 bound_to 7965
  144.7287  140.4605  143.6954 LP  0  0  0  0  0  0  0  0  0  0  0  0  # atno 17321 bound_to 7965
  140.5622  143.2190  151.7745 LP  0  0  0  0  0  0  0  0  0  0  0  0  # atno 17342 bound_to 10162
  139.4907  144.4333  151.9848 LP  0  0  0  0  0  0  0  0  0  0  0  0  # atno 17343 bound_to 10162
  156.1792  130.3649  149.9058 LP  0  0  0  0  0  0  0  0  0  0  0  0  # atno 17370 bound_to 10713
  156.7015  130.8935  151.3600 LP  0  0  0  0  0  0  0  0  0  0  0  0  # atno 17371 bound_to 10713
  140.8641  133.8037  155.9296 LP  0  0  0  0  0  0  0  0  0  0  0  0  # atno 17394 bound_to 11000
  140.9019  134.2368  157.5036 LP  0  0  0  0  0  0  0  0  0  0  0  0  # atno 17395 bound_to 11000

$$$$
