AV-unprocessed.smi:35|AV-procd|sdf|265|dock2
  -GOLD-   2262016 33D 1   1.00000     0.00000
 Structure written by MMmdl.
 28 29  0  0  0  0  0  0  0  0  2 V2000
  152.5345  140.6291  158.3603 O   0  0  0  0  0  0  0  0  0  0  0  0
  151.8201  140.5312  157.3641 C   0  0  0  0  0  0  0  0  0  0  0  0
  151.7541  139.3974  156.6077 N   0  5  0  0  0  0  0  0  0  0  0  0
  150.9621  139.2940  155.4997 C   0  0  0  0  0  0  0  0  0  0  0  0
  150.8788  138.2663  154.8276 O   0  0  0  0  0  0  0  0  0  0  0  0
  150.1869  140.4181  155.1022 N   0  0  0  0  0  0  0  0  0  0  0  0
  149.3001  140.3211  153.8801 C   0  0  2  0  0  0  0  0  0  0  0  0
  148.6244  141.5354  153.7142 O   0  0  0  0  0  0  0  0  0  0  0  0
  147.2187  141.3186  153.6437 C   0  0  2  0  0  0  0  0  0  0  0  0
  146.4866  142.5448  154.2114 C   0  0  0  0  0  0  0  0  0  0  0  0
  145.1179  142.2595  154.4097 O   0  0  0  0  0  0  0  0  0  0  0  0
  147.0099  140.0218  154.4283 C   0  0  1  0  0  0  0  0  0  0  0  0
  145.8030  139.3583  154.1028 O   0  0  0  0  0  0  0  0  0  0  0  0
  148.2520  139.2140  154.0720 C   0  0  1  0  0  0  0  0  0  0  0  0
  148.0940  138.4592  152.8845 O   0  0  0  0  0  0  0  0  0  0  0  0
  150.2187  141.5756  155.8615 C   0  0  0  0  0  0  0  0  0  0  0  0
  150.9965  141.6670  156.9587 C   0  0  0  0  0  0  0  0  0  0  0  0
  150.9395  143.3826  157.9486 Br  0  0  0  0  0  0  0  0  0  0  0  0
  149.9653  140.1661  153.0292 H   0  0  0  0  0  0  0  0  0  0  0  0
  146.9646  141.1712  152.5923 H   0  0  0  0  0  0  0  0  0  0  0  0
  146.9345  142.8712  155.1503 H   0  0  0  0  0  0  0  0  0  0  0  0
  146.5618  143.3785  153.5129 H   0  0  0  0  0  0  0  0  0  0  0  0
  144.8802  141.5298  153.8582 H   0  0  0  0  0  0  0  0  0  0  0  0
  147.0194  140.2349  155.4981 H   0  0  0  0  0  0  0  0  0  0  0  0
  145.3056  139.9135  153.5217 H   0  0  0  0  0  0  0  0  0  0  0  0
  148.5394  138.5322  154.8737 H   0  0  0  0  0  0  0  0  0  0  0  0
  148.6227  138.8540  152.2084 H   0  0  0  0  0  0  0  0  0  0  0  0
  149.6109  142.4227  155.5828 H   0  0  0  0  0  0  0  0  0  0  0  0
  1  2  2  0  0  0  0
  2 17  1  0  0  0  0
  2  3  1  0  0  0  0
  3  4  1  0  0  0  0
  4  5  2  0  0  0  0
  4  6  1  0  0  0  0
  6  7  1  0  0  0  0
  6 16  1  0  0  0  0
  7 14  1  0  0  0  0
  7  8  1  0  0  0  0
  7 19  1  0  0  0  0
  8  9  1  0  0  0  0
  9 10  1  0  0  0  0
  9 12  1  0  0  0  0
  9 20  1  0  0  0  0
 10 11  1  0  0  0  0
 10 21  1  0  0  0  0
 10 22  1  0  0  0  0
 11 23  1  0  0  0  0
 12 13  1  0  0  0  0
 12 14  1  0  0  0  0
 12 24  1  0  0  0  0
 13 25  1  0  0  0  0
 14 15  1  0  0  0  0
 14 26  1  0  0  0  0
 15 27  1  0  0  0  0
 16 17  2  0  0  0  0
 16 28  1  0  0  0  0
 17 18  1  0  0  0  0
M  CHG  1   3  -1
M  END
> <s_m_source_file>
AV-unprocessed.smi

> <i_m_source_file_index>
35

> <i_lp_mmshare_version>
43012

> <i_f3d_flags>
0

> <s_epik_input>
Tz1jMVtuSF1jKD1PKW4oW2NIXWMxQnIpW0NAQEhdMk9bQ0BASF0oW0NIMl1bT0hdKVtDQEBIXShbT0hdKVtDQEhdMltPSF0=

> <s_epik_cmdline>
J2VwaWtfcHl0aG9uJywgJy1waCcsICc3LjAnLCAnLXRuJywgJzgnLCAnLW1hJywgJzIwMCcsICctbWV0YWxfYmluZGluZycsICctaW1hZScsICc8aW5maWxlLm1hZT4nLCAnLW9tYWUnLCAnPG91dGZpbGUubWFlPic=

> <r_epik_Ionization_Penalty>
1.06112

> <r_epik_Ionization_Penalty_Charging>
2.1796e-09

> <r_epik_Ionization_Penalty_Neutral>
1.06112

> <r_epik_State_Penalty>
1.11484

> <r_epik_Charging_Adjusted_Penalty>
1.11484

> <i_epik_Tot_Q>
-1

> <i_epik_Tot_abs_Q>
1

> <r_epik_Metal_State_Penalty>
0.0032876

> <b_epik_Metal_Only>
0

> <s_epik_Chemistry_Notes>
This compound contains an acetal/aminal-like group ( X-CH(R)-Y where X, Y are N, S, or O) that may be acid/base labile, releasing an aldehyde.

> <s_lp_Force_Field>
OPLS_2005

> <r_lp_Energy>
41.5323

> <b_lp_Chiralities_Consistent>
1

> <s_lp_Variant>
AV-unprocessed.smi:35-19

> <Gold.Version>
5.8.1

> <Gold.Id.Protein>
6NUR|6NUR_protein|mol2

> <Gold.PLP.Fitness>
43.1739

> <Gold.PLP.PLP>
-29.4342

> <Gold.PLP.part.hbond>
-5.0080

> <Gold.PLP.part.metal>
0.0000

> <Gold.PLP.part.buried>
-0.6770

> <Gold.PLP.part.nonpolar>
-24.5618

> <Gold.PLP.part.repulsive>
0.4240

> <Gold.PLP.ligand.clash>
0.0000

> <Gold.PLP.ligand.torsion>
0.0566

> <Gold.PLP.Chemscore.Hbond>
3.6140

> <Gold.PLP.Chemscore.CHOScore>
1.0000

> <Gold.PLP.Chemscore.Metal>
0.0000

> <Gold.Chemscore.Hbonds>
donor molecule, donor type, donor heavy atom, donor atom, acceptor molecule, acceptor atom, score
      L1  H    11    23       P1 10175  0.82
      L1  H    13    25       P1 10175  1.00
      L1  H    15    27       P1  7957  1.00
      P1  H  8011  8017       L1     8  0.70
      L1  C    16    28       P1  8028  1.00

> <Gold.PLP.Chemscore.Internal.Correction>
0.0110

> <Gold.Rescore>
     Score         DG    S(hbond)    S(metal)    S(lipo)     H(rot)  DE(clash)    DE(int)     intcor
      7.09      -9.96       2.53        0.00      45.41       3.63       1.49       1.38       ----

> <Gold.Chemscore.Fitness>
7.0915

> <Gold.Chemscore.DG>
-9.9578

> <Gold.Chemscore.ZeroCoef>
-5.4800

> <Gold.Chemscore.Hbond>
2.5291

> <Gold.Chemscore.Metal>
0.0000

> <Gold.Chemscore.Lipo>
45.4134

> <Gold.Chemscore.Internal_Hbond>
0.0000

> <Gold.Chemscore.DEClash>
1.4869

> <Gold.Chemscore.DEInternal>
1.3794

> <Gold.Chemscore.Rot>
3.6261

> <Gold.Chemscore.Internal.Correction>
   9.000000E+99

> <Gold.Chemscore.Hbonds>
donor molecule, donor type, donor heavy atom, donor atom, acceptor molecule, acceptor atom, score
      L1  H    11    23       P1 10175  0.18
      L1  H    13    25       P1 10175  0.93
      L1  H    15    27       P1  7957  0.96
      P1  H  8011  8017       L1     8  0.20

> <Gold.Chemscore.Hbond.Weighted>
-8.4472

> <Gold.Chemscore.Metal.Weighted>
-0.0000

> <Gold.Chemscore.Lipo.Weighted>
-5.3134

> <Gold.Chemscore.Internal_Hbond.Weighted>
0.0000

> <Gold.Chemscore.DEClash.Weighted>
1.4869

> <Gold.Chemscore.DEInternal.Weighted>
1.3794

> <Gold.Chemscore.Rot.Weighted>
9.2828

> <Gold.Chemscore.Internal.Correction.Weighted>
   9.000000E+99

> <Gold.Protein.RotatedTorsions>
[ 6907 6896 6895 6894 ] final   95.51 input  -60.11 | X-H torsion
[ 7974 7965 7964 7962 ] final -169.34 input  175.53 | X-H torsion
[ 8008 7997 7996 7995 ] final   25.51 input   59.86 | X-H torsion
[ 10167 10162 10161 10158 ] final  -90.07 input  -65.29 | X-H torsion
[ 10718 10713 10712 10709 ] final  -72.62 input   66.30 | X-H torsion
[ 10763 10752 10751 10750 ] final  142.40 input  -60.55 | X-H torsion
[ 11005 11000 10999 10996 ] final   61.12 input  -57.11 | X-H torsion

> <Gold.Protein.ActiveResidues>
 VAL166  LYS551  ARG553  GLY616  TRP617  ASP618  TYR619  PRO620  LYS621  CYS622 
 ASP623  PHE694  ASN695  SER759  ASP760  ASP761  ALA762  ILE779  LEU786  VAL792 
 PHE793  MET794  SER795  GLU796  ALA797  LYS798  CYS799  TRP800  GLU811  SER814 

> <Gold.Protein.RotatedAtoms>
  152.5443  134.1028  159.8324 H   0  0  0  0  0  0  0  0  0  0  0  0  # atno 6907 bound_to 6896
  151.1104  133.5170  159.2613 H   0  0  0  0  0  0  0  0  0  0  0  0  # atno 6908 bound_to 6896
  151.1891  135.0404  159.8879 H   0  0  0  0  0  0  0  0  0  0  0  0  # atno 6909 bound_to 6896
  144.7187  140.2236  143.6313 H   0  0  0  0  0  0  0  0  0  0  0  0  # atno 7974 bound_to 7965
  155.0128  140.3138  155.4823 H   0  0  0  0  0  0  0  0  0  0  0  0  # atno 8008 bound_to 7997
  156.2906  140.2211  156.5185 H   0  0  0  0  0  0  0  0  0  0  0  0  # atno 8009 bound_to 7997
  154.7519  140.0465  157.0889 H   0  0  0  0  0  0  0  0  0  0  0  0  # atno 8010 bound_to 7997
  140.3585  143.2854  151.9642 H   0  0  0  0  0  0  0  0  0  0  0  0  # atno 10167 bound_to 10162
  156.0313  130.4376  150.2620 H   0  0  0  0  0  0  0  0  0  0  0  0  # atno 10718 bound_to 10713
  153.9551  135.2966  155.3436 H   0  0  0  0  0  0  0  0  0  0  0  0  # atno 10763 bound_to 10752
  154.7405  135.5027  153.9118 H   0  0  0  0  0  0  0  0  0  0  0  0  # atno 10764 bound_to 10752
  153.0974  135.6725  153.9846 H   0  0  0  0  0  0  0  0  0  0  0  0  # atno 10765 bound_to 10752
  140.0184  134.6190  155.9676 H   0  0  0  0  0  0  0  0  0  0  0  0  # atno 11005 bound_to 11000
  145.8477  139.2160  143.1790 LP  0  0  0  0  0  0  0  0  0  0  0  0  # atno 17320 bound_to 7965
  146.0289  140.8277  142.9886 LP  0  0  0  0  0  0  0  0  0  0  0  0  # atno 17321 bound_to 7965
  139.4817  144.6013  151.7600 LP  0  0  0  0  0  0  0  0  0  0  0  0  # atno 17342 bound_to 10162
  140.5150  144.0967  150.6006 LP  0  0  0  0  0  0  0  0  0  0  0  0  # atno 17343 bound_to 10162
  157.0722  131.0120  151.3186 LP  0  0  0  0  0  0  0  0  0  0  0  0  # atno 17370 bound_to 10713
  157.4990  130.7868  149.7585 LP  0  0  0  0  0  0  0  0  0  0  0  0  # atno 17371 bound_to 10713
  141.1758  133.6540  156.4822 LP  0  0  0  0  0  0  0  0  0  0  0  0  # atno 17394 bound_to 11000
  140.4431  134.6997  157.5002 LP  0  0  0  0  0  0  0  0  0  0  0  0  # atno 17395 bound_to 11000

$$$$
