AV-unprocessed.smi:691|AV-procd|sdf|3366|dock5
  -GOLD-   22720 0343D 1   1.00000     0.00000
 Structure written by MMmdl.
 37 38  0  0  0  0  0  0  0  0  1 V2000
  146.6218  140.3900  154.3703 C   0  0  0  0  0  0  0  0  0  0  0  0
  147.1854  139.2062  153.5492 C   0  0  1  0  0  0  0  0  0  0  0  0
  146.7387  139.3532  152.0709 C   0  0  0  0  0  0  0  0  0  0  0  0
  147.2271  138.2967  151.2686 O   0  0  0  0  0  0  0  0  0  0  0  0
  148.7204  139.2036  153.6609 C   0  0  0  0  0  0  0  0  0  0  0  0
  149.0526  138.5178  154.9911 C   0  0  0  0  0  0  0  0  0  0  0  0
  147.8323  137.6580  155.3483 C   0  0  0  0  0  0  0  0  0  0  0  0
  146.8061  137.8581  154.2193 C   0  0  2  0  0  0  0  0  0  0  0  0
  146.8883  136.7263  153.2920 N   0  0  0  0  0  0  0  0  0  0  0  0
  145.9003  135.8657  153.0074 C   0  0  0  0  0  0  0  0  0  0  0  0
  144.7798  135.9194  153.5131 O   0  0  0  0  0  0  0  0  0  0  0  0
  146.2968  134.9663  152.0908 N   0  0  0  0  0  0  0  0  0  0  0  0
  145.5501  133.9078  151.5060 C   0  0  0  0  0  0  0  0  0  0  0  0
  146.0680  132.9933  150.5569 C   0  0  0  0  0  0  0  0  0  0  0  0
  145.2186  131.9955  150.0409 C   0  0  0  0  0  0  0  0  0  0  0  0
  143.8831  131.9525  150.4855 C   0  0  0  0  0  0  0  0  0  0  0  0
  143.3721  132.8264  151.3780 N   0  0  0  0  0  0  0  0  0  0  0  0
  144.1921  133.7803  151.8679 C   0  0  0  0  0  0  0  0  0  0  0  0
  146.9290  141.3464  153.9463 H   0  0  0  0  0  0  0  0  0  0  0  0
  146.9609  140.3713  155.4060 H   0  0  0  0  0  0  0  0  0  0  0  0
  145.5318  140.3776  154.3912 H   0  0  0  0  0  0  0  0  0  0  0  0
  145.6502  139.3608  152.0049 H   0  0  0  0  0  0  0  0  0  0  0  0
  147.0757  140.2972  151.6419 H   0  0  0  0  0  0  0  0  0  0  0  0
  147.6289  137.6517  151.8304 H   0  0  0  0  0  0  0  0  0  0  0  0
  149.1496  138.6153  152.8487 H   0  0  0  0  0  0  0  0  0  0  0  0
  149.1530  140.2025  153.5913 H   0  0  0  0  0  0  0  0  0  0  0  0
  149.9613  137.9203  154.9114 H   0  0  0  0  0  0  0  0  0  0  0  0
  149.2213  139.2625  155.7698 H   0  0  0  0  0  0  0  0  0  0  0  0
  148.1004  136.6097  155.4897 H   0  0  0  0  0  0  0  0  0  0  0  0
  147.4126  138.0030  156.2941 H   0  0  0  0  0  0  0  0  0  0  0  0
  145.8015  137.9183  154.6413 H   0  0  0  0  0  0  0  0  0  0  0  0
  147.7715  136.5987  152.8206 H   0  0  0  0  0  0  0  0  0  0  0  0
  147.2257  135.0960  151.7173 H   0  0  0  0  0  0  0  0  0  0  0  0
  147.0868  133.0433  150.2056 H   0  0  0  0  0  0  0  0  0  0  0  0
  145.5821  131.2816  149.3166 H   0  0  0  0  0  0  0  0  0  0  0  0
  143.2058  131.2001  150.1096 H   0  0  0  0  0  0  0  0  0  0  0  0
  143.7484  134.4625  152.5784 H   0  0  0  0  0  0  0  0  0  0  0  0
  1  2  1  0  0  0  0
  1 19  1  0  0  0  0
  1 20  1  0  0  0  0
  1 21  1  0  0  0  0
  2  8  1  0  0  0  0
  2  3  1  0  0  0  0
  2  5  1  0  0  0  0
  3  4  1  0  0  0  0
  3 22  1  0  0  0  0
  3 23  1  0  0  0  0
  4 24  1  0  0  0  0
  5  6  1  0  0  0  0
  5 25  1  0  0  0  0
  5 26  1  0  0  0  0
  6  7  1  0  0  0  0
  6 27  1  0  0  0  0
  6 28  1  0  0  0  0
  7  8  1  0  0  0  0
  7 29  1  0  0  0  0
  7 30  1  0  0  0  0
  8  9  1  0  0  0  0
  8 31  1  0  0  0  0
  9 10  1  0  0  0  0
  9 32  1  0  0  0  0
 10 11  2  0  0  0  0
 10 12  1  0  0  0  0
 12 13  1  0  0  0  0
 12 33  1  0  0  0  0
 13 18  1  0  0  0  0
 13 14  2  0  0  0  0
 14 15  1  0  0  0  0
 14 34  1  0  0  0  0
 15 16  2  0  0  0  0
 15 35  1  0  0  0  0
 16 17  1  0  0  0  0
 16 36  1  0  0  0  0
 17 18  2  0  0  0  0
 18 37  1  0  0  0  0
M  END
> <s_m_source_file>
AV-unprocessed.smi

> <i_m_source_file_index>
691

> <i_lp_mmshare_version>
43012

> <i_f3d_flags>
0

> <s_epik_input>
W09IXVtDSDJdW0NAXTEoW0NIM10pW0NIMl1bQ0gyXVtDSDJdW0NASF0xW05IXUMoPU8pW05IXWMyW2NIXVtjSF1bY0hdbltjSF0y

> <s_epik_cmdline>
J2VwaWtfcHl0aG9uJywgJy1waCcsICc3LjAnLCAnLXRuJywgJzgnLCAnLW1hJywgJzIwMCcsICctbWV0YWxfYmluZGluZycsICctaW1hZScsICc8aW5maWxlLm1hZT4nLCAnLW9tYWUnLCAnPG91dGZpbGUubWFlPic=

> <r_epik_Ionization_Penalty>
0.00496828

> <r_epik_Ionization_Penalty_Charging>
0

> <r_epik_Ionization_Penalty_Neutral>
0.00496828

> <r_epik_State_Penalty>
0.00358054

> <r_epik_Charging_Adjusted_Penalty>
0.00358054

> <i_epik_Tot_Q>
0

> <i_epik_Tot_abs_Q>
0

> <r_epik_Metal_State_Penalty>
-0

> <b_epik_Metal_Only>
0

> <s_lp_Force_Field>
OPLS_2005

> <r_lp_Energy>
29.635

> <b_lp_Chiralities_Consistent>
1

> <s_lp_Variant>
AV-unprocessed.smi:691-3

> <Gold.Version>
5.8.1

> <Gold.Id.Protein>
6NUR|6NUR_protein|mol2

> <Gold.PLP.Fitness>
42.2212

> <Gold.PLP.PLP>
-28.3620

> <Gold.PLP.part.hbond>
-5.0000

> <Gold.PLP.part.metal>
0.0000

> <Gold.PLP.part.buried>
-1.9013

> <Gold.PLP.part.nonpolar>
-22.1893

> <Gold.PLP.part.repulsive>
0.4453

> <Gold.PLP.ligand.clash>
0.0000

> <Gold.PLP.ligand.torsion>
0.0159

> <Gold.PLP.Chemscore.Hbond>
3.6724

> <Gold.PLP.Chemscore.CHOScore>
0.9527

> <Gold.PLP.Chemscore.Metal>
0.0000

> <Gold.Chemscore.Hbonds>
donor molecule, donor type, donor heavy atom, donor atom, acceptor molecule, acceptor atom, score
      L1  H     4    24       P1  7948  0.83
      L1  H     9    32       P1  7948  1.00
      L1  H    12    33       P1  7948  0.93
      P1  H  7954  7966       L1     4  0.70
      L1  C    16    36       P1 10952  0.85

> <Gold.PLP.Chemscore.Internal.Correction>
0.0157

> <Gold.Rescore>
     Score         DG    S(hbond)    S(metal)    S(lipo)     H(rot)  DE(clash)    DE(int)     intcor
     17.80     -19.60       3.19        0.00      68.60       1.78       0.32       1.48       ----

> <Gold.Chemscore.Fitness>
17.7989

> <Gold.Chemscore.DG>
-19.6030

> <Gold.Chemscore.ZeroCoef>
-5.4800

> <Gold.Chemscore.Hbond>
3.1928

> <Gold.Chemscore.Metal>
0.0000

> <Gold.Chemscore.Lipo>
68.5960

> <Gold.Chemscore.Internal_Hbond>
0.0000

> <Gold.Chemscore.DEClash>
0.3197

> <Gold.Chemscore.DEInternal>
1.4844

> <Gold.Chemscore.Rot>
1.7838

> <Gold.Chemscore.Internal.Correction>
   9.000000E+99

> <Gold.Chemscore.Hbonds>
donor molecule, donor type, donor heavy atom, donor atom, acceptor molecule, acceptor atom, score
      L1  H     4    24       P1  7948  0.81
      L1  H     9    32       P1  7948  0.97
      L1  H    12    33       P1  7948  0.78
      P1  H  7954  7966       L1     4  0.07

> <Gold.Chemscore.Hbond.Weighted>
-10.6639

> <Gold.Chemscore.Metal.Weighted>
-0.0000

> <Gold.Chemscore.Lipo.Weighted>
-8.0257

> <Gold.Chemscore.Internal_Hbond.Weighted>
0.0000

> <Gold.Chemscore.DEClash.Weighted>
0.3197

> <Gold.Chemscore.DEInternal.Weighted>
1.4844

> <Gold.Chemscore.Rot.Weighted>
4.5666

> <Gold.Chemscore.Internal.Correction.Weighted>
   9.000000E+99

> <Gold.Protein.RotatedTorsions>
[ 6907 6896 6895 6894 ] final  -21.61 input  -60.11 | X-H torsion
[ 7974 7965 7964 7962 ] final  118.53 input  175.53 | X-H torsion
[ 8008 7997 7996 7995 ] final   15.42 input   59.86 | X-H torsion
[ 10167 10162 10161 10158 ] final   11.54 input  -65.29 | X-H torsion
[ 10718 10713 10712 10709 ] final -124.23 input   66.30 | X-H torsion
[ 10763 10752 10751 10750 ] final -169.75 input  -60.55 | X-H torsion
[ 11005 11000 10999 10996 ] final  107.40 input  -57.11 | X-H torsion

> <Gold.Protein.ActiveResidues>
 VAL166  LYS551  ARG553  GLY616  TRP617  ASP618  TYR619  PRO620  LYS621  CYS622 
 ASP623  PHE694  ASN695  SER759  ASP760  ASP761  ALA762  ILE779  LEU786  VAL792 
 PHE793  MET794  SER795  GLU796  ALA797  LYS798  CYS799  TRP800  GLU811  SER814 

> <Gold.Protein.RotatedAtoms>
  151.2308  135.0553  159.8986 H   0  0  0  0  0  0  0  0  0  0  0  0  # atno 6907 bound_to 6896
  152.5405  134.0539  159.8132 H   0  0  0  0  0  0  0  0  0  0  0  0  # atno 6908 bound_to 6896
  151.0718  133.5411  159.2658 H   0  0  0  0  0  0  0  0  0  0  0  0  # atno 6909 bound_to 6896
  145.1540  139.3193  143.4552 H   0  0  0  0  0  0  0  0  0  0  0  0  # atno 7974 bound_to 7965
  154.8625  140.2946  155.5530 H   0  0  0  0  0  0  0  0  0  0  0  0  # atno 8008 bound_to 7997
  156.3020  140.2475  156.3534 H   0  0  0  0  0  0  0  0  0  0  0  0  # atno 8009 bound_to 7997
  154.8903  140.0395  157.1824 H   0  0  0  0  0  0  0  0  0  0  0  0  # atno 8010 bound_to 7997
  140.6125  143.8377  150.7081 H   0  0  0  0  0  0  0  0  0  0  0  0  # atno 10167 bound_to 10162
  156.1570  130.6575  150.9995 H   0  0  0  0  0  0  0  0  0  0  0  0  # atno 10718 bound_to 10713
  154.6490  135.2909  155.0011 H   0  0  0  0  0  0  0  0  0  0  0  0  # atno 10763 bound_to 10752
  154.1110  135.6562  153.4889 H   0  0  0  0  0  0  0  0  0  0  0  0  # atno 10764 bound_to 10752
  153.0366  135.5265  154.7389 H   0  0  0  0  0  0  0  0  0  0  0  0  # atno 10765 bound_to 10752
  139.8828  134.9400  156.5814 H   0  0  0  0  0  0  0  0  0  0  0  0  # atno 11005 bound_to 11000
  146.3491  140.1625  142.8590 LP  0  0  0  0  0  0  0  0  0  0  0  0  # atno 17320 bound_to 7965
  145.0400  140.8938  143.5058 LP  0  0  0  0  0  0  0  0  0  0  0  0  # atno 17321 bound_to 7965
  140.1949  143.4006  152.1835 LP  0  0  0  0  0  0  0  0  0  0  0  0  # atno 17342 bound_to 10162
  139.5372  144.7222  151.4852 LP  0  0  0  0  0  0  0  0  0  0  0  0  # atno 17343 bound_to 10162
  157.6702  131.0863  150.7630 LP  0  0  0  0  0  0  0  0  0  0  0  0  # atno 17370 bound_to 10713
  156.7695  130.4824  149.5421 LP  0  0  0  0  0  0  0  0  0  0  0  0  # atno 17371 bound_to 10713
  140.8024  133.8495  155.8738 LP  0  0  0  0  0  0  0  0  0  0  0  0  # atno 17394 bound_to 11000
  140.9581  134.1692  157.4676 LP  0  0  0  0  0  0  0  0  0  0  0  0  # atno 17395 bound_to 11000

$$$$
