AV-unprocessed.smi:1047|AV-procd|sdf|4566|dock3
  -GOLD-   22720 3 13D 1   1.00000     0.00000
 Structure written by MMmdl.
 57 59  0  0  0  0  0  0  0  0  3 V2000
  143.6453  145.6595  157.7324 C   0  0  0  0  0  0  0  0  0  0  0  0
  143.5480  146.0775  156.2585 C   0  0  0  0  0  0  0  0  0  0  0  0
  143.1716  144.9459  155.3697 N   0  3  1  0  0  0  0  0  0  0  0  0
  143.1083  145.3171  153.9351 C   0  0  0  0  0  0  0  0  0  0  0  0
  144.5163  145.4018  153.3203 C   0  0  0  0  0  0  0  0  0  0  0  0
  145.1891  144.1625  153.5075 O   0  0  0  0  0  0  0  0  0  0  0  0
  145.3703  143.8329  154.8809 C   0  0  2  0  0  0  0  0  0  0  0  0
  146.1721  142.5212  154.9304 C   0  0  0  0  0  0  0  0  0  0  0  0
  147.5007  142.6571  154.2978 N   0  3  0  0  0  0  0  0  0  0  0  0
  148.0405  141.3913  153.7610 C   0  0  0  0  0  0  0  0  0  0  0  0
  149.1568  140.8305  154.6576 C   0  0  1  0  0  0  0  0  0  0  0  0
  149.8864  139.8682  153.9200 O   0  0  0  0  0  0  0  0  0  0  0  0
  150.1127  141.9384  155.1413 C   0  0  0  0  0  0  0  0  0  0  0  0
  150.9807  141.4962  156.2187 N   0  0  0  0  0  0  0  0  0  0  0  0
  151.6859  140.3498  156.2708 C   0  0  0  0  0  0  0  0  0  0  0  0
  152.4226  140.1366  157.3569 N   0  0  0  0  0  0  0  0  0  0  0  0
  152.1600  141.2745  158.1002 C   0  0  0  0  0  0  0  0  0  0  0  0
  152.6337  141.6686  159.3705 C   0  0  0  0  0  0  0  0  0  0  0  0
  152.2268  142.8921  159.9484 C   0  0  0  0  0  0  0  0  0  0  0  0
  152.7581  143.2739  161.3190 C   0  0  0  0  0  0  0  0  0  0  0  0
  151.3318  143.7437  159.2521 C   0  0  0  0  0  0  0  0  0  0  0  0
  150.8791  145.0621  159.8544 C   0  0  0  0  0  0  0  0  0  0  0  0
  150.8507  143.3664  157.9808 C   0  0  0  0  0  0  0  0  0  0  0  0
  151.2613  142.1454  157.4169 C   0  0  0  0  0  0  0  0  0  0  0  0
  143.9803  143.7119  155.5501 C   0  0  0  0  0  0  0  0  0  0  0  0
  143.8246  146.5292  158.3650 H   0  0  0  0  0  0  0  0  0  0  0  0
  144.4616  144.9601  157.9093 H   0  0  0  0  0  0  0  0  0  0  0  0
  142.7202  145.1924  158.0713 H   0  0  0  0  0  0  0  0  0  0  0  0
  142.7832  146.8519  156.1873 H   0  0  0  0  0  0  0  0  0  0  0  0
  144.4794  146.5397  155.9320 H   0  0  0  0  0  0  0  0  0  0  0  0
  142.5315  144.5555  153.4085 H   0  0  0  0  0  0  0  0  0  0  0  0
  142.5683  146.2551  153.8009 H   0  0  0  0  0  0  0  0  0  0  0  0
  144.4448  145.6032  152.2514 H   0  0  0  0  0  0  0  0  0  0  0  0
  145.0943  146.2172  153.7577 H   0  0  0  0  0  0  0  0  0  0  0  0
  145.9593  144.6191  155.3558 H   0  0  0  0  0  0  0  0  0  0  0  0
  146.2876  142.1866  155.9623 H   0  0  0  0  0  0  0  0  0  0  0  0
  145.6204  141.7411  154.4038 H   0  0  0  0  0  0  0  0  0  0  0  0
  147.4382  143.3232  153.5411 H   0  0  0  0  0  0  0  0  0  0  0  0
  147.2373  140.6605  153.6544 H   0  0  0  0  0  0  0  0  0  0  0  0
  148.4317  141.5824  152.7607 H   0  0  0  0  0  0  0  0  0  0  0  0
  148.7164  140.3374  155.5255 H   0  0  0  0  0  0  0  0  0  0  0  0
  149.5074  139.8010  153.0558 H   0  0  0  0  0  0  0  0  0  0  0  0
  150.7313  142.2963  154.3173 H   0  0  0  0  0  0  0  0  0  0  0  0
  149.5433  142.7983  155.4966 H   0  0  0  0  0  0  0  0  0  0  0  0
  151.6593  139.6323  155.4637 H   0  0  0  0  0  0  0  0  0  0  0  0
  153.3144  141.0191  159.9012 H   0  0  0  0  0  0  0  0  0  0  0  0
  151.9462  143.3053  162.0456 H   0  0  0  0  0  0  0  0  0  0  0  0
  153.2338  144.2542  161.2883 H   0  0  0  0  0  0  0  0  0  0  0  0
  153.4981  142.5559  161.6734 H   0  0  0  0  0  0  0  0  0  0  0  0
  150.1499  145.5619  159.2164 H   0  0  0  0  0  0  0  0  0  0  0  0
  151.7282  145.7336  159.9826 H   0  0  0  0  0  0  0  0  0  0  0  0
  150.4153  144.9001  160.8272 H   0  0  0  0  0  0  0  0  0  0  0  0
  150.1695  144.0076  157.4411 H   0  0  0  0  0  0  0  0  0  0  0  0
  144.0758  143.4617  156.6058 H   0  0  0  0  0  0  0  0  0  0  0  0
  143.4322  142.8858  155.0948 H   0  0  0  0  0  0  0  0  0  0  0  0
  148.1539  143.0069  154.9848 H   0  0  0  0  0  0  0  0  0  0  0  0
  142.2244  144.7123  155.6329 H   0  0  0  0  0  0  0  0  0  0  0  0
  1  2  1  0  0  0  0
  1 26  1  0  0  0  0
  1 27  1  0  0  0  0
  1 28  1  0  0  0  0
  2  3  1  0  0  0  0
  2 29  1  0  0  0  0
  2 30  1  0  0  0  0
  3 25  1  0  0  0  0
  3  4  1  0  0  0  0
  3 57  1  0  0  0  0
  4  5  1  0  0  0  0
  4 31  1  0  0  0  0
  4 32  1  0  0  0  0
  5  6  1  0  0  0  0
  5 33  1  0  0  0  0
  5 34  1  0  0  0  0
  6  7  1  0  0  0  0
  7  8  1  0  0  0  0
  7 25  1  0  0  0  0
  7 35  1  0  0  0  0
  8  9  1  0  0  0  0
  8 36  1  0  0  0  0
  8 37  1  0  0  0  0
  9 10  1  0  0  0  0
  9 38  1  0  0  0  0
  9 56  1  0  0  0  0
 10 11  1  0  0  0  0
 10 39  1  0  0  0  0
 10 40  1  0  0  0  0
 11 12  1  0  0  0  0
 11 13  1  0  0  0  0
 11 41  1  0  0  0  0
 12 42  1  0  0  0  0
 13 14  1  0  0  0  0
 13 43  1  0  0  0  0
 13 44  1  0  0  0  0
 14 24  1  0  0  0  0
 14 15  1  0  0  0  0
 15 16  2  0  0  0  0
 15 45  1  0  0  0  0
 16 17  1  0  0  0  0
 17 24  2  0  0  0  0
 17 18  1  0  0  0  0
 18 19  2  0  0  0  0
 18 46  1  0  0  0  0
 19 20  1  0  0  0  0
 19 21  1  0  0  0  0
 20 47  1  0  0  0  0
 20 48  1  0  0  0  0
 20 49  1  0  0  0  0
 21 22  1  0  0  0  0
 21 23  2  0  0  0  0
 22 50  1  0  0  0  0
 22 51  1  0  0  0  0
 22 52  1  0  0  0  0
 23 24  1  0  0  0  0
 23 53  1  0  0  0  0
 25 54  1  0  0  0  0
 25 55  1  0  0  0  0
M  CHG  1   3   1
M  CHG  1   9   1
M  END
> <s_m_source_file>
AV-unprocessed.smi

> <i_m_source_file_index>
1047

> <i_lp_mmshare_version>
43012

> <i_f3d_flags>
0

> <s_epik_input>
W0NIM11bQ0gyXU4xW0NIMl1bQ0gyXU9bQ0BIXShbQ0gyXTEpW0NIMl1bTkhdW0NIMl1bQ0BIXShbT0hdKVtDSDJdbihbY0hdbjIpYyhjMjMpW2NIXWMoW0NIM10pYyhbY0hdMylbQ0gzXQ==

> <s_epik_cmdline>
J2VwaWtfcHl0aG9uJywgJy1waCcsICc3LjAnLCAnLXRuJywgJzgnLCAnLW1hJywgJzIwMCcsICctbWV0YWxfYmluZGluZycsICctaW1hZScsICc8aW5maWxlLm1hZT4nLCAnLW9tYWUnLCAnPG91dGZpbGUubWFlPic=

> <r_epik_Ionization_Penalty>
0.528991

> <r_epik_Ionization_Penalty_Charging>
0.438567

> <r_epik_Ionization_Penalty_Neutral>
0.0904237

> <r_epik_State_Penalty>
0.533036

> <r_epik_Charging_Adjusted_Penalty>
0.971603

> <i_epik_Tot_Q>
2

> <i_epik_Tot_abs_Q>
2

> <r_epik_Metal_State_Penalty>
0.448985

> <b_epik_Metal_Only>
0

> <s_lp_Force_Field>
OPLS_2005

> <r_lp_Energy>
33.3507

> <b_lp_Chiralities_Consistent>
1

> <s_lp_Variant>
AV-unprocessed.smi:1047-7

> <Gold.Version>
5.8.1

> <Gold.Id.Protein>
6NUR|6NUR_protein|mol2

> <Gold.PLP.Fitness>
64.2852

> <Gold.PLP.PLP>
-52.6335

> <Gold.PLP.part.hbond>
-4.0000

> <Gold.PLP.part.metal>
0.0000

> <Gold.PLP.part.buried>
-6.9337

> <Gold.PLP.part.nonpolar>
-41.4383

> <Gold.PLP.part.repulsive>
0.3664

> <Gold.PLP.ligand.clash>
0.0197

> <Gold.PLP.ligand.torsion>
0.8786

> <Gold.PLP.Chemscore.Hbond>
4.3680

> <Gold.PLP.Chemscore.CHOScore>
0.0000

> <Gold.PLP.Chemscore.Metal>
0.0000

> <Gold.Chemscore.Hbonds>
donor molecule, donor type, donor heavy atom, donor atom, acceptor molecule, acceptor atom, score
      L1  H     9    56       P1  8028  1.54
      L1  H    12    42       P1  7957  1.00
      P1  H  7989  7998       L1    12  0.86
      P1  H  7997  8008       L1    16  0.86

> <Gold.PLP.Chemscore.Internal.Correction>
0.3246

> <Gold.Rescore>
     Score         DG    S(hbond)    S(metal)    S(lipo)     H(rot)  DE(clash)    DE(int)     intcor
     20.06     -22.60       2.62        0.00     130.62       2.70       0.69       1.84       ----

> <Gold.Chemscore.Fitness>
20.0643

> <Gold.Chemscore.DG>
-22.5961

> <Gold.Chemscore.ZeroCoef>
-5.4800

> <Gold.Chemscore.Hbond>
2.6171

> <Gold.Chemscore.Metal>
0.0000

> <Gold.Chemscore.Lipo>
130.6248

> <Gold.Chemscore.Internal_Hbond>
0.0000

> <Gold.Chemscore.DEClash>
0.6872

> <Gold.Chemscore.DEInternal>
1.8446

> <Gold.Chemscore.Rot>
2.6985

> <Gold.Chemscore.Internal.Correction>
   9.000000E+99

> <Gold.Chemscore.Hbonds>
donor molecule, donor type, donor heavy atom, donor atom, acceptor molecule, acceptor atom, score
      L1  H     9    56       P1  8028  0.74
      L1  H    12    42       P1  7957  0.95
      P1  H  7989  7998       L1    12  0.08
      P1  H  7997  8008       L1    16  0.24

> <Gold.Chemscore.Hbond.Weighted>
-8.7412

> <Gold.Chemscore.Metal.Weighted>
-0.0000

> <Gold.Chemscore.Lipo.Weighted>
-15.2831

> <Gold.Chemscore.Internal_Hbond.Weighted>
0.0000

> <Gold.Chemscore.DEClash.Weighted>
0.6872

> <Gold.Chemscore.DEInternal.Weighted>
1.8446

> <Gold.Chemscore.Rot.Weighted>
6.9081

> <Gold.Chemscore.Internal.Correction.Weighted>
   9.000000E+99

> <Gold.Protein.RotatedTorsions>
[ 6907 6896 6895 6894 ] final   52.46 input  -60.11 | X-H torsion
[ 7974 7965 7964 7962 ] final   95.61 input  175.53 | X-H torsion
[ 8008 7997 7996 7995 ] final  -55.26 input   59.86 | X-H torsion
[ 10167 10162 10161 10158 ] final  179.98 input  -65.29 | X-H torsion
[ 10718 10713 10712 10709 ] final   97.08 input   66.30 | X-H torsion
[ 10763 10752 10751 10750 ] final   97.45 input  -60.55 | X-H torsion
[ 11005 11000 10999 10996 ] final  179.47 input  -57.11 | X-H torsion

> <Gold.Protein.ActiveResidues>
 VAL166  LYS551  ARG553  GLY616  TRP617  ASP618  TYR619  PRO620  LYS621  CYS622 
 ASP623  PHE694  ASN695  SER759  ASP760  ASP761  ALA762  ILE779  LEU786  VAL792 
 PHE793  MET794  SER795  GLU796  ALA797  LYS798  CYS799  TRP800  GLU811  SER814 

> <Gold.Protein.RotatedAtoms>
  152.3235  134.7350  160.0307 H   0  0  0  0  0  0  0  0  0  0  0  0  # atno 6907 bound_to 6896
  151.7791  133.3343  159.3474 H   0  0  0  0  0  0  0  0  0  0  0  0  # atno 6908 bound_to 6896
  150.7383  134.5879  159.6016 H   0  0  0  0  0  0  0  0  0  0  0  0  # atno 6909 bound_to 6896
  145.4499  139.2294  143.3045 H   0  0  0  0  0  0  0  0  0  0  0  0  # atno 7974 bound_to 7965
  154.4189  140.1157  156.5449 H   0  0  0  0  0  0  0  0  0  0  0  0  # atno 8008 bound_to 7997
  155.6470  140.3496  155.4715 H   0  0  0  0  0  0  0  0  0  0  0  0  # atno 8009 bound_to 7997
  155.9824  140.1163  157.0704 H   0  0  0  0  0  0  0  0  0  0  0  0  # atno 8010 bound_to 7997
  139.5360  144.2496  152.0795 H   0  0  0  0  0  0  0  0  0  0  0  0  # atno 10167 bound_to 10162
  157.6918  131.0598  150.4590 H   0  0  0  0  0  0  0  0  0  0  0  0  # atno 10718 bound_to 10713
  153.2770  135.4183  155.1043 H   0  0  0  0  0  0  0  0  0  0  0  0  # atno 10763 bound_to 10752
  154.8476  135.3486  154.6164 H   0  0  0  0  0  0  0  0  0  0  0  0  # atno 10764 bound_to 10752
  153.6585  135.7049  153.5243 H   0  0  0  0  0  0  0  0  0  0  0  0  # atno 10765 bound_to 10752
  140.4065  134.6730  157.4591 H   0  0  0  0  0  0  0  0  0  0  0  0  # atno 11005 bound_to 11000
  146.2510  140.5257  142.8893 LP  0  0  0  0  0  0  0  0  0  0  0  0  # atno 17320 bound_to 7965
  144.8068  140.6314  143.6442 LP  0  0  0  0  0  0  0  0  0  0  0  0  # atno 17321 bound_to 7965
  140.1967  144.4698  150.6452 LP  0  0  0  0  0  0  0  0  0  0  0  0  # atno 17342 bound_to 10162
  140.6566  143.2239  151.5953 LP  0  0  0  0  0  0  0  0  0  0  0  0  # atno 17343 bound_to 10162
  156.4935  130.4101  149.6393 LP  0  0  0  0  0  0  0  0  0  0  0  0  # atno 17370 bound_to 10713
  156.3394  130.7374  151.2317 LP  0  0  0  0  0  0  0  0  0  0  0  0  # atno 17371 bound_to 10713
  140.0298  134.6423  155.9122 LP  0  0  0  0  0  0  0  0  0  0  0  0  # atno 17394 bound_to 11000
  141.1837  133.6551  156.5128 LP  0  0  0  0  0  0  0  0  0  0  0  0  # atno 17395 bound_to 11000

$$$$
