AV-unprocessed.smi:1554|AV-procd|sdf|6252|dock3
  -GOLD-   22720 6433D 1   1.00000     0.00000
 Structure written by MMmdl.
 48 50  0  0  0  0  0  0  0  0  2 V2000
  151.7792  145.0888  160.4667 C   0  0  0  0  0  0  0  0  0  0  0  0
  151.6121  143.7769  159.7186 C   0  0  0  0  0  0  0  0  0  0  0  0
  150.9040  143.7833  158.4958 C   0  0  0  0  0  0  0  0  0  0  0  0
  150.7653  142.5674  157.8368 C   0  0  0  0  0  0  0  0  0  0  0  0
  150.1292  142.2464  156.6359 N   0  3  0  0  0  0  0  0  0  0  0  0
  150.2580  140.9123  156.3959 C   0  0  0  0  0  0  0  0  0  0  0  0
  150.9691  140.3764  157.4248 N   0  0  0  0  0  0  0  0  0  0  0  0
  151.3874  138.9851  157.6496 C   0  0  0  0  0  0  0  0  0  0  0  0
  150.5555  138.2753  158.7357 C   0  0  2  0  0  0  0  0  0  0  0  0
  151.2935  137.1910  159.2633 O   0  0  0  0  0  0  0  0  0  0  0  0
  149.2317  137.7299  158.1639 C   0  0  0  0  0  0  0  0  0  0  0  0
  148.1195  137.6447  159.1126 N   0  0  0  0  0  0  0  0  0  0  0  0
  146.8339  137.4017  158.4599 C   0  0  0  0  0  0  0  0  0  0  0  0
  145.6870  137.2803  159.4779 C   0  0  0  0  0  0  0  0  0  0  0  0
  145.9859  136.2529  160.4167 O   0  0  0  0  0  0  0  0  0  0  0  0
  147.2079  136.4759  161.1147 C   0  0  1  0  0  0  0  0  0  0  0  0
  147.4193  135.3191  162.0971 C   0  0  0  0  0  0  0  0  0  0  0  0
  148.3560  136.5897  160.0929 C   0  0  0  0  0  0  0  0  0  0  0  0
  151.3053  141.3720  158.3503 C   0  0  0  0  0  0  0  0  0  0  0  0
  152.0053  141.3488  159.5544 C   0  0  0  0  0  0  0  0  0  0  0  0
  152.1541  142.5745  160.2420 C   0  0  0  0  0  0  0  0  0  0  0  0
  152.9076  142.5778  161.5613 C   0  0  0  0  0  0  0  0  0  0  0  0
  151.3286  145.9191  159.9223 H   0  0  0  0  0  0  0  0  0  0  0  0
  152.8358  145.3185  160.6071 H   0  0  0  0  0  0  0  0  0  0  0  0
  151.3028  145.0339  161.4458 H   0  0  0  0  0  0  0  0  0  0  0  0
  150.4864  144.6942  158.0921 H   0  0  0  0  0  0  0  0  0  0  0  0
  149.8680  140.3764  155.5426 H   0  0  0  0  0  0  0  0  0  0  0  0
  151.2731  138.4629  156.6989 H   0  0  0  0  0  0  0  0  0  0  0  0
  152.4521  138.9606  157.8830 H   0  0  0  0  0  0  0  0  0  0  0  0
  150.3668  138.9865  159.5386 H   0  0  0  0  0  0  0  0  0  0  0  0
  152.1873  137.2677  158.9643 H   0  0  0  0  0  0  0  0  0  0  0  0
  148.9273  138.3462  157.3165 H   0  0  0  0  0  0  0  0  0  0  0  0
  149.4282  136.7394  157.7505 H   0  0  0  0  0  0  0  0  0  0  0  0
  146.5952  138.2102  157.7705 H   0  0  0  0  0  0  0  0  0  0  0  0
  146.8862  136.4877  157.8661 H   0  0  0  0  0  0  0  0  0  0  0  0
  145.5322  138.2258  159.9997 H   0  0  0  0  0  0  0  0  0  0  0  0
  144.7536  137.0379  158.9698 H   0  0  0  0  0  0  0  0  0  0  0  0
  147.1282  137.4065  161.6798 H   0  0  0  0  0  0  0  0  0  0  0  0
  148.3431  135.4471  162.6617 H   0  0  0  0  0  0  0  0  0  0  0  0
  147.4761  134.3638  161.5743 H   0  0  0  0  0  0  0  0  0  0  0  0
  146.5983  135.2595  162.8119 H   0  0  0  0  0  0  0  0  0  0  0  0
  148.4819  135.6338  159.5815 H   0  0  0  0  0  0  0  0  0  0  0  0
  149.2893  136.7833  160.6231 H   0  0  0  0  0  0  0  0  0  0  0  0
  152.4125  140.4330  159.9567 H   0  0  0  0  0  0  0  0  0  0  0  0
  153.2530  141.5779  161.8260 H   0  0  0  0  0  0  0  0  0  0  0  0
  152.2653  142.9325  162.3679 H   0  0  0  0  0  0  0  0  0  0  0  0
  153.7815  143.2273  161.5022 H   0  0  0  0  0  0  0  0  0  0  0  0
  149.6418  142.8883  156.0238 H   0  0  0  0  0  0  0  0  0  0  0  0
  1  2  1  0  0  0  0
  1 23  1  0  0  0  0
  1 24  1  0  0  0  0
  1 25  1  0  0  0  0
  2 21  1  0  0  0  0
  2  3  2  0  0  0  0
  3  4  1  0  0  0  0
  3 26  1  0  0  0  0
  4 19  2  0  0  0  0
  4  5  1  0  0  0  0
  5  6  2  0  0  0  0
  5 48  1  0  0  0  0
  6  7  1  0  0  0  0
  6 27  1  0  0  0  0
  7  8  1  0  0  0  0
  7 19  1  0  0  0  0
  8  9  1  0  0  0  0
  8 28  1  0  0  0  0
  8 29  1  0  0  0  0
  9 10  1  0  0  0  0
  9 11  1  0  0  0  0
  9 30  1  0  0  0  0
 10 31  1  0  0  0  0
 11 12  1  0  0  0  0
 11 32  1  0  0  0  0
 11 33  1  0  0  0  0
 12 18  1  0  0  0  0
 12 13  1  0  0  0  0
 13 14  1  0  0  0  0
 13 34  1  0  0  0  0
 13 35  1  0  0  0  0
 14 15  1  0  0  0  0
 14 36  1  0  0  0  0
 14 37  1  0  0  0  0
 15 16  1  0  0  0  0
 16 17  1  0  0  0  0
 16 18  1  0  0  0  0
 16 38  1  0  0  0  0
 17 39  1  0  0  0  0
 17 40  1  0  0  0  0
 17 41  1  0  0  0  0
 18 42  1  0  0  0  0
 18 43  1  0  0  0  0
 19 20  1  0  0  0  0
 20 21  2  0  0  0  0
 20 44  1  0  0  0  0
 21 22  1  0  0  0  0
 22 45  1  0  0  0  0
 22 46  1  0  0  0  0
 22 47  1  0  0  0  0
M  CHG  1   5   1
M  END
> <s_m_source_file>
AV-unprocessed.smi

> <i_m_source_file_index>
1554

> <i_lp_mmshare_version>
43012

> <i_f3d_flags>
0

> <s_epik_input>
W0NIM11jKFtjSF0xKWMoW0NIM10pW2NIXWMoYzEyKW4oW2NIXW4yKVtDSDJdW0NASF0oW09IXSlbQ0gyXU4zW0NIMl1bQ0gyXU9bQ0BASF0oW0NIM10pW0NIMl0z

> <s_epik_cmdline>
J2VwaWtfcHl0aG9uJywgJy1waCcsICc3LjAnLCAnLXRuJywgJzgnLCAnLW1hJywgJzIwMCcsICctbWV0YWxfYmluZGluZycsICctaW1hZScsICc8aW5maWxlLm1hZT4nLCAnLW9tYWUnLCAnPG91dGZpbGUubWFlPic=

> <r_epik_Ionization_Penalty>
1.42504

> <r_epik_Ionization_Penalty_Charging>
1.21068

> <r_epik_Ionization_Penalty_Neutral>
0.214359

> <r_epik_State_Penalty>
1.46962

> <r_epik_Charging_Adjusted_Penalty>
2.6803

> <i_epik_Tot_Q>
1

> <i_epik_Tot_abs_Q>
1

> <r_epik_Metal_State_Penalty>
5.48754

> <b_epik_Metal_Only>
0

> <s_lp_Force_Field>
OPLS_2005

> <r_lp_Energy>
34.8696

> <b_lp_Chiralities_Consistent>
1

> <s_lp_Variant>
AV-unprocessed.smi:1554-13

> <Gold.Version>
5.8.1

> <Gold.Id.Protein>
6NUR|6NUR_protein|mol2

> <Gold.PLP.Fitness>
50.8457

> <Gold.PLP.PLP>
-44.1841

> <Gold.PLP.part.hbond>
-2.7380

> <Gold.PLP.part.metal>
0.0000

> <Gold.PLP.part.buried>
-6.7764

> <Gold.PLP.part.nonpolar>
-35.2649

> <Gold.PLP.part.repulsive>
0.0465

> <Gold.PLP.ligand.clash>
0.0000

> <Gold.PLP.ligand.torsion>
0.8338

> <Gold.PLP.Chemscore.Hbond>
2.7510

> <Gold.PLP.Chemscore.CHOScore>
0.0000

> <Gold.PLP.Chemscore.Metal>
0.0000

> <Gold.Chemscore.Hbonds>
donor molecule, donor type, donor heavy atom, donor atom, acceptor molecule, acceptor atom, score
      L1  H     5    48       P1  8028  2.00
      P1  H  6896  6907       L1    10  0.62

> <Gold.PLP.Chemscore.Internal.Correction>
0.0761

> <Gold.Rescore>
     Score         DG    S(hbond)    S(metal)    S(lipo)     H(rot)  DE(clash)    DE(int)     intcor
     16.54     -18.27       1.34        0.00     115.72       2.04       0.07       1.66       ----

> <Gold.Chemscore.Fitness>
16.5368

> <Gold.Chemscore.DG>
-18.2690

> <Gold.Chemscore.ZeroCoef>
-5.4800

> <Gold.Chemscore.Hbond>
1.3412

> <Gold.Chemscore.Metal>
0.0000

> <Gold.Chemscore.Lipo>
115.7159

> <Gold.Chemscore.Internal_Hbond>
0.0000

> <Gold.Chemscore.DEClash>
0.0689

> <Gold.Chemscore.DEInternal>
1.6633

> <Gold.Chemscore.Rot>
2.0427

> <Gold.Chemscore.Internal.Correction>
   9.000000E+99

> <Gold.Chemscore.Hbonds>
donor molecule, donor type, donor heavy atom, donor atom, acceptor molecule, acceptor atom, score
      L1  H     5    48       P1  8028  0.89
      P1  H  6896  6907       L1    10  0.11

> <Gold.Chemscore.Hbond.Weighted>
-4.4797

> <Gold.Chemscore.Metal.Weighted>
-0.0000

> <Gold.Chemscore.Lipo.Weighted>
-13.5388

> <Gold.Chemscore.Internal_Hbond.Weighted>
0.0000

> <Gold.Chemscore.DEClash.Weighted>
0.0689

> <Gold.Chemscore.DEInternal.Weighted>
1.6633

> <Gold.Chemscore.Rot.Weighted>
5.2294

> <Gold.Chemscore.Internal.Correction.Weighted>
   9.000000E+99

> <Gold.Protein.RotatedTorsions>
[ 6907 6896 6895 6894 ] final  -10.15 input  -60.11 | X-H torsion
[ 7974 7965 7964 7962 ] final -133.08 input  175.53 | X-H torsion
[ 8008 7997 7996 7995 ] final   78.33 input   59.86 | X-H torsion
[ 10167 10162 10161 10158 ] final  -95.18 input  -65.29 | X-H torsion
[ 10718 10713 10712 10709 ] final  127.75 input   66.30 | X-H torsion
[ 10763 10752 10751 10750 ] final  -93.33 input  -60.55 | X-H torsion
[ 11005 11000 10999 10996 ] final  175.01 input  -57.11 | X-H torsion

> <Gold.Protein.ActiveResidues>
 VAL166  LYS551  ARG553  GLY616  TRP617  ASP618  TYR619  PRO620  LYS621  CYS622 
 ASP623  PHE694  ASN695  SER759  ASP760  ASP761  ALA762  ILE779  LEU786  VAL792 
 PHE793  MET794  SER795  GLU796  ALA797  LYS798  CYS799  TRP800  GLU811  SER814 

> <Gold.Protein.RotatedAtoms>
  151.4065  135.0979  159.9571 H   0  0  0  0  0  0  0  0  0  0  0  0  # atno 6907 bound_to 6896
  152.5034  133.8838  159.7370 H   0  0  0  0  0  0  0  0  0  0  0  0  # atno 6908 bound_to 6896
  150.9323  133.6695  159.2836 H   0  0  0  0  0  0  0  0  0  0  0  0  # atno 6909 bound_to 6896
  144.9226  140.7032  143.4956 H   0  0  0  0  0  0  0  0  0  0  0  0  # atno 7974 bound_to 7965
  155.8542  140.3456  155.5713 H   0  0  0  0  0  0  0  0  0  0  0  0  # atno 8008 bound_to 7997
  155.8004  140.0884  157.1979 H   0  0  0  0  0  0  0  0  0  0  0  0  # atno 8009 bound_to 7997
  154.4009  140.1466  156.3255 H   0  0  0  0  0  0  0  0  0  0  0  0  # atno 8010 bound_to 7997
  140.3068  143.3129  152.0191 H   0  0  0  0  0  0  0  0  0  0  0  0  # atno 10167 bound_to 10162
  157.5305  131.1098  150.9016 H   0  0  0  0  0  0  0  0  0  0  0  0  # atno 10718 bound_to 10713
  154.6948  135.5198  153.8443 H   0  0  0  0  0  0  0  0  0  0  0  0  # atno 10763 bound_to 10752
  153.0659  135.6584  154.0365 H   0  0  0  0  0  0  0  0  0  0  0  0  # atno 10764 bound_to 10752
  154.0233  135.2991  155.3358 H   0  0  0  0  0  0  0  0  0  0  0  0  # atno 10765 bound_to 10752
  140.3576  134.7141  157.4309 H   0  0  0  0  0  0  0  0  0  0  0  0  # atno 11005 bound_to 11000
  145.3271  139.1770  143.4556 LP  0  0  0  0  0  0  0  0  0  0  0  0  # atno 17320 bound_to 7965
  146.3211  140.3296  142.8639 LP  0  0  0  0  0  0  0  0  0  0  0  0  # atno 17321 bound_to 7965
  139.4902  144.6415  151.6867 LP  0  0  0  0  0  0  0  0  0  0  0  0  # atno 17342 bound_to 10162
  140.5603  144.0279  150.6167 LP  0  0  0  0  0  0  0  0  0  0  0  0  # atno 17343 bound_to 10162
  156.9599  130.5451  149.5285 LP  0  0  0  0  0  0  0  0  0  0  0  0  # atno 17370 bound_to 10713
  156.0419  130.5500  150.8791 LP  0  0  0  0  0  0  0  0  0  0  0  0  # atno 17371 bound_to 10713
  140.0653  134.5939  155.8703 LP  0  0  0  0  0  0  0  0  0  0  0  0  # atno 17394 bound_to 11000
  141.1994  133.6606  156.5841 LP  0  0  0  0  0  0  0  0  0  0  0  0  # atno 17395 bound_to 11000

$$$$
