AV-unprocessed.smi:125|AV-procd|sdf|1150|dock1
  -GOLD-   2262018283D 1   1.00000     0.00000
 Structure written by MMmdl.
 59 62  0  0  0  0  0  0  0  0  1 V2000
  149.3393  131.3680  155.7804 C   0  0  0  0  0  0  0  0  0  0  0  0
  149.8825  132.7792  155.6272 C   0  0  0  0  0  0  0  0  0  0  0  0
  149.1268  133.7136  154.8879 C   0  0  0  0  0  0  0  0  0  0  0  0
  149.5827  135.0334  154.7118 C   0  0  0  0  0  0  0  0  0  0  0  0
  150.8074  135.4457  155.2857 C   0  0  0  0  0  0  0  0  0  0  0  0
  151.3476  136.7506  155.1283 N   0  0  0  0  0  0  0  0  0  0  0  0
  152.3476  137.3339  155.8136 C   0  0  0  0  0  0  0  0  0  0  0  0
  153.0050  136.7784  156.6949 O   0  0  0  0  0  0  0  0  0  0  0  0
  152.6602  138.7806  155.3990 C   0  0  0  0  0  0  0  0  0  0  0  0
  151.8426  139.7918  156.1052 N   0  0  0  0  0  0  0  0  0  0  0  0
  150.6816  140.2929  155.4656 C   0  0  0  0  0  0  0  0  0  0  0  0
  150.3519  139.9030  154.3445 O   0  0  0  0  0  0  0  0  0  0  0  0
  149.9218  141.2813  156.2228 C   0  0  0  0  0  0  0  0  0  0  0  0
  148.8156  141.8241  155.6867 F   0  0  0  0  0  0  0  0  0  0  0  0
  150.3148  141.6645  157.4548 C   0  0  0  0  0  0  0  0  0  0  0  0
  151.4404  141.1529  158.0747 N   0  0  0  0  0  0  0  0  0  0  0  0
  151.8550  141.6046  159.4583 C   0  0  1  0  0  0  0  0  0  0  0  0
  153.2209  142.2973  159.4010 C   0  0  0  0  0  0  0  0  0  0  0  0
  152.8242  143.7474  159.2305 C   0  0  0  0  0  0  0  0  0  0  0  0
  151.5531  143.8186  160.0696 C   0  0  0  0  0  0  0  0  0  0  0  0
  150.9315  142.5424  159.9323 O   0  0  0  0  0  0  0  0  0  0  0  0
  152.2361  140.2003  157.4017 C   0  0  0  0  0  0  0  0  0  0  0  0
  153.2487  139.7387  157.9327 O   0  0  0  0  0  0  0  0  0  0  0  0
  151.5731  134.5132  156.0127 C   0  0  0  0  0  0  0  0  0  0  0  0
  151.1179  133.1897  156.1924 C   0  0  0  0  0  0  0  0  0  0  0  0
  152.1686  132.0643  157.1275 S   0  0  0  0  0  0  0  0  0  0  0  0
  153.2824  132.8180  157.7250 O   0  0  0  0  0  0  0  0  0  0  0  0
  151.3041  131.2358  157.9823 O   0  0  0  0  0  0  0  0  0  0  0  0
  152.8371  131.0582  155.8868 N   0  0  0  0  0  0  0  0  0  0  0  0
  152.0961  129.8696  155.4356 C   0  0  0  0  0  0  0  0  0  0  0  0
  152.6265  129.3745  154.0799 C   0  0  0  0  0  0  0  0  0  0  0  0
  154.0340  129.1954  154.1349 O   0  0  0  0  0  0  0  0  0  0  0  0
  154.7050  130.4201  154.3909 C   0  0  0  0  0  0  0  0  0  0  0  0
  154.2997  130.9653  155.7690 C   0  0  0  0  0  0  0  0  0  0  0  0
  148.3903  131.2536  155.2562 H   0  0  0  0  0  0  0  0  0  0  0  0
  149.1604  131.1312  156.8284 H   0  0  0  0  0  0  0  0  0  0  0  0
  150.0277  130.6348  155.3636 H   0  0  0  0  0  0  0  0  0  0  0  0
  148.1879  133.4203  154.4413 H   0  0  0  0  0  0  0  0  0  0  0  0
  148.9837  135.7067  154.1185 H   0  0  0  0  0  0  0  0  0  0  0  0
  150.9669  137.2874  154.3625 H   0  0  0  0  0  0  0  0  0  0  0  0
  153.7256  138.9610  155.5514 H   0  0  0  0  0  0  0  0  0  0  0  0
  152.5326  138.8659  154.3187 H   0  0  0  0  0  0  0  0  0  0  0  0
  149.7164  142.4048  157.9643 H   0  0  0  0  0  0  0  0  0  0  0  0
  151.8326  140.7135  160.0878 H   0  0  0  0  0  0  0  0  0  0  0  0
  153.7271  142.1485  160.3555 H   0  0  0  0  0  0  0  0  0  0  0  0
  153.8529  141.9109  158.6006 H   0  0  0  0  0  0  0  0  0  0  0  0
  153.5942  144.4446  159.5616 H   0  0  0  0  0  0  0  0  0  0  0  0
  152.6003  143.9569  158.1839 H   0  0  0  0  0  0  0  0  0  0  0  0
  151.8013  143.9725  161.1205 H   0  0  0  0  0  0  0  0  0  0  0  0
  150.8878  144.6234  159.7562 H   0  0  0  0  0  0  0  0  0  0  0  0
  152.5168  134.8238  156.4357 H   0  0  0  0  0  0  0  0  0  0  0  0
  152.1966  129.0880  156.1891 H   0  0  0  0  0  0  0  0  0  0  0  0
  151.0343  130.0989  155.3486 H   0  0  0  0  0  0  0  0  0  0  0  0
  152.1591  128.4242  153.8215 H   0  0  0  0  0  0  0  0  0  0  0  0
  152.3702  130.0777  153.2857 H   0  0  0  0  0  0  0  0  0  0  0  0
  155.7807  130.2468  154.3600 H   0  0  0  0  0  0  0  0  0  0  0  0
  154.4791  131.1444  153.6065 H   0  0  0  0  0  0  0  0  0  0  0  0
  154.7460  131.9469  155.9294 H   0  0  0  0  0  0  0  0  0  0  0  0
  154.6736  130.3106  156.5569 H   0  0  0  0  0  0  0  0  0  0  0  0
  1  2  1  0  0  0  0
  1 35  1  0  0  0  0
  1 36  1  0  0  0  0
  1 37  1  0  0  0  0
  2 25  1  0  0  0  0
  2  3  2  0  0  0  0
  3  4  1  0  0  0  0
  3 38  1  0  0  0  0
  4  5  2  0  0  0  0
  4 39  1  0  0  0  0
  5  6  1  0  0  0  0
  5 24  1  0  0  0  0
  6  7  1  0  0  0  0
  6 40  1  0  0  0  0
  7  8  2  0  0  0  0
  7  9  1  0  0  0  0
  9 10  1  0  0  0  0
  9 41  1  0  0  0  0
  9 42  1  0  0  0  0
 10 22  1  0  0  0  0
 10 11  1  0  0  0  0
 11 12  2  0  0  0  0
 11 13  1  0  0  0  0
 13 14  1  0  0  0  0
 13 15  2  0  0  0  0
 15 16  1  0  0  0  0
 15 43  1  0  0  0  0
 16 17  1  0  0  0  0
 16 22  1  0  0  0  0
 17 21  1  0  0  0  0
 17 18  1  0  0  0  0
 17 44  1  0  0  0  0
 18 19  1  0  0  0  0
 18 45  1  0  0  0  0
 18 46  1  0  0  0  0
 19 20  1  0  0  0  0
 19 47  1  0  0  0  0
 19 48  1  0  0  0  0
 20 21  1  0  0  0  0
 20 49  1  0  0  0  0
 20 50  1  0  0  0  0
 22 23  2  0  0  0  0
 24 25  2  0  0  0  0
 24 51  1  0  0  0  0
 25 26  1  0  0  0  0
 26 27  2  0  0  0  0
 26 28  2  0  0  0  0
 26 29  1  0  0  0  0
 29 34  1  0  0  0  0
 29 30  1  0  0  0  0
 30 31  1  0  0  0  0
 30 52  1  0  0  0  0
 30 53  1  0  0  0  0
 31 32  1  0  0  0  0
 31 54  1  0  0  0  0
 31 55  1  0  0  0  0
 32 33  1  0  0  0  0
 33 34  1  0  0  0  0
 33 56  1  0  0  0  0
 33 57  1  0  0  0  0
 34 58  1  0  0  0  0
 34 59  1  0  0  0  0
M  END
> <s_m_source_file>
AV-unprocessed.smi

> <i_m_source_file_index>
125

> <i_lp_mmshare_version>
43012

> <i_f3d_flags>
0

> <s_epik_input>
W0NIMl0xW0NIMl1PW0NIMl1bQ0gyXU4xUyg9TykoPU8pYzJbY0hdYyhbY0hdW2NIXWMyW0NIM10pW05IXUMoPU8pW0NIMl1uM2MoPU8pYyhGKVtjSF1uKGMzPU8pW0NAQEhdNFtDSDJdW0NIMl1bQ0gyXU80

> <s_epik_cmdline>
J2VwaWtfcHl0aG9uJywgJy1waCcsICc3LjAnLCAnLXRuJywgJzgnLCAnLW1hJywgJzIwMCcsICctbWV0YWxfYmluZGluZycsICctaW1hZScsICc8aW5maWxlLm1hZT4nLCAnLW9tYWUnLCAnPG91dGZpbGUubWFlPic=

> <r_lp_tautomer_probability>
1

> <r_epik_Ionization_Penalty>
4.12263e-06

> <r_epik_Ionization_Penalty_Charging>
3.88729e-08

> <r_epik_Ionization_Penalty_Neutral>
4.08376e-06

> <r_epik_State_Penalty>
-0

> <r_epik_Charging_Adjusted_Penalty>
3.88729e-08

> <i_epik_Tot_Q>
0

> <i_epik_Tot_abs_Q>
0

> <r_epik_Metal_State_Penalty>
-0

> <b_epik_Metal_Only>
0

> <s_epik_Chemistry_Notes>
This compound contains an acetal/aminal-like group ( X-CH(R)-Y where X, Y are N, S, or O) that may be acid/base labile, releasing an aldehyde.

> <s_lp_Force_Field>
OPLS_2005

> <r_lp_Energy>
38.7063

> <b_lp_Chiralities_Consistent>
1

> <s_lp_Variant>
AV-unprocessed.smi:125-2

> <Gold.Version>
5.8.1

> <Gold.Id.Protein>
6NUR|6NUR_protein|mol2

> <Gold.PLP.Fitness>
59.1193

> <Gold.PLP.PLP>
-51.7862

> <Gold.PLP.part.hbond>
-5.0975

> <Gold.PLP.part.metal>
0.0000

> <Gold.PLP.part.buried>
1.4928

> <Gold.PLP.part.nonpolar>
-49.0904

> <Gold.PLP.part.repulsive>
0.6165

> <Gold.PLP.ligand.clash>
0.0000

> <Gold.PLP.ligand.torsion>
2.8031

> <Gold.PLP.Chemscore.Hbond>
2.9108

> <Gold.PLP.Chemscore.CHOScore>
0.0000

> <Gold.PLP.Chemscore.Metal>
0.0000

> <Gold.Chemscore.Hbonds>
donor molecule, donor type, donor heavy atom, donor atom, acceptor molecule, acceptor atom, score
      P1  H  6896  6908       L1    27  0.69
      P1  H  7989  7998       L1    12  0.75
      P1  H  7997  8008       L1    23  1.00
      P1  H 10752 10765       L1     8  0.48

> <Gold.PLP.Chemscore.Internal.Correction>
4.2069

> <Gold.Rescore>
     Score         DG    S(hbond)    S(metal)    S(lipo)     H(rot)  DE(clash)    DE(int)     intcor
     14.06     -19.92       1.84        0.00     106.94       1.65       0.05       5.81       ----

> <Gold.Chemscore.Fitness>
14.0629

> <Gold.Chemscore.DG>
-19.9157

> <Gold.Chemscore.ZeroCoef>
-5.4800

> <Gold.Chemscore.Hbond>
1.8413

> <Gold.Chemscore.Metal>
0.0000

> <Gold.Chemscore.Lipo>
106.9426

> <Gold.Chemscore.Internal_Hbond>
0.0000

> <Gold.Chemscore.DEClash>
0.0466

> <Gold.Chemscore.DEInternal>
5.8063

> <Gold.Chemscore.Rot>
1.6510

> <Gold.Chemscore.Internal.Correction>
   9.000000E+99

> <Gold.Chemscore.Hbonds>
donor molecule, donor type, donor heavy atom, donor atom, acceptor molecule, acceptor atom, score
      P1  H  6896  6908       L1    27  0.13
      P1  H  7989  7998       L1    12  0.09
      P1  H  7997  8008       L1    23  0.55
      P1  H 10752 10765       L1     8  0.03

> <Gold.Chemscore.Hbond.Weighted>
-6.1499

> <Gold.Chemscore.Metal.Weighted>
-0.0000

> <Gold.Chemscore.Lipo.Weighted>
-12.5123

> <Gold.Chemscore.Internal_Hbond.Weighted>
0.0000

> <Gold.Chemscore.DEClash.Weighted>
0.0466

> <Gold.Chemscore.DEInternal.Weighted>
5.8063

> <Gold.Chemscore.Rot.Weighted>
4.2265

> <Gold.Chemscore.Internal.Correction.Weighted>
   9.000000E+99

> <Gold.Protein.RotatedTorsions>
[ 6907 6896 6895 6894 ] final   20.96 input  -60.11 | X-H torsion
[ 7974 7965 7964 7962 ] final  143.81 input  175.53 | X-H torsion
[ 8008 7997 7996 7995 ] final  -75.11 input   59.86 | X-H torsion
[ 10167 10162 10161 10158 ] final -125.84 input  -65.29 | X-H torsion
[ 10718 10713 10712 10709 ] final  -68.00 input   66.30 | X-H torsion
[ 10763 10752 10751 10750 ] final -110.68 input  -60.55 | X-H torsion
[ 11005 11000 10999 10996 ] final  108.50 input  -57.11 | X-H torsion

> <Gold.Protein.ActiveResidues>
 VAL166  LYS551  ARG553  GLY616  TRP617  ASP618  TYR619  PRO620  LYS621  CYS622 
 ASP623  PHE694  ASN695  SER759  ASP760  ASP761  ALA762  ILE779  LEU786  VAL792 
 PHE793  MET794  SER795  GLU796  ALA797  LYS798  CYS799  TRP800  GLU811  SER814 

> <Gold.Protein.RotatedAtoms>
  151.9044  135.0365  160.0508 H   0  0  0  0  0  0  0  0  0  0  0  0  # atno 6907 bound_to 6896
  152.2332  133.5070  159.5236 H   0  0  0  0  0  0  0  0  0  0  0  0  # atno 6908 bound_to 6896
  150.7031  134.1105  159.4041 H   0  0  0  0  0  0  0  0  0  0  0  0  # atno 6909 bound_to 6896
  144.8889  139.5587  143.5808 H   0  0  0  0  0  0  0  0  0  0  0  0  # atno 7974 bound_to 7965
  154.5388  140.0750  156.8475 H   0  0  0  0  0  0  0  0  0  0  0  0  # atno 8008 bound_to 7997
  155.3222  140.3397  155.4223 H   0  0  0  0  0  0  0  0  0  0  0  0  # atno 8009 bound_to 7997
  156.1855  140.1667  156.8180 H   0  0  0  0  0  0  0  0  0  0  0  0  # atno 8010 bound_to 7997
  139.9778  143.5775  152.2389 H   0  0  0  0  0  0  0  0  0  0  0  0  # atno 10167 bound_to 10162
  156.0528  130.4287  150.1937 H   0  0  0  0  0  0  0  0  0  0  0  0  # atno 10718 bound_to 10713
  154.8261  135.4555  154.0923 H   0  0  0  0  0  0  0  0  0  0  0  0  # atno 10763 bound_to 10752
  153.2236  135.6897  153.7978 H   0  0  0  0  0  0  0  0  0  0  0  0  # atno 10764 bound_to 10752
  153.7386  135.3316  155.3276 H   0  0  0  0  0  0  0  0  0  0  0  0  # atno 10765 bound_to 10752
  139.8845  134.9432  156.5982 H   0  0  0  0  0  0  0  0  0  0  0  0  # atno 11005 bound_to 11000
  146.3042  139.7524  142.9069 LP  0  0  0  0  0  0  0  0  0  0  0  0  # atno 17320 bound_to 7965
  145.3818  141.0359  143.3173 LP  0  0  0  0  0  0  0  0  0  0  0  0  # atno 17321 bound_to 7965
  139.6432  144.7656  151.2296 LP  0  0  0  0  0  0  0  0  0  0  0  0  # atno 17342 bound_to 10162
  140.7499  143.6282  150.8448 LP  0  0  0  0  0  0  0  0  0  0  0  0  # atno 17343 bound_to 10162
  157.0017  130.9924  151.3389 LP  0  0  0  0  0  0  0  0  0  0  0  0  # atno 17370 bound_to 10713
  157.5470  130.8157  149.8098 LP  0  0  0  0  0  0  0  0  0  0  0  0  # atno 17371 bound_to 10713
  140.7904  133.8587  155.8641 LP  0  0  0  0  0  0  0  0  0  0  0  0  # atno 17394 bound_to 11000
  140.9682  134.1566  157.4598 LP  0  0  0  0  0  0  0  0  0  0  0  0  # atno 17395 bound_to 11000

$$$$
