AV-unprocessed.smi:1712|AV-procd|sdf|6902|dock4
  -GOLD-   22720 8103D 1   1.00000     0.00000
 Structure written by MMmdl.
 37 38  0  0  0  0  0  0  0  0  1 V2000
  147.1747  139.7733  153.1824 C   0  0  0  0  0  0  0  0  0  0  0  0
  147.3684  139.3401  154.6582 C   0  0  1  0  0  0  0  0  0  0  0  0
  146.7073  137.9484  154.8722 C   0  0  0  0  0  0  0  0  0  0  0  0
  146.7495  137.1018  153.6816 N   0  0  0  0  0  0  0  0  0  0  0  0
  145.6870  136.5524  153.0751 C   0  0  0  0  0  0  0  0  0  0  0  0
  144.5279  136.6924  153.4657 O   0  0  0  0  0  0  0  0  0  0  0  0
  146.0573  135.8345  152.0021 N   0  0  0  0  0  0  0  0  0  0  0  0
  145.2197  135.0900  151.1335 C   0  0  0  0  0  0  0  0  0  0  0  0
  145.5160  133.7899  150.6417 C   0  0  0  0  0  0  0  0  0  0  0  0
  144.5506  133.3394  149.8532 N   0  0  0  0  0  0  0  0  0  0  0  0
  143.6405  134.3394  149.8378 N   0  0  0  0  0  0  0  0  0  0  0  0
  144.0055  135.4250  150.6030 C   0  0  0  0  0  0  0  0  0  0  0  0
  148.7870  139.3802  155.0874 N   0  0  0  0  0  0  0  0  0  0  0  0
  149.6704  138.6140  154.2003 C   0  0  0  0  0  0  0  0  0  0  0  0
  151.1469  138.6744  154.6281 C   0  0  0  0  0  0  0  0  0  0  0  0
  151.5732  140.0280  154.6860 O   0  0  0  0  0  0  0  0  0  0  0  0
  150.7946  140.7924  155.5959 C   0  0  0  0  0  0  0  0  0  0  0  0
  149.3145  140.7472  155.1786 C   0  0  0  0  0  0  0  0  0  0  0  0
  142.7844  134.2669  149.3065 H   0  0  0  0  0  0  0  0  0  0  0  0
  146.1315  139.7329  152.8722 H   0  0  0  0  0  0  0  0  0  0  0  0
  147.7434  139.1345  152.5057 H   0  0  0  0  0  0  0  0  0  0  0  0
  147.4753  140.8049  153.0070 H   0  0  0  0  0  0  0  0  0  0  0  0
  146.8136  140.0527  155.2708 H   0  0  0  0  0  0  0  0  0  0  0  0
  147.1559  137.4500  155.7333 H   0  0  0  0  0  0  0  0  0  0  0  0
  145.6469  138.0461  155.0960 H   0  0  0  0  0  0  0  0  0  0  0  0
  147.6618  136.9253  153.2873 H   0  0  0  0  0  0  0  0  0  0  0  0
  147.0437  135.8105  151.7885 H   0  0  0  0  0  0  0  0  0  0  0  0
  146.3814  133.1706  150.8271 H   0  0  0  0  0  0  0  0  0  0  0  0
  143.3841  136.3035  150.6939 H   0  0  0  0  0  0  0  0  0  0  0  0
  149.3880  137.5630  154.1914 H   0  0  0  0  0  0  0  0  0  0  0  0
  149.5743  138.9784  153.1766 H   0  0  0  0  0  0  0  0  0  0  0  0
  151.2877  138.1977  155.5994 H   0  0  0  0  0  0  0  0  0  0  0  0
  151.7701  138.1360  153.9141 H   0  0  0  0  0  0  0  0  0  0  0  0
  150.9220  140.4085  156.6092 H   0  0  0  0  0  0  0  0  0  0  0  0
  151.1562  141.8207  155.5961 H   0  0  0  0  0  0  0  0  0  0  0  0
  149.1942  141.2549  154.2204 H   0  0  0  0  0  0  0  0  0  0  0  0
  148.7630  141.3260  155.9166 H   0  0  0  0  0  0  0  0  0  0  0  0
  1  2  1  0  0  0  0
  1 20  1  0  0  0  0
  1 21  1  0  0  0  0
  1 22  1  0  0  0  0
  2  3  1  0  0  0  0
  2 13  1  0  0  0  0
  2 23  1  0  0  0  0
  3  4  1  0  0  0  0
  3 24  1  0  0  0  0
  3 25  1  0  0  0  0
  4  5  1  0  0  0  0
  4 26  1  0  0  0  0
  5  6  2  0  0  0  0
  5  7  1  0  0  0  0
  7  8  1  0  0  0  0
  7 27  1  0  0  0  0
  8 12  2  0  0  0  0
  8  9  1  0  0  0  0
  9 10  2  0  0  0  0
  9 28  1  0  0  0  0
 10 11  1  0  0  0  0
 11 19  1  0  0  0  0
 11 12  1  0  0  0  0
 12 29  1  0  0  0  0
 13 18  1  0  0  0  0
 13 14  1  0  0  0  0
 14 15  1  0  0  0  0
 14 30  1  0  0  0  0
 14 31  1  0  0  0  0
 15 16  1  0  0  0  0
 15 32  1  0  0  0  0
 15 33  1  0  0  0  0
 16 17  1  0  0  0  0
 17 18  1  0  0  0  0
 17 34  1  0  0  0  0
 17 35  1  0  0  0  0
 18 36  1  0  0  0  0
 18 37  1  0  0  0  0
M  END
> <s_m_source_file>
AV-unprocessed.smi

> <i_m_source_file_index>
1712

> <i_lp_mmshare_version>
43012

> <i_f3d_flags>
0

> <s_epik_input>
W0NIMl0xW0NIMl1PW0NIMl1bQ0gyXU4xW0NASF0oW0NIM10pW0NIMl1bTkhdQyg9TylbTkhdYzJbY0hdbltuSF1bY0hdMg==

> <s_epik_cmdline>
J2VwaWtfcHl0aG9uJywgJy1waCcsICc3LjAnLCAnLXRuJywgJzgnLCAnLW1hJywgJzIwMCcsICctbWV0YWxfYmluZGluZycsICctaW1hZScsICc8aW5maWxlLm1hZT4nLCAnLW9tYWUnLCAnPG91dGZpbGUubWFlPic=

> <r_lp_tautomer_probability>
0.5

> <r_epik_Ionization_Penalty>
0.242772

> <r_epik_Ionization_Penalty_Charging>
0

> <r_epik_Ionization_Penalty_Neutral>
0.242772

> <r_epik_State_Penalty>
0.233765

> <r_epik_Charging_Adjusted_Penalty>
0.233765

> <i_epik_Tot_Q>
0

> <i_epik_Tot_abs_Q>
0

> <r_epik_Metal_State_Penalty>
0.233764

> <b_epik_Metal_Only>
0

> <s_lp_Force_Field>
OPLS_2005

> <r_lp_Energy>
31.3121

> <b_lp_Chiralities_Consistent>
1

> <s_lp_Variant>
AV-unprocessed.smi:1712-2

> <Gold.Version>
5.8.1

> <Gold.Id.Protein>
6NUR|6NUR_protein|mol2

> <Gold.PLP.Fitness>
38.7139

> <Gold.PLP.PLP>
-26.2462

> <Gold.PLP.part.hbond>
-4.2916

> <Gold.PLP.part.metal>
0.0000

> <Gold.PLP.part.buried>
-3.4298

> <Gold.PLP.part.nonpolar>
-20.0187

> <Gold.PLP.part.repulsive>
0.9135

> <Gold.PLP.ligand.clash>
0.0000

> <Gold.PLP.ligand.torsion>
0.8614

> <Gold.PLP.Chemscore.Hbond>
3.7137

> <Gold.PLP.Chemscore.CHOScore>
1.0000

> <Gold.PLP.Chemscore.Metal>
0.0000

> <Gold.Chemscore.Hbonds>
donor molecule, donor type, donor heavy atom, donor atom, acceptor molecule, acceptor atom, score
      L1  H     4    26       P1  7948  0.96
      L1  H     7    27       P1  7948  1.00
      L1  H    11    19       P1 10186  0.80
      P1  H  7989  7998       L1    16  0.80
      L1  C    12    29       P1 10171  0.95

> <Gold.PLP.Chemscore.Internal.Correction>
0.0495

> <Gold.Rescore>
     Score         DG    S(hbond)    S(metal)    S(lipo)     H(rot)  DE(clash)    DE(int)     intcor
     18.19     -19.29       3.40        0.00      56.60       1.63       0.06       1.04       ----

> <Gold.Chemscore.Fitness>
18.1851

> <Gold.Chemscore.DG>
-19.2881

> <Gold.Chemscore.ZeroCoef>
-5.4800

> <Gold.Chemscore.Hbond>
3.4018

> <Gold.Chemscore.Metal>
0.0000

> <Gold.Chemscore.Lipo>
56.5978

> <Gold.Chemscore.Internal_Hbond>
0.0000

> <Gold.Chemscore.DEClash>
0.0581

> <Gold.Chemscore.DEInternal>
1.0450

> <Gold.Chemscore.Rot>
1.6311

> <Gold.Chemscore.Internal.Correction>
   9.000000E+99

> <Gold.Chemscore.Hbonds>
donor molecule, donor type, donor heavy atom, donor atom, acceptor molecule, acceptor atom, score
      L1  H     4    26       P1  7948  0.89
      L1  H     7    27       P1  7948  0.99
      L1  H    11    19       P1 10186  0.80
      P1  H  7989  7998       L1    16  0.34

> <Gold.Chemscore.Hbond.Weighted>
-11.3619

> <Gold.Chemscore.Metal.Weighted>
-0.0000

> <Gold.Chemscore.Lipo.Weighted>
-6.6219

> <Gold.Chemscore.Internal_Hbond.Weighted>
0.0000

> <Gold.Chemscore.DEClash.Weighted>
0.0581

> <Gold.Chemscore.DEInternal.Weighted>
1.0450

> <Gold.Chemscore.Rot.Weighted>
4.1757

> <Gold.Chemscore.Internal.Correction.Weighted>
   9.000000E+99

> <Gold.Protein.RotatedTorsions>
[ 6907 6896 6895 6894 ] final  139.67 input  -60.11 | X-H torsion
[ 7974 7965 7964 7962 ] final  -42.16 input  175.53 | X-H torsion
[ 8008 7997 7996 7995 ] final -105.52 input   59.86 | X-H torsion
[ 10167 10162 10161 10158 ] final   26.96 input  -65.29 | X-H torsion
[ 10718 10713 10712 10709 ] final   36.26 input   66.30 | X-H torsion
[ 10763 10752 10751 10750 ] final -164.42 input  -60.55 | X-H torsion
[ 11005 11000 10999 10996 ] final -164.79 input  -57.11 | X-H torsion

> <Gold.Protein.ActiveResidues>
 VAL166  LYS551  ARG553  GLY616  TRP617  ASP618  TYR619  PRO620  LYS621  CYS622 
 ASP623  PHE694  ASN695  SER759  ASP760  ASP761  ALA762  ILE779  LEU786  VAL792 
 PHE793  MET794  SER795  GLU796  ALA797  LYS798  CYS799  TRP800  GLU811  SER814 

> <Gold.Protein.RotatedAtoms>
  152.2522  133.5224  159.5331 H   0  0  0  0  0  0  0  0  0  0  0  0  # atno 6907 bound_to 6896
  150.7097  134.0945  159.3952 H   0  0  0  0  0  0  0  0  0  0  0  0  # atno 6908 bound_to 6896
  151.8864  135.0433  160.0544 H   0  0  0  0  0  0  0  0  0  0  0  0  # atno 6909 bound_to 6896
  146.0142  140.6927  142.9209 H   0  0  0  0  0  0  0  0  0  0  0  0  # atno 7974 bound_to 7965
  154.9011  140.0413  157.1893 H   0  0  0  0  0  0  0  0  0  0  0  0  # atno 8008 bound_to 7997
  154.8443  140.2919  155.5618 H   0  0  0  0  0  0  0  0  0  0  0  0  # atno 8009 bound_to 7997
  156.2993  140.2477  156.3391 H   0  0  0  0  0  0  0  0  0  0  0  0  # atno 8010 bound_to 7997
  140.4979  144.0363  150.6321 H   0  0  0  0  0  0  0  0  0  0  0  0  # atno 10167 bound_to 10162
  157.3327  130.7506  149.6858 H   0  0  0  0  0  0  0  0  0  0  0  0  # atno 10718 bound_to 10713
  154.7030  135.2991  154.9313 H   0  0  0  0  0  0  0  0  0  0  0  0  # atno 10763 bound_to 10752
  154.0239  135.6679  153.4779 H   0  0  0  0  0  0  0  0  0  0  0  0  # atno 10764 bound_to 10752
  153.0695  135.5069  154.8184 H   0  0  0  0  0  0  0  0  0  0  0  0  # atno 10765 bound_to 10752
  140.5829  134.5123  157.5181 H   0  0  0  0  0  0  0  0  0  0  0  0  # atno 11005 bound_to 11000
  144.6964  140.3452  143.7192 LP  0  0  0  0  0  0  0  0  0  0  0  0  # atno 17320 bound_to 7965
  145.7294  139.1732  143.2439 LP  0  0  0  0  0  0  0  0  0  0  0  0  # atno 17321 bound_to 7965
  140.3650  143.2886  152.0341 LP  0  0  0  0  0  0  0  0  0  0  0  0  # atno 17342 bound_to 10162
  139.4865  144.6274  151.7138 LP  0  0  0  0  0  0  0  0  0  0  0  0  # atno 17343 bound_to 10162
  155.9698  130.4190  150.4356 LP  0  0  0  0  0  0  0  0  0  0  0  0  # atno 17370 bound_to 10713
  157.2391  131.0521  151.2447 LP  0  0  0  0  0  0  0  0  0  0  0  0  # atno 17371 bound_to 10713
  139.9309  134.7966  156.0935 LP  0  0  0  0  0  0  0  0  0  0  0  0  # atno 17394 bound_to 11000
  141.0984  133.6686  156.2699 LP  0  0  0  0  0  0  0  0  0  0  0  0  # atno 17395 bound_to 11000

$$$$
