AV-unprocessed.smi:79|AV-procd|sdf|783|dock8
  -GOLD-   2262017143D 1   1.00000     0.00000
 Structure written by MMmdl.
 56 59  0  0  0  0  0  0  0  0  2 V2000
  143.9570  132.3392  150.7336 C   0  0  0  0  0  0  0  0  0  0  0  0
  145.3770  132.3639  151.3186 C   0  0  2  0  0  0  0  0  0  0  0  0
  146.0330  131.1737  150.9362 O   0  0  0  0  0  0  0  0  0  0  0  0
  145.3956  132.4561  152.8579 C   0  0  0  0  0  0  0  0  0  0  0  0
  146.7255  132.1384  153.4379 N   0  3  1  0  0  0  0  0  0  0  0  0
  147.8174  132.9277  152.8123 C   0  0  0  0  0  0  0  0  0  0  0  0
  149.1923  132.4979  153.3510 C   0  0  0  0  0  0  0  0  0  0  0  0
  149.2150  132.5591  154.8107 N   0  0  0  0  0  0  0  0  0  0  0  0
  149.6464  133.7371  155.3331 C   0  0  0  0  0  0  0  0  0  0  0  0
  150.8819  133.8224  155.8945 N   0  0  0  0  0  0  0  0  0  0  0  0
  151.3082  134.9750  156.4192 C   0  0  0  0  0  0  0  0  0  0  0  0
  150.6719  136.1454  156.4880 N   0  0  0  0  0  0  0  0  0  0  0  0
  149.4331  136.0690  155.9233 C   0  0  0  0  0  0  0  0  0  0  0  0
  148.8481  134.9153  155.3293 C   0  0  0  0  0  0  0  0  0  0  0  0
  147.5798  135.2220  154.8512 N   0  0  0  0  0  0  0  0  0  0  0  0
  147.4216  136.4824  155.1510 C   0  0  0  0  0  0  0  0  0  0  0  0
  148.4821  137.0682  155.8054 N   0  0  0  0  0  0  0  0  0  0  0  0
  148.5762  138.4500  156.2513 C   0  0  0  0  0  0  0  0  0  0  0  0
  149.3521  139.3648  155.2852 C   0  0  0  0  0  0  0  0  0  0  0  0
  148.3444  140.2767  154.5563 C   0  0  0  0  0  0  0  0  0  0  0  0
  148.9691  141.3725  153.9179 O   0  0  0  0  0  0  0  0  0  0  0  0
  150.5782  140.0588  155.8957 C   0  0  0  0  0  0  0  0  0  0  0  0
  151.4508  139.5656  154.8553 O   0  0  0  0  0  0  0  0  0  0  0  0
  150.4040  138.6802  154.4003 C   0  0  0  0  0  0  0  0  0  0  0  0
  148.1423  131.8250  155.4902 C   0  0  2  0  0  0  0  0  0  0  0  0
  148.3706  130.3053  155.4191 C   0  0  0  0  0  0  0  0  0  0  0  0
  146.7598  132.2228  154.9238 C   0  0  0  0  0  0  0  0  0  0  0  0
  143.4179  133.2581  150.9657 H   0  0  0  0  0  0  0  0  0  0  0  0
  143.3769  131.5043  151.1285 H   0  0  0  0  0  0  0  0  0  0  0  0
  143.9823  132.2431  149.6475 H   0  0  0  0  0  0  0  0  0  0  0  0
  145.9370  133.1874  150.8767 H   0  0  0  0  0  0  0  0  0  0  0  0
  146.9035  131.3869  150.6355 H   0  0  0  0  0  0  0  0  0  0  0  0
  145.1061  133.4685  153.1442 H   0  0  0  0  0  0  0  0  0  0  0  0
  144.6467  131.7918  153.2928 H   0  0  0  0  0  0  0  0  0  0  0  0
  147.7996  132.7960  151.7300 H   0  0  0  0  0  0  0  0  0  0  0  0
  147.6534  133.9890  153.0072 H   0  0  0  0  0  0  0  0  0  0  0  0
  149.4153  131.4779  153.0377 H   0  0  0  0  0  0  0  0  0  0  0  0
  149.9663  133.1238  152.9076 H   0  0  0  0  0  0  0  0  0  0  0  0
  152.3005  134.9574  156.8451 H   0  0  0  0  0  0  0  0  0  0  0  0
  146.5204  137.0218  154.8984 H   0  0  0  0  0  0  0  0  0  0  0  0
  147.5669  138.8309  156.4132 H   0  0  0  0  0  0  0  0  0  0  0  0
  149.0483  138.4454  157.2346 H   0  0  0  0  0  0  0  0  0  0  0  0
  147.7996  139.7275  153.7887 H   0  0  0  0  0  0  0  0  0  0  0  0
  147.6026  140.6693  155.2524 H   0  0  0  0  0  0  0  0  0  0  0  0
  148.9901  141.2069  152.9878 H   0  0  0  0  0  0  0  0  0  0  0  0
  150.5193  141.1475  155.9137 H   0  0  0  0  0  0  0  0  0  0  0  0
  150.8636  139.6742  156.8761 H   0  0  0  0  0  0  0  0  0  0  0  0
  150.6124  137.6452  154.6728 H   0  0  0  0  0  0  0  0  0  0  0  0
  150.2145  138.7688  153.3300 H   0  0  0  0  0  0  0  0  0  0  0  0
  148.1583  132.0776  156.5514 H   0  0  0  0  0  0  0  0  0  0  0  0
  147.6140  129.7720  155.9952 H   0  0  0  0  0  0  0  0  0  0  0  0
  149.3435  130.0381  155.8328 H   0  0  0  0  0  0  0  0  0  0  0  0
  148.3293  129.9297  154.3967 H   0  0  0  0  0  0  0  0  0  0  0  0
  146.5178  133.2440  155.2208 H   0  0  0  0  0  0  0  0  0  0  0  0
  145.9933  131.5875  155.3656 H   0  0  0  0  0  0  0  0  0  0  0  0
  146.9138  131.1752  153.1998 H   0  0  0  0  0  0  0  0  0  0  0  0
  1  2  1  0  0  0  0
  1 28  1  0  0  0  0
  1 29  1  0  0  0  0
  1 30  1  0  0  0  0
  2  3  1  0  0  0  0
  2  4  1  0  0  0  0
  2 31  1  0  0  0  0
  3 32  1  0  0  0  0
  4  5  1  0  0  0  0
  4 33  1  0  0  0  0
  4 34  1  0  0  0  0
  5 27  1  0  0  0  0
  5  6  1  0  0  0  0
  5 56  1  0  0  0  0
  6  7  1  0  0  0  0
  6 35  1  0  0  0  0
  6 36  1  0  0  0  0
  7  8  1  0  0  0  0
  7 37  1  0  0  0  0
  7 38  1  0  0  0  0
  8  9  1  0  0  0  0
  8 25  1  0  0  0  0
  9 14  1  0  0  0  0
  9 10  2  0  0  0  0
 10 11  1  0  0  0  0
 11 12  2  0  0  0  0
 11 39  1  0  0  0  0
 12 13  1  0  0  0  0
 13 17  1  0  0  0  0
 13 14  2  0  0  0  0
 14 15  1  0  0  0  0
 15 16  2  0  0  0  0
 16 17  1  0  0  0  0
 16 40  1  0  0  0  0
 17 18  1  0  0  0  0
 18 19  1  0  0  0  0
 18 41  1  0  0  0  0
 18 42  1  0  0  0  0
 19 24  1  0  0  0  0
 19 20  1  0  0  0  0
 19 22  1  0  0  0  0
 20 21  1  0  0  0  0
 20 43  1  0  0  0  0
 20 44  1  0  0  0  0
 21 45  1  0  0  0  0
 22 23  1  0  0  0  0
 22 46  1  0  0  0  0
 22 47  1  0  0  0  0
 23 24  1  0  0  0  0
 24 48  1  0  0  0  0
 24 49  1  0  0  0  0
 25 26  1  0  0  0  0
 25 27  1  0  0  0  0
 25 50  1  0  0  0  0
 26 51  1  0  0  0  0
 26 52  1  0  0  0  0
 26 53  1  0  0  0  0
 27 54  1  0  0  0  0
 27 55  1  0  0  0  0
M  CHG  1   5   1
M  END
> <s_m_source_file>
AV-unprocessed.smi

> <i_m_source_file_index>
79

> <i_lp_mmshare_version>
43012

> <i_f3d_flags>
0

> <s_epik_input>
W0NIM11bQ0BIXShbT0hdKVtDSDJdTjFbQ0gyXVtDSDJdTihbQ0BASF0oW0NIM10pW0NIMl0xKWMobltjSF1uMiljKGMyMyluW2NIXW4zW0NIMl1DNChbQ0gyXVtPSF0pW0NIMl1PW0NIMl00

> <s_epik_cmdline>
J2VwaWtfcHl0aG9uJywgJy1waCcsICc3LjAnLCAnLXRuJywgJzgnLCAnLW1hJywgJzIwMCcsICctbWV0YWxfYmluZGluZycsICctaW1hZScsICc8aW5maWxlLm1hZT4nLCAnLW9tYWUnLCAnPG91dGZpbGUubWFlPic=

> <r_lp_tautomer_probability>
1

> <r_epik_Ionization_Penalty>
0.00515943

> <r_epik_Ionization_Penalty_Charging>
0.00509693

> <r_epik_Ionization_Penalty_Neutral>
6.25007e-05

> <r_epik_State_Penalty>
-0

> <r_epik_Charging_Adjusted_Penalty>
0.00509693

> <i_epik_Tot_Q>
1

> <i_epik_Tot_abs_Q>
1

> <r_epik_Metal_State_Penalty>
-0

> <b_epik_Metal_Only>
0

> <s_lp_Force_Field>
OPLS_2005

> <r_lp_Energy>
51.2807

> <b_lp_Chiralities_Consistent>
1

> <s_lp_Variant>
AV-unprocessed.smi:79-7

> <Gold.Version>
5.8.1

> <Gold.Id.Protein>
6NUR|6NUR_protein|mol2

> <Gold.PLP.Fitness>
42.4802

> <Gold.PLP.PLP>
-36.2061

> <Gold.PLP.part.hbond>
-5.0000

> <Gold.PLP.part.metal>
0.0000

> <Gold.PLP.part.buried>
-7.3966

> <Gold.PLP.part.nonpolar>
-24.1056

> <Gold.PLP.part.repulsive>
0.2035

> <Gold.PLP.ligand.clash>
0.0000

> <Gold.PLP.ligand.torsion>
1.8268

> <Gold.PLP.Chemscore.Hbond>
3.0000

> <Gold.PLP.Chemscore.CHOScore>
0.0000

> <Gold.PLP.Chemscore.Metal>
0.0000

> <Gold.Chemscore.Hbonds>
donor molecule, donor type, donor heavy atom, donor atom, acceptor molecule, acceptor atom, score
      L1  H     3    32       P1 10747  0.67
      L1  H    21    45       P1  7957  0.47
      P1  H  7989  7998       L1    23  1.00

> <Gold.PLP.Chemscore.Internal.Correction>
0.9278

> <Gold.Rescore>
     Score         DG    S(hbond)    S(metal)    S(lipo)     H(rot)  DE(clash)    DE(int)     intcor
     11.30     -13.73       2.84        0.00      70.97       3.72       0.09       2.34       ----

> <Gold.Chemscore.Fitness>
11.3005

> <Gold.Chemscore.DG>
-13.7329

> <Gold.Chemscore.ZeroCoef>
-5.4800

> <Gold.Chemscore.Hbond>
2.8382

> <Gold.Chemscore.Metal>
0.0000

> <Gold.Chemscore.Lipo>
70.9663

> <Gold.Chemscore.Internal_Hbond>
0.0000

> <Gold.Chemscore.DEClash>
0.0918

> <Gold.Chemscore.DEInternal>
2.3407

> <Gold.Chemscore.Rot>
3.7226

> <Gold.Chemscore.Internal.Correction>
   9.000000E+99

> <Gold.Chemscore.Hbonds>
donor molecule, donor type, donor heavy atom, donor atom, acceptor molecule, acceptor atom, score
      L1  H     3    32       P1 10747  0.64
      L1  H    21    45       P1  7957  0.45
      P1  H  7989  7998       L1    23  0.43

> <Gold.Chemscore.Hbond.Weighted>
-9.4796

> <Gold.Chemscore.Metal.Weighted>
-0.0000

> <Gold.Chemscore.Lipo.Weighted>
-8.3031

> <Gold.Chemscore.Internal_Hbond.Weighted>
0.0000

> <Gold.Chemscore.DEClash.Weighted>
0.0918

> <Gold.Chemscore.DEInternal.Weighted>
2.3407

> <Gold.Chemscore.Rot.Weighted>
9.5298

> <Gold.Chemscore.Internal.Correction.Weighted>
   9.000000E+99

> <Gold.Protein.RotatedTorsions>
[ 6907 6896 6895 6894 ] final -123.66 input  -60.11 | X-H torsion
[ 7974 7965 7964 7962 ] final   74.95 input  175.53 | X-H torsion
[ 8008 7997 7996 7995 ] final  105.23 input   59.86 | X-H torsion
[ 10167 10162 10161 10158 ] final  141.98 input  -65.29 | X-H torsion
[ 10718 10713 10712 10709 ] final -101.02 input   66.30 | X-H torsion
[ 10763 10752 10751 10750 ] final  -40.84 input  -60.55 | X-H torsion
[ 11005 11000 10999 10996 ] final  106.51 input  -57.11 | X-H torsion

> <Gold.Protein.ActiveResidues>
 VAL166  LYS551  ARG553  GLY616  TRP617  ASP618  TYR619  PRO620  LYS621  CYS622 
 ASP623  PHE694  ASN695  SER759  ASP760  ASP761  ALA762  ILE779  LEU786  VAL792 
 PHE793  MET794  SER795  GLU796  ALA797  LYS798  CYS799  TRP800  GLU811  SER814 

> <Gold.Protein.RotatedAtoms>
  150.8693  133.7529  159.2966 H   0  0  0  0  0  0  0  0  0  0  0  0  # atno 6907 bound_to 6896
  151.5146  135.1064  159.9872 H   0  0  0  0  0  0  0  0  0  0  0  0  # atno 6908 bound_to 6896
  152.4683  133.7928  159.6967 H   0  0  0  0  0  0  0  0  0  0  0  0  # atno 6909 bound_to 6896
  145.7218  139.2651  143.1592 H   0  0  0  0  0  0  0  0  0  0  0  0  # atno 7974 bound_to 7965
  156.1641  140.3134  155.8859 H   0  0  0  0  0  0  0  0  0  0  0  0  # atno 8008 bound_to 7997
  155.3721  140.0482  157.3062 H   0  0  0  0  0  0  0  0  0  0  0  0  # atno 8009 bound_to 7997
  154.5175  140.2186  155.9048 H   0  0  0  0  0  0  0  0  0  0  0  0  # atno 8010 bound_to 7997
  139.5006  144.6137  151.6214 H   0  0  0  0  0  0  0  0  0  0  0  0  # atno 10167 bound_to 10162
  156.0181  130.5354  150.6902 H   0  0  0  0  0  0  0  0  0  0  0  0  # atno 10718 bound_to 10713
  153.9526  135.6749  153.4744 H   0  0  0  0  0  0  0  0  0  0  0  0  # atno 10763 bound_to 10752
  153.0877  135.4890  154.8626 H   0  0  0  0  0  0  0  0  0  0  0  0  # atno 10764 bound_to 10752
  154.7317  135.3140  154.8839 H   0  0  0  0  0  0  0  0  0  0  0  0  # atno 10765 bound_to 10752
  139.8815  134.9371  156.5678 H   0  0  0  0  0  0  0  0  0  0  0  0  # atno 11005 bound_to 11000
  146.0619  140.7962  142.9731 LP  0  0  0  0  0  0  0  0  0  0  0  0  # atno 17320 bound_to 7965
  144.6915  140.3209  143.7232 LP  0  0  0  0  0  0  0  0  0  0  0  0  # atno 17321 bound_to 7965
  140.5818  143.9932  150.6273 LP  0  0  0  0  0  0  0  0  0  0  0  0  # atno 17342 bound_to 10162
  140.3084  143.3214  152.0903 LP  0  0  0  0  0  0  0  0  0  0  0  0  # atno 17343 bound_to 10162
  157.4585  131.0880  151.0771 LP  0  0  0  0  0  0  0  0  0  0  0  0  # atno 17370 bound_to 10713
  157.1265  130.6084  149.5518 LP  0  0  0  0  0  0  0  0  0  0  0  0  # atno 17371 bound_to 10713
  140.8121  133.8421  155.8819 LP  0  0  0  0  0  0  0  0  0  0  0  0  # atno 17394 bound_to 11000
  140.9496  134.1795  157.4737 LP  0  0  0  0  0  0  0  0  0  0  0  0  # atno 17395 bound_to 11000

$$$$
