AV-unprocessed.smi:1759|AV-procd|sdf|7088|dock3
  -GOLD-   22720 8303D 1   1.00000     0.00000
 Structure written by MMmdl.
 31 32  0  0  0  0  0  0  0  0  1 V2000
  148.3059  129.8408  153.4543 C   0  0  0  0  0  0  0  0  0  0  0  0
  148.8883  131.1402  153.8929 C   0  0  0  0  0  0  0  0  0  0  0  0
  148.7217  132.4267  153.4634 C   0  0  0  0  0  0  0  0  0  0  0  0
  149.5806  133.1637  154.3215 C   0  0  0  0  0  0  0  0  0  0  0  0
  149.7026  134.5707  154.1948 N   0  0  0  0  0  0  0  0  0  0  0  0
  150.4983  135.3905  154.9021 C   0  0  0  0  0  0  0  0  0  0  0  0
  151.2476  135.0396  155.8141 O   0  0  0  0  0  0  0  0  0  0  0  0
  150.3736  136.6613  154.4943 N   0  0  0  0  0  0  0  0  0  0  0  0
  151.0789  137.7976  155.0758 C   0  0  0  0  0  0  0  0  0  0  0  0
  150.3703  139.1228  154.7518 C   0  0  1  0  0  0  0  0  0  0  0  0
  149.0652  139.3233  155.5206 C   0  0  0  0  0  0  0  0  0  0  0  0
  148.9595  140.8303  155.5602 C   0  0  0  0  0  0  0  0  0  0  0  0
  150.4155  141.2327  155.7676 C   0  0  0  0  0  0  0  0  0  0  0  0
  151.1919  140.2311  155.1159 O   0  0  0  0  0  0  0  0  0  0  0  0
  150.2133  132.3967  155.1964 N   0  0  0  0  0  0  0  0  0  0  0  0
  149.7727  131.0957  154.9261 O   0  0  0  0  0  0  0  0  0  0  0  0
  147.6112  129.9847  152.6266 H   0  0  0  0  0  0  0  0  0  0  0  0
  147.7645  129.3649  154.2719 H   0  0  0  0  0  0  0  0  0  0  0  0
  149.0895  129.1590  153.1240 H   0  0  0  0  0  0  0  0  0  0  0  0
  148.0881  132.7804  152.6636 H   0  0  0  0  0  0  0  0  0  0  0  0
  149.1271  134.9982  153.4847 H   0  0  0  0  0  0  0  0  0  0  0  0
  149.7312  136.8623  153.7419 H   0  0  0  0  0  0  0  0  0  0  0  0
  151.1664  137.6696  156.1563 H   0  0  0  0  0  0  0  0  0  0  0  0
  152.0960  137.8103  154.6834 H   0  0  0  0  0  0  0  0  0  0  0  0
  150.1631  139.1964  153.6828 H   0  0  0  0  0  0  0  0  0  0  0  0
  148.2116  138.8464  155.0384 H   0  0  0  0  0  0  0  0  0  0  0  0
  149.1492  138.9299  156.5349 H   0  0  0  0  0  0  0  0  0  0  0  0
  148.5963  141.2069  154.6031 H   0  0  0  0  0  0  0  0  0  0  0  0
  148.2990  141.1953  156.3471 H   0  0  0  0  0  0  0  0  0  0  0  0
  150.6337  142.2266  155.3761 H   0  0  0  0  0  0  0  0  0  0  0  0
  150.6639  141.2247  156.8295 H   0  0  0  0  0  0  0  0  0  0  0  0
  1  2  1  0  0  0  0
  1 17  1  0  0  0  0
  1 18  1  0  0  0  0
  1 19  1  0  0  0  0
  2 16  1  0  0  0  0
  2  3  2  0  0  0  0
  3  4  1  0  0  0  0
  3 20  1  0  0  0  0
  4  5  1  0  0  0  0
  4 15  2  0  0  0  0
  5  6  1  0  0  0  0
  5 21  1  0  0  0  0
  6  7  2  0  0  0  0
  6  8  1  0  0  0  0
  8  9  1  0  0  0  0
  8 22  1  0  0  0  0
  9 10  1  0  0  0  0
  9 23  1  0  0  0  0
  9 24  1  0  0  0  0
 10 14  1  0  0  0  0
 10 11  1  0  0  0  0
 10 25  1  0  0  0  0
 11 12  1  0  0  0  0
 11 26  1  0  0  0  0
 11 27  1  0  0  0  0
 12 13  1  0  0  0  0
 12 28  1  0  0  0  0
 12 29  1  0  0  0  0
 13 14  1  0  0  0  0
 13 30  1  0  0  0  0
 13 31  1  0  0  0  0
 15 16  1  0  0  0  0
M  END
> <s_m_source_file>
AV-unprocessed.smi

> <i_m_source_file_index>
1759

> <i_lp_mmshare_version>
43012

> <i_f3d_flags>
0

> <s_epik_input>
W0NIM11jMVtjSF1jKG5vMSlbTkhdQyg9TylbTkhdW0NIMl1bQ0BASF0yW0NIMl1bQ0gyXVtDSDJdTzI=

> <s_epik_cmdline>
J2VwaWtfcHl0aG9uJywgJy1waCcsICc3LjAnLCAnLXRuJywgJzgnLCAnLW1hJywgJzIwMCcsICctbWV0YWxfYmluZGluZycsICctaW1hZScsICc8aW5maWxlLm1hZT4nLCAnLW9tYWUnLCAnPG91dGZpbGUubWFlPic=

> <r_lp_tautomer_probability>
1

> <r_epik_Ionization_Penalty>
2.1743e-05

> <r_epik_Ionization_Penalty_Charging>
0

> <r_epik_Ionization_Penalty_Neutral>
2.1743e-05

> <r_epik_State_Penalty>
-0

> <r_epik_Charging_Adjusted_Penalty>
0

> <i_epik_Tot_Q>
0

> <i_epik_Tot_abs_Q>
0

> <r_epik_Metal_State_Penalty>
-0

> <b_epik_Metal_Only>
0

> <s_lp_Force_Field>
OPLS_2005

> <r_lp_Energy>
14.348

> <b_lp_Chiralities_Consistent>
1

> <s_lp_Variant>
AV-unprocessed.smi:1759-2

> <Gold.Version>
5.8.1

> <Gold.Id.Protein>
6NUR|6NUR_protein|mol2

> <Gold.PLP.Fitness>
38.4707

> <Gold.PLP.PLP>
-27.4520

> <Gold.PLP.part.hbond>
-4.9800

> <Gold.PLP.part.metal>
0.0000

> <Gold.PLP.part.buried>
-3.1550

> <Gold.PLP.part.nonpolar>
-19.6585

> <Gold.PLP.part.repulsive>
0.2273

> <Gold.PLP.ligand.clash>
0.0000

> <Gold.PLP.ligand.torsion>
0.2106

> <Gold.PLP.Chemscore.Hbond>
3.8128

> <Gold.PLP.Chemscore.CHOScore>
0.0000

> <Gold.PLP.Chemscore.Metal>
0.0000

> <Gold.Chemscore.Hbonds>
donor molecule, donor type, donor heavy atom, donor atom, acceptor molecule, acceptor atom, score
      L1  H     5    21       P1  7948  0.93
      L1  H     8    22       P1  7948  0.76
      P1  H  7989  7998       L1    14  1.00
      P1  H 10752 10763       L1     7  0.84

> <Gold.PLP.Chemscore.Internal.Correction>
0.0015

> <Gold.Rescore>
     Score         DG    S(hbond)    S(metal)    S(lipo)     H(rot)  DE(clash)    DE(int)     intcor
     14.25     -16.17       2.69        0.00      42.96       1.30       0.44       1.47       ----

> <Gold.Chemscore.Fitness>
14.2538

> <Gold.Chemscore.DG>
-16.1654

> <Gold.Chemscore.ZeroCoef>
-5.4800

> <Gold.Chemscore.Hbond>
2.6882

> <Gold.Chemscore.Metal>
0.0000

> <Gold.Chemscore.Lipo>
42.9568

> <Gold.Chemscore.Internal_Hbond>
0.0000

> <Gold.Chemscore.DEClash>
0.4429

> <Gold.Chemscore.DEInternal>
1.4688

> <Gold.Chemscore.Rot>
1.2965

> <Gold.Chemscore.Internal.Correction>
   9.000000E+99

> <Gold.Chemscore.Hbonds>
donor molecule, donor type, donor heavy atom, donor atom, acceptor molecule, acceptor atom, score
      L1  H     5    21       P1  7948  0.19
      L1  H     8    22       P1  7948  0.47
      P1  H  7989  7998       L1    14  0.18
      P1  H 10752 10763       L1     7  0.15

> <Gold.Chemscore.Hbond.Weighted>
-8.9786

> <Gold.Chemscore.Metal.Weighted>
-0.0000

> <Gold.Chemscore.Lipo.Weighted>
-5.0259

> <Gold.Chemscore.Internal_Hbond.Weighted>
0.0000

> <Gold.Chemscore.DEClash.Weighted>
0.4429

> <Gold.Chemscore.DEInternal.Weighted>
1.4688

> <Gold.Chemscore.Rot.Weighted>
3.3192

> <Gold.Chemscore.Internal.Correction.Weighted>
   9.000000E+99

> <Gold.Protein.RotatedTorsions>
[ 6907 6896 6895 6894 ] final  -27.60 input  -60.11 | X-H torsion
[ 7974 7965 7964 7962 ] final   56.62 input  175.53 | X-H torsion
[ 8008 7997 7996 7995 ] final -159.84 input   59.86 | X-H torsion
[ 10167 10162 10161 10158 ] final  151.11 input  -65.29 | X-H torsion
[ 10718 10713 10712 10709 ] final   48.61 input   66.30 | X-H torsion
[ 10763 10752 10751 10750 ] final   79.68 input  -60.55 | X-H torsion
[ 11005 11000 10999 10996 ] final   47.47 input  -57.11 | X-H torsion

> <Gold.Protein.ActiveResidues>
 VAL166  LYS551  ARG553  GLY616  TRP617  ASP618  TYR619  PRO620  LYS621  CYS622 
 ASP623  PHE694  ASN695  SER759  ASP760  ASP761  ALA762  ILE779  LEU786  VAL792 
 PHE793  MET794  SER795  GLU796  ALA797  LYS798  CYS799  TRP800  GLU811  SER814 

> <Gold.Protein.RotatedAtoms>
  151.1446  135.0197  159.8640 H   0  0  0  0  0  0  0  0  0  0  0  0  # atno 6907 bound_to 6896
  152.5453  134.1459  159.8508 H   0  0  0  0  0  0  0  0  0  0  0  0  # atno 6908 bound_to 6896
  151.1538  133.4844  159.2627 H   0  0  0  0  0  0  0  0  0  0  0  0  # atno 6909 bound_to 6896
  145.9378  139.3862  143.0382 H   0  0  0  0  0  0  0  0  0  0  0  0  # atno 7974 bound_to 7965
  155.7685  140.0849  157.2120 H   0  0  0  0  0  0  0  0  0  0  0  0  # atno 8008 bound_to 7997
  154.3998  140.1529  156.2971 H   0  0  0  0  0  0  0  0  0  0  0  0  # atno 8009 bound_to 7997
  155.8770  140.3422  155.5864 H   0  0  0  0  0  0  0  0  0  0  0  0  # atno 8010 bound_to 7997
  139.4843  144.5467  151.7471 H   0  0  0  0  0  0  0  0  0  0  0  0  # atno 10167 bound_to 10162
  157.4703  130.8251  149.7981 H   0  0  0  0  0  0  0  0  0  0  0  0  # atno 10718 bound_to 10713
  153.0972  135.4831  154.8800 H   0  0  0  0  0  0  0  0  0  0  0  0  # atno 10763 bound_to 10752
  154.7338  135.3066  154.8849 H   0  0  0  0  0  0  0  0  0  0  0  0  # atno 10764 bound_to 10752
  153.9477  135.6827  153.4797 H   0  0  0  0  0  0  0  0  0  0  0  0  # atno 10765 bound_to 10752
  140.1276  134.4747  155.8547 H   0  0  0  0  0  0  0  0  0  0  0  0  # atno 11005 bound_to 11000
  145.8340  140.9616  143.0834 LP  0  0  0  0  0  0  0  0  0  0  0  0  # atno 17320 bound_to 7965
  144.6774  140.0199  143.7484 LP  0  0  0  0  0  0  0  0  0  0  0  0  # atno 17321 bound_to 7965
  140.5015  144.1162  150.5972 LP  0  0  0  0  0  0  0  0  0  0  0  0  # atno 17342 bound_to 10162
  140.4057  143.2682  151.9894 LP  0  0  0  0  0  0  0  0  0  0  0  0  # atno 17343 bound_to 10162
  156.0070  130.3851  150.2395 LP  0  0  0  0  0  0  0  0  0  0  0  0  # atno 17370 bound_to 10713
  157.0577  131.0081  151.3233 LP  0  0  0  0  0  0  0  0  0  0  0  0  # atno 17371 bound_to 10713
  141.2164  133.6784  156.7009 LP  0  0  0  0  0  0  0  0  0  0  0  0  # atno 17394 bound_to 11000
  140.2883  134.8261  157.3994 LP  0  0  0  0  0  0  0  0  0  0  0  0  # atno 17395 bound_to 11000

$$$$
