AV-unprocessed.smi:590|AV-procd|sdf|3008|dock4
  -GOLD-   2262023513D 1   1.00000     0.00000
 Structure written by MMmdl.
 41 42  0  0  0  0  0  0  0  0  1 V2000
  148.6609  135.6040  155.2310 C   0  0  0  0  0  0  0  0  0  0  0  0
  149.9618  136.3461  155.1207 C   0  0  0  0  0  0  0  0  0  0  0  0
  151.0887  135.7463  155.4665 N   0  0  0  0  0  0  0  0  0  0  0  0
  152.1018  136.6880  155.2618 O   0  0  0  0  0  0  0  0  0  0  0  0
  151.5375  137.8320  154.7978 C   0  0  0  0  0  0  0  0  0  0  0  0
  152.4592  138.9713  154.5220 C   0  0  0  0  0  0  0  0  0  0  0  0
  150.1831  137.6829  154.6816 C   0  0  0  0  0  0  0  0  0  0  0  0
  149.1640  138.6875  154.2106 C   0  0  0  0  0  0  0  0  0  0  0  0
  149.4868  140.0611  154.7987 C   0  0  0  0  0  0  0  0  0  0  0  0
  149.6519  141.0250  154.0511 O   0  0  0  0  0  0  0  0  0  0  0  0
  149.5761  140.1338  156.1363 N   0  0  0  0  0  0  0  0  0  0  0  0
  149.8777  141.3386  156.9048 C   0  0  0  0  0  0  0  0  0  0  0  0
  151.3768  141.4557  157.2447 C   0  0  0  0  0  0  0  0  0  0  0  0
  151.7192  142.6237  158.1580 C   0  0  0  0  0  0  0  0  0  0  0  0
  151.5068  143.9020  157.7880 C   0  0  0  0  0  0  0  0  0  0  0  0
  151.8056  145.1056  158.6642 C   0  0  0  0  0  0  0  0  0  0  0  0
  152.0361  144.7175  160.1341 C   0  0  0  0  0  0  0  0  0  0  0  0
  152.9214  143.4704  160.2444 C   0  0  0  0  0  0  0  0  0  0  0  0
  152.2858  142.2659  159.5277 C   0  0  0  0  0  0  0  0  0  0  0  0
  148.0621  135.7293  154.3288 H   0  0  0  0  0  0  0  0  0  0  0  0
  148.0742  135.9729  156.0723 H   0  0  0  0  0  0  0  0  0  0  0  0
  148.8162  134.5347  155.3778 H   0  0  0  0  0  0  0  0  0  0  0  0
  152.0038  139.9170  154.8165 H   0  0  0  0  0  0  0  0  0  0  0  0
  152.6963  139.0261  153.4597 H   0  0  0  0  0  0  0  0  0  0  0  0
  153.3935  138.8629  155.0731 H   0  0  0  0  0  0  0  0  0  0  0  0
  149.1599  138.7709  153.1233 H   0  0  0  0  0  0  0  0  0  0  0  0
  148.1536  138.3886  154.4926 H   0  0  0  0  0  0  0  0  0  0  0  0
  149.4242  139.2866  156.6644 H   0  0  0  0  0  0  0  0  0  0  0  0
  149.5825  142.1955  156.2990 H   0  0  0  0  0  0  0  0  0  0  0  0
  149.2667  141.3906  157.8068 H   0  0  0  0  0  0  0  0  0  0  0  0
  151.7100  140.5265  157.7090 H   0  0  0  0  0  0  0  0  0  0  0  0
  151.9555  141.5571  156.3260 H   0  0  0  0  0  0  0  0  0  0  0  0
  151.1139  144.1181  156.8054 H   0  0  0  0  0  0  0  0  0  0  0  0
  152.6898  145.6015  158.2626 H   0  0  0  0  0  0  0  0  0  0  0  0
  150.9821  145.8167  158.5928 H   0  0  0  0  0  0  0  0  0  0  0  0
  152.4844  145.5517  160.6745 H   0  0  0  0  0  0  0  0  0  0  0  0
  151.0766  144.5182  160.6133 H   0  0  0  0  0  0  0  0  0  0  0  0
  153.8957  143.6830  159.8016 H   0  0  0  0  0  0  0  0  0  0  0  0
  153.1052  143.2260  161.2910 H   0  0  0  0  0  0  0  0  0  0  0  0
  151.4734  141.8598  160.1308 H   0  0  0  0  0  0  0  0  0  0  0  0
  153.0300  141.4758  159.4335 H   0  0  0  0  0  0  0  0  0  0  0  0
  1  2  1  0  0  0  0
  1 20  1  0  0  0  0
  1 21  1  0  0  0  0
  1 22  1  0  0  0  0
  2  7  1  0  0  0  0
  2  3  2  0  0  0  0
  3  4  1  0  0  0  0
  4  5  1  0  0  0  0
  5  6  1  0  0  0  0
  5  7  2  0  0  0  0
  6 23  1  0  0  0  0
  6 24  1  0  0  0  0
  6 25  1  0  0  0  0
  7  8  1  0  0  0  0
  8  9  1  0  0  0  0
  8 26  1  0  0  0  0
  8 27  1  0  0  0  0
  9 10  2  0  0  0  0
  9 11  1  0  0  0  0
 11 12  1  0  0  0  0
 11 28  1  0  0  0  0
 12 13  1  0  0  0  0
 12 29  1  0  0  0  0
 12 30  1  0  0  0  0
 13 14  1  0  0  0  0
 13 31  1  0  0  0  0
 13 32  1  0  0  0  0
 14 19  1  0  0  0  0
 14 15  2  0  0  0  0
 15 16  1  0  0  0  0
 15 33  1  0  0  0  0
 16 17  1  0  0  0  0
 16 34  1  0  0  0  0
 16 35  1  0  0  0  0
 17 18  1  0  0  0  0
 17 36  1  0  0  0  0
 17 37  1  0  0  0  0
 18 19  1  0  0  0  0
 18 38  1  0  0  0  0
 18 39  1  0  0  0  0
 19 40  1  0  0  0  0
 19 41  1  0  0  0  0
M  END
> <s_m_source_file>
AV-unprocessed.smi

> <i_m_source_file_index>
590

> <i_lp_mmshare_version>
43012

> <i_f3d_flags>
0

> <s_epik_input>
W0NIM11jMW5vYyhbQ0gzXSljMVtDSDJdQyg9TylbTkhdW0NIMl1bQ0gyXUMyPVtDSF1bQ0gyXVtDSDJdW0NIMl1bQ0gyXTI=

> <s_epik_cmdline>
J2VwaWtfcHl0aG9uJywgJy1waCcsICc3LjAnLCAnLXRuJywgJzgnLCAnLW1hJywgJzIwMCcsICctbWV0YWxfYmluZGluZycsICctaW1hZScsICc8aW5maWxlLm1hZT4nLCAnLW9tYWUnLCAnPG91dGZpbGUubWFlPic=

> <r_lp_tautomer_probability>
1

> <r_epik_Ionization_Penalty>
1.93189e-08

> <r_epik_Ionization_Penalty_Charging>
0

> <r_epik_Ionization_Penalty_Neutral>
1.93189e-08

> <r_epik_State_Penalty>
-0

> <r_epik_Charging_Adjusted_Penalty>
0

> <i_epik_Tot_Q>
0

> <i_epik_Tot_abs_Q>
0

> <r_epik_Metal_State_Penalty>
-0

> <b_epik_Metal_Only>
0

> <s_lp_Force_Field>
OPLS_2005

> <r_lp_Energy>
2.22272

> <b_lp_Chiralities_Consistent>
1

> <s_lp_Variant>
AV-unprocessed.smi:590-1

> <Gold.Version>
5.8.1

> <Gold.Id.Protein>
6NUR|6NUR_protein|mol2

> <Gold.PLP.Fitness>
45.9853

> <Gold.PLP.PLP>
-40.8463

> <Gold.PLP.part.hbond>
-3.1695

> <Gold.PLP.part.metal>
0.0000

> <Gold.PLP.part.buried>
-5.2474

> <Gold.PLP.part.nonpolar>
-34.8486

> <Gold.PLP.part.repulsive>
1.1618

> <Gold.PLP.ligand.clash>
0.0000

> <Gold.PLP.ligand.torsion>
0.4560

> <Gold.PLP.Chemscore.Hbond>
1.9992

> <Gold.PLP.Chemscore.CHOScore>
0.0000

> <Gold.PLP.Chemscore.Metal>
0.0000

> <Gold.Chemscore.Hbonds>
donor molecule, donor type, donor heavy atom, donor atom, acceptor molecule, acceptor atom, score
      P1  H  7989  7998       L1    10  0.44
      P1  H  8011  8017       L1    10  0.47
      P1  H 10752 10764       L1     4  0.45

> <Gold.PLP.Chemscore.Internal.Correction>
0.0535

> <Gold.Rescore>
     Score         DG    S(hbond)    S(metal)    S(lipo)     H(rot)  DE(clash)    DE(int)     intcor
     19.89     -21.65       1.94        0.00     116.74       1.55       1.38       0.38       ----

> <Gold.Chemscore.Fitness>
19.8917

> <Gold.Chemscore.DG>
-21.6504

> <Gold.Chemscore.ZeroCoef>
-5.4800

> <Gold.Chemscore.Hbond>
1.9395

> <Gold.Chemscore.Metal>
0.0000

> <Gold.Chemscore.Lipo>
116.7417

> <Gold.Chemscore.Internal_Hbond>
0.0000

> <Gold.Chemscore.DEClash>
1.3805

> <Gold.Chemscore.DEInternal>
0.3782

> <Gold.Chemscore.Rot>
1.5493

> <Gold.Chemscore.Internal.Correction>
   9.000000E+99

> <Gold.Chemscore.Hbonds>
donor molecule, donor type, donor heavy atom, donor atom, acceptor molecule, acceptor atom, score
      P1  H  7989  7998       L1    10  0.20
      P1  H  8011  8017       L1    10  0.45
      P1  H 10752 10764       L1     4  0.01

> <Gold.Chemscore.Hbond.Weighted>
-6.4779

> <Gold.Chemscore.Metal.Weighted>
-0.0000

> <Gold.Chemscore.Lipo.Weighted>
-13.6588

> <Gold.Chemscore.Internal_Hbond.Weighted>
0.0000

> <Gold.Chemscore.DEClash.Weighted>
1.3805

> <Gold.Chemscore.DEInternal.Weighted>
0.3782

> <Gold.Chemscore.Rot.Weighted>
3.9663

> <Gold.Chemscore.Internal.Correction.Weighted>
   9.000000E+99

> <Gold.Protein.RotatedTorsions>
[ 6907 6896 6895 6894 ] final -107.88 input  -60.11 | X-H torsion
[ 7974 7965 7964 7962 ] final  157.95 input  175.53 | X-H torsion
[ 8008 7997 7996 7995 ] final  -26.37 input   59.86 | X-H torsion
[ 10167 10162 10161 10158 ] final   -1.00 input  -65.29 | X-H torsion
[ 10718 10713 10712 10709 ] final   47.36 input   66.30 | X-H torsion
[ 10763 10752 10751 10750 ] final  -59.65 input  -60.55 | X-H torsion
[ 11005 11000 10999 10996 ] final   -6.00 input  -57.11 | X-H torsion

> <Gold.Protein.ActiveResidues>
 VAL166  LYS551  ARG553  GLY616  TRP617  ASP618  TYR619  PRO620  LYS621  CYS622 
 ASP623  PHE694  ASN695  SER759  ASP760  ASP761  ALA762  ILE779  LEU786  VAL792 
 PHE793  MET794  SER795  GLU796  ALA797  LYS798  CYS799  TRP800  GLU811  SER814 

> <Gold.Protein.RotatedAtoms>
  150.7469  133.9761  159.3560 H   0  0  0  0  0  0  0  0  0  0  0  0  # atno 6907 bound_to 6896
  151.7698  135.0787  160.0367 H   0  0  0  0  0  0  0  0  0  0  0  0  # atno 6908 bound_to 6896
  152.3346  133.5961  159.5870 H   0  0  0  0  0  0  0  0  0  0  0  0  # atno 6909 bound_to 6896
  144.7873  139.7411  143.6235 H   0  0  0  0  0  0  0  0  0  0  0  0  # atno 7974 bound_to 7965
  154.4428  140.1901  156.0765 H   0  0  0  0  0  0  0  0  0  0  0  0  # atno 8008 bound_to 7997
  156.0471  140.3313  155.7282 H   0  0  0  0  0  0  0  0  0  0  0  0  # atno 8009 bound_to 7997
  155.5613  140.0604  157.2819 H   0  0  0  0  0  0  0  0  0  0  0  0  # atno 8010 bound_to 7997
  140.6791  143.6828  150.8092 H   0  0  0  0  0  0  0  0  0  0  0  0  # atno 10167 bound_to 10162
  157.4577  130.8177  149.7854 H   0  0  0  0  0  0  0  0  0  0  0  0  # atno 10718 bound_to 10713
  154.2570  135.6315  153.5261 H   0  0  0  0  0  0  0  0  0  0  0  0  # atno 10763 bound_to 10752
  152.9902  135.5578  154.5745 H   0  0  0  0  0  0  0  0  0  0  0  0  # atno 10764 bound_to 10752
  154.5286  135.2887  155.1175 H   0  0  0  0  0  0  0  0  0  0  0  0  # atno 10765 bound_to 10752
  140.6973  133.9020  155.8659 H   0  0  0  0  0  0  0  0  0  0  0  0  # atno 11005 bound_to 11000
  146.2111  139.5468  142.9680 LP  0  0  0  0  0  0  0  0  0  0  0  0  # atno 17320 bound_to 7965
  145.5886  141.0373  143.2082 LP  0  0  0  0  0  0  0  0  0  0  0  0  # atno 17321 bound_to 7965
  140.0525  143.5235  152.2667 LP  0  0  0  0  0  0  0  0  0  0  0  0  # atno 17342 bound_to 10162
  139.6102  144.7607  151.2969 LP  0  0  0  0  0  0  0  0  0  0  0  0  # atno 17343 bound_to 10162
  156.0014  130.3878  150.2590 LP  0  0  0  0  0  0  0  0  0  0  0  0  # atno 17370 bound_to 10713
  157.0765  131.0131  151.3171 LP  0  0  0  0  0  0  0  0  0  0  0  0  # atno 17371 bound_to 10713
  141.0193  134.0912  157.4138 LP  0  0  0  0  0  0  0  0  0  0  0  0  # atno 17394 bound_to 11000
  139.8906  135.0113  156.6748 LP  0  0  0  0  0  0  0  0  0  0  0  0  # atno 17395 bound_to 11000

$$$$
