AV-unprocessed.smi:1623|AV-procd|sdf|6501|dock9
  -GOLD-   22720 7163D 1   1.00000     0.00000
 Structure written by MMmdl.
 42 43  0  0  0  0  0  0  0  0  1 V2000
  150.9093  145.1440  160.0778 C   0  0  0  0  0  0  0  0  0  0  0  0
  151.4773  143.8334  159.6045 C   0  0  0  0  0  0  0  0  0  0  0  0
  151.2066  143.4901  158.3881 N   0  0  0  0  0  0  0  0  0  0  0  0
  151.6739  142.3049  157.8540 N   0  0  0  0  0  0  0  0  0  0  0  0
  151.2684  142.0761  156.4626 C   0  0  0  0  0  0  0  0  0  0  0  0
  150.5821  140.7048  156.2758 C   0  0  2  0  0  0  0  0  0  0  0  0
  150.6635  140.2769  154.9316 O   0  0  0  0  0  0  0  0  0  0  0  0
  149.0957  140.7292  156.6661 C   0  0  0  0  0  0  0  0  0  0  0  0
  148.3459  141.3828  155.6506 O   0  0  0  0  0  0  0  0  0  0  0  0
  146.9413  141.2014  155.7546 C   0  0  0  0  0  0  0  0  0  0  0  0
  146.1431  142.3638  155.1812 C   0  0  0  0  0  0  0  0  0  0  0  0
  146.3340  142.7344  153.8325 C   0  0  0  0  0  0  0  0  0  0  0  0
  145.6060  143.8039  153.2772 C   0  0  0  0  0  0  0  0  0  0  0  0
  144.6836  144.5128  154.0689 C   0  0  0  0  0  0  0  0  0  0  0  0
  144.4921  144.1529  155.4161 C   0  0  0  0  0  0  0  0  0  0  0  0
  145.2189  143.0835  155.9769 C   0  0  0  0  0  0  0  0  0  0  0  0
  144.9573  142.6787  157.6374 Cl  0  0  0  0  0  0  0  0  0  0  0  0
  152.4331  141.3950  158.5280 C   0  0  0  0  0  0  0  0  0  0  0  0
  152.8187  140.3426  158.0169 O   0  0  0  0  0  0  0  0  0  0  0  0
  152.7403  141.7924  159.9039 C   0  0  0  0  0  0  0  0  0  0  0  0
  153.5361  140.8693  160.6465 C   0  0  0  0  0  0  0  0  0  0  0  0
  154.1863  140.1368  161.2638 N   0  0  0  0  0  0  0  0  0  0  0  0
  152.2976  142.9587  160.4365 C   0  0  0  0  0  0  0  0  0  0  0  0
  152.5897  143.4139  161.8599 C   0  0  0  0  0  0  0  0  0  0  0  0
  150.3723  145.0185  161.0181 H   0  0  0  0  0  0  0  0  0  0  0  0
  150.2089  145.5678  159.3563 H   0  0  0  0  0  0  0  0  0  0  0  0
  151.7037  145.8736  160.2358 H   0  0  0  0  0  0  0  0  0  0  0  0
  150.5637  142.8644  156.1897 H   0  0  0  0  0  0  0  0  0  0  0  0
  152.1010  142.1976  155.7670 H   0  0  0  0  0  0  0  0  0  0  0  0
  151.0781  139.9517  156.8896 H   0  0  0  0  0  0  0  0  0  0  0  0
  149.9759  139.6470  154.7770 H   0  0  0  0  0  0  0  0  0  0  0  0
  148.7149  139.7215  156.8405 H   0  0  0  0  0  0  0  0  0  0  0  0
  148.9965  141.2739  157.6058 H   0  0  0  0  0  0  0  0  0  0  0  0
  146.6748  140.3016  155.1996 H   0  0  0  0  0  0  0  0  0  0  0  0
  146.6651  141.0121  156.7932 H   0  0  0  0  0  0  0  0  0  0  0  0
  147.0383  142.1960  153.2156 H   0  0  0  0  0  0  0  0  0  0  0  0
  145.7556  144.0802  152.2438 H   0  0  0  0  0  0  0  0  0  0  0  0
  144.1246  145.3335  153.6440 H   0  0  0  0  0  0  0  0  0  0  0  0
  143.7850  144.7008  156.0215 H   0  0  0  0  0  0  0  0  0  0  0  0
  153.3419  142.7917  162.3436 H   0  0  0  0  0  0  0  0  0  0  0  0
  151.6832  143.3705  162.4643 H   0  0  0  0  0  0  0  0  0  0  0  0
  152.9639  144.4380  161.8728 H   0  0  0  0  0  0  0  0  0  0  0  0
  1  2  1  0  0  0  0
  1 25  1  0  0  0  0
  1 26  1  0  0  0  0
  1 27  1  0  0  0  0
  2 23  1  0  0  0  0
  2  3  2  0  0  0  0
  3  4  1  0  0  0  0
  4  5  1  0  0  0  0
  4 18  1  0  0  0  0
  5  6  1  0  0  0  0
  5 28  1  0  0  0  0
  5 29  1  0  0  0  0
  6  7  1  0  0  0  0
  6  8  1  0  0  0  0
  6 30  1  0  0  0  0
  7 31  1  0  0  0  0
  8  9  1  0  0  0  0
  8 32  1  0  0  0  0
  8 33  1  0  0  0  0
  9 10  1  0  0  0  0
 10 11  1  0  0  0  0
 10 34  1  0  0  0  0
 10 35  1  0  0  0  0
 11 16  1  0  0  0  0
 11 12  2  0  0  0  0
 12 13  1  0  0  0  0
 12 36  1  0  0  0  0
 13 14  2  0  0  0  0
 13 37  1  0  0  0  0
 14 15  1  0  0  0  0
 14 38  1  0  0  0  0
 15 16  2  0  0  0  0
 15 39  1  0  0  0  0
 16 17  1  0  0  0  0
 18 19  2  0  0  0  0
 18 20  1  0  0  0  0
 20 21  1  0  0  0  0
 20 23  2  0  0  0  0
 21 22  3  0  0  0  0
 23 24  1  0  0  0  0
 24 40  1  0  0  0  0
 24 41  1  0  0  0  0
 24 42  1  0  0  0  0
M  END
> <s_m_source_file>
AV-unprocessed.smi

> <i_m_source_file_index>
1623

> <i_lp_mmshare_version>
43012

> <i_f3d_flags>
0

> <s_epik_input>
TiNDYyhjMVtDSDNdKWMoPU8pbihuYzFbQ0gzXSlbQ0gyXVtDQEhdKFtPSF0pW0NIMl1PW0NIMl1jMltjSF1bY0hdW2NIXVtjSF1jMkNs

> <s_epik_cmdline>
J2VwaWtfcHl0aG9uJywgJy1waCcsICc3LjAnLCAnLXRuJywgJzgnLCAnLW1hJywgJzIwMCcsICctbWV0YWxfYmluZGluZycsICctaW1hZScsICc8aW5maWxlLm1hZT4nLCAnLW9tYWUnLCAnPG91dGZpbGUubWFlPic=

> <r_lp_tautomer_probability>
1

> <r_epik_Ionization_Penalty>
6.50533e-08

> <r_epik_Ionization_Penalty_Charging>
2.19172e-10

> <r_epik_Ionization_Penalty_Neutral>
6.48342e-08

> <r_epik_State_Penalty>
-0

> <r_epik_Charging_Adjusted_Penalty>
2.19172e-10

> <i_epik_Tot_Q>
0

> <i_epik_Tot_abs_Q>
0

> <r_epik_Metal_State_Penalty>
-0

> <b_epik_Metal_Only>
0

> <s_lp_Force_Field>
OPLS_2005

> <r_lp_Energy>
31.4415

> <b_lp_Chiralities_Consistent>
1

> <s_lp_Variant>
AV-unprocessed.smi:1623-1

> <Gold.Version>
5.8.1

> <Gold.Id.Protein>
6NUR|6NUR_protein|mol2

> <Gold.PLP.Fitness>
52.9503

> <Gold.PLP.PLP>
-48.4503

> <Gold.PLP.part.hbond>
-2.0000

> <Gold.PLP.part.metal>
0.0000

> <Gold.PLP.part.buried>
-9.3933

> <Gold.PLP.part.nonpolar>
-36.4053

> <Gold.PLP.part.repulsive>
0.2002

> <Gold.PLP.ligand.clash>
0.0000

> <Gold.PLP.ligand.torsion>
0.5990

> <Gold.PLP.Chemscore.Hbond>
1.8800

> <Gold.PLP.Chemscore.CHOScore>
0.0000

> <Gold.PLP.Chemscore.Metal>
0.0000

> <Gold.Chemscore.Hbonds>
donor molecule, donor type, donor heavy atom, donor atom, acceptor molecule, acceptor atom, score
      P1  H  7989  7998       L1     7  1.00
      P1  H  7997  8009       L1    19  0.86

> <Gold.PLP.Chemscore.Internal.Correction>
0.0579

> <Gold.Rescore>
     Score         DG    S(hbond)    S(metal)    S(lipo)     H(rot)  DE(clash)    DE(int)     intcor
     15.79     -18.11       1.86        0.00     108.99       2.48       0.45       1.87       ----

> <Gold.Chemscore.Fitness>
15.7937

> <Gold.Chemscore.DG>
-18.1109

> <Gold.Chemscore.ZeroCoef>
-5.4800

> <Gold.Chemscore.Hbond>
1.8628

> <Gold.Chemscore.Metal>
0.0000

> <Gold.Chemscore.Lipo>
108.9901

> <Gold.Chemscore.Internal_Hbond>
0.0000

> <Gold.Chemscore.DEClash>
0.4452

> <Gold.Chemscore.DEInternal>
1.8720

> <Gold.Chemscore.Rot>
2.4777

> <Gold.Chemscore.Internal.Correction>
   9.000000E+99

> <Gold.Chemscore.Hbonds>
donor molecule, donor type, donor heavy atom, donor atom, acceptor molecule, acceptor atom, score
      P1  H  7989  7998       L1     7  0.95
      P1  H  7997  8009       L1    19  0.80

> <Gold.Chemscore.Hbond.Weighted>
-6.2219

> <Gold.Chemscore.Metal.Weighted>
-0.0000

> <Gold.Chemscore.Lipo.Weighted>
-12.7518

> <Gold.Chemscore.Internal_Hbond.Weighted>
0.0000

> <Gold.Chemscore.DEClash.Weighted>
0.4452

> <Gold.Chemscore.DEInternal.Weighted>
1.8720

> <Gold.Chemscore.Rot.Weighted>
6.3428

> <Gold.Chemscore.Internal.Correction.Weighted>
   9.000000E+99

> <Gold.Protein.RotatedTorsions>
[ 6907 6896 6895 6894 ] final -146.00 input  -60.11 | X-H torsion
[ 7974 7965 7964 7962 ] final   98.60 input  175.53 | X-H torsion
[ 8008 7997 7996 7995 ] final  156.34 input   59.86 | X-H torsion
[ 10167 10162 10161 10158 ] final  170.32 input  -65.29 | X-H torsion
[ 10718 10713 10712 10709 ] final   35.17 input   66.30 | X-H torsion
[ 10763 10752 10751 10750 ] final   90.78 input  -60.55 | X-H torsion
[ 11005 11000 10999 10996 ] final -106.23 input  -57.11 | X-H torsion

> <Gold.Protein.ActiveResidues>
 VAL166  LYS551  ARG553  GLY616  TRP617  ASP618  TYR619  PRO620  LYS621  CYS622 
 ASP623  PHE694  ASN695  SER759  ASP760  ASP761  ALA762  ILE779  LEU786  VAL792 
 PHE793  MET794  SER795  GLU796  ALA797  LYS798  CYS799  TRP800  GLU811  SER814 

> <Gold.Protein.RotatedAtoms>
  151.1356  133.5006  159.2597 H   0  0  0  0  0  0  0  0  0  0  0  0  # atno 6907 bound_to 6896
  151.1710  135.0317  159.8761 H   0  0  0  0  0  0  0  0  0  0  0  0  # atno 6908 bound_to 6896
  152.5461  134.1219  159.8456 H   0  0  0  0  0  0  0  0  0  0  0  0  # atno 6909 bound_to 6896
  145.4099  139.2335  143.3253 H   0  0  0  0  0  0  0  0  0  0  0  0  # atno 7974 bound_to 7965
  156.2428  140.1915  156.6940 H   0  0  0  0  0  0  0  0  0  0  0  0  # atno 8008 bound_to 7997
  154.6231  140.0606  156.9666 H   0  0  0  0  0  0  0  0  0  0  0  0  # atno 8009 bound_to 7997
  155.1830  140.3278  155.4374 H   0  0  0  0  0  0  0  0  0  0  0  0  # atno 8010 bound_to 7997
  139.5015  144.3609  151.9826 H   0  0  0  0  0  0  0  0  0  0  0  0  # atno 10167 bound_to 10162
  157.3194  130.7440  149.6775 H   0  0  0  0  0  0  0  0  0  0  0  0  # atno 10718 bound_to 10713
  153.2012  135.4421  155.0268 H   0  0  0  0  0  0  0  0  0  0  0  0  # atno 10763 bound_to 10752
  154.8148  135.3310  154.7210 H   0  0  0  0  0  0  0  0  0  0  0  0  # atno 10764 bound_to 10752
  153.7655  135.6988  153.4972 H   0  0  0  0  0  0  0  0  0  0  0  0  # atno 10765 bound_to 10752
  141.1015  133.8876  157.1831 H   0  0  0  0  0  0  0  0  0  0  0  0  # atno 11005 bound_to 11000
  146.2710  140.4809  142.8814 LP  0  0  0  0  0  0  0  0  0  0  0  0  # atno 17320 bound_to 7965
  144.8316  140.6715  143.6287 LP  0  0  0  0  0  0  0  0  0  0  0  0  # atno 17321 bound_to 7965
  140.3045  144.3609  150.6051 LP  0  0  0  0  0  0  0  0  0  0  0  0  # atno 17342 bound_to 10162
  140.5847  143.2170  151.7363 LP  0  0  0  0  0  0  0  0  0  0  0  0  # atno 17343 bound_to 10162
  155.9684  130.4227  150.4531 LP  0  0  0  0  0  0  0  0  0  0  0  0  # atno 17370 bound_to 10713
  157.2544  131.0553  151.2359 LP  0  0  0  0  0  0  0  0  0  0  0  0  # atno 17371 bound_to 10713
  139.9868  135.0079  156.9881 LP  0  0  0  0  0  0  0  0  0  0  0  0  # atno 17394 bound_to 11000
  140.5011  134.1097  155.7250 LP  0  0  0  0  0  0  0  0  0  0  0  0  # atno 17395 bound_to 11000

$$$$
