AV-unprocessed.smi:3264|AV-procd|sdf|12495|dock6
  -GOLD-   2272018393D 1   1.00000     0.00000
 Structure written by MMmdl.
 32 33  0  0  0  0  0  0  0  0  1 V2000
  152.3345  144.6366  157.4968 C   0  0  0  0  0  0  0  0  0  0  0  0
  152.3636  144.4604  158.9765 C   0  0  0  0  0  0  0  0  0  0  0  0
  152.7423  143.3307  159.5800 N   0  0  0  0  0  0  0  0  0  0  0  0
  152.6760  143.4168  160.9742 C   0  0  0  0  0  0  0  0  0  0  0  0
  153.0672  142.2407  161.8166 C   0  0  0  0  0  0  0  0  0  0  0  0
  154.0314  141.2958  161.0862 C   0  0  0  0  0  0  0  0  0  0  0  0
  153.3229  140.5274  160.0716 N   0  0  0  0  0  0  0  0  0  0  0  0
  153.9134  139.7736  159.1332 C   0  0  0  0  0  0  0  0  0  0  0  0
  155.1351  139.6524  159.0365 O   0  0  0  0  0  0  0  0  0  0  0  0
  152.9728  139.0368  158.1718 C   0  0  1  0  0  0  0  0  0  0  0  0
  151.4727  139.3112  158.3956 C   0  0  0  0  0  0  0  0  0  0  0  0
  151.0602  140.0879  157.1602 C   0  0  0  0  0  0  0  0  0  0  0  0
  152.0418  139.5693  156.1194 C   0  0  0  0  0  0  0  0  0  0  0  0
  153.2563  139.4820  156.8470 O   0  0  0  0  0  0  0  0  0  0  0  0
  152.2416  144.6400  161.4207 C   0  0  0  0  0  0  0  0  0  0  0  0
  151.8970  145.7276  160.1041 S   0  0  0  0  0  0  0  0  0  0  0  0
  152.7178  143.7472  156.9954 H   0  0  0  0  0  0  0  0  0  0  0  0
  152.9484  145.4909  157.2111 H   0  0  0  0  0  0  0  0  0  0  0  0
  151.3116  144.8124  157.1635 H   0  0  0  0  0  0  0  0  0  0  0  0
  153.5313  142.5867  162.7411 H   0  0  0  0  0  0  0  0  0  0  0  0
  152.1756  141.6894  162.1186 H   0  0  0  0  0  0  0  0  0  0  0  0
  154.8298  141.8642  160.6071 H   0  0  0  0  0  0  0  0  0  0  0  0
  154.5010  140.6211  161.8045 H   0  0  0  0  0  0  0  0  0  0  0  0
  152.3139  140.5679  160.0843 H   0  0  0  0  0  0  0  0  0  0  0  0
  153.1554  137.9622  158.2290 H   0  0  0  0  0  0  0  0  0  0  0  0
  150.9315  138.3651  158.4376 H   0  0  0  0  0  0  0  0  0  0  0  0
  151.2432  139.8533  159.3139 H   0  0  0  0  0  0  0  0  0  0  0  0
  150.0181  139.9298  156.8818 H   0  0  0  0  0  0  0  0  0  0  0  0
  151.2161  141.1558  157.3190 H   0  0  0  0  0  0  0  0  0  0  0  0
  151.7523  138.5779  155.7670 H   0  0  0  0  0  0  0  0  0  0  0  0
  152.1348  140.2313  155.2584 H   0  0  0  0  0  0  0  0  0  0  0  0
  152.1049  144.9668  162.4409 H   0  0  0  0  0  0  0  0  0  0  0  0
  1  2  1  0  0  0  0
  1 17  1  0  0  0  0
  1 18  1  0  0  0  0
  1 19  1  0  0  0  0
  2 16  1  0  0  0  0
  2  3  2  0  0  0  0
  3  4  1  0  0  0  0
  4  5  1  0  0  0  0
  4 15  2  0  0  0  0
  5  6  1  0  0  0  0
  5 20  1  0  0  0  0
  5 21  1  0  0  0  0
  6  7  1  0  0  0  0
  6 22  1  0  0  0  0
  6 23  1  0  0  0  0
  7  8  1  0  0  0  0
  7 24  1  0  0  0  0
  8  9  2  0  0  0  0
  8 10  1  0  0  0  0
 10 14  1  0  0  0  0
 10 11  1  0  0  0  0
 10 25  1  0  0  0  0
 11 12  1  0  0  0  0
 11 26  1  0  0  0  0
 11 27  1  0  0  0  0
 12 13  1  0  0  0  0
 12 28  1  0  0  0  0
 12 29  1  0  0  0  0
 13 14  1  0  0  0  0
 13 30  1  0  0  0  0
 13 31  1  0  0  0  0
 15 16  1  0  0  0  0
 15 32  1  0  0  0  0
M  END
> <s_m_source_file>
AV-unprocessed.smi

> <i_m_source_file_index>
3264

> <i_lp_mmshare_version>
43012

> <i_f3d_flags>
0

> <s_epik_input>
W0NIM11jMW5jKFtjSF1zMSlbQ0gyXVtDSDJdW05IXUMoPU8pW0NAQEhdMltDSDJdW0NIMl1bQ0gyXU8y

> <s_epik_cmdline>
J2VwaWtfcHl0aG9uJywgJy1waCcsICc3LjAnLCAnLXRuJywgJzgnLCAnLW1hJywgJzIwMCcsICctbWV0YWxfYmluZGluZycsICctaW1hZScsICc8aW5maWxlLm1hZT4nLCAnLW9tYWUnLCAnPG91dGZpbGUubWFlPic=

> <r_epik_Ionization_Penalty>
0.00112246

> <r_epik_Ionization_Penalty_Charging>
0

> <r_epik_Ionization_Penalty_Neutral>
0.00112246

> <r_epik_State_Penalty>
0.000737392

> <r_epik_Charging_Adjusted_Penalty>
0.000737392

> <i_epik_Tot_Q>
0

> <i_epik_Tot_abs_Q>
0

> <r_epik_Metal_State_Penalty>
-0

> <b_epik_Metal_Only>
0

> <s_lp_Force_Field>
OPLS_2005

> <r_lp_Energy>
13.6214

> <b_lp_Chiralities_Consistent>
1

> <s_lp_Variant>
AV-unprocessed.smi:3264-2

> <Gold.Version>
5.8.1

> <Gold.Id.Protein>
6NUR|6NUR_protein|mol2

> <Gold.PLP.Fitness>
41.7123

> <Gold.PLP.PLP>
-37.7471

> <Gold.PLP.part.hbond>
-2.0000

> <Gold.PLP.part.metal>
0.0000

> <Gold.PLP.part.buried>
-3.5043

> <Gold.PLP.part.nonpolar>
-31.5650

> <Gold.PLP.part.repulsive>
0.0918

> <Gold.PLP.ligand.clash>
0.0000

> <Gold.PLP.ligand.torsion>
0.4470

> <Gold.PLP.Chemscore.Hbond>
1.6160

> <Gold.PLP.Chemscore.CHOScore>
0.0000

> <Gold.PLP.Chemscore.Metal>
0.0000

> <Gold.Chemscore.Hbonds>
donor molecule, donor type, donor heavy atom, donor atom, acceptor molecule, acceptor atom, score
      P1  H  7997  8008       L1     9  0.64
      P1  H  7997  8009       L1    14  0.57

> <Gold.PLP.Chemscore.Internal.Correction>
0.0112

> <Gold.Rescore>
     Score         DG    S(hbond)    S(metal)    S(lipo)     H(rot)  DE(clash)    DE(int)     intcor
     18.84     -19.27       1.59        0.00     105.68       1.52       0.13       0.30       ----

> <Gold.Chemscore.Fitness>
18.8411

> <Gold.Chemscore.DG>
-19.2697

> <Gold.Chemscore.ZeroCoef>
-5.4800

> <Gold.Chemscore.Hbond>
1.5884

> <Gold.Chemscore.Metal>
0.0000

> <Gold.Chemscore.Lipo>
105.6839

> <Gold.Chemscore.Internal_Hbond>
0.0000

> <Gold.Chemscore.DEClash>
0.1261

> <Gold.Chemscore.DEInternal>
0.3024

> <Gold.Chemscore.Rot>
1.5159

> <Gold.Chemscore.Internal.Correction>
   9.000000E+99

> <Gold.Chemscore.Hbonds>
donor molecule, donor type, donor heavy atom, donor atom, acceptor molecule, acceptor atom, score
      P1  H  7997  8008       L1     9  0.52
      P1  H  7997  8009       L1    14  0.51

> <Gold.Chemscore.Hbond.Weighted>
-5.3053

> <Gold.Chemscore.Metal.Weighted>
-0.0000

> <Gold.Chemscore.Lipo.Weighted>
-12.3650

> <Gold.Chemscore.Internal_Hbond.Weighted>
0.0000

> <Gold.Chemscore.DEClash.Weighted>
0.1261

> <Gold.Chemscore.DEInternal.Weighted>
0.3024

> <Gold.Chemscore.Rot.Weighted>
3.8807

> <Gold.Chemscore.Internal.Correction.Weighted>
   9.000000E+99

> <Gold.Protein.RotatedTorsions>
[ 6907 6896 6895 6894 ] final  -52.67 input  -60.11 | X-H torsion
[ 7974 7965 7964 7962 ] final    5.74 input  175.53 | X-H torsion
[ 8008 7997 7996 7995 ] final -161.02 input   59.86 | X-H torsion
[ 10167 10162 10161 10158 ] final   67.51 input  -65.29 | X-H torsion
[ 10718 10713 10712 10709 ] final  -87.05 input   66.30 | X-H torsion
[ 10763 10752 10751 10750 ] final -105.40 input  -60.55 | X-H torsion
[ 11005 11000 10999 10996 ] final   79.68 input  -57.11 | X-H torsion

> <Gold.Protein.ActiveResidues>
 VAL166  LYS551  ARG553  GLY616  TRP617  ASP618  TYR619  PRO620  LYS621  CYS622 
 ASP623  PHE694  ASN695  SER759  ASP760  ASP761  ALA762  ILE779  LEU786  VAL792 
 PHE793  MET794  SER795  GLU796  ALA797  LYS798  CYS799  TRP800  GLU811  SER814 

> <Gold.Protein.RotatedAtoms>
  150.8497  134.7817  159.6998 H   0  0  0  0  0  0  0  0  0  0  0  0  # atno 6907 bound_to 6896
  152.4565  134.5278  159.9811 H   0  0  0  0  0  0  0  0  0  0  0  0  # atno 6908 bound_to 6896
  151.5401  133.3396  159.2969 H   0  0  0  0  0  0  0  0  0  0  0  0  # atno 6909 bound_to 6896
  146.2439  140.0339  142.8387 H   0  0  0  0  0  0  0  0  0  0  0  0  # atno 7974 bound_to 7965
  155.7860  140.0871  157.2034 H   0  0  0  0  0  0  0  0  0  0  0  0  # atno 8008 bound_to 7997
  154.3987  140.1499  156.3165 H   0  0  0  0  0  0  0  0  0  0  0  0  # atno 8009 bound_to 7997
  155.8606  140.3430  155.5756 H   0  0  0  0  0  0  0  0  0  0  0  0  # atno 8010 bound_to 7997
  140.0887  144.5007  150.7113 H   0  0  0  0  0  0  0  0  0  0  0  0  # atno 10167 bound_to 10162
  155.9987  130.4786  150.4807 H   0  0  0  0  0  0  0  0  0  0  0  0  # atno 10718 bound_to 10713
  154.7944  135.4750  154.0127 H   0  0  0  0  0  0  0  0  0  0  0  0  # atno 10763 bound_to 10752
  153.1680  135.6820  153.8654 H   0  0  0  0  0  0  0  0  0  0  0  0  # atno 10764 bound_to 10752
  153.8246  135.3199  155.3391 H   0  0  0  0  0  0  0  0  0  0  0  0  # atno 10765 bound_to 10752
  139.9163  134.7861  156.1810 H   0  0  0  0  0  0  0  0  0  0  0  0  # atno 11005 bound_to 11000
  145.1130  140.9416  143.4645 LP  0  0  0  0  0  0  0  0  0  0  0  0  # atno 17320 bound_to 7965
  145.0557  139.3145  143.5906 LP  0  0  0  0  0  0  0  0  0  0  0  0  # atno 17321 bound_to 7965
  140.7040  143.2454  151.4782 LP  0  0  0  0  0  0  0  0  0  0  0  0  # atno 17342 bound_to 10162
  139.5737  144.1868  152.1873 LP  0  0  0  0  0  0  0  0  0  0  0  0  # atno 17343 bound_to 10162
  157.2813  131.0607  151.2196 LP  0  0  0  0  0  0  0  0  0  0  0  0  # atno 17370 bound_to 10713
  157.3241  130.6952  149.6286 LP  0  0  0  0  0  0  0  0  0  0  0  0  # atno 17371 bound_to 10713
  141.0642  133.6827  156.2012 LP  0  0  0  0  0  0  0  0  0  0  0  0  # atno 17394 bound_to 11000
  140.6612  134.4966  157.5583 LP  0  0  0  0  0  0  0  0  0  0  0  0  # atno 17395 bound_to 11000

$$$$
