AV-unprocessed.smi:648|AV-procd|sdf|3175|dock4
  -GOLD-   22720 0103D 1   1.00000     0.00000
 Structure written by MMmdl.
 45 46  0  0  0  0  0  0  0  0  1 V2000
  153.6759  137.9990  154.2967 C   0  0  0  0  0  0  0  0  0  0  0  0
  152.2835  138.3128  154.8641 C   0  0  1  0  0  0  0  0  0  0  0  0
  152.2597  139.7007  155.5325 C   0  0  0  0  0  0  0  0  0  0  0  0
  150.8885  140.0750  156.1424 C   0  0  0  0  0  0  0  0  0  0  0  0
  150.6645  139.3328  157.4805 C   0  0  0  0  0  0  0  0  0  0  0  0
  150.9020  141.5823  156.4802 C   0  0  0  0  0  0  0  0  0  0  0  0
  149.7476  139.8293  155.1068 C   0  0  0  0  0  0  0  0  0  0  0  0
  149.7684  138.4999  154.2866 C   0  0  1  0  0  0  0  0  0  0  0  0
  149.2561  137.3136  155.1491 C   0  0  0  0  0  0  0  0  0  0  0  0
  148.8394  136.2171  154.3569 O   0  0  0  0  0  0  0  0  0  0  0  0
  148.8029  138.6029  153.1679 N   0  0  0  0  0  0  0  0  0  0  0  0
  147.4588  139.1409  153.4101 C   0  0  0  0  0  0  0  0  0  0  0  0
  146.6774  139.2435  152.0935 C   0  0  0  0  0  0  0  0  0  0  0  0
  146.0097  137.9987  151.7683 N   0  0  0  0  0  0  0  0  0  0  0  0
  145.1224  137.2836  152.4617 C   0  0  0  0  0  0  0  0  0  0  0  0
  144.7193  136.1833  151.8412 N   0  0  0  0  0  0  0  0  0  0  0  0
  145.4485  136.2910  150.6904 C   0  0  0  0  0  0  0  0  0  0  0  0
  146.2371  137.3618  150.5956 N   0  0  0  0  0  0  0  0  0  0  0  0
  151.2107  138.2473  153.7625 C   0  0  0  0  0  0  0  0  0  0  0  0
  153.9651  138.7199  153.5313 H   0  0  0  0  0  0  0  0  0  0  0  0
  153.7014  137.0068  153.8454 H   0  0  0  0  0  0  0  0  0  0  0  0
  154.4339  138.0230  155.0800 H   0  0  0  0  0  0  0  0  0  0  0  0
  152.0722  137.5499  155.6120 H   0  0  0  0  0  0  0  0  0  0  0  0
  153.0319  139.7555  156.3014 H   0  0  0  0  0  0  0  0  0  0  0  0
  152.5351  140.4452  154.7837 H   0  0  0  0  0  0  0  0  0  0  0  0
  149.6316  139.4206  157.8191 H   0  0  0  0  0  0  0  0  0  0  0  0
  151.2960  139.7475  158.2672 H   0  0  0  0  0  0  0  0  0  0  0  0
  150.9174  138.2774  157.4383 H   0  0  0  0  0  0  0  0  0  0  0  0
  149.9576  141.8972  156.9256 H   0  0  0  0  0  0  0  0  0  0  0  0
  151.0643  142.1958  155.5930 H   0  0  0  0  0  0  0  0  0  0  0  0
  151.6955  141.8277  157.1871 H   0  0  0  0  0  0  0  0  0  0  0  0
  148.7773  139.9477  155.5911 H   0  0  0  0  0  0  0  0  0  0  0  0
  149.8052  140.6583  154.4047 H   0  0  0  0  0  0  0  0  0  0  0  0
  150.0141  136.9272  155.8192 H   0  0  0  0  0  0  0  0  0  0  0  0
  148.4208  137.6262  155.7772 H   0  0  0  0  0  0  0  0  0  0  0  0
  149.1335  136.3594  153.4701 H   0  0  0  0  0  0  0  0  0  0  0  0
  149.2372  139.1040  152.3989 H   0  0  0  0  0  0  0  0  0  0  0  0
  146.8988  138.5201  154.1069 H   0  0  0  0  0  0  0  0  0  0  0  0
  147.5198  140.1375  153.8460 H   0  0  0  0  0  0  0  0  0  0  0  0
  145.9252  140.0312  152.1574 H   0  0  0  0  0  0  0  0  0  0  0  0
  147.3443  139.5055  151.2707 H   0  0  0  0  0  0  0  0  0  0  0  0
  144.7649  137.5729  153.4392 H   0  0  0  0  0  0  0  0  0  0  0  0
  145.3956  135.5585  149.8984 H   0  0  0  0  0  0  0  0  0  0  0  0
  151.4809  139.0008  153.0236 H   0  0  0  0  0  0  0  0  0  0  0  0
  151.2667  137.2911  153.2411 H   0  0  0  0  0  0  0  0  0  0  0  0
  1  2  1  0  0  0  0
  1 20  1  0  0  0  0
  1 21  1  0  0  0  0
  1 22  1  0  0  0  0
  2 19  1  0  0  0  0
  2  3  1  0  0  0  0
  2 23  1  0  0  0  0
  3  4  1  0  0  0  0
  3 24  1  0  0  0  0
  3 25  1  0  0  0  0
  4  5  1  0  0  0  0
  4  6  1  0  0  0  0
  4  7  1  0  0  0  0
  5 26  1  0  0  0  0
  5 27  1  0  0  0  0
  5 28  1  0  0  0  0
  6 29  1  0  0  0  0
  6 30  1  0  0  0  0
  6 31  1  0  0  0  0
  7  8  1  0  0  0  0
  7 32  1  0  0  0  0
  7 33  1  0  0  0  0
  8  9  1  0  0  0  0
  8 11  1  0  0  0  0
  8 19  1  0  0  0  0
  9 10  1  0  0  0  0
  9 34  1  0  0  0  0
  9 35  1  0  0  0  0
 10 36  1  0  0  0  0
 11 12  1  0  0  0  0
 11 37  1  0  0  0  0
 12 13  1  0  0  0  0
 12 38  1  0  0  0  0
 12 39  1  0  0  0  0
 13 14  1  0  0  0  0
 13 40  1  0  0  0  0
 13 41  1  0  0  0  0
 14 18  1  0  0  0  0
 14 15  1  0  0  0  0
 15 16  2  0  0  0  0
 15 42  1  0  0  0  0
 16 17  1  0  0  0  0
 17 18  2  0  0  0  0
 17 43  1  0  0  0  0
 19 44  1  0  0  0  0
 19 45  1  0  0  0  0
M  END
> <s_m_source_file>
AV-unprocessed.smi

> <i_m_source_file_index>
648

> <i_lp_mmshare_version>
43012

> <i_f3d_flags>
0

> <s_epik_input>
W0NIM11DMShbQ0gzXSlbQ0gyXVtDQEBIXShbQ0gzXSlbQ0gyXVtDQF0oW0NIMl0xKShbQ0gyXVtPSF0pW05IXVtDSDJdW0NIMl1uMltjSF1uW2NIXW4y

> <s_epik_cmdline>
J2VwaWtfcHl0aG9uJywgJy1waCcsICc3LjAnLCAnLXRuJywgJzgnLCAnLW1hJywgJzIwMCcsICctbWV0YWxfYmluZGluZycsICctaW1hZScsICc8aW5maWxlLm1hZT4nLCAnLW9tYWUnLCAnPG91dGZpbGUubWFlPic=

> <r_lp_tautomer_probability>
1

> <r_epik_Ionization_Penalty>
2.45849

> <r_epik_Ionization_Penalty_Charging>
0

> <r_epik_Ionization_Penalty_Neutral>
2.45849

> <r_epik_State_Penalty>
2.62037

> <r_epik_Charging_Adjusted_Penalty>
2.62037

> <i_epik_Tot_Q>
0

> <i_epik_Tot_abs_Q>
0

> <r_epik_Metal_State_Penalty>
2.62024

> <b_epik_Metal_Only>
0

> <s_lp_Force_Field>
OPLS_2005

> <r_lp_Energy>
36.0578

> <b_lp_Chiralities_Consistent>
1

> <s_lp_Variant>
AV-unprocessed.smi:648-6

> <Gold.Version>
5.8.1

> <Gold.Id.Protein>
6NUR|6NUR_protein|mol2

> <Gold.PLP.Fitness>
44.4014

> <Gold.PLP.PLP>
-33.5661

> <Gold.PLP.part.hbond>
-4.0000

> <Gold.PLP.part.metal>
0.0000

> <Gold.PLP.part.buried>
2.2255

> <Gold.PLP.part.nonpolar>
-33.8156

> <Gold.PLP.part.repulsive>
2.4870

> <Gold.PLP.ligand.clash>
0.0000

> <Gold.PLP.ligand.torsion>
0.5444

> <Gold.PLP.Chemscore.Hbond>
2.9516

> <Gold.PLP.Chemscore.CHOScore>
1.0000

> <Gold.PLP.Chemscore.Metal>
0.0000

> <Gold.Chemscore.Hbonds>
donor molecule, donor type, donor heavy atom, donor atom, acceptor molecule, acceptor atom, score
      L1  H    10    36       P1  7948  1.00
      L1  H    11    37       P1  7957  1.00
      P1  H  7954  7966       L1    18  0.75
      L1  C    17    43       P1  7921  1.00

> <Gold.PLP.Chemscore.Internal.Correction>
0.0694

> <Gold.Rescore>
     Score         DG    S(hbond)    S(metal)    S(lipo)     H(rot)  DE(clash)    DE(int)     intcor
     11.18     -14.24       2.28        0.00      77.97       3.12       2.48       0.58       ----

> <Gold.Chemscore.Fitness>
11.1830

> <Gold.Chemscore.DG>
-14.2441

> <Gold.Chemscore.ZeroCoef>
-5.4800

> <Gold.Chemscore.Hbond>
2.2828

> <Gold.Chemscore.Metal>
0.0000

> <Gold.Chemscore.Lipo>
77.9698

> <Gold.Chemscore.Internal_Hbond>
0.0000

> <Gold.Chemscore.DEClash>
2.4778

> <Gold.Chemscore.DEInternal>
0.5833

> <Gold.Chemscore.Rot>
3.1183

> <Gold.Chemscore.Internal.Correction>
   9.000000E+99

> <Gold.Chemscore.Hbonds>
donor molecule, donor type, donor heavy atom, donor atom, acceptor molecule, acceptor atom, score
      L1  H    10    36       P1  7948  0.93
      L1  H    11    37       P1  7957  0.96
      P1  H  7954  7966       L1    18  0.54

> <Gold.Chemscore.Hbond.Weighted>
-7.6245

> <Gold.Chemscore.Metal.Weighted>
-0.0000

> <Gold.Chemscore.Lipo.Weighted>
-9.1225

> <Gold.Chemscore.Internal_Hbond.Weighted>
0.0000

> <Gold.Chemscore.DEClash.Weighted>
2.4778

> <Gold.Chemscore.DEInternal.Weighted>
0.5833

> <Gold.Chemscore.Rot.Weighted>
7.9829

> <Gold.Chemscore.Internal.Correction.Weighted>
   9.000000E+99

> <Gold.Protein.RotatedTorsions>
[ 6907 6896 6895 6894 ] final  160.07 input  -60.11 | X-H torsion
[ 7974 7965 7964 7962 ] final -154.03 input  175.53 | X-H torsion
[ 8008 7997 7996 7995 ] final -133.42 input   59.86 | X-H torsion
[ 10167 10162 10161 10158 ] final   -6.65 input  -65.29 | X-H torsion
[ 10718 10713 10712 10709 ] final   86.65 input   66.30 | X-H torsion
[ 10763 10752 10751 10750 ] final  -28.37 input  -60.55 | X-H torsion
[ 11005 11000 10999 10996 ] final  -15.17 input  -57.11 | X-H torsion

> <Gold.Protein.ActiveResidues>
 VAL166  LYS551  ARG553  GLY616  TRP617  ASP618  TYR619  PRO620  LYS621  CYS622 
 ASP623  PHE694  ASN695  SER759  ASP760  ASP761  ALA762  ILE779  LEU786  VAL792 
 PHE793  MET794  SER795  GLU796  ALA797  LYS798  CYS799  TRP800  GLU811  SER814 

> <Gold.Protein.RotatedAtoms>
  151.9762  133.3742  159.4089 H   0  0  0  0  0  0  0  0  0  0  0  0  # atno 6907 bound_to 6896
  150.6941  134.4087  159.5161 H   0  0  0  0  0  0  0  0  0  0  0  0  # atno 6908 bound_to 6896
  152.1799  134.8762  160.0578 H   0  0  0  0  0  0  0  0  0  0  0  0  # atno 6909 bound_to 6896
  144.7710  140.4444  143.5907 H   0  0  0  0  0  0  0  0  0  0  0  0  # atno 7974 bound_to 7965
  155.3452  140.0474  157.3045 H   0  0  0  0  0  0  0  0  0  0  0  0  # atno 8008 bound_to 7997
  154.5256  140.2240  155.8860 H   0  0  0  0  0  0  0  0  0  0  0  0  # atno 8009 bound_to 7997
  156.1736  140.3090  155.9024 H   0  0  0  0  0  0  0  0  0  0  0  0  # atno 8010 bound_to 7997
  140.7004  143.6170  150.8649 H   0  0  0  0  0  0  0  0  0  0  0  0  # atno 10167 bound_to 10162
  157.6931  131.0224  150.3005 H   0  0  0  0  0  0  0  0  0  0  0  0  # atno 10718 bound_to 10713
  153.7472  135.6928  153.4953 H   0  0  0  0  0  0  0  0  0  0  0  0  # atno 10763 bound_to 10752
  153.2028  135.4430  155.0286 H   0  0  0  0  0  0  0  0  0  0  0  0  # atno 10764 bound_to 10752
  154.8200  135.3417  154.6995 H   0  0  0  0  0  0  0  0  0  0  0  0  # atno 10765 bound_to 10752
  140.7939  133.8266  155.9406 H   0  0  0  0  0  0  0  0  0  0  0  0  # atno 11005 bound_to 11000
  145.6324  139.1538  143.2961 LP  0  0  0  0  0  0  0  0  0  0  0  0  # atno 17320 bound_to 7965
  146.1856  140.6427  142.9169 LP  0  0  0  0  0  0  0  0  0  0  0  0  # atno 17321 bound_to 7965
  139.9892  143.5866  152.2916 LP  0  0  0  0  0  0  0  0  0  0  0  0  # atno 17342 bound_to 10162
  139.6515  144.7661  151.2139 LP  0  0  0  0  0  0  0  0  0  0  0  0  # atno 17343 bound_to 10162
  156.3522  130.3833  149.7320 LP  0  0  0  0  0  0  0  0  0  0  0  0  # atno 17370 bound_to 10713
  156.4794  130.8034  151.3049 LP  0  0  0  0  0  0  0  0  0  0  0  0  # atno 17371 bound_to 10713
  140.9362  134.1959  157.4830 LP  0  0  0  0  0  0  0  0  0  0  0  0  # atno 17394 bound_to 11000
  139.8728  134.9853  156.5276 LP  0  0  0  0  0  0  0  0  0  0  0  0  # atno 17395 bound_to 11000

$$$$
