AV-unprocessed.smi:1346|AV-procd|sdf|5515|dock8
  -GOLD-   22720 5103D 1   1.00000     0.00000
 Structure written by MMmdl.
 47 48  0  0  0  0  0  0  0  0  1 V2000
  148.0972  139.2470  156.4929 C   0  0  0  0  0  0  0  0  0  0  0  0
  149.3923  139.3338  155.7369 C   0  0  0  0  0  0  0  0  0  0  0  0
  149.4438  140.0515  154.6275 N   0  0  0  0  0  0  0  0  0  0  0  0
  150.7532  139.9307  154.1526 O   0  0  0  0  0  0  0  0  0  0  0  0
  151.4463  139.1324  155.0035 C   0  0  0  0  0  0  0  0  0  0  0  0
  152.8748  138.8720  154.6643 C   0  0  0  0  0  0  0  0  0  0  0  0
  150.6452  138.7206  156.0328 C   0  0  0  0  0  0  0  0  0  0  0  0
  151.0017  137.8273  157.1938 C   0  0  0  0  0  0  0  0  0  0  0  0
  151.5720  138.6720  158.3328 C   0  0  0  0  0  0  0  0  0  0  0  0
  150.8832  139.5442  158.8614 O   0  0  0  0  0  0  0  0  0  0  0  0
  152.8384  138.4131  158.6854 N   0  0  0  0  0  0  0  0  0  0  0  0
  153.5990  139.1615  159.6751 C   0  0  0  0  0  0  0  0  0  0  0  0
  153.6974  140.6325  159.2582 C   0  0  0  0  0  0  0  0  0  0  0  0
  153.1285  141.4314  160.2857 O   0  0  0  0  0  0  0  0  0  0  0  0
  153.1009  142.8265  160.0129 C   0  0  1  0  0  0  0  0  0  0  0  0
  152.4858  143.0690  158.6172 C   0  0  0  0  0  0  0  0  0  0  0  0
  152.2968  144.5664  158.3339 C   0  0  0  0  0  0  0  0  0  0  0  0
  151.4466  145.2296  159.4259 C   0  0  0  0  0  0  0  0  0  0  0  0
  152.0612  145.0028  160.8150 C   0  0  0  0  0  0  0  0  0  0  0  0
  152.2554  143.5030  161.1164 C   0  0  2  0  0  0  0  0  0  0  0  0
  152.8742  143.3067  162.5101 C   0  0  0  0  0  0  0  0  0  0  0  0
  148.2640  139.0029  157.5418 H   0  0  0  0  0  0  0  0  0  0  0  0
  147.4547  138.4746  156.0708 H   0  0  0  0  0  0  0  0  0  0  0  0
  147.5504  140.1896  156.4585 H   0  0  0  0  0  0  0  0  0  0  0  0
  153.1354  137.8319  154.8612 H   0  0  0  0  0  0  0  0  0  0  0  0
  153.5330  139.5043  155.2598 H   0  0  0  0  0  0  0  0  0  0  0  0
  153.0712  139.0739  153.6111 H   0  0  0  0  0  0  0  0  0  0  0  0
  150.1298  137.2855  157.5619 H   0  0  0  0  0  0  0  0  0  0  0  0
  151.7267  137.0659  156.9031 H   0  0  0  0  0  0  0  0  0  0  0  0
  153.3282  137.6790  158.1950 H   0  0  0  0  0  0  0  0  0  0  0  0
  153.1221  139.0827  160.6535 H   0  0  0  0  0  0  0  0  0  0  0  0
  154.5963  138.7290  159.7639 H   0  0  0  0  0  0  0  0  0  0  0  0
  154.7430  140.9080  159.1141 H   0  0  0  0  0  0  0  0  0  0  0  0
  153.1855  140.7835  158.3077 H   0  0  0  0  0  0  0  0  0  0  0  0
  154.1122  143.2367  160.0474 H   0  0  0  0  0  0  0  0  0  0  0  0
  153.1124  142.6366  157.8381 H   0  0  0  0  0  0  0  0  0  0  0  0
  151.5210  142.5650  158.5501 H   0  0  0  0  0  0  0  0  0  0  0  0
  153.2707  145.0545  158.2791 H   0  0  0  0  0  0  0  0  0  0  0  0
  151.8252  144.7043  157.3605 H   0  0  0  0  0  0  0  0  0  0  0  0
  151.3556  146.2982  159.2290 H   0  0  0  0  0  0  0  0  0  0  0  0
  150.4349  144.8225  159.4014 H   0  0  0  0  0  0  0  0  0  0  0  0
  153.0207  145.5184  160.8748 H   0  0  0  0  0  0  0  0  0  0  0  0
  151.4211  145.4554  161.5731 H   0  0  0  0  0  0  0  0  0  0  0  0
  151.2697  143.0350  161.1236 H   0  0  0  0  0  0  0  0  0  0  0  0
  153.8723  143.7421  162.5654 H   0  0  0  0  0  0  0  0  0  0  0  0
  152.9583  142.2494  162.7628 H   0  0  0  0  0  0  0  0  0  0  0  0
  152.2627  143.7770  163.2804 H   0  0  0  0  0  0  0  0  0  0  0  0
  1  2  1  0  0  0  0
  1 22  1  0  0  0  0
  1 23  1  0  0  0  0
  1 24  1  0  0  0  0
  2  7  1  0  0  0  0
  2  3  2  0  0  0  0
  3  4  1  0  0  0  0
  4  5  1  0  0  0  0
  5  6  1  0  0  0  0
  5  7  2  0  0  0  0
  6 25  1  0  0  0  0
  6 26  1  0  0  0  0
  6 27  1  0  0  0  0
  7  8  1  0  0  0  0
  8  9  1  0  0  0  0
  8 28  1  0  0  0  0
  8 29  1  0  0  0  0
  9 10  2  0  0  0  0
  9 11  1  0  0  0  0
 11 12  1  0  0  0  0
 11 30  1  0  0  0  0
 12 13  1  0  0  0  0
 12 31  1  0  0  0  0
 12 32  1  0  0  0  0
 13 14  1  0  0  0  0
 13 33  1  0  0  0  0
 13 34  1  0  0  0  0
 14 15  1  0  0  0  0
 15 20  1  0  0  0  0
 15 16  1  0  0  0  0
 15 35  1  0  0  0  0
 16 17  1  0  0  0  0
 16 36  1  0  0  0  0
 16 37  1  0  0  0  0
 17 18  1  0  0  0  0
 17 38  1  0  0  0  0
 17 39  1  0  0  0  0
 18 19  1  0  0  0  0
 18 40  1  0  0  0  0
 18 41  1  0  0  0  0
 19 20  1  0  0  0  0
 19 42  1  0  0  0  0
 19 43  1  0  0  0  0
 20 21  1  0  0  0  0
 20 44  1  0  0  0  0
 21 45  1  0  0  0  0
 21 46  1  0  0  0  0
 21 47  1  0  0  0  0
M  END
> <s_m_source_file>
AV-unprocessed.smi

> <i_m_source_file_index>
1346

> <i_lp_mmshare_version>
43012

> <i_f3d_flags>
0

> <s_epik_input>
W0NIM11jMW5vYyhbQ0gzXSljMVtDSDJdQyg9TylbTkhdW0NIMl1bQ0gyXU9bQ0BASF0yW0NIMl1bQ0gyXVtDSDJdW0NIMl1bQ0BIXTJbQ0gzXQ==

> <s_epik_cmdline>
J2VwaWtfcHl0aG9uJywgJy1waCcsICc3LjAnLCAnLXRuJywgJzgnLCAnLW1hJywgJzIwMCcsICctbWV0YWxfYmluZGluZycsICctaW1hZScsICc8aW5maWxlLm1hZT4nLCAnLW9tYWUnLCAnPG91dGZpbGUubWFlPic=

> <r_lp_tautomer_probability>
1

> <r_epik_Ionization_Penalty>
3.26154e-08

> <r_epik_Ionization_Penalty_Charging>
0

> <r_epik_Ionization_Penalty_Neutral>
3.26154e-08

> <r_epik_State_Penalty>
-0

> <r_epik_Charging_Adjusted_Penalty>
0

> <i_epik_Tot_Q>
0

> <i_epik_Tot_abs_Q>
0

> <r_epik_Metal_State_Penalty>
-0

> <b_epik_Metal_Only>
0

> <s_lp_Force_Field>
OPLS_2005

> <r_lp_Energy>
4.3429

> <b_lp_Chiralities_Consistent>
1

> <s_lp_Variant>
AV-unprocessed.smi:1346-4

> <Gold.Version>
5.8.1

> <Gold.Id.Protein>
6NUR|6NUR_protein|mol2

> <Gold.PLP.Fitness>
44.5713

> <Gold.PLP.PLP>
-43.1127

> <Gold.PLP.part.hbond>
-0.9967

> <Gold.PLP.part.metal>
0.0000

> <Gold.PLP.part.buried>
-6.2505

> <Gold.PLP.part.nonpolar>
-35.7939

> <Gold.PLP.part.repulsive>
0.3476

> <Gold.PLP.ligand.clash>
0.0000

> <Gold.PLP.ligand.torsion>
0.7928

> <Gold.PLP.Chemscore.Hbond>
1.0000

> <Gold.PLP.Chemscore.CHOScore>
0.0000

> <Gold.PLP.Chemscore.Metal>
0.0000

> <Gold.Chemscore.Hbonds>
donor molecule, donor type, donor heavy atom, donor atom, acceptor molecule, acceptor atom, score
      P1  H  7989  7998       L1     4  0.76

> <Gold.PLP.Chemscore.Internal.Correction>
0.0443

> <Gold.Rescore>
     Score         DG    S(hbond)    S(metal)    S(lipo)     H(rot)  DE(clash)    DE(int)     intcor
     18.22     -19.17       0.98        0.00     127.06       1.74       0.28       0.67       ----

> <Gold.Chemscore.Fitness>
18.2203

> <Gold.Chemscore.DG>
-19.1714

> <Gold.Chemscore.ZeroCoef>
-5.4800

> <Gold.Chemscore.Hbond>
0.9784

> <Gold.Chemscore.Metal>
0.0000

> <Gold.Chemscore.Lipo>
127.0568

> <Gold.Chemscore.Internal_Hbond>
0.0000

> <Gold.Chemscore.DEClash>
0.2803

> <Gold.Chemscore.DEInternal>
0.6708

> <Gold.Chemscore.Rot>
1.7352

> <Gold.Chemscore.Internal.Correction>
   9.000000E+99

> <Gold.Chemscore.Hbonds>
donor molecule, donor type, donor heavy atom, donor atom, acceptor molecule, acceptor atom, score
      P1  H  7989  7998       L1     4  0.60

> <Gold.Chemscore.Hbond.Weighted>
-3.2678

> <Gold.Chemscore.Metal.Weighted>
-0.0000

> <Gold.Chemscore.Lipo.Weighted>
-14.8656

> <Gold.Chemscore.Internal_Hbond.Weighted>
0.0000

> <Gold.Chemscore.DEClash.Weighted>
0.2803

> <Gold.Chemscore.DEInternal.Weighted>
0.6708

> <Gold.Chemscore.Rot.Weighted>
4.4420

> <Gold.Chemscore.Internal.Correction.Weighted>
   9.000000E+99

> <Gold.Protein.RotatedTorsions>
[ 6907 6896 6895 6894 ] final  -29.09 input  -60.11 | X-H torsion
[ 7974 7965 7964 7962 ] final -103.75 input  175.53 | X-H torsion
[ 8008 7997 7996 7995 ] final -146.81 input   59.86 | X-H torsion
[ 10167 10162 10161 10158 ] final -149.12 input  -65.29 | X-H torsion
[ 10718 10713 10712 10709 ] final  -66.42 input   66.30 | X-H torsion
[ 10763 10752 10751 10750 ] final  -32.68 input  -60.55 | X-H torsion
[ 11005 11000 10999 10996 ] final  171.45 input  -57.11 | X-H torsion

> <Gold.Protein.ActiveResidues>
 VAL166  LYS551  ARG553  GLY616  TRP617  ASP618  TYR619  PRO620  LYS621  CYS622 
 ASP623  PHE694  ASN695  SER759  ASP760  ASP761  ALA762  ILE779  LEU786  VAL792 
 PHE793  MET794  SER795  GLU796  ALA797  LYS798  CYS799  TRP800  GLU811  SER814 

> <Gold.Protein.RotatedAtoms>
  151.1239  135.0094  159.8551 H   0  0  0  0  0  0  0  0  0  0  0  0  # atno 6907 bound_to 6896
  152.5449  134.1689  159.8599 H   0  0  0  0  0  0  0  0  0  0  0  0  # atno 6908 bound_to 6896
  151.1750  133.4715  159.2627 H   0  0  0  0  0  0  0  0  0  0  0  0  # atno 6909 bound_to 6896
  145.2519  140.9241  143.3090 H   0  0  0  0  0  0  0  0  0  0  0  0  # atno 7974 bound_to 7965
  155.5654  140.0629  157.2819 H   0  0  0  0  0  0  0  0  0  0  0  0  # atno 8008 bound_to 7997
  154.4377  140.1878  156.0870 H   0  0  0  0  0  0  0  0  0  0  0  0  # atno 8009 bound_to 7997
  156.0416  140.3295  155.7254 H   0  0  0  0  0  0  0  0  0  0  0  0  # atno 8010 bound_to 7997
  139.7470  143.8575  152.2577 H   0  0  0  0  0  0  0  0  0  0  0  0  # atno 10167 bound_to 10162
  156.0613  130.4262  150.1706 H   0  0  0  0  0  0  0  0  0  0  0  0  # atno 10718 bound_to 10713
  153.8177  135.6877  153.4831 H   0  0  0  0  0  0  0  0  0  0  0  0  # atno 10763 bound_to 10752
  153.1588  135.4588  154.9741 H   0  0  0  0  0  0  0  0  0  0  0  0  # atno 10764 bound_to 10752
  154.7940  135.3312  154.7652 H   0  0  0  0  0  0  0  0  0  0  0  0  # atno 10765 bound_to 10752
  140.3191  134.7452  157.4050 H   0  0  0  0  0  0  0  0  0  0  0  0  # atno 11005 bound_to 11000
  144.9495  139.4099  143.6409 LP  0  0  0  0  0  0  0  0  0  0  0  0  # atno 17320 bound_to 7965
  146.3300  139.8495  142.8875 LP  0  0  0  0  0  0  0  0  0  0  0  0  # atno 17321 bound_to 7965
  139.8542  144.7149  150.9177 LP  0  0  0  0  0  0  0  0  0  0  0  0  # atno 17342 bound_to 10162
  140.7793  143.3873  151.1372 LP  0  0  0  0  0  0  0  0  0  0  0  0  # atno 17343 bound_to 10162
  156.9774  130.9853  151.3445 LP  0  0  0  0  0  0  0  0  0  0  0  0  # atno 17370 bound_to 10713
  157.5624  130.8255  149.8283 LP  0  0  0  0  0  0  0  0  0  0  0  0  # atno 17371 bound_to 10713
  140.0957  134.5540  155.8401 LP  0  0  0  0  0  0  0  0  0  0  0  0  # atno 17394 bound_to 11000
  141.2090  133.6680  156.6413 LP  0  0  0  0  0  0  0  0  0  0  0  0  # atno 17395 bound_to 11000

$$$$
