AV-unprocessed.smi:21|AV-procd|sdf|156|dock3
  -GOLD-   2262015383D 1   1.00000     0.00000
 Structure written by MMmdl.
 61 64  0  0  0  0  0  0  0  0  1 V2000
  152.3205  145.0977  158.5811 C   0  0  0  0  0  0  0  0  0  0  0  0
  153.1210  144.1648  159.2891 O   0  0  0  0  0  0  0  0  0  0  0  0
  152.3770  143.0754  159.8173 C   0  0  2  0  0  0  0  0  0  0  0  0
  153.2561  142.1593  160.6847 C   0  0  0  0  0  0  0  0  0  0  0  0
  153.0200  140.7521  160.1173 C   0  0  2  0  0  0  0  0  0  0  0  0
  154.1770  139.7649  160.3965 C   0  0  0  0  0  0  0  0  0  0  0  0
  153.9739  138.4422  159.8033 N   0  0  0  0  0  0  0  0  0  0  0  0
  152.9276  137.6021  160.3797 C   0  0  0  0  0  0  0  0  0  0  0  0
  155.0346  137.8294  159.2094 C   0  0  0  0  0  0  0  0  0  0  0  0
  156.1096  138.5802  158.8446 N   0  0  0  0  0  0  0  0  0  0  0  0
  157.1487  138.0232  158.2172 C   0  0  0  0  0  0  0  0  0  0  0  0
  157.3222  136.7504  157.8610 N   0  0  0  0  0  0  0  0  0  0  0  0
  156.2597  135.9850  158.2396 C   0  0  0  0  0  0  0  0  0  0  0  0
  155.0908  136.4337  158.9192 C   0  0  0  0  0  0  0  0  0  0  0  0
  154.2468  135.3528  159.1535 N   0  0  0  0  0  0  0  0  0  0  0  0
  154.8663  134.3346  158.6233 C   0  0  0  0  0  0  0  0  0  0  0  0
  156.0771  134.6287  158.0410 N   0  0  0  0  0  0  0  0  0  0  0  0
  156.9708  133.7039  157.3683 C   0  0  0  0  0  0  0  0  0  0  0  0
  156.2799  132.8609  156.2630 C   0  0  2  0  0  0  0  0  0  0  0  0
  155.2315  131.8759  156.8418 C   0  0  0  0  0  0  0  0  0  0  0  0
  155.7642  131.0870  157.8857 O   0  0  0  0  0  0  0  0  0  0  0  0
  157.3383  132.1120  155.4116 C   0  0  2  0  0  0  0  0  0  0  0  0
  158.2826  133.0103  154.6292 C   0  0  0  0  0  0  0  0  0  0  0  0
  158.8394  132.0571  153.5801 C   0  0  0  0  0  0  0  0  0  0  0  0
  157.7631  131.1855  153.2611 O   0  0  0  0  0  0  0  0  0  0  0  0
  156.7630  131.2570  154.2732 C   0  0  0  0  0  0  0  0  0  0  0  0
  152.7631  140.9849  158.7049 N   0  0  0  0  0  0  0  0  0  0  0  0
  152.1573  139.8520  158.0176 C   0  0  0  0  0  0  0  0  0  0  0  0
  151.9097  142.1591  158.6799 C   0  0  0  0  0  0  0  0  0  0  0  0
  151.5057  143.4355  160.3678 H   0  0  0  0  0  0  0  0  0  0  0  0
  152.1073  140.3600  160.5699 H   0  0  0  0  0  0  0  0  0  0  0  0
  152.9420  145.9232  158.2348 H   0  0  0  0  0  0  0  0  0  0  0  0
  151.5319  145.5125  159.2097 H   0  0  0  0  0  0  0  0  0  0  0  0
  151.8598  144.6349  157.7075 H   0  0  0  0  0  0  0  0  0  0  0  0
  154.3065  142.4341  160.5745 H   0  0  0  0  0  0  0  0  0  0  0  0
  153.0028  142.2298  161.7428 H   0  0  0  0  0  0  0  0  0  0  0  0
  155.1005  140.1581  159.9727 H   0  0  0  0  0  0  0  0  0  0  0  0
  154.3626  139.7079  161.4662 H   0  0  0  0  0  0  0  0  0  0  0  0
  152.5874  136.8575  159.6589 H   0  0  0  0  0  0  0  0  0  0  0  0
  152.0652  138.2045  160.6657 H   0  0  0  0  0  0  0  0  0  0  0  0
  153.2893  137.0855  161.2696 H   0  0  0  0  0  0  0  0  0  0  0  0
  157.9537  138.6953  157.9588 H   0  0  0  0  0  0  0  0  0  0  0  0
  154.4489  133.3384  158.6326 H   0  0  0  0  0  0  0  0  0  0  0  0
  157.7850  134.2966  156.9518 H   0  0  0  0  0  0  0  0  0  0  0  0
  157.4185  133.0482  158.1161 H   0  0  0  0  0  0  0  0  0  0  0  0
  155.7586  133.5452  155.5915 H   0  0  0  0  0  0  0  0  0  0  0  0
  154.3814  132.4064  157.2677 H   0  0  0  0  0  0  0  0  0  0  0  0
  154.8355  131.2279  156.0595 H   0  0  0  0  0  0  0  0  0  0  0  0
  155.5292  131.4808  158.7122 H   0  0  0  0  0  0  0  0  0  0  0  0
  157.9363  131.4692  156.0600 H   0  0  0  0  0  0  0  0  0  0  0  0
  157.7301  133.8177  154.1460 H   0  0  0  0  0  0  0  0  0  0  0  0
  159.0695  133.4517  155.2412 H   0  0  0  0  0  0  0  0  0  0  0  0
  159.2112  132.5753  152.6961 H   0  0  0  0  0  0  0  0  0  0  0  0
  159.6556  131.4667  153.9982 H   0  0  0  0  0  0  0  0  0  0  0  0
  156.4837  130.2570  154.6062 H   0  0  0  0  0  0  0  0  0  0  0  0
  155.8785  131.7271  153.8414 H   0  0  0  0  0  0  0  0  0  0  0  0
  151.9349  140.1082  156.9813 H   0  0  0  0  0  0  0  0  0  0  0  0
  151.2265  139.5482  158.4985 H   0  0  0  0  0  0  0  0  0  0  0  0
  152.8297  138.9946  158.0047 H   0  0  0  0  0  0  0  0  0  0  0  0
  150.8752  141.8678  158.8699 H   0  0  0  0  0  0  0  0  0  0  0  0
  151.9356  142.6502  157.7066 H   0  0  0  0  0  0  0  0  0  0  0  0
  1  2  1  0  0  0  0
  1 32  1  0  0  0  0
  1 33  1  0  0  0  0
  1 34  1  0  0  0  0
  2  3  1  0  0  0  0
  3 30  1  0  0  0  0
  3 29  1  0  0  0  0
  3  4  1  0  0  0  0
  4  5  1  0  0  0  0
  4 35  1  0  0  0  0
  4 36  1  0  0  0  0
  5 31  1  0  0  0  0
  5  6  1  0  0  0  0
  5 27  1  0  0  0  0
  6  7  1  0  0  0  0
  6 37  1  0  0  0  0
  6 38  1  0  0  0  0
  7  8  1  0  0  0  0
  7  9  1  0  0  0  0
  8 39  1  0  0  0  0
  8 40  1  0  0  0  0
  8 41  1  0  0  0  0
  9 14  1  0  0  0  0
  9 10  2  0  0  0  0
 10 11  1  0  0  0  0
 11 12  2  0  0  0  0
 11 42  1  0  0  0  0
 12 13  1  0  0  0  0
 13 17  1  0  0  0  0
 13 14  2  0  0  0  0
 14 15  1  0  0  0  0
 15 16  2  0  0  0  0
 16 17  1  0  0  0  0
 16 43  1  0  0  0  0
 17 18  1  0  0  0  0
 18 19  1  0  0  0  0
 18 44  1  0  0  0  0
 18 45  1  0  0  0  0
 19 20  1  0  0  0  0
 19 22  1  0  0  0  0
 19 46  1  0  0  0  0
 20 21  1  0  0  0  0
 20 47  1  0  0  0  0
 20 48  1  0  0  0  0
 21 49  1  0  0  0  0
 22 26  1  0  0  0  0
 22 23  1  0  0  0  0
 22 50  1  0  0  0  0
 23 24  1  0  0  0  0
 23 51  1  0  0  0  0
 23 52  1  0  0  0  0
 24 25  1  0  0  0  0
 24 53  1  0  0  0  0
 24 54  1  0  0  0  0
 25 26  1  0  0  0  0
 26 55  1  0  0  0  0
 26 56  1  0  0  0  0
 27 28  1  0  0  0  0
 27 29  1  0  0  0  0
 28 57  1  0  0  0  0
 28 58  1  0  0  0  0
 28 59  1  0  0  0  0
 29 60  1  0  0  0  0
 29 61  1  0  0  0  0
M  END
> <s_m_source_file>
AV-unprocessed.smi

> <i_m_source_file_index>
21

> <i_lp_mmshare_version>
43012

> <i_f3d_flags>
0

> <s_epik_input>
W0NIM11PW0NASF0xW0NIMl1bQ0BIXShOKFtDSDNdKVtDSDJdMSlbQ0gyXU4oW0NIM10pYyhuW2NIXW4yKWMoYzIzKW5bY0hdbjNbQ0gyXVtDQEhdKFtDSDJdW09IXSlbQ0BASF00W0NIMl1bQ0gyXU9bQ0gyXTQ=

> <s_epik_cmdline>
J2VwaWtfcHl0aG9uJywgJy1waCcsICc3LjAnLCAnLXRuJywgJzgnLCAnLW1hJywgJzIwMCcsICctbWV0YWxfYmluZGluZycsICctaW1hZScsICc8aW5maWxlLm1hZT4nLCAnLW9tYWUnLCAnPG91dGZpbGUubWFlPic=

> <r_lp_tautomer_probability>
1

> <r_epik_Ionization_Penalty>
2.17574

> <r_epik_Ionization_Penalty_Charging>
0

> <r_epik_Ionization_Penalty_Neutral>
2.17574

> <r_epik_State_Penalty>
2.31336

> <r_epik_Charging_Adjusted_Penalty>
2.31336

> <i_epik_Tot_Q>
0

> <i_epik_Tot_abs_Q>
0

> <r_epik_Metal_State_Penalty>
2.31025

> <b_epik_Metal_Only>
0

> <s_lp_Force_Field>
OPLS_2005

> <r_lp_Energy>
68.7045

> <b_lp_Chiralities_Consistent>
1

> <s_lp_Variant>
AV-unprocessed.smi:21-36

> <Gold.Version>
5.8.1

> <Gold.Id.Protein>
6NUR|6NUR_protein|mol2

> <Gold.PLP.Fitness>
45.6889

> <Gold.PLP.PLP>
-37.2452

> <Gold.PLP.part.hbond>
-2.9854

> <Gold.PLP.part.metal>
0.0000

> <Gold.PLP.part.buried>
-5.5311

> <Gold.PLP.part.nonpolar>
-29.2802

> <Gold.PLP.part.repulsive>
0.1121

> <Gold.PLP.ligand.clash>
0.0000

> <Gold.PLP.ligand.torsion>
0.4980

> <Gold.PLP.Chemscore.Hbond>
2.9100

> <Gold.PLP.Chemscore.CHOScore>
0.0000

> <Gold.PLP.Chemscore.Metal>
0.0000

> <Gold.Chemscore.Hbonds>
donor molecule, donor type, donor heavy atom, donor atom, acceptor molecule, acceptor atom, score
      P1  H  6896  6909       L1    15  0.91
      P1  H  7997  8010       L1    10  0.57
      P1  H 10713 10718       L1    25  0.93

> <Gold.PLP.Chemscore.Internal.Correction>
0.7096

> <Gold.Rescore>
     Score         DG    S(hbond)    S(metal)    S(lipo)     H(rot)  DE(clash)    DE(int)     intcor
     12.34     -16.10       2.02        0.00      98.73       3.00       0.02       3.74       ----

> <Gold.Chemscore.Fitness>
12.3417

> <Gold.Chemscore.DG>
-16.0976

> <Gold.Chemscore.ZeroCoef>
-5.4800

> <Gold.Chemscore.Hbond>
2.0222

> <Gold.Chemscore.Metal>
0.0000

> <Gold.Chemscore.Lipo>
98.7295

> <Gold.Chemscore.Internal_Hbond>
0.0000

> <Gold.Chemscore.DEClash>
0.0169

> <Gold.Chemscore.DEInternal>
3.7390

> <Gold.Chemscore.Rot>
3.0031

> <Gold.Chemscore.Internal.Correction>
   9.000000E+99

> <Gold.Chemscore.Hbonds>
donor molecule, donor type, donor heavy atom, donor atom, acceptor molecule, acceptor atom, score
      P1  H  6896  6909       L1    15  0.30
      P1  H  7997  8010       L1    10  0.11
      P1  H 10713 10718       L1    25  0.82

> <Gold.Chemscore.Hbond.Weighted>
-6.7543

> <Gold.Chemscore.Metal.Weighted>
-0.0000

> <Gold.Chemscore.Lipo.Weighted>
-11.5513

> <Gold.Chemscore.Internal_Hbond.Weighted>
0.0000

> <Gold.Chemscore.DEClash.Weighted>
0.0169

> <Gold.Chemscore.DEInternal.Weighted>
3.7390

> <Gold.Chemscore.Rot.Weighted>
7.6880

> <Gold.Chemscore.Internal.Correction.Weighted>
   9.000000E+99

> <Gold.Protein.RotatedTorsions>
[ 6907 6896 6895 6894 ] final -165.40 input  -60.11 | X-H torsion
[ 7974 7965 7964 7962 ] final  -61.89 input  175.53 | X-H torsion
[ 8008 7997 7996 7995 ] final  -10.94 input   59.86 | X-H torsion
[ 10167 10162 10161 10158 ] final  128.11 input  -65.29 | X-H torsion
[ 10718 10713 10712 10709 ] final  160.14 input   66.30 | X-H torsion
[ 10763 10752 10751 10750 ] final  133.43 input  -60.55 | X-H torsion
[ 11005 11000 10999 10996 ] final  118.73 input  -57.11 | X-H torsion

> <Gold.Protein.ActiveResidues>
 VAL166  LYS551  ARG553  GLY616  TRP617  ASP618  TYR619  PRO620  LYS621  CYS622 
 ASP623  PHE694  ASN695  SER759  ASP760  ASP761  ALA762  ILE779  LEU786  VAL792 
 PHE793  MET794  SER795  GLU796  ALA797  LYS798  CYS799  TRP800  GLU811  SER814 

> <Gold.Protein.RotatedAtoms>
  151.4270  133.3681  159.2763 H   0  0  0  0  0  0  0  0  0  0  0  0  # atno 6907 bound_to 6896
  150.9252  134.8670  159.7526 H   0  0  0  0  0  0  0  0  0  0  0  0  # atno 6908 bound_to 6896
  152.5001  134.4211  159.9533 H   0  0  0  0  0  0  0  0  0  0  0  0  # atno 6909 bound_to 6896
  145.7979  140.8672  143.0246 H   0  0  0  0  0  0  0  0  0  0  0  0  # atno 7974 bound_to 7965
  154.5509  140.2316  155.8486 H   0  0  0  0  0  0  0  0  0  0  0  0  # atno 8008 bound_to 7997
  156.1946  140.3068  155.9362 H   0  0  0  0  0  0  0  0  0  0  0  0  # atno 8009 bound_to 7997
  155.3072  140.0434  157.3023 H   0  0  0  0  0  0  0  0  0  0  0  0  # atno 8010 bound_to 7997
  139.5544  144.6837  151.4227 H   0  0  0  0  0  0  0  0  0  0  0  0  # atno 10167 bound_to 10162
  157.1545  131.0572  151.2263 H   0  0  0  0  0  0  0  0  0  0  0  0  # atno 10718 bound_to 10713
  153.8069  135.3134  155.3396 H   0  0  0  0  0  0  0  0  0  0  0  0  # atno 10763 bound_to 10752
  154.8067  135.4693  154.0412 H   0  0  0  0  0  0  0  0  0  0  0  0  # atno 10764 bound_to 10752
  153.1778  135.6888  153.8607 H   0  0  0  0  0  0  0  0  0  0  0  0  # atno 10765 bound_to 10752
  139.9120  134.9623  156.7547 H   0  0  0  0  0  0  0  0  0  0  0  0  # atno 11005 bound_to 11000
  144.6772  140.0217  143.7483 LP  0  0  0  0  0  0  0  0  0  0  0  0  # atno 17320 bound_to 7965
  145.9908  139.3013  143.0986 LP  0  0  0  0  0  0  0  0  0  0  0  0  # atno 17321 bound_to 7965
  140.6813  143.8074  150.7126 LP  0  0  0  0  0  0  0  0  0  0  0  0  # atno 17342 bound_to 10162
  140.1529  143.4342  152.2119 LP  0  0  0  0  0  0  0  0  0  0  0  0  # atno 17343 bound_to 10162
  157.4189  130.7427  149.6898 LP  0  0  0  0  0  0  0  0  0  0  0  0  # atno 17370 bound_to 10713
  155.9764  130.4075  150.3779 LP  0  0  0  0  0  0  0  0  0  0  0  0  # atno 17371 bound_to 10713
  140.6745  133.9529  155.7875 LP  0  0  0  0  0  0  0  0  0  0  0  0  # atno 17394 bound_to 11000
  141.0554  134.0424  157.3730 LP  0  0  0  0  0  0  0  0  0  0  0  0  # atno 17395 bound_to 11000

$$$$
