AV-unprocessed.smi:1071|AV-procd|sdf|4681|dock6
  -GOLD-   22720 3203D 1   1.00000     0.00000
 Structure written by MMmdl.
 46 47  0  0  0  0  0  0  0  0  1 V2000
  152.4132  144.8129  158.8841 C   0  0  0  0  0  0  0  0  0  0  0  0
  152.0573  143.4692  158.6105 O   0  0  0  0  0  0  0  0  0  0  0  0
  151.5914  143.2897  157.2833 C   0  0  0  0  0  0  0  0  0  0  0  0
  150.8551  141.9502  157.1864 C   0  0  0  0  0  0  0  0  0  0  0  0
  151.1462  141.3558  155.9249 O   0  0  0  0  0  0  0  0  0  0  0  0
  150.4198  140.2500  155.5337 C   0  0  0  0  0  0  0  0  0  0  0  0
  149.6184  139.5980  156.4917 C   0  0  0  0  0  0  0  0  0  0  0  0
  148.8743  138.4679  156.1030 C   0  0  0  0  0  0  0  0  0  0  0  0
  148.9632  138.0183  154.7639 C   0  0  0  0  0  0  0  0  0  0  0  0
  148.2500  136.9054  154.2422 N   0  0  0  0  0  0  0  0  0  0  0  0
  147.1483  136.3033  154.7322 C   0  0  0  0  0  0  0  0  0  0  0  0
  146.5006  136.7322  155.6864 O   0  0  0  0  0  0  0  0  0  0  0  0
  146.7572  135.2437  153.9819 N   0  0  0  0  0  0  0  0  0  0  0  0
  147.7261  134.2193  153.5604 C   0  0  0  0  0  0  0  0  0  0  0  0
  147.7142  133.0693  154.5898 C   0  0  0  0  0  0  0  0  0  0  0  0
  146.3724  132.4890  154.6824 N   0  0  0  0  0  0  0  0  0  0  0  0
  146.3638  131.4268  155.6775 C   0  0  0  0  0  0  0  0  0  0  0  0
  145.3834  133.5091  155.0411 C   0  0  0  0  0  0  0  0  0  0  0  0
  145.4067  134.6446  153.9954 C   0  0  1  0  0  0  0  0  0  0  0  0
  144.2433  135.6406  154.1826 C   0  0  0  0  0  0  0  0  0  0  0  0
  149.7813  138.7507  153.8790 C   0  0  0  0  0  0  0  0  0  0  0  0
  150.4972  139.8345  154.2451 N   0  0  0  0  0  0  0  0  0  0  0  0
  152.7662  144.8958  159.9118 H   0  0  0  0  0  0  0  0  0  0  0  0
  151.5573  145.4790  158.7672 H   0  0  0  0  0  0  0  0  0  0  0  0
  153.2137  145.1515  158.2249 H   0  0  0  0  0  0  0  0  0  0  0  0
  150.9358  144.1087  156.9833 H   0  0  0  0  0  0  0  0  0  0  0  0
  152.4438  143.2858  156.6023 H   0  0  0  0  0  0  0  0  0  0  0  0
  151.2030  141.2923  157.9843 H   0  0  0  0  0  0  0  0  0  0  0  0
  149.7821  142.1006  157.3189 H   0  0  0  0  0  0  0  0  0  0  0  0
  149.5716  139.9616  157.5078 H   0  0  0  0  0  0  0  0  0  0  0  0
  148.2453  137.9834  156.8331 H   0  0  0  0  0  0  0  0  0  0  0  0
  148.6861  136.4429  153.4577 H   0  0  0  0  0  0  0  0  0  0  0  0
  147.4634  133.8460  152.5693 H   0  0  0  0  0  0  0  0  0  0  0  0
  148.7417  134.6055  153.4664 H   0  0  0  0  0  0  0  0  0  0  0  0
  148.4233  132.2973  154.2889 H   0  0  0  0  0  0  0  0  0  0  0  0
  148.0333  133.4362  155.5671 H   0  0  0  0  0  0  0  0  0  0  0  0
  145.3761  130.9684  155.7387 H   0  0  0  0  0  0  0  0  0  0  0  0
  146.6272  131.8062  156.6659 H   0  0  0  0  0  0  0  0  0  0  0  0
  147.0763  130.6460  155.4096 H   0  0  0  0  0  0  0  0  0  0  0  0
  144.3933  133.0521  155.0713 H   0  0  0  0  0  0  0  0  0  0  0  0
  145.5874  133.9039  156.0379 H   0  0  0  0  0  0  0  0  0  0  0  0
  145.2450  134.2012  153.0107 H   0  0  0  0  0  0  0  0  0  0  0  0
  143.2906  135.1552  153.9699 H   0  0  0  0  0  0  0  0  0  0  0  0
  144.3344  136.4889  153.5036 H   0  0  0  0  0  0  0  0  0  0  0  0
  144.1787  136.0225  155.2010 H   0  0  0  0  0  0  0  0  0  0  0  0
  149.8698  138.4556  152.8435 H   0  0  0  0  0  0  0  0  0  0  0  0
  1  2  1  0  0  0  0
  1 23  1  0  0  0  0
  1 24  1  0  0  0  0
  1 25  1  0  0  0  0
  2  3  1  0  0  0  0
  3  4  1  0  0  0  0
  3 26  1  0  0  0  0
  3 27  1  0  0  0  0
  4  5  1  0  0  0  0
  4 28  1  0  0  0  0
  4 29  1  0  0  0  0
  5  6  1  0  0  0  0
  6 22  1  0  0  0  0
  6  7  2  0  0  0  0
  7  8  1  0  0  0  0
  7 30  1  0  0  0  0
  8  9  2  0  0  0  0
  8 31  1  0  0  0  0
  9 10  1  0  0  0  0
  9 21  1  0  0  0  0
 10 11  1  0  0  0  0
 10 32  1  0  0  0  0
 11 12  2  0  0  0  0
 11 13  1  0  0  0  0
 13 19  1  0  0  0  0
 13 14  1  0  0  0  0
 14 15  1  0  0  0  0
 14 33  1  0  0  0  0
 14 34  1  0  0  0  0
 15 16  1  0  0  0  0
 15 35  1  0  0  0  0
 15 36  1  0  0  0  0
 16 17  1  0  0  0  0
 16 18  1  0  0  0  0
 17 37  1  0  0  0  0
 17 38  1  0  0  0  0
 17 39  1  0  0  0  0
 18 19  1  0  0  0  0
 18 40  1  0  0  0  0
 18 41  1  0  0  0  0
 19 20  1  0  0  0  0
 19 42  1  0  0  0  0
 20 43  1  0  0  0  0
 20 44  1  0  0  0  0
 20 45  1  0  0  0  0
 21 22  2  0  0  0  0
 21 46  1  0  0  0  0
M  END
> <s_m_source_file>
AV-unprocessed.smi

> <i_m_source_file_index>
1071

> <i_lp_mmshare_version>
43012

> <i_f3d_flags>
0

> <s_epik_input>
W0NIM11PW0NIMl1bQ0gyXU9jMVtjSF1bY0hdYyhbY0hdbjEpW05IXUMoPU8pTjJbQ0gyXVtDSDJdTihbQ0gzXSlbQ0gyXVtDQEhdMltDSDNd

> <s_epik_cmdline>
J2VwaWtfcHl0aG9uJywgJy1waCcsICc3LjAnLCAnLXRuJywgJzgnLCAnLW1hJywgJzIwMCcsICctbWV0YWxfYmluZGluZycsICctaW1hZScsICc8aW5maWxlLm1hZT4nLCAnLW9tYWUnLCAnPG91dGZpbGUubWFlPic=

> <r_lp_tautomer_probability>
1

> <r_epik_Ionization_Penalty>
0.623446

> <r_epik_Ionization_Penalty_Charging>
0

> <r_epik_Ionization_Penalty_Neutral>
0.623446

> <r_epik_State_Penalty>
0.639577

> <r_epik_Charging_Adjusted_Penalty>
0.639577

> <i_epik_Tot_Q>
0

> <i_epik_Tot_abs_Q>
0

> <r_epik_Metal_State_Penalty>
0.639567

> <b_epik_Metal_Only>
0

> <s_lp_Force_Field>
OPLS_2005

> <r_lp_Energy>
47.7745

> <b_lp_Chiralities_Consistent>
1

> <s_lp_Variant>
AV-unprocessed.smi:1071-5

> <Gold.Version>
5.8.1

> <Gold.Id.Protein>
6NUR|6NUR_protein|mol2

> <Gold.PLP.Fitness>
38.3169

> <Gold.PLP.PLP>
-28.1485

> <Gold.PLP.part.hbond>
-2.1249

> <Gold.PLP.part.metal>
0.0000

> <Gold.PLP.part.buried>
-4.3261

> <Gold.PLP.part.nonpolar>
-22.5760

> <Gold.PLP.part.repulsive>
0.2197

> <Gold.PLP.ligand.clash>
0.1165

> <Gold.PLP.ligand.torsion>
1.0274

> <Gold.PLP.Chemscore.Hbond>
1.9600

> <Gold.PLP.Chemscore.CHOScore>
1.9702

> <Gold.PLP.Chemscore.Metal>
0.0000

> <Gold.Chemscore.Hbonds>
donor molecule, donor type, donor heavy atom, donor atom, acceptor molecule, acceptor atom, score
      L1  H    10    32       P1  7948  1.00
      P1  H  7989  7998       L1    22  1.00
      L1  C    21    46       P1  7948  0.88
      L1  C    21    46       P1  7957  0.82

> <Gold.PLP.Chemscore.Internal.Correction>
0.5489

> <Gold.Rescore>
     Score         DG    S(hbond)    S(metal)    S(lipo)     H(rot)  DE(clash)    DE(int)     intcor
     11.15     -14.49       1.65        0.00      64.45       1.57       0.00       3.34       ----

> <Gold.Chemscore.Fitness>
11.1521

> <Gold.Chemscore.DG>
-14.4940

> <Gold.Chemscore.ZeroCoef>
-5.4800

> <Gold.Chemscore.Hbond>
1.6479

> <Gold.Chemscore.Metal>
0.0000

> <Gold.Chemscore.Lipo>
64.4451

> <Gold.Chemscore.Internal_Hbond>
0.0000

> <Gold.Chemscore.DEClash>
0.0009

> <Gold.Chemscore.DEInternal>
3.3410

> <Gold.Chemscore.Rot>
1.5743

> <Gold.Chemscore.Internal.Correction>
   9.000000E+99

> <Gold.Chemscore.Hbonds>
donor molecule, donor type, donor heavy atom, donor atom, acceptor molecule, acceptor atom, score
      L1  H    10    32       P1  7948  0.97
      P1  H  7989  7998       L1    22  0.55

> <Gold.Chemscore.Hbond.Weighted>
-5.5040

> <Gold.Chemscore.Metal.Weighted>
-0.0000

> <Gold.Chemscore.Lipo.Weighted>
-7.5401

> <Gold.Chemscore.Internal_Hbond.Weighted>
0.0000

> <Gold.Chemscore.DEClash.Weighted>
0.0009

> <Gold.Chemscore.DEInternal.Weighted>
3.3410

> <Gold.Chemscore.Rot.Weighted>
4.0301

> <Gold.Chemscore.Internal.Correction.Weighted>
   9.000000E+99

> <Gold.Protein.RotatedTorsions>
[ 6907 6896 6895 6894 ] final  144.08 input  -60.11 | X-H torsion
[ 7974 7965 7964 7962 ] final  101.12 input  175.53 | X-H torsion
[ 8008 7997 7996 7995 ] final  -89.96 input   59.86 | X-H torsion
[ 10167 10162 10161 10158 ] final   14.11 input  -65.29 | X-H torsion
[ 10718 10713 10712 10709 ] final  -71.30 input   66.30 | X-H torsion
[ 10763 10752 10751 10750 ] final  -17.70 input  -60.55 | X-H torsion
[ 11005 11000 10999 10996 ] final -122.61 input  -57.11 | X-H torsion

> <Gold.Protein.ActiveResidues>
 VAL166  LYS551  ARG553  GLY616  TRP617  ASP618  TYR619  PRO620  LYS621  CYS622 
 ASP623  PHE694  ASN695  SER759  ASP760  ASP761  ALA762  ILE779  LEU786  VAL792 
 PHE793  MET794  SER795  GLU796  ALA797  LYS798  CYS799  TRP800  GLU811  SER814 

> <Gold.Protein.RotatedAtoms>
  152.1982  133.4821  159.5043 H   0  0  0  0  0  0  0  0  0  0  0  0  # atno 6907 bound_to 6896
  150.6964  134.1625  159.4190 H   0  0  0  0  0  0  0  0  0  0  0  0  # atno 6908 bound_to 6896
  151.9542  135.0154  160.0594 H   0  0  0  0  0  0  0  0  0  0  0  0  # atno 6909 bound_to 6896
  145.3765  139.2388  143.3427 H   0  0  0  0  0  0  0  0  0  0  0  0  # atno 7974 bound_to 7965
  154.6928  140.0536  157.0381 H   0  0  0  0  0  0  0  0  0  0  0  0  # atno 8008 bound_to 7997
  155.0792  140.3208  155.4588 H   0  0  0  0  0  0  0  0  0  0  0  0  # atno 8009 bound_to 7997
  156.2734  140.2068  156.5920 H   0  0  0  0  0  0  0  0  0  0  0  0  # atno 8010 bound_to 7997
  140.5958  143.8705  150.6916 H   0  0  0  0  0  0  0  0  0  0  0  0  # atno 10167 bound_to 10162
  156.0369  130.4348  150.2423 H   0  0  0  0  0  0  0  0  0  0  0  0  # atno 10718 bound_to 10713
  153.5778  135.7006  153.5476 H   0  0  0  0  0  0  0  0  0  0  0  0  # atno 10763 bound_to 10752
  153.3287  135.4053  155.1477 H   0  0  0  0  0  0  0  0  0  0  0  0  # atno 10764 bound_to 10752
  154.8622  135.3713  154.5304 H   0  0  0  0  0  0  0  0  0  0  0  0  # atno 10765 bound_to 10752
  140.9982  134.0441  157.3571 H   0  0  0  0  0  0  0  0  0  0  0  0  # atno 11005 bound_to 11000
  146.2861  140.4425  142.8757 LP  0  0  0  0  0  0  0  0  0  0  0  0  # atno 17320 bound_to 7965
  144.8538  140.7041  143.6151 LP  0  0  0  0  0  0  0  0  0  0  0  0  # atno 17321 bound_to 7965
  140.2239  143.3787  152.1620 LP  0  0  0  0  0  0  0  0  0  0  0  0  # atno 17342 bound_to 10162
  139.5257  144.7099  151.5239 LP  0  0  0  0  0  0  0  0  0  0  0  0  # atno 17343 bound_to 10162
  157.0521  131.0066  151.3250 LP  0  0  0  0  0  0  0  0  0  0  0  0  # atno 17370 bound_to 10713
  157.5132  130.7952  149.7728 LP  0  0  0  0  0  0  0  0  0  0  0  0  # atno 17371 bound_to 10713
  139.9025  135.0169  156.7336 LP  0  0  0  0  0  0  0  0  0  0  0  0  # atno 17394 bound_to 11000
  140.6932  133.9371  155.7979 LP  0  0  0  0  0  0  0  0  0  0  0  0  # atno 17395 bound_to 11000

$$$$
