AV-unprocessed.smi:911|AV-procd|sdf|4136|dock5
  -GOLD-   22720 2 43D 1   1.00000     0.00000
 Structure written by MMmdl.
 47 49  0  0  0  0  0  0  0  0  3 V2000
  149.5950  140.5788  156.6500 C   0  0  0  0  0  0  0  0  0  0  0  0
  150.5229  139.9106  155.5970 C   0  0  0  0  0  0  0  0  0  0  0  0
  151.4145  141.0586  155.0457 C   0  0  0  0  0  0  0  0  0  0  0  0
  151.3148  138.6978  156.1259 C   0  0  2  0  0  0  0  0  0  0  0  0
  152.0335  138.1550  154.8704 C   0  0  0  0  0  0  0  0  0  0  0  0
  151.0034  138.4193  153.7546 C   0  0  0  0  0  0  0  0  0  0  0  0
  149.8070  139.0363  154.5313 C   0  0  2  0  0  0  0  0  0  0  0  0
  148.8150  139.7784  153.6194 C   0  0  0  0  0  0  0  0  0  0  0  0
  149.1500  137.9119  155.3946 C   0  0  1  0  0  0  0  0  0  0  0  0
  148.8615  136.6766  154.6651 N   0  0  0  0  0  0  0  0  0  0  0  0
  148.5445  135.4992  155.2241 C   0  0  0  0  0  0  0  0  0  0  0  0
  148.4557  135.3304  156.4410 O   0  0  0  0  0  0  0  0  0  0  0  0
  148.2621  134.3475  154.2493 C   0  0  0  0  0  0  0  0  0  0  0  0
  148.9215  133.0889  154.6355 N   0  0  0  0  0  0  0  0  0  0  0  0
  150.0257  133.1847  155.5058 C   0  0  0  0  0  0  0  0  0  0  0  0
  150.7116  132.0991  155.9141 C   0  0  0  0  0  0  0  0  0  0  0  0
  151.8476  132.2167  156.8014 N   0  3  0  0  0  0  0  0  0  0  0  0
  151.9447  133.2181  157.5033 O   0  0  0  0  0  0  0  0  0  0  0  0
  152.6797  131.3148  156.8262 O   0  5  0  0  0  0  0  0  0  0  0  0
  150.2757  130.8042  155.4285 C   0  0  0  0  0  0  0  0  0  0  0  0
  149.2227  130.7064  154.5936 C   0  0  0  0  0  0  0  0  0  0  0  0
  148.4811  131.8896  154.1458 C   0  0  0  0  0  0  0  0  0  0  0  0
  147.5229  131.8076  153.3771 O   0  0  0  0  0  0  0  0  0  0  0  0
  150.2153  137.6759  156.4896 C   0  0  0  0  0  0  0  0  0  0  0  0
  150.1852  141.0597  157.4306 H   0  0  0  0  0  0  0  0  0  0  0  0
  148.9086  139.9058  157.1583 H   0  0  0  0  0  0  0  0  0  0  0  0
  148.9834  141.3546  156.1884 H   0  0  0  0  0  0  0  0  0  0  0  0
  152.1408  140.7611  154.2929 H   0  0  0  0  0  0  0  0  0  0  0  0
  151.9834  141.5215  155.8526 H   0  0  0  0  0  0  0  0  0  0  0  0
  150.8038  141.8422  154.5964 H   0  0  0  0  0  0  0  0  0  0  0  0
  151.9927  138.9145  156.9521 H   0  0  0  0  0  0  0  0  0  0  0  0
  152.9672  138.6850  154.6805 H   0  0  0  0  0  0  0  0  0  0  0  0
  152.2786  137.0961  154.9599 H   0  0  0  0  0  0  0  0  0  0  0  0
  151.4014  139.1161  153.0166 H   0  0  0  0  0  0  0  0  0  0  0  0
  150.7526  137.5146  153.2014 H   0  0  0  0  0  0  0  0  0  0  0  0
  148.3874  139.1065  152.8752 H   0  0  0  0  0  0  0  0  0  0  0  0
  149.3006  140.5928  153.0821 H   0  0  0  0  0  0  0  0  0  0  0  0
  147.9906  140.2027  154.1925 H   0  0  0  0  0  0  0  0  0  0  0  0
  148.2307  138.2708  155.8595 H   0  0  0  0  0  0  0  0  0  0  0  0
  148.9057  136.7251  153.6576 H   0  0  0  0  0  0  0  0  0  0  0  0
  147.1816  134.2098  154.1921 H   0  0  0  0  0  0  0  0  0  0  0  0
  148.5644  134.6403  153.2418 H   0  0  0  0  0  0  0  0  0  0  0  0
  150.2755  134.1931  155.8033 H   0  0  0  0  0  0  0  0  0  0  0  0
  150.7903  129.9036  155.7303 H   0  0  0  0  0  0  0  0  0  0  0  0
  148.9154  129.7320  154.2434 H   0  0  0  0  0  0  0  0  0  0  0  0
  150.5980  136.6542  156.5029 H   0  0  0  0  0  0  0  0  0  0  0  0
  149.8065  137.8665  157.4819 H   0  0  0  0  0  0  0  0  0  0  0  0
  1  2  1  0  0  0  0
  1 25  1  0  0  0  0
  1 26  1  0  0  0  0
  1 27  1  0  0  0  0
  2  7  1  0  0  0  0
  2  3  1  0  0  0  0
  2  4  1  0  0  0  0
  3 28  1  0  0  0  0
  3 29  1  0  0  0  0
  3 30  1  0  0  0  0
  4 24  1  0  0  0  0
  4  5  1  0  0  0  0
  4 31  1  0  0  0  0
  5  6  1  0  0  0  0
  5 32  1  0  0  0  0
  5 33  1  0  0  0  0
  6  7  1  0  0  0  0
  6 34  1  0  0  0  0
  6 35  1  0  0  0  0
  7  8  1  0  0  0  0
  7  9  1  0  0  0  0
  8 36  1  0  0  0  0
  8 37  1  0  0  0  0
  8 38  1  0  0  0  0
  9 10  1  0  0  0  0
  9 24  1  0  0  0  0
  9 39  1  0  0  0  0
 10 11  1  0  0  0  0
 10 40  1  0  0  0  0
 11 12  2  0  0  0  0
 11 13  1  0  0  0  0
 13 14  1  0  0  0  0
 13 41  1  0  0  0  0
 13 42  1  0  0  0  0
 14 22  1  0  0  0  0
 14 15  1  0  0  0  0
 15 16  2  0  0  0  0
 15 43  1  0  0  0  0
 16 17  1  0  0  0  0
 16 20  1  0  0  0  0
 17 18  2  0  0  0  0
 17 19  1  0  0  0  0
 20 21  2  0  0  0  0
 20 44  1  0  0  0  0
 21 22  1  0  0  0  0
 21 45  1  0  0  0  0
 22 23  2  0  0  0  0
 24 46  1  0  0  0  0
 24 47  1  0  0  0  0
M  CHG  1  17   1
M  CHG  1  19  -1
M  END
> <s_m_source_file>
AV-unprocessed.smi

> <i_m_source_file_index>
911

> <i_lp_mmshare_version>
43012

> <i_f3d_flags>
0

> <s_epik_input>
W0NIM11bQ0BdMTJDKFtDSDNdKShbQ0gzXSlbQ0BIXShbQ0gyXVtDSDJdMSlbQ0gyXVtDQEBIXTJbTkhdQyg9TylbQ0gyXW4zW2NIXWMoW04rXSg9TylbTy1dKVtjSF1bY0hdYzM9Tw==

> <s_epik_cmdline>
J2VwaWtfcHl0aG9uJywgJy1waCcsICc3LjAnLCAnLXRuJywgJzgnLCAnLW1hJywgJzIwMCcsICctbWV0YWxfYmluZGluZycsICctaW1hZScsICc8aW5maWxlLm1hZT4nLCAnLW9tYWUnLCAnPG91dGZpbGUubWFlPic=

> <r_lp_tautomer_probability>
1

> <r_epik_Ionization_Penalty>
2.04092e-08

> <r_epik_Ionization_Penalty_Charging>
8.54191e-11

> <r_epik_Ionization_Penalty_Neutral>
2.03238e-08

> <r_epik_State_Penalty>
-0

> <r_epik_Charging_Adjusted_Penalty>
8.54191e-11

> <i_epik_Tot_Q>
0

> <i_epik_Tot_abs_Q>
2

> <r_epik_Metal_State_Penalty>
-0

> <b_epik_Metal_Only>
0

> <s_lp_Force_Field>
OPLS_2005

> <r_lp_Energy>
67.3082

> <b_lp_Chiralities_Consistent>
1

> <s_lp_Variant>
AV-unprocessed.smi:911-1

> <Gold.Version>
5.8.1

> <Gold.Id.Protein>
6NUR|6NUR_protein|mol2

> <Gold.PLP.Fitness>
37.5258

> <Gold.PLP.PLP>
-33.0968

> <Gold.PLP.part.hbond>
-2.0000

> <Gold.PLP.part.metal>
0.0000

> <Gold.PLP.part.buried>
-2.7765

> <Gold.PLP.part.nonpolar>
-29.2172

> <Gold.PLP.part.repulsive>
1.4291

> <Gold.PLP.ligand.clash>
0.0000

> <Gold.PLP.ligand.torsion>
0.7850

> <Gold.PLP.Chemscore.Hbond>
1.9920

> <Gold.PLP.Chemscore.CHOScore>
0.0000

> <Gold.PLP.Chemscore.Metal>
0.0000

> <Gold.Chemscore.Hbonds>
donor molecule, donor type, donor heavy atom, donor atom, acceptor molecule, acceptor atom, score
      L1  H    10    40       P1  7948  1.00
      P1  H  6896  6908       L1    18  0.69

> <Gold.PLP.Chemscore.Internal.Correction>
0.0229

> <Gold.Rescore>
     Score         DG    S(hbond)    S(metal)    S(lipo)     H(rot)  DE(clash)    DE(int)     intcor
     12.79     -16.57       1.98        0.00      71.71       1.53       0.24       3.53       ----

> <Gold.Chemscore.Fitness>
12.7946

> <Gold.Chemscore.DG>
-16.5653

> <Gold.Chemscore.ZeroCoef>
-5.4800

> <Gold.Chemscore.Hbond>
1.9778

> <Gold.Chemscore.Metal>
0.0000

> <Gold.Chemscore.Lipo>
71.7144

> <Gold.Chemscore.Internal_Hbond>
0.0000

> <Gold.Chemscore.DEClash>
0.2434

> <Gold.Chemscore.DEInternal>
3.5272

> <Gold.Chemscore.Rot>
1.5277

> <Gold.Chemscore.Internal.Correction>
   9.000000E+99

> <Gold.Chemscore.Hbonds>
donor molecule, donor type, donor heavy atom, donor atom, acceptor molecule, acceptor atom, score
      L1  H    10    40       P1  7948  1.00
      P1  H  6896  6908       L1    18  0.68

> <Gold.Chemscore.Hbond.Weighted>
-6.6057

> <Gold.Chemscore.Metal.Weighted>
-0.0000

> <Gold.Chemscore.Lipo.Weighted>
-8.3906

> <Gold.Chemscore.Internal_Hbond.Weighted>
0.0000

> <Gold.Chemscore.DEClash.Weighted>
0.2434

> <Gold.Chemscore.DEInternal.Weighted>
3.5272

> <Gold.Chemscore.Rot.Weighted>
3.9110

> <Gold.Chemscore.Internal.Correction.Weighted>
   9.000000E+99

> <Gold.Protein.RotatedTorsions>
[ 6907 6896 6895 6894 ] final   59.22 input  -60.11 | X-H torsion
[ 7974 7965 7964 7962 ] final   25.78 input  175.53 | X-H torsion
[ 8008 7997 7996 7995 ] final  -37.36 input   59.86 | X-H torsion
[ 10167 10162 10161 10158 ] final  133.78 input  -65.29 | X-H torsion
[ 10718 10713 10712 10709 ] final  165.33 input   66.30 | X-H torsion
[ 10763 10752 10751 10750 ] final -142.29 input  -60.55 | X-H torsion
[ 11005 11000 10999 10996 ] final  -97.15 input  -57.11 | X-H torsion

> <Gold.Protein.ActiveResidues>
 VAL166  LYS551  ARG553  GLY616  TRP617  ASP618  TYR619  PRO620  LYS621  CYS622 
 ASP623  PHE694  ASN695  SER759  ASP760  ASP761  ALA762  ILE779  LEU786  VAL792 
 PHE793  MET794  SER795  GLU796  ALA797  LYS798  CYS799  TRP800  GLU811  SER814 

> <Gold.Protein.RotatedAtoms>
  152.3895  134.6463  160.0112 H   0  0  0  0  0  0  0  0  0  0  0  0  # atno 6907 bound_to 6896
  151.6701  133.3308  159.3202 H   0  0  0  0  0  0  0  0  0  0  0  0  # atno 6908 bound_to 6896
  150.7814  134.6806  159.6486 H   0  0  0  0  0  0  0  0  0  0  0  0  # atno 6909 bound_to 6896
  146.1871  139.7418  142.8859 H   0  0  0  0  0  0  0  0  0  0  0  0  # atno 7974 bound_to 7965
  154.4055  140.1606  156.2524 H   0  0  0  0  0  0  0  0  0  0  0  0  # atno 8008 bound_to 7997
  155.9107  140.3427  155.6074 H   0  0  0  0  0  0  0  0  0  0  0  0  # atno 8009 bound_to 7997
  155.7339  140.0784  157.2267 H   0  0  0  0  0  0  0  0  0  0  0  0  # atno 8010 bound_to 7997
  139.5283  144.6599  151.5045 H   0  0  0  0  0  0  0  0  0  0  0  0  # atno 10167 bound_to 10162
  157.0816  131.0393  151.2573 H   0  0  0  0  0  0  0  0  0  0  0  0  # atno 10718 bound_to 10713
  154.8514  135.3500  154.6004 H   0  0  0  0  0  0  0  0  0  0  0  0  # atno 10763 bound_to 10752
  153.6613  135.6989  153.5181 H   0  0  0  0  0  0  0  0  0  0  0  0  # atno 10764 bound_to 10752
  153.2815  135.4262  155.1041 H   0  0  0  0  0  0  0  0  0  0  0  0  # atno 10765 bound_to 10752
  141.1388  133.8150  157.0667 H   0  0  0  0  0  0  0  0  0  0  0  0  # atno 11005 bound_to 11000
  145.3906  141.0372  143.3126 LP  0  0  0  0  0  0  0  0  0  0  0  0  # atno 17320 bound_to 7965
  144.8417  139.5461  143.6897 LP  0  0  0  0  0  0  0  0  0  0  0  0  # atno 17321 bound_to 7965
  140.6442  143.8827  150.6721 LP  0  0  0  0  0  0  0  0  0  0  0  0  # atno 17342 bound_to 10162
  140.2171  143.3837  152.1672 LP  0  0  0  0  0  0  0  0  0  0  0  0  # atno 17343 bound_to 10162
  157.4795  130.7757  149.7400 LP  0  0  0  0  0  0  0  0  0  0  0  0  # atno 17370 bound_to 10713
  155.9922  130.3932  150.2952 LP  0  0  0  0  0  0  0  0  0  0  0  0  # atno 17371 bound_to 10713
  140.0537  134.9792  157.1182 LP  0  0  0  0  0  0  0  0  0  0  0  0  # atno 17394 bound_to 11000
  140.3952  134.2142  155.7165 LP  0  0  0  0  0  0  0  0  0  0  0  0  # atno 17395 bound_to 11000

$$$$
