AV-unprocessed.smi:3085|AV-procd|sdf|11757|dock1
  -GOLD-   2272017143D 1   1.00000     0.00000
 Structure written by MMmdl.
 27 28  0  0  0  0  0  0  0  0  1 V2000
  153.0387  141.7589  160.7924 C   0  0  0  0  0  0  0  0  0  0  0  0
  152.5300  143.1580  160.4278 C   0  0  0  0  0  0  0  0  0  0  0  0
  152.0269  143.2290  159.0240 C   0  0  0  0  0  0  0  0  0  0  0  0
  151.9884  142.1411  158.1967 N   0  0  0  0  0  0  0  0  0  0  0  0
  151.5246  142.7038  157.0850 C   0  0  0  0  0  0  0  0  0  0  0  0
  151.2299  141.9696  155.8135 C   0  0  1  0  0  0  0  0  0  0  0  0
  151.5807  140.4718  155.9098 C   0  0  0  0  0  0  0  0  0  0  0  0
  151.2035  139.7821  154.6771 N   0  0  0  0  0  0  0  0  0  0  0  0
  149.7923  139.9971  154.3613 C   0  0  0  0  0  0  0  0  0  0  0  0
  149.4801  141.5030  154.3062 C   0  0  0  0  0  0  0  0  0  0  0  0
  149.8361  142.1101  155.5439 O   0  0  0  0  0  0  0  0  0  0  0  0
  151.3042  144.0131  157.2345 N   0  0  0  0  0  0  0  0  0  0  0  0
  151.6368  144.3848  158.4886 N   0  0  0  0  0  0  0  0  0  0  0  0
  150.9551  144.6586  156.5406 H   0  0  0  0  0  0  0  0  0  0  0  0
  153.3987  141.7328  161.8210 H   0  0  0  0  0  0  0  0  0  0  0  0
  153.8621  141.4586  160.1438 H   0  0  0  0  0  0  0  0  0  0  0  0
  152.2470  141.0152  160.6962 H   0  0  0  0  0  0  0  0  0  0  0  0
  151.7282  143.4478  161.1078 H   0  0  0  0  0  0  0  0  0  0  0  0
  153.3282  143.8894  160.5613 H   0  0  0  0  0  0  0  0  0  0  0  0
  151.8027  142.4390  155.0112 H   0  0  0  0  0  0  0  0  0  0  0  0
  152.6474  140.3464  156.0970 H   0  0  0  0  0  0  0  0  0  0  0  0
  151.0589  140.0250  156.7571 H   0  0  0  0  0  0  0  0  0  0  0  0
  151.3835  138.7879  154.7745 H   0  0  0  0  0  0  0  0  0  0  0  0
  149.5455  139.5274  153.4090 H   0  0  0  0  0  0  0  0  0  0  0  0
  149.1664  139.5213  155.1173 H   0  0  0  0  0  0  0  0  0  0  0  0
  150.0114  141.9832  153.4826 H   0  0  0  0  0  0  0  0  0  0  0  0
  148.4153  141.6586  154.1312 H   0  0  0  0  0  0  0  0  0  0  0  0
  1  2  1  0  0  0  0
  1 15  1  0  0  0  0
  1 16  1  0  0  0  0
  1 17  1  0  0  0  0
  2 18  1  0  0  0  0
  2 19  1  0  0  0  0
  2  3  1  0  0  0  0
  3  4  1  0  0  0  0
  3 13  2  0  0  0  0
  4  5  2  0  0  0  0
  5  6  1  0  0  0  0
  5 12  1  0  0  0  0
  6 11  1  0  0  0  0
  6  7  1  0  0  0  0
  6 20  1  0  0  0  0
  7  8  1  0  0  0  0
  7 21  1  0  0  0  0
  7 22  1  0  0  0  0
  8  9  1  0  0  0  0
  8 23  1  0  0  0  0
  9 10  1  0  0  0  0
  9 24  1  0  0  0  0
  9 25  1  0  0  0  0
 10 11  1  0  0  0  0
 10 26  1  0  0  0  0
 10 27  1  0  0  0  0
 12 13  1  0  0  0  0
 12 14  1  0  0  0  0
M  END
> <s_m_source_file>
AV-unprocessed.smi

> <i_m_source_file_index>
3085

> <i_lp_mmshare_version>
43012

> <i_f3d_flags>
0

> <s_epik_input>
W0NIM11bQ0gyXWMxbmMobltuSF0xKVtDQEBIXTJbQ0gyXVtOSF1bQ0gyXVtDSDJdTzI=

> <s_epik_cmdline>
J2VwaWtfcHl0aG9uJywgJy1waCcsICc3LjAnLCAnLXRuJywgJzgnLCAnLW1hJywgJzIwMCcsICctbWV0YWxfYmluZGluZycsICctaW1hZScsICc8aW5maWxlLm1hZT4nLCAnLW9tYWUnLCAnPG91dGZpbGUubWFlPic=

> <r_epik_Ionization_Penalty>
0.98256

> <r_epik_Ionization_Penalty_Charging>
0

> <r_epik_Ionization_Penalty_Neutral>
0.98256

> <r_epik_State_Penalty>
1.54989

> <r_epik_Charging_Adjusted_Penalty>
1.54989

> <i_epik_Tot_Q>
0

> <i_epik_Tot_abs_Q>
0

> <r_epik_Metal_State_Penalty>
1.76981

> <b_epik_Metal_Only>
0

> <s_lp_Force_Field>
OPLS_2005

> <r_lp_Energy>
9.32891

> <b_lp_Chiralities_Consistent>
1

> <s_lp_Variant>
AV-unprocessed.smi:3085-8

> <Gold.Version>
5.8.1

> <Gold.Id.Protein>
6NUR|6NUR_protein|mol2

> <Gold.PLP.Fitness>
34.5970

> <Gold.PLP.PLP>
-28.6309

> <Gold.PLP.part.hbond>
-2.0000

> <Gold.PLP.part.metal>
0.0000

> <Gold.PLP.part.buried>
-5.3025

> <Gold.PLP.part.nonpolar>
-20.9123

> <Gold.PLP.part.repulsive>
0.5197

> <Gold.PLP.ligand.clash>
0.0000

> <Gold.PLP.ligand.torsion>
0.0214

> <Gold.PLP.Chemscore.Hbond>
2.0000

> <Gold.PLP.Chemscore.CHOScore>
0.0000

> <Gold.PLP.Chemscore.Metal>
0.0000

> <Gold.Chemscore.Hbonds>
donor molecule, donor type, donor heavy atom, donor atom, acceptor molecule, acceptor atom, score
      L1  H    12    14       P1  8028  0.32
      P1  H  7989  7998       L1     8  0.50

> <Gold.PLP.Chemscore.Internal.Correction>
0.0090

> <Gold.Rescore>
     Score         DG    S(hbond)    S(metal)    S(lipo)     H(rot)  DE(clash)    DE(int)     intcor
     11.63     -11.68       1.02        0.00      51.80       1.28       0.04       0.01       ----

> <Gold.Chemscore.Fitness>
11.6298

> <Gold.Chemscore.DG>
-11.6807

> <Gold.Chemscore.ZeroCoef>
-5.4800

> <Gold.Chemscore.Hbond>
1.0242

> <Gold.Chemscore.Metal>
0.0000

> <Gold.Chemscore.Lipo>
51.7995

> <Gold.Chemscore.Internal_Hbond>
0.0000

> <Gold.Chemscore.DEClash>
0.0419

> <Gold.Chemscore.DEInternal>
0.0091

> <Gold.Chemscore.Rot>
1.2815

> <Gold.Chemscore.Internal.Correction>
   9.000000E+99

> <Gold.Chemscore.Hbonds>
donor molecule, donor type, donor heavy atom, donor atom, acceptor molecule, acceptor atom, score
      L1  H    12    14       P1  8028  0.31
      P1  H  7989  7998       L1     8  0.01

> <Gold.Chemscore.Hbond.Weighted>
-3.4207

> <Gold.Chemscore.Metal.Weighted>
-0.0000

> <Gold.Chemscore.Lipo.Weighted>
-6.0605

> <Gold.Chemscore.Internal_Hbond.Weighted>
0.0000

> <Gold.Chemscore.DEClash.Weighted>
0.0419

> <Gold.Chemscore.DEInternal.Weighted>
0.0091

> <Gold.Chemscore.Rot.Weighted>
3.2805

> <Gold.Chemscore.Internal.Correction.Weighted>
   9.000000E+99

> <Gold.Protein.RotatedTorsions>
[ 6907 6896 6895 6894 ] final -101.86 input  -60.11 | X-H torsion
[ 7974 7965 7964 7962 ] final  178.93 input  175.53 | X-H torsion
[ 8008 7997 7996 7995 ] final  102.39 input   59.86 | X-H torsion
[ 10167 10162 10161 10158 ] final   74.81 input  -65.29 | X-H torsion
[ 10718 10713 10712 10709 ] final   74.50 input   66.30 | X-H torsion
[ 10763 10752 10751 10750 ] final -110.62 input  -60.55 | X-H torsion
[ 11005 11000 10999 10996 ] final  170.02 input  -57.11 | X-H torsion

> <Gold.Protein.ActiveResidues>
 VAL166  LYS551  ARG553  GLY616  TRP617  ASP618  TYR619  PRO620  LYS621  CYS622 
 ASP623  PHE694  ASN695  SER759  ASP760  ASP761  ALA762  ILE779  LEU786  VAL792 
 PHE793  MET794  SER795  GLU796  ALA797  LYS798  CYS799  TRP800  GLU811  SER814 

> <Gold.Protein.RotatedAtoms>
  150.7172  134.0669  159.3850 H   0  0  0  0  0  0  0  0  0  0  0  0  # atno 6907 bound_to 6896
  151.8650  135.0508  160.0482 H   0  0  0  0  0  0  0  0  0  0  0  0  # atno 6908 bound_to 6896
  152.2687  133.5327  159.5462 H   0  0  0  0  0  0  0  0  0  0  0  0  # atno 6909 bound_to 6896
  144.7151  140.0472  143.6436 H   0  0  0  0  0  0  0  0  0  0  0  0  # atno 7974 bound_to 7965
  156.1388  140.3182  155.8463 H   0  0  0  0  0  0  0  0  0  0  0  0  # atno 8008 bound_to 7997
  155.4193  140.0511  157.3044 H   0  0  0  0  0  0  0  0  0  0  0  0  # atno 8009 bound_to 7997
  154.4959  140.2110  155.9460 H   0  0  0  0  0  0  0  0  0  0  0  0  # atno 8010 bound_to 7997
  140.0097  144.5624  150.7669 H   0  0  0  0  0  0  0  0  0  0  0  0  # atno 10167 bound_to 10162
  157.6595  130.9681  150.1219 H   0  0  0  0  0  0  0  0  0  0  0  0  # atno 10718 bound_to 10713
  154.8257  135.4557  154.0913 H   0  0  0  0  0  0  0  0  0  0  0  0  # atno 10763 bound_to 10752
  153.2229  135.6896  153.7986 H   0  0  0  0  0  0  0  0  0  0  0  0  # atno 10764 bound_to 10752
  153.7396  135.3314  155.3278 H   0  0  0  0  0  0  0  0  0  0  0  0  # atno 10765 bound_to 10752
  140.3039  134.7573  157.3938 H   0  0  0  0  0  0  0  0  0  0  0  0  # atno 11005 bound_to 11000
  145.9974  139.3063  143.0948 LP  0  0  0  0  0  0  0  0  0  0  0  0  # atno 17320 bound_to 7965
  145.8833  140.9349  143.0590 LP  0  0  0  0  0  0  0  0  0  0  0  0  # atno 17321 bound_to 7965
  140.7386  143.2781  151.3681 LP  0  0  0  0  0  0  0  0  0  0  0  0  # atno 17342 bound_to 10162
  139.6214  144.0900  152.2394 LP  0  0  0  0  0  0  0  0  0  0  0  0  # atno 17343 bound_to 10162
  156.2088  130.3665  149.8695 LP  0  0  0  0  0  0  0  0  0  0  0  0  # atno 17370 bound_to 10713
  156.6579  130.8770  151.3542 LP  0  0  0  0  0  0  0  0  0  0  0  0  # atno 17371 bound_to 10713
  140.1085  134.5378  155.8288 LP  0  0  0  0  0  0  0  0  0  0  0  0  # atno 17394 bound_to 11000
  141.2122  133.6717  156.6643 LP  0  0  0  0  0  0  0  0  0  0  0  0  # atno 17395 bound_to 11000

$$$$
