AV-unprocessed.smi:652|AV-procd|sdf|3197|dock3
  -GOLD-   22720 0123D 1   1.00000     0.00000
 Structure written by MMmdl.
 47 48  0  0  0  0  0  0  0  0  1 V2000
  152.5177  144.8488  158.2466 C   0  0  0  0  0  0  0  0  0  0  0  0
  150.9991  144.6720  158.3997 C   0  0  0  0  0  0  0  0  0  0  0  0
  150.6129  144.2811  159.8324 C   0  0  0  0  0  0  0  0  0  0  0  0
  150.5068  143.6577  157.4725 N   0  0  0  0  0  0  0  0  0  0  0  0
  150.8772  142.3676  157.4603 C   0  0  0  0  0  0  0  0  0  0  0  0
  151.6686  141.8806  158.2680 O   0  0  0  0  0  0  0  0  0  0  0  0
  150.2614  141.4908  156.3650 C   0  0  0  0  0  0  0  0  0  0  0  0
  150.1173  140.0120  156.7834 C   0  0  0  0  0  0  0  0  0  0  0  0
  151.0132  139.0692  156.1099 N   0  0  0  0  0  0  0  0  0  0  0  0
  151.3017  139.4543  154.7309 C   0  0  0  0  0  0  0  0  0  0  0  0
  152.2402  138.4490  154.0413 C   0  0  0  0  0  0  0  0  0  0  0  0
  151.6747  137.1432  154.0953 O   0  0  0  0  0  0  0  0  0  0  0  0
  151.4008  136.7108  155.4260 C   0  0  2  0  0  0  0  0  0  0  0  0
  150.8489  135.2769  155.3901 C   0  0  0  0  0  0  0  0  0  0  0  0
  149.8896  135.0763  154.3130 N   0  0  0  0  0  0  0  0  0  0  0  0
  149.4968  133.7876  153.9310 C   0  0  0  0  0  0  0  0  0  0  0  0
  150.3004  132.6442  154.1465 C   0  0  0  0  0  0  0  0  0  0  0  0
  149.7949  131.4043  153.7190 C   0  0  0  0  0  0  0  0  0  0  0  0
  148.5277  131.3985  153.1091 C   0  0  0  0  0  0  0  0  0  0  0  0
  147.8023  132.5246  152.9279 N   0  0  0  0  0  0  0  0  0  0  0  0
  148.2842  133.7046  153.3353 N   0  0  0  0  0  0  0  0  0  0  0  0
  150.4621  137.7195  156.1210 C   0  0  0  0  0  0  0  0  0  0  0  0
  152.8928  145.6116  158.9295 H   0  0  0  0  0  0  0  0  0  0  0  0
  152.7803  145.1585  157.2346 H   0  0  0  0  0  0  0  0  0  0  0  0
  153.0495  143.9210  158.4597 H   0  0  0  0  0  0  0  0  0  0  0  0
  150.5151  145.6245  158.1759 H   0  0  0  0  0  0  0  0  0  0  0  0
  150.9401  145.0374  160.5463 H   0  0  0  0  0  0  0  0  0  0  0  0
  151.0657  143.3322  160.1223 H   0  0  0  0  0  0  0  0  0  0  0  0
  149.5317  144.1796  159.9339 H   0  0  0  0  0  0  0  0  0  0  0  0
  149.8483  143.9653  156.7717 H   0  0  0  0  0  0  0  0  0  0  0  0
  149.2767  141.8931  156.1262 H   0  0  0  0  0  0  0  0  0  0  0  0
  150.8450  141.5715  155.4471 H   0  0  0  0  0  0  0  0  0  0  0  0
  150.2904  139.9549  157.8592 H   0  0  0  0  0  0  0  0  0  0  0  0
  149.0824  139.6993  156.6378 H   0  0  0  0  0  0  0  0  0  0  0  0
  150.3722  139.5289  154.1646 H   0  0  0  0  0  0  0  0  0  0  0  0
  151.7664  140.4393  154.7027 H   0  0  0  0  0  0  0  0  0  0  0  0
  152.3944  138.7278  152.9988 H   0  0  0  0  0  0  0  0  0  0  0  0
  153.2203  138.4477  154.5204 H   0  0  0  0  0  0  0  0  0  0  0  0
  152.3460  136.6850  155.9713 H   0  0  0  0  0  0  0  0  0  0  0  0
  151.6718  134.5709  155.2718 H   0  0  0  0  0  0  0  0  0  0  0  0
  150.3677  135.0537  156.3430 H   0  0  0  0  0  0  0  0  0  0  0  0
  149.6576  135.8599  153.7194 H   0  0  0  0  0  0  0  0  0  0  0  0
  151.2682  132.6978  154.6216 H   0  0  0  0  0  0  0  0  0  0  0  0
  150.3571  130.4922  153.8535 H   0  0  0  0  0  0  0  0  0  0  0  0
  148.0874  130.4764  152.7599 H   0  0  0  0  0  0  0  0  0  0  0  0
  150.2904  137.4008  157.1499 H   0  0  0  0  0  0  0  0  0  0  0  0
  149.4885  137.7195  155.6286 H   0  0  0  0  0  0  0  0  0  0  0  0
  1  2  1  0  0  0  0
  1 23  1  0  0  0  0
  1 24  1  0  0  0  0
  1 25  1  0  0  0  0
  2  3  1  0  0  0  0
  2  4  1  0  0  0  0
  2 26  1  0  0  0  0
  3 27  1  0  0  0  0
  3 28  1  0  0  0  0
  3 29  1  0  0  0  0
  4  5  1  0  0  0  0
  4 30  1  0  0  0  0
  5  6  2  0  0  0  0
  5  7  1  0  0  0  0
  7  8  1  0  0  0  0
  7 31  1  0  0  0  0
  7 32  1  0  0  0  0
  8  9  1  0  0  0  0
  8 33  1  0  0  0  0
  8 34  1  0  0  0  0
  9 22  1  0  0  0  0
  9 10  1  0  0  0  0
 10 11  1  0  0  0  0
 10 35  1  0  0  0  0
 10 36  1  0  0  0  0
 11 12  1  0  0  0  0
 11 37  1  0  0  0  0
 11 38  1  0  0  0  0
 12 13  1  0  0  0  0
 13 14  1  0  0  0  0
 13 22  1  0  0  0  0
 13 39  1  0  0  0  0
 14 15  1  0  0  0  0
 14 40  1  0  0  0  0
 14 41  1  0  0  0  0
 15 16  1  0  0  0  0
 15 42  1  0  0  0  0
 16 21  1  0  0  0  0
 16 17  2  0  0  0  0
 17 18  1  0  0  0  0
 17 43  1  0  0  0  0
 18 19  2  0  0  0  0
 18 44  1  0  0  0  0
 19 20  1  0  0  0  0
 19 45  1  0  0  0  0
 20 21  2  0  0  0  0
 22 46  1  0  0  0  0
 22 47  1  0  0  0  0
M  END
> <s_m_source_file>
AV-unprocessed.smi

> <i_m_source_file_index>
652

> <i_lp_mmshare_version>
43012

> <i_f3d_flags>
0

> <s_epik_input>
W0NIM11bQ0hdKFtDSDNdKVtOSF1DKD1PKVtDSDJdW0NIMl1OMVtDSDJdW0NIMl1PW0NASF0oW0NIMl0xKVtDSDJdW05IXWMyW2NIXVtjSF1bY0hdbm4y

> <s_epik_cmdline>
J2VwaWtfcHl0aG9uJywgJy1waCcsICc3LjAnLCAnLXRuJywgJzgnLCAnLW1hJywgJzIwMCcsICctbWV0YWxfYmluZGluZycsICctaW1hZScsICc8aW5maWxlLm1hZT4nLCAnLW9tYWUnLCAnPG91dGZpbGUubWFlPic=

> <r_lp_tautomer_probability>
0.999978

> <r_epik_Ionization_Penalty>
0.428793

> <r_epik_Ionization_Penalty_Charging>
0

> <r_epik_Ionization_Penalty_Neutral>
0.428793

> <r_epik_State_Penalty>
0.437051

> <r_epik_Charging_Adjusted_Penalty>
0.437051

> <i_epik_Tot_Q>
0

> <i_epik_Tot_abs_Q>
0

> <r_epik_Metal_State_Penalty>
0.432371

> <b_epik_Metal_Only>
0

> <s_lp_Force_Field>
OPLS_2005

> <r_lp_Energy>
25.2897

> <b_lp_Chiralities_Consistent>
1

> <s_lp_Variant>
AV-unprocessed.smi:652-6

> <Gold.Version>
5.8.1

> <Gold.Id.Protein>
6NUR|6NUR_protein|mol2

> <Gold.PLP.Fitness>
46.7944

> <Gold.PLP.PLP>
-41.2240

> <Gold.PLP.part.hbond>
-3.0000

> <Gold.PLP.part.metal>
0.0000

> <Gold.PLP.part.buried>
-6.3643

> <Gold.PLP.part.nonpolar>
-33.2325

> <Gold.PLP.part.repulsive>
1.7325

> <Gold.PLP.ligand.clash>
0.0000

> <Gold.PLP.ligand.torsion>
1.4075

> <Gold.PLP.Chemscore.Hbond>
2.7660

> <Gold.PLP.Chemscore.CHOScore>
0.0000

> <Gold.PLP.Chemscore.Metal>
0.0000

> <Gold.Chemscore.Hbonds>
donor molecule, donor type, donor heavy atom, donor atom, acceptor molecule, acceptor atom, score
      L1  H     4    30       P1  8028  1.00
      L1  H    15    42       P1  7948  0.78
      L1  C    19    45       P1 10747  0.18

> <Gold.PLP.Chemscore.Internal.Correction>
0.0874

> <Gold.Rescore>
     Score         DG    S(hbond)    S(metal)    S(lipo)     H(rot)  DE(clash)    DE(int)     intcor
     13.53     -16.49       1.67        0.00      94.64       2.20       0.76       2.21       ----

> <Gold.Chemscore.Fitness>
13.5268

> <Gold.Chemscore.DG>
-16.4943

> <Gold.Chemscore.ZeroCoef>
-5.4800

> <Gold.Chemscore.Hbond>
1.6697

> <Gold.Chemscore.Metal>
0.0000

> <Gold.Chemscore.Lipo>
94.6408

> <Gold.Chemscore.Internal_Hbond>
0.0000

> <Gold.Chemscore.DEClash>
0.7620

> <Gold.Chemscore.DEInternal>
2.2055

> <Gold.Chemscore.Rot>
2.2013

> <Gold.Chemscore.Internal.Correction>
   9.000000E+99

> <Gold.Chemscore.Hbonds>
donor molecule, donor type, donor heavy atom, donor atom, acceptor molecule, acceptor atom, score
      L1  H     4    30       P1  8028  0.97
      L1  H    15    42       P1  7948  0.19

> <Gold.Chemscore.Hbond.Weighted>
-5.5767

> <Gold.Chemscore.Metal.Weighted>
-0.0000

> <Gold.Chemscore.Lipo.Weighted>
-11.0730

> <Gold.Chemscore.Internal_Hbond.Weighted>
0.0000

> <Gold.Chemscore.DEClash.Weighted>
0.7620

> <Gold.Chemscore.DEInternal.Weighted>
2.2055

> <Gold.Chemscore.Rot.Weighted>
5.6354

> <Gold.Chemscore.Internal.Correction.Weighted>
   9.000000E+99

> <Gold.Protein.RotatedTorsions>
[ 6907 6896 6895 6894 ] final -158.32 input  -60.11 | X-H torsion
[ 7974 7965 7964 7962 ] final  -33.58 input  175.53 | X-H torsion
[ 8008 7997 7996 7995 ] final   78.31 input   59.86 | X-H torsion
[ 10167 10162 10161 10158 ] final   92.26 input  -65.29 | X-H torsion
[ 10718 10713 10712 10709 ] final  139.37 input   66.30 | X-H torsion
[ 10763 10752 10751 10750 ] final  161.66 input  -60.55 | X-H torsion
[ 11005 11000 10999 10996 ] final  161.83 input  -57.11 | X-H torsion

> <Gold.Protein.ActiveResidues>
 VAL166  LYS551  ARG553  GLY616  TRP617  ASP618  TYR619  PRO620  LYS621  CYS622 
 ASP623  PHE694  ASN695  SER759  ASP760  ASP761  ALA762  ILE779  LEU786  VAL792 
 PHE793  MET794  SER795  GLU796  ALA797  LYS798  CYS799  TRP800  GLU811  SER814 

> <Gold.Protein.RotatedAtoms>
  151.3163  133.4059  159.2650 H   0  0  0  0  0  0  0  0  0  0  0  0  # atno 6907 bound_to 6896
  151.0072  134.9369  159.7997 H   0  0  0  0  0  0  0  0  0  0  0  0  # atno 6908 bound_to 6896
  152.5291  134.3128  159.9172 H   0  0  0  0  0  0  0  0  0  0  0  0  # atno 6909 bound_to 6896
  146.0899  140.5934  142.8869 H   0  0  0  0  0  0  0  0  0  0  0  0  # atno 7974 bound_to 7965
  155.8540  140.3457  155.5712 H   0  0  0  0  0  0  0  0  0  0  0  0  # atno 8008 bound_to 7997
  155.8007  140.0884  157.1978 H   0  0  0  0  0  0  0  0  0  0  0  0  # atno 8009 bound_to 7997
  154.4009  140.1466  156.3258 H   0  0  0  0  0  0  0  0  0  0  0  0  # atno 8010 bound_to 7997
  139.8294  144.6694  150.9419 H   0  0  0  0  0  0  0  0  0  0  0  0  # atno 10167 bound_to 10162
  157.4152  131.1032  151.0412 H   0  0  0  0  0  0  0  0  0  0  0  0  # atno 10718 bound_to 10713
  154.2664  135.2767  155.2756 H   0  0  0  0  0  0  0  0  0  0  0  0  # atno 10763 bound_to 10752
  154.5339  135.5722  153.6785 H   0  0  0  0  0  0  0  0  0  0  0  0  # atno 10764 bound_to 10752
  152.9953  135.6234  154.2817 H   0  0  0  0  0  0  0  0  0  0  0  0  # atno 10765 bound_to 10752
  140.2197  134.8205  157.3207 H   0  0  0  0  0  0  0  0  0  0  0  0  # atno 11005 bound_to 11000
  144.7352  140.4789  143.6908 LP  0  0  0  0  0  0  0  0  0  0  0  0  # atno 17320 bound_to 7965
  145.6059  139.1508  143.3103 LP  0  0  0  0  0  0  0  0  0  0  0  0  # atno 17321 bound_to 7965
  140.7808  143.4015  151.1141 LP  0  0  0  0  0  0  0  0  0  0  0  0  # atno 17342 bound_to 10162
  139.7670  143.8550  152.3112 LP  0  0  0  0  0  0  0  0  0  0  0  0  # atno 17343 bound_to 10162
  157.1363  130.6123  149.5543 LP  0  0  0  0  0  0  0  0  0  0  0  0  # atno 17370 bound_to 10713
  155.9863  130.4897  150.7071 LP  0  0  0  0  0  0  0  0  0  0  0  0  # atno 17371 bound_to 10713
  140.1863  134.4427  155.7742 LP  0  0  0  0  0  0  0  0  0  0  0  0  # atno 17394 bound_to 11000
  141.2223  133.7006  156.7952 LP  0  0  0  0  0  0  0  0  0  0  0  0  # atno 17395 bound_to 11000

$$$$
