AV-unprocessed.smi:1047|AV-procd|sdf|4572|dock3
  -GOLD-   22720 3 23D 1   1.00000     0.00000
 Structure written by MMmdl.
 56 58  0  0  0  0  0  0  0  0  2 V2000
  148.0205  133.1712  153.3788 C   0  0  0  0  0  0  0  0  0  0  0  0
  147.4713  134.2517  154.3212 C   0  0  0  0  0  0  0  0  0  0  0  0
  147.1401  135.5120  153.6105 N   0  3  1  0  0  0  0  0  0  0  0  0
  145.9185  135.3873  152.7809 C   0  0  0  0  0  0  0  0  0  0  0  0
  145.6448  136.6985  152.0267 C   0  0  0  0  0  0  0  0  0  0  0  0
  145.5403  137.7674  152.9579 O   0  0  0  0  0  0  0  0  0  0  0  0
  146.7453  137.9659  153.6902 C   0  0  1  0  0  0  0  0  0  0  0  0
  146.5541  139.1931  154.5937 C   0  0  0  0  0  0  0  0  0  0  0  0
  146.5920  140.4234  153.8120 N   0  0  0  0  0  0  0  0  0  0  0  0
  147.8966  141.0816  153.8150 C   0  0  0  0  0  0  0  0  0  0  0  0
  148.4033  141.3471  155.2443 C   0  0  2  0  0  0  0  0  0  0  0  0
  147.5769  142.3156  155.8614 O   0  0  0  0  0  0  0  0  0  0  0  0
  149.8923  141.7444  155.3159 C   0  0  0  0  0  0  0  0  0  0  0  0
  150.5470  141.2245  156.5025 N   0  0  0  0  0  0  0  0  0  0  0  0
  150.8040  139.9337  156.7874 C   0  0  0  0  0  0  0  0  0  0  0  0
  151.4157  139.6750  157.9396 N   0  0  0  0  0  0  0  0  0  0  0  0
  151.5781  140.9472  158.4612 C   0  0  0  0  0  0  0  0  0  0  0  0
  152.1649  141.3736  159.6727 C   0  0  0  0  0  0  0  0  0  0  0  0
  152.2239  142.7455  160.0062 C   0  0  0  0  0  0  0  0  0  0  0  0
  152.8669  143.1595  161.3181 C   0  0  0  0  0  0  0  0  0  0  0  0
  151.6892  143.7156  159.1209 C   0  0  0  0  0  0  0  0  0  0  0  0
  151.7452  145.1956  159.4562 C   0  0  0  0  0  0  0  0  0  0  0  0
  151.0961  143.3067  157.9083 C   0  0  0  0  0  0  0  0  0  0  0  0
  151.0456  141.9388  157.5865 C   0  0  0  0  0  0  0  0  0  0  0  0
  147.0369  136.6911  154.5061 C   0  0  0  0  0  0  0  0  0  0  0  0
  148.1694  132.2348  153.9168 H   0  0  0  0  0  0  0  0  0  0  0  0
  148.9814  133.4517  152.9489 H   0  0  0  0  0  0  0  0  0  0  0  0
  147.3283  132.9737  152.5597 H   0  0  0  0  0  0  0  0  0  0  0  0
  146.5664  133.8586  154.7868 H   0  0  0  0  0  0  0  0  0  0  0  0
  148.1745  134.4504  155.1312 H   0  0  0  0  0  0  0  0  0  0  0  0
  146.0348  134.5718  152.0660 H   0  0  0  0  0  0  0  0  0  0  0  0
  145.0680  135.1381  153.4175 H   0  0  0  0  0  0  0  0  0  0  0  0
  146.4336  136.9051  151.3016 H   0  0  0  0  0  0  0  0  0  0  0  0
  144.7113  136.6232  151.4689 H   0  0  0  0  0  0  0  0  0  0  0  0
  147.5731  138.1493  153.0017 H   0  0  0  0  0  0  0  0  0  0  0  0
  145.6116  139.1111  155.1367 H   0  0  0  0  0  0  0  0  0  0  0  0
  147.3460  139.2212  155.3432 H   0  0  0  0  0  0  0  0  0  0  0  0
  145.8914  141.0711  154.1600 H   0  0  0  0  0  0  0  0  0  0  0  0
  148.6257  140.4724  153.2790 H   0  0  0  0  0  0  0  0  0  0  0  0
  147.8304  142.0276  153.2763 H   0  0  0  0  0  0  0  0  0  0  0  0
  148.2713  140.4267  155.8148 H   0  0  0  0  0  0  0  0  0  0  0  0
  147.9455  143.1707  155.6985 H   0  0  0  0  0  0  0  0  0  0  0  0
  150.4228  141.3704  154.4393 H   0  0  0  0  0  0  0  0  0  0  0  0
  150.0074  142.8286  155.3091 H   0  0  0  0  0  0  0  0  0  0  0  0
  150.5240  139.1385  156.1117 H   0  0  0  0  0  0  0  0  0  0  0  0
  152.5725  140.6343  160.3465 H   0  0  0  0  0  0  0  0  0  0  0  0
  153.7493  143.7720  161.1328 H   0  0  0  0  0  0  0  0  0  0  0  0
  153.1778  142.2917  161.9004 H   0  0  0  0  0  0  0  0  0  0  0  0
  152.1666  143.7343  161.9241 H   0  0  0  0  0  0  0  0  0  0  0  0
  151.3204  145.8014  158.6553 H   0  0  0  0  0  0  0  0  0  0  0  0
  152.7768  145.5151  159.6049 H   0  0  0  0  0  0  0  0  0  0  0  0
  151.1830  145.4023  160.3670 H   0  0  0  0  0  0  0  0  0  0  0  0
  150.6816  144.0347  157.2265 H   0  0  0  0  0  0  0  0  0  0  0  0
  146.2468  136.5250  155.2404 H   0  0  0  0  0  0  0  0  0  0  0  0
  147.9654  136.8245  155.0602 H   0  0  0  0  0  0  0  0  0  0  0  0
  147.9003  135.6922  152.9701 H   0  0  0  0  0  0  0  0  0  0  0  0
  1  2  1  0  0  0  0
  1 26  1  0  0  0  0
  1 27  1  0  0  0  0
  1 28  1  0  0  0  0
  2  3  1  0  0  0  0
  2 29  1  0  0  0  0
  2 30  1  0  0  0  0
  3 25  1  0  0  0  0
  3  4  1  0  0  0  0
  3 56  1  0  0  0  0
  4  5  1  0  0  0  0
  4 31  1  0  0  0  0
  4 32  1  0  0  0  0
  5  6  1  0  0  0  0
  5 33  1  0  0  0  0
  5 34  1  0  0  0  0
  6  7  1  0  0  0  0
  7  8  1  0  0  0  0
  7 25  1  0  0  0  0
  7 35  1  0  0  0  0
  8  9  1  0  0  0  0
  8 36  1  0  0  0  0
  8 37  1  0  0  0  0
  9 10  1  0  0  0  0
  9 38  1  0  0  0  0
 10 11  1  0  0  0  0
 10 39  1  0  0  0  0
 10 40  1  0  0  0  0
 11 12  1  0  0  0  0
 11 13  1  0  0  0  0
 11 41  1  0  0  0  0
 12 42  1  0  0  0  0
 13 14  1  0  0  0  0
 13 43  1  0  0  0  0
 13 44  1  0  0  0  0
 14 24  1  0  0  0  0
 14 15  1  0  0  0  0
 15 16  2  0  0  0  0
 15 45  1  0  0  0  0
 16 17  1  0  0  0  0
 17 24  2  0  0  0  0
 17 18  1  0  0  0  0
 18 19  2  0  0  0  0
 18 46  1  0  0  0  0
 19 20  1  0  0  0  0
 19 21  1  0  0  0  0
 20 47  1  0  0  0  0
 20 48  1  0  0  0  0
 20 49  1  0  0  0  0
 21 22  1  0  0  0  0
 21 23  2  0  0  0  0
 22 50  1  0  0  0  0
 22 51  1  0  0  0  0
 22 52  1  0  0  0  0
 23 24  1  0  0  0  0
 23 53  1  0  0  0  0
 25 54  1  0  0  0  0
 25 55  1  0  0  0  0
M  CHG  1   3   1
M  END
> <s_m_source_file>
AV-unprocessed.smi

> <i_m_source_file_index>
1047

> <i_lp_mmshare_version>
43012

> <i_f3d_flags>
0

> <s_epik_input>
W0NIM11bQ0gyXU4xW0NIMl1bQ0gyXU9bQ0BIXShbQ0gyXTEpW0NIMl1bTkhdW0NIMl1bQ0BIXShbT0hdKVtDSDJdbihbY0hdbjIpYyhjMjMpW2NIXWMoW0NIM10pYyhbY0hdMylbQ0gzXQ==

> <s_epik_cmdline>
J2VwaWtfcHl0aG9uJywgJy1waCcsICc3LjAnLCAnLXRuJywgJzgnLCAnLW1hJywgJzIwMCcsICctbWV0YWxfYmluZGluZycsICctaW1hZScsICc8aW5maWxlLm1hZT4nLCAnLW9tYWUnLCAnPG91dGZpbGUubWFlPic=

> <r_epik_Ionization_Penalty>
1.19246

> <r_epik_Ionization_Penalty_Charging>
0.210041

> <r_epik_Ionization_Penalty_Neutral>
0.982415

> <r_epik_State_Penalty>
1.57595

> <r_epik_Charging_Adjusted_Penalty>
1.78599

> <i_epik_Tot_Q>
1

> <i_epik_Tot_abs_Q>
1

> <r_epik_Metal_State_Penalty>
1.46172

> <b_epik_Metal_Only>
0

> <s_lp_Force_Field>
OPLS_2005

> <r_lp_Energy>
30.4626

> <b_lp_Chiralities_Consistent>
1

> <s_lp_Variant>
AV-unprocessed.smi:1047-13

> <Gold.Version>
5.8.1

> <Gold.Id.Protein>
6NUR|6NUR_protein|mol2

> <Gold.PLP.Fitness>
53.4991

> <Gold.PLP.PLP>
-46.3505

> <Gold.PLP.part.hbond>
-2.2468

> <Gold.PLP.part.metal>
0.0000

> <Gold.PLP.part.buried>
-4.7983

> <Gold.PLP.part.nonpolar>
-38.9266

> <Gold.PLP.part.repulsive>
0.2259

> <Gold.PLP.ligand.clash>
0.0000

> <Gold.PLP.ligand.torsion>
1.0206

> <Gold.PLP.Chemscore.Hbond>
3.0000

> <Gold.PLP.Chemscore.CHOScore>
0.0000

> <Gold.PLP.Chemscore.Metal>
0.0000

> <Gold.Chemscore.Hbonds>
donor molecule, donor type, donor heavy atom, donor atom, acceptor molecule, acceptor atom, score
      L1  H     3    56       P1  7948  2.00
      L1  H    12    42       P1  8028  1.00

> <Gold.PLP.Chemscore.Internal.Correction>
0.1897

> <Gold.Rescore>
     Score         DG    S(hbond)    S(metal)    S(lipo)     H(rot)  DE(clash)    DE(int)     intcor
     19.12     -20.14       1.94        0.00     127.41       2.62       0.14       0.88       ----

> <Gold.Chemscore.Fitness>
19.1217

> <Gold.Chemscore.DG>
-20.1443

> <Gold.Chemscore.ZeroCoef>
-5.4800

> <Gold.Chemscore.Hbond>
1.9364

> <Gold.Chemscore.Metal>
0.0000

> <Gold.Chemscore.Lipo>
127.4054

> <Gold.Chemscore.Internal_Hbond>
0.0000

> <Gold.Chemscore.DEClash>
0.1379

> <Gold.Chemscore.DEInternal>
0.8847

> <Gold.Chemscore.Rot>
2.6209

> <Gold.Chemscore.Internal.Correction>
   9.000000E+99

> <Gold.Chemscore.Hbonds>
donor molecule, donor type, donor heavy atom, donor atom, acceptor molecule, acceptor atom, score
      L1  H     3    56       P1  7948  0.99
      L1  H    12    42       P1  8028  0.55

> <Gold.Chemscore.Hbond.Weighted>
-6.4675

> <Gold.Chemscore.Metal.Weighted>
-0.0000

> <Gold.Chemscore.Lipo.Weighted>
-14.9064

> <Gold.Chemscore.Internal_Hbond.Weighted>
0.0000

> <Gold.Chemscore.DEClash.Weighted>
0.1379

> <Gold.Chemscore.DEInternal.Weighted>
0.8847

> <Gold.Chemscore.Rot.Weighted>
6.7096

> <Gold.Chemscore.Internal.Correction.Weighted>
   9.000000E+99

> <Gold.Protein.RotatedTorsions>
[ 6907 6896 6895 6894 ] final  -16.45 input  -60.11 | X-H torsion
[ 7974 7965 7964 7962 ] final  164.75 input  175.53 | X-H torsion
[ 8008 7997 7996 7995 ] final   94.77 input   59.86 | X-H torsion
[ 10167 10162 10161 10158 ] final   76.01 input  -65.29 | X-H torsion
[ 10718 10713 10712 10709 ] final -112.21 input   66.30 | X-H torsion
[ 10763 10752 10751 10750 ] final -163.07 input  -60.55 | X-H torsion
[ 11005 11000 10999 10996 ] final  -16.38 input  -57.11 | X-H torsion

> <Gold.Protein.ActiveResidues>
 VAL166  LYS551  ARG553  GLY616  TRP617  ASP618  TYR619  PRO620  LYS621  CYS622 
 ASP623  PHE694  ASN695  SER759  ASP760  ASP761  ALA762  ILE779  LEU786  VAL792 
 PHE793  MET794  SER795  GLU796  ALA797  LYS798  CYS799  TRP800  GLU811  SER814 

> <Gold.Protein.RotatedAtoms>
  151.3084  135.0787  159.9263 H   0  0  0  0  0  0  0  0  0  0  0  0  # atno 6907 bound_to 6896
  152.5283  133.9761  159.7795 H   0  0  0  0  0  0  0  0  0  0  0  0  # atno 6908 bound_to 6896
  151.0060  133.5959  159.2719 H   0  0  0  0  0  0  0  0  0  0  0  0  # atno 6909 bound_to 6896
  144.7531  139.8371  143.6359 H   0  0  0  0  0  0  0  0  0  0  0  0  # atno 7974 bound_to 7965
  156.0616  140.3295  155.7468 H   0  0  0  0  0  0  0  0  0  0  0  0  # atno 8008 bound_to 7997
  155.5446  140.0605  157.2880 H   0  0  0  0  0  0  0  0  0  0  0  0  # atno 8009 bound_to 7997
  154.4484  140.1904  156.0614 H   0  0  0  0  0  0  0  0  0  0  0  0  # atno 8010 bound_to 7997
  139.9969  144.5715  150.7770 H   0  0  0  0  0  0  0  0  0  0  0  0  # atno 10167 bound_to 10162
  156.0692  130.5908  150.8478 H   0  0  0  0  0  0  0  0  0  0  0  0  # atno 10718 bound_to 10713
  154.7156  135.3015  154.9129 H   0  0  0  0  0  0  0  0  0  0  0  0  # atno 10763 bound_to 10752
  154.0017  135.6706  153.4763 H   0  0  0  0  0  0  0  0  0  0  0  0  # atno 10764 bound_to 10752
  153.0791  135.5019  154.8380 H   0  0  0  0  0  0  0  0  0  0  0  0  # atno 10765 bound_to 10752
  140.8062  133.8175  155.9518 H   0  0  0  0  0  0  0  0  0  0  0  0  # atno 11005 bound_to 11000
  146.1508  139.4591  143.0050 LP  0  0  0  0  0  0  0  0  0  0  0  0  # atno 17320 bound_to 7965
  145.6872  141.0174  143.1575 LP  0  0  0  0  0  0  0  0  0  0  0  0  # atno 17321 bound_to 7965
  140.7434  143.2845  151.3502 LP  0  0  0  0  0  0  0  0  0  0  0  0  # atno 17342 bound_to 10162
  139.6300  144.0740  152.2468 LP  0  0  0  0  0  0  0  0  0  0  0  0  # atno 17343 bound_to 10162
  157.5753  131.0946  150.9355 LP  0  0  0  0  0  0  0  0  0  0  0  0  # atno 17370 bound_to 10713
  156.9562  130.5438  149.5284 LP  0  0  0  0  0  0  0  0  0  0  0  0  # atno 17371 bound_to 10713
  140.9244  134.2101  157.4905 LP  0  0  0  0  0  0  0  0  0  0  0  0  # atno 17394 bound_to 11000
  139.8717  134.9806  156.5083 LP  0  0  0  0  0  0  0  0  0  0  0  0  # atno 17395 bound_to 11000

$$$$
