AV-unprocessed.smi:1933|AV-procd|sdf|7819|dock6
  -GOLD-   22720 9563D 1   1.00000     0.00000
 Structure written by MMmdl.
 48 50  0  0  0  0  0  0  0  0  2 V2000
  145.1303  136.3198  153.3712 O   0  0  0  0  0  0  0  0  0  0  0  0
  146.2850  136.0733  153.0226 C   0  0  0  0  0  0  0  0  0  0  0  0
  147.3567  136.7334  153.4863 N   0  0  0  0  0  0  0  0  0  0  0  0
  147.3336  137.8303  154.4498 C   0  0  0  0  0  0  0  0  0  0  0  0
  148.4652  138.8703  154.2188 C   0  0  2  0  0  0  0  0  0  0  0  0
  149.8106  138.5172  154.9175 C   0  0  2  0  0  0  0  0  0  0  0  0
  150.9461  139.4813  154.6010 C   0  0  0  0  0  0  0  0  0  0  0  0
  152.1750  138.6599  154.9573 C   0  0  0  0  0  0  0  0  0  0  0  0
  151.8590  137.3667  154.4715 O   0  0  0  0  0  0  0  0  0  0  0  0
  150.4481  137.1737  154.5183 C   0  0  0  0  0  0  0  0  0  0  0  0
  148.0379  140.2465  154.6157 N   0  3  0  0  0  0  0  0  0  0  0  0
  147.0717  140.8774  153.6838 C   0  0  0  0  0  0  0  0  0  0  0  0
  146.8589  142.3526  154.0653 C   0  0  0  0  0  0  0  0  0  0  0  0
  146.4238  142.4427  155.4170 O   0  0  0  0  0  0  0  0  0  0  0  0
  147.3791  141.9080  156.3262 C   0  0  0  0  0  0  0  0  0  0  0  0
  147.5957  140.4162  156.0235 C   0  0  0  0  0  0  0  0  0  0  0  0
  146.6479  135.1164  152.1507 N   0  0  0  0  0  0  0  0  0  0  0  0
  145.8216  134.1651  151.4961 C   0  0  0  0  0  0  0  0  0  0  0  0
  146.5134  133.2023  150.7270 C   0  0  0  0  0  0  0  0  0  0  0  0
  145.7858  132.2096  150.0425 C   0  0  0  0  0  0  0  0  0  0  0  0
  144.3833  132.2050  150.1460 C   0  0  0  0  0  0  0  0  0  0  0  0
  143.7732  133.1984  150.9338 C   0  0  0  0  0  0  0  0  0  0  0  0
  144.4686  134.1511  151.5904 N   0  0  0  0  0  0  0  0  0  0  0  0
  148.2639  136.4569  153.1396 H   0  0  0  0  0  0  0  0  0  0  0  0
  146.3578  138.3047  154.3509 H   0  0  0  0  0  0  0  0  0  0  0  0
  147.3782  137.4448  155.4691 H   0  0  0  0  0  0  0  0  0  0  0  0
  148.6711  138.9066  153.1478 H   0  0  0  0  0  0  0  0  0  0  0  0
  149.6686  138.5106  155.9992 H   0  0  0  0  0  0  0  0  0  0  0  0
  150.9594  139.7249  153.5374 H   0  0  0  0  0  0  0  0  0  0  0  0
  150.8905  140.4122  155.1660 H   0  0  0  0  0  0  0  0  0  0  0  0
  153.0896  139.0470  154.5077 H   0  0  0  0  0  0  0  0  0  0  0  0
  152.3118  138.6166  156.0390 H   0  0  0  0  0  0  0  0  0  0  0  0
  150.2084  136.3891  155.2355 H   0  0  0  0  0  0  0  0  0  0  0  0
  150.1191  136.8442  153.5325 H   0  0  0  0  0  0  0  0  0  0  0  0
  147.4428  140.8168  152.6601 H   0  0  0  0  0  0  0  0  0  0  0  0
  146.1186  140.3486  153.7127 H   0  0  0  0  0  0  0  0  0  0  0  0
  147.7773  142.9261  153.9287 H   0  0  0  0  0  0  0  0  0  0  0  0
  146.1043  142.8023  153.4197 H   0  0  0  0  0  0  0  0  0  0  0  0
  148.3171  142.4614  156.2566 H   0  0  0  0  0  0  0  0  0  0  0  0
  147.0086  142.0355  157.3435 H   0  0  0  0  0  0  0  0  0  0  0  0
  146.6623  139.8789  156.1960 H   0  0  0  0  0  0  0  0  0  0  0  0
  148.3367  140.0081  156.7101 H   0  0  0  0  0  0  0  0  0  0  0  0
  147.6336  135.0451  151.9460 H   0  0  0  0  0  0  0  0  0  0  0  0
  147.5916  133.2199  150.6589 H   0  0  0  0  0  0  0  0  0  0  0  0
  146.2961  131.4653  149.4491 H   0  0  0  0  0  0  0  0  0  0  0  0
  143.7910  131.4598  149.6362 H   0  0  0  0  0  0  0  0  0  0  0  0
  142.6990  133.2294  151.0410 H   0  0  0  0  0  0  0  0  0  0  0  0
  148.8761  140.8036  154.5293 H   0  0  0  0  0  0  0  0  0  0  0  0
  1  2  2  0  0  0  0
  2  3  1  0  0  0  0
  2 17  1  0  0  0  0
  3  4  1  0  0  0  0
  3 24  1  0  0  0  0
  4  5  1  0  0  0  0
  4 25  1  0  0  0  0
  4 26  1  0  0  0  0
  5  6  1  0  0  0  0
  5 11  1  0  0  0  0
  5 27  1  0  0  0  0
  6 10  1  0  0  0  0
  6  7  1  0  0  0  0
  6 28  1  0  0  0  0
  7  8  1  0  0  0  0
  7 29  1  0  0  0  0
  7 30  1  0  0  0  0
  8  9  1  0  0  0  0
  8 31  1  0  0  0  0
  8 32  1  0  0  0  0
  9 10  1  0  0  0  0
 10 33  1  0  0  0  0
 10 34  1  0  0  0  0
 11 16  1  0  0  0  0
 11 12  1  0  0  0  0
 11 48  1  0  0  0  0
 12 13  1  0  0  0  0
 12 35  1  0  0  0  0
 12 36  1  0  0  0  0
 13 14  1  0  0  0  0
 13 37  1  0  0  0  0
 13 38  1  0  0  0  0
 14 15  1  0  0  0  0
 15 16  1  0  0  0  0
 15 39  1  0  0  0  0
 15 40  1  0  0  0  0
 16 41  1  0  0  0  0
 16 42  1  0  0  0  0
 17 18  1  0  0  0  0
 17 43  1  0  0  0  0
 18 23  1  0  0  0  0
 18 19  2  0  0  0  0
 19 20  1  0  0  0  0
 19 44  1  0  0  0  0
 20 21  2  0  0  0  0
 20 45  1  0  0  0  0
 21 22  1  0  0  0  0
 21 46  1  0  0  0  0
 22 23  2  0  0  0  0
 22 47  1  0  0  0  0
M  CHG  1  11   1
M  END
> <s_m_source_file>
AV-unprocessed.smi

> <i_m_source_file_index>
1933

> <i_lp_mmshare_version>
43012

> <i_f3d_flags>
0

> <s_epik_input>
bjFbY0hdW2NIXVtjSF1bY0hdYzFbTkhdQyg9TylbTkhdW0NIMl1bQ0BIXShbQ0BASF0yW0NIMl1bQ0gyXU9bQ0gyXTIpTjNbQ0gyXVtDSDJdT1tDSDJdW0NIMl0z

> <s_epik_cmdline>
J2VwaWtfcHl0aG9uJywgJy1waCcsICc3LjAnLCAnLXRuJywgJzgnLCAnLW1hJywgJzIwMCcsICctbWV0YWxfYmluZGluZycsICctaW1hZScsICc8aW5maWxlLm1hZT4nLCAnLW9tYWUnLCAnPG91dGZpbGUubWFlPic=

> <r_epik_Ionization_Penalty>
0.983294

> <r_epik_Ionization_Penalty_Charging>
0.98326

> <r_epik_Ionization_Penalty_Neutral>
3.39688e-05

> <r_epik_State_Penalty>
1.0303

> <r_epik_Charging_Adjusted_Penalty>
2.01356

> <i_epik_Tot_Q>
1

> <i_epik_Tot_abs_Q>
1

> <r_epik_Metal_State_Penalty>
1.0303

> <b_epik_Metal_Only>
0

> <s_lp_Force_Field>
OPLS_2005

> <r_lp_Energy>
40.1747

> <b_lp_Chiralities_Consistent>
1

> <s_lp_Variant>
AV-unprocessed.smi:1933-5

> <Gold.Version>
5.8.1

> <Gold.Id.Protein>
6NUR|6NUR_protein|mol2

> <Gold.PLP.Fitness>
44.5649

> <Gold.PLP.PLP>
-35.3681

> <Gold.PLP.part.hbond>
-2.5084

> <Gold.PLP.part.metal>
0.0000

> <Gold.PLP.part.buried>
-3.3882

> <Gold.PLP.part.nonpolar>
-30.8022

> <Gold.PLP.part.repulsive>
0.5914

> <Gold.PLP.ligand.clash>
0.0000

> <Gold.PLP.ligand.torsion>
0.7306

> <Gold.PLP.Chemscore.Hbond>
2.4800

> <Gold.PLP.Chemscore.CHOScore>
1.0000

> <Gold.PLP.Chemscore.Metal>
0.0000

> <Gold.Chemscore.Hbonds>
donor molecule, donor type, donor heavy atom, donor atom, acceptor molecule, acceptor atom, score
      L1  H     3    24       P1  7948  0.68
      L1  H    17    43       P1  7948  0.70
      P1  H 10752 10764       L1     9  0.96
      L1  C    22    47       P1 10186  0.94

> <Gold.PLP.Chemscore.Internal.Correction>
0.2180

> <Gold.Rescore>
     Score         DG    S(hbond)    S(metal)    S(lipo)     H(rot)  DE(clash)    DE(int)     intcor
     17.57     -19.65       2.60        0.00      85.44       1.77       0.04       2.03       ----

> <Gold.Chemscore.Fitness>
17.5716

> <Gold.Chemscore.DG>
-19.6464

> <Gold.Chemscore.ZeroCoef>
-5.4800

> <Gold.Chemscore.Hbond>
2.6030

> <Gold.Chemscore.Metal>
0.0000

> <Gold.Chemscore.Lipo>
85.4370

> <Gold.Chemscore.Internal_Hbond>
0.0000

> <Gold.Chemscore.DEClash>
0.0446

> <Gold.Chemscore.DEInternal>
2.0302

> <Gold.Chemscore.Rot>
1.7671

> <Gold.Chemscore.Internal.Correction>
   9.000000E+99

> <Gold.Chemscore.Hbonds>
donor molecule, donor type, donor heavy atom, donor atom, acceptor molecule, acceptor atom, score
      L1  H     3    24       P1  7948  0.65
      L1  H    17    43       P1  7948  0.60
      P1  H 10752 10764       L1     9  0.78

> <Gold.Chemscore.Hbond.Weighted>
-8.6941

> <Gold.Chemscore.Metal.Weighted>
-0.0000

> <Gold.Chemscore.Lipo.Weighted>
-9.9961

> <Gold.Chemscore.Internal_Hbond.Weighted>
0.0000

> <Gold.Chemscore.DEClash.Weighted>
0.0446

> <Gold.Chemscore.DEInternal.Weighted>
2.0302

> <Gold.Chemscore.Rot.Weighted>
4.5238

> <Gold.Chemscore.Internal.Correction.Weighted>
   9.000000E+99

> <Gold.Protein.RotatedTorsions>
[ 6907 6896 6895 6894 ] final -133.13 input  -60.11 | X-H torsion
[ 7974 7965 7964 7962 ] final  158.76 input  175.53 | X-H torsion
[ 8008 7997 7996 7995 ] final -133.87 input   59.86 | X-H torsion
[ 10167 10162 10161 10158 ] final  -59.57 input  -65.29 | X-H torsion
[ 10718 10713 10712 10709 ] final  138.45 input   66.30 | X-H torsion
[ 10763 10752 10751 10750 ] final  -77.67 input  -60.55 | X-H torsion
[ 11005 11000 10999 10996 ] final  179.48 input  -57.11 | X-H torsion

> <Gold.Protein.ActiveResidues>
 VAL166  LYS551  ARG553  GLY616  TRP617  ASP618  TYR619  PRO620  LYS621  CYS622 
 ASP623  PHE694  ASN695  SER759  ASP760  ASP761  ALA762  ILE779  LEU786  VAL792 
 PHE793  MET794  SER795  GLU796  ALA797  LYS798  CYS799  TRP800  GLU811  SER814 

> <Gold.Protein.RotatedAtoms>
  150.9704  133.6350  159.2738 H   0  0  0  0  0  0  0  0  0  0  0  0  # atno 6907 bound_to 6896
  151.3641  135.0909  159.9454 H   0  0  0  0  0  0  0  0  0  0  0  0  # atno 6908 bound_to 6896
  152.5180  133.9271  159.7617 H   0  0  0  0  0  0  0  0  0  0  0  0  # atno 6909 bound_to 6896
  144.7828  139.7523  143.6253 H   0  0  0  0  0  0  0  0  0  0  0  0  # atno 7974 bound_to 7965
  155.3526  140.0478  157.3046 H   0  0  0  0  0  0  0  0  0  0  0  0  # atno 8008 bound_to 7997
  154.5219  140.2228  155.8924 H   0  0  0  0  0  0  0  0  0  0  0  0  # atno 8009 bound_to 7997
  156.1699  140.3098  155.8960 H   0  0  0  0  0  0  0  0  0  0  0  0  # atno 8010 bound_to 7997
  140.6126  143.2392  151.5672 H   0  0  0  0  0  0  0  0  0  0  0  0  # atno 10167 bound_to 10162
  157.4252  131.1043  151.0310 H   0  0  0  0  0  0  0  0  0  0  0  0  # atno 10718 bound_to 10713
  154.5160  135.5756  153.6642 H   0  0  0  0  0  0  0  0  0  0  0  0  # atno 10763 bound_to 10752
  152.9907  135.6170  154.2817 H   0  0  0  0  0  0  0  0  0  0  0  0  # atno 10764 bound_to 10752
  154.2735  135.2853  155.2708 H   0  0  0  0  0  0  0  0  0  0  0  0  # atno 10765 bound_to 10752
  140.4066  134.6730  157.4591 H   0  0  0  0  0  0  0  0  0  0  0  0  # atno 11005 bound_to 11000
  146.2044  139.5359  142.9722 LP  0  0  0  0  0  0  0  0  0  0  0  0  # atno 17320 bound_to 7965
  145.6005  141.0356  143.2021 LP  0  0  0  0  0  0  0  0  0  0  0  0  # atno 17321 bound_to 7965
  139.5373  144.2744  152.1279 LP  0  0  0  0  0  0  0  0  0  0  0  0  # atno 17342 bound_to 10162
  140.1947  144.4717  150.6461 LP  0  0  0  0  0  0  0  0  0  0  0  0  # atno 17343 bound_to 10162
  157.1227  130.6068  149.5509 LP  0  0  0  0  0  0  0  0  0  0  0  0  # atno 17370 bound_to 10713
  155.9894  130.4941  150.7212 LP  0  0  0  0  0  0  0  0  0  0  0  0  # atno 17371 bound_to 10713
  140.0298  134.6423  155.9123 LP  0  0  0  0  0  0  0  0  0  0  0  0  # atno 17394 bound_to 11000
  141.1837  133.6551  156.5127 LP  0  0  0  0  0  0  0  0  0  0  0  0  # atno 17395 bound_to 11000

$$$$
