AV-unprocessed.smi:249|AV-procd|sdf|1914|dock3
  -GOLD-   2262021 13D 1   1.00000     0.00000
 Structure written by MMmdl.
 64 67  0  0  0  0  0  0  0  0  2 V2000
  151.5777  144.0447  158.1984 C   0  0  0  0  0  0  0  0  0  0  0  0
  150.5064  143.0131  158.5779 C   0  0  0  0  0  0  0  0  0  0  0  0
  149.6836  142.5955  157.4129 N   0  3  2  0  0  0  0  0  0  0  0  0
  148.4848  141.7966  157.7867 C   0  0  0  0  0  0  0  0  0  0  0  0
  147.5733  141.5673  156.5714 C   0  0  0  0  0  0  0  0  0  0  0  0
  148.3400  140.8755  155.4272 C   0  0  1  0  0  0  0  0  0  0  0  0
  147.5063  140.5553  154.2612 N   0  0  0  0  0  0  0  0  0  0  0  0
  146.8715  141.6676  153.5638 C   0  0  0  0  0  0  0  0  0  0  0  0
  146.7514  139.4320  154.3142 C   0  0  0  0  0  0  0  0  0  0  0  0
  146.3019  139.0373  155.5318 N   0  0  0  0  0  0  0  0  0  0  0  0
  145.5622  137.9304  155.6473 C   0  0  0  0  0  0  0  0  0  0  0  0
  145.1663  137.0880  154.6912 N   0  0  0  0  0  0  0  0  0  0  0  0
  145.6194  137.4787  153.4658 C   0  0  0  0  0  0  0  0  0  0  0  0
  146.4130  138.6276  153.1884 C   0  0  0  0  0  0  0  0  0  0  0  0
  146.6759  138.7026  151.8253 N   0  0  0  0  0  0  0  0  0  0  0  0
  146.0771  137.6557  151.3266 C   0  0  0  0  0  0  0  0  0  0  0  0
  145.4132  136.8697  152.2403 N   0  0  0  0  0  0  0  0  0  0  0  0
  144.6685  135.6552  151.9552 C   0  0  0  0  0  0  0  0  0  0  0  0
  145.2126  134.4154  152.7078 C   0  0  2  0  0  0  0  0  0  0  0  0
  146.6190  134.6531  153.3102 C   0  0  0  0  0  0  0  0  0  0  0  0
  147.0612  133.5322  154.0478 O   0  0  0  0  0  0  0  0  0  0  0  0
  145.1598  133.1419  151.8255 C   0  0  2  0  0  0  0  0  0  0  0  0
  146.1194  133.1413  150.6482 C   0  0  0  0  0  0  0  0  0  0  0  0
  145.5296  132.0578  149.7526 C   0  0  0  0  0  0  0  0  0  0  0  0
  144.1232  132.1113  149.9614 O   0  0  0  0  0  0  0  0  0  0  0  0
  143.8299  132.9190  151.0973 C   0  0  0  0  0  0  0  0  0  0  0  0
  149.5854  141.7187  155.0776 C   0  0  0  0  0  0  0  0  0  0  0  0
  150.4776  141.9744  156.3107 C   0  0  2  0  0  0  0  0  0  0  0  0
  151.2519  140.7117  156.7478 C   0  0  0  0  0  0  0  0  0  0  0  0
  152.2101  144.2716  159.0570 H   0  0  0  0  0  0  0  0  0  0  0  0
  151.1421  144.9848  157.8616 H   0  0  0  0  0  0  0  0  0  0  0  0
  152.2227  143.6682  157.4043 H   0  0  0  0  0  0  0  0  0  0  0  0
  151.0178  142.1419  158.9899 H   0  0  0  0  0  0  0  0  0  0  0  0
  149.8668  143.4017  159.3712 H   0  0  0  0  0  0  0  0  0  0  0  0
  148.7868  140.8430  158.2208 H   0  0  0  0  0  0  0  0  0  0  0  0
  147.9130  142.3160  158.5546 H   0  0  0  0  0  0  0  0  0  0  0  0
  146.7144  140.9628  156.8652 H   0  0  0  0  0  0  0  0  0  0  0  0
  147.1814  142.5309  156.2439 H   0  0  0  0  0  0  0  0  0  0  0  0
  148.6831  139.9130  155.8081 H   0  0  0  0  0  0  0  0  0  0  0  0
  146.3285  141.3201  152.6836 H   0  0  0  0  0  0  0  0  0  0  0  0
  147.6273  142.3775  153.2269 H   0  0  0  0  0  0  0  0  0  0  0  0
  146.1728  142.1997  154.2088 H   0  0  0  0  0  0  0  0  0  0  0  0
  145.2430  137.6833  156.6491 H   0  0  0  0  0  0  0  0  0  0  0  0
  146.0999  137.4278  150.2708 H   0  0  0  0  0  0  0  0  0  0  0  0
  143.6288  135.8411  152.2239 H   0  0  0  0  0  0  0  0  0  0  0  0
  144.6793  135.4813  150.8787 H   0  0  0  0  0  0  0  0  0  0  0  0
  144.5449  134.2446  153.5536 H   0  0  0  0  0  0  0  0  0  0  0  0
  147.3494  134.8692  152.5306 H   0  0  0  0  0  0  0  0  0  0  0  0
  146.6173  135.5229  153.9667 H   0  0  0  0  0  0  0  0  0  0  0  0
  146.9809  133.7253  154.9693 H   0  0  0  0  0  0  0  0  0  0  0  0
  145.3709  132.2635  152.4379 H   0  0  0  0  0  0  0  0  0  0  0  0
  146.0960  134.1039  150.1354 H   0  0  0  0  0  0  0  0  0  0  0  0
  147.1508  132.9287  150.9307 H   0  0  0  0  0  0  0  0  0  0  0  0
  145.7839  132.1993  148.7018 H   0  0  0  0  0  0  0  0  0  0  0  0
  145.8885  131.0746  150.0591 H   0  0  0  0  0  0  0  0  0  0  0  0
  143.0821  132.4423  151.7318 H   0  0  0  0  0  0  0  0  0  0  0  0
  143.4184  133.8655  150.7436 H   0  0  0  0  0  0  0  0  0  0  0  0
  150.1724  141.2355  154.2961 H   0  0  0  0  0  0  0  0  0  0  0  0
  149.2724  142.6805  154.6698 H   0  0  0  0  0  0  0  0  0  0  0  0
  151.2231  142.7102  156.0054 H   0  0  0  0  0  0  0  0  0  0  0  0
  151.8256  140.3055  155.9143 H   0  0  0  0  0  0  0  0  0  0  0  0
  150.5928  139.9202  157.1027 H   0  0  0  0  0  0  0  0  0  0  0  0
  151.9638  140.9295  157.5437 H   0  0  0  0  0  0  0  0  0  0  0  0
  149.3261  143.4542  157.0191 H   0  0  0  0  0  0  0  0  0  0  0  0
  1  2  1  0  0  0  0
  1 30  1  0  0  0  0
  1 31  1  0  0  0  0
  1 32  1  0  0  0  0
  2  3  1  0  0  0  0
  2 33  1  0  0  0  0
  2 34  1  0  0  0  0
  3 28  1  0  0  0  0
  3  4  1  0  0  0  0
  3 64  1  0  0  0  0
  4  5  1  0  0  0  0
  4 35  1  0  0  0  0
  4 36  1  0  0  0  0
  5  6  1  0  0  0  0
  5 37  1  0  0  0  0
  5 38  1  0  0  0  0
  6  7  1  0  0  0  0
  6 27  1  0  0  0  0
  6 39  1  0  0  0  0
  7  8  1  0  0  0  0
  7  9  1  0  0  0  0
  8 40  1  0  0  0  0
  8 41  1  0  0  0  0
  8 42  1  0  0  0  0
  9 14  1  0  0  0  0
  9 10  2  0  0  0  0
 10 11  1  0  0  0  0
 11 12  2  0  0  0  0
 11 43  1  0  0  0  0
 12 13  1  0  0  0  0
 13 17  1  0  0  0  0
 13 14  2  0  0  0  0
 14 15  1  0  0  0  0
 15 16  2  0  0  0  0
 16 17  1  0  0  0  0
 16 44  1  0  0  0  0
 17 18  1  0  0  0  0
 18 19  1  0  0  0  0
 18 45  1  0  0  0  0
 18 46  1  0  0  0  0
 19 20  1  0  0  0  0
 19 22  1  0  0  0  0
 19 47  1  0  0  0  0
 20 21  1  0  0  0  0
 20 48  1  0  0  0  0
 20 49  1  0  0  0  0
 21 50  1  0  0  0  0
 22 26  1  0  0  0  0
 22 23  1  0  0  0  0
 22 51  1  0  0  0  0
 23 24  1  0  0  0  0
 23 52  1  0  0  0  0
 23 53  1  0  0  0  0
 24 25  1  0  0  0  0
 24 54  1  0  0  0  0
 24 55  1  0  0  0  0
 25 26  1  0  0  0  0
 26 56  1  0  0  0  0
 26 57  1  0  0  0  0
 27 28  1  0  0  0  0
 27 58  1  0  0  0  0
 27 59  1  0  0  0  0
 28 29  1  0  0  0  0
 28 60  1  0  0  0  0
 29 61  1  0  0  0  0
 29 62  1  0  0  0  0
 29 63  1  0  0  0  0
M  CHG  1   3   1
M  END
> <s_m_source_file>
AV-unprocessed.smi

> <i_m_source_file_index>
249

> <i_lp_mmshare_version>
43012

> <i_f3d_flags>
0

> <s_epik_input>
W0NIM11bQ0gyXU4xW0NIMl1bQ0gyXVtDQEhdKFtDSDJdW0NASF0xW0NIM10pTihbQ0gzXSljKG5bY0hdbjIpYyhjMjMpbltjSF1uM1tDSDJdW0NASF0oW0NIMl1bT0hdKVtDQEBIXTRbQ0gyXVtDSDJdT1tDSDJdNA==

> <s_epik_cmdline>
J2VwaWtfcHl0aG9uJywgJy1waCcsICc3LjAnLCAnLXRuJywgJzgnLCAnLW1hJywgJzIwMCcsICctbWV0YWxfYmluZGluZycsICctaW1hZScsICc8aW5maWxlLm1hZT4nLCAnLW9tYWUnLCAnPG91dGZpbGUubWFlPic=

> <r_lp_tautomer_probability>
1

> <r_epik_Ionization_Penalty>
0.00294688

> <r_epik_Ionization_Penalty_Charging>
0.00169971

> <r_epik_Ionization_Penalty_Neutral>
0.00124717

> <r_epik_State_Penalty>
-0

> <r_epik_Charging_Adjusted_Penalty>
0.00169971

> <i_epik_Tot_Q>
1

> <i_epik_Tot_abs_Q>
1

> <r_epik_Metal_State_Penalty>
-0

> <b_epik_Metal_Only>
0

> <s_lp_Force_Field>
OPLS_2005

> <r_lp_Energy>
54.2474

> <b_lp_Chiralities_Consistent>
1

> <s_lp_Variant>
AV-unprocessed.smi:249-17

> <Gold.Version>
5.8.1

> <Gold.Id.Protein>
6NUR|6NUR_protein|mol2

> <Gold.PLP.Fitness>
47.9784

> <Gold.PLP.PLP>
-43.0339

> <Gold.PLP.part.hbond>
-1.1049

> <Gold.PLP.part.metal>
0.0000

> <Gold.PLP.part.buried>
-3.1667

> <Gold.PLP.part.nonpolar>
-38.8477

> <Gold.PLP.part.repulsive>
0.8356

> <Gold.PLP.ligand.clash>
0.0000

> <Gold.PLP.ligand.torsion>
1.3810

> <Gold.PLP.Chemscore.Hbond>
2.0000

> <Gold.PLP.Chemscore.CHOScore>
0.2239

> <Gold.PLP.Chemscore.Metal>
0.0000

> <Gold.Chemscore.Hbonds>
donor molecule, donor type, donor heavy atom, donor atom, acceptor molecule, acceptor atom, score
      L1  H     3    64       P1  8028  2.00
      L1  C    16    44       P1 10171  0.28

> <Gold.PLP.Chemscore.Internal.Correction>
1.0347

> <Gold.Rescore>
     Score         DG    S(hbond)    S(metal)    S(lipo)     H(rot)  DE(clash)    DE(int)     intcor
     11.03     -13.70       0.98        0.00     105.76       2.90       1.27       1.40       ----

> <Gold.Chemscore.Fitness>
11.0331

> <Gold.Chemscore.DG>
-13.7029

> <Gold.Chemscore.ZeroCoef>
-5.4800

> <Gold.Chemscore.Hbond>
0.9804

> <Gold.Chemscore.Metal>
0.0000

> <Gold.Chemscore.Lipo>
105.7608

> <Gold.Chemscore.Internal_Hbond>
0.0000

> <Gold.Chemscore.DEClash>
1.2697

> <Gold.Chemscore.DEInternal>
1.4002

> <Gold.Chemscore.Rot>
2.9006

> <Gold.Chemscore.Internal.Correction>
   9.000000E+99

> <Gold.Chemscore.Hbonds>
donor molecule, donor type, donor heavy atom, donor atom, acceptor molecule, acceptor atom, score
      L1  H     3    64       P1  8028  0.87
      P1  H 10785 10796       L1    25  0.01

> <Gold.Chemscore.Hbond.Weighted>
-3.2746

> <Gold.Chemscore.Metal.Weighted>
-0.0000

> <Gold.Chemscore.Lipo.Weighted>
-12.3740

> <Gold.Chemscore.Internal_Hbond.Weighted>
0.0000

> <Gold.Chemscore.DEClash.Weighted>
1.2697

> <Gold.Chemscore.DEInternal.Weighted>
1.4002

> <Gold.Chemscore.Rot.Weighted>
7.4256

> <Gold.Chemscore.Internal.Correction.Weighted>
   9.000000E+99

> <Gold.Protein.RotatedTorsions>
[ 6907 6896 6895 6894 ] final  134.88 input  -60.11 | X-H torsion
[ 7974 7965 7964 7962 ] final   -7.25 input  175.53 | X-H torsion
[ 8008 7997 7996 7995 ] final  -79.50 input   59.86 | X-H torsion
[ 10167 10162 10161 10158 ] final   60.80 input  -65.29 | X-H torsion
[ 10718 10713 10712 10709 ] final  -74.92 input   66.30 | X-H torsion
[ 10763 10752 10751 10750 ] final   -2.63 input  -60.55 | X-H torsion
[ 11005 11000 10999 10996 ] final -154.76 input  -57.11 | X-H torsion

> <Gold.Protein.ActiveResidues>
 VAL166  LYS551  ARG553  GLY616  TRP617  ASP618  TYR619  PRO620  LYS621  CYS622 
 ASP623  PHE694  ASN695  SER759  ASP760  ASP761  ALA762  ILE779  LEU786  VAL792 
 PHE793  MET794  SER795  GLU796  ALA797  LYS798  CYS799  TRP800  GLU811  SER814 

> <Gold.Protein.RotatedAtoms>
  152.3065  133.5708  159.5652 H   0  0  0  0  0  0  0  0  0  0  0  0  # atno 6907 bound_to 6896
  150.7302  134.0215  159.3712 H   0  0  0  0  0  0  0  0  0  0  0  0  # atno 6908 bound_to 6896
  151.8111  135.0681  160.0464 H   0  0  0  0  0  0  0  0  0  0  0  0  # atno 6909 bound_to 6896
  146.2311  140.2291  142.8339 H   0  0  0  0  0  0  0  0  0  0  0  0  # atno 7974 bound_to 7965
  154.5791  140.0677  156.9078 H   0  0  0  0  0  0  0  0  0  0  0  0  # atno 8008 bound_to 7997
  155.2494  140.3350  155.4265 H   0  0  0  0  0  0  0  0  0  0  0  0  # atno 8009 bound_to 7997
  156.2176  140.1785  156.7537 H   0  0  0  0  0  0  0  0  0  0  0  0  # atno 8010 bound_to 7997
  140.1617  144.4364  150.6706 H   0  0  0  0  0  0  0  0  0  0  0  0  # atno 10167 bound_to 10162
  156.0225  130.4428  150.2965 H   0  0  0  0  0  0  0  0  0  0  0  0  # atno 10718 bound_to 10713
  153.3606  135.6990  153.6715 H   0  0  0  0  0  0  0  0  0  0  0  0  # atno 10763 bound_to 10752
  153.5405  135.3574  155.2717 H   0  0  0  0  0  0  0  0  0  0  0  0  # atno 10764 bound_to 10752
  154.8667  135.4202  154.2862 H   0  0  0  0  0  0  0  0  0  0  0  0  # atno 10765 bound_to 10752
  140.6938  134.4012  157.5217 H   0  0  0  0  0  0  0  0  0  0  0  0  # atno 11005 bound_to 11000
  144.9572  140.8238  143.5536 LP  0  0  0  0  0  0  0  0  0  0  0  0  # atno 17320 bound_to 7965
  145.2258  139.2138  143.5069 LP  0  0  0  0  0  0  0  0  0  0  0  0  # atno 17321 bound_to 7965
  140.6639  143.2261  151.5790 LP  0  0  0  0  0  0  0  0  0  0  0  0  # atno 17342 bound_to 10162
  139.5378  144.2732  152.1288 LP  0  0  0  0  0  0  0  0  0  0  0  0  # atno 17343 bound_to 10162
  157.1068  131.0210  151.3064 LP  0  0  0  0  0  0  0  0  0  0  0  0  # atno 17370 bound_to 10713
  157.4736  130.7723  149.7347 LP  0  0  0  0  0  0  0  0  0  0  0  0  # atno 17371 bound_to 10713
  139.8916  134.8776  156.2313 LP  0  0  0  0  0  0  0  0  0  0  0  0  # atno 17394 bound_to 11000
  141.0220  133.7036  156.1283 LP  0  0  0  0  0  0  0  0  0  0  0  0  # atno 17395 bound_to 11000

$$$$
