AV-unprocessed.smi:1218|AV-procd|sdf|5106|dock10
  -GOLD-   22720 4163D 1   1.00000     0.00000
 Structure written by MMmdl.
 45 46  0  0  0  0  0  0  0  0  2 V2000
  145.6388  128.8456  151.9839 C   0  0  0  0  0  0  0  0  0  0  0  0
  147.1656  128.8135  151.8182 C   0  0  0  0  0  0  0  0  0  0  0  0
  147.6357  127.3974  151.4452 C   0  0  0  0  0  0  0  0  0  0  0  0
  147.8599  129.3308  153.0966 C   0  0  0  0  0  0  0  0  0  0  0  0
  148.2105  130.7728  153.0282 N   0  3  1  0  0  0  0  0  0  0  0  0
  147.0603  131.6478  152.6922 C   0  0  0  0  0  0  0  0  0  0  0  0
  147.5066  133.1162  152.6168 C   0  0  0  0  0  0  0  0  0  0  0  0
  148.1117  133.4901  153.8468 O   0  0  0  0  0  0  0  0  0  0  0  0
  149.2837  132.7322  154.1291 C   0  0  1  0  0  0  0  0  0  0  0  0
  149.9268  133.2655  155.4222 C   0  0  0  0  0  0  0  0  0  0  0  0
  151.2734  132.7377  155.6182 N   0  0  0  0  0  0  0  0  0  0  0  0
  151.7428  132.2250  156.7663 C   0  0  0  0  0  0  0  0  0  0  0  0
  151.0688  132.1515  157.7948 O   0  0  0  0  0  0  0  0  0  0  0  0
  153.1947  131.7325  156.7373 C   0  0  0  0  0  0  0  0  0  0  0  0
  153.3954  130.6434  155.7952 N   0  0  0  0  0  0  0  0  0  0  0  0
  154.5779  130.1896  155.2476 C   0  0  0  0  0  0  0  0  0  0  0  0
  154.2694  129.1500  154.4181 C   0  0  0  0  0  0  0  0  0  0  0  0
  152.8550  129.0383  154.5279 C   0  0  0  0  0  0  0  0  0  0  0  0
  152.3352  129.9314  155.3545 N   0  0  0  0  0  0  0  0  0  0  0  0
  148.8808  131.2499  154.2618 C   0  0  0  0  0  0  0  0  0  0  0  0
  145.3134  128.1977  152.7984 H   0  0  0  0  0  0  0  0  0  0  0  0
  145.1365  128.5137  151.0746 H   0  0  0  0  0  0  0  0  0  0  0  0
  145.2877  129.8550  152.2011 H   0  0  0  0  0  0  0  0  0  0  0  0
  147.4032  129.4762  150.9865 H   0  0  0  0  0  0  0  0  0  0  0  0
  147.4201  126.6851  152.2425 H   0  0  0  0  0  0  0  0  0  0  0  0
  148.7086  127.3696  151.2547 H   0  0  0  0  0  0  0  0  0  0  0  0
  147.1374  127.0437  150.5421 H   0  0  0  0  0  0  0  0  0  0  0  0
  147.2332  129.1568  153.9727 H   0  0  0  0  0  0  0  0  0  0  0  0
  148.7667  128.7442  153.2529 H   0  0  0  0  0  0  0  0  0  0  0  0
  146.6225  131.3574  151.7380 H   0  0  0  0  0  0  0  0  0  0  0  0
  146.2816  131.5368  153.4484 H   0  0  0  0  0  0  0  0  0  0  0  0
  148.2014  133.2732  151.7902 H   0  0  0  0  0  0  0  0  0  0  0  0
  146.6463  133.7612  152.4369 H   0  0  0  0  0  0  0  0  0  0  0  0
  149.9958  132.8439  153.3090 H   0  0  0  0  0  0  0  0  0  0  0  0
  149.9323  134.3569  155.4297 H   0  0  0  0  0  0  0  0  0  0  0  0
  149.3296  132.9580  156.2810 H   0  0  0  0  0  0  0  0  0  0  0  0
  151.8940  132.7612  154.8219 H   0  0  0  0  0  0  0  0  0  0  0  0
  153.8612  132.5505  156.4606 H   0  0  0  0  0  0  0  0  0  0  0  0
  153.4835  131.4065  157.7378 H   0  0  0  0  0  0  0  0  0  0  0  0
  155.5284  130.6424  155.4890 H   0  0  0  0  0  0  0  0  0  0  0  0
  154.9499  128.5596  153.8229 H   0  0  0  0  0  0  0  0  0  0  0  0
  152.1949  128.3395  154.0354 H   0  0  0  0  0  0  0  0  0  0  0  0
  148.2119  131.1155  155.1137 H   0  0  0  0  0  0  0  0  0  0  0  0
  149.7686  130.6452  154.4517 H   0  0  0  0  0  0  0  0  0  0  0  0
  148.8865  130.8705  152.2839 H   0  0  0  0  0  0  0  0  0  0  0  0
  1  2  1  0  0  0  0
  1 21  1  0  0  0  0
  1 22  1  0  0  0  0
  1 23  1  0  0  0  0
  2  3  1  0  0  0  0
  2  4  1  0  0  0  0
  2 24  1  0  0  0  0
  3 25  1  0  0  0  0
  3 26  1  0  0  0  0
  3 27  1  0  0  0  0
  4  5  1  0  0  0  0
  4 28  1  0  0  0  0
  4 29  1  0  0  0  0
  5 20  1  0  0  0  0
  5  6  1  0  0  0  0
  5 45  1  0  0  0  0
  6  7  1  0  0  0  0
  6 30  1  0  0  0  0
  6 31  1  0  0  0  0
  7  8  1  0  0  0  0
  7 32  1  0  0  0  0
  7 33  1  0  0  0  0
  8  9  1  0  0  0  0
  9 10  1  0  0  0  0
  9 20  1  0  0  0  0
  9 34  1  0  0  0  0
 10 11  1  0  0  0  0
 10 35  1  0  0  0  0
 10 36  1  0  0  0  0
 11 12  1  0  0  0  0
 11 37  1  0  0  0  0
 12 13  2  0  0  0  0
 12 14  1  0  0  0  0
 14 15  1  0  0  0  0
 14 38  1  0  0  0  0
 14 39  1  0  0  0  0
 15 19  1  0  0  0  0
 15 16  1  0  0  0  0
 16 17  2  0  0  0  0
 16 40  1  0  0  0  0
 17 18  1  0  0  0  0
 17 41  1  0  0  0  0
 18 19  2  0  0  0  0
 18 42  1  0  0  0  0
 20 43  1  0  0  0  0
 20 44  1  0  0  0  0
M  CHG  1   5   1
M  END
> <s_m_source_file>
AV-unprocessed.smi

> <i_m_source_file_index>
1218

> <i_lp_mmshare_version>
43012

> <i_f3d_flags>
0

> <s_epik_input>
W0NIM11bQ0hdKFtDSDNdKVtDSDJdTjFbQ0gyXVtDSDJdT1tDQEhdKFtDSDJdMSlbQ0gyXVtOSF1DKD1PKVtDSDJdbjJbY0hdW2NIXVtjSF1uMg==

> <s_epik_cmdline>
J2VwaWtfcHl0aG9uJywgJy1waCcsICc3LjAnLCAnLXRuJywgJzgnLCAnLW1hJywgJzIwMCcsICctbWV0YWxfYmluZGluZycsICctaW1hZScsICc8aW5maWxlLm1hZT4nLCAnLW9tYWUnLCAnPG91dGZpbGUubWFlPic=

> <r_lp_tautomer_probability>
1

> <r_epik_Ionization_Penalty>
0.0995066

> <r_epik_Ionization_Penalty_Charging>
0.0994921

> <r_epik_Ionization_Penalty_Neutral>
1.44634e-05

> <r_epik_State_Penalty>
0.0895432

> <r_epik_Charging_Adjusted_Penalty>
0.189035

> <i_epik_Tot_Q>
1

> <i_epik_Tot_abs_Q>
1

> <r_epik_Metal_State_Penalty>
0.0895432

> <b_epik_Metal_Only>
0

> <s_lp_Force_Field>
OPLS_2005

> <r_lp_Energy>
18.9521

> <b_lp_Chiralities_Consistent>
1

> <s_lp_Variant>
AV-unprocessed.smi:1218-1

> <Gold.Version>
5.8.1

> <Gold.Id.Protein>
6NUR|6NUR_protein|mol2

> <Gold.PLP.Fitness>
44.5474

> <Gold.PLP.PLP>
-37.6453

> <Gold.PLP.part.hbond>
-2.0000

> <Gold.PLP.part.metal>
0.0000

> <Gold.PLP.part.buried>
-2.5229

> <Gold.PLP.part.nonpolar>
-32.6850

> <Gold.PLP.part.repulsive>
0.2396

> <Gold.PLP.ligand.clash>
0.0000

> <Gold.PLP.ligand.torsion>
0.9340

> <Gold.PLP.Chemscore.Hbond>
1.8800

> <Gold.PLP.Chemscore.CHOScore>
1.0000

> <Gold.PLP.Chemscore.Metal>
0.0000

> <Gold.Chemscore.Hbonds>
donor molecule, donor type, donor heavy atom, donor atom, acceptor molecule, acceptor atom, score
      L1  H     5    45       P1 10747  0.83
      P1  H  6896  6908       L1    13  1.00
      L1  C    18    42       P1 10737  0.98

> <Gold.PLP.Chemscore.Internal.Correction>
0.1301

> <Gold.Rescore>
     Score         DG    S(hbond)    S(metal)    S(lipo)     H(rot)  DE(clash)    DE(int)     intcor
     14.66     -16.59       1.75        0.00      87.89       1.96       0.01       1.92       ----

> <Gold.Chemscore.Fitness>
14.6638

> <Gold.Chemscore.DG>
-16.5912

> <Gold.Chemscore.ZeroCoef>
-5.4800

> <Gold.Chemscore.Hbond>
1.7519

> <Gold.Chemscore.Metal>
0.0000

> <Gold.Chemscore.Lipo>
87.8941

> <Gold.Chemscore.Internal_Hbond>
0.0000

> <Gold.Chemscore.DEClash>
0.0058

> <Gold.Chemscore.DEInternal>
1.9215

> <Gold.Chemscore.Rot>
1.9624

> <Gold.Chemscore.Internal.Correction>
   9.000000E+99

> <Gold.Chemscore.Hbonds>
donor molecule, donor type, donor heavy atom, donor atom, acceptor molecule, acceptor atom, score
      L1  H     5    45       P1 10747  0.44
      P1  H  6896  6908       L1    13  0.95

> <Gold.Chemscore.Hbond.Weighted>
-5.8513

> <Gold.Chemscore.Metal.Weighted>
-0.0000

> <Gold.Chemscore.Lipo.Weighted>
-10.2836

> <Gold.Chemscore.Internal_Hbond.Weighted>
0.0000

> <Gold.Chemscore.DEClash.Weighted>
0.0058

> <Gold.Chemscore.DEInternal.Weighted>
1.9215

> <Gold.Chemscore.Rot.Weighted>
5.0237

> <Gold.Chemscore.Internal.Correction.Weighted>
   9.000000E+99

> <Gold.Protein.RotatedTorsions>
[ 6907 6896 6895 6894 ] final   66.23 input  -60.11 | X-H torsion
[ 7974 7965 7964 7962 ] final -128.60 input  175.53 | X-H torsion
[ 8008 7997 7996 7995 ] final -136.51 input   59.86 | X-H torsion
[ 10167 10162 10161 10158 ] final -116.00 input  -65.29 | X-H torsion
[ 10718 10713 10712 10709 ] final -131.14 input   66.30 | X-H torsion
[ 10763 10752 10751 10750 ] final -110.32 input  -60.55 | X-H torsion
[ 11005 11000 10999 10996 ] final  163.24 input  -57.11 | X-H torsion

> <Gold.Protein.ActiveResidues>
 VAL166  LYS551  ARG553  GLY616  TRP617  ASP618  TYR619  PRO620  LYS621  CYS622 
 ASP623  PHE694  ASN695  SER759  ASP760  ASP761  ALA762  ILE779  LEU786  VAL792 
 PHE793  MET794  SER795  GLU796  ALA797  LYS798  CYS799  TRP800  GLU811  SER814 

> <Gold.Protein.RotatedAtoms>
  152.4466  134.5482  159.9858 H   0  0  0  0  0  0  0  0  0  0  0  0  # atno 6907 bound_to 6896
  151.5565  133.3403  159.2971 H   0  0  0  0  0  0  0  0  0  0  0  0  # atno 6908 bound_to 6896
  150.8384  134.7698  159.6975 H   0  0  0  0  0  0  0  0  0  0  0  0  # atno 6909 bound_to 6896
  144.9654  140.7491  143.4703 H   0  0  0  0  0  0  0  0  0  0  0  0  # atno 7974 bound_to 7965
  155.3965  140.0503  157.3038 H   0  0  0  0  0  0  0  0  0  0  0  0  # atno 8008 bound_to 7997
  154.5011  140.2157  155.9306 H   0  0  0  0  0  0  0  0  0  0  0  0  # atno 8009 bound_to 7997
  156.1468  140.3143  155.8589 H   0  0  0  0  0  0  0  0  0  0  0  0  # atno 8010 bound_to 7997
  140.0840  143.4762  152.1909 H   0  0  0  0  0  0  0  0  0  0  0  0  # atno 10167 bound_to 10162
  156.2214  130.6981  151.0760 H   0  0  0  0  0  0  0  0  0  0  0  0  # atno 10718 bound_to 10713
  154.8241  135.4568  154.0867 H   0  0  0  0  0  0  0  0  0  0  0  0  # atno 10763 bound_to 10752
  153.2195  135.6892  153.8023 H   0  0  0  0  0  0  0  0  0  0  0  0  # atno 10764 bound_to 10752
  153.7445  135.3307  155.3287 H   0  0  0  0  0  0  0  0  0  0  0  0  # atno 10765 bound_to 10752
  140.2338  134.8103  157.3344 H   0  0  0  0  0  0  0  0  0  0  0  0  # atno 11005 bound_to 11000
  145.2637  139.1982  143.4878 LP  0  0  0  0  0  0  0  0  0  0  0  0  # atno 17320 bound_to 7965
  146.3366  140.2571  142.8600 LP  0  0  0  0  0  0  0  0  0  0  0  0  # atno 17321 bound_to 7965
  139.5763  144.7489  151.3756 LP  0  0  0  0  0  0  0  0  0  0  0  0  # atno 17342 bound_to 10162
  140.7063  143.7505  150.7488 LP  0  0  0  0  0  0  0  0  0  0  0  0  # atno 17343 bound_to 10162
  157.7089  131.0743  150.6570 LP  0  0  0  0  0  0  0  0  0  0  0  0  # atno 17370 bound_to 10713
  156.6633  130.4518  149.5680 LP  0  0  0  0  0  0  0  0  0  0  0  0  # atno 17371 bound_to 10713
  140.1723  134.4593  155.7824 LP  0  0  0  0  0  0  0  0  0  0  0  0  # atno 17394 bound_to 11000
  141.2216  133.6947  156.7728 LP  0  0  0  0  0  0  0  0  0  0  0  0  # atno 17395 bound_to 11000

$$$$
