AV-unprocessed.smi:2658|AV-procd|sdf|10310|dock5
  -GOLD-   2272014323D 1   1.00000     0.00000
 Structure written by MMmdl.
 47 49  0  0  0  0  0  0  0  0  2 V2000
  152.1743  144.9405  160.3163 C   0  0  0  0  0  0  0  0  0  0  0  0
  151.9593  143.7179  159.4401 C   0  0  0  0  0  0  0  0  0  0  0  0
  151.1605  143.8501  158.2820 C   0  0  0  0  0  0  0  0  0  0  0  0
  150.9755  142.7122  157.5056 C   0  0  0  0  0  0  0  0  0  0  0  0
  150.2501  142.5169  156.3283 N   0  3  0  0  0  0  0  0  0  0  0  0
  150.3604  141.2175  155.9370 C   0  0  0  0  0  0  0  0  0  0  0  0
  151.1463  140.5797  156.8462 N   0  0  0  0  0  0  0  0  0  0  0  0
  151.5696  139.1731  156.8959 C   0  0  0  0  0  0  0  0  0  0  0  0
  151.1377  138.4683  158.1984 C   0  0  2  0  0  0  0  0  0  0  0  0
  152.2456  138.1442  159.0140 O   0  0  0  0  0  0  0  0  0  0  0  0
  150.2984  137.2016  157.9664 C   0  0  0  0  0  0  0  0  0  0  0  0
  150.1393  136.4948  159.1940 O   0  0  0  0  0  0  0  0  0  0  0  0
  148.9493  136.6255  159.8794 C   0  0  0  0  0  0  0  0  0  0  0  0
  148.6677  135.7297  160.9280 C   0  0  0  0  0  0  0  0  0  0  0  0
  147.4481  135.8837  161.6134 C   0  0  0  0  0  0  0  0  0  0  0  0
  147.0746  134.9527  162.7516 C   0  0  0  0  0  0  0  0  0  0  0  0
  146.6020  136.9347  161.1937 C   0  0  0  0  0  0  0  0  0  0  0  0
  145.2673  137.2003  161.8647 C   0  0  0  0  0  0  0  0  0  0  0  0
  146.9281  137.7645  160.1752 N   0  0  0  0  0  0  0  0  0  0  0  0
  148.0861  137.6120  159.5244 N   0  0  0  0  0  0  0  0  0  0  0  0
  151.5556  141.4739  157.8430 C   0  0  0  0  0  0  0  0  0  0  0  0
  152.3492  141.3280  158.9785 C   0  0  0  0  0  0  0  0  0  0  0  0
  152.5469  142.4728  159.7833 C   0  0  0  0  0  0  0  0  0  0  0  0
  153.4035  142.3417  161.0311 C   0  0  0  0  0  0  0  0  0  0  0  0
  151.6597  145.8142  159.9154 H   0  0  0  0  0  0  0  0  0  0  0  0
  153.2352  145.1811  160.3860 H   0  0  0  0  0  0  0  0  0  0  0  0
  151.7928  144.7618  161.3219 H   0  0  0  0  0  0  0  0  0  0  0  0
  150.7095  144.7946  158.0151 H   0  0  0  0  0  0  0  0  0  0  0  0
  149.9037  140.7724  155.0646 H   0  0  0  0  0  0  0  0  0  0  0  0
  151.1171  138.6721  156.0392 H   0  0  0  0  0  0  0  0  0  0  0  0
  152.6480  139.1197  156.7449 H   0  0  0  0  0  0  0  0  0  0  0  0
  150.5316  139.1639  158.7799 H   0  0  0  0  0  0  0  0  0  0  0  0
  152.1858  137.2310  159.2498 H   0  0  0  0  0  0  0  0  0  0  0  0
  149.3325  137.4617  157.5293 H   0  0  0  0  0  0  0  0  0  0  0  0
  150.8190  136.5599  157.2533 H   0  0  0  0  0  0  0  0  0  0  0  0
  149.3677  134.9510  161.1931 H   0  0  0  0  0  0  0  0  0  0  0  0
  146.1330  134.4471  162.5369 H   0  0  0  0  0  0  0  0  0  0  0  0
  146.9635  135.5114  163.6811 H   0  0  0  0  0  0  0  0  0  0  0  0
  147.8390  134.1903  162.9048 H   0  0  0  0  0  0  0  0  0  0  0  0
  145.4061  137.3758  162.9317 H   0  0  0  0  0  0  0  0  0  0  0  0
  144.6020  136.3462  161.7376 H   0  0  0  0  0  0  0  0  0  0  0  0
  144.7752  138.0772  161.4419 H   0  0  0  0  0  0  0  0  0  0  0  0
  152.7929  140.3800  159.2438 H   0  0  0  0  0  0  0  0  0  0  0  0
  153.7792  141.3252  161.1524 H   0  0  0  0  0  0  0  0  0  0  0  0
  152.8249  142.5910  161.9209 H   0  0  0  0  0  0  0  0  0  0  0  0
  154.2631  143.0101  160.9777 H   0  0  0  0  0  0  0  0  0  0  0  0
  149.7153  143.2162  155.8290 H   0  0  0  0  0  0  0  0  0  0  0  0
  1  2  1  0  0  0  0
  1 25  1  0  0  0  0
  1 26  1  0  0  0  0
  1 27  1  0  0  0  0
  2 23  1  0  0  0  0
  2  3  2  0  0  0  0
  3  4  1  0  0  0  0
  3 28  1  0  0  0  0
  4 21  2  0  0  0  0
  4  5  1  0  0  0  0
  5  6  2  0  0  0  0
  5 47  1  0  0  0  0
  6  7  1  0  0  0  0
  6 29  1  0  0  0  0
  7  8  1  0  0  0  0
  7 21  1  0  0  0  0
  8  9  1  0  0  0  0
  8 30  1  0  0  0  0
  8 31  1  0  0  0  0
  9 10  1  0  0  0  0
  9 11  1  0  0  0  0
  9 32  1  0  0  0  0
 10 33  1  0  0  0  0
 11 12  1  0  0  0  0
 11 34  1  0  0  0  0
 11 35  1  0  0  0  0
 12 13  1  0  0  0  0
 13 20  1  0  0  0  0
 13 14  2  0  0  0  0
 14 15  1  0  0  0  0
 14 36  1  0  0  0  0
 15 16  1  0  0  0  0
 15 17  2  0  0  0  0
 16 37  1  0  0  0  0
 16 38  1  0  0  0  0
 16 39  1  0  0  0  0
 17 18  1  0  0  0  0
 17 19  1  0  0  0  0
 18 40  1  0  0  0  0
 18 41  1  0  0  0  0
 18 42  1  0  0  0  0
 19 20  2  0  0  0  0
 21 22  1  0  0  0  0
 22 23  2  0  0  0  0
 22 43  1  0  0  0  0
 23 24  1  0  0  0  0
 24 44  1  0  0  0  0
 24 45  1  0  0  0  0
 24 46  1  0  0  0  0
M  CHG  1   5   1
M  END
> <s_m_source_file>
AV-unprocessed.smi

> <i_m_source_file_index>
2658

> <i_lp_mmshare_version>
43012

> <i_f3d_flags>
0

> <s_epik_input>
W0NIM11jKFtjSF0xKWMoW0NIM10pW2NIXWMoYzEyKW4oW2NIXW4yKVtDSDJdW0NASF0oW09IXSlbQ0gyXU9jM1tjSF1jKFtDSDNdKWMoW0NIM10pbm4z

> <s_epik_cmdline>
J2VwaWtfcHl0aG9uJywgJy1waCcsICc3LjAnLCAnLXRuJywgJzgnLCAnLW1hJywgJzIwMCcsICctbWV0YWxfYmluZGluZycsICctaW1hZScsICc8aW5maWxlLm1hZT4nLCAnLW9tYWUnLCAnPG91dGZpbGUubWFlPic=

> <r_lp_tautomer_probability>
1

> <r_epik_Ionization_Penalty>
1.0494

> <r_epik_Ionization_Penalty_Charging>
1.04926

> <r_epik_Ionization_Penalty_Neutral>
0.000140304

> <r_epik_State_Penalty>
1.10197

> <r_epik_Charging_Adjusted_Penalty>
2.15123

> <i_epik_Tot_Q>
1

> <i_epik_Tot_abs_Q>
1

> <r_epik_Metal_State_Penalty>
1.19636

> <b_epik_Metal_Only>
0

> <s_lp_Force_Field>
OPLS_2005

> <r_lp_Energy>
21.5781

> <b_lp_Chiralities_Consistent>
1

> <s_lp_Variant>
AV-unprocessed.smi:2658-3

> <Gold.Version>
5.8.1

> <Gold.Id.Protein>
6NUR|6NUR_protein|mol2

> <Gold.PLP.Fitness>
58.9788

> <Gold.PLP.PLP>
-49.4623

> <Gold.PLP.part.hbond>
-3.9958

> <Gold.PLP.part.metal>
0.0000

> <Gold.PLP.part.buried>
-6.9011

> <Gold.PLP.part.nonpolar>
-38.8576

> <Gold.PLP.part.repulsive>
0.0897

> <Gold.PLP.ligand.clash>
0.0000

> <Gold.PLP.ligand.torsion>
1.2587

> <Gold.PLP.Chemscore.Hbond>
4.0000

> <Gold.PLP.Chemscore.CHOScore>
0.0000

> <Gold.PLP.Chemscore.Metal>
0.0000

> <Gold.Chemscore.Hbonds>
donor molecule, donor type, donor heavy atom, donor atom, acceptor molecule, acceptor atom, score
      L1  H     5    47       P1  8028  2.00
      P1  H  6896  6908       L1    12  1.00
      P1  H  6934  6947       L1    19  0.88

> <Gold.PLP.Chemscore.Internal.Correction>
0.0339

> <Gold.Rescore>
     Score         DG    S(hbond)    S(metal)    S(lipo)     H(rot)  DE(clash)    DE(int)     intcor
     18.78     -20.08       1.85        0.00     125.86       2.47       0.06       1.24       ----

> <Gold.Chemscore.Fitness>
18.7821

> <Gold.Chemscore.DG>
-20.0763

> <Gold.Chemscore.ZeroCoef>
-5.4800

> <Gold.Chemscore.Hbond>
1.8535

> <Gold.Chemscore.Metal>
0.0000

> <Gold.Chemscore.Lipo>
125.8556

> <Gold.Chemscore.Internal_Hbond>
0.0000

> <Gold.Chemscore.DEClash>
0.0585

> <Gold.Chemscore.DEInternal>
1.2356

> <Gold.Chemscore.Rot>
2.4685

> <Gold.Chemscore.Internal.Correction>
   9.000000E+99

> <Gold.Chemscore.Hbonds>
donor molecule, donor type, donor heavy atom, donor atom, acceptor molecule, acceptor atom, score
      L1  H     5    47       P1  8028  0.98
      P1  H  6896  6908       L1    12  0.55
      P1  H  6934  6947       L1    19  0.08

> <Gold.Chemscore.Hbond.Weighted>
-6.1905

> <Gold.Chemscore.Metal.Weighted>
-0.0000

> <Gold.Chemscore.Lipo.Weighted>
-14.7251

> <Gold.Chemscore.Internal_Hbond.Weighted>
0.0000

> <Gold.Chemscore.DEClash.Weighted>
0.0585

> <Gold.Chemscore.DEInternal.Weighted>
1.2356

> <Gold.Chemscore.Rot.Weighted>
6.3194

> <Gold.Chemscore.Internal.Correction.Weighted>
   9.000000E+99

> <Gold.Protein.RotatedTorsions>
[ 6907 6896 6895 6894 ] final -172.57 input  -60.11 | X-H torsion
[ 7974 7965 7964 7962 ] final -166.34 input  175.53 | X-H torsion
[ 8008 7997 7996 7995 ] final  -55.00 input   59.86 | X-H torsion
[ 10167 10162 10161 10158 ] final  126.18 input  -65.29 | X-H torsion
[ 10718 10713 10712 10709 ] final   77.41 input   66.30 | X-H torsion
[ 10763 10752 10751 10750 ] final -158.25 input  -60.55 | X-H torsion
[ 11005 11000 10999 10996 ] final -111.39 input  -57.11 | X-H torsion

> <Gold.Protein.ActiveResidues>
 VAL166  LYS551  ARG553  GLY616  TRP617  ASP618  TYR619  PRO620  LYS621  CYS622 
 ASP623  PHE694  ASN695  SER759  ASP760  ASP761  ALA762  ILE779  LEU786  VAL792 
 PHE793  MET794  SER795  GLU796  ALA797  LYS798  CYS799  TRP800  GLU811  SER814 

> <Gold.Protein.RotatedAtoms>
  151.5421  133.3431  159.2937 H   0  0  0  0  0  0  0  0  0  0  0  0  # atno 6907 bound_to 6896
  150.8529  134.7862  159.7034 H   0  0  0  0  0  0  0  0  0  0  0  0  # atno 6908 bound_to 6896
  152.4571  134.5276  159.9853 H   0  0  0  0  0  0  0  0  0  0  0  0  # atno 6909 bound_to 6896
  144.7248  140.2681  143.6255 H   0  0  0  0  0  0  0  0  0  0  0  0  # atno 7974 bound_to 7965
  154.4180  140.1163  156.5405 H   0  0  0  0  0  0  0  0  0  0  0  0  # atno 8008 bound_to 7997
  155.6512  140.3496  155.4730 H   0  0  0  0  0  0  0  0  0  0  0  0  # atno 8009 bound_to 7997
  155.9790  140.1156  157.0733 H   0  0  0  0  0  0  0  0  0  0  0  0  # atno 8010 bound_to 7997
  139.5645  144.6903  151.3949 H   0  0  0  0  0  0  0  0  0  0  0  0  # atno 10167 bound_to 10162
  157.6709  130.9820  150.1637 H   0  0  0  0  0  0  0  0  0  0  0  0  # atno 10718 bound_to 10713
  154.7572  135.3108  154.8448 H   0  0  0  0  0  0  0  0  0  0  0  0  # atno 10763 bound_to 10752
  153.9219  135.6794  153.4751 H   0  0  0  0  0  0  0  0  0  0  0  0  # atno 10764 bound_to 10752
  153.1170  135.4840  154.9062 H   0  0  0  0  0  0  0  0  0  0  0  0  # atno 10765 bound_to 10752
  141.0737  133.9337  157.2434 H   0  0  0  0  0  0  0  0  0  0  0  0  # atno 11005 bound_to 11000
  145.8069  139.1987  143.2015 LP  0  0  0  0  0  0  0  0  0  0  0  0  # atno 17320 bound_to 7965
  146.0629  140.7952  142.9726 LP  0  0  0  0  0  0  0  0  0  0  0  0  # atno 17321 bound_to 7965
  140.6927  143.7822  150.7280 LP  0  0  0  0  0  0  0  0  0  0  0  0  # atno 17342 bound_to 10162
  140.1309  143.4526  152.2255 LP  0  0  0  0  0  0  0  0  0  0  0  0  # atno 17343 bound_to 10162
  156.2407  130.3690  149.8340 LP  0  0  0  0  0  0  0  0  0  0  0  0  # atno 17370 bound_to 10713
  156.6141  130.8599  151.3461 LP  0  0  0  0  0  0  0  0  0  0  0  0  # atno 17371 bound_to 10713
  139.9549  135.0167  156.9100 LP  0  0  0  0  0  0  0  0  0  0  0  0  # atno 17394 bound_to 11000
  140.5619  134.0526  155.7402 LP  0  0  0  0  0  0  0  0  0  0  0  0  # atno 17395 bound_to 11000

$$$$
