AV-unprocessed.smi:3300|AV-procd|sdf|12651|dock2
  -GOLD-   2272018583D 1   1.00000     0.00000
 Structure written by MMmdl.
 36 37  0  0  0  0  0  0  0  0  1 V2000
  149.7388  134.5126  154.7317 C   0  0  0  0  0  0  0  0  0  0  0  0
  150.6289  135.3198  155.6838 C   0  0  0  0  0  0  0  0  0  0  0  0
  150.7312  136.7784  155.2783 C   0  0  0  0  0  0  0  0  0  0  0  0
  151.9627  137.2343  154.9570 N   0  0  0  0  0  0  0  0  0  0  0  0
  152.0539  138.5157  154.5939 C   0  0  0  0  0  0  0  0  0  0  0  0
  151.0533  139.3958  154.5117 N   0  0  0  0  0  0  0  0  0  0  0  0
  149.8087  138.9524  154.8170 C   0  0  0  0  0  0  0  0  0  0  0  0
  148.7272  139.8518  154.7613 N   0  0  0  0  0  0  0  0  0  0  0  0
  149.1370  141.1343  155.3246 C   0  0  0  0  0  0  0  0  0  0  0  0
  147.9427  142.0914  155.4202 C   0  0  0  0  0  0  0  0  0  0  0  0
  147.3717  142.2405  154.1285 O   0  0  0  0  0  0  0  0  0  0  0  0
  146.8677  141.0065  153.6324 C   0  0  0  0  0  0  0  0  0  0  0  0
  148.0031  139.9635  153.4858 C   0  0  2  0  0  0  0  0  0  0  0  0
  147.4340  138.5981  153.0178 C   0  0  0  0  0  0  0  0  0  0  0  0
  146.5163  138.6918  151.7880 C   0  0  0  0  0  0  0  0  0  0  0  0
  146.6332  137.5172  151.0141 O   0  0  0  0  0  0  0  0  0  0  0  0
  149.5957  137.6157  155.2242 C   0  0  0  0  0  0  0  0  0  0  0  0
  148.3592  137.1582  155.5397 F   0  0  0  0  0  0  0  0  0  0  0  0
  149.6810  133.4699  155.0444 H   0  0  0  0  0  0  0  0  0  0  0  0
  150.1287  134.5335  153.7137 H   0  0  0  0  0  0  0  0  0  0  0  0
  148.7243  134.9117  154.7105 H   0  0  0  0  0  0  0  0  0  0  0  0
  150.2427  135.2488  156.7009 H   0  0  0  0  0  0  0  0  0  0  0  0
  151.6297  134.8869  155.7079 H   0  0  0  0  0  0  0  0  0  0  0  0
  153.0394  138.8787  154.3423 H   0  0  0  0  0  0  0  0  0  0  0  0
  149.5686  140.9910  156.3163 H   0  0  0  0  0  0  0  0  0  0  0  0
  149.9141  141.5732  154.6967 H   0  0  0  0  0  0  0  0  0  0  0  0
  147.1973  141.7225  156.1270 H   0  0  0  0  0  0  0  0  0  0  0  0
  148.2701  143.0671  155.7795 H   0  0  0  0  0  0  0  0  0  0  0  0
  146.0804  140.6382  154.2924 H   0  0  0  0  0  0  0  0  0  0  0  0
  146.4025  141.2088  152.6684 H   0  0  0  0  0  0  0  0  0  0  0  0
  148.7033  140.3301  152.7338 H   0  0  0  0  0  0  0  0  0  0  0  0
  148.2454  137.9166  152.7633 H   0  0  0  0  0  0  0  0  0  0  0  0
  146.8976  138.1253  153.8418 H   0  0  0  0  0  0  0  0  0  0  0  0
  145.4720  138.8097  152.0755 H   0  0  0  0  0  0  0  0  0  0  0  0
  146.7875  139.5493  151.1713 H   0  0  0  0  0  0  0  0  0  0  0  0
  146.9859  136.8307  151.5595 H   0  0  0  0  0  0  0  0  0  0  0  0
  1  2  1  0  0  0  0
  1 19  1  0  0  0  0
  1 20  1  0  0  0  0
  1 21  1  0  0  0  0
  2  3  1  0  0  0  0
  2 22  1  0  0  0  0
  2 23  1  0  0  0  0
  3 17  1  0  0  0  0
  3  4  2  0  0  0  0
  4  5  1  0  0  0  0
  5  6  2  0  0  0  0
  5 24  1  0  0  0  0
  6  7  1  0  0  0  0
  7  8  1  0  0  0  0
  7 17  2  0  0  0  0
  8 13  1  0  0  0  0
  8  9  1  0  0  0  0
  9 10  1  0  0  0  0
  9 25  1  0  0  0  0
  9 26  1  0  0  0  0
 10 11  1  0  0  0  0
 10 27  1  0  0  0  0
 10 28  1  0  0  0  0
 11 12  1  0  0  0  0
 12 13  1  0  0  0  0
 12 29  1  0  0  0  0
 12 30  1  0  0  0  0
 13 14  1  0  0  0  0
 13 31  1  0  0  0  0
 14 15  1  0  0  0  0
 14 32  1  0  0  0  0
 14 33  1  0  0  0  0
 15 16  1  0  0  0  0
 15 34  1  0  0  0  0
 15 35  1  0  0  0  0
 16 36  1  0  0  0  0
 17 18  1  0  0  0  0
M  END
> <s_m_source_file>
AV-unprocessed.smi

> <i_m_source_file_index>
3300

> <i_lp_mmshare_version>
43012

> <i_f3d_flags>
0

> <s_epik_input>
W0NIM11bQ0gyXWMxbltjSF1uYyhjMUYpTjJbQ0gyXVtDSDJdT1tDSDJdW0NASF0yW0NIMl1bQ0gyXVtPSF0=

> <s_epik_cmdline>
J2VwaWtfcHl0aG9uJywgJy1waCcsICc3LjAnLCAnLXRuJywgJzgnLCAnLW1hJywgJzIwMCcsICctbWV0YWxfYmluZGluZycsICctaW1hZScsICc8aW5maWxlLm1hZT4nLCAnLW9tYWUnLCAnPG91dGZpbGUubWFlPic=

> <r_lp_tautomer_probability>
1

> <r_epik_Ionization_Penalty>
2.51351e-05

> <r_epik_Ionization_Penalty_Charging>
0

> <r_epik_Ionization_Penalty_Neutral>
2.51351e-05

> <r_epik_State_Penalty>
-0

> <r_epik_Charging_Adjusted_Penalty>
0

> <i_epik_Tot_Q>
0

> <i_epik_Tot_abs_Q>
0

> <r_epik_Metal_State_Penalty>
-0

> <b_epik_Metal_Only>
0

> <s_lp_Force_Field>
OPLS_2005

> <r_lp_Energy>
16.3992

> <b_lp_Chiralities_Consistent>
1

> <s_lp_Variant>
AV-unprocessed.smi:3300-2

> <Gold.Version>
5.8.1

> <Gold.Id.Protein>
6NUR|6NUR_protein|mol2

> <Gold.PLP.Fitness>
36.9414

> <Gold.PLP.PLP>
-27.9187

> <Gold.PLP.part.hbond>
-4.4442

> <Gold.PLP.part.metal>
0.0000

> <Gold.PLP.part.buried>
1.3644

> <Gold.PLP.part.nonpolar>
-26.9523

> <Gold.PLP.part.repulsive>
0.4623

> <Gold.PLP.ligand.clash>
0.0000

> <Gold.PLP.ligand.torsion>
0.8655

> <Gold.PLP.Chemscore.Hbond>
3.5360

> <Gold.PLP.Chemscore.CHOScore>
0.0000

> <Gold.PLP.Chemscore.Metal>
0.0000

> <Gold.Chemscore.Hbonds>
donor molecule, donor type, donor heavy atom, donor atom, acceptor molecule, acceptor atom, score
      L1  H    16    36       P1  7948  0.57
      P1  H  7954  7966       L1    16  1.00
      P1  H  7989  7998       L1     6  1.00
      P1  H 10752 10765       L1     4  0.93

> <Gold.PLP.Chemscore.Internal.Correction>
0.1458

> <Gold.Rescore>
     Score         DG    S(hbond)    S(metal)    S(lipo)     H(rot)  DE(clash)    DE(int)     intcor
     12.16     -16.35       2.84        0.00      63.18       2.35       3.43       0.76       ----

> <Gold.Chemscore.Fitness>
12.1613

> <Gold.Chemscore.DG>
-16.3493

> <Gold.Chemscore.ZeroCoef>
-5.4800

> <Gold.Chemscore.Hbond>
2.8392

> <Gold.Chemscore.Metal>
0.0000

> <Gold.Chemscore.Lipo>
63.1756

> <Gold.Chemscore.Internal_Hbond>
0.0000

> <Gold.Chemscore.DEClash>
3.4306

> <Gold.Chemscore.DEInternal>
0.7573

> <Gold.Chemscore.Rot>
2.3458

> <Gold.Chemscore.Internal.Correction>
   9.000000E+99

> <Gold.Chemscore.Hbonds>
donor molecule, donor type, donor heavy atom, donor atom, acceptor molecule, acceptor atom, score
      L1  H    16    36       P1  7948  0.53
      P1  H  7954  7966       L1    16  0.11
      P1  H  7989  7998       L1     6  0.65
      P1  H 10752 10765       L1     4  0.41

> <Gold.Chemscore.Hbond.Weighted>
-9.4829

> <Gold.Chemscore.Metal.Weighted>
-0.0000

> <Gold.Chemscore.Lipo.Weighted>
-7.3915

> <Gold.Chemscore.Internal_Hbond.Weighted>
0.0000

> <Gold.Chemscore.DEClash.Weighted>
3.4306

> <Gold.Chemscore.DEInternal.Weighted>
0.7573

> <Gold.Chemscore.Rot.Weighted>
6.0051

> <Gold.Chemscore.Internal.Correction.Weighted>
   9.000000E+99

> <Gold.Protein.RotatedTorsions>
[ 6907 6896 6895 6894 ] final   78.06 input  -60.11 | X-H torsion
[ 7974 7965 7964 7962 ] final  157.27 input  175.53 | X-H torsion
[ 8008 7997 7996 7995 ] final -133.83 input   59.86 | X-H torsion
[ 10167 10162 10161 10158 ] final   43.96 input  -65.29 | X-H torsion
[ 10718 10713 10712 10709 ] final  159.34 input   66.30 | X-H torsion
[ 10763 10752 10751 10750 ] final  178.36 input  -60.55 | X-H torsion
[ 11005 11000 10999 10996 ] final -159.52 input  -57.11 | X-H torsion

> <Gold.Protein.ActiveResidues>
 VAL166  LYS551  ARG553  GLY616  TRP617  ASP618  TYR619  PRO620  LYS621  CYS622 
 ASP623  PHE694  ASN695  SER759  ASP760  ASP761  ALA762  ILE779  LEU786  VAL792 
 PHE793  MET794  SER795  GLU796  ALA797  LYS798  CYS799  TRP800  GLU811  SER814 

> <Gold.Protein.RotatedAtoms>
  152.5144  134.3722  159.9321 H   0  0  0  0  0  0  0  0  0  0  0  0  # atno 6907 bound_to 6896
  151.3677  133.3860  159.2704 H   0  0  0  0  0  0  0  0  0  0  0  0  # atno 6908 bound_to 6896
  150.9602  134.9010  159.7784 H   0  0  0  0  0  0  0  0  0  0  0  0  # atno 6909 bound_to 6896
  144.7913  139.7317  143.6220 H   0  0  0  0  0  0  0  0  0  0  0  0  # atno 7974 bound_to 7965
  155.3520  140.0478  157.3046 H   0  0  0  0  0  0  0  0  0  0  0  0  # atno 8008 bound_to 7997
  154.5222  140.2229  155.8919 H   0  0  0  0  0  0  0  0  0  0  0  0  # atno 8009 bound_to 7997
  156.1701  140.3097  155.8965 H   0  0  0  0  0  0  0  0  0  0  0  0  # atno 8010 bound_to 7997
  140.3392  144.2492  150.6158 H   0  0  0  0  0  0  0  0  0  0  0  0  # atno 10167 bound_to 10162
  157.1656  131.0597  151.2210 H   0  0  0  0  0  0  0  0  0  0  0  0  # atno 10718 bound_to 10713
  154.5066  135.2786  155.1377 H   0  0  0  0  0  0  0  0  0  0  0  0  # atno 10763 bound_to 10752
  154.2989  135.6252  153.5420 H   0  0  0  0  0  0  0  0  0  0  0  0  # atno 10764 bound_to 10752
  152.9911  135.5692  154.5522 H   0  0  0  0  0  0  0  0  0  0  0  0  # atno 10765 bound_to 10752
  140.6417  134.4544  157.5233 H   0  0  0  0  0  0  0  0  0  0  0  0  # atno 11005 bound_to 11000
  146.2166  139.5560  142.9646 LP  0  0  0  0  0  0  0  0  0  0  0  0  # atno 17320 bound_to 7965
  145.5787  141.0385  143.2134 LP  0  0  0  0  0  0  0  0  0  0  0  0  # atno 17321 bound_to 7965
  140.5325  143.2240  151.8215 LP  0  0  0  0  0  0  0  0  0  0  0  0  # atno 17342 bound_to 10162
  139.4843  144.4702  151.9434 LP  0  0  0  0  0  0  0  0  0  0  0  0  # atno 17343 bound_to 10162
  157.4092  130.7375  149.6825 LP  0  0  0  0  0  0  0  0  0  0  0  0  # atno 17370 bound_to 10713
  155.9746  130.4100  150.3907 LP  0  0  0  0  0  0  0  0  0  0  0  0  # atno 17371 bound_to 10713
  139.9078  134.8411  156.1641 LP  0  0  0  0  0  0  0  0  0  0  0  0  # atno 17394 bound_to 11000
  141.0602  133.6845  156.1937 LP  0  0  0  0  0  0  0  0  0  0  0  0  # atno 17395 bound_to 11000

$$$$
