AV-unprocessed.smi:2442|AV-procd|sdf|9625|dock2
  -GOLD-   2272013253D 1   1.00000     0.00000
 Structure written by MMmdl.
 46 47  0  0  0  0  0  0  0  0  1 V2000
  148.7476  132.2848  153.0728 C   0  0  0  0  0  0  0  0  0  0  0  0
  147.7989  132.8551  152.1853 O   0  0  0  0  0  0  0  0  0  0  0  0
  146.4761  132.9328  152.7094 C   0  0  2  0  0  0  0  0  0  0  0  0
  145.7919  131.5497  152.6690 C   0  0  0  0  0  0  0  0  0  0  0  0
  145.5821  131.0592  151.2270 C   0  0  0  0  0  0  0  0  0  0  0  0
  144.7883  132.0831  150.4014 C   0  0  0  0  0  0  0  0  0  0  0  0
  145.4612  133.4646  150.4289 C   0  0  0  0  0  0  0  0  0  0  0  0
  145.6760  133.9599  151.8729 C   0  0  2  0  0  0  0  0  0  0  0  0
  146.3409  135.2606  151.8589 N   0  0  0  0  0  0  0  0  0  0  0  0
  145.7602  136.4301  152.1606 C   0  0  0  0  0  0  0  0  0  0  0  0
  144.5734  136.5556  152.4631 O   0  0  0  0  0  0  0  0  0  0  0  0
  146.6310  137.4456  152.1061 N   0  0  0  0  0  0  0  0  0  0  0  0
  146.3011  138.8272  152.4263 C   0  0  0  0  0  0  0  0  0  0  0  0
  146.3977  139.0677  153.9392 C   0  0  0  0  0  0  0  0  0  0  0  0
  147.7781  139.5489  154.3582 C   0  0  0  0  0  0  0  0  0  0  0  0
  148.8564  138.6394  154.3639 C   0  0  0  0  0  0  0  0  0  0  0  0
  150.1302  139.0997  154.7501 C   0  0  0  0  0  0  0  0  0  0  0  0
  150.3769  140.3739  155.1182 N   0  0  0  0  0  0  0  0  0  0  0  0
  149.3442  141.2429  155.1103 C   0  0  0  0  0  0  0  0  0  0  0  0
  148.0280  140.8905  154.7402 C   0  0  0  0  0  0  0  0  0  0  0  0
  146.9330  141.9421  154.7607 C   0  0  0  0  0  0  0  0  0  0  0  0
  149.7287  132.2786  152.5983 H   0  0  0  0  0  0  0  0  0  0  0  0
  148.4977  131.2561  153.3307 H   0  0  0  0  0  0  0  0  0  0  0  0
  148.8260  132.8675  153.9915 H   0  0  0  0  0  0  0  0  0  0  0  0
  146.5137  133.2811  153.7433 H   0  0  0  0  0  0  0  0  0  0  0  0
  146.3645  130.8144  153.2330 H   0  0  0  0  0  0  0  0  0  0  0  0
  144.8235  131.6174  153.1662 H   0  0  0  0  0  0  0  0  0  0  0  0
  146.5497  130.8795  150.7565 H   0  0  0  0  0  0  0  0  0  0  0  0
  145.0603  130.1019  151.2323 H   0  0  0  0  0  0  0  0  0  0  0  0
  144.6931  131.7365  149.3720 H   0  0  0  0  0  0  0  0  0  0  0  0
  143.7743  132.1629  150.7954 H   0  0  0  0  0  0  0  0  0  0  0  0
  146.4181  133.4106  149.9074 H   0  0  0  0  0  0  0  0  0  0  0  0
  144.8498  134.1790  149.8762 H   0  0  0  0  0  0  0  0  0  0  0  0
  144.6920  134.0849  152.3293 H   0  0  0  0  0  0  0  0  0  0  0  0
  147.3234  135.2631  151.6281 H   0  0  0  0  0  0  0  0  0  0  0  0
  147.5861  137.2473  151.8462 H   0  0  0  0  0  0  0  0  0  0  0  0
  146.9812  139.4943  151.8944 H   0  0  0  0  0  0  0  0  0  0  0  0
  145.2924  139.0488  152.0743 H   0  0  0  0  0  0  0  0  0  0  0  0
  145.6401  139.7833  154.2590 H   0  0  0  0  0  0  0  0  0  0  0  0
  146.1734  138.1427  154.4724 H   0  0  0  0  0  0  0  0  0  0  0  0
  148.7142  137.6082  154.0765 H   0  0  0  0  0  0  0  0  0  0  0  0
  150.9741  138.4258  154.7635 H   0  0  0  0  0  0  0  0  0  0  0  0
  149.5793  142.2538  155.4095 H   0  0  0  0  0  0  0  0  0  0  0  0
  147.3399  142.9317  154.9700 H   0  0  0  0  0  0  0  0  0  0  0  0
  146.1978  141.7118  155.5320 H   0  0  0  0  0  0  0  0  0  0  0  0
  146.4236  141.9888  153.7983 H   0  0  0  0  0  0  0  0  0  0  0  0
  1  2  1  0  0  0  0
  1 22  1  0  0  0  0
  1 23  1  0  0  0  0
  1 24  1  0  0  0  0
  2  3  1  0  0  0  0
  3  8  1  0  0  0  0
  3  4  1  0  0  0  0
  3 25  1  0  0  0  0
  4  5  1  0  0  0  0
  4 26  1  0  0  0  0
  4 27  1  0  0  0  0
  5  6  1  0  0  0  0
  5 28  1  0  0  0  0
  5 29  1  0  0  0  0
  6  7  1  0  0  0  0
  6 30  1  0  0  0  0
  6 31  1  0  0  0  0
  7  8  1  0  0  0  0
  7 32  1  0  0  0  0
  7 33  1  0  0  0  0
  8  9  1  0  0  0  0
  8 34  1  0  0  0  0
  9 10  1  0  0  0  0
  9 35  1  0  0  0  0
 10 11  2  0  0  0  0
 10 12  1  0  0  0  0
 12 13  1  0  0  0  0
 12 36  1  0  0  0  0
 13 14  1  0  0  0  0
 13 37  1  0  0  0  0
 13 38  1  0  0  0  0
 14 15  1  0  0  0  0
 14 39  1  0  0  0  0
 14 40  1  0  0  0  0
 15 20  1  0  0  0  0
 15 16  2  0  0  0  0
 16 17  1  0  0  0  0
 16 41  1  0  0  0  0
 17 18  2  0  0  0  0
 17 42  1  0  0  0  0
 18 19  1  0  0  0  0
 19 20  2  0  0  0  0
 19 43  1  0  0  0  0
 20 21  1  0  0  0  0
 21 44  1  0  0  0  0
 21 45  1  0  0  0  0
 21 46  1  0  0  0  0
M  END
> <s_m_source_file>
AV-unprocessed.smi

> <i_m_source_file_index>
2442

> <i_lp_mmshare_version>
43012

> <i_f3d_flags>
0

> <s_epik_input>
W0NIM11PW0NAQEhdMVtDSDJdW0NIMl1bQ0gyXVtDSDJdW0NASF0xW05IXUMoPU8pW05IXVtDSDJdW0NIMl1jMltjSF1bY0hdbltjSF1jMltDSDNd

> <s_epik_cmdline>
J2VwaWtfcHl0aG9uJywgJy1waCcsICc3LjAnLCAnLXRuJywgJzgnLCAnLW1hJywgJzIwMCcsICctbWV0YWxfYmluZGluZycsICctaW1hZScsICc8aW5maWxlLm1hZT4nLCAnLW9tYWUnLCAnPG91dGZpbGUubWFlPic=

> <r_epik_Ionization_Penalty>
0.106136

> <r_epik_Ionization_Penalty_Charging>
0

> <r_epik_Ionization_Penalty_Neutral>
0.106136

> <r_epik_State_Penalty>
0.0959393

> <r_epik_Charging_Adjusted_Penalty>
0.0959393

> <i_epik_Tot_Q>
0

> <i_epik_Tot_abs_Q>
0

> <r_epik_Metal_State_Penalty>
0.0812517

> <b_epik_Metal_Only>
0

> <s_lp_Force_Field>
OPLS_2005

> <r_lp_Energy>
9.91993

> <b_lp_Chiralities_Consistent>
1

> <s_lp_Variant>
AV-unprocessed.smi:2442-3

> <Gold.Version>
5.8.1

> <Gold.Id.Protein>
6NUR|6NUR_protein|mol2

> <Gold.PLP.Fitness>
49.8353

> <Gold.PLP.PLP>
-39.7786

> <Gold.PLP.part.hbond>
-3.0000

> <Gold.PLP.part.metal>
0.0000

> <Gold.PLP.part.buried>
-4.1878

> <Gold.PLP.part.nonpolar>
-33.9051

> <Gold.PLP.part.repulsive>
0.6426

> <Gold.PLP.ligand.clash>
0.0000

> <Gold.PLP.ligand.torsion>
0.7746

> <Gold.PLP.Chemscore.Hbond>
2.8560

> <Gold.PLP.Chemscore.CHOScore>
0.9990

> <Gold.PLP.Chemscore.Metal>
0.0000

> <Gold.Chemscore.Hbonds>
donor molecule, donor type, donor heavy atom, donor atom, acceptor molecule, acceptor atom, score
      L1  H     9    35       P1  7948  0.91
      L1  H    12    36       P1  7948  1.00
      P1  H  7989  7998       L1    18  0.69
      L1  C    19    43       P1  8028  0.90

> <Gold.PLP.Chemscore.Internal.Correction>
0.0409

> <Gold.Rescore>
     Score         DG    S(hbond)    S(metal)    S(lipo)     H(rot)  DE(clash)    DE(int)     intcor
     18.72     -19.61       2.01        0.00      99.22       1.64       0.32       0.56       ----

> <Gold.Chemscore.Fitness>
18.7216

> <Gold.Chemscore.DG>
-19.6053

> <Gold.Chemscore.ZeroCoef>
-5.4800

> <Gold.Chemscore.Hbond>
2.0091

> <Gold.Chemscore.Metal>
0.0000

> <Gold.Chemscore.Lipo>
99.2159

> <Gold.Chemscore.Internal_Hbond>
0.0000

> <Gold.Chemscore.DEClash>
0.3227

> <Gold.Chemscore.DEInternal>
0.5610

> <Gold.Chemscore.Rot>
1.6380

> <Gold.Chemscore.Internal.Correction>
   9.000000E+99

> <Gold.Chemscore.Hbonds>
donor molecule, donor type, donor heavy atom, donor atom, acceptor molecule, acceptor atom, score
      L1  H     9    35       P1  7948  0.82
      L1  H    12    36       P1  7948  0.96
      P1  H  7989  7998       L1    18  0.07

> <Gold.Chemscore.Hbond.Weighted>
-6.7104

> <Gold.Chemscore.Metal.Weighted>
-0.0000

> <Gold.Chemscore.Lipo.Weighted>
-11.6083

> <Gold.Chemscore.Internal_Hbond.Weighted>
0.0000

> <Gold.Chemscore.DEClash.Weighted>
0.3227

> <Gold.Chemscore.DEInternal.Weighted>
0.5610

> <Gold.Chemscore.Rot.Weighted>
4.1934

> <Gold.Chemscore.Internal.Correction.Weighted>
   9.000000E+99

> <Gold.Protein.RotatedTorsions>
[ 6907 6896 6895 6894 ] final -111.46 input  -60.11 | X-H torsion
[ 7974 7965 7964 7962 ] final   64.35 input  175.53 | X-H torsion
[ 8008 7997 7996 7995 ] final  -86.77 input   59.86 | X-H torsion
[ 10167 10162 10161 10158 ] final -164.70 input  -65.29 | X-H torsion
[ 10718 10713 10712 10709 ] final  155.80 input   66.30 | X-H torsion
[ 10763 10752 10751 10750 ] final   89.16 input  -60.55 | X-H torsion
[ 11005 11000 10999 10996 ] final -164.93 input  -57.11 | X-H torsion

> <Gold.Protein.ActiveResidues>
 VAL166  LYS551  ARG553  GLY616  TRP617  ASP618  TYR619  PRO620  LYS621  CYS622 
 ASP623  PHE694  ASN695  SER759  ASP760  ASP761  ALA762  ILE779  LEU786  VAL792 
 PHE793  MET794  SER795  GLU796  ALA797  LYS798  CYS799  TRP800  GLU811  SER814 

> <Gold.Protein.RotatedAtoms>
  150.7692  133.9232  159.3404 H   0  0  0  0  0  0  0  0  0  0  0  0  # atno 6907 bound_to 6896
  151.7122  135.0908  160.0279 H   0  0  0  0  0  0  0  0  0  0  0  0  # atno 6908 bound_to 6896
  152.3702  133.6371  159.6117 H   0  0  0  0  0  0  0  0  0  0  0  0  # atno 6909 bound_to 6896
  145.8513  139.3255  143.0874 H   0  0  0  0  0  0  0  0  0  0  0  0  # atno 7974 bound_to 7965
  154.6556  140.0574  157.0005 H   0  0  0  0  0  0  0  0  0  0  0  0  # atno 8008 bound_to 7997
  155.1305  140.3256  155.4456 H   0  0  0  0  0  0  0  0  0  0  0  0  # atno 8009 bound_to 7997
  156.2595  140.1981  156.6425 H   0  0  0  0  0  0  0  0  0  0  0  0  # atno 8010 bound_to 7997
  139.6232  144.0583  152.1951 H   0  0  0  0  0  0  0  0  0  0  0  0  # atno 10167 bound_to 10162
  157.2135  131.0703  151.1955 H   0  0  0  0  0  0  0  0  0  0  0  0  # atno 10718 bound_to 10713
  153.1843  135.4480  155.0068 H   0  0  0  0  0  0  0  0  0  0  0  0  # atno 10763 bound_to 10752
  154.8050  135.3271  154.7457 H   0  0  0  0  0  0  0  0  0  0  0  0  # atno 10764 bound_to 10752
  153.7917  135.6969  153.4925 H   0  0  0  0  0  0  0  0  0  0  0  0  # atno 10765 bound_to 10752
  140.5814  134.5138  157.5179 H   0  0  0  0  0  0  0  0  0  0  0  0  # atno 11005 bound_to 11000
  145.9355  140.9018  143.0334 LP  0  0  0  0  0  0  0  0  0  0  0  0  # atno 17320 bound_to 7965
  144.6729  140.1476  143.7432 LP  0  0  0  0  0  0  0  0  0  0  0  0  # atno 17321 bound_to 7965
  140.0230  144.6139  150.7551 LP  0  0  0  0  0  0  0  0  0  0  0  0  # atno 17342 bound_to 10162
  140.7395  143.2792  151.3649 LP  0  0  0  0  0  0  0  0  0  0  0  0  # atno 17343 bound_to 10162
  157.3648  130.7150  149.6525 LP  0  0  0  0  0  0  0  0  0  0  0  0  # atno 17370 bound_to 10713
  155.9688  130.4215  150.4474 LP  0  0  0  0  0  0  0  0  0  0  0  0  # atno 17371 bound_to 10713
  139.9316  134.7954  156.0916 LP  0  0  0  0  0  0  0  0  0  0  0  0  # atno 17394 bound_to 11000
  141.0994  133.6683  156.2719 LP  0  0  0  0  0  0  0  0  0  0  0  0  # atno 17395 bound_to 11000

$$$$
