AV-unprocessed.smi:2899|AV-procd|sdf|11144|dock1
  -GOLD-   2272016 23D 1   1.00000     0.00000
 Structure written by MMmdl.
 30 32  0  0  0  0  0  0  0  0  1 V2000
  152.1163  144.7144  158.4363 C   0  0  0  0  0  0  0  0  0  0  0  0
  152.3540  143.2796  158.8569 C   0  0  0  0  0  0  0  0  0  0  0  0
  152.9884  142.9616  160.0756 C   0  0  0  0  0  0  0  0  0  0  0  0
  153.1503  141.5888  160.3513 C   0  0  0  0  0  0  0  0  0  0  0  0
  152.7196  140.6353  159.4962 N   0  0  0  0  0  0  0  0  0  0  0  0
  152.1307  141.0487  158.3713 C   0  0  0  0  0  0  0  0  0  0  0  0
  151.7008  140.0449  157.5231 N   0  0  0  0  0  0  0  0  0  0  0  0
  151.6129  140.1666  156.0724 C   0  0  1  0  0  0  0  0  0  0  0  0
  152.4165  139.0976  155.3281 C   0  0  0  0  0  0  0  0  0  0  0  0
  151.3566  138.5066  154.3869 C   0  0  1  0  0  0  0  0  0  0  0  0
  150.3752  137.6015  155.1426 C   0  0  0  0  0  0  0  0  0  0  0  0
  149.5504  138.6229  155.9235 C   0  0  0  0  0  0  0  0  0  0  0  0
  150.1995  139.9507  155.4968 C   0  0  2  0  0  0  0  0  0  0  0  0
  150.5359  139.6398  154.1550 O   0  0  0  0  0  0  0  0  0  0  0  0
  151.9268  142.3206  158.0067 N   0  0  0  0  0  0  0  0  0  0  0  0
  152.5443  145.4121  159.1566 H   0  0  0  0  0  0  0  0  0  0  0  0
  151.0472  144.9147  158.3605 H   0  0  0  0  0  0  0  0  0  0  0  0
  152.5724  144.9055  157.4647 H   0  0  0  0  0  0  0  0  0  0  0  0
  153.3324  143.7221  160.7609 H   0  0  0  0  0  0  0  0  0  0  0  0
  153.6268  141.2541  161.2607 H   0  0  0  0  0  0  0  0  0  0  0  0
  151.3215  139.2139  157.9526 H   0  0  0  0  0  0  0  0  0  0  0  0
  151.9791  141.1503  155.7751 H   0  0  0  0  0  0  0  0  0  0  0  0
  153.2264  139.5601  154.7629 H   0  0  0  0  0  0  0  0  0  0  0  0
  152.8509  138.3386  155.9805 H   0  0  0  0  0  0  0  0  0  0  0  0
  151.7681  138.0556  153.4836 H   0  0  0  0  0  0  0  0  0  0  0  0
  149.7412  137.0490  154.4482 H   0  0  0  0  0  0  0  0  0  0  0  0
  150.8834  136.8841  155.7879 H   0  0  0  0  0  0  0  0  0  0  0  0
  148.5078  138.5886  155.6058 H   0  0  0  0  0  0  0  0  0  0  0  0
  149.5777  138.4598  157.0010 H   0  0  0  0  0  0  0  0  0  0  0  0
  149.5423  140.8146  155.5997 H   0  0  0  0  0  0  0  0  0  0  0  0
  1  2  1  0  0  0  0
  1 16  1  0  0  0  0
  1 17  1  0  0  0  0
  1 18  1  0  0  0  0
  2 15  1  0  0  0  0
  2  3  2  0  0  0  0
  3  4  1  0  0  0  0
  3 19  1  0  0  0  0
  4  5  2  0  0  0  0
  4 20  1  0  0  0  0
  5  6  1  0  0  0  0
  6  7  1  0  0  0  0
  6 15  2  0  0  0  0
  7  8  1  0  0  0  0
  7 21  1  0  0  0  0
  8 13  1  0  0  0  0
  8  9  1  0  0  0  0
  8 22  1  0  0  0  0
  9 10  1  0  0  0  0
  9 23  1  0  0  0  0
  9 24  1  0  0  0  0
 10 14  1  0  0  0  0
 10 11  1  0  0  0  0
 10 25  1  0  0  0  0
 11 12  1  0  0  0  0
 11 26  1  0  0  0  0
 11 27  1  0  0  0  0
 12 13  1  0  0  0  0
 12 28  1  0  0  0  0
 12 29  1  0  0  0  0
 13 14  1  0  0  0  0
 13 30  1  0  0  0  0
M  END
> <s_m_source_file>
AV-unprocessed.smi

> <i_m_source_file_index>
2899

> <i_lp_mmshare_version>
43012

> <i_f3d_flags>
0

> <s_epik_input>
W0NIM11jMVtjSF1bY0hdbmMobjEpW05IXVtDQEhdKFtDSDJdW0NAQEhdMjMpW0NAQEhdKE8zKVtDSDJdW0NIMl0y

> <s_epik_cmdline>
J2VwaWtfcHl0aG9uJywgJy1waCcsICc3LjAnLCAnLXRuJywgJzgnLCAnLW1hJywgJzIwMCcsICctbWV0YWxfYmluZGluZycsICctaW1hZScsICc8aW5maWxlLm1hZT4nLCAnLW9tYWUnLCAnPG91dGZpbGUubWFlPic=

> <r_lp_tautomer_probability>
1

> <r_epik_Ionization_Penalty>
0.00589655

> <r_epik_Ionization_Penalty_Charging>
0

> <r_epik_Ionization_Penalty_Neutral>
0.00589655

> <r_epik_State_Penalty>
0.00375391

> <r_epik_Charging_Adjusted_Penalty>
0.00375391

> <i_epik_Tot_Q>
0

> <i_epik_Tot_abs_Q>
0

> <r_epik_Metal_State_Penalty>
-0

> <b_epik_Metal_Only>
0

> <s_lp_Force_Field>
OPLS_2005

> <r_lp_Energy>
31.8412

> <b_lp_Chiralities_Consistent>
1

> <s_lp_Variant>
AV-unprocessed.smi:2899-2

> <Gold.Version>
5.8.1

> <Gold.Id.Protein>
6NUR|6NUR_protein|mol2

> <Gold.PLP.Fitness>
35.5975

> <Gold.PLP.PLP>
-32.9689

> <Gold.PLP.part.hbond>
-1.0000

> <Gold.PLP.part.metal>
0.0000

> <Gold.PLP.part.buried>
-3.8917

> <Gold.PLP.part.nonpolar>
-28.2760

> <Gold.PLP.part.repulsive>
0.2590

> <Gold.PLP.ligand.clash>
0.0000

> <Gold.PLP.ligand.torsion>
0.1901

> <Gold.PLP.Chemscore.Hbond>
1.0000

> <Gold.PLP.Chemscore.CHOScore>
0.0000

> <Gold.PLP.Chemscore.Metal>
0.0000

> <Gold.Chemscore.Hbonds>
donor molecule, donor type, donor heavy atom, donor atom, acceptor molecule, acceptor atom, score
      P1  H  7989  7998       L1    14  1.00

> <Gold.PLP.Chemscore.Internal.Correction>
0.0088

> <Gold.Rescore>
     Score         DG    S(hbond)    S(metal)    S(lipo)     H(rot)  DE(clash)    DE(int)     intcor
     14.84     -15.25       0.67        0.00      86.29       1.00       0.29       0.12       ----

> <Gold.Chemscore.Fitness>
14.8409

> <Gold.Chemscore.DG>
-15.2522

> <Gold.Chemscore.ZeroCoef>
-5.4800

> <Gold.Chemscore.Hbond>
0.6694

> <Gold.Chemscore.Metal>
0.0000

> <Gold.Chemscore.Lipo>
86.2944

> <Gold.Chemscore.Internal_Hbond>
0.0000

> <Gold.Chemscore.DEClash>
0.2949

> <Gold.Chemscore.DEInternal>
0.1164

> <Gold.Chemscore.Rot>
1.0000

> <Gold.Chemscore.Internal.Correction>
   9.000000E+99

> <Gold.Chemscore.Hbonds>
donor molecule, donor type, donor heavy atom, donor atom, acceptor molecule, acceptor atom, score
      P1  H  7989  7998       L1    14  0.39

> <Gold.Chemscore.Hbond.Weighted>
-2.2358

> <Gold.Chemscore.Metal.Weighted>
-0.0000

> <Gold.Chemscore.Lipo.Weighted>
-10.0964

> <Gold.Chemscore.Internal_Hbond.Weighted>
0.0000

> <Gold.Chemscore.DEClash.Weighted>
0.2949

> <Gold.Chemscore.DEInternal.Weighted>
0.1164

> <Gold.Chemscore.Rot.Weighted>
2.5600

> <Gold.Chemscore.Internal.Correction.Weighted>
   9.000000E+99

> <Gold.Protein.RotatedTorsions>
[ 6907 6896 6895 6894 ] final  -80.04 input  -60.11 | X-H torsion
[ 7974 7965 7964 7962 ] final  -71.37 input  175.53 | X-H torsion
[ 8008 7997 7996 7995 ] final  -93.42 input   59.86 | X-H torsion
[ 10167 10162 10161 10158 ] final  119.14 input  -65.29 | X-H torsion
[ 10718 10713 10712 10709 ] final  -60.02 input   66.30 | X-H torsion
[ 10763 10752 10751 10750 ] final  -35.61 input  -60.55 | X-H torsion
[ 11005 11000 10999 10996 ] final  162.61 input  -57.11 | X-H torsion

> <Gold.Protein.ActiveResidues>
 VAL166  LYS551  ARG553  GLY616  TRP617  ASP618  TYR619  PRO620  LYS621  CYS622 
 ASP623  PHE694  ASN695  SER759  ASP760  ASP761  ALA762  ILE779  LEU786  VAL792 
 PHE793  MET794  SER795  GLU796  ALA797  LYS798  CYS799  TRP800  GLU811  SER814 

> <Gold.Protein.RotatedAtoms>
  150.6937  134.4030  159.5127 H   0  0  0  0  0  0  0  0  0  0  0  0  # atno 6907 bound_to 6896
  152.1801  134.8759  160.0536 H   0  0  0  0  0  0  0  0  0  0  0  0  # atno 6908 bound_to 6896
  151.9753  133.3704  159.4123 H   0  0  0  0  0  0  0  0  0  0  0  0  # atno 6909 bound_to 6896
  145.6789  140.9195  143.0843 H   0  0  0  0  0  0  0  0  0  0  0  0  # atno 7974 bound_to 7965
  154.7354  140.0499  157.0764 H   0  0  0  0  0  0  0  0  0  0  0  0  # atno 8008 bound_to 7997
  155.0247  140.3151  155.4761 H   0  0  0  0  0  0  0  0  0  0  0  0  # atno 8009 bound_to 7997
  156.2852  140.2160  156.5366 H   0  0  0  0  0  0  0  0  0  0  0  0  # atno 8010 bound_to 7997
  139.6065  144.7071  151.2941 H   0  0  0  0  0  0  0  0  0  0  0  0  # atno 10167 bound_to 10162
  156.1020  130.4185  150.0795 H   0  0  0  0  0  0  0  0  0  0  0  0  # atno 10718 bound_to 10713
  153.8661  135.6835  153.4778 H   0  0  0  0  0  0  0  0  0  0  0  0  # atno 10763 bound_to 10752
  153.1314  135.4696  154.9352 H   0  0  0  0  0  0  0  0  0  0  0  0  # atno 10764 bound_to 10752
  154.7736  135.3246  154.8089 H   0  0  0  0  0  0  0  0  0  0  0  0  # atno 10765 bound_to 10752
  140.2274  134.8150  157.3283 H   0  0  0  0  0  0  0  0  0  0  0  0  # atno 11005 bound_to 11000
  144.7032  139.8670  143.7438 LP  0  0  0  0  0  0  0  0  0  0  0  0  # atno 17320 bound_to 7965
  146.0981  139.3975  143.0364 LP  0  0  0  0  0  0  0  0  0  0  0  0  # atno 17321 bound_to 7965
  140.7288  143.6924  150.7911 LP  0  0  0  0  0  0  0  0  0  0  0  0  # atno 17342 bound_to 10162
  140.0511  143.5249  152.2673 LP  0  0  0  0  0  0  0  0  0  0  0  0  # atno 17343 bound_to 10162
  156.8780  130.9547  151.3602 LP  0  0  0  0  0  0  0  0  0  0  0  0  # atno 17370 bound_to 10713
  157.6192  130.8642  149.9080 LP  0  0  0  0  0  0  0  0  0  0  0  0  # atno 17371 bound_to 10713
  140.1786  134.4518  155.7786 LP  0  0  0  0  0  0  0  0  0  0  0  0  # atno 17394 bound_to 11000
  141.2220  133.6973  156.7829 LP  0  0  0  0  0  0  0  0  0  0  0  0  # atno 17395 bound_to 11000

$$$$
