AV-unprocessed.smi:688|AV-procd|sdf|3357|dock4
  -GOLD-   22720 0333D 1   1.00000     0.00000
 Structure written by MMmdl.
 35 36  0  0  0  0  0  0  0  0  2 V2000
  148.6420  137.0066  161.6812 O   0  0  0  0  0  0  0  0  0  0  0  0
  148.9902  137.2112  160.5194 C   0  0  0  0  0  0  0  0  0  0  0  0
  150.2996  137.2228  160.1345 N   0  5  0  0  0  0  0  0  0  0  0  0
  150.7075  137.4557  158.8489 C   0  0  0  0  0  0  0  0  0  0  0  0
  151.8958  137.4606  158.5279 O   0  0  0  0  0  0  0  0  0  0  0  0
  149.7630  137.6923  157.8899 N   0  0  0  0  0  0  0  0  0  0  0  0
  150.1170  137.9671  156.4862 C   0  0  0  0  0  0  0  0  0  0  0  0
  151.0633  139.1806  156.3375 C   0  0  1  0  0  0  0  0  0  0  0  0
  151.2546  139.4282  154.9599 O   0  0  0  0  0  0  0  0  0  0  0  0
  150.5342  140.4656  157.0039 C   0  0  0  0  0  0  0  0  0  0  0  0
  151.5711  141.4377  157.0210 O   0  0  0  0  0  0  0  0  0  0  0  0
  151.1276  142.7414  157.3696 C   0  0  0  0  0  0  0  0  0  0  0  0
  151.5381  143.1405  158.7779 C   0  0  0  0  0  0  0  0  0  0  0  0
  152.3586  142.2847  159.5427 C   0  0  0  0  0  0  0  0  0  0  0  0
  152.7303  142.6438  160.8525 C   0  0  0  0  0  0  0  0  0  0  0  0
  152.2808  143.8590  161.4042 C   0  0  0  0  0  0  0  0  0  0  0  0
  152.7222  144.2921  163.0146 Cl  0  0  0  0  0  0  0  0  0  0  0  0
  151.4665  144.7189  160.6414 C   0  0  0  0  0  0  0  0  0  0  0  0
  151.0990  144.3626  159.3291 C   0  0  0  0  0  0  0  0  0  0  0  0
  148.3995  137.6833  158.2339 C   0  0  0  0  0  0  0  0  0  0  0  0
  147.9795  137.4606  159.4942 C   0  0  0  0  0  0  0  0  0  0  0  0
  146.2979  137.4814  159.8902 Cl  0  0  0  0  0  0  0  0  0  0  0  0
  150.5868  137.0778  156.0618 H   0  0  0  0  0  0  0  0  0  0  0  0
  149.2194  138.1246  155.8864 H   0  0  0  0  0  0  0  0  0  0  0  0
  152.0355  138.9247  156.7600 H   0  0  0  0  0  0  0  0  0  0  0  0
  150.5555  139.0070  154.4836 H   0  0  0  0  0  0  0  0  0  0  0  0
  149.6502  140.8575  156.4983 H   0  0  0  0  0  0  0  0  0  0  0  0
  150.2219  140.2484  158.0234 H   0  0  0  0  0  0  0  0  0  0  0  0
  151.5782  143.4503  156.6748 H   0  0  0  0  0  0  0  0  0  0  0  0
  150.0467  142.8193  157.2400 H   0  0  0  0  0  0  0  0  0  0  0  0
  152.6968  141.3448  159.1308 H   0  0  0  0  0  0  0  0  0  0  0  0
  153.3498  141.9796  161.4371 H   0  0  0  0  0  0  0  0  0  0  0  0
  151.1203  145.6509  161.0633 H   0  0  0  0  0  0  0  0  0  0  0  0
  150.4714  145.0260  158.7523 H   0  0  0  0  0  0  0  0  0  0  0  0
  147.7198  137.8812  157.4181 H   0  0  0  0  0  0  0  0  0  0  0  0
  1  2  2  0  0  0  0
  2 21  1  0  0  0  0
  2  3  1  0  0  0  0
  3  4  1  0  0  0  0
  4  5  2  0  0  0  0
  4  6  1  0  0  0  0
  6  7  1  0  0  0  0
  6 20  1  0  0  0  0
  7  8  1  0  0  0  0
  7 23  1  0  0  0  0
  7 24  1  0  0  0  0
  8  9  1  0  0  0  0
  8 10  1  0  0  0  0
  8 25  1  0  0  0  0
  9 26  1  0  0  0  0
 10 11  1  0  0  0  0
 10 27  1  0  0  0  0
 10 28  1  0  0  0  0
 11 12  1  0  0  0  0
 12 13  1  0  0  0  0
 12 29  1  0  0  0  0
 12 30  1  0  0  0  0
 13 19  1  0  0  0  0
 13 14  2  0  0  0  0
 14 15  1  0  0  0  0
 14 31  1  0  0  0  0
 15 16  2  0  0  0  0
 15 32  1  0  0  0  0
 16 17  1  0  0  0  0
 16 18  1  0  0  0  0
 18 19  2  0  0  0  0
 18 33  1  0  0  0  0
 19 34  1  0  0  0  0
 20 21  2  0  0  0  0
 20 35  1  0  0  0  0
 21 22  1  0  0  0  0
M  CHG  1   3  -1
M  END
> <s_m_source_file>
AV-unprocessed.smi

> <i_m_source_file_index>
688

> <i_lp_mmshare_version>
43012

> <i_f3d_flags>
0

> <s_epik_input>
Tz1jMVtuSF1jKD1PKW4oW2NIXWMxQ2wpW0NIMl1bQ0BIXShbT0hdKVtDSDJdT1tDSDJdYzJbY0hdW2NIXWMoQ2wpW2NIXVtjSF0y

> <s_epik_cmdline>
J2VwaWtfcHl0aG9uJywgJy1waCcsICc3LjAnLCAnLXRuJywgJzgnLCAnLW1hJywgJzIwMCcsICctbWV0YWxfYmluZGluZycsICctaW1hZScsICc8aW5maWxlLm1hZT4nLCAnLW9tYWUnLCAnPG91dGZpbGUubWFlPic=

> <r_epik_Ionization_Penalty>
1.82111

> <r_epik_Ionization_Penalty_Charging>
5.03334e-08

> <r_epik_Ionization_Penalty_Neutral>
1.82111

> <r_epik_State_Penalty>
1.93633

> <r_epik_Charging_Adjusted_Penalty>
1.93633

> <i_epik_Tot_Q>
-1

> <i_epik_Tot_abs_Q>
1

> <r_epik_Metal_State_Penalty>
0.0147818

> <b_epik_Metal_Only>
0

> <s_lp_Force_Field>
OPLS_2005

> <r_lp_Energy>
20.5354

> <b_lp_Chiralities_Consistent>
1

> <s_lp_Variant>
AV-unprocessed.smi:688-4

> <Gold.Version>
5.8.1

> <Gold.Id.Protein>
6NUR|6NUR_protein|mol2

> <Gold.PLP.Fitness>
47.7997

> <Gold.PLP.PLP>
-37.4296

> <Gold.PLP.part.hbond>
-2.9817

> <Gold.PLP.part.metal>
0.0000

> <Gold.PLP.part.buried>
-4.6245

> <Gold.PLP.part.nonpolar>
-29.4683

> <Gold.PLP.part.repulsive>
0.0215

> <Gold.PLP.ligand.clash>
0.0000

> <Gold.PLP.ligand.torsion>
0.4557

> <Gold.PLP.Chemscore.Hbond>
3.6975

> <Gold.PLP.Chemscore.CHOScore>
0.0000

> <Gold.PLP.Chemscore.Metal>
0.0000

> <Gold.Chemscore.Hbonds>
donor molecule, donor type, donor heavy atom, donor atom, acceptor molecule, acceptor atom, score
      P1  H  6896  6909       L1     3  0.01
      P1  H  6931  6943       L1     1  0.14
      P1  H  7989  7998       L1     9  0.65

> <Gold.PLP.Chemscore.Internal.Correction>
0.1891

> <Gold.Rescore>
     Score         DG    S(hbond)    S(metal)    S(lipo)     H(rot)  DE(clash)    DE(int)     intcor
     13.81     -15.59       1.73        0.00      99.49       2.85       0.05       1.73       ----

> <Gold.Chemscore.Fitness>
13.8076

> <Gold.Chemscore.DG>
-15.5886

> <Gold.Chemscore.ZeroCoef>
-5.4800

> <Gold.Chemscore.Hbond>
1.7290

> <Gold.Chemscore.Metal>
0.0000

> <Gold.Chemscore.Lipo>
99.4924

> <Gold.Chemscore.Internal_Hbond>
0.0000

> <Gold.Chemscore.DEClash>
0.0529

> <Gold.Chemscore.DEInternal>
1.7282

> <Gold.Chemscore.Rot>
2.8542

> <Gold.Chemscore.Internal.Correction>
   9.000000E+99

> <Gold.Chemscore.Hbonds>
donor molecule, donor type, donor heavy atom, donor atom, acceptor molecule, acceptor atom, score
      P1  H  7989  7998       L1     9  0.08

> <Gold.Chemscore.Hbond.Weighted>
-5.7747

> <Gold.Chemscore.Metal.Weighted>
-0.0000

> <Gold.Chemscore.Lipo.Weighted>
-11.6406

> <Gold.Chemscore.Internal_Hbond.Weighted>
0.0000

> <Gold.Chemscore.DEClash.Weighted>
0.0529

> <Gold.Chemscore.DEInternal.Weighted>
1.7282

> <Gold.Chemscore.Rot.Weighted>
7.3067

> <Gold.Chemscore.Internal.Correction.Weighted>
   9.000000E+99

> <Gold.Protein.RotatedTorsions>
[ 6907 6896 6895 6894 ] final   71.51 input  -60.11 | X-H torsion
[ 7974 7965 7964 7962 ] final -179.43 input  175.53 | X-H torsion
[ 8008 7997 7996 7995 ] final   71.98 input   59.86 | X-H torsion
[ 10167 10162 10161 10158 ] final -124.56 input  -65.29 | X-H torsion
[ 10718 10713 10712 10709 ] final -121.04 input   66.30 | X-H torsion
[ 10763 10752 10751 10750 ] final -162.10 input  -60.55 | X-H torsion
[ 11005 11000 10999 10996 ] final  -15.66 input  -57.11 | X-H torsion

> <Gold.Protein.ActiveResidues>
 VAL166  LYS551  ARG553  GLY616  TRP617  ASP618  TYR619  PRO620  LYS621  CYS622 
 ASP623  PHE694  ASN695  SER759  ASP760  ASP761  ALA762  ILE779  LEU786  VAL792 
 PHE793  MET794  SER795  GLU796  ALA797  LYS798  CYS799  TRP800  GLU811  SER814 

> <Gold.Protein.RotatedAtoms>
  152.4814  134.4709  159.9634 H   0  0  0  0  0  0  0  0  0  0  0  0  # atno 6907 bound_to 6896
  151.4714  133.3562  159.2832 H   0  0  0  0  0  0  0  0  0  0  0  0  # atno 6908 bound_to 6896
  150.8890  134.8317  159.7340 H   0  0  0  0  0  0  0  0  0  0  0  0  # atno 6909 bound_to 6896
  144.7136  140.0719  143.6429 H   0  0  0  0  0  0  0  0  0  0  0  0  # atno 7974 bound_to 7965
  155.7621  140.3486  155.5203 H   0  0  0  0  0  0  0  0  0  0  0  0  # atno 8008 bound_to 7997
  155.8904  140.1017  157.1443 H   0  0  0  0  0  0  0  0  0  0  0  0  # atno 8009 bound_to 7997
  154.4033  140.1305  156.4296 H   0  0  0  0  0  0  0  0  0  0  0  0  # atno 8010 bound_to 7997
  139.9915  143.5635  152.2340 H   0  0  0  0  0  0  0  0  0  0  0  0  # atno 10167 bound_to 10162
  156.1306  130.6392  150.9614 H   0  0  0  0  0  0  0  0  0  0  0  0  # atno 10718 bound_to 10713
  154.7245  135.3033  154.8994 H   0  0  0  0  0  0  0  0  0  0  0  0  # atno 10763 bound_to 10752
  153.9855  135.6725  153.4756 H   0  0  0  0  0  0  0  0  0  0  0  0  # atno 10764 bound_to 10752
  153.0863  135.4982  154.8521 H   0  0  0  0  0  0  0  0  0  0  0  0  # atno 10765 bound_to 10752
  140.7989  133.8229  155.9451 H   0  0  0  0  0  0  0  0  0  0  0  0  # atno 11005 bound_to 11000
  145.9776  139.2917  143.1061 LP  0  0  0  0  0  0  0  0  0  0  0  0  # atno 17320 bound_to 7965
  145.9046  140.9220  143.0485 LP  0  0  0  0  0  0  0  0  0  0  0  0  # atno 17321 bound_to 7965
  139.6336  144.7647  151.2484 LP  0  0  0  0  0  0  0  0  0  0  0  0  # atno 17342 bound_to 10162
  140.7453  143.6436  150.8312 LP  0  0  0  0  0  0  0  0  0  0  0  0  # atno 17343 bound_to 10162
  157.6484  131.0900  150.8104 LP  0  0  0  0  0  0  0  0  0  0  0  0  # atno 17370 bound_to 10713
  156.8190  130.4977  149.5345 LP  0  0  0  0  0  0  0  0  0  0  0  0  # atno 17371 bound_to 10713
  140.9315  134.2016  157.4861 LP  0  0  0  0  0  0  0  0  0  0  0  0  # atno 17394 bound_to 11000
  139.8723  134.9834  156.5198 LP  0  0  0  0  0  0  0  0  0  0  0  0  # atno 17395 bound_to 11000

$$$$
