AV-unprocessed.smi:39|AV-procd|sdf|359|dock9
  -GOLD-   2262016203D 1   1.00000     0.00000
 Structure written by MMmdl.
 31 32  0  0  0  0  0  0  0  0  4 V2000
  153.7798  142.6718  163.3807 C   0  0  0  0  0  0  0  0  0  0  0  0
  153.7263  141.9540  162.0434 C   0  0  0  0  0  0  0  0  0  0  0  0
  153.1514  142.5050  160.9516 C   0  0  0  0  0  0  0  0  0  0  0  0
  153.1010  141.8459  159.7353 N   0  0  0  0  0  0  0  0  0  0  0  0
  152.4393  142.4791  158.5293 C   0  0  1  0  0  0  0  0  0  0  0  0
  151.0689  141.8429  158.2805 C   0  0  0  0  0  0  0  0  0  0  0  0
  150.1418  142.8311  158.9626 C   0  0  2  0  0  0  0  0  0  0  0  0
  148.7745  142.7833  158.4397 N   0  0  0  0  0  0  0  0  0  0  0  0
  147.8638  142.8373  159.2765 N   0  3  0  0  0  0  0  0  0  0  0  0
  147.0950  142.8101  160.1150 N   0  5  0  0  0  0  0  0  0  0  0  0
  150.8435  144.1565  158.6550 C   0  0  1  0  0  0  0  0  0  0  0  0
  150.4721  145.2874  159.6273 C   0  0  0  0  0  0  0  0  0  0  0  0
  150.8945  144.9636  160.9348 O   0  0  0  0  0  0  0  0  0  0  0  0
  152.2289  143.8398  158.7787 O   0  0  0  0  0  0  0  0  0  0  0  0
  153.6448  140.5392  159.6242 C   0  0  0  0  0  0  0  0  0  0  0  0
  153.5531  139.9634  158.5397 O   0  0  0  0  0  0  0  0  0  0  0  0
  154.2339  139.9781  160.7184 N   0  5  0  0  0  0  0  0  0  0  0  0
  154.3109  140.6132  161.9230 C   0  0  0  0  0  0  0  0  0  0  0  0
  154.8500  140.0970  162.9014 O   0  0  0  0  0  0  0  0  0  0  0  0
  153.1386  142.3649  157.6997 H   0  0  0  0  0  0  0  0  0  0  0  0
  150.1577  142.6586  160.0408 H   0  0  0  0  0  0  0  0  0  0  0  0
  150.6381  144.4440  157.6218 H   0  0  0  0  0  0  0  0  0  0  0  0
  153.3149  143.6560  163.3212 H   0  0  0  0  0  0  0  0  0  0  0  0
  154.8136  142.8047  163.7007 H   0  0  0  0  0  0  0  0  0  0  0  0
  153.2544  142.0954  164.1428 H   0  0  0  0  0  0  0  0  0  0  0  0
  152.7153  143.4877  161.0418 H   0  0  0  0  0  0  0  0  0  0  0  0
  150.8922  141.8160  157.2042 H   0  0  0  0  0  0  0  0  0  0  0  0
  151.0030  140.8277  158.6741 H   0  0  0  0  0  0  0  0  0  0  0  0
  150.9788  146.2095  159.3417 H   0  0  0  0  0  0  0  0  0  0  0  0
  149.4012  145.4904  159.6129 H   0  0  0  0  0  0  0  0  0  0  0  0
  151.7748  145.2854  161.0541 H   0  0  0  0  0  0  0  0  0  0  0  0
  1  2  1  0  0  0  0
  1 23  1  0  0  0  0
  1 24  1  0  0  0  0
  1 25  1  0  0  0  0
  2 18  1  0  0  0  0
  2  3  2  0  0  0  0
  3  4  1  0  0  0  0
  3 26  1  0  0  0  0
  4  5  1  0  0  0  0
  4 15  1  0  0  0  0
  5 20  1  0  0  0  0
  5 14  1  0  0  0  0
  5  6  1  0  0  0  0
  6  7  1  0  0  0  0
  6 27  1  0  0  0  0
  6 28  1  0  0  0  0
  7 21  1  0  0  0  0
  7  8  1  0  0  0  0
  7 11  1  0  0  0  0
  8  9  2  0  0  0  0
  9 10  2  0  0  0  0
 11 22  1  0  0  0  0
 11 12  1  0  0  0  0
 11 14  1  0  0  0  0
 12 13  1  0  0  0  0
 12 29  1  0  0  0  0
 12 30  1  0  0  0  0
 13 31  1  0  0  0  0
 15 16  2  0  0  0  0
 15 17  1  0  0  0  0
 17 18  1  0  0  0  0
 18 19  2  0  0  0  0
M  CHG  1   9   1
M  CHG  1  10  -1
M  CHG  1  17  -1
M  END
> <s_m_source_file>
AV-unprocessed.smi

> <i_m_source_file_index>
39

> <i_lp_mmshare_version>
43012

> <i_f3d_flags>
0

> <s_epik_input>
Tz1jMVtuSF1jKD1PKW4oW2NIXWMxW0NIM10pW0NASF0yW0NIMl1bQ0BIXShOPVtOK109W04tXSlbQ0BIXShPMilbQ0gyXVtPSF0=

> <s_epik_cmdline>
J2VwaWtfcHl0aG9uJywgJy1waCcsICc3LjAnLCAnLXRuJywgJzgnLCAnLW1hJywgJzIwMCcsICctbWV0YWxfYmluZGluZycsICctaW1hZScsICc8aW5maWxlLm1hZT4nLCAnLW9tYWUnLCAnPG91dGZpbGUubWFlPic=

> <r_lp_tautomer_probability>
0.999537

> <r_epik_Ionization_Penalty>
3.6393

> <r_epik_Ionization_Penalty_Charging>
9.76484e-08

> <r_epik_Ionization_Penalty_Neutral>
3.6393

> <r_epik_State_Penalty>
3.63887

> <r_epik_Charging_Adjusted_Penalty>
3.63887

> <i_epik_Tot_Q>
-1

> <i_epik_Tot_abs_Q>
3

> <r_epik_Metal_State_Penalty>
0.225911

> <b_epik_Metal_Only>
1

> <s_epik_Chemistry_Notes>
This compound contains an acetal/aminal-like group ( X-CH(R)-Y where X, Y are N, S, or O) that may be acid/base labile, releasing an aldehyde.

> <s_lp_Force_Field>
OPLS_2005

> <r_lp_Energy>
34.0218

> <b_lp_Chiralities_Consistent>
1

> <s_lp_Variant>
AV-unprocessed.smi:39-9

> <Gold.Version>
5.8.1

> <Gold.Id.Protein>
6NUR|6NUR_protein|mol2

> <Gold.PLP.Fitness>
40.8367

> <Gold.PLP.PLP>
-35.0779

> <Gold.PLP.part.hbond>
-5.1662

> <Gold.PLP.part.metal>
0.0000

> <Gold.PLP.part.buried>
-3.7759

> <Gold.PLP.part.nonpolar>
-27.1840

> <Gold.PLP.part.repulsive>
0.3328

> <Gold.PLP.ligand.clash>
0.0000

> <Gold.PLP.ligand.torsion>
0.5346

> <Gold.PLP.Chemscore.Hbond>
2.2649

> <Gold.PLP.Chemscore.CHOScore>
0.0000

> <Gold.PLP.Chemscore.Metal>
0.0000

> <Gold.Chemscore.Hbonds>
donor molecule, donor type, donor heavy atom, donor atom, acceptor molecule, acceptor atom, score
      P1  H  6933  6944       L1    10  0.47
      P1  H  6934  6946       L1    10  0.80
      P1  H  7997  8010       L1    16  1.00

> <Gold.PLP.Chemscore.Internal.Correction>
0.0333

> <Gold.Rescore>
     Score         DG    S(hbond)    S(metal)    S(lipo)     H(rot)  DE(clash)    DE(int)     intcor
     11.62     -12.14       1.80        0.00      65.07       2.72       0.09       0.44       ----

> <Gold.Chemscore.Fitness>
11.6154

> <Gold.Chemscore.DG>
-12.1448

> <Gold.Chemscore.ZeroCoef>
-5.4800

> <Gold.Chemscore.Hbond>
1.7973

> <Gold.Chemscore.Metal>
0.0000

> <Gold.Chemscore.Lipo>
65.0698

> <Gold.Chemscore.Internal_Hbond>
0.0000

> <Gold.Chemscore.DEClash>
0.0890

> <Gold.Chemscore.DEInternal>
0.4404

> <Gold.Chemscore.Rot>
2.7153

> <Gold.Chemscore.Internal.Correction>
   9.000000E+99

> <Gold.Chemscore.Hbonds>
donor molecule, donor type, donor heavy atom, donor atom, acceptor molecule, acceptor atom, score
      P1  H  6933  6944       L1    10  0.03
      P1  H  6934  6946       L1    10  0.45
      P1  H  7997  8010       L1    16  0.94

> <Gold.Chemscore.Hbond.Weighted>
-6.0029

> <Gold.Chemscore.Metal.Weighted>
-0.0000

> <Gold.Chemscore.Lipo.Weighted>
-7.6132

> <Gold.Chemscore.Internal_Hbond.Weighted>
0.0000

> <Gold.Chemscore.DEClash.Weighted>
0.0890

> <Gold.Chemscore.DEInternal.Weighted>
0.4404

> <Gold.Chemscore.Rot.Weighted>
6.9512

> <Gold.Chemscore.Internal.Correction.Weighted>
   9.000000E+99

> <Gold.Protein.RotatedTorsions>
[ 6907 6896 6895 6894 ] final   39.47 input  -60.11 | X-H torsion
[ 7974 7965 7964 7962 ] final   27.74 input  175.53 | X-H torsion
[ 8008 7997 7996 7995 ] final   15.42 input   59.86 | X-H torsion
[ 10167 10162 10161 10158 ] final   -9.10 input  -65.29 | X-H torsion
[ 10718 10713 10712 10709 ] final   84.82 input   66.30 | X-H torsion
[ 10763 10752 10751 10750 ] final  -94.97 input  -60.55 | X-H torsion
[ 11005 11000 10999 10996 ] final -109.04 input  -57.11 | X-H torsion

> <Gold.Protein.ActiveResidues>
 VAL166  LYS551  ARG553  GLY616  TRP617  ASP618  TYR619  PRO620  LYS621  CYS622 
 ASP623  PHE694  ASN695  SER759  ASP760  ASP761  ALA762  ILE779  LEU786  VAL792 
 PHE793  MET794  SER795  GLU796  ALA797  LYS798  CYS799  TRP800  GLU811  SER814 

> <Gold.Protein.RotatedAtoms>
  152.1700  134.8842  160.0534 H   0  0  0  0  0  0  0  0  0  0  0  0  # atno 6907 bound_to 6896
  151.9805  133.3751  159.4114 H   0  0  0  0  0  0  0  0  0  0  0  0  # atno 6908 bound_to 6896
  150.6900  134.3967  159.5144 H   0  0  0  0  0  0  0  0  0  0  0  0  # atno 6909 bound_to 6896
  146.1768  139.7151  142.8929 H   0  0  0  0  0  0  0  0  0  0  0  0  # atno 7974 bound_to 7965
  154.8625  140.2946  155.5530 H   0  0  0  0  0  0  0  0  0  0  0  0  # atno 8008 bound_to 7997
  156.3020  140.2475  156.3534 H   0  0  0  0  0  0  0  0  0  0  0  0  # atno 8009 bound_to 7997
  154.8903  140.0395  157.1824 H   0  0  0  0  0  0  0  0  0  0  0  0  # atno 8010 bound_to 7997
  140.7078  143.5896  150.8908 H   0  0  0  0  0  0  0  0  0  0  0  0  # atno 10167 bound_to 10162
  157.6904  131.0149  150.2729 H   0  0  0  0  0  0  0  0  0  0  0  0  # atno 10718 bound_to 10713
  154.7105  135.5138  153.8659 H   0  0  0  0  0  0  0  0  0  0  0  0  # atno 10763 bound_to 10752
  153.0776  135.6621  154.0121 H   0  0  0  0  0  0  0  0  0  0  0  0  # atno 10764 bound_to 10752
  153.9964  135.3015  155.3386 H   0  0  0  0  0  0  0  0  0  0  0  0  # atno 10765 bound_to 10752
  141.0869  133.9123  157.2165 H   0  0  0  0  0  0  0  0  0  0  0  0  # atno 11005 bound_to 11000
  145.4190  141.0404  143.2974 LP  0  0  0  0  0  0  0  0  0  0  0  0  # atno 17320 bound_to 7965
  144.8249  139.5728  143.6970 LP  0  0  0  0  0  0  0  0  0  0  0  0  # atno 17321 bound_to 7965
  139.9621  143.6152  152.2999 LP  0  0  0  0  0  0  0  0  0  0  0  0  # atno 17342 bound_to 10162
  139.6708  144.7661  151.1786 LP  0  0  0  0  0  0  0  0  0  0  0  0  # atno 17343 bound_to 10162
  156.3289  130.3797  149.7509 LP  0  0  0  0  0  0  0  0  0  0  0  0  # atno 17370 bound_to 10713
  156.5055  130.8148  151.3149 LP  0  0  0  0  0  0  0  0  0  0  0  0  # atno 17371 bound_to 10713
  139.9689  135.0134  156.9459 LP  0  0  0  0  0  0  0  0  0  0  0  0  # atno 17394 bound_to 11000
  140.5342  134.0784  155.7324 LP  0  0  0  0  0  0  0  0  0  0  0  0  # atno 17395 bound_to 11000

$$$$
