AV-unprocessed.smi:2845|AV-procd|sdf|10945|dock1
  -GOLD-   2272015393D 1   1.00000     0.00000
 Structure written by MMmdl.
 42 44  0  0  0  0  0  0  0  0  1 V2000
  153.7198  142.8441  161.3143 C   0  0  0  0  0  0  0  0  0  0  0  0
  152.9908  142.4814  160.0326 C   0  0  0  0  0  0  0  0  0  0  0  0
  153.2714  141.2450  159.4085 C   0  0  0  0  0  0  0  0  0  0  0  0
  152.6165  140.8712  158.2145 C   0  0  0  0  0  0  0  0  0  0  0  0
  152.7365  139.7271  157.4442 N   0  0  0  0  0  0  0  0  0  0  0  0
  151.8703  139.9716  156.4653 C   0  0  0  0  0  0  0  0  0  0  0  0
  151.2019  141.1399  156.5101 N   0  0  0  0  0  0  0  0  0  0  0  0
  150.2163  141.6182  155.5569 C   0  0  0  0  0  0  0  0  0  0  0  0
  149.6955  140.4989  154.6357 C   0  0  2  0  0  0  0  0  0  0  0  0
  149.5352  140.9985  153.3208 O   0  0  0  0  0  0  0  0  0  0  0  0
  148.3617  139.9148  155.1383 C   0  0  0  0  0  0  0  0  0  0  0  0
  148.5216  138.5993  155.7312 N   0  0  0  0  0  0  0  0  0  0  0  0
  149.0516  137.4809  155.2273 C   0  0  0  0  0  0  0  0  0  0  0  0
  149.0209  136.4473  156.0584 N   0  0  0  0  0  0  0  0  0  0  0  0
  148.4206  137.0503  157.1250 C   0  0  0  0  0  0  0  0  0  0  0  0
  148.0636  136.1319  158.6557 S   0  0  2  0  0  0  0  0  0  0  0  0
  148.7885  137.3972  159.8022 C   0  0  0  0  0  0  0  0  0  0  0  0
  149.0109  134.9303  158.6577 O   0  0  0  0  0  0  0  0  0  0  0  0
  148.0976  138.3351  156.9898 N   0  0  0  0  0  0  0  0  0  0  0  0
  151.6647  141.7750  157.6578 C   0  0  0  0  0  0  0  0  0  0  0  0
  151.3775  143.0081  158.2692 C   0  0  0  0  0  0  0  0  0  0  0  0
  152.0410  143.3661  159.4615 C   0  0  0  0  0  0  0  0  0  0  0  0
  151.7249  144.7009  160.1131 C   0  0  0  0  0  0  0  0  0  0  0  0
  154.4114  142.0569  161.6157 H   0  0  0  0  0  0  0  0  0  0  0  0
  153.0103  142.9953  162.1281 H   0  0  0  0  0  0  0  0  0  0  0  0
  154.2948  143.7606  161.1803 H   0  0  0  0  0  0  0  0  0  0  0  0
  153.9955  140.5712  159.8425 H   0  0  0  0  0  0  0  0  0  0  0  0
  151.7124  139.2607  155.6675 H   0  0  0  0  0  0  0  0  0  0  0  0
  149.3901  142.0594  156.1160 H   0  0  0  0  0  0  0  0  0  0  0  0
  150.6583  142.4239  154.9693 H   0  0  0  0  0  0  0  0  0  0  0  0
  150.4376  139.7002  154.5978 H   0  0  0  0  0  0  0  0  0  0  0  0
  149.4625  140.2664  152.7273 H   0  0  0  0  0  0  0  0  0  0  0  0
  147.9263  140.5713  155.8927 H   0  0  0  0  0  0  0  0  0  0  0  0
  147.6376  139.8527  154.3241 H   0  0  0  0  0  0  0  0  0  0  0  0
  149.4636  137.4211  154.2305 H   0  0  0  0  0  0  0  0  0  0  0  0
  148.7275  138.3973  159.3723 H   0  0  0  0  0  0  0  0  0  0  0  0
  149.8356  137.1688  160.0019 H   0  0  0  0  0  0  0  0  0  0  0  0
  148.2479  137.3971  160.7486 H   0  0  0  0  0  0  0  0  0  0  0  0
  150.6549  143.6741  157.8212 H   0  0  0  0  0  0  0  0  0  0  0  0
  150.9632  145.2456  159.5544 H   0  0  0  0  0  0  0  0  0  0  0  0
  152.6178  145.3248  160.1576 H   0  0  0  0  0  0  0  0  0  0  0  0
  151.3534  144.5532  161.1274 H   0  0  0  0  0  0  0  0  0  0  0  0
  1  2  1  0  0  0  0
  1 24  1  0  0  0  0
  1 25  1  0  0  0  0
  1 26  1  0  0  0  0
  2 22  1  0  0  0  0
  2  3  2  0  0  0  0
  3  4  1  0  0  0  0
  3 27  1  0  0  0  0
  4 20  2  0  0  0  0
  4  5  1  0  0  0  0
  5  6  2  0  0  0  0
  6  7  1  0  0  0  0
  6 28  1  0  0  0  0
  7  8  1  0  0  0  0
  7 20  1  0  0  0  0
  8  9  1  0  0  0  0
  8 29  1  0  0  0  0
  8 30  1  0  0  0  0
  9 10  1  0  0  0  0
  9 11  1  0  0  0  0
  9 31  1  0  0  0  0
 10 32  1  0  0  0  0
 11 12  1  0  0  0  0
 11 33  1  0  0  0  0
 11 34  1  0  0  0  0
 12 19  1  0  0  0  0
 12 13  1  0  0  0  0
 13 14  2  0  0  0  0
 13 35  1  0  0  0  0
 14 15  1  0  0  0  0
 15 16  1  0  0  0  0
 15 19  2  0  0  0  0
 16 17  1  0  0  0  0
 16 18  2  0  0  0  0
 17 36  1  0  0  0  0
 17 37  1  0  0  0  0
 17 38  1  0  0  0  0
 20 21  1  0  0  0  0
 21 22  2  0  0  0  0
 21 39  1  0  0  0  0
 22 23  1  0  0  0  0
 23 40  1  0  0  0  0
 23 41  1  0  0  0  0
 23 42  1  0  0  0  0
M  END
> <s_m_source_file>
AV-unprocessed.smi

> <i_m_source_file_index>
2845

> <i_lp_mmshare_version>
43012

> <i_f3d_flags>
0

> <s_epik_input>
W0NIM11jKFtjSF0xKWMoW0NIM10pW2NIXWMoYzEyKW4oW2NIXW4yKVtDSDJdW0NASF0oW09IXSlbQ0gyXW4zW2NIXW5jKG4zKVtTQF0oPU8pW0NIM10=

> <s_epik_cmdline>
J2VwaWtfcHl0aG9uJywgJy1waCcsICc3LjAnLCAnLXRuJywgJzgnLCAnLW1hJywgJzIwMCcsICctbWV0YWxfYmluZGluZycsICctaW1hZScsICc8aW5maWxlLm1hZT4nLCAnLW9tYWUnLCAnPG91dGZpbGUubWFlPic=

> <r_lp_tautomer_probability>
1

> <r_epik_Ionization_Penalty>
0.0968684

> <r_epik_Ionization_Penalty_Charging>
0

> <r_epik_Ionization_Penalty_Neutral>
0.0968684

> <r_epik_State_Penalty>
0.0870047

> <r_epik_Charging_Adjusted_Penalty>
0.0870047

> <i_epik_Tot_Q>
0

> <i_epik_Tot_abs_Q>
0

> <r_epik_Metal_State_Penalty>
0.0746849

> <b_epik_Metal_Only>
0

> <s_lp_Force_Field>
OPLS_2005

> <r_lp_Energy>
9.81721

> <b_lp_Chiralities_Consistent>
1

> <s_lp_Variant>
AV-unprocessed.smi:2845-3

> <Gold.Version>
5.8.1

> <Gold.Id.Protein>
6NUR|6NUR_protein|mol2

> <Gold.PLP.Fitness>
52.4784

> <Gold.PLP.PLP>
-40.6026

> <Gold.PLP.part.hbond>
-4.5998

> <Gold.PLP.part.metal>
0.0000

> <Gold.PLP.part.buried>
-4.6517

> <Gold.PLP.part.nonpolar>
-30.1475

> <Gold.PLP.part.repulsive>
0.0757

> <Gold.PLP.ligand.clash>
0.0000

> <Gold.PLP.ligand.torsion>
1.9365

> <Gold.PLP.Chemscore.Hbond>
3.8800

> <Gold.PLP.Chemscore.CHOScore>
0.9985

> <Gold.PLP.Chemscore.Metal>
0.0000

> <Gold.Chemscore.Hbonds>
donor molecule, donor type, donor heavy atom, donor atom, acceptor molecule, acceptor atom, score
      L1  H    10    32       P1  7957  0.72
      P1  H  6896  6908       L1    18  0.91
      P1  H  7997  8008       L1     5  0.85
      P1  H  8011  8017       L1    10  1.00
      L1  C    13    35       P1  7948  0.64

> <Gold.PLP.Chemscore.Internal.Correction>
1.1133

> <Gold.Rescore>
     Score         DG    S(hbond)    S(metal)    S(lipo)     H(rot)  DE(clash)    DE(int)     intcor
     17.72     -19.94       2.94        0.00      98.90       2.71       0.26       1.96       ----

> <Gold.Chemscore.Fitness>
17.7204

> <Gold.Chemscore.DG>
-19.9444

> <Gold.Chemscore.ZeroCoef>
-5.4800

> <Gold.Chemscore.Hbond>
2.9438

> <Gold.Chemscore.Metal>
0.0000

> <Gold.Chemscore.Lipo>
98.9036

> <Gold.Chemscore.Internal_Hbond>
0.0000

> <Gold.Chemscore.DEClash>
0.2635

> <Gold.Chemscore.DEInternal>
1.9604

> <Gold.Chemscore.Rot>
2.7108

> <Gold.Chemscore.Internal.Correction>
   9.000000E+99

> <Gold.Chemscore.Hbonds>
donor molecule, donor type, donor heavy atom, donor atom, acceptor molecule, acceptor atom, score
      L1  H    10    32       P1  7957  0.70
      P1  H  6896  6908       L1    18  0.85
      P1  H  7997  8008       L1     5  0.09
      P1  H  8011  8017       L1    10  0.55

> <Gold.Chemscore.Hbond.Weighted>
-9.8323

> <Gold.Chemscore.Metal.Weighted>
-0.0000

> <Gold.Chemscore.Lipo.Weighted>
-11.5717

> <Gold.Chemscore.Internal_Hbond.Weighted>
0.0000

> <Gold.Chemscore.DEClash.Weighted>
0.2635

> <Gold.Chemscore.DEInternal.Weighted>
1.9604

> <Gold.Chemscore.Rot.Weighted>
6.9396

> <Gold.Chemscore.Internal.Correction.Weighted>
   9.000000E+99

> <Gold.Protein.RotatedTorsions>
[ 6907 6896 6895 6894 ] final  134.05 input  -60.11 | X-H torsion
[ 7974 7965 7964 7962 ] final  125.18 input  175.53 | X-H torsion
[ 8008 7997 7996 7995 ] final  -68.53 input   59.86 | X-H torsion
[ 10167 10162 10161 10158 ] final -126.81 input  -65.29 | X-H torsion
[ 10718 10713 10712 10709 ] final -146.74 input   66.30 | X-H torsion
[ 10763 10752 10751 10750 ] final  -70.25 input  -60.55 | X-H torsion
[ 11005 11000 10999 10996 ] final   21.73 input  -57.11 | X-H torsion

> <Gold.Protein.ActiveResidues>
 VAL166  LYS551  ARG553  GLY616  TRP617  ASP618  TYR619  PRO620  LYS621  CYS622 
 ASP623  PHE694  ASN695  SER759  ASP760  ASP761  ALA762  ILE779  LEU786  VAL792 
 PHE793  MET794  SER795  GLU796  ALA797  LYS798  CYS799  TRP800  GLU811  SER814 

> <Gold.Protein.RotatedAtoms>
  152.3155  133.5797  159.5708 H   0  0  0  0  0  0  0  0  0  0  0  0  # atno 6907 bound_to 6896
  150.7344  134.0089  159.3672 H   0  0  0  0  0  0  0  0  0  0  0  0  # atno 6908 bound_to 6896
  151.7978  135.0718  160.0447 H   0  0  0  0  0  0  0  0  0  0  0  0  # atno 6909 bound_to 6896
  145.0760  139.3693  143.4933 H   0  0  0  0  0  0  0  0  0  0  0  0  # atno 7974 bound_to 7965
  154.4875  140.0871  156.7519 H   0  0  0  0  0  0  0  0  0  0  0  0  # atno 8008 bound_to 7997
  155.4315  140.3450  155.4262 H   0  0  0  0  0  0  0  0  0  0  0  0  # atno 8009 bound_to 7997
  156.1282  140.1493  156.9093 H   0  0  0  0  0  0  0  0  0  0  0  0  # atno 8010 bound_to 7997
  139.9675  143.5882  152.2424 H   0  0  0  0  0  0  0  0  0  0  0  0  # atno 10167 bound_to 10162
  156.3987  130.7922  151.2131 H   0  0  0  0  0  0  0  0  0  0  0  0  # atno 10718 bound_to 10713
  154.4150  135.6000  153.5975 H   0  0  0  0  0  0  0  0  0  0  0  0  # atno 10763 bound_to 10752
  152.9791  135.5938  154.4024 H   0  0  0  0  0  0  0  0  0  0  0  0  # atno 10764 bound_to 10752
  154.3842  135.2841  155.2172 H   0  0  0  0  0  0  0  0  0  0  0  0  # atno 10765 bound_to 10752
  140.3884  134.1845  155.7663 H   0  0  0  0  0  0  0  0  0  0  0  0  # atno 11005 bound_to 11000
  146.3530  140.0527  142.8635 LP  0  0  0  0  0  0  0  0  0  0  0  0  # atno 17320 bound_to 7965
  145.1235  140.9476  143.4586 LP  0  0  0  0  0  0  0  0  0  0  0  0  # atno 17321 bound_to 7965
  139.6507  144.7660  151.2154 LP  0  0  0  0  0  0  0  0  0  0  0  0  # atno 17342 bound_to 10162
  140.7533  143.6166  150.8553 LP  0  0  0  0  0  0  0  0  0  0  0  0  # atno 17343 bound_to 10162
  157.7503  131.0293  150.4089 LP  0  0  0  0  0  0  0  0  0  0  0  0  # atno 17370 bound_to 10713
  156.4364  130.3982  149.6726 LP  0  0  0  0  0  0  0  0  0  0  0  0  # atno 17371 bound_to 10713
  141.1899  133.8228  157.0938 LP  0  0  0  0  0  0  0  0  0  0  0  0  # atno 17394 bound_to 11000
  140.0425  134.9847  157.0988 LP  0  0  0  0  0  0  0  0  0  0  0  0  # atno 17395 bound_to 11000

$$$$
