AV-unprocessed.smi:3116|AV-procd|sdf|11869|dock3
  -GOLD-   2272017253D 1   1.00000     0.00000
 Structure written by MMmdl.
 34 34  0  0  0  0  0  0  0  0  2 V2000
  146.4684  137.6571  154.4874 C   0  0  0  0  0  0  0  0  0  0  0  0
  146.9533  138.7698  153.5460 C   0  0  1  0  0  0  0  0  0  0  0  0
  148.4327  138.7497  153.4695 N   0  3  0  0  0  0  0  0  0  0  0  0
  149.1538  138.9931  154.7428 C   0  0  1  0  0  0  0  0  0  0  0  0
  150.3836  138.0695  154.8056 C   0  0  0  0  0  0  0  0  0  0  0  0
  149.4676  140.5048  154.9084 C   0  0  1  0  0  0  0  0  0  0  0  0
  148.2626  141.3996  154.5568 C   0  0  0  0  0  0  0  0  0  0  0  0
  150.0262  140.8319  156.2180 N   0  0  0  0  0  0  0  0  0  0  0  0
  150.4802  142.0582  156.6604 C   0  0  0  0  0  0  0  0  0  0  0  0
  150.9417  141.8912  157.9344 C   0  0  0  0  0  0  0  0  0  0  0  0
  150.7328  140.5081  158.1910 C   0  0  0  0  0  0  0  0  0  0  0  0
  150.1942  139.8764  157.1613 N   0  0  0  0  0  0  0  0  0  0  0  0
  146.3149  138.5981  152.1608 C   0  0  0  0  0  0  0  0  0  0  0  0
  144.9831  138.5208  152.1090 N   0  0  0  0  0  0  0  0  0  0  0  0
  147.0147  138.5205  151.1526 O   0  0  0  0  0  0  0  0  0  0  0  0
  145.3818  137.6636  154.5830 H   0  0  0  0  0  0  0  0  0  0  0  0
  146.8824  137.7844  155.4881 H   0  0  0  0  0  0  0  0  0  0  0  0
  146.7648  136.6699  154.1297 H   0  0  0  0  0  0  0  0  0  0  0  0
  146.6426  139.7256  153.9721 H   0  0  0  0  0  0  0  0  0  0  0  0
  148.7129  137.8381  153.1377 H   0  0  0  0  0  0  0  0  0  0  0  0
  148.5017  138.7105  155.5708 H   0  0  0  0  0  0  0  0  0  0  0  0
  150.9508  138.2177  155.7241 H   0  0  0  0  0  0  0  0  0  0  0  0
  151.0586  138.2332  153.9652 H   0  0  0  0  0  0  0  0  0  0  0  0
  150.0823  137.0219  154.7783 H   0  0  0  0  0  0  0  0  0  0  0  0
  150.2375  140.7586  154.1790 H   0  0  0  0  0  0  0  0  0  0  0  0
  147.9194  141.2100  153.5395 H   0  0  0  0  0  0  0  0  0  0  0  0
  148.5302  142.4550  154.6181 H   0  0  0  0  0  0  0  0  0  0  0  0
  147.4165  141.2353  155.2240 H   0  0  0  0  0  0  0  0  0  0  0  0
  150.4360  142.9406  156.0388 H   0  0  0  0  0  0  0  0  0  0  0  0
  151.3644  142.6427  158.5848 H   0  0  0  0  0  0  0  0  0  0  0  0
  150.9579  139.9474  159.0864 H   0  0  0  0  0  0  0  0  0  0  0  0
  144.5131  138.4139  151.2216 H   0  0  0  0  0  0  0  0  0  0  0  0
  144.4460  138.5762  152.9627 H   0  0  0  0  0  0  0  0  0  0  0  0
  148.7250  139.4378  152.7902 H   0  0  0  0  0  0  0  0  0  0  0  0
  1  2  1  0  0  0  0
  1 16  1  0  0  0  0
  1 17  1  0  0  0  0
  1 18  1  0  0  0  0
  2  3  1  0  0  0  0
  2 13  1  0  0  0  0
  2 19  1  0  0  0  0
  3  4  1  0  0  0  0
  3 20  1  0  0  0  0
  3 34  1  0  0  0  0
  4  5  1  0  0  0  0
  4  6  1  0  0  0  0
  4 21  1  0  0  0  0
  5 22  1  0  0  0  0
  5 23  1  0  0  0  0
  5 24  1  0  0  0  0
  6  7  1  0  0  0  0
  6  8  1  0  0  0  0
  6 25  1  0  0  0  0
  7 26  1  0  0  0  0
  7 27  1  0  0  0  0
  7 28  1  0  0  0  0
  8 12  1  0  0  0  0
  8  9  1  0  0  0  0
  9 10  2  0  0  0  0
  9 29  1  0  0  0  0
 10 11  1  0  0  0  0
 10 30  1  0  0  0  0
 11 12  2  0  0  0  0
 11 31  1  0  0  0  0
 13 14  1  0  0  0  0
 13 15  2  0  0  0  0
 14 32  1  0  0  0  0
 14 33  1  0  0  0  0
M  CHG  1   3   1
M  END
> <s_m_source_file>
AV-unprocessed.smi

> <i_m_source_file_index>
3116

> <i_lp_mmshare_version>
43012

> <i_f3d_flags>
0

> <s_epik_input>
W05IMl1DKD1PKVtDQEhdKFtDSDNdKVtOSF1bQ0BIXShbQ0gzXSlbQ0BIXShbQ0gzXSluMVtjSF1bY0hdW2NIXW4x

> <s_epik_cmdline>
J2VwaWtfcHl0aG9uJywgJy1waCcsICc3LjAnLCAnLXRuJywgJzgnLCAnLW1hJywgJzIwMCcsICctbWV0YWxfYmluZGluZycsICctaW1hZScsICc8aW5maWxlLm1hZT4nLCAnLW9tYWUnLCAnPG91dGZpbGUubWFlPic=

> <r_lp_tautomer_probability>
1

> <r_epik_Ionization_Penalty>
0.15658

> <r_epik_Ionization_Penalty_Charging>
0.156568

> <r_epik_Ionization_Penalty_Neutral>
1.19778e-05

> <r_epik_State_Penalty>
0.145866

> <r_epik_Charging_Adjusted_Penalty>
0.302434

> <i_epik_Tot_Q>
1

> <i_epik_Tot_abs_Q>
1

> <r_epik_Metal_State_Penalty>
0.146064

> <b_epik_Metal_Only>
0

> <s_lp_Force_Field>
OPLS_2005

> <r_lp_Energy>
10.8176

> <b_lp_Chiralities_Consistent>
1

> <s_lp_Variant>
AV-unprocessed.smi:3116-8

> <Gold.Version>
5.8.1

> <Gold.Id.Protein>
6NUR|6NUR_protein|mol2

> <Gold.PLP.Fitness>
47.8174

> <Gold.PLP.PLP>
-30.9654

> <Gold.PLP.part.hbond>
-5.0000

> <Gold.PLP.part.metal>
0.0000

> <Gold.PLP.part.buried>
-4.4626

> <Gold.PLP.part.nonpolar>
-24.4746

> <Gold.PLP.part.repulsive>
1.1260

> <Gold.PLP.ligand.clash>
0.0000

> <Gold.PLP.ligand.torsion>
0.6706

> <Gold.PLP.Chemscore.Hbond>
5.0000

> <Gold.PLP.Chemscore.CHOScore>
1.0000

> <Gold.PLP.Chemscore.Metal>
0.0000

> <Gold.Chemscore.Hbonds>
donor molecule, donor type, donor heavy atom, donor atom, acceptor molecule, acceptor atom, score
      L1  H     3    20       P1  7948  1.92
      L1  H     3    34       P1  7957  1.00
      L1  H    14    32       P1 10171  1.00
      P1  H  7954  7966       L1    15  1.00
      L1  C     9    29       P1  8028  1.00

> <Gold.PLP.Chemscore.Internal.Correction>
0.1932

> <Gold.Rescore>
     Score         DG    S(hbond)    S(metal)    S(lipo)     H(rot)  DE(clash)    DE(int)     intcor
     17.03     -19.11       3.98        0.00      56.48       2.45       0.13       1.96       ----

> <Gold.Chemscore.Fitness>
17.0261

> <Gold.Chemscore.DG>
-19.1132

> <Gold.Chemscore.ZeroCoef>
-5.4800

> <Gold.Chemscore.Hbond>
3.9785

> <Gold.Chemscore.Metal>
0.0000

> <Gold.Chemscore.Lipo>
56.4801

> <Gold.Chemscore.Internal_Hbond>
0.0000

> <Gold.Chemscore.DEClash>
0.1267

> <Gold.Chemscore.DEInternal>
1.9604

> <Gold.Chemscore.Rot>
2.4465

> <Gold.Chemscore.Internal.Correction>
   9.000000E+99

> <Gold.Chemscore.Hbonds>
donor molecule, donor type, donor heavy atom, donor atom, acceptor molecule, acceptor atom, score
      L1  H     3    20       P1  7948  0.91
      L1  H     3    34       P1  7957  0.97
      L1  H    14    32       P1 10171  0.95
      L1  H    14    33       P1 10175  0.01
      P1  H  7954  7966       L1    15  0.98

> <Gold.Chemscore.Hbond.Weighted>
-13.2881

> <Gold.Chemscore.Metal.Weighted>
-0.0000

> <Gold.Chemscore.Lipo.Weighted>
-6.6082

> <Gold.Chemscore.Internal_Hbond.Weighted>
0.0000

> <Gold.Chemscore.DEClash.Weighted>
0.1267

> <Gold.Chemscore.DEInternal.Weighted>
1.9604

> <Gold.Chemscore.Rot.Weighted>
6.2631

> <Gold.Chemscore.Internal.Correction.Weighted>
   9.000000E+99

> <Gold.Protein.RotatedTorsions>
[ 6907 6896 6895 6894 ] final  -83.31 input  -60.11 | X-H torsion
[ 7974 7965 7964 7962 ] final  162.35 input  175.53 | X-H torsion
[ 8008 7997 7996 7995 ] final  133.04 input   59.86 | X-H torsion
[ 10167 10162 10161 10158 ] final    3.90 input  -65.29 | X-H torsion
[ 10718 10713 10712 10709 ] final   37.43 input   66.30 | X-H torsion
[ 10763 10752 10751 10750 ] final   35.93 input  -60.55 | X-H torsion
[ 11005 11000 10999 10996 ] final  115.78 input  -57.11 | X-H torsion

> <Gold.Protein.ActiveResidues>
 VAL166  LYS551  ARG553  GLY616  TRP617  ASP618  TYR619  PRO620  LYS621  CYS622 
 ASP623  PHE694  ASN695  SER759  ASP760  ASP761  ALA762  ILE779  LEU786  VAL792 
 PHE793  MET794  SER795  GLU796  ALA797  LYS798  CYS799  TRP800  GLU811  SER814 

> <Gold.Protein.RotatedAtoms>
  150.6887  134.3532  159.4917 H   0  0  0  0  0  0  0  0  0  0  0  0  # atno 6907 bound_to 6896
  152.1370  134.9089  160.0565 H   0  0  0  0  0  0  0  0  0  0  0  0  # atno 6908 bound_to 6896
  152.0237  133.3874  159.4305 H   0  0  0  0  0  0  0  0  0  0  0  0  # atno 6909 bound_to 6896
  144.7641  139.8027  143.6322 H   0  0  0  0  0  0  0  0  0  0  0  0  # atno 7974 bound_to 7965
  156.2988  140.2531  156.3188 H   0  0  0  0  0  0  0  0  0  0  0  0  # atno 8008 bound_to 7997
  154.9255  140.0399  157.2040 H   0  0  0  0  0  0  0  0  0  0  0  0  # atno 8009 bound_to 7997
  154.8269  140.2869  155.5753 H   0  0  0  0  0  0  0  0  0  0  0  0  # atno 8010 bound_to 7997
  140.6562  143.7420  150.7658 H   0  0  0  0  0  0  0  0  0  0  0  0  # atno 10167 bound_to 10162
  157.3468  130.7577  149.6950 H   0  0  0  0  0  0  0  0  0  0  0  0  # atno 10718 bound_to 10713
  153.0098  135.6320  154.1904 H   0  0  0  0  0  0  0  0  0  0  0  0  # atno 10763 bound_to 10752
  154.1647  135.2821  155.3100 H   0  0  0  0  0  0  0  0  0  0  0  0  # atno 10764 bound_to 10752
  154.5955  135.5604  153.7381 H   0  0  0  0  0  0  0  0  0  0  0  0  # atno 10765 bound_to 10752
  139.9020  134.9589  156.7098 H   0  0  0  0  0  0  0  0  0  0  0  0  # atno 11005 bound_to 11000
  146.1732  139.4892  142.9914 LP  0  0  0  0  0  0  0  0  0  0  0  0  # atno 17320 bound_to 7965
  145.6525  141.0259  143.1752 LP  0  0  0  0  0  0  0  0  0  0  0  0  # atno 17321 bound_to 7965
  140.1080  143.4725  152.2386 LP  0  0  0  0  0  0  0  0  0  0  0  0  # atno 17342 bound_to 10162
  139.5786  144.7499  151.3700 LP  0  0  0  0  0  0  0  0  0  0  0  0  # atno 17343 bound_to 10162
  155.9715  130.4152  150.4169 LP  0  0  0  0  0  0  0  0  0  0  0  0  # atno 17370 bound_to 10713
  157.2225  131.0486  151.2538 LP  0  0  0  0  0  0  0  0  0  0  0  0  # atno 17371 bound_to 10713
  140.7085  133.9244  155.8069 LP  0  0  0  0  0  0  0  0  0  0  0  0  # atno 17394 bound_to 11000
  141.0318  134.0745  157.4005 LP  0  0  0  0  0  0  0  0  0  0  0  0  # atno 17395 bound_to 11000

$$$$
