AV-unprocessed.smi:3171|AV-procd|sdf|12111|dock8
  -GOLD-   2272017553D 1   1.00000     0.00000
 Structure written by MMmdl.
 33 34  0  0  0  0  0  0  0  0  1 V2000
  151.9521  144.8144  160.9686 C   0  0  0  0  0  0  0  0  0  0  0  0
  151.7112  143.7568  159.9061 C   0  0  0  0  0  0  0  0  0  0  0  0
  150.7284  144.0462  159.0258 N   0  0  0  0  0  0  0  0  0  0  0  0
  150.4331  143.1977  158.0399 N   0  0  0  0  0  0  0  0  0  0  0  0
  151.1078  142.0312  157.8971 C   0  0  0  0  0  0  0  0  0  0  0  0
  150.7460  141.1941  156.8246 N   0  0  0  0  0  0  0  0  0  0  0  0
  150.3169  141.7558  155.5488 C   0  0  0  0  0  0  0  0  0  0  0  0
  148.9370  141.2317  155.1195 C   0  0  2  0  0  0  0  0  0  0  0  0
  148.9397  139.7539  154.7387 C   0  0  0  0  0  0  0  0  0  0  0  0
  147.7178  139.6225  153.8451 C   0  0  0  0  0  0  0  0  0  0  0  0
  147.4388  141.0573  153.3866 C   0  0  0  0  0  0  0  0  0  0  0  0
  148.5049  141.8375  153.9114 O   0  0  0  0  0  0  0  0  0  0  0  0
  152.1538  141.6653  158.7842 C   0  0  0  0  0  0  0  0  0  0  0  0
  152.8857  140.4110  158.6190 C   0  0  0  0  0  0  0  0  0  0  0  0
  153.4652  139.4181  158.4881 N   0  0  0  0  0  0  0  0  0  0  0  0
  152.4657  142.5606  159.8385 C   0  0  0  0  0  0  0  0  0  0  0  0
  153.5714  142.2532  160.8455 C   0  0  0  0  0  0  0  0  0  0  0  0
  152.9926  145.1399  160.9548 H   0  0  0  0  0  0  0  0  0  0  0  0
  151.7219  144.4198  161.9583 H   0  0  0  0  0  0  0  0  0  0  0  0
  151.3276  145.6940  160.8059 H   0  0  0  0  0  0  0  0  0  0  0  0
  150.4227  140.2635  157.0462 H   0  0  0  0  0  0  0  0  0  0  0  0
  150.3355  142.8459  155.5631 H   0  0  0  0  0  0  0  0  0  0  0  0
  151.0560  141.4540  154.8065 H   0  0  0  0  0  0  0  0  0  0  0  0
  148.1952  141.4096  155.9010 H   0  0  0  0  0  0  0  0  0  0  0  0
  149.8376  139.5161  154.1663 H   0  0  0  0  0  0  0  0  0  0  0  0
  148.9071  139.0924  155.6048 H   0  0  0  0  0  0  0  0  0  0  0  0
  147.9091  138.9521  153.0066 H   0  0  0  0  0  0  0  0  0  0  0  0
  146.8660  139.2304  154.4021 H   0  0  0  0  0  0  0  0  0  0  0  0
  147.3944  141.1476  152.3010 H   0  0  0  0  0  0  0  0  0  0  0  0
  146.4935  141.4149  153.7968 H   0  0  0  0  0  0  0  0  0  0  0  0
  153.4730  141.2371  161.2294 H   0  0  0  0  0  0  0  0  0  0  0  0
  153.5583  142.9159  161.7091 H   0  0  0  0  0  0  0  0  0  0  0  0
  154.5474  142.3450  160.3683 H   0  0  0  0  0  0  0  0  0  0  0  0
  1  2  1  0  0  0  0
  1 18  1  0  0  0  0
  1 19  1  0  0  0  0
  1 20  1  0  0  0  0
  2 16  1  0  0  0  0
  2  3  2  0  0  0  0
  3  4  1  0  0  0  0
  4  5  2  0  0  0  0
  5  6  1  0  0  0  0
  5 13  1  0  0  0  0
  6  7  1  0  0  0  0
  6 21  1  0  0  0  0
  7  8  1  0  0  0  0
  7 22  1  0  0  0  0
  7 23  1  0  0  0  0
  8 12  1  0  0  0  0
  8  9  1  0  0  0  0
  8 24  1  0  0  0  0
  9 10  1  0  0  0  0
  9 25  1  0  0  0  0
  9 26  1  0  0  0  0
 10 11  1  0  0  0  0
 10 27  1  0  0  0  0
 10 28  1  0  0  0  0
 11 12  1  0  0  0  0
 11 29  1  0  0  0  0
 11 30  1  0  0  0  0
 13 14  1  0  0  0  0
 13 16  2  0  0  0  0
 14 15  3  0  0  0  0
 16 17  1  0  0  0  0
 17 31  1  0  0  0  0
 17 32  1  0  0  0  0
 17 33  1  0  0  0  0
M  END
> <s_m_source_file>
AV-unprocessed.smi

> <i_m_source_file_index>
3171

> <i_lp_mmshare_version>
43012

> <i_f3d_flags>
0

> <s_epik_input>
W0NIM11jMW5uYyhjKEMjTiljMVtDSDNdKVtOSF1bQ0gyXVtDQEBIXTJbQ0gyXVtDSDJdW0NIMl1PMg==

> <s_epik_cmdline>
J2VwaWtfcHl0aG9uJywgJy1waCcsICc3LjAnLCAnLXRuJywgJzgnLCAnLW1hJywgJzIwMCcsICctbWV0YWxfYmluZGluZycsICctaW1hZScsICc8aW5maWxlLm1hZT4nLCAnLW9tYWUnLCAnPG91dGZpbGUubWFlPic=

> <r_lp_tautomer_probability>
1

> <r_epik_Ionization_Penalty>
0.00108228

> <r_epik_Ionization_Penalty_Charging>
0

> <r_epik_Ionization_Penalty_Neutral>
0.00108228

> <r_epik_State_Penalty>
-0

> <r_epik_Charging_Adjusted_Penalty>
0

> <i_epik_Tot_Q>
0

> <i_epik_Tot_abs_Q>
0

> <r_epik_Metal_State_Penalty>
-0

> <b_epik_Metal_Only>
0

> <s_lp_Force_Field>
OPLS_2005

> <r_lp_Energy>
28.7028

> <b_lp_Chiralities_Consistent>
1

> <s_lp_Variant>
AV-unprocessed.smi:3171-1

> <Gold.Version>
5.8.1

> <Gold.Id.Protein>
6NUR|6NUR_protein|mol2

> <Gold.PLP.Fitness>
35.8566

> <Gold.PLP.PLP>
-31.7395

> <Gold.PLP.part.hbond>
-2.0000

> <Gold.PLP.part.metal>
0.0000

> <Gold.PLP.part.buried>
-2.1054

> <Gold.PLP.part.nonpolar>
-26.9508

> <Gold.PLP.part.repulsive>
0.5314

> <Gold.PLP.ligand.clash>
0.0000

> <Gold.PLP.ligand.torsion>
0.2832

> <Gold.PLP.Chemscore.Hbond>
1.5580

> <Gold.PLP.Chemscore.CHOScore>
0.0000

> <Gold.PLP.Chemscore.Metal>
0.0000

> <Gold.Chemscore.Hbonds>
donor molecule, donor type, donor heavy atom, donor atom, acceptor molecule, acceptor atom, score
      P1  H  7997  8009       L1    15  0.99
      P1  H  8011  8017       L1    12  0.39

> <Gold.PLP.Chemscore.Internal.Correction>
0.0097

> <Gold.Rescore>
     Score         DG    S(hbond)    S(metal)    S(lipo)     H(rot)  DE(clash)    DE(int)     intcor
     15.75     -16.31       1.08        0.00      88.22       1.22       0.29       0.27       ----

> <Gold.Chemscore.Fitness>
15.7472

> <Gold.Chemscore.DG>
-16.3075

> <Gold.Chemscore.ZeroCoef>
-5.4800

> <Gold.Chemscore.Hbond>
1.0850

> <Gold.Chemscore.Metal>
0.0000

> <Gold.Chemscore.Lipo>
88.2209

> <Gold.Chemscore.Internal_Hbond>
0.0000

> <Gold.Chemscore.DEClash>
0.2937

> <Gold.Chemscore.DEInternal>
0.2666

> <Gold.Chemscore.Rot>
1.2181

> <Gold.Chemscore.Internal.Correction>
   9.000000E+99

> <Gold.Chemscore.Hbonds>
donor molecule, donor type, donor heavy atom, donor atom, acceptor molecule, acceptor atom, score
      P1  H  7997  8009       L1    15  0.26
      P1  H  8011  8017       L1    12  0.27

> <Gold.Chemscore.Hbond.Weighted>
-3.6239

> <Gold.Chemscore.Metal.Weighted>
-0.0000

> <Gold.Chemscore.Lipo.Weighted>
-10.3218

> <Gold.Chemscore.Internal_Hbond.Weighted>
0.0000

> <Gold.Chemscore.DEClash.Weighted>
0.2937

> <Gold.Chemscore.DEInternal.Weighted>
0.2666

> <Gold.Chemscore.Rot.Weighted>
3.1182

> <Gold.Chemscore.Internal.Correction.Weighted>
   9.000000E+99

> <Gold.Protein.RotatedTorsions>
[ 6907 6896 6895 6894 ] final  155.44 input  -60.11 | X-H torsion
[ 7974 7965 7964 7962 ] final -134.83 input  175.53 | X-H torsion
[ 8008 7997 7996 7995 ] final  126.72 input   59.86 | X-H torsion
[ 10167 10162 10161 10158 ] final   68.38 input  -65.29 | X-H torsion
[ 10718 10713 10712 10709 ] final  -30.49 input   66.30 | X-H torsion
[ 10763 10752 10751 10750 ] final  -54.96 input  -60.55 | X-H torsion
[ 11005 11000 10999 10996 ] final   11.92 input  -57.11 | X-H torsion

> <Gold.Protein.ActiveResidues>
 VAL166  LYS551  ARG553  GLY616  TRP617  ASP618  TYR619  PRO620  LYS621  CYS622 
 ASP623  PHE694  ASN695  SER759  ASP760  ASP761  ALA762  ILE779  LEU786  VAL792 
 PHE793  MET794  SER795  GLU796  ALA797  LYS798  CYS799  TRP800  GLU811  SER814 

> <Gold.Protein.RotatedAtoms>
  152.0441  133.3990  159.4348 H   0  0  0  0  0  0  0  0  0  0  0  0  # atno 6907 bound_to 6896
  150.6874  134.3382  159.4866 H   0  0  0  0  0  0  0  0  0  0  0  0  # atno 6908 bound_to 6896
  152.1184  134.9223  160.0614 H   0  0  0  0  0  0  0  0  0  0  0  0  # atno 6909 bound_to 6896
  144.9068  140.6843  143.5050 H   0  0  0  0  0  0  0  0  0  0  0  0  # atno 7974 bound_to 7965
  156.2872  140.2686  156.2157 H   0  0  0  0  0  0  0  0  0  0  0  0  # atno 8008 bound_to 7997
  155.0219  140.0386  157.2458 H   0  0  0  0  0  0  0  0  0  0  0  0  # atno 8009 bound_to 7997
  154.7428  140.2728  155.6363 H   0  0  0  0  0  0  0  0  0  0  0  0  # atno 8010 bound_to 7997
  140.0793  144.5085  150.7173 H   0  0  0  0  0  0  0  0  0  0  0  0  # atno 10167 bound_to 10162
  156.3992  130.4387  149.7335 H   0  0  0  0  0  0  0  0  0  0  0  0  # atno 10718 bound_to 10713
  154.1832  135.6440  153.5040 H   0  0  0  0  0  0  0  0  0  0  0  0  # atno 10763 bound_to 10752
  153.0054  135.5411  154.6492 H   0  0  0  0  0  0  0  0  0  0  0  0  # atno 10764 bound_to 10752
  154.5862  135.2930  155.0655 H   0  0  0  0  0  0  0  0  0  0  0  0  # atno 10765 bound_to 10752
  140.4978  134.0776  155.7786 H   0  0  0  0  0  0  0  0  0  0  0  0  # atno 11005 bound_to 11000
  145.3522  139.1703  143.4428 LP  0  0  0  0  0  0  0  0  0  0  0  0  # atno 17320 bound_to 7965
  146.3138  140.3576  142.8662 LP  0  0  0  0  0  0  0  0  0  0  0  0  # atno 17321 bound_to 7965
  140.7086  143.2487  151.4651 LP  0  0  0  0  0  0  0  0  0  0  0  0  # atno 17342 bound_to 10162
  139.5789  144.1755  152.1941 LP  0  0  0  0  0  0  0  0  0  0  0  0  # atno 17343 bound_to 10162
  156.4358  130.7837  151.2858 LP  0  0  0  0  0  0  0  0  0  0  0  0  # atno 17370 bound_to 10713
  157.7503  131.0140  150.3446 LP  0  0  0  0  0  0  0  0  0  0  0  0  # atno 17371 bound_to 10713
  141.1451  133.9070  157.2235 LP  0  0  0  0  0  0  0  0  0  0  0  0  # atno 17394 bound_to 11000
  139.9731  135.0122  156.9562 LP  0  0  0  0  0  0  0  0  0  0  0  0  # atno 17395 bound_to 11000

$$$$
