AV-unprocessed.smi:1749|AV-procd|sdf|7051|dock5
  -GOLD-   22720 8263D 1   1.00000     0.00000
 Structure written by MMmdl.
 31 32  0  0  0  0  0  0  0  0  2 V2000
  152.1460  141.3072  158.7517 C   0  0  0  0  0  0  0  0  0  0  0  0
  150.8565  140.5878  158.3315 C   0  0  1  0  0  0  0  0  0  0  0  0
  150.1382  141.3378  157.1934 C   0  0  0  0  0  0  0  0  0  0  0  0
  148.8495  140.6174  156.7665 C   0  0  0  0  0  0  0  0  0  0  0  0
  149.1312  139.1602  156.3628 C   0  0  0  0  0  0  0  0  0  0  0  0
  149.8598  138.3819  157.4783 C   0  0  2  0  0  0  0  0  0  0  0  0
  148.9845  138.1653  158.6283 N   0  0  0  0  0  0  0  0  0  0  0  0
  148.7702  137.0040  159.2764 C   0  0  0  0  0  0  0  0  0  0  0  0
  149.3656  135.9937  158.9041 O   0  0  0  0  0  0  0  0  0  0  0  0
  147.8955  137.0147  160.3169 N   0  5  0  0  0  0  0  0  0  0  0  0
  147.4181  135.8842  160.8705 C   0  0  0  0  0  0  0  0  0  0  0  0
  147.0957  134.8051  160.1395 N   0  0  0  0  0  0  0  0  0  0  0  0
  146.6094  133.7533  160.9040 N   0  0  0  0  0  0  0  0  0  0  0  0
  146.5883  134.0636  162.1997 C   0  0  0  0  0  0  0  0  0  0  0  0
  147.1588  135.6688  162.6036 S   0  0  0  0  0  0  0  0  0  0  0  0
  151.1349  139.1252  157.9233 C   0  0  0  0  0  0  0  0  0  0  0  0
  152.8600  141.3543  157.9289 H   0  0  0  0  0  0  0  0  0  0  0  0
  152.6286  140.7929  159.5832 H   0  0  0  0  0  0  0  0  0  0  0  0
  151.9387  142.3286  159.0721 H   0  0  0  0  0  0  0  0  0  0  0  0
  150.1937  140.5798  159.1983 H   0  0  0  0  0  0  0  0  0  0  0  0
  149.8995  142.3542  157.5081 H   0  0  0  0  0  0  0  0  0  0  0  0
  150.8039  141.4292  156.3340 H   0  0  0  0  0  0  0  0  0  0  0  0
  148.1283  140.6404  157.5847 H   0  0  0  0  0  0  0  0  0  0  0  0
  148.3860  141.1483  155.9347 H   0  0  0  0  0  0  0  0  0  0  0  0
  148.1996  138.6607  156.0945 H   0  0  0  0  0  0  0  0  0  0  0  0
  149.7469  139.1534  155.4629 H   0  0  0  0  0  0  0  0  0  0  0  0
  150.1606  137.4082  157.0879 H   0  0  0  0  0  0  0  0  0  0  0  0
  148.4757  138.9723  158.9581 H   0  0  0  0  0  0  0  0  0  0  0  0
  146.2357  133.3428  162.9221 H   0  0  0  0  0  0  0  0  0  0  0  0
  151.8560  139.1116  157.1049 H   0  0  0  0  0  0  0  0  0  0  0  0
  151.6054  138.5894  158.7490 H   0  0  0  0  0  0  0  0  0  0  0  0
  1  2  1  0  0  0  0
  1 17  1  0  0  0  0
  1 18  1  0  0  0  0
  1 19  1  0  0  0  0
  2 16  1  0  0  0  0
  2  3  1  0  0  0  0
  2 20  1  0  0  0  0
  3  4  1  0  0  0  0
  3 21  1  0  0  0  0
  3 22  1  0  0  0  0
  4  5  1  0  0  0  0
  4 23  1  0  0  0  0
  4 24  1  0  0  0  0
  5  6  1  0  0  0  0
  5 25  1  0  0  0  0
  5 26  1  0  0  0  0
  6  7  1  0  0  0  0
  6 16  1  0  0  0  0
  6 27  1  0  0  0  0
  7  8  1  0  0  0  0
  7 28  1  0  0  0  0
  8  9  2  0  0  0  0
  8 10  1  0  0  0  0
 10 11  1  0  0  0  0
 11 15  1  0  0  0  0
 11 12  2  0  0  0  0
 12 13  1  0  0  0  0
 13 14  2  0  0  0  0
 14 15  1  0  0  0  0
 14 29  1  0  0  0  0
 16 30  1  0  0  0  0
 16 31  1  0  0  0  0
M  CHG  1  10  -1
M  END
> <s_m_source_file>
AV-unprocessed.smi

> <i_m_source_file_index>
1749

> <i_lp_mmshare_version>
43012

> <i_f3d_flags>
0

> <s_epik_input>
W0NIM11bQ0BASF0xW0NIMl1bQ0gyXVtDSDJdW0NASF0oW0NIMl0xKVtOSF1DKD1PKVtOSF1jMm5uW2NIXXMy

> <s_epik_cmdline>
J2VwaWtfcHl0aG9uJywgJy1waCcsICc3LjAnLCAnLXRuJywgJzgnLCAnLW1hJywgJzIwMCcsICctbWV0YWxfYmluZGluZycsICctaW1hZScsICc8aW5maWxlLm1hZT4nLCAnLW9tYWUnLCAnPG91dGZpbGUubWFlPic=

> <r_lp_tautomer_probability>
1

> <r_epik_Ionization_Penalty>
4.55442

> <r_epik_Ionization_Penalty_Charging>
4.5081

> <r_epik_Ionization_Penalty_Neutral>
0.0463156

> <r_epik_State_Penalty>
4.50781

> <r_epik_Charging_Adjusted_Penalty>
9.01591

> <i_epik_Tot_Q>
-1

> <i_epik_Tot_abs_Q>
1

> <r_epik_Metal_State_Penalty>
0.823335

> <b_epik_Metal_Only>
1

> <s_lp_Force_Field>
OPLS_2005

> <r_lp_Energy>
7.79441

> <b_lp_Chiralities_Consistent>
1

> <s_lp_Variant>
AV-unprocessed.smi:1749-8

> <Gold.Version>
5.8.1

> <Gold.Id.Protein>
6NUR|6NUR_protein|mol2

> <Gold.PLP.Fitness>
35.8100

> <Gold.PLP.PLP>
-24.7374

> <Gold.PLP.part.hbond>
-3.0000

> <Gold.PLP.part.metal>
0.0000

> <Gold.PLP.part.buried>
-4.1395

> <Gold.PLP.part.nonpolar>
-19.0247

> <Gold.PLP.part.repulsive>
0.2157

> <Gold.PLP.ligand.clash>
0.0000

> <Gold.PLP.ligand.torsion>
0.4729

> <Gold.PLP.Chemscore.Hbond>
4.0024

> <Gold.PLP.Chemscore.CHOScore>
0.0000

> <Gold.PLP.Chemscore.Metal>
0.0000

> <Gold.Chemscore.Hbonds>
donor molecule, donor type, donor heavy atom, donor atom, acceptor molecule, acceptor atom, score
      P1  H  6896  6908       L1     9  1.00
      P1  H  6931  6943       L1    10  0.47
      P1  H  6934  6947       L1    10  0.94

> <Gold.PLP.Chemscore.Internal.Correction>
0.0112

> <Gold.Rescore>
     Score         DG    S(hbond)    S(metal)    S(lipo)     H(rot)  DE(clash)    DE(int)     intcor
     13.46     -15.18       1.98        0.00      48.26       1.00       0.00       1.72       ----

> <Gold.Chemscore.Fitness>
13.4645

> <Gold.Chemscore.DG>
-15.1805

> <Gold.Chemscore.ZeroCoef>
-5.4800

> <Gold.Chemscore.Hbond>
1.9802

> <Gold.Chemscore.Metal>
0.0000

> <Gold.Chemscore.Lipo>
48.2601

> <Gold.Chemscore.Internal_Hbond>
0.0000

> <Gold.Chemscore.DEClash>
0.0000

> <Gold.Chemscore.DEInternal>
1.7159

> <Gold.Chemscore.Rot>
1.0000

> <Gold.Chemscore.Internal.Correction>
   9.000000E+99

> <Gold.Chemscore.Hbonds>
donor molecule, donor type, donor heavy atom, donor atom, acceptor molecule, acceptor atom, score
      P1  H  6896  6908       L1     9  0.95
      P1  H  6931  6943       L1    10  0.07
      P1  H  6934  6947       L1    10  0.40

> <Gold.Chemscore.Hbond.Weighted>
-6.6140

> <Gold.Chemscore.Metal.Weighted>
-0.0000

> <Gold.Chemscore.Lipo.Weighted>
-5.6464

> <Gold.Chemscore.Internal_Hbond.Weighted>
0.0000

> <Gold.Chemscore.DEClash.Weighted>
0.0000

> <Gold.Chemscore.DEInternal.Weighted>
1.7159

> <Gold.Chemscore.Rot.Weighted>
2.5600

> <Gold.Chemscore.Internal.Correction.Weighted>
   9.000000E+99

> <Gold.Protein.RotatedTorsions>
[ 6907 6896 6895 6894 ] final  174.88 input  -60.11 | X-H torsion
[ 7974 7965 7964 7962 ] final  -74.09 input  175.53 | X-H torsion
[ 8008 7997 7996 7995 ] final   -5.42 input   59.86 | X-H torsion
[ 10167 10162 10161 10158 ] final   48.34 input  -65.29 | X-H torsion
[ 10718 10713 10712 10709 ] final -134.78 input   66.30 | X-H torsion
[ 10763 10752 10751 10750 ] final -136.81 input  -60.55 | X-H torsion
[ 11005 11000 10999 10996 ] final   75.28 input  -57.11 | X-H torsion

> <Gold.Protein.ActiveResidues>
 VAL166  LYS551  ARG553  GLY616  TRP617  ASP618  TYR619  PRO620  LYS621  CYS622 
 ASP623  PHE694  ASN695  SER759  ASP760  ASP761  ALA762  ILE779  LEU786  VAL792 
 PHE793  MET794  SER795  GLU796  ALA797  LYS798  CYS799  TRP800  GLU811  SER814 

> <Gold.Protein.RotatedAtoms>
  151.7452  133.3324  159.3376 H   0  0  0  0  0  0  0  0  0  0  0  0  # atno 6907 bound_to 6896
  150.7557  134.6242  159.6161 H   0  0  0  0  0  0  0  0  0  0  0  0  # atno 6908 bound_to 6896
  152.3504  134.7015  160.0289 H   0  0  0  0  0  0  0  0  0  0  0  0  # atno 6909 bound_to 6896
  145.6437  140.9303  143.1022 H   0  0  0  0  0  0  0  0  0  0  0  0  # atno 7974 bound_to 7965
  154.6040  140.2459  155.7754 H   0  0  0  0  0  0  0  0  0  0  0  0  # atno 8008 bound_to 7997
  156.2329  140.2960  156.0188 H   0  0  0  0  0  0  0  0  0  0  0  0  # atno 8009 bound_to 7997
  155.2162  140.0399  157.2931 H   0  0  0  0  0  0  0  0  0  0  0  0  # atno 8010 bound_to 7997
  140.2943  144.3009  150.6233 H   0  0  0  0  0  0  0  0  0  0  0  0  # atno 10167 bound_to 10162
  156.2591  130.7199  151.1126 H   0  0  0  0  0  0  0  0  0  0  0  0  # atno 10718 bound_to 10713
  154.8676  135.3661  154.5121 H   0  0  0  0  0  0  0  0  0  0  0  0  # atno 10763 bound_to 10752
  153.5756  135.7019  153.5490 H   0  0  0  0  0  0  0  0  0  0  0  0  # atno 10764 bound_to 10752
  153.3503  135.4074  155.1603 H   0  0  0  0  0  0  0  0  0  0  0  0  # atno 10765 bound_to 10752
  139.9351  134.7504  156.1252 H   0  0  0  0  0  0  0  0  0  0  0  0  # atno 11005 bound_to 11000
  144.7148  139.8237  143.7402 LP  0  0  0  0  0  0  0  0  0  0  0  0  # atno 17320 bound_to 7965
  146.1260  139.4287  143.0198 LP  0  0  0  0  0  0  0  0  0  0  0  0  # atno 17321 bound_to 7965
  140.5705  143.2181  151.7607 LP  0  0  0  0  0  0  0  0  0  0  0  0  # atno 17342 bound_to 10162
  139.4930  144.4223  151.9964 LP  0  0  0  0  0  0  0  0  0  0  0  0  # atno 17343 bound_to 10162
  157.7244  131.0660  150.5998 LP  0  0  0  0  0  0  0  0  0  0  0  0  # atno 17370 bound_to 10713
  156.6084  130.4373  149.5869 LP  0  0  0  0  0  0  0  0  0  0  0  0  # atno 17371 bound_to 10713
  141.0960  133.6695  156.2647 LP  0  0  0  0  0  0  0  0  0  0  0  0  # atno 17394 bound_to 11000
  140.6098  134.5470  157.5531 LP  0  0  0  0  0  0  0  0  0  0  0  0  # atno 17395 bound_to 11000

$$$$
