AV-unprocessed.smi:1760|AV-procd|sdf|7091|dock5
  -GOLD-   22720 8313D 1   1.00000     0.00000
 Structure written by MMmdl.
 43 45  0  0  0  0  0  0  0  0  1 V2000
  150.9148  138.0291  158.6490 O   0  0  0  0  0  0  0  0  0  0  0  0
  151.0766  138.5183  157.5314 C   0  0  0  0  0  0  0  0  0  0  0  0
  151.5749  139.7416  157.2728 N   0  0  0  0  0  0  0  0  0  0  0  0
  152.0400  140.7213  158.1665 C   0  0  0  0  0  0  0  0  0  0  0  0
  151.4595  141.9343  158.3627 C   0  0  0  0  0  0  0  0  0  0  0  0
  151.9901  142.8992  159.3113 C   0  0  0  0  0  0  0  0  0  0  0  0
  151.3789  144.2834  159.4646 C   0  0  0  0  0  0  0  0  0  0  0  0
  151.2388  144.6113  160.7497 F   0  0  0  0  0  0  0  0  0  0  0  0
  152.1370  145.2090  158.8768 F   0  0  0  0  0  0  0  0  0  0  0  0
  150.1745  144.3112  158.8958 F   0  0  0  0  0  0  0  0  0  0  0  0
  153.0975  142.5341  159.9830 C   0  0  0  0  0  0  0  0  0  0  0  0
  153.6868  141.2807  159.8044 N   0  0  0  0  0  0  0  0  0  0  0  0
  153.2323  140.3429  158.9433 C   0  0  0  0  0  0  0  0  0  0  0  0
  153.8069  139.2590  158.8460 O   0  0  0  0  0  0  0  0  0  0  0  0
  150.7476  137.8893  156.3938 N   0  0  0  0  0  0  0  0  0  0  0  0
  150.1484  136.5610  156.2923 C   0  0  0  0  0  0  0  0  0  0  0  0
  151.0881  135.6112  155.5336 C   0  0  0  0  0  0  0  0  0  0  0  0
  150.4105  134.2529  155.2809 C   0  0  0  0  0  0  0  0  0  0  0  0
  149.1747  134.4392  154.5197 N   0  0  0  0  0  0  0  0  0  0  0  0
  148.5819  133.1380  154.2577 C   0  0  0  0  0  0  0  0  0  0  0  0
  149.4699  132.0727  153.6567 C   0  0  0  0  0  0  0  0  0  0  0  0
  148.4051  132.7306  152.8129 C   0  0  0  0  0  0  0  0  0  0  0  0
  148.2282  135.2411  155.2955 C   0  0  0  0  0  0  0  0  0  0  0  0
  148.8050  136.6446  155.5509 C   0  0  0  0  0  0  0  0  0  0  0  0
  154.5041  141.0741  160.3606 H   0  0  0  0  0  0  0  0  0  0  0  0
  151.5828  140.0242  156.3033 H   0  0  0  0  0  0  0  0  0  0  0  0
  150.5660  142.2159  157.8302 H   0  0  0  0  0  0  0  0  0  0  0  0
  153.6127  143.1627  160.6943 H   0  0  0  0  0  0  0  0  0  0  0  0
  150.9131  138.3741  155.5239 H   0  0  0  0  0  0  0  0  0  0  0  0
  149.9657  136.1417  157.2835 H   0  0  0  0  0  0  0  0  0  0  0  0
  151.3780  136.0533  154.5789 H   0  0  0  0  0  0  0  0  0  0  0  0
  152.0086  135.4650  156.0997 H   0  0  0  0  0  0  0  0  0  0  0  0
  151.0888  133.6075  154.7214 H   0  0  0  0  0  0  0  0  0  0  0  0
  150.1993  133.7523  156.2273 H   0  0  0  0  0  0  0  0  0  0  0  0
  147.8170  132.7702  154.9399 H   0  0  0  0  0  0  0  0  0  0  0  0
  150.5064  132.3307  153.4472 H   0  0  0  0  0  0  0  0  0  0  0  0
  149.3002  131.0445  153.9697 H   0  0  0  0  0  0  0  0  0  0  0  0
  147.5256  132.1411  152.5626 H   0  0  0  0  0  0  0  0  0  0  0  0
  148.7351  133.4251  152.0425 H   0  0  0  0  0  0  0  0  0  0  0  0
  147.2897  135.3287  154.7464 H   0  0  0  0  0  0  0  0  0  0  0  0
  148.0012  134.7469  156.2417 H   0  0  0  0  0  0  0  0  0  0  0  0
  148.0950  137.2356  156.1302 H   0  0  0  0  0  0  0  0  0  0  0  0
  148.9337  137.1609  154.5982 H   0  0  0  0  0  0  0  0  0  0  0  0
  1  2  2  0  0  0  0
  2  3  1  0  0  0  0
  2 15  1  0  0  0  0
  3  4  1  0  0  0  0
  3 26  1  0  0  0  0
  4 13  1  0  0  0  0
  4  5  2  0  0  0  0
  5  6  1  0  0  0  0
  5 27  1  0  0  0  0
  6  7  1  0  0  0  0
  6 11  2  0  0  0  0
  7  8  1  0  0  0  0
  7  9  1  0  0  0  0
  7 10  1  0  0  0  0
 11 12  1  0  0  0  0
 11 28  1  0  0  0  0
 12 25  1  0  0  0  0
 12 13  1  0  0  0  0
 13 14  2  0  0  0  0
 15 16  1  0  0  0  0
 15 29  1  0  0  0  0
 16 24  1  0  0  0  0
 16 17  1  0  0  0  0
 16 30  1  0  0  0  0
 17 18  1  0  0  0  0
 17 31  1  0  0  0  0
 17 32  1  0  0  0  0
 18 19  1  0  0  0  0
 18 33  1  0  0  0  0
 18 34  1  0  0  0  0
 19 20  1  0  0  0  0
 19 23  1  0  0  0  0
 20 22  1  0  0  0  0
 20 21  1  0  0  0  0
 20 35  1  0  0  0  0
 21 22  1  0  0  0  0
 21 36  1  0  0  0  0
 21 37  1  0  0  0  0
 22 38  1  0  0  0  0
 22 39  1  0  0  0  0
 23 24  1  0  0  0  0
 23 40  1  0  0  0  0
 23 41  1  0  0  0  0
 24 42  1  0  0  0  0
 24 43  1  0  0  0  0
M  END
> <s_m_source_file>
AV-unprocessed.smi

> <i_m_source_file_index>
1760

> <i_lp_mmshare_version>
43012

> <i_f3d_flags>
0

> <s_epik_input>
W0NIMl0xW0NIMl1bQ0hdMU4oW0NIMl1bQ0gyXTIpW0NIMl1bQ0gyXVtDSF0yW05IXUMoPU8pW05IXWMzW2NIXWMoQyhGKShGKUYpW2NIXVtuSF1jMz1P

> <s_epik_cmdline>
J2VwaWtfcHl0aG9uJywgJy1waCcsICc3LjAnLCAnLXRuJywgJzgnLCAnLW1hJywgJzIwMCcsICctbWV0YWxfYmluZGluZycsICctaW1hZScsICc8aW5maWxlLm1hZT4nLCAnLW9tYWUnLCAnPG91dGZpbGUubWFlPic=

> <r_lp_tautomer_probability>
0.999

> <r_epik_Ionization_Penalty>
0.980325

> <r_epik_Ionization_Penalty_Charging>
0.0037226

> <r_epik_Ionization_Penalty_Neutral>
0.976602

> <r_epik_State_Penalty>
1.02305

> <r_epik_Charging_Adjusted_Penalty>
1.02677

> <i_epik_Tot_Q>
0

> <i_epik_Tot_abs_Q>
0

> <r_epik_Metal_State_Penalty>
1.39928

> <b_epik_Metal_Only>
0

> <s_lp_Force_Field>
OPLS_2005

> <r_lp_Energy>
33.0511

> <b_lp_Chiralities_Consistent>
1

> <s_lp_Variant>
AV-unprocessed.smi:1760-3

> <Gold.Version>
5.8.1

> <Gold.Id.Protein>
6NUR|6NUR_protein|mol2

> <Gold.PLP.Fitness>
39.5902

> <Gold.PLP.PLP>
-40.0261

> <Gold.PLP.part.hbond>
-1.0000

> <Gold.PLP.part.metal>
0.0000

> <Gold.PLP.part.buried>
-4.5861

> <Gold.PLP.part.nonpolar>
-34.8075

> <Gold.PLP.part.repulsive>
0.2860

> <Gold.PLP.ligand.clash>
0.0000

> <Gold.PLP.ligand.torsion>
1.8826

> <Gold.PLP.Chemscore.Hbond>
0.7000

> <Gold.PLP.Chemscore.CHOScore>
0.0000

> <Gold.PLP.Chemscore.Metal>
0.0000

> <Gold.Chemscore.Hbonds>
donor molecule, donor type, donor heavy atom, donor atom, acceptor molecule, acceptor atom, score
      P1  H  7997  8008       L1    14  0.44

> <Gold.PLP.Chemscore.Internal.Correction>
1.2294

> <Gold.Rescore>
     Score         DG    S(hbond)    S(metal)    S(lipo)     H(rot)  DE(clash)    DE(int)     intcor
     10.28     -12.11       0.00        0.00      84.50       1.27       0.05       1.78       ----

> <Gold.Chemscore.Fitness>
10.2751

> <Gold.Chemscore.DG>
-12.1069

> <Gold.Chemscore.ZeroCoef>
-5.4800

> <Gold.Chemscore.Hbond>
0.0000

> <Gold.Chemscore.Metal>
0.0000

> <Gold.Chemscore.Lipo>
84.5019

> <Gold.Chemscore.Internal_Hbond>
0.0000

> <Gold.Chemscore.DEClash>
0.0496

> <Gold.Chemscore.DEInternal>
1.7822

> <Gold.Chemscore.Rot>
1.2734

> <Gold.Chemscore.Internal.Correction>
   9.000000E+99

> <Gold.Chemscore.Hbonds>
donor molecule, donor type, donor heavy atom, donor atom, acceptor molecule, acceptor atom, score
      P1  H  7997  8008       L1    14  0.02

> <Gold.Chemscore.Hbond.Weighted>
-0.0000

> <Gold.Chemscore.Metal.Weighted>
-0.0000

> <Gold.Chemscore.Lipo.Weighted>
-9.8867

> <Gold.Chemscore.Internal_Hbond.Weighted>
0.0000

> <Gold.Chemscore.DEClash.Weighted>
0.0496

> <Gold.Chemscore.DEInternal.Weighted>
1.7822

> <Gold.Chemscore.Rot.Weighted>
3.2598

> <Gold.Chemscore.Internal.Correction.Weighted>
   9.000000E+99

> <Gold.Protein.RotatedTorsions>
[ 6907 6896 6895 6894 ] final  151.67 input  -60.11 | X-H torsion
[ 7974 7965 7964 7962 ] final  -12.65 input  175.53 | X-H torsion
[ 8008 7997 7996 7995 ] final -118.21 input   59.86 | X-H torsion
[ 10167 10162 10161 10158 ] final   44.28 input  -65.29 | X-H torsion
[ 10718 10713 10712 10709 ] final  -19.88 input   66.30 | X-H torsion
[ 10763 10752 10751 10750 ] final   92.21 input  -60.55 | X-H torsion
[ 11005 11000 10999 10996 ] final  -30.78 input  -57.11 | X-H torsion

> <Gold.Protein.ActiveResidues>
 VAL166  LYS551  ARG553  GLY616  TRP617  ASP618  TYR619  PRO620  LYS621  CYS622 
 ASP623  PHE694  ASN695  SER759  ASP760  ASP761  ALA762  ILE779  LEU786  VAL792 
 PHE793  MET794  SER795  GLU796  ALA797  LYS798  CYS799  TRP800  GLU811  SER814 

> <Gold.Protein.RotatedAtoms>
  152.0974  133.4231  159.4570 H   0  0  0  0  0  0  0  0  0  0  0  0  # atno 6907 bound_to 6896
  150.6863  134.2801  159.4633 H   0  0  0  0  0  0  0  0  0  0  0  0  # atno 6908 bound_to 6896
  152.0658  134.9565  160.0625 H   0  0  0  0  0  0  0  0  0  0  0  0  # atno 6909 bound_to 6896
  146.2144  140.3088  142.8381 H   0  0  0  0  0  0  0  0  0  0  0  0  # atno 7974 bound_to 7965
  155.0961  140.0395  157.2683 H   0  0  0  0  0  0  0  0  0  0  0  0  # atno 8008 bound_to 7997
  154.6794  140.2629  155.6899 H   0  0  0  0  0  0  0  0  0  0  0  0  # atno 8009 bound_to 7997
  156.2689  140.2781  156.1333 H   0  0  0  0  0  0  0  0  0  0  0  0  # atno 8010 bound_to 7997
  140.3359  144.2531  150.6162 H   0  0  0  0  0  0  0  0  0  0  0  0  # atno 10167 bound_to 10162
  156.5395  130.4675  149.6506 H   0  0  0  0  0  0  0  0  0  0  0  0  # atno 10718 bound_to 10713
  153.2167  135.4369  155.0442 H   0  0  0  0  0  0  0  0  0  0  0  0  # atno 10763 bound_to 10752
  154.8229  135.3346  154.6988 H   0  0  0  0  0  0  0  0  0  0  0  0  # atno 10764 bound_to 10752
  153.7422  135.7004  153.5020 H   0  0  0  0  0  0  0  0  0  0  0  0  # atno 10765 bound_to 10752
  140.9412  133.7278  156.1078 H   0  0  0  0  0  0  0  0  0  0  0  0  # atno 11005 bound_to 11000
  144.9003  140.7635  143.5871 LP  0  0  0  0  0  0  0  0  0  0  0  0  # atno 17320 bound_to 7965
  145.3014  139.1849  143.4688 LP  0  0  0  0  0  0  0  0  0  0  0  0  # atno 17321 bound_to 7965
  140.5354  143.2234  151.8171 LP  0  0  0  0  0  0  0  0  0  0  0  0  # atno 17342 bound_to 10162
  139.4848  144.4667  151.9475 LP  0  0  0  0  0  0  0  0  0  0  0  0  # atno 17343 bound_to 10162
  156.2984  130.7163  151.2029 LP  0  0  0  0  0  0  0  0  0  0  0  0  # atno 17370 bound_to 10713
  157.7408  131.0512  150.5143 LP  0  0  0  0  0  0  0  0  0  0  0  0  # atno 17371 bound_to 10713
  140.7732  134.3809  157.5503 LP  0  0  0  0  0  0  0  0  0  0  0  0  # atno 17394 bound_to 11000
  139.8821  134.9035  156.2856 LP  0  0  0  0  0  0  0  0  0  0  0  0  # atno 17395 bound_to 11000

$$$$
