AV-unprocessed.smi:638|AV-procd|sdf|3143|dock2
  -GOLD-   22720 0 73D 1   1.00000     0.00000
 Structure written by MMmdl.
 41 42  0  0  0  0  0  0  0  0  3 V2000
  146.2530  141.3451  158.7572 N   0  0  0  0  0  0  0  0  0  0  0  0
  146.8263  141.4171  157.7545 C   0  0  0  0  0  0  0  0  0  0  0  0
  147.5583  141.5075  156.4755 C   0  0  0  0  0  0  0  0  0  0  0  0
  148.8020  142.2644  156.6600 N   0  0  0  0  0  0  0  0  0  0  0  0
  149.8542  141.9228  157.4217 C   0  0  0  0  0  0  0  0  0  0  0  0
  149.9077  140.8826  158.0779 O   0  0  0  0  0  0  0  0  0  0  0  0
  151.0351  142.9029  157.4121 C   0  0  0  0  0  0  0  0  0  0  0  0
  151.8458  142.8364  158.6393 N   0  0  0  0  0  0  0  0  0  0  0  0
  152.6563  141.6969  158.8115 C   0  0  0  0  0  0  0  0  0  0  0  0
  153.4294  141.5270  159.9019 C   0  0  0  0  0  0  0  0  0  0  0  0
  154.2487  140.3464  160.0669 N   0  3  0  0  0  0  0  0  0  0  0  0
  154.6622  140.0694  161.1881 O   0  0  0  0  0  0  0  0  0  0  0  0
  154.5064  139.6582  159.0837 O   0  5  0  0  0  0  0  0  0  0  0  0
  153.4090  142.5676  160.9117 C   0  0  0  0  0  0  0  0  0  0  0  0
  152.6331  143.6580  160.7543 C   0  0  0  0  0  0  0  0  0  0  0  0
  151.7880  143.8378  159.5696 C   0  0  0  0  0  0  0  0  0  0  0  0
  151.0716  144.8281  159.4220 O   0  0  0  0  0  0  0  0  0  0  0  0
  147.8394  140.0665  155.9656 C   0  0  0  0  0  0  0  0  0  0  0  0
  148.7611  139.9581  154.7327 C   0  0  0  0  0  0  0  0  0  0  0  0
  148.0630  140.0731  153.3667 C   0  0  0  0  0  0  0  0  0  0  0  0
  146.9499  141.1278  153.2429 C   0  0  0  0  0  0  0  0  0  0  0  0
  147.1626  142.4184  154.0496 C   0  0  0  0  0  0  0  0  0  0  0  0
  146.6600  142.3010  155.5016 C   0  0  0  0  0  0  0  0  0  0  0  0
  148.8628  143.1380  156.1577 H   0  0  0  0  0  0  0  0  0  0  0  0
  151.6472  142.6858  156.5359 H   0  0  0  0  0  0  0  0  0  0  0  0
  150.6681  143.9193  157.2572 H   0  0  0  0  0  0  0  0  0  0  0  0
  152.5948  140.9775  158.0075 H   0  0  0  0  0  0  0  0  0  0  0  0
  154.0144  142.4799  161.8017 H   0  0  0  0  0  0  0  0  0  0  0  0
  152.6324  144.4206  161.5194 H   0  0  0  0  0  0  0  0  0  0  0  0
  148.3095  139.5066  156.7748 H   0  0  0  0  0  0  0  0  0  0  0  0
  146.9010  139.5448  155.7734 H   0  0  0  0  0  0  0  0  0  0  0  0
  149.5688  140.6868  154.7885 H   0  0  0  0  0  0  0  0  0  0  0  0
  149.2626  138.9903  154.7619 H   0  0  0  0  0  0  0  0  0  0  0  0
  148.8276  140.2738  152.6153 H   0  0  0  0  0  0  0  0  0  0  0  0
  147.6416  139.1036  153.0985 H   0  0  0  0  0  0  0  0  0  0  0  0
  146.8468  141.3824  152.1875 H   0  0  0  0  0  0  0  0  0  0  0  0
  145.9942  140.6816  153.5210 H   0  0  0  0  0  0  0  0  0  0  0  0
  148.2013  142.7473  154.0043 H   0  0  0  0  0  0  0  0  0  0  0  0
  146.5837  143.2074  153.5685 H   0  0  0  0  0  0  0  0  0  0  0  0
  145.6578  141.8698  155.4979 H   0  0  0  0  0  0  0  0  0  0  0  0
  146.5302  143.3089  155.8992 H   0  0  0  0  0  0  0  0  0  0  0  0
  1  2  3  0  0  0  0
  2  3  1  0  0  0  0
  3 23  1  0  0  0  0
  3  4  1  0  0  0  0
  3 18  1  0  0  0  0
  4  5  1  0  0  0  0
  4 24  1  0  0  0  0
  5  6  2  0  0  0  0
  5  7  1  0  0  0  0
  7  8  1  0  0  0  0
  7 25  1  0  0  0  0
  7 26  1  0  0  0  0
  8 16  1  0  0  0  0
  8  9  1  0  0  0  0
  9 10  2  0  0  0  0
  9 27  1  0  0  0  0
 10 11  1  0  0  0  0
 10 14  1  0  0  0  0
 11 12  2  0  0  0  0
 11 13  1  0  0  0  0
 14 15  2  0  0  0  0
 14 28  1  0  0  0  0
 15 16  1  0  0  0  0
 15 29  1  0  0  0  0
 16 17  2  0  0  0  0
 18 19  1  0  0  0  0
 18 30  1  0  0  0  0
 18 31  1  0  0  0  0
 19 20  1  0  0  0  0
 19 32  1  0  0  0  0
 19 33  1  0  0  0  0
 20 21  1  0  0  0  0
 20 34  1  0  0  0  0
 20 35  1  0  0  0  0
 21 22  1  0  0  0  0
 21 36  1  0  0  0  0
 21 37  1  0  0  0  0
 22 23  1  0  0  0  0
 22 38  1  0  0  0  0
 22 39  1  0  0  0  0
 23 40  1  0  0  0  0
 23 41  1  0  0  0  0
M  CHG  1  11   1
M  CHG  1  13  -1
M  END
> <s_m_source_file>
AV-unprocessed.smi

> <i_m_source_file_index>
638

> <i_lp_mmshare_version>
43012

> <i_f3d_flags>
0

> <s_epik_input>
W0NIMl0xW0NIMl1bQ0gyXVtDSDJdW0NIMl1bQ0gyXUMxKEMjTilbTkhdQyg9TylbQ0gyXW4yW2NIXWMoW04rXSg9TylbTy1dKVtjSF1bY0hdYzI9Tw==

> <s_epik_cmdline>
J2VwaWtfcHl0aG9uJywgJy1waCcsICc3LjAnLCAnLXRuJywgJzgnLCAnLW1hJywgJzIwMCcsICctbWV0YWxfYmluZGluZycsICctaW1hZScsICc8aW5maWxlLm1hZT4nLCAnLW9tYWUnLCAnPG91dGZpbGUubWFlPic=

> <r_lp_tautomer_probability>
1

> <r_epik_Ionization_Penalty>
4.51205e-07

> <r_epik_Ionization_Penalty_Charging>
6.24361e-11

> <r_epik_Ionization_Penalty_Neutral>
4.51142e-07

> <r_epik_State_Penalty>
-0

> <r_epik_Charging_Adjusted_Penalty>
6.24361e-11

> <i_epik_Tot_Q>
0

> <i_epik_Tot_abs_Q>
2

> <r_epik_Metal_State_Penalty>
-0

> <b_epik_Metal_Only>
0

> <s_lp_Force_Field>
OPLS_2005

> <r_lp_Energy>
29.2466

> <b_lp_Chiralities_Consistent>
1

> <s_lp_Variant>
AV-unprocessed.smi:638-1

> <Gold.Version>
5.8.1

> <Gold.Id.Protein>
6NUR|6NUR_protein|mol2

> <Gold.PLP.Fitness>
46.9065

> <Gold.PLP.PLP>
-40.8442

> <Gold.PLP.part.hbond>
-3.0000

> <Gold.PLP.part.metal>
0.0000

> <Gold.PLP.part.buried>
-3.3734

> <Gold.PLP.part.nonpolar>
-33.9604

> <Gold.PLP.part.repulsive>
0.1567

> <Gold.PLP.ligand.clash>
0.0000

> <Gold.PLP.ligand.torsion>
0.6632

> <Gold.PLP.Chemscore.Hbond>
2.4550

> <Gold.PLP.Chemscore.CHOScore>
0.0000

> <Gold.PLP.Chemscore.Metal>
0.0000

> <Gold.Chemscore.Hbonds>
donor molecule, donor type, donor heavy atom, donor atom, acceptor molecule, acceptor atom, score
      L1  H     4    24       P1  8028  1.00
      P1  H  6934  6946       L1     1  0.52
      P1  H  7997  8008       L1    13  1.00

> <Gold.PLP.Chemscore.Internal.Correction>
0.0237

> <Gold.Rescore>
     Score         DG    S(hbond)    S(metal)    S(lipo)     H(rot)  DE(clash)    DE(int)     intcor
     17.64     -20.22       2.70        0.00      84.60       1.63       0.10       2.48       ----

> <Gold.Chemscore.Fitness>
17.6426

> <Gold.Chemscore.DG>
-20.2219

> <Gold.Chemscore.ZeroCoef>
-5.4800

> <Gold.Chemscore.Hbond>
2.6985

> <Gold.Chemscore.Metal>
0.0000

> <Gold.Chemscore.Lipo>
84.5998

> <Gold.Chemscore.Internal_Hbond>
0.0000

> <Gold.Chemscore.DEClash>
0.0969

> <Gold.Chemscore.DEInternal>
2.4824

> <Gold.Chemscore.Rot>
1.6287

> <Gold.Chemscore.Internal.Correction>
   9.000000E+99

> <Gold.Chemscore.Hbonds>
donor molecule, donor type, donor heavy atom, donor atom, acceptor molecule, acceptor atom, score
      L1  H     4    24       P1  8028  0.99
      P1  H  6934  6946       L1     1  0.51
      P1  H  7997  8008       L1    13  1.00

> <Gold.Chemscore.Hbond.Weighted>
-9.0131

> <Gold.Chemscore.Metal.Weighted>
-0.0000

> <Gold.Chemscore.Lipo.Weighted>
-9.8982

> <Gold.Chemscore.Internal_Hbond.Weighted>
0.0000

> <Gold.Chemscore.DEClash.Weighted>
0.0969

> <Gold.Chemscore.DEInternal.Weighted>
2.4824

> <Gold.Chemscore.Rot.Weighted>
4.1694

> <Gold.Chemscore.Internal.Correction.Weighted>
   9.000000E+99

> <Gold.Protein.RotatedTorsions>
[ 6907 6896 6895 6894 ] final  -51.39 input  -60.11 | X-H torsion
[ 7974 7965 7964 7962 ] final   54.29 input  175.53 | X-H torsion
[ 8008 7997 7996 7995 ] final -117.67 input   59.86 | X-H torsion
[ 10167 10162 10161 10158 ] final   88.54 input  -65.29 | X-H torsion
[ 10718 10713 10712 10709 ] final -166.07 input   66.30 | X-H torsion
[ 10763 10752 10751 10750 ] final  -58.62 input  -60.55 | X-H torsion
[ 11005 11000 10999 10996 ] final   52.38 input  -57.11 | X-H torsion

> <Gold.Protein.ActiveResidues>
 VAL166  LYS551  ARG553  GLY616  TRP617  ASP618  TYR619  PRO620  LYS621  CYS622 
 ASP623  PHE694  ASN695  SER759  ASP760  ASP761  ALA762  ILE779  LEU786  VAL792 
 PHE793  MET794  SER795  GLU796  ALA797  LYS798  CYS799  TRP800  GLU811  SER814 

> <Gold.Protein.RotatedAtoms>
  150.8616  134.7970  159.7087 H   0  0  0  0  0  0  0  0  0  0  0  0  # atno 6907 bound_to 6896
  152.4651  134.5090  159.9758 H   0  0  0  0  0  0  0  0  0  0  0  0  # atno 6908 bound_to 6896
  151.5193  133.3431  159.2934 H   0  0  0  0  0  0  0  0  0  0  0  0  # atno 6909 bound_to 6896
  145.9623  139.4071  143.0240 H   0  0  0  0  0  0  0  0  0  0  0  0  # atno 7974 bound_to 7965
  155.0874  140.0394  157.2658 H   0  0  0  0  0  0  0  0  0  0  0  0  # atno 8008 bound_to 7997
  154.6858  140.2643  155.6837 H   0  0  0  0  0  0  0  0  0  0  0  0  # atno 8009 bound_to 7997
  156.2711  140.2769  156.1419 H   0  0  0  0  0  0  0  0  0  0  0  0  # atno 8010 bound_to 7997
  139.8662  144.6517  150.9001 H   0  0  0  0  0  0  0  0  0  0  0  0  # atno 10167 bound_to 10162
  156.6626  130.9052  151.3031 H   0  0  0  0  0  0  0  0  0  0  0  0  # atno 10718 bound_to 10713
  154.2410  135.6343  153.5207 H   0  0  0  0  0  0  0  0  0  0  0  0  # atno 10763 bound_to 10752
  152.9930  135.5542  154.5910 H   0  0  0  0  0  0  0  0  0  0  0  0  # atno 10764 bound_to 10752
  154.5416  135.2895  155.1065 H   0  0  0  0  0  0  0  0  0  0  0  0  # atno 10765 bound_to 10752
  140.0854  134.5281  155.8904 H   0  0  0  0  0  0  0  0  0  0  0  0  # atno 11005 bound_to 11000
  145.8022  140.9765  143.0993 LP  0  0  0  0  0  0  0  0  0  0  0  0  # atno 17320 bound_to 7965
  144.6818  139.9816  143.7483 LP  0  0  0  0  0  0  0  0  0  0  0  0  # atno 17321 bound_to 7965
  140.7768  143.3702  151.1663 LP  0  0  0  0  0  0  0  0  0  0  0  0  # atno 17342 bound_to 10162
  139.7327  143.9048  152.3024 LP  0  0  0  0  0  0  0  0  0  0  0  0  # atno 17343 bound_to 10162
  157.7104  130.9434  150.1071 LP  0  0  0  0  0  0  0  0  0  0  0  0  # atno 17370 bound_to 10713
  156.1999  130.3659  149.8801 LP  0  0  0  0  0  0  0  0  0  0  0  0  # atno 17371 bound_to 10713
  141.2061  133.6652  156.6220 LP  0  0  0  0  0  0  0  0  0  0  0  0  # atno 17394 bound_to 11000
  140.3427  134.7835  157.4410 LP  0  0  0  0  0  0  0  0  0  0  0  0  # atno 17395 bound_to 11000

$$$$
