AV-unprocessed.smi:177|AV-procd|sdf|1438|dock5
  -GOLD-   2262019223D 1   1.00000     0.00000
 Structure written by MMmdl.
 61 65  0  0  0  0  0  0  0  0  1 V2000
  149.3568  144.6692  160.1033 C   0  0  0  0  0  0  0  0  0  0  0  0
  149.9727  143.5976  159.4056 O   0  0  0  0  0  0  0  0  0  0  0  0
  151.1846  143.9376  158.7393 C   0  0  1  0  0  0  0  0  0  0  0  0
  152.1278  144.5709  159.7788 C   0  0  0  0  0  0  0  0  0  0  0  0
  152.6161  143.5437  160.8142 C   0  0  0  0  0  0  0  0  0  0  0  0
  153.2670  142.3361  160.1237 C   0  0  1  0  0  0  0  0  0  0  0  0
  153.6791  141.3975  161.1108 O   0  0  0  0  0  0  0  0  0  0  0  0
  154.3769  140.3010  160.5320 C   0  0  0  0  0  0  0  0  0  0  0  0
  153.4442  139.5579  159.5638 C   0  0  0  0  0  0  0  0  0  0  0  0
  152.9059  140.4707  158.5591 N   0  0  0  0  0  0  0  0  0  0  0  0
  152.2018  139.7762  157.6332 C   0  0  0  0  0  0  0  0  0  0  0  0
  152.4959  139.8933  156.3105 N   0  0  0  0  0  0  0  0  0  0  0  0
  151.7765  139.2257  155.4036 C   0  0  0  0  0  0  0  0  0  0  0  0
  150.7337  138.4154  155.5978 N   0  0  0  0  0  0  0  0  0  0  0  0
  150.4275  138.3073  156.9226 C   0  0  0  0  0  0  0  0  0  0  0  0
  151.1095  138.9445  157.9962 C   0  0  0  0  0  0  0  0  0  0  0  0
  150.5296  138.5921  159.2073 N   0  0  0  0  0  0  0  0  0  0  0  0
  149.5576  137.7900  158.8687 C   0  0  0  0  0  0  0  0  0  0  0  0
  149.4068  137.5824  157.5147 N   0  0  0  0  0  0  0  0  0  0  0  0
  148.4031  136.7490  156.8665 C   0  0  0  0  0  0  0  0  0  0  0  0
  148.6574  135.2108  156.9706 C   0  0  0  0  0  0  0  0  0  0  0  0
  148.4516  134.7085  158.4249 C   0  0  0  0  0  0  0  0  0  0  0  0
  149.0420  133.4424  158.6425 O   0  0  0  0  0  0  0  0  0  0  0  0
  147.6979  134.4061  156.0577 C   0  0  0  0  0  0  0  0  0  0  0  0
  148.0128  134.5789  154.5609 C   0  0  0  0  0  0  0  0  0  0  0  0
  149.3586  134.2001  154.3051 O   0  0  0  0  0  0  0  0  0  0  0  0
  150.2980  135.0136  154.9956 C   0  0  0  0  0  0  0  0  0  0  0  0
  150.0999  134.8735  156.5161 C   0  0  0  0  0  0  0  0  0  0  0  0
  152.2793  141.6627  159.1418 C   0  0  2  0  0  0  0  0  0  0  0  0
  151.8430  142.7040  158.0826 C   0  0  0  0  0  0  0  0  0  0  0  0
  148.4893  144.2935  160.6452 H   0  0  0  0  0  0  0  0  0  0  0  0
  149.0070  145.4484  159.4269 H   0  0  0  0  0  0  0  0  0  0  0  0
  150.0370  145.1129  160.8312 H   0  0  0  0  0  0  0  0  0  0  0  0
  150.9716  144.6872  157.9755 H   0  0  0  0  0  0  0  0  0  0  0  0
  152.9905  144.9991  159.2669 H   0  0  0  0  0  0  0  0  0  0  0  0
  151.6283  145.3997  160.2814 H   0  0  0  0  0  0  0  0  0  0  0  0
  153.3291  144.0136  161.4922 H   0  0  0  0  0  0  0  0  0  0  0  0
  151.7783  143.2103  161.4280 H   0  0  0  0  0  0  0  0  0  0  0  0
  154.1489  142.6836  159.5813 H   0  0  0  0  0  0  0  0  0  0  0  0
  155.2734  140.6516  160.0184 H   0  0  0  0  0  0  0  0  0  0  0  0
  154.7062  139.6303  161.3255 H   0  0  0  0  0  0  0  0  0  0  0  0
  153.9905  138.7440  159.0848 H   0  0  0  0  0  0  0  0  0  0  0  0
  152.6202  139.1070  160.1189 H   0  0  0  0  0  0  0  0  0  0  0  0
  152.0758  139.3644  154.3752 H   0  0  0  0  0  0  0  0  0  0  0  0
  148.9120  137.3321  159.6040 H   0  0  0  0  0  0  0  0  0  0  0  0
  147.4334  137.0167  157.2837 H   0  0  0  0  0  0  0  0  0  0  0  0
  148.3537  137.0487  155.8189 H   0  0  0  0  0  0  0  0  0  0  0  0
  148.8594  135.4155  159.1473 H   0  0  0  0  0  0  0  0  0  0  0  0
  147.3890  134.6246  158.6557 H   0  0  0  0  0  0  0  0  0  0  0  0
  148.7443  132.8530  157.9665 H   0  0  0  0  0  0  0  0  0  0  0  0
  147.7821  133.3440  156.2923 H   0  0  0  0  0  0  0  0  0  0  0  0
  146.6584  134.6656  156.2557 H   0  0  0  0  0  0  0  0  0  0  0  0
  147.3543  133.9440  153.9684 H   0  0  0  0  0  0  0  0  0  0  0  0
  147.8421  135.6019  154.2263 H   0  0  0  0  0  0  0  0  0  0  0  0
  151.3025  134.6898  154.7225 H   0  0  0  0  0  0  0  0  0  0  0  0
  150.2082  136.0510  154.6727 H   0  0  0  0  0  0  0  0  0  0  0  0
  150.8230  135.5007  157.0383 H   0  0  0  0  0  0  0  0  0  0  0  0
  150.3378  133.8453  156.7927 H   0  0  0  0  0  0  0  0  0  0  0  0
  151.4013  141.3408  159.7045 H   0  0  0  0  0  0  0  0  0  0  0  0
  151.1677  142.2712  157.3470 H   0  0  0  0  0  0  0  0  0  0  0  0
  152.7179  143.0260  157.5160 H   0  0  0  0  0  0  0  0  0  0  0  0
  1  2  1  0  0  0  0
  1 31  1  0  0  0  0
  1 32  1  0  0  0  0
  1 33  1  0  0  0  0
  2  3  1  0  0  0  0
  3 30  1  0  0  0  0
  3  4  1  0  0  0  0
  3 34  1  0  0  0  0
  4  5  1  0  0  0  0
  4 35  1  0  0  0  0
  4 36  1  0  0  0  0
  5  6  1  0  0  0  0
  5 37  1  0  0  0  0
  5 38  1  0  0  0  0
  6 29  1  0  0  0  0
  6  7  1  0  0  0  0
  6 39  1  0  0  0  0
  7  8  1  0  0  0  0
  8  9  1  0  0  0  0
  8 40  1  0  0  0  0
  8 41  1  0  0  0  0
  9 10  1  0  0  0  0
  9 42  1  0  0  0  0
  9 43  1  0  0  0  0
 10 11  1  0  0  0  0
 10 29  1  0  0  0  0
 11 16  1  0  0  0  0
 11 12  2  0  0  0  0
 12 13  1  0  0  0  0
 13 14  2  0  0  0  0
 13 44  1  0  0  0  0
 14 15  1  0  0  0  0
 15 19  1  0  0  0  0
 15 16  2  0  0  0  0
 16 17  1  0  0  0  0
 17 18  2  0  0  0  0
 18 19  1  0  0  0  0
 18 45  1  0  0  0  0
 19 20  1  0  0  0  0
 20 21  1  0  0  0  0
 20 46  1  0  0  0  0
 20 47  1  0  0  0  0
 21 28  1  0  0  0  0
 21 22  1  0  0  0  0
 21 24  1  0  0  0  0
 22 23  1  0  0  0  0
 22 48  1  0  0  0  0
 22 49  1  0  0  0  0
 23 50  1  0  0  0  0
 24 25  1  0  0  0  0
 24 51  1  0  0  0  0
 24 52  1  0  0  0  0
 25 26  1  0  0  0  0
 25 53  1  0  0  0  0
 25 54  1  0  0  0  0
 26 27  1  0  0  0  0
 27 28  1  0  0  0  0
 27 55  1  0  0  0  0
 27 56  1  0  0  0  0
 28 57  1  0  0  0  0
 28 58  1  0  0  0  0
 29 30  1  0  0  0  0
 29 59  1  0  0  0  0
 30 60  1  0  0  0  0
 30 61  1  0  0  0  0
M  END
> <s_m_source_file>
AV-unprocessed.smi

> <i_m_source_file_index>
177

> <i_lp_mmshare_version>
43012

> <i_f3d_flags>
0

> <s_epik_input>
W0NIM11PW0NASF0oW0NIMl1bQ0gyXTEpW0NIMl1bQ0BIXShbQ0BASF0xMilOKFtDSDJdW0NIMl1PMiljKG5bY0hdbjMpYyhjMzQpbltjSF1uNFtDSDJdQzUoW0NIMl1bT0hdKVtDSDJdW0NIMl1PW0NIMl1bQ0gyXTU=

> <s_epik_cmdline>
J2VwaWtfcHl0aG9uJywgJy1waCcsICc3LjAnLCAnLXRuJywgJzgnLCAnLW1hJywgJzIwMCcsICctbWV0YWxfYmluZGluZycsICctaW1hZScsICc8aW5maWxlLm1hZT4nLCAnLW9tYWUnLCAnPG91dGZpbGUubWFlPic=

> <r_lp_tautomer_probability>
1

> <r_epik_Ionization_Penalty>
0.0065899

> <r_epik_Ionization_Penalty_Charging>
0

> <r_epik_Ionization_Penalty_Neutral>
0.0065899

> <r_epik_State_Penalty>
0.00470042

> <r_epik_Charging_Adjusted_Penalty>
0.00470042

> <i_epik_Tot_Q>
0

> <i_epik_Tot_abs_Q>
0

> <r_epik_Metal_State_Penalty>
-0

> <b_epik_Metal_Only>
0

> <s_lp_Force_Field>
OPLS_2005

> <r_lp_Energy>
42.9311

> <b_lp_Chiralities_Consistent>
1

> <s_lp_Variant>
AV-unprocessed.smi:177-2

> <Gold.Version>
5.8.1

> <Gold.Id.Protein>
6NUR|6NUR_protein|mol2

> <Gold.PLP.Fitness>
48.1645

> <Gold.PLP.PLP>
-43.4416

> <Gold.PLP.part.hbond>
-3.9120

> <Gold.PLP.part.metal>
0.0000

> <Gold.PLP.part.buried>
-7.7167

> <Gold.PLP.part.nonpolar>
-32.0958

> <Gold.PLP.part.repulsive>
0.3080

> <Gold.PLP.ligand.clash>
0.0000

> <Gold.PLP.ligand.torsion>
0.7209

> <Gold.PLP.Chemscore.Hbond>
2.0000

> <Gold.PLP.Chemscore.CHOScore>
0.0000

> <Gold.PLP.Chemscore.Metal>
0.0000

> <Gold.Chemscore.Hbonds>
donor molecule, donor type, donor heavy atom, donor atom, acceptor molecule, acceptor atom, score
      P1  H  6896  6908       L1    23  1.00
      P1  H  7997  8009       L1    12  1.00

> <Gold.PLP.Chemscore.Internal.Correction>
0.1646

> <Gold.Rescore>
     Score         DG    S(hbond)    S(metal)    S(lipo)     H(rot)  DE(clash)    DE(int)     intcor
     16.12     -16.90       1.62        0.00     107.80       2.58       0.01       0.76       ----

> <Gold.Chemscore.Fitness>
16.1211

> <Gold.Chemscore.DG>
-16.8968

> <Gold.Chemscore.ZeroCoef>
-5.4800

> <Gold.Chemscore.Hbond>
1.6199

> <Gold.Chemscore.Metal>
0.0000

> <Gold.Chemscore.Lipo>
107.8009

> <Gold.Chemscore.Internal_Hbond>
0.0000

> <Gold.Chemscore.DEClash>
0.0111

> <Gold.Chemscore.DEInternal>
0.7646

> <Gold.Chemscore.Rot>
2.5806

> <Gold.Chemscore.Internal.Correction>
   9.000000E+99

> <Gold.Chemscore.Hbonds>
donor molecule, donor type, donor heavy atom, donor atom, acceptor molecule, acceptor atom, score
      P1  H  6896  6908       L1    23  0.63
      P1  H  7997  8009       L1    12  0.35

> <Gold.Chemscore.Hbond.Weighted>
-5.4104

> <Gold.Chemscore.Metal.Weighted>
-0.0000

> <Gold.Chemscore.Lipo.Weighted>
-12.6127

> <Gold.Chemscore.Internal_Hbond.Weighted>
0.0000

> <Gold.Chemscore.DEClash.Weighted>
0.0111

> <Gold.Chemscore.DEInternal.Weighted>
0.7646

> <Gold.Chemscore.Rot.Weighted>
6.6062

> <Gold.Chemscore.Internal.Correction.Weighted>
   9.000000E+99

> <Gold.Protein.RotatedTorsions>
[ 6907 6896 6895 6894 ] final  114.79 input  -60.11 | X-H torsion
[ 7974 7965 7964 7962 ] final  163.87 input  175.53 | X-H torsion
[ 8008 7997 7996 7995 ] final -163.33 input   59.86 | X-H torsion
[ 10167 10162 10161 10158 ] final -124.42 input  -65.29 | X-H torsion
[ 10718 10713 10712 10709 ] final  -71.40 input   66.30 | X-H torsion
[ 10763 10752 10751 10750 ] final -136.38 input  -60.55 | X-H torsion
[ 11005 11000 10999 10996 ] final -110.43 input  -57.11 | X-H torsion

> <Gold.Protein.ActiveResidues>
 VAL166  LYS551  ARG553  GLY616  TRP617  ASP618  TYR619  PRO620  LYS621  CYS622 
 ASP623  PHE694  ASN695  SER759  ASP760  ASP761  ALA762  ILE779  LEU786  VAL792 
 PHE793  MET794  SER795  GLU796  ALA797  LYS798  CYS799  TRP800  GLU811  SER814 

> <Gold.Protein.RotatedAtoms>
  152.4781  133.8187  159.7041 H   0  0  0  0  0  0  0  0  0  0  0  0  # atno 6907 bound_to 6896
  150.8811  133.7361  159.2938 H   0  0  0  0  0  0  0  0  0  0  0  0  # atno 6908 bound_to 6896
  151.4865  135.1058  159.9844 H   0  0  0  0  0  0  0  0  0  0  0  0  # atno 6909 bound_to 6896
  144.7570  139.8245  143.6346 H   0  0  0  0  0  0  0  0  0  0  0  0  # atno 7974 bound_to 7965
  155.8197  140.0917  157.1856 H   0  0  0  0  0  0  0  0  0  0  0  0  # atno 8008 bound_to 7997
  154.3979  140.1439  156.3545 H   0  0  0  0  0  0  0  0  0  0  0  0  # atno 8009 bound_to 7997
  155.8279  140.3444  155.5557 H   0  0  0  0  0  0  0  0  0  0  0  0  # atno 8010 bound_to 7997
  139.9930  143.5621  152.2334 H   0  0  0  0  0  0  0  0  0  0  0  0  # atno 10167 bound_to 10162
  156.0364  130.4351  150.2439 H   0  0  0  0  0  0  0  0  0  0  0  0  # atno 10718 bound_to 10713
  154.8685  135.3674  154.5052 H   0  0  0  0  0  0  0  0  0  0  0  0  # atno 10763 bound_to 10752
  153.5690  135.7021  153.5518 H   0  0  0  0  0  0  0  0  0  0  0  0  # atno 10764 bound_to 10752
  153.3559  135.4059  155.1645 H   0  0  0  0  0  0  0  0  0  0  0  0  # atno 10765 bound_to 10752
  141.0792  133.9249  157.2325 H   0  0  0  0  0  0  0  0  0  0  0  0  # atno 11005 bound_to 11000
  146.1592  139.4700  142.9999 LP  0  0  0  0  0  0  0  0  0  0  0  0  # atno 17320 bound_to 7965
  145.6745  141.0207  143.1639 LP  0  0  0  0  0  0  0  0  0  0  0  0  # atno 17321 bound_to 7965
  139.6326  144.7646  151.2504 LP  0  0  0  0  0  0  0  0  0  0  0  0  # atno 17342 bound_to 10162
  140.7447  143.6453  150.8298 LP  0  0  0  0  0  0  0  0  0  0  0  0  # atno 17343 bound_to 10162
  157.0537  131.0070  151.3245 LP  0  0  0  0  0  0  0  0  0  0  0  0  # atno 17370 bound_to 10713
  157.5121  130.7945  149.7716 LP  0  0  0  0  0  0  0  0  0  0  0  0  # atno 17371 bound_to 10713
  139.9605  135.0155  156.9248 LP  0  0  0  0  0  0  0  0  0  0  0  0  # atno 17394 bound_to 11000
  140.5506  134.0631  155.7368 LP  0  0  0  0  0  0  0  0  0  0  0  0  # atno 17395 bound_to 11000

$$$$
