AV-unprocessed.smi:1436|AV-procd|sdf|5862|dock9
  -GOLD-   22720 5533D 1   1.00000     0.00000
 Structure written by MMmdl.
 44 45  0  0  0  0  0  0  0  0  2 V2000
  149.0003  137.3054  158.8929 C   0  0  0  0  0  0  0  0  0  0  0  0
  148.3847  136.5696  160.0483 C   0  0  0  0  0  0  0  0  0  0  0  0
  148.0292  137.2345  161.1344 N   0  0  0  0  0  0  0  0  0  0  0  0
  147.4856  136.2851  162.0049 O   0  0  0  0  0  0  0  0  0  0  0  0
  147.5302  135.0718  161.3991 C   0  0  0  0  0  0  0  0  0  0  0  0
  146.9723  133.9195  162.1634 C   0  0  0  0  0  0  0  0  0  0  0  0
  148.0894  135.1804  160.1556 C   0  0  0  0  0  0  0  0  0  0  0  0
  148.3209  134.1031  159.1273 C   0  0  0  0  0  0  0  0  0  0  0  0
  147.6368  134.5203  157.8286 C   0  0  0  0  0  0  0  0  0  0  0  0
  146.7988  135.4212  157.8371 O   0  0  0  0  0  0  0  0  0  0  0  0
  147.9611  133.8114  156.7357 N   0  0  0  0  0  0  0  0  0  0  0  0
  147.2923  133.8840  155.4375 C   0  0  1  0  0  0  0  0  0  0  0  0
  148.3421  133.8705  154.3183 C   0  0  0  0  0  0  0  0  0  0  0  0
  146.2804  132.7247  155.2888 C   0  0  0  0  0  0  0  0  0  0  0  0
  145.4288  132.8402  154.0758 N   0  3  0  0  0  0  0  0  0  0  0  0
  145.0873  134.2383  153.7188 C   0  0  0  0  0  0  0  0  0  0  0  0
  144.1452  134.2590  152.5041 C   0  0  0  0  0  0  0  0  0  0  0  0
  144.7682  133.5946  151.4118 O   0  0  0  0  0  0  0  0  0  0  0  0
  145.0388  132.2290  151.7031 C   0  0  0  0  0  0  0  0  0  0  0  0
  145.9949  132.1306  152.9046 C   0  0  0  0  0  0  0  0  0  0  0  0
  148.3490  137.2711  158.0193 H   0  0  0  0  0  0  0  0  0  0  0  0
  149.9550  136.8606  158.6121 H   0  0  0  0  0  0  0  0  0  0  0  0
  149.1810  138.3547  159.1298 H   0  0  0  0  0  0  0  0  0  0  0  0
  146.0807  133.5281  161.6734 H   0  0  0  0  0  0  0  0  0  0  0  0
  146.6978  134.2150  163.1764 H   0  0  0  0  0  0  0  0  0  0  0  0
  147.7026  133.1132  162.2344 H   0  0  0  0  0  0  0  0  0  0  0  0
  149.3843  133.9500  158.9399 H   0  0  0  0  0  0  0  0  0  0  0  0
  147.9269  133.1402  159.4559 H   0  0  0  0  0  0  0  0  0  0  0  0
  148.6790  133.1075  156.8334 H   0  0  0  0  0  0  0  0  0  0  0  0
  146.7523  134.8279  155.3514 H   0  0  0  0  0  0  0  0  0  0  0  0
  147.8701  133.9444  153.3382 H   0  0  0  0  0  0  0  0  0  0  0  0
  148.9327  132.9536  154.3349 H   0  0  0  0  0  0  0  0  0  0  0  0
  149.0299  134.7114  154.4155 H   0  0  0  0  0  0  0  0  0  0  0  0
  146.7912  131.7608  155.2949 H   0  0  0  0  0  0  0  0  0  0  0  0
  145.6315  132.7307  156.1662 H   0  0  0  0  0  0  0  0  0  0  0  0
  144.6056  134.7409  154.5565 H   0  0  0  0  0  0  0  0  0  0  0  0
  145.9989  134.7942  153.4950 H   0  0  0  0  0  0  0  0  0  0  0  0
  143.1917  133.7845  152.7415 H   0  0  0  0  0  0  0  0  0  0  0  0
  143.9267  135.2869  152.2148 H   0  0  0  0  0  0  0  0  0  0  0  0
  144.1080  131.6983  151.9023 H   0  0  0  0  0  0  0  0  0  0  0  0
  145.4881  131.7626  150.8261 H   0  0  0  0  0  0  0  0  0  0  0  0
  146.9642  132.5618  152.6489 H   0  0  0  0  0  0  0  0  0  0  0  0
  146.1630  131.0816  153.1511 H   0  0  0  0  0  0  0  0  0  0  0  0
  144.5592  132.3743  154.2935 H   0  0  0  0  0  0  0  0  0  0  0  0
  1  2  1  0  0  0  0
  1 21  1  0  0  0  0
  1 22  1  0  0  0  0
  1 23  1  0  0  0  0
  2  7  1  0  0  0  0
  2  3  2  0  0  0  0
  3  4  1  0  0  0  0
  4  5  1  0  0  0  0
  5  6  1  0  0  0  0
  5  7  2  0  0  0  0
  6 24  1  0  0  0  0
  6 25  1  0  0  0  0
  6 26  1  0  0  0  0
  7  8  1  0  0  0  0
  8  9  1  0  0  0  0
  8 27  1  0  0  0  0
  8 28  1  0  0  0  0
  9 10  2  0  0  0  0
  9 11  1  0  0  0  0
 11 12  1  0  0  0  0
 11 29  1  0  0  0  0
 12 13  1  0  0  0  0
 12 14  1  0  0  0  0
 12 30  1  0  0  0  0
 13 31  1  0  0  0  0
 13 32  1  0  0  0  0
 13 33  1  0  0  0  0
 14 15  1  0  0  0  0
 14 34  1  0  0  0  0
 14 35  1  0  0  0  0
 15 20  1  0  0  0  0
 15 16  1  0  0  0  0
 15 44  1  0  0  0  0
 16 17  1  0  0  0  0
 16 36  1  0  0  0  0
 16 37  1  0  0  0  0
 17 18  1  0  0  0  0
 17 38  1  0  0  0  0
 17 39  1  0  0  0  0
 18 19  1  0  0  0  0
 19 20  1  0  0  0  0
 19 40  1  0  0  0  0
 19 41  1  0  0  0  0
 20 42  1  0  0  0  0
 20 43  1  0  0  0  0
M  CHG  1  15   1
M  END
> <s_m_source_file>
AV-unprocessed.smi

> <i_m_source_file_index>
1436

> <i_lp_mmshare_version>
43012

> <i_f3d_flags>
0

> <s_epik_input>
W0NIM11jMW5vYyhbQ0gzXSljMVtDSDJdQyg9TylbTkhdW0NASF0oW0NIM10pW0NIMl1OMltDSDJdW0NIMl1PW0NIMl1bQ0gyXTI=

> <s_epik_cmdline>
J2VwaWtfcHl0aG9uJywgJy1waCcsICc3LjAnLCAnLXRuJywgJzgnLCAnLW1hJywgJzIwMCcsICctbWV0YWxfYmluZGluZycsICctaW1hZScsICc8aW5maWxlLm1hZT4nLCAnLW9tYWUnLCAnPG91dGZpbGUubWFlPic=

> <r_epik_Ionization_Penalty>
0.663207

> <r_epik_Ionization_Penalty_Charging>
0.663207

> <r_epik_Ionization_Penalty_Neutral>
1.07515e-07

> <r_epik_State_Penalty>
0.682743

> <r_epik_Charging_Adjusted_Penalty>
1.34595

> <i_epik_Tot_Q>
1

> <i_epik_Tot_abs_Q>
1

> <r_epik_Metal_State_Penalty>
0.682743

> <b_epik_Metal_Only>
0

> <s_lp_Force_Field>
OPLS_2005

> <r_lp_Energy>
13.3676

> <b_lp_Chiralities_Consistent>
1

> <s_lp_Variant>
AV-unprocessed.smi:1436-4

> <Gold.Version>
5.8.1

> <Gold.Id.Protein>
6NUR|6NUR_protein|mol2

> <Gold.PLP.Fitness>
34.4872

> <Gold.PLP.PLP>
-24.5995

> <Gold.PLP.part.hbond>
-3.0000

> <Gold.PLP.part.metal>
0.0000

> <Gold.PLP.part.buried>
-4.8738

> <Gold.PLP.part.nonpolar>
-16.9957

> <Gold.PLP.part.repulsive>
0.1157

> <Gold.PLP.ligand.clash>
0.0000

> <Gold.PLP.ligand.torsion>
0.8473

> <Gold.PLP.Chemscore.Hbond>
3.8480

> <Gold.PLP.Chemscore.CHOScore>
0.0000

> <Gold.PLP.Chemscore.Metal>
0.0000

> <Gold.Chemscore.Hbonds>
donor molecule, donor type, donor heavy atom, donor atom, acceptor molecule, acceptor atom, score
      L1  H    15    44       P1 10957  2.00
      P1  H  6931  6943       L1     3  0.98
      P1  H  6934  6947       L1     3  0.69

> <Gold.PLP.Chemscore.Internal.Correction>
0.0382

> <Gold.Rescore>
     Score         DG    S(hbond)    S(metal)    S(lipo)     H(rot)  DE(clash)    DE(int)     intcor
     14.14     -15.85       2.55        0.00      55.01       1.79       0.03       1.68       ----

> <Gold.Chemscore.Fitness>
14.1426

> <Gold.Chemscore.DG>
-15.8540

> <Gold.Chemscore.ZeroCoef>
-5.4800

> <Gold.Chemscore.Hbond>
2.5538

> <Gold.Chemscore.Metal>
0.0000

> <Gold.Chemscore.Lipo>
55.0092

> <Gold.Chemscore.Internal_Hbond>
0.0000

> <Gold.Chemscore.DEClash>
0.0310

> <Gold.Chemscore.DEInternal>
1.6804

> <Gold.Chemscore.Rot>
1.7936

> <Gold.Chemscore.Internal.Correction>
   9.000000E+99

> <Gold.Chemscore.Hbonds>
donor molecule, donor type, donor heavy atom, donor atom, acceptor molecule, acceptor atom, score
      L1  H    15    44       P1 10957  0.52
      P1  H  6931  6943       L1     3  0.75
      P1  H  6934  6947       L1     3  0.65

> <Gold.Chemscore.Hbond.Weighted>
-8.5296

> <Gold.Chemscore.Metal.Weighted>
-0.0000

> <Gold.Chemscore.Lipo.Weighted>
-6.4361

> <Gold.Chemscore.Internal_Hbond.Weighted>
0.0000

> <Gold.Chemscore.DEClash.Weighted>
0.0310

> <Gold.Chemscore.DEInternal.Weighted>
1.6804

> <Gold.Chemscore.Rot.Weighted>
4.5916

> <Gold.Chemscore.Internal.Correction.Weighted>
   9.000000E+99

> <Gold.Protein.RotatedTorsions>
[ 6907 6896 6895 6894 ] final  -53.07 input  -60.11 | X-H torsion
[ 7974 7965 7964 7962 ] final   15.27 input  175.53 | X-H torsion
[ 8008 7997 7996 7995 ] final  130.43 input   59.86 | X-H torsion
[ 10167 10162 10161 10158 ] final  -95.16 input  -65.29 | X-H torsion
[ 10718 10713 10712 10709 ] final   33.01 input   66.30 | X-H torsion
[ 10763 10752 10751 10750 ] final  -36.93 input  -60.55 | X-H torsion
[ 11005 11000 10999 10996 ] final  176.36 input  -57.11 | X-H torsion

> <Gold.Protein.ActiveResidues>
 VAL166  LYS551  ARG553  GLY616  TRP617  ASP618  TYR619  PRO620  LYS621  CYS622 
 ASP623  PHE694  ASN695  SER759  ASP760  ASP761  ALA762  ILE779  LEU786  VAL792 
 PHE793  MET794  SER795  GLU796  ALA797  LYS798  CYS799  TRP800  GLU811  SER814 

> <Gold.Protein.RotatedAtoms>
  150.8460  134.7769  159.6970 H   0  0  0  0  0  0  0  0  0  0  0  0  # atno 6907 bound_to 6896
  152.4537  134.5336  159.9828 H   0  0  0  0  0  0  0  0  0  0  0  0  # atno 6908 bound_to 6896
  151.5466  133.3386  159.2981 H   0  0  0  0  0  0  0  0  0  0  0  0  # atno 6909 bound_to 6896
  146.2283  139.8919  142.8553 H   0  0  0  0  0  0  0  0  0  0  0  0  # atno 7974 bound_to 7965
  156.2954  140.2596  156.2760 H   0  0  0  0  0  0  0  0  0  0  0  0  # atno 8008 bound_to 7997
  154.9648  140.0392  157.2225 H   0  0  0  0  0  0  0  0  0  0  0  0  # atno 8009 bound_to 7997
  154.7913  140.2812  155.5994 H   0  0  0  0  0  0  0  0  0  0  0  0  # atno 8010 bound_to 7997
  140.3070  143.3127  152.0188 H   0  0  0  0  0  0  0  0  0  0  0  0  # atno 10167 bound_to 10162
  157.2924  130.7309  149.6618 H   0  0  0  0  0  0  0  0  0  0  0  0  # atno 10718 bound_to 10713
  153.8880  135.6815  153.4762 H   0  0  0  0  0  0  0  0  0  0  0  0  # atno 10763 bound_to 10752
  153.1197  135.4745  154.9172 H   0  0  0  0  0  0  0  0  0  0  0  0  # atno 10764 bound_to 10752
  154.7636  135.3218  154.8282 H   0  0  0  0  0  0  0  0  0  0  0  0  # atno 10765 bound_to 10752
  140.3723  134.7019  157.4400 H   0  0  0  0  0  0  0  0  0  0  0  0  # atno 11005 bound_to 11000
  145.2409  141.0008  143.3936 LP  0  0  0  0  0  0  0  0  0  0  0  0  # atno 17320 bound_to 7965
  144.9453  139.4143  143.6429 LP  0  0  0  0  0  0  0  0  0  0  0  0  # atno 17321 bound_to 7965
  139.4902  144.6413  151.6871 LP  0  0  0  0  0  0  0  0  0  0  0  0  # atno 17342 bound_to 10162
  140.5601  144.0283  150.6166 LP  0  0  0  0  0  0  0  0  0  0  0  0  # atno 17343 bound_to 10162
  155.9667  130.4305  150.4878 LP  0  0  0  0  0  0  0  0  0  0  0  0  # atno 17370 bound_to 10713
  157.2843  131.0613  151.2177 LP  0  0  0  0  0  0  0  0  0  0  0  0  # atno 17371 bound_to 10713
  140.0542  134.6087  155.8825 LP  0  0  0  0  0  0  0  0  0  0  0  0  # atno 17394 bound_to 11000
  141.1950  133.6585  156.5624 LP  0  0  0  0  0  0  0  0  0  0  0  0  # atno 17395 bound_to 11000

$$$$
