AV-unprocessed.smi:1246|AV-procd|sdf|5242|dock7
  -GOLD-   22720 4353D 1   1.00000     0.00000
 Structure written by MMmdl.
 35 36  0  0  0  0  0  0  0  0  1 V2000
  143.8031  132.2010  149.3778 C   0  0  0  0  0  0  0  0  0  0  0  0
  144.6382  133.1074  150.2332 C   0  0  0  0  0  0  0  0  0  0  0  0
  145.8555  132.8024  150.9094 C   0  0  0  0  0  0  0  0  0  0  0  0
  146.1638  133.9858  151.5230 C   0  0  0  0  0  0  0  0  0  0  0  0
  147.2244  134.2873  152.3182 N   0  0  0  0  0  0  0  0  0  0  0  0
  147.6597  133.6493  153.4183 C   0  0  0  0  0  0  0  0  0  0  0  0
  147.1582  132.6342  153.9022 O   0  0  0  0  0  0  0  0  0  0  0  0
  148.7309  134.2638  153.9398 N   0  0  0  0  0  0  0  0  0  0  0  0
  149.4372  133.8402  155.1434 C   0  0  0  0  0  0  0  0  0  0  0  0
  150.2303  132.5441  154.9084 C   0  0  1  0  0  0  0  0  0  0  0  0
  150.8263  131.9478  156.1796 C   0  0  0  0  0  0  0  0  0  0  0  0
  151.0542  130.5127  155.7599 C   0  0  0  0  0  0  0  0  0  0  0  0
  149.8575  130.2401  154.8486 C   0  0  0  0  0  0  0  0  0  0  0  0
  149.3805  131.5131  154.4170 O   0  0  0  0  0  0  0  0  0  0  0  0
  145.1890  134.9104  151.2211 N   0  0  0  0  0  0  0  0  0  0  0  0
  145.0724  136.2941  151.6376 C   0  0  0  0  0  0  0  0  0  0  0  0
  144.2473  134.3626  150.4230 N   0  0  0  0  0  0  0  0  0  0  0  0
  144.2065  131.1882  149.3654 H   0  0  0  0  0  0  0  0  0  0  0  0
  143.7681  132.5566  148.3478 H   0  0  0  0  0  0  0  0  0  0  0  0
  142.7787  132.1444  149.7470 H   0  0  0  0  0  0  0  0  0  0  0  0
  146.3931  131.8664  150.9290 H   0  0  0  0  0  0  0  0  0  0  0  0
  147.7510  135.1025  152.0411 H   0  0  0  0  0  0  0  0  0  0  0  0
  149.0755  135.0944  153.4809 H   0  0  0  0  0  0  0  0  0  0  0  0
  150.1043  134.6361  155.4785 H   0  0  0  0  0  0  0  0  0  0  0  0
  148.7058  133.6939  155.9387 H   0  0  0  0  0  0  0  0  0  0  0  0
  151.0300  132.7062  154.1832 H   0  0  0  0  0  0  0  0  0  0  0  0
  151.7398  132.4507  156.4983 H   0  0  0  0  0  0  0  0  0  0  0  0
  150.1067  131.9888  156.9987 H   0  0  0  0  0  0  0  0  0  0  0  0
  151.9817  130.4364  155.1909 H   0  0  0  0  0  0  0  0  0  0  0  0
  151.1145  129.8238  156.6028 H   0  0  0  0  0  0  0  0  0  0  0  0
  150.1316  129.6161  153.9979 H   0  0  0  0  0  0  0  0  0  0  0  0
  149.0596  129.7355  155.3942 H   0  0  0  0  0  0  0  0  0  0  0  0
  146.0059  136.8189  151.4331 H   0  0  0  0  0  0  0  0  0  0  0  0
  144.8647  136.3372  152.7071 H   0  0  0  0  0  0  0  0  0  0  0  0
  144.2647  136.7909  151.0982 H   0  0  0  0  0  0  0  0  0  0  0  0
  1  2  1  0  0  0  0
  1 18  1  0  0  0  0
  1 19  1  0  0  0  0
  1 20  1  0  0  0  0
  2 17  2  0  0  0  0
  2  3  1  0  0  0  0
  3  4  2  0  0  0  0
  3 21  1  0  0  0  0
  4  5  1  0  0  0  0
  4 15  1  0  0  0  0
  5  6  1  0  0  0  0
  5 22  1  0  0  0  0
  6  7  2  0  0  0  0
  6  8  1  0  0  0  0
  8  9  1  0  0  0  0
  8 23  1  0  0  0  0
  9 10  1  0  0  0  0
  9 24  1  0  0  0  0
  9 25  1  0  0  0  0
 10 14  1  0  0  0  0
 10 11  1  0  0  0  0
 10 26  1  0  0  0  0
 11 12  1  0  0  0  0
 11 27  1  0  0  0  0
 11 28  1  0  0  0  0
 12 13  1  0  0  0  0
 12 29  1  0  0  0  0
 12 30  1  0  0  0  0
 13 14  1  0  0  0  0
 13 31  1  0  0  0  0
 13 32  1  0  0  0  0
 15 16  1  0  0  0  0
 15 17  1  0  0  0  0
 16 33  1  0  0  0  0
 16 34  1  0  0  0  0
 16 35  1  0  0  0  0
M  END
> <s_m_source_file>
AV-unprocessed.smi

> <i_m_source_file_index>
1246

> <i_lp_mmshare_version>
43012

> <i_f3d_flags>
0

> <s_epik_input>
W0NIM11jMVtjSF1jKG4objEpW0NIM10pW05IXUMoPU8pW05IXVtDSDJdW0NAQEhdMltDSDJdW0NIMl1bQ0gyXU8y

> <s_epik_cmdline>
J2VwaWtfcHl0aG9uJywgJy1waCcsICc3LjAnLCAnLXRuJywgJzgnLCAnLW1hJywgJzIwMCcsICctbWV0YWxfYmluZGluZycsICctaW1hZScsICc8aW5maWxlLm1hZT4nLCAnLW9tYWUnLCAnPG91dGZpbGUubWFlPic=

> <r_lp_tautomer_probability>
1

> <r_epik_Ionization_Penalty>
9.6187e-05

> <r_epik_Ionization_Penalty_Charging>
0

> <r_epik_Ionization_Penalty_Neutral>
9.6187e-05

> <r_epik_State_Penalty>
-0

> <r_epik_Charging_Adjusted_Penalty>
0

> <i_epik_Tot_Q>
0

> <i_epik_Tot_abs_Q>
0

> <r_epik_Metal_State_Penalty>
-0

> <b_epik_Metal_Only>
0

> <s_lp_Force_Field>
OPLS_2005

> <r_lp_Energy>
18.0702

> <b_lp_Chiralities_Consistent>
1

> <s_lp_Variant>
AV-unprocessed.smi:1246-2

> <Gold.Version>
5.8.1

> <Gold.Id.Protein>
6NUR|6NUR_protein|mol2

> <Gold.PLP.Fitness>
33.8867

> <Gold.PLP.PLP>
-29.2638

> <Gold.PLP.part.hbond>
-2.0000

> <Gold.PLP.part.metal>
0.0000

> <Gold.PLP.part.buried>
-2.9585

> <Gold.PLP.part.nonpolar>
-23.7742

> <Gold.PLP.part.repulsive>
0.3535

> <Gold.PLP.ligand.clash>
0.0000

> <Gold.PLP.ligand.torsion>
0.5587

> <Gold.PLP.Chemscore.Hbond>
1.9120

> <Gold.PLP.Chemscore.CHOScore>
0.0000

> <Gold.PLP.Chemscore.Metal>
0.0000

> <Gold.Chemscore.Hbonds>
donor molecule, donor type, donor heavy atom, donor atom, acceptor molecule, acceptor atom, score
      L1  H     5    22       P1  7948  1.00
      L1  H     8    23       P1  7948  0.91

> <Gold.PLP.Chemscore.Internal.Correction>
0.0043

> <Gold.Rescore>
     Score         DG    S(hbond)    S(metal)    S(lipo)     H(rot)  DE(clash)    DE(int)     intcor
     11.77     -14.39       1.57        0.00      58.70       1.25       0.52       2.10       ----

> <Gold.Chemscore.Fitness>
11.7651

> <Gold.Chemscore.DG>
-14.3940

> <Gold.Chemscore.ZeroCoef>
-5.4800

> <Gold.Chemscore.Hbond>
1.5689

> <Gold.Chemscore.Metal>
0.0000

> <Gold.Chemscore.Lipo>
58.7044

> <Gold.Chemscore.Internal_Hbond>
0.0000

> <Gold.Chemscore.DEClash>
0.5243

> <Gold.Chemscore.DEInternal>
2.1045

> <Gold.Chemscore.Rot>
1.2478

> <Gold.Chemscore.Internal.Correction>
   9.000000E+99

> <Gold.Chemscore.Hbonds>
donor molecule, donor type, donor heavy atom, donor atom, acceptor molecule, acceptor atom, score
      L1  H     5    22       P1  7948  0.87
      L1  H     8    23       P1  7948  0.26

> <Gold.Chemscore.Hbond.Weighted>
-5.2400

> <Gold.Chemscore.Metal.Weighted>
-0.0000

> <Gold.Chemscore.Lipo.Weighted>
-6.8684

> <Gold.Chemscore.Internal_Hbond.Weighted>
0.0000

> <Gold.Chemscore.DEClash.Weighted>
0.5243

> <Gold.Chemscore.DEInternal.Weighted>
2.1045

> <Gold.Chemscore.Rot.Weighted>
3.1944

> <Gold.Chemscore.Internal.Correction.Weighted>
   9.000000E+99

> <Gold.Protein.RotatedTorsions>
[ 6907 6896 6895 6894 ] final   76.89 input  -60.11 | X-H torsion
[ 7974 7965 7964 7962 ] final  150.94 input  175.53 | X-H torsion
[ 8008 7997 7996 7995 ] final  -96.80 input   59.86 | X-H torsion
[ 10167 10162 10161 10158 ] final -173.87 input  -65.29 | X-H torsion
[ 10718 10713 10712 10709 ] final   74.33 input   66.30 | X-H torsion
[ 10763 10752 10751 10750 ] final  156.85 input  -60.55 | X-H torsion
[ 11005 11000 10999 10996 ] final -168.67 input  -57.11 | X-H torsion

> <Gold.Protein.ActiveResidues>
 VAL166  LYS551  ARG553  GLY616  TRP617  ASP618  TYR619  PRO620  LYS621  CYS622 
 ASP623  PHE694  ASN695  SER759  ASP760  ASP761  ALA762  ILE779  LEU786  VAL792 
 PHE793  MET794  SER795  GLU796  ALA797  LYS798  CYS799  TRP800  GLU811  SER814 

> <Gold.Protein.RotatedAtoms>
  152.5093  134.3899  159.9380 H   0  0  0  0  0  0  0  0  0  0  0  0  # atno 6907 bound_to 6896
  151.3859  133.3799  159.2723 H   0  0  0  0  0  0  0  0  0  0  0  0  # atno 6908 bound_to 6896
  150.9469  134.8893  159.7706 H   0  0  0  0  0  0  0  0  0  0  0  0  # atno 6909 bound_to 6896
  144.8328  139.6473  143.6051 H   0  0  0  0  0  0  0  0  0  0  0  0  # atno 7974 bound_to 7965
  154.7793  140.0468  157.1114 H   0  0  0  0  0  0  0  0  0  0  0  0  # atno 8008 bound_to 7997
  154.9725  140.3091  155.4962 H   0  0  0  0  0  0  0  0  0  0  0  0  # atno 8009 bound_to 7997
  156.2934  140.2251  156.4818 H   0  0  0  0  0  0  0  0  0  0  0  0  # atno 8010 bound_to 7997
  139.5665  144.1744  152.1320 H   0  0  0  0  0  0  0  0  0  0  0  0  # atno 10167 bound_to 10162
  157.6587  130.9672  150.1196 H   0  0  0  0  0  0  0  0  0  0  0  0  # atno 10718 bound_to 10713
  154.1908  135.2795  155.3022 H   0  0  0  0  0  0  0  0  0  0  0  0  # atno 10763 bound_to 10752
  154.5930  135.5554  153.7301 H   0  0  0  0  0  0  0  0  0  0  0  0  # atno 10764 bound_to 10752
  153.0113  135.6373  154.2047 H   0  0  0  0  0  0  0  0  0  0  0  0  # atno 10765 bound_to 10752
  140.5394  134.5538  157.5095 H   0  0  0  0  0  0  0  0  0  0  0  0  # atno 11005 bound_to 11000
  146.2630  139.6453  142.9349 LP  0  0  0  0  0  0  0  0  0  0  0  0  # atno 17320 bound_to 7965
  145.4859  141.0438  143.2620 LP  0  0  0  0  0  0  0  0  0  0  0  0  # atno 17321 bound_to 7965
  140.1268  144.5324  150.6828 LP  0  0  0  0  0  0  0  0  0  0  0  0  # atno 17342 bound_to 10162
  140.6948  143.2397  151.5030 LP  0  0  0  0  0  0  0  0  0  0  0  0  # atno 17343 bound_to 10162
  156.2071  130.3664  149.8716 LP  0  0  0  0  0  0  0  0  0  0  0  0  # atno 17370 bound_to 10713
  156.6604  130.8780  151.3546 LP  0  0  0  0  0  0  0  0  0  0  0  0  # atno 17371 bound_to 10713
  139.9512  134.7614  156.0444 LP  0  0  0  0  0  0  0  0  0  0  0  0  # atno 17394 bound_to 11000
  141.1236  133.6605  156.3278 LP  0  0  0  0  0  0  0  0  0  0  0  0  # atno 17395 bound_to 11000

$$$$
