AV-unprocessed.smi:1325|AV-procd|sdf|5472|dock10
  -GOLD-   22720 5 43D 1   1.00000     0.00000
 Structure written by MMmdl.
 35 36  0  0  0  0  0  0  0  0  1 V2000
  154.0508  136.2998  162.6184 C   0  0  0  0  0  0  0  0  0  0  0  0
  154.0741  136.8507  161.2181 C   0  0  0  0  0  0  0  0  0  0  0  0
  153.5419  138.0155  161.0438 N   0  0  0  0  0  0  0  0  0  0  0  0
  153.5068  138.6120  159.7980 N   0  0  0  0  0  0  0  0  0  0  0  0
  152.8473  139.9239  159.7830 C   0  0  0  0  0  0  0  0  0  0  0  0
  153.7179  141.0188  160.4382 C   0  0  2  0  0  0  0  0  0  0  0  0
  153.9520  140.6759  161.7899 O   0  0  0  0  0  0  0  0  0  0  0  0
  153.0534  142.3827  160.3269 C   0  0  0  0  0  0  0  0  0  0  0  0
  152.7978  142.9409  159.0558 C   0  0  0  0  0  0  0  0  0  0  0  0
  152.1763  144.2002  158.9449 C   0  0  0  0  0  0  0  0  0  0  0  0
  151.8048  144.9078  160.1041 C   0  0  0  0  0  0  0  0  0  0  0  0
  152.0538  144.3548  161.3748 C   0  0  0  0  0  0  0  0  0  0  0  0
  152.6753  143.0958  161.4863 C   0  0  0  0  0  0  0  0  0  0  0  0
  154.0119  138.0594  158.6584 C   0  0  0  0  0  0  0  0  0  0  0  0
  153.9591  138.6243  157.5651 O   0  0  0  0  0  0  0  0  0  0  0  0
  154.6145  136.7402  158.8635 C   0  0  0  0  0  0  0  0  0  0  0  0
  155.1547  136.1244  157.6946 C   0  0  0  0  0  0  0  0  0  0  0  0
  155.5745  135.6290  156.7363 N   0  0  0  0  0  0  0  0  0  0  0  0
  154.6548  136.1439  160.0813 C   0  0  0  0  0  0  0  0  0  0  0  0
  155.2676  134.7757  160.3466 C   0  0  0  0  0  0  0  0  0  0  0  0
  155.0631  136.1172  162.9800 H   0  0  0  0  0  0  0  0  0  0  0  0
  153.5024  135.3584  162.6546 H   0  0  0  0  0  0  0  0  0  0  0  0
  153.5703  136.9860  163.3176 H   0  0  0  0  0  0  0  0  0  0  0  0
  152.6791  140.1872  158.7368 H   0  0  0  0  0  0  0  0  0  0  0  0
  151.8495  139.8969  160.2251 H   0  0  0  0  0  0  0  0  0  0  0  0
  154.6864  141.0687  159.9386 H   0  0  0  0  0  0  0  0  0  0  0  0
  153.3492  141.1625  162.3310 H   0  0  0  0  0  0  0  0  0  0  0  0
  153.0759  142.4053  158.1600 H   0  0  0  0  0  0  0  0  0  0  0  0
  151.9841  144.6230  157.9697 H   0  0  0  0  0  0  0  0  0  0  0  0
  151.3280  145.8730  160.0188 H   0  0  0  0  0  0  0  0  0  0  0  0
  151.7672  144.8958  162.2646 H   0  0  0  0  0  0  0  0  0  0  0  0
  152.8594  142.6779  162.4652 H   0  0  0  0  0  0  0  0  0  0  0  0
  155.6795  134.3254  159.4440 H   0  0  0  0  0  0  0  0  0  0  0  0
  154.5167  134.0902  160.7410 H   0  0  0  0  0  0  0  0  0  0  0  0
  156.0779  134.8529  161.0723 H   0  0  0  0  0  0  0  0  0  0  0  0
  1  2  1  0  0  0  0
  1 21  1  0  0  0  0
  1 22  1  0  0  0  0
  1 23  1  0  0  0  0
  2 19  1  0  0  0  0
  2  3  2  0  0  0  0
  3  4  1  0  0  0  0
  4  5  1  0  0  0  0
  4 14  1  0  0  0  0
  5  6  1  0  0  0  0
  5 24  1  0  0  0  0
  5 25  1  0  0  0  0
  6  7  1  0  0  0  0
  6  8  1  0  0  0  0
  6 26  1  0  0  0  0
  7 27  1  0  0  0  0
  8 13  1  0  0  0  0
  8  9  2  0  0  0  0
  9 10  1  0  0  0  0
  9 28  1  0  0  0  0
 10 11  2  0  0  0  0
 10 29  1  0  0  0  0
 11 12  1  0  0  0  0
 11 30  1  0  0  0  0
 12 13  2  0  0  0  0
 12 31  1  0  0  0  0
 13 32  1  0  0  0  0
 14 15  2  0  0  0  0
 14 16  1  0  0  0  0
 16 17  1  0  0  0  0
 16 19  2  0  0  0  0
 17 18  3  0  0  0  0
 19 20  1  0  0  0  0
 20 33  1  0  0  0  0
 20 34  1  0  0  0  0
 20 35  1  0  0  0  0
M  END
> <s_m_source_file>
AV-unprocessed.smi

> <i_m_source_file_index>
1325

> <i_lp_mmshare_version>
43012

> <i_f3d_flags>
0

> <s_epik_input>
TiNDYyhjMVtDSDNdKWMoPU8pbihuYzFbQ0gzXSlbQ0gyXVtDQEhdKFtPSF0pYzJbY0hdW2NIXVtjSF1bY0hdW2NIXTI=

> <s_epik_cmdline>
J2VwaWtfcHl0aG9uJywgJy1waCcsICc3LjAnLCAnLXRuJywgJzgnLCAnLW1hJywgJzIwMCcsICctbWV0YWxfYmluZGluZycsICctaW1hZScsICc8aW5maWxlLm1hZT4nLCAnLW9tYWUnLCAnPG91dGZpbGUubWFlPic=

> <r_lp_tautomer_probability>
1

> <r_epik_Ionization_Penalty>
7.1854e-08

> <r_epik_Ionization_Penalty_Charging>
1.40848e-10

> <r_epik_Ionization_Penalty_Neutral>
7.17131e-08

> <r_epik_State_Penalty>
-0

> <r_epik_Charging_Adjusted_Penalty>
1.40848e-10

> <i_epik_Tot_Q>
0

> <i_epik_Tot_abs_Q>
0

> <r_epik_Metal_State_Penalty>
-0

> <b_epik_Metal_Only>
0

> <s_lp_Force_Field>
OPLS_2005

> <r_lp_Energy>
27.9871

> <b_lp_Chiralities_Consistent>
1

> <s_lp_Variant>
AV-unprocessed.smi:1325-1

> <Gold.Version>
5.8.1

> <Gold.Id.Protein>
6NUR|6NUR_protein|mol2

> <Gold.PLP.Fitness>
47.4281

> <Gold.PLP.PLP>
-41.7816

> <Gold.PLP.part.hbond>
-2.0000

> <Gold.PLP.part.metal>
0.0000

> <Gold.PLP.part.buried>
-5.4931

> <Gold.PLP.part.nonpolar>
-33.8824

> <Gold.PLP.part.repulsive>
0.0000

> <Gold.PLP.ligand.clash>
0.0000

> <Gold.PLP.ligand.torsion>
0.1677

> <Gold.PLP.Chemscore.Hbond>
1.9920

> <Gold.PLP.Chemscore.CHOScore>
0.0000

> <Gold.PLP.Chemscore.Metal>
0.0000

> <Gold.Chemscore.Hbonds>
donor molecule, donor type, donor heavy atom, donor atom, acceptor molecule, acceptor atom, score
      P1  H  7997  8009       L1    15  0.99
      P1  H 10752 10764       L1    18  1.00

> <Gold.PLP.Chemscore.Internal.Correction>
0.0060

> <Gold.Rescore>
     Score         DG    S(hbond)    S(metal)    S(lipo)     H(rot)  DE(clash)    DE(int)     intcor
     20.79     -21.01       1.97        0.00     118.09       1.90       0.12       0.10       ----

> <Gold.Chemscore.Fitness>
20.7918

> <Gold.Chemscore.DG>
-21.0111

> <Gold.Chemscore.ZeroCoef>
-5.4800

> <Gold.Chemscore.Hbond>
1.9732

> <Gold.Chemscore.Metal>
0.0000

> <Gold.Chemscore.Lipo>
118.0904

> <Gold.Chemscore.Internal_Hbond>
0.0000

> <Gold.Chemscore.DEClash>
0.1200

> <Gold.Chemscore.DEInternal>
0.0993

> <Gold.Chemscore.Rot>
1.9047

> <Gold.Chemscore.Internal.Correction>
   9.000000E+99

> <Gold.Chemscore.Hbonds>
donor molecule, donor type, donor heavy atom, donor atom, acceptor molecule, acceptor atom, score
      P1  H  7997  8009       L1    15  0.93
      P1  H 10752 10764       L1    18  0.99

> <Gold.Chemscore.Hbond.Weighted>
-6.5906

> <Gold.Chemscore.Metal.Weighted>
-0.0000

> <Gold.Chemscore.Lipo.Weighted>
-13.8166

> <Gold.Chemscore.Internal_Hbond.Weighted>
0.0000

> <Gold.Chemscore.DEClash.Weighted>
0.1200

> <Gold.Chemscore.DEInternal.Weighted>
0.0993

> <Gold.Chemscore.Rot.Weighted>
4.8760

> <Gold.Chemscore.Internal.Correction.Weighted>
   9.000000E+99

> <Gold.Protein.RotatedTorsions>
[ 6907 6896 6895 6894 ] final  -29.84 input  -60.11 | X-H torsion
[ 7974 7965 7964 7962 ] final -122.48 input  175.53 | X-H torsion
[ 8008 7997 7996 7995 ] final  154.88 input   59.86 | X-H torsion
[ 10167 10162 10161 10158 ] final  108.92 input  -65.29 | X-H torsion
[ 10718 10713 10712 10709 ] final  157.93 input   66.30 | X-H torsion
[ 10763 10752 10751 10750 ] final   70.36 input  -60.55 | X-H torsion
[ 11005 11000 10999 10996 ] final  136.84 input  -57.11 | X-H torsion

> <Gold.Protein.ActiveResidues>
 VAL166  LYS551  ARG553  GLY616  TRP617  ASP618  TYR619  PRO620  LYS621  CYS622 
 ASP623  PHE694  ASN695  SER759  ASP760  ASP761  ALA762  ILE779  LEU786  VAL792 
 PHE793  MET794  SER795  GLU796  ALA797  LYS798  CYS799  TRP800  GLU811  SER814 

> <Gold.Protein.RotatedAtoms>
  151.1137  135.0041  159.8505 H   0  0  0  0  0  0  0  0  0  0  0  0  # atno 6907 bound_to 6896
  152.5444  134.1805  159.8643 H   0  0  0  0  0  0  0  0  0  0  0  0  # atno 6908 bound_to 6896
  151.1857  133.4653  159.2627 H   0  0  0  0  0  0  0  0  0  0  0  0  # atno 6909 bound_to 6896
  145.0290  140.8052  143.4335 H   0  0  0  0  0  0  0  0  0  0  0  0  # atno 7974 bound_to 7965
  156.2508  140.1954  156.6714 H   0  0  0  0  0  0  0  0  0  0  0  0  # atno 8008 bound_to 7997
  154.6390  140.0586  156.9848 H   0  0  0  0  0  0  0  0  0  0  0  0  # atno 8009 bound_to 7997
  155.1593  140.3258  155.4417 H   0  0  0  0  0  0  0  0  0  0  0  0  # atno 8010 bound_to 7997
  139.6807  144.7118  151.1520 H   0  0  0  0  0  0  0  0  0  0  0  0  # atno 10167 bound_to 10162
  157.1848  131.0641  151.2112 H   0  0  0  0  0  0  0  0  0  0  0  0  # atno 10718 bound_to 10713
  153.0337  135.5177  154.7429 H   0  0  0  0  0  0  0  0  0  0  0  0  # atno 10763 bound_to 10752
  154.6423  135.2914  155.0091 H   0  0  0  0  0  0  0  0  0  0  0  0  # atno 10764 bound_to 10752
  154.1004  135.6637  153.4920 H   0  0  0  0  0  0  0  0  0  0  0  0  # atno 10765 bound_to 10752
  140.0073  134.9454  157.0203 H   0  0  0  0  0  0  0  0  0  0  0  0  # atno 11005 bound_to 11000
  145.1795  139.2359  143.5300 LP  0  0  0  0  0  0  0  0  0  0  0  0  # atno 17320 bound_to 7965
  146.3496  140.1566  142.8591 LP  0  0  0  0  0  0  0  0  0  0  0  0  # atno 17321 bound_to 7965
  140.7651  143.5703  150.9003 LP  0  0  0  0  0  0  0  0  0  0  0  0  # atno 17342 bound_to 10162
  139.9375  143.6421  152.3062 LP  0  0  0  0  0  0  0  0  0  0  0  0  # atno 17343 bound_to 10162
  157.3918  130.7286  149.6703 LP  0  0  0  0  0  0  0  0  0  0  0  0  # atno 17370 bound_to 10713
  155.9719  130.4144  150.4132 LP  0  0  0  0  0  0  0  0  0  0  0  0  # atno 17371 bound_to 10713
  140.4617  134.1477  155.7192 LP  0  0  0  0  0  0  0  0  0  0  0  0  # atno 17394 bound_to 11000
  141.1686  133.8653  157.1639 LP  0  0  0  0  0  0  0  0  0  0  0  0  # atno 17395 bound_to 11000

$$$$
