AV-unprocessed.smi:2245|AV-procd|sdf|9078|dock10
  -GOLD-   2272012283D 1   1.00000     0.00000
 Structure written by MMmdl.
 45 46  0  0  0  0  0  0  0  0  2 V2000
  151.8711  145.8915  160.2562 C   0  0  0  0  0  0  0  0  0  0  0  0
  151.9576  144.5420  159.5749 C   0  0  0  0  0  0  0  0  0  0  0  0
  152.7936  143.5297  160.0836 C   0  0  0  0  0  0  0  0  0  0  0  0
  152.8281  142.2940  159.4083 C   0  0  0  0  0  0  0  0  0  0  0  0
  153.7043  141.1611  159.8999 C   0  0  0  0  0  0  0  0  0  0  0  0
  152.0978  142.0388  158.3017 N   0  0  0  0  0  0  0  0  0  0  0  0
  151.2892  143.0064  157.8024 C   0  0  0  0  0  0  0  0  0  0  0  0
  150.4806  142.8382  156.6470 N   0  0  0  0  0  0  0  0  0  0  0  0
  150.2458  141.7092  155.9552 C   0  0  0  0  0  0  0  0  0  0  0  0
  150.7280  140.6043  156.2063 O   0  0  0  0  0  0  0  0  0  0  0  0
  149.3983  141.9288  154.9394 N   0  0  0  0  0  0  0  0  0  0  0  0
  148.9305  140.9126  154.0020 C   0  0  0  0  0  0  0  0  0  0  0  0
  147.4094  140.6798  154.0994 C   0  0  2  0  0  0  0  0  0  0  0  0
  146.8357  140.8838  155.5005 C   0  0  0  0  0  0  0  0  0  0  0  0
  145.5401  140.0607  155.5114 C   0  0  0  0  0  0  0  0  0  0  0  0
  145.5964  139.1539  154.3392 N   0  3  2  0  0  0  0  0  0  0  0  0
  145.1464  137.7624  154.5844 C   0  0  0  0  0  0  0  0  0  0  0  0
  144.5031  137.1218  153.3420 C   0  0  0  0  0  0  0  0  0  0  0  0
  144.2400  135.8417  153.6001 F   0  0  0  0  0  0  0  0  0  0  0  0
  143.3627  137.7314  153.0196 F   0  0  0  0  0  0  0  0  0  0  0  0
  145.3429  137.1862  152.3089 F   0  0  0  0  0  0  0  0  0  0  0  0
  146.9537  139.2587  153.7685 C   0  0  0  0  0  0  0  0  0  0  0  0
  151.1960  144.2742  158.4192 C   0  0  0  0  0  0  0  0  0  0  0  0
  152.7199  146.0508  160.9220 H   0  0  0  0  0  0  0  0  0  0  0  0
  150.9557  145.9574  160.8447 H   0  0  0  0  0  0  0  0  0  0  0  0
  151.8644  146.6935  159.5176 H   0  0  0  0  0  0  0  0  0  0  0  0
  153.3915  143.6959  160.9681 H   0  0  0  0  0  0  0  0  0  0  0  0
  154.2858  141.4597  160.7725 H   0  0  0  0  0  0  0  0  0  0  0  0
  154.3988  140.8515  159.1182 H   0  0  0  0  0  0  0  0  0  0  0  0
  153.0925  140.3018  160.1764 H   0  0  0  0  0  0  0  0  0  0  0  0
  150.0197  143.6728  156.3166 H   0  0  0  0  0  0  0  0  0  0  0  0
  149.0572  142.8689  154.7999 H   0  0  0  0  0  0  0  0  0  0  0  0
  149.1970  141.2380  152.9960 H   0  0  0  0  0  0  0  0  0  0  0  0
  149.4676  139.9785  154.1758 H   0  0  0  0  0  0  0  0  0  0  0  0
  146.8952  141.3673  153.4256 H   0  0  0  0  0  0  0  0  0  0  0  0
  147.5232  140.4862  156.2485 H   0  0  0  0  0  0  0  0  0  0  0  0
  146.6656  141.9354  155.7334 H   0  0  0  0  0  0  0  0  0  0  0  0
  145.4478  139.5152  156.4515 H   0  0  0  0  0  0  0  0  0  0  0  0
  144.6650  140.7040  155.4143 H   0  0  0  0  0  0  0  0  0  0  0  0
  146.0173  137.1671  154.8630 H   0  0  0  0  0  0  0  0  0  0  0  0
  144.4654  137.7312  155.4362 H   0  0  0  0  0  0  0  0  0  0  0  0
  146.9514  139.0571  152.6967 H   0  0  0  0  0  0  0  0  0  0  0  0
  147.6132  138.5336  154.2491 H   0  0  0  0  0  0  0  0  0  0  0  0
  150.5467  145.0365  158.0126 H   0  0  0  0  0  0  0  0  0  0  0  0
  144.9766  139.5488  153.6460 H   0  0  0  0  0  0  0  0  0  0  0  0
  1  2  1  0  0  0  0
  1 24  1  0  0  0  0
  1 25  1  0  0  0  0
  1 26  1  0  0  0  0
  2 23  1  0  0  0  0
  2  3  2  0  0  0  0
  3  4  1  0  0  0  0
  3 27  1  0  0  0  0
  4  5  1  0  0  0  0
  4  6  2  0  0  0  0
  5 28  1  0  0  0  0
  5 29  1  0  0  0  0
  5 30  1  0  0  0  0
  6  7  1  0  0  0  0
  7  8  1  0  0  0  0
  7 23  2  0  0  0  0
  8  9  1  0  0  0  0
  8 31  1  0  0  0  0
  9 10  2  0  0  0  0
  9 11  1  0  0  0  0
 11 12  1  0  0  0  0
 11 32  1  0  0  0  0
 12 13  1  0  0  0  0
 12 33  1  0  0  0  0
 12 34  1  0  0  0  0
 13 22  1  0  0  0  0
 13 14  1  0  0  0  0
 13 35  1  0  0  0  0
 14 15  1  0  0  0  0
 14 36  1  0  0  0  0
 14 37  1  0  0  0  0
 15 16  1  0  0  0  0
 15 38  1  0  0  0  0
 15 39  1  0  0  0  0
 16 17  1  0  0  0  0
 16 22  1  0  0  0  0
 16 45  1  0  0  0  0
 17 18  1  0  0  0  0
 17 40  1  0  0  0  0
 17 41  1  0  0  0  0
 18 19  1  0  0  0  0
 18 20  1  0  0  0  0
 18 21  1  0  0  0  0
 22 42  1  0  0  0  0
 22 43  1  0  0  0  0
 23 44  1  0  0  0  0
M  CHG  1  16   1
M  END
> <s_m_source_file>
AV-unprocessed.smi

> <i_m_source_file_index>
2245

> <i_lp_mmshare_version>
43012

> <i_f3d_flags>
0

> <s_epik_input>
W0NIM11jMVtjSF1jKFtDSDNdKW5jKFtjSF0xKVtOSF1DKD1PKVtOSF1bQ0gyXVtDQEBIXTJbQ0gyXVtDSDJdTihbQ0gyXTIpW0NIMl1DKEYpKEYpRg==

> <s_epik_cmdline>
J2VwaWtfcHl0aG9uJywgJy1waCcsICc3LjAnLCAnLXRuJywgJzgnLCAnLW1hJywgJzIwMCcsICctbWV0YWxfYmluZGluZycsICctaW1hZScsICc8aW5maWxlLm1hZT4nLCAnLW9tYWUnLCAnPG91dGZpbGUubWFlPic=

> <r_epik_Ionization_Penalty>
0.628315

> <r_epik_Ionization_Penalty_Charging>
0.628113

> <r_epik_Ionization_Penalty_Neutral>
0.000202271

> <r_epik_State_Penalty>
0.644725

> <r_epik_Charging_Adjusted_Penalty>
1.27284

> <i_epik_Tot_Q>
1

> <i_epik_Tot_abs_Q>
1

> <r_epik_Metal_State_Penalty>
0.644752

> <b_epik_Metal_Only>
0

> <s_lp_Force_Field>
OPLS_2005

> <r_lp_Energy>
28.9213

> <b_lp_Chiralities_Consistent>
1

> <s_lp_Variant>
AV-unprocessed.smi:2245-3

> <Gold.Version>
5.8.1

> <Gold.Id.Protein>
6NUR|6NUR_protein|mol2

> <Gold.PLP.Fitness>
52.5487

> <Gold.PLP.PLP>
-41.9087

> <Gold.PLP.part.hbond>
-3.0000

> <Gold.PLP.part.metal>
0.0000

> <Gold.PLP.part.buried>
-1.7724

> <Gold.PLP.part.nonpolar>
-37.7427

> <Gold.PLP.part.repulsive>
0.2959

> <Gold.PLP.ligand.clash>
0.0000

> <Gold.PLP.ligand.torsion>
0.7624

> <Gold.PLP.Chemscore.Hbond>
3.9040

> <Gold.PLP.Chemscore.CHOScore>
0.0000

> <Gold.PLP.Chemscore.Metal>
0.0000

> <Gold.Chemscore.Hbonds>
donor molecule, donor type, donor heavy atom, donor atom, acceptor molecule, acceptor atom, score
      L1  H     8    31       P1  8028  1.00
      L1  H    11    32       P1  8028  0.90
      L1  H    16    45       P1 10175  2.00

> <Gold.PLP.Chemscore.Internal.Correction>
0.4527

> <Gold.Rescore>
     Score         DG    S(hbond)    S(metal)    S(lipo)     H(rot)  DE(clash)    DE(int)     intcor
     19.45     -22.35       2.93        0.00      95.84       1.61       0.86       2.04       ----

> <Gold.Chemscore.Fitness>
19.4489

> <Gold.Chemscore.DG>
-22.3532

> <Gold.Chemscore.ZeroCoef>
-5.4800

> <Gold.Chemscore.Hbond>
2.9319

> <Gold.Chemscore.Metal>
0.0000

> <Gold.Chemscore.Lipo>
95.8404

> <Gold.Chemscore.Internal_Hbond>
0.0000

> <Gold.Chemscore.DEClash>
0.8620

> <Gold.Chemscore.DEInternal>
2.0423

> <Gold.Chemscore.Rot>
1.6143

> <Gold.Chemscore.Internal.Correction>
   9.000000E+99

> <Gold.Chemscore.Hbonds>
donor molecule, donor type, donor heavy atom, donor atom, acceptor molecule, acceptor atom, score
      L1  H     8    31       P1  8028  1.00
      L1  H    11    32       P1  8028  0.83
      L1  H    16    45       P1 10175  0.98

> <Gold.Chemscore.Hbond.Weighted>
-9.7924

> <Gold.Chemscore.Metal.Weighted>
-0.0000

> <Gold.Chemscore.Lipo.Weighted>
-11.2133

> <Gold.Chemscore.Internal_Hbond.Weighted>
0.0000

> <Gold.Chemscore.DEClash.Weighted>
0.8620

> <Gold.Chemscore.DEInternal.Weighted>
2.0423

> <Gold.Chemscore.Rot.Weighted>
4.1325

> <Gold.Chemscore.Internal.Correction.Weighted>
   9.000000E+99

> <Gold.Protein.RotatedTorsions>
[ 6907 6896 6895 6894 ] final -125.26 input  -60.11 | X-H torsion
[ 7974 7965 7964 7962 ] final  150.24 input  175.53 | X-H torsion
[ 8008 7997 7996 7995 ] final   62.49 input   59.86 | X-H torsion
[ 10167 10162 10161 10158 ] final    4.65 input  -65.29 | X-H torsion
[ 10718 10713 10712 10709 ] final -164.46 input   66.30 | X-H torsion
[ 10763 10752 10751 10750 ] final  101.78 input  -60.55 | X-H torsion
[ 11005 11000 10999 10996 ] final   -0.06 input  -57.11 | X-H torsion

> <Gold.Protein.ActiveResidues>
 VAL166  LYS551  ARG553  GLY616  TRP617  ASP618  TYR619  PRO620  LYS621  CYS622 
 ASP623  PHE694  ASN695  SER759  ASP760  ASP761  ALA762  ILE779  LEU786  VAL792 
 PHE793  MET794  SER795  GLU796  ALA797  LYS798  CYS799  TRP800  GLU811  SER814 

> <Gold.Protein.RotatedAtoms>
  150.8850  133.7320  159.2920 H   0  0  0  0  0  0  0  0  0  0  0  0  # atno 6907 bound_to 6896
  151.4889  135.1055  159.9808 H   0  0  0  0  0  0  0  0  0  0  0  0  # atno 6908 bound_to 6896
  152.4784  133.8148  159.7078 H   0  0  0  0  0  0  0  0  0  0  0  0  # atno 6909 bound_to 6896
  144.8379  139.6383  143.6030 H   0  0  0  0  0  0  0  0  0  0  0  0  # atno 7974 bound_to 7965
  155.6151  140.3495  155.4634 H   0  0  0  0  0  0  0  0  0  0  0  0  # atno 8008 bound_to 7997
  156.0123  140.1236  157.0465 H   0  0  0  0  0  0  0  0  0  0  0  0  # atno 8009 bound_to 7997
  154.4285  140.1079  156.5833 H   0  0  0  0  0  0  0  0  0  0  0  0  # atno 8010 bound_to 7997
  140.6523  143.7513  150.7596 H   0  0  0  0  0  0  0  0  0  0  0  0  # atno 10167 bound_to 10162
  156.6393  130.8962  151.2993 H   0  0  0  0  0  0  0  0  0  0  0  0  # atno 10718 bound_to 10713
  153.3311  135.4033  155.1496 H   0  0  0  0  0  0  0  0  0  0  0  0  # atno 10763 bound_to 10752
  154.8623  135.3611  154.5469 H   0  0  0  0  0  0  0  0  0  0  0  0  # atno 10764 bound_to 10752
  153.5908  135.7074  153.5483 H   0  0  0  0  0  0  0  0  0  0  0  0  # atno 10765 bound_to 10752
  140.6321  133.9566  155.8280 H   0  0  0  0  0  0  0  0  0  0  0  0  # atno 11005 bound_to 11000
  146.2675  139.6555  142.9319 LP  0  0  0  0  0  0  0  0  0  0  0  0  # atno 17320 bound_to 7965
  145.4756  141.0437  143.2674 LP  0  0  0  0  0  0  0  0  0  0  0  0  # atno 17321 bound_to 7965
  140.1166  143.4650  152.2338 LP  0  0  0  0  0  0  0  0  0  0  0  0  # atno 17342 bound_to 10162
  139.5740  144.7478  151.3813 LP  0  0  0  0  0  0  0  0  0  0  0  0  # atno 17343 bound_to 10162
  157.7176  130.9517  150.1313 LP  0  0  0  0  0  0  0  0  0  0  0  0  # atno 17370 bound_to 10713
  156.2171  130.3671  149.8600 LP  0  0  0  0  0  0  0  0  0  0  0  0  # atno 17371 bound_to 10713
  141.0668  134.0265  157.3583 LP  0  0  0  0  0  0  0  0  0  0  0  0  # atno 17394 bound_to 11000
  139.9112  135.0190  156.7699 LP  0  0  0  0  0  0  0  0  0  0  0  0  # atno 17395 bound_to 11000

$$$$
