AV-unprocessed.smi:2331|AV-procd|sdf|9314|dock5
  -GOLD-   2272012533D 1   1.00000     0.00000
 Structure written by MMmdl.
 49 50  0  0  0  0  0  0  0  0  1 V2000
  147.3780  136.3696  156.4302 C   0  0  0  0  0  0  0  0  0  0  0  0
  148.8892  136.1070  156.2206 C   0  0  0  0  0  0  0  0  0  0  0  0
  149.4695  135.7167  157.5965 C   0  0  0  0  0  0  0  0  0  0  0  0
  149.0623  134.9088  155.2469 C   0  0  0  0  0  0  0  0  0  0  0  0
  148.1386  134.9642  154.1160 N   0  0  0  0  0  0  0  0  0  0  0  0
  147.0966  134.1439  153.9026 C   0  0  0  0  0  0  0  0  0  0  0  0
  146.8757  133.1532  154.5987 O   0  0  0  0  0  0  0  0  0  0  0  0
  146.3728  134.4718  152.8072 N   0  0  0  0  0  0  0  0  0  0  0  0
  146.2325  135.8582  152.3442 C   0  0  0  0  0  0  0  0  0  0  0  0
  144.8090  135.9716  151.8174 C   0  0  0  0  0  0  0  0  0  0  0  0
  144.5202  134.5745  151.3030 C   0  0  0  0  0  0  0  0  0  0  0  0
  145.2979  133.6302  152.2412 C   0  0  1  0  0  0  0  0  0  0  0  0
  145.7969  132.3316  151.5225 C   0  0  0  0  0  0  0  0  0  0  0  0
  146.5296  131.3827  152.4937 C   0  0  0  0  0  0  0  0  0  0  0  0
  144.6905  131.5768  150.7579 C   0  0  0  0  0  0  0  0  0  0  0  0
  146.7997  132.6858  150.5909 O   0  0  0  0  0  0  0  0  0  0  0  0
  149.6328  137.3444  155.6793 C   0  0  0  0  0  0  0  0  0  0  0  0
  149.1868  138.0760  154.5508 C   0  0  0  0  0  0  0  0  0  0  0  0
  149.9443  139.1776  154.1060 C   0  0  0  0  0  0  0  0  0  0  0  0
  151.0849  139.5845  154.6995 N   0  0  0  0  0  0  0  0  0  0  0  0
  151.5120  138.8915  155.7745 C   0  0  0  0  0  0  0  0  0  0  0  0
  150.8302  137.7753  156.2973 C   0  0  0  0  0  0  0  0  0  0  0  0
  146.8725  135.4805  156.8088 H   0  0  0  0  0  0  0  0  0  0  0  0
  146.8737  136.6488  155.5051 H   0  0  0  0  0  0  0  0  0  0  0  0
  147.2063  137.1673  157.1537 H   0  0  0  0  0  0  0  0  0  0  0  0
  148.9500  134.8540  158.0148 H   0  0  0  0  0  0  0  0  0  0  0  0
  149.3741  136.5345  158.3117 H   0  0  0  0  0  0  0  0  0  0  0  0
  150.5260  135.4548  157.5387 H   0  0  0  0  0  0  0  0  0  0  0  0
  150.0670  134.9171  154.8234 H   0  0  0  0  0  0  0  0  0  0  0  0
  148.9797  133.9595  155.7792 H   0  0  0  0  0  0  0  0  0  0  0  0
  148.2681  135.7278  153.4681 H   0  0  0  0  0  0  0  0  0  0  0  0
  146.4058  136.5990  153.1272 H   0  0  0  0  0  0  0  0  0  0  0  0
  146.9547  136.0354  151.5462 H   0  0  0  0  0  0  0  0  0  0  0  0
  144.1296  136.2113  152.6363 H   0  0  0  0  0  0  0  0  0  0  0  0
  144.6990  136.7395  151.0512 H   0  0  0  0  0  0  0  0  0  0  0  0
  143.4530  134.3536  151.2743 H   0  0  0  0  0  0  0  0  0  0  0  0
  144.8988  134.5044  150.2831 H   0  0  0  0  0  0  0  0  0  0  0  0
  144.6214  133.3581  153.0543 H   0  0  0  0  0  0  0  0  0  0  0  0
  145.8539  130.9500  153.2310 H   0  0  0  0  0  0  0  0  0  0  0  0
  147.3200  131.9032  153.0360 H   0  0  0  0  0  0  0  0  0  0  0  0
  146.9911  130.5482  151.9636 H   0  0  0  0  0  0  0  0  0  0  0  0
  143.8773  131.2837  151.4217 H   0  0  0  0  0  0  0  0  0  0  0  0
  145.0783  130.6677  150.2971 H   0  0  0  0  0  0  0  0  0  0  0  0
  144.2617  132.1817  149.9588 H   0  0  0  0  0  0  0  0  0  0  0  0
  147.3277  131.9231  150.4112 H   0  0  0  0  0  0  0  0  0  0  0  0
  148.2891  137.8167  154.0118 H   0  0  0  0  0  0  0  0  0  0  0  0
  149.6246  139.7465  153.2456 H   0  0  0  0  0  0  0  0  0  0  0  0
  152.4285  139.2341  156.2315 H   0  0  0  0  0  0  0  0  0  0  0  0
  151.2327  137.2592  157.1561 H   0  0  0  0  0  0  0  0  0  0  0  0
  1  2  1  0  0  0  0
  1 23  1  0  0  0  0
  1 24  1  0  0  0  0
  1 25  1  0  0  0  0
  2  3  1  0  0  0  0
  2  4  1  0  0  0  0
  2 17  1  0  0  0  0
  3 26  1  0  0  0  0
  3 27  1  0  0  0  0
  3 28  1  0  0  0  0
  4  5  1  0  0  0  0
  4 29  1  0  0  0  0
  4 30  1  0  0  0  0
  5  6  1  0  0  0  0
  5 31  1  0  0  0  0
  6  7  2  0  0  0  0
  6  8  1  0  0  0  0
  8 12  1  0  0  0  0
  8  9  1  0  0  0  0
  9 10  1  0  0  0  0
  9 32  1  0  0  0  0
  9 33  1  0  0  0  0
 10 11  1  0  0  0  0
 10 34  1  0  0  0  0
 10 35  1  0  0  0  0
 11 12  1  0  0  0  0
 11 36  1  0  0  0  0
 11 37  1  0  0  0  0
 12 13  1  0  0  0  0
 12 38  1  0  0  0  0
 13 14  1  0  0  0  0
 13 15  1  0  0  0  0
 13 16  1  0  0  0  0
 14 39  1  0  0  0  0
 14 40  1  0  0  0  0
 14 41  1  0  0  0  0
 15 42  1  0  0  0  0
 15 43  1  0  0  0  0
 15 44  1  0  0  0  0
 16 45  1  0  0  0  0
 17 22  1  0  0  0  0
 17 18  2  0  0  0  0
 18 19  1  0  0  0  0
 18 46  1  0  0  0  0
 19 20  2  0  0  0  0
 19 47  1  0  0  0  0
 20 21  1  0  0  0  0
 21 22  2  0  0  0  0
 21 48  1  0  0  0  0
 22 49  1  0  0  0  0
M  END
> <s_m_source_file>
AV-unprocessed.smi

> <i_m_source_file_index>
2331

> <i_lp_mmshare_version>
43012

> <i_f3d_flags>
0

> <s_epik_input>
W2NIXTFbY0hdbltjSF1bY0hdYzFDKFtDSDNdKShbQ0gzXSlbQ0gyXVtOSF1DKD1PKU4yW0NIMl1bQ0gyXVtDSDJdW0NASF0yQyhbQ0gzXSkoW0NIM10pW09IXQ==

> <s_epik_cmdline>
J2VwaWtfcHl0aG9uJywgJy1waCcsICc3LjAnLCAnLXRuJywgJzgnLCAnLW1hJywgJzIwMCcsICctbWV0YWxfYmluZGluZycsICctaW1hZScsICc8aW5maWxlLm1hZT4nLCAnLW9tYWUnLCAnPG91dGZpbGUubWFlPic=

> <r_epik_Ionization_Penalty>
0.0581496

> <r_epik_Ionization_Penalty_Charging>
0

> <r_epik_Ionization_Penalty_Neutral>
0.0581496

> <r_epik_State_Penalty>
0.0501956

> <r_epik_Charging_Adjusted_Penalty>
0.0501956

> <i_epik_Tot_Q>
0

> <i_epik_Tot_abs_Q>
0

> <r_epik_Metal_State_Penalty>
0.0456895

> <b_epik_Metal_Only>
0

> <s_lp_Force_Field>
OPLS_2005

> <r_lp_Energy>
47.1334

> <b_lp_Chiralities_Consistent>
1

> <s_lp_Variant>
AV-unprocessed.smi:2331-1

> <Gold.Version>
5.8.1

> <Gold.Id.Protein>
6NUR|6NUR_protein|mol2

> <Gold.PLP.Fitness>
36.4208

> <Gold.PLP.PLP>
-26.1381

> <Gold.PLP.part.hbond>
-3.0000

> <Gold.PLP.part.metal>
0.0000

> <Gold.PLP.part.buried>
-1.4751

> <Gold.PLP.part.nonpolar>
-22.3165

> <Gold.PLP.part.repulsive>
0.1251

> <Gold.PLP.ligand.clash>
0.0000

> <Gold.PLP.ligand.torsion>
0.9438

> <Gold.PLP.Chemscore.Hbond>
2.8960

> <Gold.PLP.Chemscore.CHOScore>
1.0000

> <Gold.PLP.Chemscore.Metal>
0.0000

> <Gold.Chemscore.Hbonds>
donor molecule, donor type, donor heavy atom, donor atom, acceptor molecule, acceptor atom, score
      L1  H     5    31       P1  7948  0.90
      L1  H    16    45       P1 10747  1.00
      P1  H  7989  7998       L1    20  1.00
      L1  C    19    47       P1  7957  1.00

> <Gold.PLP.Chemscore.Internal.Correction>
0.4822

> <Gold.Rescore>
     Score         DG    S(hbond)    S(metal)    S(lipo)     H(rot)  DE(clash)    DE(int)     intcor
     15.49     -18.38       2.79        0.00      72.82       1.94       0.43       2.46       ----

> <Gold.Chemscore.Fitness>
15.4861

> <Gold.Chemscore.DG>
-18.3811

> <Gold.Chemscore.ZeroCoef>
-5.4800

> <Gold.Chemscore.Hbond>
2.7949

> <Gold.Chemscore.Metal>
0.0000

> <Gold.Chemscore.Lipo>
72.8177

> <Gold.Chemscore.Internal_Hbond>
0.0000

> <Gold.Chemscore.DEClash>
0.4349

> <Gold.Chemscore.DEInternal>
2.4601

> <Gold.Chemscore.Rot>
1.9350

> <Gold.Chemscore.Internal.Correction>
   9.000000E+99

> <Gold.Chemscore.Hbonds>
donor molecule, donor type, donor heavy atom, donor atom, acceptor molecule, acceptor atom, score
      L1  H     5    31       P1  7948  0.87
      L1  H    16    45       P1 10747  0.98
      P1  H  7989  7998       L1    20  0.26

> <Gold.Chemscore.Hbond.Weighted>
-9.3350

> <Gold.Chemscore.Metal.Weighted>
-0.0000

> <Gold.Chemscore.Lipo.Weighted>
-8.5197

> <Gold.Chemscore.Internal_Hbond.Weighted>
0.0000

> <Gold.Chemscore.DEClash.Weighted>
0.4349

> <Gold.Chemscore.DEInternal.Weighted>
2.4601

> <Gold.Chemscore.Rot.Weighted>
4.9536

> <Gold.Chemscore.Internal.Correction.Weighted>
   9.000000E+99

> <Gold.Protein.RotatedTorsions>
[ 6907 6896 6895 6894 ] final   50.58 input  -60.11 | X-H torsion
[ 7974 7965 7964 7962 ] final   68.02 input  175.53 | X-H torsion
[ 8008 7997 7996 7995 ] final  -39.47 input   59.86 | X-H torsion
[ 10167 10162 10161 10158 ] final  -76.44 input  -65.29 | X-H torsion
[ 10718 10713 10712 10709 ] final -163.46 input   66.30 | X-H torsion
[ 10763 10752 10751 10750 ] final -147.67 input  -60.55 | X-H torsion
[ 11005 11000 10999 10996 ] final -146.80 input  -57.11 | X-H torsion

> <Gold.Protein.ActiveResidues>
 VAL166  LYS551  ARG553  GLY616  TRP617  ASP618  TYR619  PRO620  LYS621  CYS622 
 ASP623  PHE694  ASN695  SER759  ASP760  ASP761  ALA762  ILE779  LEU786  VAL792 
 PHE793  MET794  SER795  GLU796  ALA797  LYS798  CYS799  TRP800  GLU811  SER814 

> <Gold.Protein.RotatedAtoms>
  152.3034  134.7584  160.0352 H   0  0  0  0  0  0  0  0  0  0  0  0  # atno 6907 bound_to 6896
  151.8090  133.3374  159.3558 H   0  0  0  0  0  0  0  0  0  0  0  0  # atno 6908 bound_to 6896
  150.7284  134.5612  159.5887 H   0  0  0  0  0  0  0  0  0  0  0  0  # atno 6909 bound_to 6896
  145.8076  139.3015  143.1118 H   0  0  0  0  0  0  0  0  0  0  0  0  # atno 7974 bound_to 7965
  154.4023  140.1550  156.2869 H   0  0  0  0  0  0  0  0  0  0  0  0  # atno 8008 bound_to 7997
  155.8820  140.3443  155.5873 H   0  0  0  0  0  0  0  0  0  0  0  0  # atno 8009 bound_to 7997
  155.7656  140.0823  157.2124 H   0  0  0  0  0  0  0  0  0  0  0  0  # atno 8010 bound_to 7997
  140.4856  143.2392  151.7988 H   0  0  0  0  0  0  0  0  0  0  0  0  # atno 10167 bound_to 10162
  156.6251  130.8906  151.2966 H   0  0  0  0  0  0  0  0  0  0  0  0  # atno 10718 bound_to 10713
  154.8274  135.3354  154.6854 H   0  0  0  0  0  0  0  0  0  0  0  0  # atno 10763 bound_to 10752
  153.7478  135.6941  153.4957 H   0  0  0  0  0  0  0  0  0  0  0  0  # atno 10764 bound_to 10752
  153.2198  135.4453  155.0426 H   0  0  0  0  0  0  0  0  0  0  0  0  # atno 10765 bound_to 10752
  140.7783  134.3109  157.5053 H   0  0  0  0  0  0  0  0  0  0  0  0  # atno 11005 bound_to 11000
  145.9811  140.8681  143.0114 LP  0  0  0  0  0  0  0  0  0  0  0  0  # atno 17320 bound_to 7965
  144.6761  140.2082  143.7380 LP  0  0  0  0  0  0  0  0  0  0  0  0  # atno 17321 bound_to 7965
  139.4841  144.4716  151.9418 LP  0  0  0  0  0  0  0  0  0  0  0  0  # atno 17342 bound_to 10162
  140.3802  144.2746  150.5909 LP  0  0  0  0  0  0  0  0  0  0  0  0  # atno 17343 bound_to 10162
  157.7216  130.9566  150.1463 LP  0  0  0  0  0  0  0  0  0  0  0  0  # atno 17370 bound_to 10713
  156.2280  130.3679  149.8478 LP  0  0  0  0  0  0  0  0  0  0  0  0  # atno 17371 bound_to 10713
  139.8746  134.9303  156.3498 LP  0  0  0  0  0  0  0  0  0  0  0  0  # atno 17394 bound_to 11000
  140.9507  133.7453  156.0269 LP  0  0  0  0  0  0  0  0  0  0  0  0  # atno 17395 bound_to 11000

$$$$
