AV-unprocessed.smi:1812|AV-procd|sdf|7339|dock4
  -GOLD-   22720 9 03D 1   1.00000     0.00000
 Structure written by MMmdl.
 33 35  0  0  0  0  0  0  0  0  2 V2000
  151.3792  140.2702  155.2568 O   0  0  0  0  0  0  0  0  0  0  0  0
  151.6059  139.8009  156.3744 C   0  0  0  0  0  0  0  0  0  0  0  0
  151.3303  140.5163  157.4737 N   0  0  0  0  0  0  0  0  0  0  0  0
  150.7789  141.8663  157.5118 C   0  0  0  0  0  0  0  0  0  0  0  0
  151.6844  142.7879  158.3401 C   0  0  1  0  0  0  0  0  0  0  0  0
  151.3696  144.2743  158.1813 C   0  0  0  0  0  0  0  0  0  0  0  0
  151.8673  144.8869  159.4822 C   0  0  0  0  0  0  0  0  0  0  0  0
  152.0911  143.6829  160.4022 C   0  0  0  0  0  0  0  0  0  0  0  0
  151.4859  142.5877  159.7307 O   0  0  0  0  0  0  0  0  0  0  0  0
  152.1321  138.5834  156.6389 N   0  5  0  0  0  0  0  0  0  0  0  0
  151.4910  137.7371  157.4616 C   0  0  0  0  0  0  0  0  0  0  0  0
  152.0758  136.6413  157.9658 N   0  0  0  0  0  0  0  0  0  0  0  0
  151.2334  135.9021  158.7835 N   0  0  0  0  0  0  0  0  0  0  0  0
  150.0186  136.4474  158.8796 C   0  0  0  0  0  0  0  0  0  0  0  0
  148.9310  135.8376  159.6988 C   0  0  0  0  0  0  0  0  0  0  0  0
  149.0677  135.6690  161.1966 C   0  0  0  0  0  0  0  0  0  0  0  0
  149.0929  134.4592  160.2974 C   0  0  0  0  0  0  0  0  0  0  0  0
  149.8103  137.9285  157.9589 S   0  0  0  0  0  0  0  0  0  0  0  0
  151.5290  140.0855  158.3649 H   0  0  0  0  0  0  0  0  0  0  0  0
  150.6804  142.2771  156.5058 H   0  0  0  0  0  0  0  0  0  0  0  0
  149.7762  141.8272  157.9392 H   0  0  0  0  0  0  0  0  0  0  0  0
  152.7339  142.6061  158.0993 H   0  0  0  0  0  0  0  0  0  0  0  0
  151.8396  144.7098  157.2992 H   0  0  0  0  0  0  0  0  0  0  0  0
  150.2924  144.4247  158.0972 H   0  0  0  0  0  0  0  0  0  0  0  0
  152.7964  145.4391  159.3368 H   0  0  0  0  0  0  0  0  0  0  0  0
  151.1284  145.5752  159.8935 H   0  0  0  0  0  0  0  0  0  0  0  0
  153.1574  143.4845  160.5212 H   0  0  0  0  0  0  0  0  0  0  0  0
  151.6587  143.8249  161.3929 H   0  0  0  0  0  0  0  0  0  0  0  0
  147.9541  136.1129  159.3059 H   0  0  0  0  0  0  0  0  0  0  0  0
  150.0064  135.9588  161.6647 H   0  0  0  0  0  0  0  0  0  0  0  0
  148.1774  135.8275  161.8014 H   0  0  0  0  0  0  0  0  0  0  0  0
  148.2201  133.8095  160.3021 H   0  0  0  0  0  0  0  0  0  0  0  0
  150.0485  133.9572  160.1585 H   0  0  0  0  0  0  0  0  0  0  0  0
  1  2  2  0  0  0  0
  2  3  1  0  0  0  0
  2 10  1  0  0  0  0
  3  4  1  0  0  0  0
  3 19  1  0  0  0  0
  4  5  1  0  0  0  0
  4 20  1  0  0  0  0
  4 21  1  0  0  0  0
  5  9  1  0  0  0  0
  5  6  1  0  0  0  0
  5 22  1  0  0  0  0
  6  7  1  0  0  0  0
  6 23  1  0  0  0  0
  6 24  1  0  0  0  0
  7  8  1  0  0  0  0
  7 25  1  0  0  0  0
  7 26  1  0  0  0  0
  8  9  1  0  0  0  0
  8 27  1  0  0  0  0
  8 28  1  0  0  0  0
 10 11  1  0  0  0  0
 11 18  1  0  0  0  0
 11 12  2  0  0  0  0
 12 13  1  0  0  0  0
 13 14  2  0  0  0  0
 14 15  1  0  0  0  0
 14 18  1  0  0  0  0
 15 17  1  0  0  0  0
 15 16  1  0  0  0  0
 15 29  1  0  0  0  0
 16 17  1  0  0  0  0
 16 30  1  0  0  0  0
 16 31  1  0  0  0  0
 17 32  1  0  0  0  0
 17 33  1  0  0  0  0
M  CHG  1  10  -1
M  END
> <s_m_source_file>
AV-unprocessed.smi

> <i_m_source_file_index>
1812

> <i_lp_mmshare_version>
43012

> <i_f3d_flags>
0

> <s_epik_input>
TzFbQ0gyXVtDSDJdW0NIMl1bQ0BIXTFbQ0gyXVtOSF1DKD1PKVtOSF1jMm5uYyhzMilbQ0hdM1tDSDJdW0NIMl0z

> <s_epik_cmdline>
J2VwaWtfcHl0aG9uJywgJy1waCcsICc3LjAnLCAnLXRuJywgJzgnLCAnLW1hJywgJzIwMCcsICctbWV0YWxfYmluZGluZycsICctaW1hZScsICc8aW5maWxlLm1hZT4nLCAnLW9tYWUnLCAnPG91dGZpbGUubWFlPic=

> <r_lp_tautomer_probability>
1

> <r_epik_Ionization_Penalty>
4.72991

> <r_epik_Ionization_Penalty_Charging>
4.58249

> <r_epik_Ionization_Penalty_Neutral>
0.147417

> <r_epik_State_Penalty>
4.58223

> <r_epik_Charging_Adjusted_Penalty>
9.16473

> <i_epik_Tot_Q>
-1

> <i_epik_Tot_abs_Q>
1

> <r_epik_Metal_State_Penalty>
0.861876

> <b_epik_Metal_Only>
1

> <s_lp_Force_Field>
OPLS_2005

> <r_lp_Energy>
14.1682

> <b_lp_Chiralities_Consistent>
1

> <s_lp_Variant>
AV-unprocessed.smi:1812-4

> <Gold.Version>
5.8.1

> <Gold.Id.Protein>
6NUR|6NUR_protein|mol2

> <Gold.PLP.Fitness>
38.5423

> <Gold.PLP.PLP>
-33.8814

> <Gold.PLP.part.hbond>
-2.8496

> <Gold.PLP.part.metal>
0.0000

> <Gold.PLP.part.buried>
-5.1688

> <Gold.PLP.part.nonpolar>
-25.9881

> <Gold.PLP.part.repulsive>
0.0776

> <Gold.PLP.ligand.clash>
0.0000

> <Gold.PLP.ligand.torsion>
0.7576

> <Gold.PLP.Chemscore.Hbond>
2.0000

> <Gold.PLP.Chemscore.CHOScore>
0.0000

> <Gold.PLP.Chemscore.Metal>
0.0000

> <Gold.Chemscore.Hbonds>
donor molecule, donor type, donor heavy atom, donor atom, acceptor molecule, acceptor atom, score
      P1  H  6896  6908       L1    13  0.14
      P1  H  7989  7998       L1     1  0.99

> <Gold.PLP.Chemscore.Internal.Correction>
0.1760

> <Gold.Rescore>
     Score         DG    S(hbond)    S(metal)    S(lipo)     H(rot)  DE(clash)    DE(int)     intcor
     16.66     -17.35       1.91        0.00      78.45       1.45       0.00       0.69       ----

> <Gold.Chemscore.Fitness>
16.6585

> <Gold.Chemscore.DG>
-17.3518

> <Gold.Chemscore.ZeroCoef>
-5.4800

> <Gold.Chemscore.Hbond>
1.9141

> <Gold.Chemscore.Metal>
0.0000

> <Gold.Chemscore.Lipo>
78.4479

> <Gold.Chemscore.Internal_Hbond>
0.0000

> <Gold.Chemscore.DEClash>
0.0021

> <Gold.Chemscore.DEInternal>
0.6912

> <Gold.Chemscore.Rot>
1.4451

> <Gold.Chemscore.Internal.Correction>
   9.000000E+99

> <Gold.Chemscore.Hbonds>
donor molecule, donor type, donor heavy atom, donor atom, acceptor molecule, acceptor atom, score
      P1  H  6896  6908       L1    13  0.01
      P1  H  7989  7998       L1     1  0.94

> <Gold.Chemscore.Hbond.Weighted>
-6.3929

> <Gold.Chemscore.Metal.Weighted>
-0.0000

> <Gold.Chemscore.Lipo.Weighted>
-9.1784

> <Gold.Chemscore.Internal_Hbond.Weighted>
0.0000

> <Gold.Chemscore.DEClash.Weighted>
0.0021

> <Gold.Chemscore.DEInternal.Weighted>
0.6912

> <Gold.Chemscore.Rot.Weighted>
3.6995

> <Gold.Chemscore.Internal.Correction.Weighted>
   9.000000E+99

> <Gold.Protein.RotatedTorsions>
[ 6907 6896 6895 6894 ] final  179.29 input  -60.11 | X-H torsion
[ 7974 7965 7964 7962 ] final -115.77 input  175.53 | X-H torsion
[ 8008 7997 7996 7995 ] final   75.13 input   59.86 | X-H torsion
[ 10167 10162 10161 10158 ] final  -98.82 input  -65.29 | X-H torsion
[ 10718 10713 10712 10709 ] final  -29.25 input   66.30 | X-H torsion
[ 10763 10752 10751 10750 ] final  123.65 input  -60.55 | X-H torsion
[ 11005 11000 10999 10996 ] final   19.25 input  -57.11 | X-H torsion

> <Gold.Protein.ActiveResidues>
 VAL166  LYS551  ARG553  GLY616  TRP617  ASP618  TYR619  PRO620  LYS621  CYS622 
 ASP623  PHE694  ASN695  SER759  ASP760  ASP761  ALA762  ILE779  LEU786  VAL792 
 PHE793  MET794  SER795  GLU796  ALA797  LYS798  CYS799  TRP800  GLU811  SER814 

> <Gold.Protein.RotatedAtoms>
  151.6741  133.3313  159.3203 H   0  0  0  0  0  0  0  0  0  0  0  0  # atno 6907 bound_to 6896
  150.7854  134.6837  159.6468 H   0  0  0  0  0  0  0  0  0  0  0  0  # atno 6908 bound_to 6896
  152.3922  134.6427  160.0155 H   0  0  0  0  0  0  0  0  0  0  0  0  # atno 6909 bound_to 6896
  145.1045  140.8573  143.3906 H   0  0  0  0  0  0  0  0  0  0  0  0  # atno 7974 bound_to 7965
  155.8085  140.3474  155.5444 H   0  0  0  0  0  0  0  0  0  0  0  0  # atno 8008 bound_to 7997
  155.8465  140.0949  157.1722 H   0  0  0  0  0  0  0  0  0  0  0  0  # atno 8009 bound_to 7997
  154.4006  140.1384  156.3779 H   0  0  0  0  0  0  0  0  0  0  0  0  # atno 8010 bound_to 7997
  140.2690  143.3357  152.0553 H   0  0  0  0  0  0  0  0  0  0  0  0  # atno 10167 bound_to 10162
  156.4148  130.4415  149.7226 H   0  0  0  0  0  0  0  0  0  0  0  0  # atno 10718 bound_to 10713
  153.6489  135.3366  155.3094 H   0  0  0  0  0  0  0  0  0  0  0  0  # atno 10763 bound_to 10752
  154.8542  135.4336  154.1926 H   0  0  0  0  0  0  0  0  0  0  0  0  # atno 10764 bound_to 10752
  153.2863  135.7013  153.7411 H   0  0  0  0  0  0  0  0  0  0  0  0  # atno 10765 bound_to 10752
  140.4158  134.1570  155.7670 H   0  0  0  0  0  0  0  0  0  0  0  0  # atno 11005 bound_to 11000
  145.0917  139.2885  143.5731 LP  0  0  0  0  0  0  0  0  0  0  0  0  # atno 17320 bound_to 7965
  146.3528  140.0457  142.8639 LP  0  0  0  0  0  0  0  0  0  0  0  0  # atno 17321 bound_to 7965
  139.4994  144.6669  151.6335 LP  0  0  0  0  0  0  0  0  0  0  0  0  # atno 17342 bound_to 10162
  140.5905  143.9788  150.6322 LP  0  0  0  0  0  0  0  0  0  0  0  0  # atno 17343 bound_to 10162
  156.4190  130.7759  151.2776 LP  0  0  0  0  0  0  0  0  0  0  0  0  # atno 17370 bound_to 10713
  157.7507  131.0188  150.3643 LP  0  0  0  0  0  0  0  0  0  0  0  0  # atno 17371 bound_to 10713
  141.1803  133.8427  157.1280 LP  0  0  0  0  0  0  0  0  0  0  0  0  # atno 17394 bound_to 11000
  140.0235  134.9935  157.0639 LP  0  0  0  0  0  0  0  0  0  0  0  0  # atno 17395 bound_to 11000

$$$$
