AV-unprocessed.smi:260|AV-procd|sdf|1980|dock2
  -GOLD-   2262021153D 1   1.00000     0.00000
 Structure written by MMmdl.
 53 56  0  0  0  0  0  0  0  0  1 V2000
  157.7106  133.8373  166.6711 C   0  0  0  0  0  0  0  0  0  0  0  0
  156.3757  133.9538  166.1051 N   0  0  0  0  0  0  0  0  0  0  0  0
  155.8877  133.1595  165.1387 C   0  0  0  0  0  0  0  0  0  0  0  0
  156.5582  132.2571  164.6350 O   0  0  0  0  0  0  0  0  0  0  0  0
  154.4365  133.4000  164.6447 C   0  0  2  0  0  0  0  0  0  0  0  0
  153.4719  133.2557  165.8378 C   0  0  0  0  0  0  0  0  0  0  0  0
  154.0193  132.5137  163.4488 C   0  0  0  0  0  0  0  0  0  0  0  0
  154.5854  133.2275  162.2140 C   0  0  0  0  0  0  0  0  0  0  0  0
  154.7599  134.6158  162.6163 N   0  0  0  0  0  0  0  0  0  0  0  0
  154.6922  135.6241  161.7094 C   0  0  0  0  0  0  0  0  0  0  0  0
  154.4518  135.3188  160.4065 N   0  0  0  0  0  0  0  0  0  0  0  0
  154.3801  136.2835  159.4849 C   0  0  0  0  0  0  0  0  0  0  0  0
  154.5104  137.6013  159.6452 N   0  0  0  0  0  0  0  0  0  0  0  0
  154.7372  137.9182  160.9517 C   0  0  0  0  0  0  0  0  0  0  0  0
  154.8408  137.0037  162.0390 C   0  0  0  0  0  0  0  0  0  0  0  0
  155.0625  137.7061  163.2194 N   0  0  0  0  0  0  0  0  0  0  0  0
  155.0986  138.9569  162.8498 C   0  0  0  0  0  0  0  0  0  0  0  0
  154.9143  139.1738  161.5040 N   0  0  0  0  0  0  0  0  0  0  0  0
  154.9092  140.4538  160.8180 C   0  0  0  0  0  0  0  0  0  0  0  0
  153.5660  140.7364  160.1164 C   0  0  2  0  0  0  0  0  0  0  0  0
  153.5577  140.0934  158.8556 O   0  0  0  0  0  0  0  0  0  0  0  0
  153.3169  142.2423  159.9104 C   0  0  1  0  0  0  0  0  0  0  0  0
  151.9885  142.5740  159.2260 C   0  0  0  0  0  0  0  0  0  0  0  0
  151.7308  143.9795  159.7166 C   0  0  0  0  0  0  0  0  0  0  0  0
  152.2115  143.8910  161.1608 C   0  0  0  0  0  0  0  0  0  0  0  0
  153.2499  142.9148  161.1674 O   0  0  0  0  0  0  0  0  0  0  0  0
  154.3272  134.7940  163.9968 C   0  0  0  0  0  0  0  0  0  0  0  0
  157.8785  134.6358  167.3934 H   0  0  0  0  0  0  0  0  0  0  0  0
  158.4727  133.9145  165.8945 H   0  0  0  0  0  0  0  0  0  0  0  0
  157.8299  132.8820  167.1835 H   0  0  0  0  0  0  0  0  0  0  0  0
  155.7783  134.6783  166.4759 H   0  0  0  0  0  0  0  0  0  0  0  0
  152.4436  133.4707  165.5458 H   0  0  0  0  0  0  0  0  0  0  0  0
  153.7260  133.9409  166.6480 H   0  0  0  0  0  0  0  0  0  0  0  0
  153.4913  132.2425  166.2410 H   0  0  0  0  0  0  0  0  0  0  0  0
  154.3343  131.4721  163.5165 H   0  0  0  0  0  0  0  0  0  0  0  0
  152.9311  132.4985  163.3730 H   0  0  0  0  0  0  0  0  0  0  0  0
  155.5564  132.8145  161.9396 H   0  0  0  0  0  0  0  0  0  0  0  0
  153.9138  133.1259  161.3607 H   0  0  0  0  0  0  0  0  0  0  0  0
  154.1919  135.9513  158.4746 H   0  0  0  0  0  0  0  0  0  0  0  0
  155.2652  139.7599  163.5528 H   0  0  0  0  0  0  0  0  0  0  0  0
  155.1252  141.2304  161.5524 H   0  0  0  0  0  0  0  0  0  0  0  0
  155.7293  140.4695  160.0987 H   0  0  0  0  0  0  0  0  0  0  0  0
  152.7543  140.3173  160.7128 H   0  0  0  0  0  0  0  0  0  0  0  0
  152.6748  139.8148  158.6668 H   0  0  0  0  0  0  0  0  0  0  0  0
  154.1342  142.6884  159.3412 H   0  0  0  0  0  0  0  0  0  0  0  0
  152.0401  142.5037  158.1392 H   0  0  0  0  0  0  0  0  0  0  0  0
  151.1976  141.9079  159.5741 H   0  0  0  0  0  0  0  0  0  0  0  0
  152.3418  144.6897  159.1579 H   0  0  0  0  0  0  0  0  0  0  0  0
  150.6866  144.2816  159.6306 H   0  0  0  0  0  0  0  0  0  0  0  0
  152.5621  144.8505  161.5419 H   0  0  0  0  0  0  0  0  0  0  0  0
  151.4070  143.5425  161.8094 H   0  0  0  0  0  0  0  0  0  0  0  0
  153.2946  135.1464  164.0104 H   0  0  0  0  0  0  0  0  0  0  0  0
  154.9385  135.5425  164.5032 H   0  0  0  0  0  0  0  0  0  0  0  0
  1  2  1  0  0  0  0
  1 28  1  0  0  0  0
  1 29  1  0  0  0  0
  1 30  1  0  0  0  0
  2  3  1  0  0  0  0
  2 31  1  0  0  0  0
  3  4  2  0  0  0  0
  3  5  1  0  0  0  0
  5 27  1  0  0  0  0
  5  6  1  0  0  0  0
  5  7  1  0  0  0  0
  6 32  1  0  0  0  0
  6 33  1  0  0  0  0
  6 34  1  0  0  0  0
  7  8  1  0  0  0  0
  7 35  1  0  0  0  0
  7 36  1  0  0  0  0
  8  9  1  0  0  0  0
  8 37  1  0  0  0  0
  8 38  1  0  0  0  0
  9 10  1  0  0  0  0
  9 27  1  0  0  0  0
 10 15  1  0  0  0  0
 10 11  2  0  0  0  0
 11 12  1  0  0  0  0
 12 13  2  0  0  0  0
 12 39  1  0  0  0  0
 13 14  1  0  0  0  0
 14 18  1  0  0  0  0
 14 15  2  0  0  0  0
 15 16  1  0  0  0  0
 16 17  2  0  0  0  0
 17 18  1  0  0  0  0
 17 40  1  0  0  0  0
 18 19  1  0  0  0  0
 19 20  1  0  0  0  0
 19 41  1  0  0  0  0
 19 42  1  0  0  0  0
 20 21  1  0  0  0  0
 20 22  1  0  0  0  0
 20 43  1  0  0  0  0
 21 44  1  0  0  0  0
 22 26  1  0  0  0  0
 22 23  1  0  0  0  0
 22 45  1  0  0  0  0
 23 24  1  0  0  0  0
 23 46  1  0  0  0  0
 23 47  1  0  0  0  0
 24 25  1  0  0  0  0
 24 48  1  0  0  0  0
 24 49  1  0  0  0  0
 25 26  1  0  0  0  0
 25 50  1  0  0  0  0
 25 51  1  0  0  0  0
 27 52  1  0  0  0  0
 27 53  1  0  0  0  0
M  END
> <s_m_source_file>
AV-unprocessed.smi

> <i_m_source_file_index>
260

> <i_lp_mmshare_version>
43012

> <i_f3d_flags>
0

> <s_epik_input>
W0NIM11bTkhdQyg9TylbQ0BAXTEoW0NIM10pW0NIMl1bQ0gyXU4oW0NIMl0xKWMobltjSF1uMiljKGMyMyluW2NIXW4zW0NIMl1bQ0BIXShbT0hdKVtDQEBIXTRbQ0gyXVtDSDJdW0NIMl1PNA==

> <s_epik_cmdline>
J2VwaWtfcHl0aG9uJywgJy1waCcsICc3LjAnLCAnLXRuJywgJzgnLCAnLW1hJywgJzIwMCcsICctbWV0YWxfYmluZGluZycsICctaW1hZScsICc8aW5maWxlLm1hZT4nLCAnLW9tYWUnLCAnPG91dGZpbGUubWFlPic=

> <r_lp_tautomer_probability>
1

> <r_epik_Ionization_Penalty>
0.00115068

> <r_epik_Ionization_Penalty_Charging>
0

> <r_epik_Ionization_Penalty_Neutral>
0.00115068

> <r_epik_State_Penalty>
0.000668876

> <r_epik_Charging_Adjusted_Penalty>
0.000668876

> <i_epik_Tot_Q>
0

> <i_epik_Tot_abs_Q>
0

> <r_epik_Metal_State_Penalty>
-0

> <b_epik_Metal_Only>
0

> <s_lp_Force_Field>
OPLS_2005

> <r_lp_Energy>
49.109

> <b_lp_Chiralities_Consistent>
1

> <s_lp_Variant>
AV-unprocessed.smi:260-6

> <Gold.Version>
5.8.1

> <Gold.Id.Protein>
6NUR|6NUR_protein|mol2

> <Gold.PLP.Fitness>
49.0132

> <Gold.PLP.PLP>
-44.7692

> <Gold.PLP.part.hbond>
-2.5892

> <Gold.PLP.part.metal>
0.0000

> <Gold.PLP.part.buried>
-4.0060

> <Gold.PLP.part.nonpolar>
-37.9262

> <Gold.PLP.part.repulsive>
0.0499

> <Gold.PLP.ligand.clash>
0.0000

> <Gold.PLP.ligand.torsion>
0.5082

> <Gold.PLP.Chemscore.Hbond>
1.5770

> <Gold.PLP.Chemscore.CHOScore>
0.0000

> <Gold.PLP.Chemscore.Metal>
0.0000

> <Gold.Chemscore.Hbonds>
donor molecule, donor type, donor heavy atom, donor atom, acceptor molecule, acceptor atom, score
      P1  H  6896  6908       L1    11  0.62
      P1  H  7997  8010       L1    21  0.90

> <Gold.PLP.Chemscore.Internal.Correction>
0.5294

> <Gold.Rescore>
     Score         DG    S(hbond)    S(metal)    S(lipo)     H(rot)  DE(clash)    DE(int)     intcor
     14.59     -15.23       1.11        0.00     107.03       2.53       0.21       0.43       ----

> <Gold.Chemscore.Fitness>
14.5888

> <Gold.Chemscore.DG>
-15.2291

> <Gold.Chemscore.ZeroCoef>
-5.4800

> <Gold.Chemscore.Hbond>
1.1058

> <Gold.Chemscore.Metal>
0.0000

> <Gold.Chemscore.Lipo>
107.0263

> <Gold.Chemscore.Internal_Hbond>
0.0000

> <Gold.Chemscore.DEClash>
0.2085

> <Gold.Chemscore.DEInternal>
0.4318

> <Gold.Chemscore.Rot>
2.5259

> <Gold.Chemscore.Internal.Correction>
   9.000000E+99

> <Gold.Chemscore.Hbonds>
donor molecule, donor type, donor heavy atom, donor atom, acceptor molecule, acceptor atom, score
      P1  H  6896  6908       L1    11  0.10
      P1  H  7997  8010       L1    21  0.72

> <Gold.Chemscore.Hbond.Weighted>
-3.6933

> <Gold.Chemscore.Metal.Weighted>
-0.0000

> <Gold.Chemscore.Lipo.Weighted>
-12.5221

> <Gold.Chemscore.Internal_Hbond.Weighted>
0.0000

> <Gold.Chemscore.DEClash.Weighted>
0.2085

> <Gold.Chemscore.DEInternal.Weighted>
0.4318

> <Gold.Chemscore.Rot.Weighted>
6.4663

> <Gold.Chemscore.Internal.Correction.Weighted>
   9.000000E+99

> <Gold.Protein.RotatedTorsions>
[ 6907 6896 6895 6894 ] final  -42.10 input  -60.11 | X-H torsion
[ 7974 7965 7964 7962 ] final  140.95 input  175.53 | X-H torsion
[ 8008 7997 7996 7995 ] final   16.92 input   59.86 | X-H torsion
[ 10167 10162 10161 10158 ] final   22.99 input  -65.29 | X-H torsion
[ 10718 10713 10712 10709 ] final  167.84 input   66.30 | X-H torsion
[ 10763 10752 10751 10750 ] final -153.22 input  -60.55 | X-H torsion
[ 11005 11000 10999 10996 ] final   80.27 input  -57.11 | X-H torsion

> <Gold.Protein.ActiveResidues>
 VAL166  LYS551  ARG553  GLY616  TRP617  ASP618  TYR619  PRO620  LYS621  CYS622 
 ASP623  PHE694  ASN695  SER759  ASP760  ASP761  ALA762  ILE779  LEU786  VAL792 
 PHE793  MET794  SER795  GLU796  ALA797  LYS798  CYS799  TRP800  GLU811  SER814 

> <Gold.Protein.RotatedAtoms>
  150.9591  134.8981  159.7719 H   0  0  0  0  0  0  0  0  0  0  0  0  # atno 6907 bound_to 6896
  152.5149  134.3698  159.9324 H   0  0  0  0  0  0  0  0  0  0  0  0  # atno 6908 bound_to 6896
  151.3711  133.3814  159.2734 H   0  0  0  0  0  0  0  0  0  0  0  0  # atno 6909 bound_to 6896
  144.9140  139.5255  143.5695 H   0  0  0  0  0  0  0  0  0  0  0  0  # atno 7974 bound_to 7965
  154.8839  140.2977  155.5409 H   0  0  0  0  0  0  0  0  0  0  0  0  # atno 8008 bound_to 7997
  156.3022  140.2437  156.3780 H   0  0  0  0  0  0  0  0  0  0  0  0  # atno 8009 bound_to 7997
  154.8688  140.0402  157.1700 H   0  0  0  0  0  0  0  0  0  0  0  0  # atno 8010 bound_to 7997
  140.5304  143.9850  150.6463 H   0  0  0  0  0  0  0  0  0  0  0  0  # atno 10167 bound_to 10162
  157.0457  131.0299  151.2698 H   0  0  0  0  0  0  0  0  0  0  0  0  # atno 10718 bound_to 10713
  154.7942  135.3218  154.7705 H   0  0  0  0  0  0  0  0  0  0  0  0  # atno 10763 bound_to 10752
  153.8387  135.6873  153.4810 H   0  0  0  0  0  0  0  0  0  0  0  0  # atno 10764 bound_to 10752
  153.1626  135.4654  154.9735 H   0  0  0  0  0  0  0  0  0  0  0  0  # atno 10765 bound_to 10752
  139.9141  134.7907  156.1887 H   0  0  0  0  0  0  0  0  0  0  0  0  # atno 11005 bound_to 11000
  146.3172  139.7968  142.8974 LP  0  0  0  0  0  0  0  0  0  0  0  0  # atno 17320 bound_to 7965
  145.3407  141.0287  143.3394 LP  0  0  0  0  0  0  0  0  0  0  0  0  # atno 17321 bound_to 7965
  140.3224  143.3129  152.0771 LP  0  0  0  0  0  0  0  0  0  0  0  0  # atno 17342 bound_to 10162
  139.4952  144.6565  151.6561 LP  0  0  0  0  0  0  0  0  0  0  0  0  # atno 17343 bound_to 10162
  157.5069  130.7915  149.7664 LP  0  0  0  0  0  0  0  0  0  0  0  0  # atno 17370 bound_to 10713
  156.0023  130.3873  150.2557 LP  0  0  0  0  0  0  0  0  0  0  0  0  # atno 17371 bound_to 10713
  141.0597  133.6848  156.1929 LP  0  0  0  0  0  0  0  0  0  0  0  0  # atno 17394 bound_to 11000
  140.6680  134.4897  157.5586 LP  0  0  0  0  0  0  0  0  0  0  0  0  # atno 17395 bound_to 11000

$$$$
