AV-unprocessed.smi:1574|AV-procd|sdf|6337|dock6
  -GOLD-   22720 6553D 1   1.00000     0.00000
 Structure written by MMmdl.
 40 41  0  0  0  0  0  0  0  0  1 V2000
  152.8037  142.2853  161.8326 C   0  0  0  0  0  0  0  0  0  0  0  0
  152.8165  143.4244  160.8011 C   0  0  2  0  0  0  0  0  0  0  0  0
  151.6401  144.4009  161.0116 C   0  0  0  0  0  0  0  0  0  0  0  0
  151.6803  145.5586  160.0016 C   0  0  0  0  0  0  0  0  0  0  0  0
  151.7203  145.0370  158.5574 C   0  0  0  0  0  0  0  0  0  0  0  0
  152.8952  144.0694  158.3491 C   0  0  0  0  0  0  0  0  0  0  0  0
  152.8422  142.8940  159.3498 C   0  0  2  0  0  0  0  0  0  0  0  0
  151.6715  142.1080  159.1607 O   0  0  0  0  0  0  0  0  0  0  0  0
  151.3839  141.7407  157.8209 C   0  0  0  0  0  0  0  0  0  0  0  0
  149.8914  141.3980  157.7150 C   0  0  0  0  0  0  0  0  0  0  0  0
  149.6522  140.3515  156.7262 N   0  0  0  0  0  0  0  0  0  0  0  0
  149.8261  140.4848  155.4016 C   0  0  0  0  0  0  0  0  0  0  0  0
  150.1977  141.5281  154.8644 O   0  0  0  0  0  0  0  0  0  0  0  0
  149.5439  139.2500  154.5473 C   0  0  0  0  0  0  0  0  0  0  0  0
  150.2737  138.0983  155.0415 N   0  0  0  0  0  0  0  0  0  0  0  0
  151.1546  137.2945  154.4424 C   0  0  0  0  0  0  0  0  0  0  0  0
  151.5835  136.3446  155.2595 N   0  0  0  0  0  0  0  0  0  0  0  0
  150.9054  136.6122  156.4371 N   0  0  0  0  0  0  0  0  0  0  0  0
  150.1274  137.6524  156.3141 N   0  0  0  0  0  0  0  0  0  0  0  0
  151.8945  141.6877  161.7575 H   0  0  0  0  0  0  0  0  0  0  0  0
  152.8585  142.6768  162.8487 H   0  0  0  0  0  0  0  0  0  0  0  0
  153.6538  141.6176  161.6906 H   0  0  0  0  0  0  0  0  0  0  0  0
  153.7391  143.9845  160.9605 H   0  0  0  0  0  0  0  0  0  0  0  0
  150.6926  143.8685  160.9156 H   0  0  0  0  0  0  0  0  0  0  0  0
  151.6644  144.8019  162.0252 H   0  0  0  0  0  0  0  0  0  0  0  0
  150.8128  146.2038  160.1414 H   0  0  0  0  0  0  0  0  0  0  0  0
  152.5583  146.1776  160.1901 H   0  0  0  0  0  0  0  0  0  0  0  0
  150.7864  144.5245  158.3274 H   0  0  0  0  0  0  0  0  0  0  0  0
  151.7942  145.8727  157.8609 H   0  0  0  0  0  0  0  0  0  0  0  0
  152.9076  143.7131  157.3200 H   0  0  0  0  0  0  0  0  0  0  0  0
  153.8320  144.6116  158.4832 H   0  0  0  0  0  0  0  0  0  0  0  0
  153.7248  142.2652  159.2212 H   0  0  0  0  0  0  0  0  0  0  0  0
  151.6290  142.5432  157.1257 H   0  0  0  0  0  0  0  0  0  0  0  0
  151.9808  140.8711  157.5431 H   0  0  0  0  0  0  0  0  0  0  0  0
  149.5336  141.0342  158.6781 H   0  0  0  0  0  0  0  0  0  0  0  0
  149.3080  142.2919  157.4875 H   0  0  0  0  0  0  0  0  0  0  0  0
  149.3500  139.4542  157.0769 H   0  0  0  0  0  0  0  0  0  0  0  0
  148.4760  139.0260  154.5321 H   0  0  0  0  0  0  0  0  0  0  0  0
  149.8474  139.4393  153.5171 H   0  0  0  0  0  0  0  0  0  0  0  0
  151.4769  137.4033  153.4173 H   0  0  0  0  0  0  0  0  0  0  0  0
  1  2  1  0  0  0  0
  1 20  1  0  0  0  0
  1 21  1  0  0  0  0
  1 22  1  0  0  0  0
  2  7  1  0  0  0  0
  2  3  1  0  0  0  0
  2 23  1  0  0  0  0
  3  4  1  0  0  0  0
  3 24  1  0  0  0  0
  3 25  1  0  0  0  0
  4  5  1  0  0  0  0
  4 26  1  0  0  0  0
  4 27  1  0  0  0  0
  5  6  1  0  0  0  0
  5 28  1  0  0  0  0
  5 29  1  0  0  0  0
  6  7  1  0  0  0  0
  6 30  1  0  0  0  0
  6 31  1  0  0  0  0
  7  8  1  0  0  0  0
  7 32  1  0  0  0  0
  8  9  1  0  0  0  0
  9 10  1  0  0  0  0
  9 33  1  0  0  0  0
  9 34  1  0  0  0  0
 10 11  1  0  0  0  0
 10 35  1  0  0  0  0
 10 36  1  0  0  0  0
 11 12  1  0  0  0  0
 11 37  1  0  0  0  0
 12 13  2  0  0  0  0
 12 14  1  0  0  0  0
 14 15  1  0  0  0  0
 14 38  1  0  0  0  0
 14 39  1  0  0  0  0
 15 19  1  0  0  0  0
 15 16  1  0  0  0  0
 16 17  2  0  0  0  0
 16 40  1  0  0  0  0
 17 18  1  0  0  0  0
 18 19  2  0  0  0  0
M  END
> <s_m_source_file>
AV-unprocessed.smi

> <i_m_source_file_index>
1574

> <i_lp_mmshare_version>
43012

> <i_f3d_flags>
0

> <s_epik_input>
W0NIM11bQ0BASF0xW0NIMl1bQ0gyXVtDSDJdW0NIMl1bQ0BIXTFPW0NIMl1bQ0gyXVtOSF1DKD1PKVtDSDJdbjJbY0hdbm5uMg==

> <s_epik_cmdline>
J2VwaWtfcHl0aG9uJywgJy1waCcsICc3LjAnLCAnLXRuJywgJzgnLCAnLW1hJywgJzIwMCcsICctbWV0YWxfYmluZGluZycsICctaW1hZScsICc8aW5maWxlLm1hZT4nLCAnLW9tYWUnLCAnPG91dGZpbGUubWFlPic=

> <r_lp_tautomer_probability>
1

> <r_epik_Ionization_Penalty>
1.44269e-06

> <r_epik_Ionization_Penalty_Charging>
0

> <r_epik_Ionization_Penalty_Neutral>
1.44269e-06

> <r_epik_State_Penalty>
-0

> <r_epik_Charging_Adjusted_Penalty>
0

> <i_epik_Tot_Q>
0

> <i_epik_Tot_abs_Q>
0

> <r_epik_Metal_State_Penalty>
-0

> <b_epik_Metal_Only>
0

> <s_lp_Force_Field>
OPLS_2005

> <r_lp_Energy>
10.5238

> <b_lp_Chiralities_Consistent>
1

> <s_lp_Variant>
AV-unprocessed.smi:1574-3

> <Gold.Version>
5.8.1

> <Gold.Id.Protein>
6NUR|6NUR_protein|mol2

> <Gold.PLP.Fitness>
46.9242

> <Gold.PLP.PLP>
-40.9151

> <Gold.PLP.part.hbond>
-2.0000

> <Gold.PLP.part.metal>
0.0000

> <Gold.PLP.part.buried>
-3.5971

> <Gold.PLP.part.nonpolar>
-35.5619

> <Gold.PLP.part.repulsive>
0.2826

> <Gold.PLP.ligand.clash>
0.0000

> <Gold.PLP.ligand.torsion>
0.4822

> <Gold.PLP.Chemscore.Hbond>
1.3042

> <Gold.PLP.Chemscore.CHOScore>
0.9976

> <Gold.PLP.Chemscore.Metal>
0.0000

> <Gold.Chemscore.Hbonds>
donor molecule, donor type, donor heavy atom, donor atom, acceptor molecule, acceptor atom, score
      P1  H  7989  7998       L1    13  0.39
      P1  H 10752 10765       L1    17  1.00
      L1  C    16    40       P1  7949  1.00

> <Gold.PLP.Chemscore.Internal.Correction>
0.0680

> <Gold.Rescore>
     Score         DG    S(hbond)    S(metal)    S(lipo)     H(rot)  DE(clash)    DE(int)     intcor
     12.48     -14.39       1.23        0.00     104.75       2.90       0.25       1.66       ----

> <Gold.Chemscore.Fitness>
12.4777

> <Gold.Chemscore.DG>
-14.3919

> <Gold.Chemscore.ZeroCoef>
-5.4800

> <Gold.Chemscore.Hbond>
1.2252

> <Gold.Chemscore.Metal>
0.0000

> <Gold.Chemscore.Lipo>
104.7548

> <Gold.Chemscore.Internal_Hbond>
0.0000

> <Gold.Chemscore.DEClash>
0.2536

> <Gold.Chemscore.DEInternal>
1.6606

> <Gold.Chemscore.Rot>
2.9050

> <Gold.Chemscore.Internal.Correction>
   9.000000E+99

> <Gold.Chemscore.Hbonds>
donor molecule, donor type, donor heavy atom, donor atom, acceptor molecule, acceptor atom, score
      P1  H  7989  7998       L1    13  0.17
      P1  H 10752 10765       L1    17  0.60

> <Gold.Chemscore.Hbond.Weighted>
-4.0922

> <Gold.Chemscore.Metal.Weighted>
-0.0000

> <Gold.Chemscore.Lipo.Weighted>
-12.2563

> <Gold.Chemscore.Internal_Hbond.Weighted>
0.0000

> <Gold.Chemscore.DEClash.Weighted>
0.2536

> <Gold.Chemscore.DEInternal.Weighted>
1.6606

> <Gold.Chemscore.Rot.Weighted>
7.4367

> <Gold.Chemscore.Internal.Correction.Weighted>
   9.000000E+99

> <Gold.Protein.RotatedTorsions>
[ 6907 6896 6895 6894 ] final   79.86 input  -60.11 | X-H torsion
[ 7974 7965 7964 7962 ] final -131.49 input  175.53 | X-H torsion
[ 8008 7997 7996 7995 ] final  167.90 input   59.86 | X-H torsion
[ 10167 10162 10161 10158 ] final  176.56 input  -65.29 | X-H torsion
[ 10718 10713 10712 10709 ] final   62.08 input   66.30 | X-H torsion
[ 10763 10752 10751 10750 ] final  173.01 input  -60.55 | X-H torsion
[ 11005 11000 10999 10996 ] final  141.65 input  -57.11 | X-H torsion

> <Gold.Protein.ActiveResidues>
 VAL166  LYS551  ARG553  GLY616  TRP617  ASP618  TYR619  PRO620  LYS621  CYS622 
 ASP623  PHE694  ASN695  SER759  ASP760  ASP761  ALA762  ILE779  LEU786  VAL792 
 PHE793  MET794  SER795  GLU796  ALA797  LYS798  CYS799  TRP800  GLU811  SER814 

> <Gold.Protein.RotatedAtoms>
  152.5214  134.3446  159.9229 H   0  0  0  0  0  0  0  0  0  0  0  0  # atno 6907 bound_to 6896
  151.3396  133.3961  159.2677 H   0  0  0  0  0  0  0  0  0  0  0  0  # atno 6908 bound_to 6896
  150.9814  134.9186  159.7904 H   0  0  0  0  0  0  0  0  0  0  0  0  # atno 6909 bound_to 6896
  144.9374  140.7199  143.4868 H   0  0  0  0  0  0  0  0  0  0  0  0  # atno 7974 bound_to 7965
  156.1594  140.1605  156.8638 H   0  0  0  0  0  0  0  0  0  0  0  0  # atno 8008 bound_to 7997
  154.5146  140.0792  156.8092 H   0  0  0  0  0  0  0  0  0  0  0  0  # atno 8009 bound_to 7997
  155.3738  140.3401  155.4246 H   0  0  0  0  0  0  0  0  0  0  0  0  # atno 8010 bound_to 7997
  139.5219  144.2900  152.0472 H   0  0  0  0  0  0  0  0  0  0  0  0  # atno 10167 bound_to 10162
  157.5875  130.9030  149.9542 H   0  0  0  0  0  0  0  0  0  0  0  0  # atno 10718 bound_to 10713
  154.4341  135.2760  155.1892 H   0  0  0  0  0  0  0  0  0  0  0  0  # atno 10763 bound_to 10752
  154.3786  135.6092  153.5782 H   0  0  0  0  0  0  0  0  0  0  0  0  # atno 10764 bound_to 10752
  152.9837  135.5875  154.4657 H   0  0  0  0  0  0  0  0  0  0  0  0  # atno 10765 bound_to 10752
  140.0417  134.9301  157.0855 H   0  0  0  0  0  0  0  0  0  0  0  0  # atno 11005 bound_to 11000
  145.3045  139.1839  143.4672 LP  0  0  0  0  0  0  0  0  0  0  0  0  # atno 17320 bound_to 7965
  146.3272  140.3041  142.8622 LP  0  0  0  0  0  0  0  0  0  0  0  0  # atno 17321 bound_to 7965
  140.2352  144.4327  150.6283 LP  0  0  0  0  0  0  0  0  0  0  0  0  # atno 17342 bound_to 10162
  140.6328  143.2190  151.6459 LP  0  0  0  0  0  0  0  0  0  0  0  0  # atno 17343 bound_to 10162
  156.0925  130.3662  150.0367 LP  0  0  0  0  0  0  0  0  0  0  0  0  # atno 17370 bound_to 10713
  156.8496  130.9454  151.3626 LP  0  0  0  0  0  0  0  0  0  0  0  0  # atno 17371 bound_to 10713
  140.4058  134.2034  155.7163 LP  0  0  0  0  0  0  0  0  0  0  0  0  # atno 17394 bound_to 11000
  141.1886  133.8256  157.0987 LP  0  0  0  0  0  0  0  0  0  0  0  0  # atno 17395 bound_to 11000

$$$$
