AV-unprocessed.smi:1863|AV-procd|sdf|7550|dock2
  -GOLD-   22720 9263D 1   1.00000     0.00000
 Structure written by MMmdl.
 37 38  0  0  0  0  0  0  0  0  1 V2000
  149.0974  132.2019  153.6961 C   0  0  0  0  0  0  0  0  0  0  0  0
  148.4548  133.2631  154.6001 C   0  0  2  0  0  0  0  0  0  0  0  0
  146.9139  133.2114  154.5103 C   0  0  0  0  0  0  0  0  0  0  0  0
  146.4401  133.1808  153.1272 N   0  0  0  0  0  0  0  0  0  0  0  0
  146.3501  131.9241  152.4027 C   0  0  0  0  0  0  0  0  0  0  0  0
  145.6256  132.2725  151.0954 C   0  0  0  0  0  0  0  0  0  0  0  0
  145.6954  133.7985  150.9778 C   0  0  0  0  0  0  0  0  0  0  0  0
  146.1250  134.2370  152.3673 C   0  0  0  0  0  0  0  0  0  0  0  0
  146.1640  135.4176  152.7116 O   0  0  0  0  0  0  0  0  0  0  0  0
  148.9522  134.5750  154.1892 N   0  0  0  0  0  0  0  0  0  0  0  0
  149.6463  135.4240  154.9614 C   0  0  0  0  0  0  0  0  0  0  0  0
  149.9608  135.1834  156.1270 O   0  0  0  0  0  0  0  0  0  0  0  0
  149.9129  136.5662  154.3059 N   0  0  0  0  0  0  0  0  0  0  0  0
  150.6062  137.7114  154.7810 C   0  0  0  0  0  0  0  0  0  0  0  0
  151.5236  137.5398  155.8380 C   0  0  0  0  0  0  0  0  0  0  0  0
  152.2113  138.6616  156.3382 C   0  0  0  0  0  0  0  0  0  0  0  0
  151.9451  139.9203  155.7655 C   0  0  0  0  0  0  0  0  0  0  0  0
  151.0587  140.1056  154.7647 N   0  0  0  0  0  0  0  0  0  0  0  0
  150.4045  139.0244  154.2876 C   0  0  0  0  0  0  0  0  0  0  0  0
  148.7818  131.1985  153.9834 H   0  0  0  0  0  0  0  0  0  0  0  0
  150.1854  132.2340  153.7639 H   0  0  0  0  0  0  0  0  0  0  0  0
  148.8236  132.3503  152.6507 H   0  0  0  0  0  0  0  0  0  0  0  0
  148.7594  133.0390  155.6241 H   0  0  0  0  0  0  0  0  0  0  0  0
  146.5208  132.3611  155.0706 H   0  0  0  0  0  0  0  0  0  0  0  0
  146.4906  134.0989  154.9829 H   0  0  0  0  0  0  0  0  0  0  0  0
  147.3555  131.5500  152.2051 H   0  0  0  0  0  0  0  0  0  0  0  0
  145.8097  131.1694  152.9757 H   0  0  0  0  0  0  0  0  0  0  0  0
  146.0765  131.7732  150.2372 H   0  0  0  0  0  0  0  0  0  0  0  0
  144.5832  131.9552  151.1504 H   0  0  0  0  0  0  0  0  0  0  0  0
  146.4470  134.1082  150.2513 H   0  0  0  0  0  0  0  0  0  0  0  0
  144.7357  134.2356  150.7003 H   0  0  0  0  0  0  0  0  0  0  0  0
  148.7315  134.8665  153.2483 H   0  0  0  0  0  0  0  0  0  0  0  0
  149.5107  136.6536  153.3842 H   0  0  0  0  0  0  0  0  0  0  0  0
  151.7046  136.5611  156.2584 H   0  0  0  0  0  0  0  0  0  0  0  0
  152.9257  138.5598  157.1416 H   0  0  0  0  0  0  0  0  0  0  0  0
  152.4536  140.8030  156.1243 H   0  0  0  0  0  0  0  0  0  0  0  0
  149.6909  139.2377  153.5071 H   0  0  0  0  0  0  0  0  0  0  0  0
  1  2  1  0  0  0  0
  1 20  1  0  0  0  0
  1 21  1  0  0  0  0
  1 22  1  0  0  0  0
  2  3  1  0  0  0  0
  2 10  1  0  0  0  0
  2 23  1  0  0  0  0
  3  4  1  0  0  0  0
  3 24  1  0  0  0  0
  3 25  1  0  0  0  0
  4  8  1  0  0  0  0
  4  5  1  0  0  0  0
  5  6  1  0  0  0  0
  5 26  1  0  0  0  0
  5 27  1  0  0  0  0
  6  7  1  0  0  0  0
  6 28  1  0  0  0  0
  6 29  1  0  0  0  0
  7  8  1  0  0  0  0
  7 30  1  0  0  0  0
  7 31  1  0  0  0  0
  8  9  2  0  0  0  0
 10 11  1  0  0  0  0
 10 32  1  0  0  0  0
 11 12  2  0  0  0  0
 11 13  1  0  0  0  0
 13 14  1  0  0  0  0
 13 33  1  0  0  0  0
 14 19  1  0  0  0  0
 14 15  2  0  0  0  0
 15 16  1  0  0  0  0
 15 34  1  0  0  0  0
 16 17  2  0  0  0  0
 16 35  1  0  0  0  0
 17 18  1  0  0  0  0
 17 36  1  0  0  0  0
 18 19  2  0  0  0  0
 19 37  1  0  0  0  0
M  END
> <s_m_source_file>
AV-unprocessed.smi

> <i_m_source_file_index>
1863

> <i_lp_mmshare_version>
43012

> <i_f3d_flags>
0

> <s_epik_input>
Tz1DMVtDSDJdW0NIMl1bQ0gyXU4xW0NIMl1bQ0BASF0oW0NIM10pW05IXUMoPU8pW05IXWMyW2NIXVtjSF1bY0hdbltjSF0y

> <s_epik_cmdline>
J2VwaWtfcHl0aG9uJywgJy1waCcsICc3LjAnLCAnLXRuJywgJzgnLCAnLW1hJywgJzIwMCcsICctbWV0YWxfYmluZGluZycsICctaW1hZScsICc8aW5maWxlLm1hZT4nLCAnLW9tYWUnLCAnPG91dGZpbGUubWFlPic=

> <r_epik_Ionization_Penalty>
0.0047799

> <r_epik_Ionization_Penalty_Charging>
0

> <r_epik_Ionization_Penalty_Neutral>
0.0047799

> <r_epik_State_Penalty>
0.0034394

> <r_epik_Charging_Adjusted_Penalty>
0.0034394

> <i_epik_Tot_Q>
0

> <i_epik_Tot_abs_Q>
0

> <r_epik_Metal_State_Penalty>
-0

> <b_epik_Metal_Only>
0

> <s_lp_Force_Field>
OPLS_2005

> <r_lp_Energy>
22.2943

> <b_lp_Chiralities_Consistent>
1

> <s_lp_Variant>
AV-unprocessed.smi:1863-1

> <Gold.Version>
5.8.1

> <Gold.Id.Protein>
6NUR|6NUR_protein|mol2

> <Gold.PLP.Fitness>
41.5557

> <Gold.PLP.PLP>
-30.8263

> <Gold.PLP.part.hbond>
-4.0000

> <Gold.PLP.part.metal>
0.0000

> <Gold.PLP.part.buried>
-3.3697

> <Gold.PLP.part.nonpolar>
-23.5493

> <Gold.PLP.part.repulsive>
1.1227

> <Gold.PLP.ligand.clash>
0.0000

> <Gold.PLP.ligand.torsion>
0.5676

> <Gold.PLP.Chemscore.Hbond>
2.9440

> <Gold.PLP.Chemscore.CHOScore>
1.0000

> <Gold.PLP.Chemscore.Metal>
0.0000

> <Gold.Chemscore.Hbonds>
donor molecule, donor type, donor heavy atom, donor atom, acceptor molecule, acceptor atom, score
      L1  H    10    32       P1  7948  0.94
      L1  H    13    33       P1  7948  1.00
      P1  H  7989  7998       L1    18  1.00
      L1  C    19    37       P1  7957  1.00

> <Gold.PLP.Chemscore.Internal.Correction>
0.0327

> <Gold.Rescore>
     Score         DG    S(hbond)    S(metal)    S(lipo)     H(rot)  DE(clash)    DE(int)     intcor
     13.47     -15.39       1.87        0.00      65.14       1.54       0.03       1.89       ----

> <Gold.Chemscore.Fitness>
13.4728

> <Gold.Chemscore.DG>
-15.3891

> <Gold.Chemscore.ZeroCoef>
-5.4800

> <Gold.Chemscore.Hbond>
1.8676

> <Gold.Chemscore.Metal>
0.0000

> <Gold.Chemscore.Lipo>
65.1376

> <Gold.Chemscore.Internal_Hbond>
0.0000

> <Gold.Chemscore.DEClash>
0.0310

> <Gold.Chemscore.DEInternal>
1.8853

> <Gold.Chemscore.Rot>
1.5428

> <Gold.Chemscore.Internal.Correction>
   9.000000E+99

> <Gold.Chemscore.Hbonds>
donor molecule, donor type, donor heavy atom, donor atom, acceptor molecule, acceptor atom, score
      L1  H    10    32       P1  7948  0.36
      L1  H    13    33       P1  7948  0.74
      P1  H  7989  7998       L1    18  0.49

> <Gold.Chemscore.Hbond.Weighted>
-6.2376

> <Gold.Chemscore.Metal.Weighted>
-0.0000

> <Gold.Chemscore.Lipo.Weighted>
-7.6211

> <Gold.Chemscore.Internal_Hbond.Weighted>
0.0000

> <Gold.Chemscore.DEClash.Weighted>
0.0310

> <Gold.Chemscore.DEInternal.Weighted>
1.8853

> <Gold.Chemscore.Rot.Weighted>
3.9497

> <Gold.Chemscore.Internal.Correction.Weighted>
   9.000000E+99

> <Gold.Protein.RotatedTorsions>
[ 6907 6896 6895 6894 ] final   93.61 input  -60.11 | X-H torsion
[ 7974 7965 7964 7962 ] final   -4.68 input  175.53 | X-H torsion
[ 8008 7997 7996 7995 ] final   98.99 input   59.86 | X-H torsion
[ 10167 10162 10161 10158 ] final   68.00 input  -65.29 | X-H torsion
[ 10718 10713 10712 10709 ] final   54.52 input   66.30 | X-H torsion
[ 10763 10752 10751 10750 ] final -133.37 input  -60.55 | X-H torsion
[ 11005 11000 10999 10996 ] final  -30.51 input  -57.11 | X-H torsion

> <Gold.Protein.ActiveResidues>
 VAL166  LYS551  ARG553  GLY616  TRP617  ASP618  TYR619  PRO620  LYS621  CYS622 
 ASP623  PHE694  ASN695  SER759  ASP760  ASP761  ALA762  ILE779  LEU786  VAL792 
 PHE793  MET794  SER795  GLU796  ALA797  LYS798  CYS799  TRP800  GLU811  SER814 

> <Gold.Protein.RotatedAtoms>
  152.5452  134.1320  159.8442 H   0  0  0  0  0  0  0  0  0  0  0  0  # atno 6907 bound_to 6896
  151.1365  133.4993  159.2605 H   0  0  0  0  0  0  0  0  0  0  0  0  # atno 6908 bound_to 6896
  151.1619  135.0287  159.8768 H   0  0  0  0  0  0  0  0  0  0  0  0  # atno 6909 bound_to 6896
  146.2368  140.1908  142.8332 H   0  0  0  0  0  0  0  0  0  0  0  0  # atno 7974 bound_to 7965
  156.1060  140.3235  155.8007 H   0  0  0  0  0  0  0  0  0  0  0  0  # atno 8008 bound_to 7997
  155.4755  140.0550  157.2991 H   0  0  0  0  0  0  0  0  0  0  0  0  # atno 8009 bound_to 7997
  154.4728  140.2019  155.9967 H   0  0  0  0  0  0  0  0  0  0  0  0  # atno 8010 bound_to 7997
  140.0835  144.5050  150.7146 H   0  0  0  0  0  0  0  0  0  0  0  0  # atno 10167 bound_to 10162
  157.5264  130.8600  149.8628 H   0  0  0  0  0  0  0  0  0  0  0  0  # atno 10718 bound_to 10713
  154.8733  135.3768  154.4561 H   0  0  0  0  0  0  0  0  0  0  0  0  # atno 10763 bound_to 10752
  153.5233  135.7028  153.5725 H   0  0  0  0  0  0  0  0  0  0  0  0  # atno 10764 bound_to 10752
  153.3962  135.3960  155.1922 H   0  0  0  0  0  0  0  0  0  0  0  0  # atno 10765 bound_to 10752
  140.9388  133.7291  156.1045 H   0  0  0  0  0  0  0  0  0  0  0  0  # atno 11005 bound_to 11000
  144.9860  140.8503  143.5368 LP  0  0  0  0  0  0  0  0  0  0  0  0  # atno 17320 bound_to 7965
  145.1907  139.2302  143.5244 LP  0  0  0  0  0  0  0  0  0  0  0  0  # atno 17321 bound_to 7965
  140.7066  143.2472  151.4709 LP  0  0  0  0  0  0  0  0  0  0  0  0  # atno 17342 bound_to 10162
  139.5766  144.1805  152.1911 LP  0  0  0  0  0  0  0  0  0  0  0  0  # atno 17343 bound_to 10162
  156.0390  130.3744  150.1484 LP  0  0  0  0  0  0  0  0  0  0  0  0  # atno 17370 bound_to 10713
  156.9671  130.9823  151.3467 LP  0  0  0  0  0  0  0  0  0  0  0  0  # atno 17371 bound_to 10713
  140.7762  134.3777  157.5497 LP  0  0  0  0  0  0  0  0  0  0  0  0  # atno 17394 bound_to 11000
  139.8815  134.9053  156.2896 LP  0  0  0  0  0  0  0  0  0  0  0  0  # atno 17395 bound_to 11000

$$$$
